data_PCOD9258944
_publ_section_title
;
Structure prediction by ZEFSAII (Michael W. Deem and Ramdas Pophale) SiO2 
 PCOD9258944
Probable space group: C 2/C
;
_chemical_formula_sum "Si O2"
_cell_formula_units_Z 36
_cell_length_a 13.504068
_cell_length_b 15.739930
_cell_length_c 11.349354
_cell_angle_alpha 90.000000
_cell_angle_beta 39.892099
_cell_angle_gamma 90.000000
_cell_volume 1547.139518
_symmetry_space_group_name_H-M "C 2/C"
_symmetry_group_IT_number 15
_symmetry_cell_setting 'monoclinic'
loop_
_space_group_symop_operation_xyz
x,y,z
-x,y,1/2-z
-x,-y,-z
x,-y,1/2+z
1/2+x,1/2+y,z
1/2-x,1/2+y,1/2-z
1/2-x,1/2-y,-z
1/2+x,1/2-y,1/2+z
loop_
_atom_site_type_symbol
_atom_site_label
_atom_site_fract_x
_atom_site_fract_y
_atom_site_fract_z
Si Si1 0.777313 0.138512 0.104989
Si Si2 0.214320 0.554061 0.646199
Si Si3 0.908563 0.381623 0.493900
Si Si4 0.000000 0.750516 0.250000
Si Si5 0.112334 0.796485 0.553291
O O1 0.727284 0.129494 0.287488
O O2 0.632277 0.188803 0.180304
O O3 0.781574 0.039029 0.068957
O O4 0.923400 0.189943 0.921162
O O5 0.160733 0.583734 0.564989
O O6 0.328795 0.628717 0.582817
O O7 0.063353 0.562054 0.866628
O O8 0.971374 0.284866 0.425125
O O9 0.250000 0.750000 0.500000
O O10 0.000000 0.838056 0.750000
#
# Coordination Sequence:
#
# PCOD9258944 Si02
#       5
#     8   8   8   4   8
#     4  11  24  43  65  86 122 167 208 247 307 354
#     4  10  21  37  62  95 123 150 206 254 293 369
#     4  10  20  38  64  90 122 162 194 244 317 362
#     4  10  26  46  60  84 126 164 210 256 288 370
#     4  10  18  34  57  87 124 150 186 252 304 353
#
# _framework density 23.268749
#
# number of rings (size 3 to 8) (size 9 to 14) (size 15 to 20)
#    0.000    1.778    4.444    2.000    4.667    0.000 
#    4.000    1.111    0.000    0.000    0.000    0.000 
#    0.000    0.000    0.000    0.000    0.000    0.000 
#
# Total GULP energy -100337.079940 kJ/mol
# GULP energy per Si atom -5574.282219 kJ/mol
# Density = 2.321579 g / cm^3
# Si number density = 23.268749 Si / 1000 Ang^3
#
#
#
# Elastic Constant Matrix: (Units=GPa)
#
#
# Indices 1 2 3 4 5 6 
#
# 1 23.8671 6.9260 11.2242 -0.0001 2.2085 0.0000
# 2 6.9260 147.5689 14.5603 -0.0001 0.9735 0.0000
# 3 11.2242 14.5603 114.8727 -0.0002 14.1809 0.0001
# 4 -0.0001 -0.0001 -0.0002 52.2319 0.0001 1.9389
# 5 2.2085 0.9735 14.1809 0.0001 30.9357 0.0000
# 6 0.0000 0.0000 0.0001 1.9389 0.0000 10.6193
#
#
#
# Elastic Compliance Matrix: (Units=1/GPa)
#
#
# Indices 1 2 3 4 5 6 
#
# 1 0.044370 -0.001683 -0.003962 0.000000 -0.001299 0.000000
# 2 -0.001683 0.006927 -0.000744 0.000000 0.000243 0.000000
# 3 -0.003962 -0.000744 0.009698 0.000000 -0.004139 0.000000
# 4 0.000000 0.000000 0.000000 0.019276 0.000000 -0.003519
# 5 -0.001299 0.000243 -0.004139 0.000000 0.034308 0.000000
# 6 0.000000 0.000000 0.000000 -0.003519 0.000000 0.094811
#
#
# Mechanical properties :
#
#
# Convention : Reuss Voigt Hill
#
# Bulk Modulus (GPa) = 20.73893 39.08108 29.91000
# Shear Modulus (GPa) = 20.98727 35.66390 28.32559
#
# Velocity S-wave (km/s) = 3.00651 3.91921 3.49280
# Velocity P-wave (km/s) = 4.58086 6.10838 5.39891
#
# Compressibility (1/GPa) = 0.04821850
#
# Stress axis : x y z
#
# Youngs Moduli (GPa) = 22.53752 144.35736 103.11806
#
# Poissons Ratio (x) = 0.24295 0.40853
# Poissons Ratio (y) = 0.03793 0.07668
# Poissons Ratio (z) = 0.08929 0.10734
#
# Static dielectric constant tensor:
#      x y z
#    x 1.990670 0.000000 -0.001930 
#    y 0.000000 1.896180 0.000000 
#    z -0.001930 0.000000 1.926830 
# 
# From -- ./inp_files/37474.got.cif
#   From: 2010.05.17/outbox.cif.g08.bks.cpg/sg15_19_cif.got.tgz:37474.got - 2010.06.03 18:47:42.
