data_PCOD9258642
_publ_section_title
;
Structure prediction by ZEFSAII (Michael W. Deem and Ramdas Pophale) SiO2 
 PCOD9258642
Probable space group: C 2/C
;
_chemical_formula_sum "Si O2"
_cell_formula_units_Z 44
_cell_length_a 10.135431
_cell_length_b 12.993102
_cell_length_c 15.724687
_cell_angle_alpha 90.000000
_cell_angle_beta 60.397873
_cell_angle_gamma 90.000000
_cell_volume 1800.507660
_symmetry_space_group_name_H-M "C 2/C"
_symmetry_group_IT_number 15
_symmetry_cell_setting 'monoclinic'
loop_
_space_group_symop_operation_xyz
x,y,z
-x,y,1/2-z
-x,-y,-z
x,-y,1/2+z
1/2+x,1/2+y,z
1/2-x,1/2+y,1/2-z
1/2-x,1/2-y,-z
1/2+x,1/2-y,1/2+z
loop_
_atom_site_type_symbol
_atom_site_label
_atom_site_fract_x
_atom_site_fract_y
_atom_site_fract_z
Si Si1 0.327752 0.498467 0.363131
Si Si2 0.602008 0.849885 0.857466
Si Si3 0.931127 0.274683 0.445712
Si Si4 0.415327 0.444042 0.605743
Si Si5 0.634827 0.019335 0.602080
Si Si6 0.500000 0.686704 0.750000
O O1 0.261737 0.593192 0.328032
O O2 0.499820 0.514223 0.339577
O O3 0.225113 0.506069 0.482507
O O4 0.350974 0.381441 0.324707
O O5 0.540758 0.815623 0.968781
O O6 0.500779 0.941724 0.856954
O O7 0.570241 0.757008 0.803024
O O8 0.750000 0.250000 0.500000
O O9 0.936013 0.366601 0.376145
O O10 0.040021 0.176145 0.404371
O O11 0.500000 0.500000 0.500000
O O12 0.246752 0.482714 0.641156
#
# Coordination Sequence:
#
# PCOD9258642 Si02
#       6
#     8   8   8   8   8   4
#     4  10  22  42  65  92 130 169 217 268 324 393
#     4  11  24  44  63  96 131 170 216 271 327 393
#     4  11  18  35  67  96 125 161 212 281 325 367
#     4  10  18  33  63 101 123 158 208 267 328 382
#     4  10  22  38  69 101 125 157 225 286 322 376
#     4  12  28  42  64  92 144 184 210 264 336 406
#
# _framework density 24.437552
#
# number of rings (size 3 to 8) (size 9 to 14) (size 15 to 20)
#    0.000    1.455    5.455    4.364    0.000    5.818 
#    0.000    0.000    0.000    2.182    0.000    0.000 
#    0.000    0.000    0.000    0.000    0.000    0.000 
#
# Total GULP energy -122779.329634 kJ/mol
# GULP energy per Si atom -5580.878620 kJ/mol
# Density = 2.438193 g / cm^3
# Si number density = 24.437552 Si / 1000 Ang^3
#
#
#
# Elastic Constant Matrix: (Units=GPa)
#
#
# Indices 1 2 3 4 5 6 
#
# 1 116.8341 56.1521 33.7746 0.0000 46.9167 0.0000
# 2 56.1521 181.6070 29.8470 0.0000 23.8136 0.0000
# 3 33.7746 29.8470 64.8309 0.0000 8.7427 0.0000
# 4 0.0000 0.0000 0.0000 32.9803 0.0000 16.6575
# 5 46.9167 23.8136 8.7427 0.0000 35.9361 0.0000
# 6 0.0000 0.0000 0.0000 16.6575 0.0000 13.6993
#
#
#
# Elastic Compliance Matrix: (Units=1/GPa)
#
#
# Indices 1 2 3 4 5 6 
#
# 1 0.021800 -0.002295 -0.006894 0.000000 -0.025263 0.000000
# 2 -0.002295 0.006627 -0.001724 0.000000 -0.000976 0.000000
# 3 -0.006894 -0.001724 0.019068 0.000000 0.005503 0.000000
# 4 0.000000 0.000000 0.000000 0.078580 0.000000 -0.095549
# 5 -0.025263 -0.000976 0.005503 0.000000 0.060118 0.000000
# 6 0.000000 0.000000 0.000000 -0.095549 0.000000 0.189178
#
#
# Mechanical properties :
#
#
# Convention : Reuss Voigt Hill
#
# Bulk Modulus (GPa) = 38.95603 66.97992 52.96798
# Shear Modulus (GPa) = 12.32284 32.75636 22.53960
#
# Velocity S-wave (km/s) = 2.24801 3.66513 3.04029
# Velocity P-wave (km/s) = 4.76589 6.73640 5.83493
#
# Compressibility (1/GPa) = 0.02566996
#
# Stress axis : x y z
#
# Youngs Moduli (GPa) = 45.87250 150.89167 52.44519
#
# Poissons Ratio (x) = 0.34625 0.36153
# Poissons Ratio (y) = 0.10526 0.09041
# Poissons Ratio (z) = 0.31622 0.26013
#
# Static dielectric constant tensor:
#      x y z
#    x 1.866900 0.000000 -0.002410 
#    y 0.000000 1.908080 0.000000 
#    z -0.002410 0.000000 2.107720 
# 
# From -- ./inp_files/195938.got.cif
#   From: 2010.05.17/outbox.cif.g08.bks.cpg/sg15_98_cif.got.tgz:195938.got - 2010.06.03 18:47:42.
