data_PCOD9258765
_publ_section_title
;
Structure prediction by ZEFSAII (Michael W. Deem and Ramdas Pophale) SiO2 
 PCOD9258765
Probable space group: C 2/C
;
_chemical_formula_sum "Si O2"
_cell_formula_units_Z 48
_cell_length_a 19.027914
_cell_length_b 21.597015
_cell_length_c 5.029979
_cell_angle_alpha 90.000000
_cell_angle_beta 107.239206
_cell_angle_gamma 90.000000
_cell_volume 1974.189872
_symmetry_space_group_name_H-M "C 2/C"
_symmetry_group_IT_number 15
_symmetry_cell_setting 'monoclinic'
loop_
_space_group_symop_operation_xyz
x,y,z
-x,y,1/2-z
-x,-y,-z
x,-y,1/2+z
1/2+x,1/2+y,z
1/2-x,1/2+y,1/2-z
1/2-x,1/2-y,-z
1/2+x,1/2-y,1/2+z
loop_
_atom_site_type_symbol
_atom_site_label
_atom_site_fract_x
_atom_site_fract_y
_atom_site_fract_z
Si Si1 0.920003 0.541031 0.695778
Si Si2 0.152562 0.290611 0.207084
Si Si3 0.061222 0.698628 0.114849
Si Si4 0.264454 0.957013 0.823913
Si Si5 0.310577 0.658045 0.050728
Si Si6 0.544709 0.345733 0.055818
O O1 0.919515 0.479916 0.501766
O O2 0.845174 0.569837 0.499216
O O3 0.000000 0.571166 0.750000
O O4 0.089728 0.314114 0.345846
O O5 0.232907 0.317077 0.355631
O O6 0.155643 0.216131 0.249632
O O7 0.132509 0.306090 0.883448
O O8 0.040155 0.770920 0.068125
O O9 0.000000 0.669874 0.250000
O O10 0.206734 0.903065 0.803830
O O11 0.258685 0.013543 0.027588
O O12 0.369450 0.641495 0.889968
O O13 0.500000 0.372357 0.250000
O O14 0.500000 0.366266 0.750000
#
# Coordination Sequence:
#
# PCOD9258765 Si02
#       6
#     8   8   8   8   8   8
#     4   8  14  28  49  72  98 132 176 215 254 312
#     4  10  22  34  58  88 115 156 185 232 294 331
#     4  10  18  34  54  83 122 154 191 226 273 346
#     4  10  22  37  58  83 109 148 188 231 282 329
#     4  10  22  39  59  85 119 145 192 241 285 349
#     4  10  20  34  57  83 108 151 193 228 285 350
#
# _framework density 24.313772
#
# number of rings (size 3 to 8) (size 9 to 14) (size 15 to 20)
#    0.000    2.333    0.000    4.500    0.000   12.667 
#    0.000    1.667    0.000   12.000    0.000    0.000 
#    0.000    0.000    0.000    0.000    0.000    0.000 
#
# Total GULP energy -134027.512835 kJ/mol
# GULP energy per Si atom -5584.479701 kJ/mol
# Density = 2.425843 g / cm^3
# Si number density = 24.313772 Si / 1000 Ang^3
#
#
#
# Elastic Constant Matrix: (Units=GPa)
#
#
# Indices 1 2 3 4 5 6 
#
# 1 156.7252 32.4610 19.4920 0.0000 -18.5322 0.0000
# 2 32.4610 61.9715 -9.2935 0.0000 -2.3962 0.0000
# 3 19.4920 -9.2935 112.6321 0.0000 -21.0913 0.0000
# 4 0.0000 0.0000 0.0000 1.9572 0.0000 6.8205
# 5 -18.5322 -2.3962 -21.0913 0.0000 26.0566 0.0000
# 6 0.0000 0.0000 0.0000 6.8205 0.0000 21.2728
#
#
#
# Elastic Compliance Matrix: (Units=1/GPa)
#
#
# Indices 1 2 3 4 5 6 
#
# 1 0.007866 -0.004072 -0.000848 0.000000 0.004533 0.000000
# 2 -0.004072 0.018656 0.002384 0.000000 0.000750 0.000000
# 3 -0.000848 0.002384 0.010785 0.000000 0.008346 0.000000
# 4 0.000000 0.000000 0.000000 -4.354538 0.000000 1.396157
# 5 0.004533 0.000750 0.008346 0.000000 0.048426 0.000000
# 6 0.000000 0.000000 0.000000 1.396157 0.000000 -0.400629
#
#
# Mechanical properties :
#
#
# Convention : Reuss Voigt Hill
#
# Bulk Modulus (GPa) = 31.02275 46.29422 38.65848
# Shear Modulus (GPa) = -1.07443 29.10194 14.01375
#
# Velocity S-wave (km/s) = -0.66548 3.46342 2.40338
# Velocity P-wave (km/s) = 3.49236 5.92245 4.86168
#
# Compressibility (1/GPa) = 0.03223441
#
# Stress axis : x y z
#
# Youngs Moduli (GPa) = 127.13750 53.60233 92.72321
#
# Poissons Ratio (x) = 0.21827 0.07866
# Poissons Ratio (y) = 0.51770 -0.22109
# Poissons Ratio (z) = 0.10785 -0.12781
#
# Static dielectric constant tensor:
#      x y z
#    x 1.974120 0.000000 0.016320 
#    y 0.000000 1.962650 0.000000 
#    z 0.016320 0.000000 1.903380 
# 
# From -- ./inp_files/10918.got.cif
#   From: 2010.05.17/outbox.cif.g08.bks.cpg/sg15_6_cif.got.tgz:10918.got - 2010.06.03 18:47:42.
