data_PCOD9258677
_publ_section_title
;
Structure prediction by ZEFSAII (Michael W. Deem and Ramdas Pophale) SiO2 
 PCOD9258677
Probable space group: C 2/C
;
_chemical_formula_sum "Si O2"
_cell_formula_units_Z 44
_cell_length_a 8.475806
_cell_length_b 18.508232
_cell_length_c 11.900976
_cell_angle_alpha 90.000000
_cell_angle_beta 76.218163
_cell_angle_gamma 90.000000
_cell_volume 1813.182835
_symmetry_space_group_name_H-M "C 2/C"
_symmetry_group_IT_number 15
_symmetry_cell_setting 'monoclinic'
loop_
_space_group_symop_operation_xyz
x,y,z
-x,y,1/2-z
-x,-y,-z
x,-y,1/2+z
1/2+x,1/2+y,z
1/2-x,1/2+y,1/2-z
1/2-x,1/2-y,-z
1/2+x,1/2-y,1/2+z
loop_
_atom_site_type_symbol
_atom_site_label
_atom_site_fract_x
_atom_site_fract_y
_atom_site_fract_z
Si Si1 0.000000 0.216446 0.250000
Si Si2 0.633313 0.639086 0.839029
Si Si3 0.896036 0.336204 0.448519
Si Si4 0.576446 0.513519 0.614433
Si Si5 0.149793 0.698223 0.291757
Si Si6 0.886852 0.534061 0.673287
O O1 0.044404 0.271428 0.141764
O O2 0.164046 0.173710 0.254243
O O3 0.707378 0.651319 0.949798
O O4 0.460426 0.600328 0.872724
O O5 0.653203 0.714927 0.773381
O O6 0.758923 0.580776 0.768151
O O7 0.904298 0.312829 0.572871
O O8 0.002433 0.406683 0.406516
O O9 0.500000 0.486357 0.750000
O O10 0.500000 0.500000 0.500000
O O11 0.767632 0.496556 0.602088
O O12 0.000000 0.666496 0.250000
O O13 0.000000 0.496810 0.750000
#
# Coordination Sequence:
#
# PCOD9258677 Si02
#       6
#     4   8   8   8   8   8
#     4  10  18  34  50  76 114 150 198 240 270 326
#     4   9  17  35  56  76 109 151 195 239 281 351
#     4  10  18  34  55  81 114 146 202 236 274 343
#     4  10  21  38  62  86 113 148 203 253 308 365
#     4  11  21  33  52  84 121 155 201 234 285 348
#     4   9  16  34  59  83 110 152 196 242 284 354
#
# _framework density 24.266719999999999
#
# number of rings (size 3 to 8) (size 9 to 14) (size 15 to 20)
#    0.000    2.182    4.545    3.818    0.000    0.727 
#    3.273   10.000    2.000    0.000    0.000    0.000 
#    0.000    0.000    0.000    0.000    0.000    0.000 
#
# Total GULP energy -122506.673726 kJ/mol
# GULP energy per Si atom -5568.485169 kJ/mol
# Density = 2.421149 g / cm^3
# Si number density = 24.266720 Si / 1000 Ang^3
#
#
#
# Elastic Constant Matrix: (Units=GPa)
#
#
# Indices 1 2 3 4 5 6 
#
# 1 211.8227 18.7382 64.6209 0.0000 36.7765 0.0000
# 2 18.7382 63.9797 10.9833 0.0000 -1.6808 0.0000
# 3 64.6209 10.9833 127.9194 0.0000 34.2778 0.0000
# 4 0.0000 0.0000 0.0000 12.0438 0.0000 5.6945
# 5 36.7765 -1.6808 34.2778 0.0000 36.2158 0.0000
# 6 0.0000 0.0000 0.0000 5.6945 0.0000 77.7683
#
#
#
# Elastic Compliance Matrix: (Units=1/GPa)
#
#
# Indices 1 2 3 4 5 6 
#
# 1 0.006220 -0.001651 -0.001725 0.000000 -0.004760 0.000000
# 2 -0.001651 0.016503 -0.001658 0.000000 0.004011 0.000000
# 3 -0.001725 -0.001658 0.011231 0.000000 -0.008955 0.000000
# 4 0.000000 0.000000 0.000000 0.086008 0.000000 -0.006298
# 5 -0.004760 0.004011 -0.008955 0.000000 0.041108 0.000000
# 6 0.000000 0.000000 0.000000 -0.006298 0.000000 0.013320
#
#
# Mechanical properties :
#
#
# Convention : Reuss Voigt Hill
#
# Bulk Modulus (GPa) = 41.86370 65.82294 53.84332
# Shear Modulus (GPa) = 25.98503 45.83089 35.90796
#
# Velocity S-wave (km/s) = 3.27587 4.35055 3.85089
# Velocity P-wave (km/s) = 5.62116 7.24017 6.48141
#
# Compressibility (1/GPa) = 0.02388704
#
# Stress axis : x y z
#
# Youngs Moduli (GPa) = 160.78421 60.59364 89.04119
#
# Poissons Ratio (x) = 0.10001 0.15357
# Poissons Ratio (y) = 0.26538 0.14764
# Poissons Ratio (z) = 0.27730 0.10047
#
# Static dielectric constant tensor:
#      x y z
#    x 2.068550 0.000000 0.074140 
#    y 0.000000 1.967450 0.000000 
#    z 0.074140 0.000000 1.980720 
# 
# From -- ./inp_files/78211.got.cif
#   From: 2010.05.17/outbox.cif.g08.bks.cpg/sg15_40_cif.got.tgz:78211.got - 2010.06.03 18:47:42.
