data_PCOD9258373
_publ_section_title
;
Structure prediction by ZEFSAII (Michael W. Deem and Ramdas Pophale) SiO2 
 PCOD9258373
Probable space group: C 2/C
;
_chemical_formula_sum "Si O2"
_cell_formula_units_Z 52
_cell_length_a 9.515155
_cell_length_b 15.717237
_cell_length_c 26.818133
_cell_angle_alpha 90.000000
_cell_angle_beta 142.735849
_cell_angle_gamma 90.000000
_cell_volume 2428.443431
_symmetry_space_group_name_H-M "C 2/C"
_symmetry_group_IT_number 15
_symmetry_cell_setting 'monoclinic'
loop_
_space_group_symop_operation_xyz
x,y,z
-x,y,1/2-z
-x,-y,-z
x,-y,1/2+z
1/2+x,1/2+y,z
1/2-x,1/2+y,1/2-z
1/2-x,1/2-y,-z
1/2+x,1/2-y,1/2+z
loop_
_atom_site_type_symbol
_atom_site_label
_atom_site_fract_x
_atom_site_fract_y
_atom_site_fract_z
Si Si1 0.117068 0.409101 0.039639
Si Si2 0.500000 0.205843 0.250000
Si Si3 0.692654 0.431987 0.608698
Si Si4 0.803735 0.348976 0.544773
Si Si5 0.695416 0.157352 0.961533
Si Si6 0.553860 0.692198 0.669233
Si Si7 0.739827 0.369813 0.130343
O O1 0.391573 0.392065 0.125296
O O2 0.002633 0.372995 0.057062
O O3 0.072966 0.365581 0.972947
O O4 0.000000 0.500000 0.000000
O O5 0.693162 0.141386 0.325580
O O6 0.399273 0.267128 0.264183
O O7 0.814778 0.423405 0.588882
O O8 0.420928 0.405561 0.529354
O O9 0.737757 0.528341 0.637260
O O10 0.898721 0.266511 0.599504
O O11 0.528461 0.344108 0.458067
O O12 0.634072 0.156680 0.885300
O O13 0.750000 0.250000 0.000000
O O14 0.764221 0.672369 0.691657
#
# Coordination Sequence:
#
# PCOD9258373 Si02
#       7
#     8   4   8   8   8   8   8
#     4  11  19  30  54  88 111 129 167 230 283 313
#     4  10  22  40  56  70 100 158 198 206 248 336
#     4  10  20  36  55  75 105 145 184 219 258 321
#     4   9  17  33  55  80 108 142 170 205 268 329
#     4  11  19  30  54  87 113 129 165 232 283 309
#     4  10  20  37  57  75 108 149 179 207 262 343
#     4  10  18  33  55  81 105 135 175 224 270 308
#
# _framework density 21.412893
#
# number of rings (size 3 to 8) (size 9 to 14) (size 15 to 20)
#    0.000    1.846    0.000   10.154    0.000    0.000 
#    0.000    6.154    0.000   11.077    0.000    0.000 
#    0.000    0.000    0.000    0.000    0.000    0.000 
#
# Total GULP energy -144916.173860 kJ/mol
# GULP energy per Si atom -5573.698995 kJ/mol
# Density = 2.136416 g / cm^3
# Si number density = 21.412893 Si / 1000 Ang^3
#
#
#
# Elastic Constant Matrix: (Units=GPa)
#
#
# Indices 1 2 3 4 5 6 
#
# 1 192.8381 46.1832 48.6241 -0.0001 -34.9964 0.0000
# 2 46.1832 97.9190 16.1385 -0.0001 -15.0465 0.0000
# 3 48.6241 16.1385 56.6231 -0.0003 -20.5092 -0.0001
# 4 -0.0001 -0.0001 -0.0003 14.1317 -0.0001 -8.6928
# 5 -34.9964 -15.0465 -20.5092 -0.0001 47.0793 0.0000
# 6 0.0000 0.0000 -0.0001 -8.6928 0.0000 38.5373
#
#
#
# Elastic Compliance Matrix: (Units=1/GPa)
#
#
# Indices 1 2 3 4 5 6 
#
# 1 0.007425 -0.002304 -0.004734 0.000000 0.002721 0.000000
# 2 -0.002304 0.011682 -0.000735 0.000000 0.001701 0.000000
# 3 -0.004734 -0.000735 0.024430 0.000001 0.006889 0.000000
# 4 0.000000 0.000000 0.000001 0.082164 0.000000 0.018533
# 5 0.002721 0.001701 0.006889 0.000000 0.026808 0.000000
# 6 0.000000 0.000000 0.000000 0.018533 0.000000 0.030129
#
#
# Mechanical properties :
#
#
# Convention : Reuss Voigt Hill
#
# Bulk Modulus (GPa) = 35.72528 63.25240 49.48884
# Shear Modulus (GPa) = 24.09483 35.71195 29.90339
#
# Velocity S-wave (km/s) = 3.35811 4.08827 3.74105
# Velocity P-wave (km/s) = 5.63526 7.20339 6.46703
#
# Compressibility (1/GPa) = 0.02799138
#
# Stress axis : x y z
#
# Youngs Moduli (GPa) = 134.68368 85.60528 40.93247
#
# Poissons Ratio (x) = 0.19720 0.19377
# Poissons Ratio (y) = 0.31026 0.03010
# Poissons Ratio (z) = 0.63758 0.06294
#
# Static dielectric constant tensor:
#      x y z
#    x 1.799880 0.000000 -0.029260 
#    y 0.000000 1.786600 0.000000 
#    z -0.029260 0.000000 1.875000 
# 
# From -- ./inp_files/288915.got.cif
#   From: 2010.05.17/outbox.cif.g08.bks.cpg/sg15_145_cif.got.tgz:288915.got - 2010.06.03 18:47:42.
