data_PCOD9258596
_publ_section_title
;
Structure prediction by ZEFSAII (Michael W. Deem and Ramdas Pophale) SiO2 
 PCOD9258596
Probable space group: C 2/C
;
_chemical_formula_sum "Si O2"
_cell_formula_units_Z 48
_cell_length_a 9.086792
_cell_length_b 10.950719
_cell_length_c 21.704417
_cell_angle_alpha 90.000000
_cell_angle_beta 61.424419
_cell_angle_gamma 90.000000
_cell_volume 1896.654851
_symmetry_space_group_name_H-M "C 2/C"
_symmetry_group_IT_number 15
_symmetry_cell_setting 'monoclinic'
loop_
_space_group_symop_operation_xyz
x,y,z
-x,y,1/2-z
-x,-y,-z
x,-y,1/2+z
1/2+x,1/2+y,z
1/2-x,1/2+y,1/2-z
1/2-x,1/2-y,-z
1/2+x,1/2-y,1/2+z
loop_
_atom_site_type_symbol
_atom_site_label
_atom_site_fract_x
_atom_site_fract_y
_atom_site_fract_z
Si Si1 0.641782 0.398079 0.481554
Si Si2 0.028067 0.808929 0.861232
Si Si3 0.940203 0.940287 0.192052
Si Si4 0.212854 0.263515 0.850843
Si Si5 0.915674 0.590878 0.435523
Si Si6 0.229116 0.323749 0.413770
O O1 0.500000 0.500000 0.500000
O O2 0.593819 0.336389 0.555648
O O3 0.635992 0.308901 0.424819
O O4 0.821555 0.464060 0.444190
O O5 0.904447 0.780961 0.829966
O O6 0.149044 0.706651 0.864227
O O7 0.125657 0.932052 0.821835
O O8 0.113954 0.913021 0.121495
O O9 0.000000 0.948244 0.250000
O O10 0.823630 0.824948 0.199131
O O11 0.101946 0.387031 0.872254
O O12 0.898051 0.620982 0.511417
O O13 0.801585 0.695039 0.424912
#
# Coordination Sequence:
#
# PCOD9258596 Si02
#       6
#     8   8   8   8   8   8
#     4  12  18  35  61  93 129 158 190 242 309 370
#     4  12  23  38  64  95 123 157 197 250 310 364
#     4  11  25  45  62  80 117 167 212 250 296 358
#     4  11  24  38  60  96 127 154 200 254 307 364
#     4  10  18  33  60  91 130 160 187 237 309 373
#     4  10  19  36  61  90 120 159 197 244 302 357
#
# _framework density 25.307715000000002
#
# number of rings (size 3 to 8) (size 9 to 14) (size 15 to 20)
#    0.000    1.000    6.667    1.500    0.000    3.333 
#    0.000    0.000    0.000    0.000    0.000    0.000 
#    0.000    0.000    0.000    0.000    0.000    0.000 
#
# Total GULP energy -134500.794242 kJ/mol
# GULP energy per Si atom -5604.199760 kJ/mol
# Density = 2.525011 g / cm^3
# Si number density = 25.307715 Si / 1000 Ang^3
#
#
#
# Elastic Constant Matrix: (Units=GPa)
#
#
# Indices 1 2 3 4 5 6 
#
# 1 124.2416 26.5227 8.6178 0.0000 16.6614 0.0000
# 2 26.5227 59.5999 6.9698 0.0000 5.4143 0.0000
# 3 8.6178 6.9698 88.9784 0.0000 27.5538 0.0000
# 4 0.0000 0.0000 0.0000 12.8097 0.0000 13.1575
# 5 16.6614 5.4143 27.5538 0.0000 25.6799 0.0000
# 6 0.0000 0.0000 0.0000 13.1575 0.0000 49.1243
#
#
#
# Elastic Compliance Matrix: (Units=1/GPa)
#
#
# Indices 1 2 3 4 5 6 
#
# 1 0.009729 -0.003861 0.001592 0.000000 -0.007206 0.000000
# 2 -0.003861 0.018645 -0.000966 0.000000 -0.000390 0.000000
# 3 0.001592 -0.000966 0.017098 0.000000 -0.019175 0.000000
# 4 0.000000 0.000000 0.000000 0.107694 0.000000 -0.028845
# 5 -0.007206 -0.000390 -0.019175 0.000000 0.064272 0.000000
# 6 0.000000 0.000000 0.000000 -0.028845 0.000000 0.028082
#
#
# Mechanical properties :
#
#
# Convention : Reuss Voigt Hill
#
# Bulk Modulus (GPa) = 25.64000 39.67115 32.65558
# Shear Modulus (GPa) = 18.86851 32.90342 25.88596
#
# Velocity S-wave (km/s) = 2.73346 3.60965 3.20167
# Velocity P-wave (km/s) = 4.48506 5.75172 5.15742
#
# Compressibility (1/GPa) = 0.03900156
#
# Stress axis : x y z
#
# Youngs Moduli (GPa) = 102.78498 53.63333 58.48646
#
# Poissons Ratio (x) = 0.20708 -0.09309
# Poissons Ratio (y) = 0.39686 0.05649
# Poissons Ratio (z) = -0.16360 0.05180
#
# Static dielectric constant tensor:
#      x y z
#    x 1.998880 0.000000 -0.000300 
#    y 0.000000 2.023470 0.000000 
#    z -0.000300 0.000000 1.964600 
# 
# From -- ./inp_files/263475.got.cif
#   From: 2010.05.17/outbox.cif.g08.bks.cpg/sg15_132_cif.got.tgz:263475.got - 2010.06.03 18:47:42.
