data_PCOD9258852
_publ_section_title
;
Structure prediction by ZEFSAII (Michael W. Deem and Ramdas Pophale) SiO2 
 PCOD9258852
Probable space group: C 2/C
;
_chemical_formula_sum "Si O2"
_cell_formula_units_Z 44
_cell_length_a 7.032557
_cell_length_b 17.080637
_cell_length_c 15.421811
_cell_angle_alpha 90.000000
_cell_angle_beta 67.500018
_cell_angle_gamma 90.000000
_cell_volume 1711.465318
_symmetry_space_group_name_H-M "C 2/C"
_symmetry_group_IT_number 15
_symmetry_cell_setting 'monoclinic'
loop_
_space_group_symop_operation_xyz
x,y,z
-x,y,1/2-z
-x,-y,-z
x,-y,1/2+z
1/2+x,1/2+y,z
1/2-x,1/2+y,1/2-z
1/2-x,1/2-y,-z
1/2+x,1/2-y,1/2+z
loop_
_atom_site_type_symbol
_atom_site_label
_atom_site_fract_x
_atom_site_fract_y
_atom_site_fract_z
Si Si1 0.668224 0.144013 0.852707
Si Si2 0.634582 0.936249 0.548316
Si Si3 0.619161 0.777999 0.605980
Si Si4 0.858496 0.232826 0.356548
Si Si5 0.676407 0.568352 0.072554
Si Si6 0.500000 0.472270 0.250000
O O1 0.802308 0.222667 0.833007
O O2 0.447840 0.181942 0.868210
O O3 0.798085 0.082834 0.774502
O O4 0.668013 0.104790 0.948045
O O5 0.674697 0.868837 0.610441
O O6 0.389123 0.944342 0.590373
O O7 0.764968 0.015918 0.522028
O O8 0.750000 0.750000 0.500000
O O9 0.380884 0.765268 0.626237
O O10 0.868298 0.160906 0.424157
O O11 0.000000 0.209314 0.250000
O O12 0.515214 0.524935 0.161775
#
# Coordination Sequence:
#
# PCOD9258852 Si02
#       6
#     8   8   8   8   8   4
#     4  10  20  34  57  84 112 149 193 239 287 338
#     4   8  17  33  55  80 109 148 191 231 282 347
#     4   9  19  35  55  83 115 144 186 241 285 335
#     4  11  21  34  57  87 114 151 197 240 283 345
#     4   9  17  32  54  81 110 150 190 227 285 346
#     4  10  18  34  56  80 116 158 188 228 294 348
#
# _framework density 25.708966
#
# number of rings (size 3 to 8) (size 9 to 14) (size 15 to 20)
#    0.000    2.545    0.909    1.091    0.000    6.545 
#    0.000    0.909    0.000   39.273    0.000    0.000 
#    0.000    0.000    0.000    0.000    0.000    0.000 
#
# Total GULP energy -122798.765690 kJ/mol
# GULP energy per Si atom -5581.762077 kJ/mol
# Density = 2.565045 g / cm^3
# Si number density = 25.708966 Si / 1000 Ang^3
#
#
#
# Elastic Constant Matrix: (Units=GPa)
#
#
# Indices 1 2 3 4 5 6 
#
# 1 95.4713 13.2315 27.0309 0.0000 -31.5015 0.0000
# 2 13.2315 117.7351 23.9133 0.0000 -3.9914 0.0000
# 3 27.0309 23.9133 104.7798 0.0000 -34.8911 0.0000
# 4 0.0000 0.0000 0.0000 36.9531 0.0000 -15.0674
# 5 -31.5015 -3.9914 -34.8911 0.0000 29.7515 0.0000
# 6 0.0000 0.0000 0.0000 -15.0674 0.0000 18.5833
#
#
#
# Elastic Compliance Matrix: (Units=1/GPa)
#
#
# Indices 1 2 3 4 5 6 
#
# 1 0.016867 -0.001815 0.003165 0.000000 0.021327 0.000000
# 2 -0.001815 0.009171 -0.003044 0.000000 -0.004261 0.000000
# 3 0.003165 -0.003044 0.017067 0.000000 0.022958 0.000000
# 4 0.000000 0.000000 0.000000 0.040426 0.000000 0.032778
# 5 0.021327 -0.004261 0.022958 0.000000 0.082545 0.000000
# 6 0.000000 0.000000 0.000000 0.032778 0.000000 0.080388
#
#
# Mechanical properties :
#
#
# Convention : Reuss Voigt Hill
#
# Bulk Modulus (GPa) = 25.17851 49.59307 37.38579
# Shear Modulus (GPa) = 19.00468 33.97826 26.49147
#
# Velocity S-wave (km/s) = 2.72182 3.63939 3.21352
# Velocity P-wave (km/s) = 4.43764 6.08213 5.32377
#
# Compressibility (1/GPa) = 0.03971640
#
# Stress axis : x y z
#
# Youngs Moduli (GPa) = 59.28773 109.03421 58.59297
#
# Poissons Ratio (x) = 0.19794 -0.18543
# Poissons Ratio (y) = 0.10763 0.17835
# Poissons Ratio (z) = -0.18763 0.33188
#
# Static dielectric constant tensor:
#      x y z
#    x 2.076570 0.000000 -0.030070 
#    y 0.000000 2.133840 0.000000 
#    z -0.030070 0.000000 2.119970 
# 
# From -- ./inp_files/264919.got.cif
#   From: 2010.05.17/outbox.cif.g08.bks.cpg/sg15_133_cif.got.tgz:264919.got - 2010.06.03 18:47:42.
