data_PCOD9258678
_publ_section_title
;
Structure prediction by ZEFSAII (Michael W. Deem and Ramdas Pophale) SiO2 
 PCOD9258678
Probable space group: C 2/C
;
_chemical_formula_sum "Si O2"
_cell_formula_units_Z 56
_cell_length_a 20.328674
_cell_length_b 12.055735
_cell_length_c 17.814179
_cell_angle_alpha 90.000000
_cell_angle_beta 132.797438
_cell_angle_gamma 90.000000
_cell_volume 3203.485293
_symmetry_space_group_name_H-M "C 2/C"
_symmetry_group_IT_number 15
_symmetry_cell_setting 'monoclinic'
loop_
_space_group_symop_operation_xyz
x,y,z
-x,y,1/2-z
-x,-y,-z
x,-y,1/2+z
1/2+x,1/2+y,z
1/2-x,1/2+y,1/2-z
1/2-x,1/2-y,-z
1/2+x,1/2-y,1/2+z
loop_
_atom_site_type_symbol
_atom_site_label
_atom_site_fract_x
_atom_site_fract_y
_atom_site_fract_z
Si Si1 0.484011 0.871629 0.960685
Si Si2 0.299742 0.141384 0.703573
Si Si3 0.636184 0.766339 0.518969
Si Si4 0.605493 0.685546 0.330845
Si Si5 0.177691 0.309504 0.105774
Si Si6 0.793362 0.398987 0.733342
Si Si7 0.761620 0.964050 0.642501
O O1 0.455240 0.796805 0.010079
O O2 0.395181 0.869433 0.838785
O O3 0.575502 0.821473 0.997658
O O4 0.500000 0.000000 0.000000
O O5 0.200127 0.192540 0.621264
O O6 0.357640 0.212137 0.690193
O O7 0.332753 0.160889 0.813725
O O8 0.299082 0.010732 0.689326
O O9 0.633590 0.705474 0.438128
O O10 0.685730 0.884606 0.547774
O O11 0.500000 0.682095 0.250000
O O12 0.648241 0.576799 0.326418
O O13 0.234676 0.196617 0.149050
O O14 0.235715 0.408780 0.115518
O O15 0.742885 0.431974 0.772497
#
# Coordination Sequence:
#
# PCOD9258678 Si02
#       7
#     8   8   8   8   8   8   8
#     4  11  18  31  55  83 105 142 184 226 271 326
#     4  10  18  34  50  77 112 140 173 228 275 316
#     4  10  19  33  52  81 108 139 180 228 277 317
#     4  11  21  32  54  80 109 141 184 225 269 331
#     4  11  18  33  54  77 112 140 178 226 277 322
#     4  10  20  33  54  78 114 141 181 228 274 324
#     4   9  18  32  50  76 104 140 175 221 277 309
#
# _framework density 17.480961000000001
#
# number of rings (size 3 to 8) (size 9 to 14) (size 15 to 20)
#    0.000    1.714    8.571    2.571    0.000    0.000 
#    0.000    2.143    0.000    4.286    0.000    0.000 
#    0.000    0.000    0.000    0.000    0.000    0.000 
#
# Total GULP energy -155976.737094 kJ/mol
# GULP energy per Si atom -5570.597753 kJ/mol
# Density = 1.744117 g / cm^3
# Si number density = 17.480961 Si / 1000 Ang^3
#
#
#
# Elastic Constant Matrix: (Units=GPa)
#
#
# Indices 1 2 3 4 5 6 
#
# 1 83.3798 56.7760 25.6856 0.0000 20.8279 0.0000
# 2 56.7760 93.7796 19.4522 0.0000 28.1064 0.0000
# 3 25.6856 19.4522 37.4189 0.0000 16.4001 0.0000
# 4 0.0000 0.0000 0.0000 16.1627 0.0000 -1.1425
# 5 20.8279 28.1064 16.4001 0.0000 25.3581 0.0000
# 6 0.0000 0.0000 0.0000 -1.1425 0.0000 12.7959
#
#
#
# Elastic Compliance Matrix: (Units=1/GPa)
#
#
# Indices 1 2 3 4 5 6 
#
# 1 0.023156 -0.012254 -0.009967 0.000000 0.001009 0.000000
# 2 -0.012254 0.022468 0.004515 0.000000 -0.017758 0.000000
# 3 -0.009967 0.004515 0.041623 0.000000 -0.023737 0.000000
# 4 0.000000 0.000000 0.000000 0.062264 0.000000 0.005559
# 5 0.001009 -0.017758 -0.023737 0.000000 0.073640 0.000000
# 6 0.000000 0.000000 0.000000 0.005559 0.000000 0.078647
#
#
# Mechanical properties :
#
#
# Convention : Reuss Voigt Hill
#
# Bulk Modulus (GPa) = 19.29253 46.48955 32.89104
# Shear Modulus (GPa) = 14.10489 18.37429 16.23959
#
# Velocity S-wave (km/s) = 2.84363 3.24559 3.05124
# Velocity P-wave (km/s) = 4.67353 6.37944 5.59192
#
# Compressibility (1/GPa) = 0.05183354
#
# Stress axis : x y z
#
# Youngs Moduli (GPa) = 43.18579 44.50810 24.02545
#
# Poissons Ratio (x) = 0.54540 0.23946
# Poissons Ratio (y) = 0.52920 -0.10847
# Poissons Ratio (z) = 0.43043 -0.20094
#
# Static dielectric constant tensor:
#      x y z
#    x 1.603480 0.000000 0.010200 
#    y 0.000000 1.607740 0.000000 
#    z 0.010200 0.000000 1.645090 
# 
# From -- ./inp_files/214859.got.cif
#   From: 2010.05.17/outbox.cif.g08.bks.cpg/sg15_108_cif.got.tgz:214859.got - 2010.06.03 18:47:42.
