data_PCOD9258627
_publ_section_title
;
Structure prediction by ZEFSAII (Michael W. Deem and Ramdas Pophale) SiO2 
 PCOD9258627
Probable space group: C 2/C
;
_chemical_formula_sum "Si O2"
_cell_formula_units_Z 64
_cell_length_a 26.026167
_cell_length_b 12.139288
_cell_length_c 16.428174
_cell_angle_alpha 90.000000
_cell_angle_beta 32.295305
_cell_angle_gamma 90.000000
_cell_volume 2773.091154
_symmetry_space_group_name_H-M "C 2/C"
_symmetry_group_IT_number 15
_symmetry_cell_setting 'monoclinic'
loop_
_space_group_symop_operation_xyz
x,y,z
-x,y,1/2-z
-x,-y,-z
x,-y,1/2+z
1/2+x,1/2+y,z
1/2-x,1/2+y,1/2-z
1/2-x,1/2-y,-z
1/2+x,1/2-y,1/2+z
loop_
_atom_site_type_symbol
_atom_site_label
_atom_site_fract_x
_atom_site_fract_y
_atom_site_fract_z
Si Si1 0.636213 0.892980 0.997511
Si Si2 0.847504 0.022349 0.160659
Si Si3 0.828427 0.109696 0.839141
Si Si4 0.968867 0.552094 0.156953
Si Si5 0.405825 0.760823 0.046176
Si Si6 0.798512 0.424354 0.409286
Si Si7 0.702706 0.336034 0.387854
Si Si8 0.372247 0.780147 0.905199
O O1 0.646017 0.887431 0.082985
O O2 0.552934 0.971877 0.075618
O O3 0.737728 0.942124 0.829915
O O4 0.631785 0.767392 0.972970
O O5 0.905761 0.136346 0.078912
O O6 0.876625 0.941824 0.195471
O O7 0.841878 0.949199 0.086500
O O8 0.888213 0.180565 0.822109
O O9 0.740860 0.191674 0.932178
O O10 0.779058 0.011724 0.955181
O O11 0.878985 0.482425 0.244447
O O12 0.918248 0.613954 0.300852
O O13 0.012666 0.648693 0.041962
O O14 0.300960 0.809744 0.207871
O O15 0.410135 0.756293 0.942929
O O16 0.740098 0.341647 0.430806
#
# Coordination Sequence:
#
# PCOD9258627 Si02
#       8
#     8   8   8   8   8   8   8   8
#     4  10  20  37  59  83 120 159 204 247 301 365
#     4  10  20  36  56  82 122 154 193 259 305 358
#     4   9  18  35  56  88 113 156 210 248 292 365
#     4  11  21  39  62  89 121 158 208 260 299 352
#     4  11  20  34  56  87 117 156 199 250 311 354
#     4  10  20  35  59  87 119 160 203 249 299 365
#     4  11  21  35  57  87 122 154 199 250 305 369
#     4  10  18  33  62  84 115 154 211 252 294 359
#
# _framework density 23.078938999999998
#
# number of rings (size 3 to 8) (size 9 to 14) (size 15 to 20)
#    0.000    1.750    2.500    4.125    0.000    0.500 
#    0.000    0.625    0.000    9.000    0.000    0.000 
#    0.000    0.000    0.000    0.000    0.000    0.000 
#
# Total GULP energy -178779.465118 kJ/mol
# GULP energy per Si atom -5586.858285 kJ/mol
# Density = 2.302641 g / cm^3
# Si number density = 23.078939 Si / 1000 Ang^3
#
#
#
# Elastic Constant Matrix: (Units=GPa)
#
#
# Indices 1 2 3 4 5 6 
#
# 1 39.6881 15.8783 15.7505 0.0000 11.6340 0.0000
# 2 15.8783 105.5949 27.3360 0.0000 1.6679 0.0000
# 3 15.7505 27.3360 56.5039 0.0000 -2.7213 0.0000
# 4 0.0000 0.0000 0.0000 29.6243 0.0000 4.4700
# 5 11.6340 1.6679 -2.7213 0.0000 26.2987 0.0000
# 6 0.0000 0.0000 0.0000 4.4700 0.0000 37.6445
#
#
#
# Elastic Compliance Matrix: (Units=1/GPa)
#
#
# Indices 1 2 3 4 5 6 
#
# 1 0.034579 -0.002572 -0.009169 0.000000 -0.016083 0.000000
# 2 -0.002572 0.011057 -0.004635 0.000000 -0.000043 0.000000
# 3 -0.009169 -0.004635 0.022819 0.000000 0.006711 0.000000
# 4 0.000000 0.000000 0.000000 0.034372 0.000000 -0.004081
# 5 -0.016083 -0.000043 0.006711 0.000000 0.045837 0.000000
# 6 0.000000 0.000000 0.000000 -0.004081 0.000000 0.027049
#
#
# Mechanical properties :
#
#
# Convention : Reuss Voigt Hill
#
# Bulk Modulus (GPa) = 28.00809 35.52405 31.76607
# Shear Modulus (GPa) = 22.68961 28.23495 25.46228
#
# Velocity S-wave (km/s) = 3.13889 3.50152 3.32515
# Velocity P-wave (km/s) = 5.02981 5.63678 5.34193
#
# Compressibility (1/GPa) = 0.03570396
#
# Stress axis : x y z
#
# Youngs Moduli (GPa) = 28.91960 90.43762 43.82272
#
# Poissons Ratio (x) = 0.23259 0.40182
# Poissons Ratio (y) = 0.07438 0.20310
# Poissons Ratio (z) = 0.26517 0.41914
#
# Static dielectric constant tensor:
#      x y z
#    x 1.873440 0.000000 0.003130 
#    y 0.000000 1.897250 0.000000 
#    z 0.003130 0.000000 1.885730 
# 
# From -- ./inp_files/225136.got.cif
#   From: 2010.05.17/outbox.cif.g08.bks.cpg/sg15_113_cif.got.tgz:225136.got - 2010.06.03 18:47:42.
