data_PCOD9258165
_publ_section_title
;
Structure prediction by ZEFSAII (Michael W. Deem and Ramdas Pophale) SiO2 
 PCOD9258165
Probable space group: C 2/C
;
_chemical_formula_sum "Si O2"
_cell_formula_units_Z 56
_cell_length_a 16.280548
_cell_length_b 9.684384
_cell_length_c 18.185086
_cell_angle_alpha 90.000000
_cell_angle_beta 117.693441
_cell_angle_gamma 90.000000
_cell_volume 2538.743760
_symmetry_space_group_name_H-M "C 2/C"
_symmetry_group_IT_number 15
_symmetry_cell_setting 'monoclinic'
loop_
_space_group_symop_operation_xyz
x,y,z
-x,y,1/2-z
-x,-y,-z
x,-y,1/2+z
1/2+x,1/2+y,z
1/2-x,1/2+y,1/2-z
1/2-x,1/2-y,-z
1/2+x,1/2-y,1/2+z
loop_
_atom_site_type_symbol
_atom_site_label
_atom_site_fract_x
_atom_site_fract_y
_atom_site_fract_z
Si Si1 0.441420 0.210894 0.014604
Si Si2 0.727573 0.403391 0.538785
Si Si3 0.425669 0.286365 0.658453
Si Si4 0.226084 0.603279 0.077806
Si Si5 0.098203 0.480251 0.802809
Si Si6 0.082436 0.515564 0.629397
Si Si7 0.093854 0.859977 0.006571
O O1 0.493073 0.087656 0.081083
O O2 0.518554 0.329600 0.037295
O O3 0.342697 0.273009 0.000161
O O4 0.434874 0.148702 0.929029
O O5 0.757086 0.486491 0.477086
O O6 0.818220 0.393480 0.628092
O O7 0.659006 0.512085 0.550487
O O8 0.500000 0.321758 0.750000
O O9 0.324916 0.337545 0.639525
O O10 0.419568 0.118185 0.655380
O O11 0.449155 0.364619 0.592649
O O12 0.169047 0.550333 0.122989
O O13 0.162725 0.729121 0.023612
O O14 0.113578 0.534894 0.726022
O O15 0.000000 0.402836 0.750000
#
# Coordination Sequence:
#
# PCOD9258165 Si02
#       7
#     8   8   8   8   8   8   8
#     4  10  22  39  61  85 122 168 205 248 317 381
#     4  11  21  38  67  92 118 159 211 257 316 375
#     4  10  18  32  63  88 118 151 203 254 310 367
#     4  10  20  39  61  89 124 163 200 255 316 380
#     4  11  22  37  61  93 117 155 210 263 303 375
#     4  10  24  40  59  84 128 167 209 251 308 377
#     4  10  18  38  61  94 118 154 201 265 304 378
#
# _framework density 22.058153999999998
#
# number of rings (size 3 to 8) (size 9 to 14) (size 15 to 20)
#    0.000    1.714    2.857    3.000    4.000    2.857 
#    0.000    0.000    0.000    0.000    0.000    0.000 
#    0.000    0.000    0.000    0.000    0.000    0.000 
#
# Total GULP energy -156266.358692 kJ/mol
# GULP energy per Si atom -5580.941382 kJ/mol
# Density = 2.200795 g / cm^3
# Si number density = 22.058154 Si / 1000 Ang^3
#
#
#
# Elastic Constant Matrix: (Units=GPa)
#
#
# Indices 1 2 3 4 5 6 
#
# 1 112.3248 39.1504 49.9831 0.0000 34.1720 0.0000
# 2 39.1504 69.2028 21.1922 0.0000 15.2665 0.0000
# 3 49.9831 21.1922 118.2016 0.0000 22.0193 0.0000
# 4 0.0000 0.0000 0.0000 18.8798 0.0000 5.2653
# 5 34.1720 15.2665 22.0193 0.0000 34.0328 0.0000
# 6 0.0000 0.0000 0.0000 5.2653 0.0000 50.3031
#
#
#
# Elastic Compliance Matrix: (Units=1/GPa)
#
#
# Indices 1 2 3 4 5 6 
#
# 1 0.015756 -0.005358 -0.003641 0.000000 -0.011060 0.000000
# 2 -0.005358 0.018183 -0.000542 0.000000 -0.002425 0.000000
# 3 -0.003641 -0.000542 0.010655 0.000000 -0.002994 0.000000
# 4 0.000000 0.000000 0.000000 0.054559 0.000000 -0.005711
# 5 -0.011060 -0.002425 -0.002994 0.000000 0.043514 0.000000
# 6 0.000000 0.000000 0.000000 -0.005711 0.000000 0.020477
#
#
# Mechanical properties :
#
#
# Convention : Reuss Voigt Hill
#
# Bulk Modulus (GPa) = 39.20160 57.82009 48.51084
# Shear Modulus (GPa) = 26.21490 33.27006 29.74248
#
# Velocity S-wave (km/s) = 3.45112 3.88788 3.67599
# Velocity P-wave (km/s) = 5.80438 6.81349 6.32908
#
# Compressibility (1/GPa) = 0.02550916
#
# Stress axis : x y z
#
# Youngs Moduli (GPa) = 63.46947 54.99698 93.85320
#
# Poissons Ratio (x) = 0.29470 0.34175
# Poissons Ratio (y) = 0.34010 0.05090
# Poissons Ratio (z) = 0.23112 0.02983
#
# Static dielectric constant tensor:
#      x y z
#    x 1.893530 0.000000 -0.018240 
#    y 0.000000 1.912470 0.000000 
#    z -0.018240 0.000000 1.786750 
# 
# From -- ./inp_files/204864.got.cif
#   From: 2010.05.17/outbox.cif.g08.bks.cpg/sg15_103_cif.got.tgz:204864.got - 2010.06.03 18:47:42.
