data_PCOD9258499
_publ_section_title
;
Structure prediction by ZEFSAII (Michael W. Deem and Ramdas Pophale) SiO2 
 PCOD9258499
Probable space group: C 2/C
;
_chemical_formula_sum "Si O2"
_cell_formula_units_Z 60
_cell_length_a 16.525263
_cell_length_b 7.045967
_cell_length_c 22.519974
_cell_angle_alpha 90.000000
_cell_angle_beta 108.362656
_cell_angle_gamma 90.000000
_cell_volume 2488.630372
_symmetry_space_group_name_H-M "C 2/C"
_symmetry_group_IT_number 15
_symmetry_cell_setting 'monoclinic'
loop_
_space_group_symop_operation_xyz
x,y,z
-x,y,1/2-z
-x,-y,-z
x,-y,1/2+z
1/2+x,1/2+y,z
1/2-x,1/2+y,1/2-z
1/2-x,1/2-y,-z
1/2+x,1/2-y,1/2+z
loop_
_atom_site_type_symbol
_atom_site_label
_atom_site_fract_x
_atom_site_fract_y
_atom_site_fract_z
Si Si1 0.740269 0.801298 0.787785
Si Si2 0.500000 0.000000 0.500000
Si Si3 0.111283 0.899199 0.045239
Si Si4 0.079410 0.743323 0.620983
Si Si5 0.072294 0.248355 0.813034
Si Si6 0.440267 0.205519 0.682402
Si Si7 0.936740 0.783910 0.050958
Si Si8 0.748541 0.225745 0.841115
O O1 0.834851 0.717672 0.820543
O O2 0.664033 0.699651 0.805597
O O3 0.720543 0.819156 0.713273
O O4 0.742820 0.008280 0.817430
O O5 0.439288 0.922268 0.429368
O O6 0.416739 0.932035 0.529692
O O7 0.091655 0.057042 0.090532
O O8 0.190300 0.781410 0.087618
O O9 0.112869 0.035954 0.988273
O O10 0.025563 0.768922 0.028681
O O11 0.994424 0.759907 0.638661
O O12 0.066975 0.477664 0.815089
O O13 0.056448 0.189409 0.877511
O O14 0.000000 0.186982 0.750000
O O15 0.500000 0.266837 0.750000
O O16 0.346049 0.287276 0.663862
#
# Coordination Sequence:
#
# PCOD9258499 Si02
#       8
#     8   4   8   8   8   8   8   8
#     4  10  21  35  56  83 118 147 194 240 299 347
#     4  10  20  34  64  80 102 154 198 232 284 352
#     4   9  21  36  58  80 122 153 185 241 304 343
#     4  10  19  37  53  86 107 150 192 235 291 350
#     4  10  20  34  58  88 112 150 193 246 291 346
#     4  10  18  33  58  82 115 145 195 245 284 343
#     4  10  19  39  59  84 116 153 196 240 292 357
#     4  10  20  37  56  88 113 160 191 244 298 352
#
# _framework density 24.109646000000001
#
# number of rings (size 3 to 8) (size 9 to 14) (size 15 to 20)
#    0.000    2.133    2.667    0.800    0.000    1.067 
#    4.800    3.333    0.000    2.400    0.000    0.000 
#    0.000    0.000    0.000    0.000    0.000    0.000 
#
# Total GULP energy -167107.014223 kJ/mol
# GULP energy per Si atom -5570.233807 kJ/mol
# Density = 2.405477 g / cm^3
# Si number density = 24.109646 Si / 1000 Ang^3
#
#
#
# Elastic Constant Matrix: (Units=GPa)
#
#
# Indices 1 2 3 4 5 6 
#
# 1 112.0800 25.5479 49.9635 0.0000 -1.7793 0.0000
# 2 25.5479 94.2293 11.9819 0.0000 4.7691 0.0000
# 3 49.9635 11.9819 143.5993 0.0000 -10.9852 0.0000
# 4 0.0000 0.0000 0.0000 24.7226 0.0000 15.0372
# 5 -1.7793 4.7691 -10.9852 0.0000 37.0959 0.0000
# 6 0.0000 0.0000 0.0000 15.0372 0.0000 23.4529
#
#
#
# Elastic Compliance Matrix: (Units=1/GPa)
#
#
# Indices 1 2 3 4 5 6 
#
# 1 0.011139 -0.002540 -0.003681 0.000000 -0.000229 0.000000
# 2 -0.002540 0.011409 -0.000194 0.000000 -0.001646 0.000000
# 3 -0.003681 -0.000194 0.008440 0.000000 0.002348 0.000000
# 4 0.000000 0.000000 0.000000 0.066307 0.000000 -0.042514
# 5 -0.000229 -0.001646 0.002348 0.000000 0.027853 0.000000
# 6 0.000000 0.000000 0.000000 -0.042514 0.000000 0.069897
#
#
# Mechanical properties :
#
#
# Convention : Reuss Voigt Hill
#
# Bulk Modulus (GPa) = 55.07429 58.32168 56.69798
# Shear Modulus (GPa) = 23.37228 34.54863 28.96046
#
# Velocity S-wave (km/s) = 3.11692 3.78958 3.46959
# Velocity P-wave (km/s) = 5.98719 6.58715 6.29432
#
# Compressibility (1/GPa) = 0.01815729
#
# Stress axis : x y z
#
# Youngs Moduli (GPa) = 89.77820 87.64914 118.47776
#
# Poissons Ratio (x) = 0.22265 0.43613
# Poissons Ratio (y) = 0.22806 0.02299
# Poissons Ratio (z) = 0.33048 0.01701
#
# Static dielectric constant tensor:
#      x y z
#    x 2.033620 0.000000 0.035410 
#    y 0.000000 2.693310 0.000000 
#    z 0.035410 0.000000 2.015340 
# 
# From -- ./inp_files/272795.got.cif
#   From: 2010.05.17/outbox.cif.g08.bks.cpg/sg15_137_cif.got.tgz:272795.got - 2010.06.03 18:47:42.
