data_PCOD9258793
_publ_section_title
;
Structure prediction by ZEFSAII (Michael W. Deem and Ramdas Pophale) SiO2 
 PCOD9258793
Probable space group: C 2/C
;
_chemical_formula_sum "Si O2"
_cell_formula_units_Z 64
_cell_length_a 14.873141
_cell_length_b 31.901596
_cell_length_c 7.618688
_cell_angle_alpha 90.000000
_cell_angle_beta 113.156123
_cell_angle_gamma 90.000000
_cell_volume 3323.664307
_symmetry_space_group_name_H-M "C 2/C"
_symmetry_group_IT_number 15
_symmetry_cell_setting 'monoclinic'
loop_
_space_group_symop_operation_xyz
x,y,z
-x,y,1/2-z
-x,-y,-z
x,-y,1/2+z
1/2+x,1/2+y,z
1/2-x,1/2+y,1/2-z
1/2-x,1/2-y,-z
1/2+x,1/2-y,1/2+z
loop_
_atom_site_type_symbol
_atom_site_label
_atom_site_fract_x
_atom_site_fract_y
_atom_site_fract_z
Si Si1 0.541086 0.771302 0.088297
Si Si2 0.227026 0.294529 0.072417
Si Si3 0.380183 0.454992 0.812274
Si Si4 0.916276 0.342451 0.800086
Si Si5 0.144773 0.135453 0.657625
Si Si6 0.405996 0.452146 0.410731
Si Si7 0.728376 0.627595 0.325756
Si Si8 0.044530 0.821725 0.586740
O O1 0.500000 0.768985 0.250000
O O2 0.654551 0.783960 0.177980
O O3 0.536573 0.724765 0.003311
O O4 0.476078 0.805211 0.938734
O O5 0.310392 0.325891 0.201515
O O6 0.250000 0.250000 0.000000
O O7 0.158945 0.320881 0.890411
O O8 0.399357 0.448999 0.618128
O O9 0.358052 0.504183 0.816891
O O10 0.304142 0.417292 0.779871
O O11 0.475604 0.451070 0.012318
O O12 0.842943 0.365507 0.876985
O O13 0.000000 0.366186 0.750000
O O14 0.145931 0.087332 0.719568
O O15 0.198988 0.133096 0.508704
O O16 0.029831 0.145836 0.555138
O O17 0.654728 0.661526 0.180074
O O18 0.000000 0.819464 0.750000
#
# Coordination Sequence:
#
# PCOD9258793 Si02
#       8
#     8   8   8   8   8   8   8   8
#     4  10  20  36  55  73  97 142 189 230 269 323
#     4  11  22  35  51  76 110 140 177 233 285 324
#     4   9  17  30  52  77 113 142 173 215 264 325
#     4  10  22  36  50  72 103 136 180 236 279 311
#     4  10  19  33  54  79 108 146 180 215 262 341
#     4   9  17  31  50  80 113 143 172 211 262 328
#     4  10  18  34  55  77 103 146 187 221 265 327
#     4   9  17  29  50  76 102 132 177 219 257 311
#
# _framework density 19.255855
#
# number of rings (size 3 to 8) (size 9 to 14) (size 15 to 20)
#    0.000    2.250    1.250    2.250    0.000    1.000 
#    0.000    6.875    0.000    0.000    0.000   14.875 
#    0.000    0.000    0.000    0.000    0.000    0.000 
#
# Total GULP energy -178241.602848 kJ/mol
# GULP energy per Si atom -5570.050089 kJ/mol
# Density = 1.921203 g / cm^3
# Si number density = 19.255855 Si / 1000 Ang^3
#
#
#
# Elastic Constant Matrix: (Units=GPa)
#
#
# Indices 1 2 3 4 5 6 
#
# 1 94.7787 29.6382 7.9878 0.0000 5.5552 0.0000
# 2 29.6382 129.5735 20.3973 0.0000 10.6946 0.0000
# 3 7.9878 20.3973 38.4771 0.0000 2.0133 0.0000
# 4 0.0000 0.0000 0.0000 29.2321 0.0000 3.0618
# 5 5.5552 10.6946 2.0133 0.0000 21.7254 0.0000
# 6 0.0000 0.0000 0.0000 3.0618 0.0000 12.8116
#
#
#
# Elastic Compliance Matrix: (Units=1/GPa)
#
#
# Indices 1 2 3 4 5 6 
#
# 1 0.011464 -0.002315 -0.001064 0.000000 -0.001693 0.000000
# 2 -0.002315 0.009203 -0.004212 0.000000 -0.003548 0.000000
# 3 -0.001064 -0.004212 0.028459 0.000000 -0.000292 0.000000
# 4 0.000000 0.000000 0.000000 0.035087 0.000000 -0.008385
# 5 -0.001693 -0.003548 -0.000292 0.000000 0.048236 0.000000
# 6 0.000000 0.000000 0.000000 -0.008385 0.000000 0.080058
#
#
# Mechanical properties :
#
#
# Convention : Reuss Voigt Hill
#
# Bulk Modulus (GPa) = 29.46150 42.09731 35.77941
# Shear Modulus (GPa) = 20.92019 26.40756 23.66388
#
# Velocity S-wave (km/s) = 3.29968 3.70727 3.50940
# Velocity P-wave (km/s) = 5.46356 6.34308 5.91967
#
# Compressibility (1/GPa) = 0.03394261
#
# Stress axis : x y z
#
# Youngs Moduli (GPa) = 87.23179 108.65905 35.13855
#
# Poissons Ratio (x) = 0.25154 0.03739
# Poissons Ratio (y) = 0.20193 0.14802
# Poissons Ratio (z) = 0.09282 0.45772
#
# Static dielectric constant tensor:
#      x y z
#    x 1.830350 0.000000 0.077470 
#    y 0.000000 1.716480 0.000000 
#    z 0.077470 0.000000 1.929150 
# 
# From -- ./inp_files/44568.got.cif
#   From: 2010.05.17/outbox.cif.g08.bks.cpg/sg15_23_cif.got.tgz:44568.got - 2010.06.03 18:47:42.
