data_PCOD9258396
_publ_section_title
;
Structure prediction by ZEFSAII (Michael W. Deem and Ramdas Pophale) SiO2 
 PCOD9258396
Probable space group: C 2/C
;
_chemical_formula_sum "Si O2"
_cell_formula_units_Z 56
_cell_length_a 9.565899
_cell_length_b 25.491159
_cell_length_c 18.760278
_cell_angle_alpha 90.000000
_cell_angle_beta 140.547782
_cell_angle_gamma 90.000000
_cell_volume 2906.868820
_symmetry_space_group_name_H-M "C 2/C"
_symmetry_group_IT_number 15
_symmetry_cell_setting 'monoclinic'
loop_
_space_group_symop_operation_xyz
x,y,z
-x,y,1/2-z
-x,-y,-z
x,-y,1/2+z
1/2+x,1/2+y,z
1/2-x,1/2+y,1/2-z
1/2-x,1/2-y,-z
1/2+x,1/2-y,1/2+z
loop_
_atom_site_type_symbol
_atom_site_label
_atom_site_fract_x
_atom_site_fract_y
_atom_site_fract_z
Si Si1 0.033621 0.849558 0.890852
Si Si2 0.000000 0.223107 0.250000
Si Si3 0.500000 0.101978 0.750000
Si Si4 0.818738 0.061828 0.238649
Si Si5 0.641091 0.690369 0.583212
Si Si6 0.750557 0.559363 0.780783
Si Si7 0.070100 0.161018 0.854021
Si Si8 0.982000 0.610906 0.491704
O O1 0.933509 0.813232 0.789577
O O2 0.892808 0.903198 0.834681
O O3 0.026630 0.818762 0.962348
O O4 0.281621 0.864204 0.959738
O O5 0.201018 0.259375 0.353989
O O6 0.302102 0.140082 0.650795
O O7 0.420907 0.068222 0.784458
O O8 0.000000 0.073671 0.250000
O O9 0.828519 0.999991 0.254432
O O10 0.602340 0.082501 0.113028
O O11 0.502692 0.689131 0.601900
O O12 0.562555 0.604492 0.698844
O O13 0.885825 0.570345 0.906092
O O14 0.331118 0.152905 0.954268
O O15 0.000000 0.185657 0.750000
#
# Coordination Sequence:
#
# PCOD9258396 Si02
#       8
#     8   4   4   8   8   8   8   8
#     4  11  21  40  61  88 119 150 202 252 287 350
#     4  11  22  40  68  86 108 156 206 247 300 352
#     4   9  18  34  54  86 116 148 200 239 276 352
#     4  10  20  34  56  81 119 158 196 238 285 348
#     4  10  21  39  63  86 114 153 195 252 300 341
#     4  10  18  33  55  87 116 160 201 229 285 349
#     4   9  20  37  59  86 121 149 194 243 290 354
#     4  10  18  35  61  79 120 156 191 240 296 339
#
# _framework density 19.264714999999999
#
# number of rings (size 3 to 8) (size 9 to 14) (size 15 to 20)
#    0.000    2.000    3.571    2.143    2.000    1.143 
#    2.571    2.143    0.000    0.000    0.000    0.000 
#    0.000    0.000    0.000    0.000    0.000    0.000 
#
# Total GULP energy -156067.090676 kJ/mol
# GULP energy per Si atom -5573.824667 kJ/mol
# Density = 1.922087 g / cm^3
# Si number density = 19.264715 Si / 1000 Ang^3
#
#
#
# Elastic Constant Matrix: (Units=GPa)
#
#
# Indices 1 2 3 4 5 6 
#
# 1 76.4492 0.9557 6.2318 -0.0001 -14.6784 0.0000
# 2 0.9557 59.8881 7.5037 -0.0001 -9.6889 0.0000
# 3 6.2318 7.5037 52.6563 -0.0005 -8.8807 -0.0002
# 4 -0.0001 -0.0001 -0.0005 75.7531 -0.0001 9.6949
# 5 -14.6784 -9.6889 -8.8807 -0.0001 31.0906 0.0000
# 6 0.0000 0.0000 -0.0002 9.6949 0.0000 10.8800
#
#
#
# Elastic Compliance Matrix: (Units=1/GPa)
#
#
# Indices 1 2 3 4 5 6 
#
# 1 0.014455 0.000976 -0.000680 0.000000 0.006935 0.000000
# 2 0.000976 0.017790 -0.001721 0.000000 0.005513 0.000000
# 3 -0.000680 -0.001721 0.020143 0.000000 0.004896 0.000000
# 4 0.000000 0.000000 0.000000 0.014900 0.000000 -0.013277
# 5 0.006935 0.005513 0.004896 0.000000 0.038555 0.000000
# 6 0.000000 0.000000 0.000000 -0.013277 0.000000 0.103742
#
#
# Mechanical properties :
#
#
# Convention : Reuss Voigt Hill
#
# Bulk Modulus (GPa) = 20.18648 24.26401 22.22525
# Shear Modulus (GPa) = 21.83916 35.16492 28.50204
#
# Velocity S-wave (km/s) = 3.37060 4.27705 3.85059
# Velocity P-wave (km/s) = 5.06450 6.08385 5.59743
#
# Compressibility (1/GPa) = 0.04953811
#
# Stress axis : x y z
#
# Youngs Moduli (GPa) = 69.17892 56.21196 49.64619
#
# Poissons Ratio (x) = -0.05489 0.03378
# Poissons Ratio (y) = -0.06755 0.08543
# Poissons Ratio (z) = 0.04707 0.09673
#
# Static dielectric constant tensor:
#      x y z
#    x 1.678020 0.000000 -0.009160 
#    y 0.000000 1.665560 0.000000 
#    z -0.009160 0.000000 1.765900 
# 
# From -- ./inp_files/193941.got.cif
#   From: 2010.05.17/outbox.cif.g08.bks.cpg/sg15_97_cif.got.tgz:193941.got - 2010.06.03 18:47:42.
