data_PCOD9258770
_publ_section_title
;
Structure prediction by ZEFSAII (Michael W. Deem and Ramdas Pophale) SiO2 
 PCOD9258770
Probable space group: C 2/C
;
_chemical_formula_sum "Si O2"
_cell_formula_units_Z 40
_cell_length_a 28.731965
_cell_length_b 9.391864
_cell_length_c 23.636062
_cell_angle_alpha 90.000000
_cell_angle_beta 18.224000
_cell_angle_gamma 90.000000
_cell_volume 1994.645390
_symmetry_space_group_name_H-M "C 2/C"
_symmetry_group_IT_number 15
_symmetry_cell_setting 'monoclinic'
loop_
_space_group_symop_operation_xyz
x,y,z
-x,y,1/2-z
-x,-y,-z
x,-y,1/2+z
1/2+x,1/2+y,z
1/2-x,1/2+y,1/2-z
1/2-x,1/2-y,-z
1/2+x,1/2-y,1/2+z
loop_
_atom_site_type_symbol
_atom_site_label
_atom_site_fract_x
_atom_site_fract_y
_atom_site_fract_z
Si Si1 0.607442 0.601682 0.208490
Si Si2 0.403039 0.417681 0.658760
Si Si3 0.174143 0.261193 0.854646
Si Si4 0.663660 0.013930 0.284757
Si Si5 0.775486 0.103232 0.543544
O O1 0.605524 0.514135 0.269318
O O2 0.692794 0.748023 0.126048
O O3 0.437405 0.630444 0.385484
O O4 0.689650 0.538578 0.058594
O O5 0.500000 0.500000 0.500000
O O6 0.242758 0.372732 0.820059
O O7 0.500043 0.273521 0.555927
O O8 0.245326 0.110939 0.788986
O O9 0.216637 0.331055 0.745635
O O10 0.685859 0.990031 0.192581
O O11 0.500000 0.000000 0.500000
#
# Coordination Sequence:
#
# PCOD9258770 Si02
#       5
#     8   8   8   8   8
#     4  10  18  34  54  84 117 147 189 234 286 345
#     4  12  21  35  57  87 115 149 191 235 287 341
#     4  12  22  35  57  87 115 149 190 236 290 336
#     4  12  23  37  58  89 119 151 195 242 290 343
#     4  10  20  33  56  83 116 151 183 241 290 334
#
# _framework density 20.053688999999999
#
# number of rings (size 3 to 8) (size 9 to 14) (size 15 to 20)
#    0.000    0.800    8.000    0.000    0.000    0.000 
#    0.000    0.000    0.000    1.200    5.200    0.000 
#    0.000    0.000    0.000    0.000    0.000    0.000 
#
# Total GULP energy -111415.211477 kJ/mol
# GULP energy per Si atom -5570.760574 kJ/mol
# Density = 2.000805 g / cm^3
# Si number density = 20.053689 Si / 1000 Ang^3
#
#
#
# Elastic Constant Matrix: (Units=GPa)
#
#
# Indices 1 2 3 4 5 6 
#
# 1 138.1573 16.2457 58.2908 0.0003 40.5045 -0.0002
# 2 16.2457 23.7547 12.1395 0.0009 22.4803 -0.0006
# 3 58.2908 12.1395 101.6531 0.0004 36.3417 -0.0004
# 4 0.0003 0.0009 0.0004 22.5792 -0.0002 2.6510
# 5 40.5045 22.4803 36.3417 -0.0002 54.8365 0.0002
# 6 -0.0002 -0.0006 -0.0004 2.6510 0.0002 29.7901
#
#
#
# Elastic Compliance Matrix: (Units=1/GPa)
#
#
# Indices 1 2 3 4 5 6 
#
# 1 0.010477 -0.000551 -0.004267 0.000000 -0.004685 0.000000
# 2 -0.000551 0.069277 0.002687 -0.000003 -0.029775 0.000002
# 3 -0.004267 0.002687 0.014717 0.000000 -0.007703 0.000000
# 4 0.000000 -0.000003 0.000000 0.044756 0.000002 -0.003983
# 5 -0.004685 -0.029775 -0.007703 0.000002 0.039008 -0.000001
# 6 0.000000 0.000002 0.000000 -0.003983 -0.000001 0.033923
#
#
# Mechanical properties :
#
#
# Convention : Reuss Voigt Hill
#
# Bulk Modulus (GPa) = 11.08519 48.54633 29.81576
# Shear Modulus (GPa) = 20.28485 33.23377 26.75931
#
# Velocity S-wave (km/s) = 3.18390 4.07534 3.65688
# Velocity P-wave (km/s) = 4.36533 6.81214 5.72107
#
# Compressibility (1/GPa) = 0.09021043
#
# Stress axis : x y z
#
# Youngs Moduli (GPa) = 95.44990 14.43471 67.94711
#
# Poissons Ratio (x) = 0.00795 0.28993
# Poissons Ratio (y) = 0.05258 -0.18260
# Poissons Ratio (z) = 0.40728 -0.03879
#
# Static dielectric constant tensor:
#      x y z
#    x 1.821820 0.000000 0.011570 
#    y 0.000000 1.748140 0.000000 
#    z 0.011570 0.000000 1.792590 
# 
# From -- ./inp_files/248514.got.cif
#   From: 2010.05.17/outbox.cif.g08.bks.cpg/sg15_125_cif.got.tgz:248514.got - 2010.06.03 18:47:42.
