data_PCOD9258442
_publ_section_title
;
Structure prediction by ZEFSAII (Michael W. Deem and Ramdas Pophale) SiO2 
 PCOD9258442
Probable space group: C 2/C
;
_chemical_formula_sum "Si O2"
_cell_formula_units_Z 52
_cell_length_a 15.949402
_cell_length_b 8.391860
_cell_length_c 24.947585
_cell_angle_alpha 90.000000
_cell_angle_beta 43.532190
_cell_angle_gamma 90.000000
_cell_volume 2299.854295
_symmetry_space_group_name_H-M "C 2/C"
_symmetry_group_IT_number 15
_symmetry_cell_setting 'monoclinic'
loop_
_space_group_symop_operation_xyz
x,y,z
-x,y,1/2-z
-x,-y,-z
x,-y,1/2+z
1/2+x,1/2+y,z
1/2-x,1/2+y,1/2-z
1/2-x,1/2-y,-z
1/2+x,1/2-y,1/2+z
loop_
_atom_site_type_symbol
_atom_site_label
_atom_site_fract_x
_atom_site_fract_y
_atom_site_fract_z
Si Si1 0.641279 0.086842 0.286386
Si Si2 0.631600 0.252079 0.809882
Si Si3 0.000000 0.634592 0.250000
Si Si4 0.136680 0.338879 0.078286
Si Si5 0.912767 0.701842 0.438743
Si Si6 0.289236 0.651630 0.897746
Si Si7 0.642519 0.676201 0.182157
O O1 0.771717 0.140930 0.204598
O O2 0.553829 0.044747 0.276407
O O3 0.557459 0.206854 0.360192
O O4 0.660554 0.928850 0.311332
O O5 0.486480 0.259629 0.879700
O O6 0.672083 0.281487 0.729327
O O7 0.885131 0.743655 0.319868
O O8 0.122617 0.519844 0.063726
O O9 0.153918 0.319886 0.134406
O O10 0.250000 0.250000 0.000000
O O11 0.847215 0.715257 0.526717
O O12 0.852763 0.831453 0.427099
O O13 0.287857 0.475657 0.874195
O O14 0.500000 0.629345 0.250000
#
# Coordination Sequence:
#
# PCOD9258442 Si02
#       7
#     8   8   4   8   8   8   8
#     4  10  23  42  60  88 121 164 202 255 308 363
#     4  10  24  38  61  88 124 159 204 256 308 361
#     4  10  22  36  68  86 122 160 208 248 306 370
#     4  10  19  37  61  89 124 159 201 249 309 361
#     4   9  20  35  57  87 119 160 194 254 296 358
#     4  10  18  33  56  90 113 152 206 244 288 356
#     4  10  20  33  57  89 116 159 201 243 294 367
#
# _framework density 22.610128
#
# number of rings (size 3 to 8) (size 9 to 14) (size 15 to 20)
#    0.000    2.154    2.308    0.000    9.692    1.231 
#    0.000    2.308    0.000    1.846    0.000    0.000 
#    0.000    0.000    0.000    0.000    0.000    0.000 
#
# Total GULP energy -144892.309253 kJ/mol
# GULP energy per Si atom -5572.781125 kJ/mol
# Density = 2.255867 g / cm^3
# Si number density = 22.610128 Si / 1000 Ang^3
#
#
#
# Elastic Constant Matrix: (Units=GPa)
#
#
# Indices 1 2 3 4 5 6 
#
# 1 60.6530 11.9147 21.9753 0.0000 -18.5020 0.0001
# 2 11.9147 42.5044 12.0240 0.0000 -8.6777 0.0003
# 3 21.9753 12.0240 133.0354 0.0000 -17.6594 0.0000
# 4 0.0000 0.0000 0.0000 34.7009 0.0000 -3.0709
# 5 -18.5020 -8.6777 -17.6594 0.0000 34.1864 0.0000
# 6 0.0001 0.0003 0.0000 -3.0709 0.0000 20.8377
#
#
#
# Elastic Compliance Matrix: (Units=1/GPa)
#
#
# Indices 1 2 3 4 5 6 
#
# 1 0.020684 -0.003355 -0.001869 0.000000 0.009377 0.000000
# 2 -0.003355 0.025643 -0.001224 0.000000 0.004061 0.000000
# 3 -0.001869 -0.001224 0.008332 0.000000 0.002982 0.000000
# 4 0.000000 0.000000 0.000000 0.029199 0.000000 0.004303
# 5 0.009377 0.004061 0.002982 0.000000 0.036898 0.000000
# 6 0.000000 0.000000 0.000000 0.004303 0.000000 0.048624
#
#
# Mechanical properties :
#
#
# Convention : Reuss Voigt Hill
#
# Bulk Modulus (GPa) = 23.94480 36.44675 30.19577
# Shear Modulus (GPa) = 25.48475 30.63025 28.05750
#
# Velocity S-wave (km/s) = 3.36093 3.68464 3.52650
# Velocity P-wave (km/s) = 5.06699 5.85292 5.47408
#
# Compressibility (1/GPa) = 0.04176271
#
# Stress axis : x y z
#
# Youngs Moduli (GPa) = 48.34685 38.99720 120.01996
#
# Poissons Ratio (x) = 0.13083 0.22427
# Poissons Ratio (y) = 0.16220 0.14696
# Poissons Ratio (z) = 0.09034 0.04775
#
# Static dielectric constant tensor:
#      x y z
#    x 1.863930 0.000000 0.009530 
#    y 0.000000 1.835810 0.000000 
#    z 0.009530 0.000000 1.940590 
# 
# From -- ./inp_files/298330.got.cif
#   From: 2010.05.17/outbox.cif.g08.bks.cpg/sg15_150_cif.got.tgz:298330.got - 2010.06.03 18:47:42.
