data_PCOD9258040
_publ_section_title
;
Structure prediction by ZEFSAII (Michael W. Deem and Ramdas Pophale) SiO2 
 PCOD9258040
Probable space group: C 2/C
;
_chemical_formula_sum "Si O2"
_cell_formula_units_Z 52
_cell_length_a 11.571179
_cell_length_b 23.992654
_cell_length_c 11.010692
_cell_angle_alpha 90.000000
_cell_angle_beta 52.054978
_cell_angle_gamma 90.000000
_cell_volume 2410.615373
_symmetry_space_group_name_H-M "C 2/C"
_symmetry_group_IT_number 15
_symmetry_cell_setting 'monoclinic'
loop_
_space_group_symop_operation_xyz
x,y,z
-x,y,1/2-z
-x,-y,-z
x,-y,1/2+z
1/2+x,1/2+y,z
1/2-x,1/2+y,1/2-z
1/2-x,1/2-y,-z
1/2+x,1/2-y,1/2+z
loop_
_atom_site_type_symbol
_atom_site_label
_atom_site_fract_x
_atom_site_fract_y
_atom_site_fract_z
Si Si1 0.000000 0.622621 0.250000
Si Si2 0.518008 0.338659 0.923632
Si Si3 0.221804 0.183948 0.523211
Si Si4 0.995268 0.543000 0.614299
Si Si5 0.757077 0.863977 0.249805
Si Si6 0.190234 0.378205 0.861933
Si Si7 0.002206 0.288163 0.111388
O O1 0.105549 0.600448 0.293119
O O2 0.881416 0.658131 0.397975
O O3 0.636049 0.370998 0.764860
O O4 0.475705 0.277602 0.902408
O O5 0.616013 0.327156 0.979059
O O6 0.370232 0.366933 0.066409
O O7 0.250000 0.250000 0.500000
O O8 0.163069 0.147447 0.674356
O O9 0.139590 0.580409 0.499935
O O10 0.000000 0.520896 0.750000
O O11 0.000000 0.500000 0.500000
O O12 0.857242 0.584936 0.683035
O O13 0.660968 0.806899 0.317570
O O14 0.119031 0.319024 0.949601
O O15 0.000000 0.310513 0.250000
#
# Coordination Sequence:
#
# PCOD9258040 Si02
#       7
#     4   8   8   8   8   8   8
#     4  10  18  32  58  84 126 166 216 256 306 368
#     4  11  23  33  58  95 132 178 210 262 323 390
#     4  11  20  31  55  89 134 177 218 258 313 384
#     4  11  26  48  76  97 120 165 226 290 348 403
#     4  11  22  40  60  93 136 167 219 272 330 391
#     4  10  21  39  60  94 126 163 216 264 323 389
#     4  11  22  37  55  82 129 184 223 252 304 391
#
# _framework density 21.571256000000002
#
# number of rings (size 3 to 8) (size 9 to 14) (size 15 to 20)
#    0.000    1.231    4.615    3.231    5.385    3.692 
#    0.000    0.769    0.000    0.000    0.000    0.000 
#    0.000    0.000    0.000    0.000    0.000    0.000 
#
# Total GULP energy -144873.508796 kJ/mol
# GULP energy per Si atom -5572.058031 kJ/mol
# Density = 2.152216 g / cm^3
# Si number density = 21.571256 Si / 1000 Ang^3
#
#
#
# Elastic Constant Matrix: (Units=GPa)
#
#
# Indices 1 2 3 4 5 6 
#
# 1 50.2840 22.2675 37.5180 0.0000 12.3435 0.0000
# 2 22.2675 72.4528 51.0057 0.0000 -4.3082 0.0000
# 3 37.5180 51.0057 173.6165 0.0000 -20.2218 0.0000
# 4 0.0000 0.0000 0.0000 19.3476 0.0000 21.6814
# 5 12.3435 -4.3082 -20.2218 0.0000 50.9003 0.0000
# 6 0.0000 0.0000 0.0000 21.6814 0.0000 5.3830
#
#
#
# Elastic Compliance Matrix: (Units=1/GPa)
#
#
# Indices 1 2 3 4 5 6 
#
# 1 0.029041 -0.005404 -0.005831 0.000000 -0.009817 0.000000
# 2 -0.005404 0.018423 -0.004100 0.000000 0.001241 0.000000
# 3 -0.005831 -0.004100 0.008754 0.000000 0.004545 0.000000
# 4 0.000000 0.000000 0.000000 -0.014710 0.000000 0.059249
# 5 -0.009817 0.001241 0.004545 0.000000 0.023937 0.000000
# 6 0.000000 0.000000 0.000000 0.059249 0.000000 -0.052872
#
#
# Mechanical properties :
#
#
# Convention : Reuss Voigt Hill
#
# Bulk Modulus (GPa) = 39.14357 57.54842 48.34599
# Shear Modulus (GPa) = 96.60063 27.49700 62.04882
#
# Velocity S-wave (km/s) = 6.69920 3.57418 5.36908
# Velocity P-wave (km/s) = 8.83316 6.61583 7.80365
#
# Compressibility (1/GPa) = 0.02554698
#
# Stress axis : x y z
#
# Youngs Moduli (GPa) = 34.43439 54.27972 114.23490
#
# Poissons Ratio (x) = 0.29332 0.66616
# Poissons Ratio (y) = 0.18608 0.46838
# Poissons Ratio (z) = 0.20080 0.22255
#
# Static dielectric constant tensor:
#      x y z
#    x 1.999990 0.000000 0.097840 
#    y 0.000000 1.804010 0.000000 
#    z 0.097840 0.000000 1.764620 
# 
# From -- ./inp_files/91180.got.cif
#   From: 2010.05.17/outbox.cif.g08.bks.cpg/sg15_46_cif.got.tgz:91180.got - 2010.06.03 18:47:42.
