data_PCOD9258227
_publ_section_title
;
Structure prediction by ZEFSAII (Michael W. Deem and Ramdas Pophale) SiO2 
 PCOD9258227
Probable space group: C 2/C
;
_chemical_formula_sum "Si O2"
_cell_formula_units_Z 56
_cell_length_a 27.772848
_cell_length_b 20.349560
_cell_length_c 16.206227
_cell_angle_alpha 90.000000
_cell_angle_beta 161.060217
_cell_angle_gamma 90.000000
_cell_volume 2972.839203
_symmetry_space_group_name_H-M "C 2/C"
_symmetry_group_IT_number 15
_symmetry_cell_setting 'monoclinic'
loop_
_space_group_symop_operation_xyz
x,y,z
-x,y,1/2-z
-x,-y,-z
x,-y,1/2+z
1/2+x,1/2+y,z
1/2-x,1/2+y,1/2-z
1/2-x,1/2-y,-z
1/2+x,1/2-y,1/2+z
loop_
_atom_site_type_symbol
_atom_site_label
_atom_site_fract_x
_atom_site_fract_y
_atom_site_fract_z
Si Si1 0.065015 0.301460 0.643854
Si Si2 0.678621 0.923293 0.737101
Si Si3 0.713529 0.327190 0.345691
Si Si4 0.108121 0.009045 0.502258
Si Si5 0.142086 0.379285 0.083815
Si Si6 0.654045 0.466280 0.322921
Si Si7 0.949520 0.507308 0.755873
O O1 0.136763 0.349737 0.692292
O O2 0.086174 0.228389 0.643112
O O3 0.909892 0.332767 0.424877
O O4 0.165917 0.306698 0.889872
O O5 0.529962 0.958275 0.462912
O O6 0.754307 0.952018 0.942745
O O7 0.799533 0.942071 0.864060
O O8 0.803379 0.336746 0.405923
O O9 0.645478 0.396832 0.263036
O O10 0.223644 0.068767 0.687664
O O11 0.000000 0.019090 0.250000
O O12 0.000414 0.999428 0.404913
O O13 0.004903 0.430817 0.848179
O O14 0.773352 0.510512 0.469978
O O15 0.000000 0.534917 0.750000
#
# Coordination Sequence:
#
# PCOD9258227 Si02
#       7
#     8   8   8   8   8   8   8
#     4  10  20  33  56  79 105 150 178 216 270 340
#     4   9  19  32  51  78 109 141 183 214 275 327
#     4  10  20  33  53  80 109 138 180 224 269 326
#     4   9  21  32  52  80 108 141 176 232 274 322
#     4  11  19  35  54  77 109 141 184 222 280 330
#     4  10  18  33  51  79 111 138 177 226 275 322
#     4  11  18  31  55  80 109 146 178 228 270 332
#
# _framework density 18.837212000000001
#
# number of rings (size 3 to 8) (size 9 to 14) (size 15 to 20)
#    0.000    2.000    4.286    0.857    4.000    1.714 
#    0.000    4.286    0.000    1.714    0.000    0.000 
#    0.000    0.000    0.000    0.000    0.000    0.000 
#
# Total GULP energy -155976.859043 kJ/mol
# GULP energy per Si atom -5570.602109 kJ/mol
# Density = 1.879434 g / cm^3
# Si number density = 18.837212 Si / 1000 Ang^3
#
#
#
# Elastic Constant Matrix: (Units=GPa)
#
#
# Indices 1 2 3 4 5 6 
#
# 1 91.4342 40.5375 36.1596 0.0000 31.2574 0.0000
# 2 40.5375 67.3231 34.7826 0.0000 10.9674 0.0000
# 3 36.1596 34.7826 81.0915 0.0000 29.6957 0.0000
# 4 0.0000 0.0000 0.0000 20.1165 0.0000 6.8371
# 5 31.2574 10.9674 29.6957 0.0000 38.7104 0.0000
# 6 0.0000 0.0000 0.0000 6.8371 0.0000 24.8477
#
#
#
# Elastic Compliance Matrix: (Units=1/GPa)
#
#
# Indices 1 2 3 4 5 6 
#
# 1 0.019782 -0.009902 0.000345 0.000000 -0.013433 0.000000
# 2 -0.009902 0.024080 -0.008821 0.000000 0.007940 0.000000
# 3 0.000345 -0.008821 0.021066 0.000000 -0.013940 0.000000
# 4 0.000000 0.000000 0.000000 0.054839 0.000000 -0.015089
# 5 -0.013433 0.007940 -0.013940 0.000000 0.045124 0.000000
# 6 0.000000 0.000000 0.000000 -0.015089 0.000000 0.044397
#
#
# Mechanical properties :
#
#
# Convention : Reuss Voigt Hill
#
# Bulk Modulus (GPa) = 35.49406 51.42314 43.45860
# Shear Modulus (GPa) = 19.57451 25.29286 22.43368
#
# Velocity S-wave (km/s) = 3.22707 3.66827 3.45472
# Velocity P-wave (km/s) = 5.72440 6.73050 6.24773
#
# Compressibility (1/GPa) = 0.02817372
#
# Stress axis : x y z
#
# Youngs Moduli (GPa) = 50.54984 41.52871 47.46948
#
# Poissons Ratio (x) = 0.41120 -0.01638
# Poissons Ratio (y) = 0.50053 0.41872
# Poissons Ratio (z) = -0.01745 0.36632
#
# Static dielectric constant tensor:
#      x y z
#    x 1.735520 0.000000 0.005880 
#    y 0.000000 1.641930 0.000000 
#    z 0.005880 0.000000 1.690580 
# 
# From -- ./inp_files/225727.got.cif
#   From: 2010.05.17/outbox.cif.g08.bks.cpg/sg15_113_cif.got.tgz:225727.got - 2010.06.03 18:47:42.
