data_PCOD9258618
_publ_section_title
;
Structure prediction by ZEFSAII (Michael W. Deem and Ramdas Pophale) SiO2 
 PCOD9258618
Probable space group: C 2/C
;
_chemical_formula_sum "Si O2"
_cell_formula_units_Z 40
_cell_length_a 14.640085
_cell_length_b 21.831277
_cell_length_c 8.382685
_cell_angle_alpha 90.000000
_cell_angle_beta 40.671594
_cell_angle_gamma 90.000000
_cell_volume 1746.097825
_symmetry_space_group_name_H-M "C 2/C"
_symmetry_group_IT_number 15
_symmetry_cell_setting 'monoclinic'
loop_
_space_group_symop_operation_xyz
x,y,z
-x,y,1/2-z
-x,-y,-z
x,-y,1/2+z
1/2+x,1/2+y,z
1/2-x,1/2+y,1/2-z
1/2-x,1/2-y,-z
1/2+x,1/2-y,1/2+z
loop_
_atom_site_type_symbol
_atom_site_label
_atom_site_fract_x
_atom_site_fract_y
_atom_site_fract_z
Si Si1 0.217599 0.373021 0.270980
Si Si2 0.155894 0.749694 0.468685
Si Si3 0.282028 0.623111 0.310576
Si Si4 0.954389 0.934615 0.129130
Si Si5 0.959758 0.433643 0.491033
O O1 0.296980 0.418209 0.286002
O O2 0.051470 0.386171 0.476114
O O3 0.278785 0.304824 0.221279
O O4 0.262526 0.385538 0.026475
O O5 0.250000 0.750000 0.500000
O O6 0.196520 0.681910 0.356982
O O7 0.000000 0.755244 0.750000
O O8 0.207481 0.571634 0.301526
O O9 0.447345 0.619657 0.071376
O O10 0.000000 0.935488 0.250000
O O11 0.000000 0.000000 0.000000
O O12 0.000000 0.424887 0.250000
O O13 0.000000 0.500000 0.500000
#
# Coordination Sequence:
#
# PCOD9258618 Si02
#       5
#     8   8   8   8   8
#     4  10  20  37  61  88 116 150 192 240 291 348
#     4  10  18  33  61  92 117 148 190 238 288 347
#     4  10  20  37  60  88 116 147 191 242 292 351
#     4  12  25  40  58  83 115 156 201 247 295 348
#     4  10  21  35  55  83 114 147 188 235 288 344
#
# _framework density 22.908223
#
# number of rings (size 3 to 8) (size 9 to 14) (size 15 to 20)
#    0.000    1.600    0.000    8.400    0.000    4.800 
#    0.000    1.000    0.000    2.400    0.000    0.000 
#    0.000    0.000    0.000    0.000    0.000    0.000 
#
# Total GULP energy -111399.503278 kJ/mol
# GULP energy per Si atom -5569.975164 kJ/mol
# Density = 2.285608 g / cm^3
# Si number density = 22.908223 Si / 1000 Ang^3
#
#
#
# Elastic Constant Matrix: (Units=GPa)
#
#
# Indices 1 2 3 4 5 6 
#
# 1 140.4301 26.2830 15.6619 0.0000 -18.6341 0.0000
# 2 26.2830 73.7392 -13.8375 0.0000 -0.1730 0.0000
# 3 15.6619 -13.8375 27.6841 0.0000 -13.1691 0.0000
# 4 0.0000 0.0000 0.0000 22.3265 0.0000 -7.8418
# 5 -18.6341 -0.1730 -13.1691 0.0000 43.6440 0.0000
# 6 0.0000 0.0000 0.0000 -7.8418 0.0000 39.0218
#
#
#
# Elastic Compliance Matrix: (Units=1/GPa)
#
#
# Indices 1 2 3 4 5 6 
#
# 1 0.008887 -0.004347 -0.006309 0.000000 0.001873 0.000000
# 2 -0.004347 0.017370 0.012016 0.000000 0.001839 0.000000
# 3 -0.006309 0.012016 0.051886 0.000000 0.013010 0.000000
# 4 0.000000 0.000000 0.000000 0.048191 0.000000 0.009685
# 5 0.001873 0.001839 0.013010 0.000000 0.027645 0.000000
# 6 0.000000 0.000000 0.000000 0.009685 0.000000 0.027573
#
#
# Mechanical properties :
#
#
# Convention : Reuss Voigt Hill
#
# Bulk Modulus (GPa) = 12.36682 33.11871 22.74276
# Shear Modulus (GPa) = 24.29697 35.24820 29.77258
#
# Velocity S-wave (km/s) = 3.26025 3.92684 3.60897
# Velocity P-wave (km/s) = 4.42521 5.92019 5.22643
#
# Compressibility (1/GPa) = 0.08086153
#
# Stress axis : x y z
#
# Youngs Moduli (GPa) = 112.52601 57.57083 19.27309
#
# Poissons Ratio (x) = 0.25027 0.12160
# Poissons Ratio (y) = 0.48916 -0.23158
# Poissons Ratio (z) = 0.70996 -0.69177
#
# Static dielectric constant tensor:
#      x y z
#    x 1.853050 0.000000 0.013520 
#    y 0.000000 2.210010 0.000000 
#    z 0.013520 0.000000 1.954140 
# 
# From -- ./inp_files/41938.got.cif
#   From: 2010.05.17/outbox.cif.g08.bks.cpg/sg15_21_cif.got.tgz:41938.got - 2010.06.03 18:47:42.
