data_PCOD9258856
_publ_section_title
;
Structure prediction by ZEFSAII (Michael W. Deem and Ramdas Pophale) SiO2 
 PCOD9258856
Probable space group: C 2/C
;
_chemical_formula_sum "Si O2"
_cell_formula_units_Z 44
_cell_length_a 13.818183
_cell_length_b 9.054968
_cell_length_c 13.471902
_cell_angle_alpha 90.000000
_cell_angle_beta 90.985946
_cell_angle_gamma 90.000000
_cell_volume 1685.397987
_symmetry_space_group_name_H-M "C 2/C"
_symmetry_group_IT_number 15
_symmetry_cell_setting 'monoclinic'
loop_
_space_group_symop_operation_xyz
x,y,z
-x,y,1/2-z
-x,-y,-z
x,-y,1/2+z
1/2+x,1/2+y,z
1/2-x,1/2+y,1/2-z
1/2-x,1/2-y,-z
1/2+x,1/2-y,1/2+z
loop_
_atom_site_type_symbol
_atom_site_label
_atom_site_fract_x
_atom_site_fract_y
_atom_site_fract_z
Si Si1 0.714431 0.371494 0.774513
Si Si2 0.333858 0.143550 0.460212
Si Si3 0.000000 0.450400 0.250000
Si Si4 0.965820 0.222879 0.105706
Si Si5 0.433087 0.595594 0.660311
Si Si6 0.151640 0.376594 0.894761
O O1 0.633574 0.269368 0.826832
O O2 0.662227 0.528786 0.787544
O O3 0.749084 0.353069 0.663982
O O4 0.809497 0.366127 0.845138
O O5 0.250000 0.250000 0.500000
O O6 0.431676 0.220775 0.498617
O O7 0.331914 0.985972 0.514035
O O8 0.075392 0.544935 0.317182
O O9 0.964796 0.336355 0.337143
O O10 0.986173 0.048910 0.115039
O O11 0.500000 0.653742 0.750000
O O12 0.392007 0.715992 0.584951
#
# Coordination Sequence:
#
# PCOD9258856 Si02
#       6
#     8   8   4   8   8   8
#     4   9  21  36  62  82 113 153 196 232 284 348
#     4   9  19  37  58  86 113 153 193 235 285 347
#     4  10  18  34  56  82 116 158 184 226 296 342
#     4   8  17  33  58  77 110 153 190 223 286 340
#     4  10  20  36  56  87 118 150 192 245 289 330
#     4  11  22  35  62  89 114 150 197 239 284 336
#
# _framework density 26.106594999999999
#
# number of rings (size 3 to 8) (size 9 to 14) (size 15 to 20)
#    1.091    1.455    1.818    0.000    7.636    0.727 
#    0.000    3.636    0.000    4.364    0.000    0.000 
#    0.000    0.000    0.000    0.000    0.000    0.000 
#
# Total GULP energy -122792.504892 kJ/mol
# GULP energy per Si atom -5581.477495 kJ/mol
# Density = 2.604717 g / cm^3
# Si number density = 26.106595 Si / 1000 Ang^3
#
#
#
# Elastic Constant Matrix: (Units=GPa)
#
#
# Indices 1 2 3 4 5 6 
#
# 1 64.2760 2.9236 16.2758 0.0000 -17.0019 0.0000
# 2 2.9236 96.6751 6.4432 0.0000 1.9443 0.0000
# 3 16.2758 6.4432 67.1560 0.0000 17.7065 0.0000
# 4 0.0000 0.0000 0.0000 7.5627 0.0000 20.3144
# 5 -17.0019 1.9443 17.7065 0.0000 43.5454 0.0000
# 6 0.0000 0.0000 0.0000 20.3144 0.0000 22.9513
#
#
#
# Elastic Compliance Matrix: (Units=1/GPa)
#
#
# Indices 1 2 3 4 5 6 
#
# 1 0.020557 -0.000320 -0.007921 0.000000 0.011261 0.000000
# 2 -0.000320 0.010416 -0.000858 0.000000 -0.000241 0.000000
# 3 -0.007921 -0.000858 0.019823 0.000000 -0.011115 0.000000
# 4 0.000000 0.000000 0.000000 -0.095990 0.000000 0.084962
# 5 0.011261 -0.000241 -0.011115 0.000000 0.031892 0.000000
# 6 0.000000 0.000000 0.000000 0.084962 0.000000 -0.031630
#
#
# Mechanical properties :
#
#
# Convention : Reuss Voigt Hill
#
# Bulk Modulus (GPa) = 30.67688 31.04358 30.86023
# Shear Modulus (GPa) = -315.08652 28.30952 -143.38850
#
# Velocity S-wave (km/s) = -10.99792 3.29657 -7.41913
# Velocity P-wave (km/s) = 12.22687 5.13875 7.84505
#
# Compressibility (1/GPa) = 0.03259784
#
# Stress axis : x y z
#
# Youngs Moduli (GPa) = 48.64555 96.00936 50.44600
#
# Poissons Ratio (x) = 0.03075 0.39956
# Poissons Ratio (y) = 0.01558 0.04329
# Poissons Ratio (z) = 0.38530 0.08239
#
# Static dielectric constant tensor:
#      x y z
#    x 2.122610 0.000000 0.061130 
#    y 0.000000 2.125930 0.000000 
#    z 0.061130 0.000000 2.081570 
# 
# From -- ./inp_files/208739.got.cif
#   From: 2010.05.17/outbox.cif.g08.bks.cpg/sg15_105_cif.got.tgz:208739.got - 2010.06.03 18:47:42.
