data_PCOD9258223
_publ_section_title
;
Structure prediction by ZEFSAII (Michael W. Deem and Ramdas Pophale) SiO2 
 PCOD9258223
Probable space group: C 2/C
;
_chemical_formula_sum "Si O2"
_cell_formula_units_Z 48
_cell_length_a 23.159308
_cell_length_b 4.887432
_cell_length_c 21.504812
_cell_angle_alpha 90.000000
_cell_angle_beta 97.353743
_cell_angle_gamma 90.000000
_cell_volume 2414.098771
_symmetry_space_group_name_H-M "C 2/C"
_symmetry_group_IT_number 15
_symmetry_cell_setting 'monoclinic'
loop_
_space_group_symop_operation_xyz
x,y,z
-x,y,1/2-z
-x,-y,-z
x,-y,1/2+z
1/2+x,1/2+y,z
1/2-x,1/2+y,1/2-z
1/2-x,1/2-y,-z
1/2+x,1/2-y,1/2+z
loop_
_atom_site_type_symbol
_atom_site_label
_atom_site_fract_x
_atom_site_fract_y
_atom_site_fract_z
Si Si1 0.425926 0.501381 0.848080
Si Si2 0.897423 0.295057 0.629961
Si Si3 0.956566 0.786706 0.580960
Si Si4 0.871914 0.886814 0.463159
Si Si5 0.312703 0.113207 0.013318
Si Si6 0.936592 0.512535 0.764414
O O1 0.478195 0.374628 0.896318
O O2 0.379682 0.618798 0.890681
O O3 0.447720 0.752788 0.809840
O O4 0.407477 0.257525 0.799099
O O5 0.944979 0.478147 0.600060
O O6 0.837348 0.367613 0.586871
O O7 0.901202 0.394505 0.701008
O O8 0.915649 0.982624 0.618861
O O9 0.931310 0.815140 0.508301
O O10 0.823152 0.685674 0.485725
O O11 0.855634 0.192966 0.479895
O O12 0.250000 0.250000 0.000000
O O13 0.000000 0.616308 0.750000
#
# Coordination Sequence:
#
# PCOD9258223 Si02
#       6
#     8   8   8   8   8   8
#     4  12  21  33  53  79 120 156 173 222 272 334
#     4  10  20  33  53  82 106 144 192 225 262 328
#     4  10  18  33  51  77 115 147 180 220 265 331
#     4  10  22  35  55  85 109 139 188 229 288 333
#     4  10  21  40  62  79 103 138 188 249 289 320
#     4  12  21  33  52  78 119 156 190 209 260 339
#
# _framework density 19.883196999999999
#
# number of rings (size 3 to 8) (size 9 to 14) (size 15 to 20)
#    0.000    1.333    3.333    3.500    0.000    0.000 
#    0.000    6.667    0.000    4.000    0.000    0.000 
#    0.000    0.000    0.000    0.000    0.000    0.000 
#
# Total GULP energy -134030.694368 kJ/mol
# GULP energy per Si atom -5584.612265 kJ/mol
# Density = 1.983794 g / cm^3
# Si number density = 19.883197 Si / 1000 Ang^3
#
#
#
# Elastic Constant Matrix: (Units=GPa)
#
#
# Indices 1 2 3 4 5 6 
#
# 1 46.4301 -2.3309 33.2338 0.0000 15.2256 0.0000
# 2 -2.3309 74.7494 14.7386 0.0000 1.2127 0.0000
# 3 33.2338 14.7386 116.0919 0.0000 4.6327 0.0000
# 4 0.0000 0.0000 0.0000 19.2379 0.0000 4.1480
# 5 15.2256 1.2127 4.6327 0.0000 19.0303 0.0000
# 6 0.0000 0.0000 0.0000 4.1480 0.0000 16.8923
#
#
#
# Elastic Compliance Matrix: (Units=1/GPa)
#
#
# Indices 1 2 3 4 5 6 
#
# 1 0.038476 0.003702 -0.010347 0.000000 -0.028500 0.000000
# 2 0.003702 0.014082 -0.002720 0.000000 -0.003197 0.000000
# 3 -0.010347 -0.002720 0.011698 0.000000 0.005604 0.000000
# 4 0.000000 0.000000 0.000000 0.054887 0.000000 -0.013478
# 5 -0.028500 -0.003197 0.005604 0.000000 0.074190 0.000000
# 6 0.000000 0.000000 0.000000 -0.013478 0.000000 0.062508
#
#
# Mechanical properties :
#
#
# Convention : Reuss Voigt Hill
#
# Bulk Modulus (GPa) = 21.96572 36.50604 29.23588
# Shear Modulus (GPa) = 17.25655 23.80743 20.53199
#
# Velocity S-wave (km/s) = 2.94920 3.46405 3.21694
# Velocity P-wave (km/s) = 4.76114 5.86512 5.34173
#
# Compressibility (1/GPa) = 0.04552547
#
# Stress axis : x y z
#
# Youngs Moduli (GPa) = 25.99023 71.01425 85.48695
#
# Poissons Ratio (x) = -0.26292 0.88456
# Poissons Ratio (y) = -0.09623 0.23253
# Poissons Ratio (z) = 0.26893 0.19316
#
# Static dielectric constant tensor:
#      x y z
#    x 1.693050 0.000000 0.016670 
#    y 0.000000 1.697640 0.000000 
#    z 0.016670 0.000000 1.748500 
# 
# From -- ./inp_files/217558.got.cif
#   From: 2010.05.17/outbox.cif.g08.bks.cpg/sg15_109_cif.got.tgz:217558.got - 2010.06.03 18:47:42.
