data_PCOD9258919
_publ_section_title
;
Structure prediction by ZEFSAII (Michael W. Deem and Ramdas Pophale) SiO2 
 PCOD9258919
Probable space group: C 2/C
;
_chemical_formula_sum "Si O2"
_cell_formula_units_Z 64
_cell_length_a 16.686396
_cell_length_b 14.137569
_cell_length_c 34.192242
_cell_angle_alpha 90.000000
_cell_angle_beta 161.939956
_cell_angle_gamma 90.000000
_cell_volume 2500.607140
_symmetry_space_group_name_H-M "C 2/C"
_symmetry_group_IT_number 15
_symmetry_cell_setting 'monoclinic'
loop_
_space_group_symop_operation_xyz
x,y,z
-x,y,1/2-z
-x,-y,-z
x,-y,1/2+z
1/2+x,1/2+y,z
1/2-x,1/2+y,1/2-z
1/2-x,1/2-y,-z
1/2+x,1/2-y,1/2+z
loop_
_atom_site_type_symbol
_atom_site_label
_atom_site_fract_x
_atom_site_fract_y
_atom_site_fract_z
Si Si1 0.417575 0.708094 0.813589
Si Si2 0.221499 0.702979 0.801801
Si Si3 0.520999 0.587469 0.304580
Si Si4 0.809041 0.238493 0.436915
Si Si5 0.564653 0.825208 0.078331
Si Si6 0.415955 0.964635 0.668765
Si Si7 0.679472 0.379543 0.023576
Si Si8 0.673331 0.418165 0.705400
O O1 0.405500 0.668991 0.851419
O O2 0.699083 0.714500 0.925432
O O3 0.230418 0.661250 0.694290
O O4 0.300719 0.813451 0.767119
O O5 0.120874 0.810485 0.761157
O O6 0.960674 0.650787 0.668785
O O7 0.403712 0.697107 0.923904
O O8 0.500000 0.550328 0.250000
O O9 0.378813 0.539529 0.275896
O O10 0.815875 0.609644 0.454771
O O11 0.787656 0.318232 0.394189
O O12 0.637354 0.146519 0.350669
O O13 0.486616 0.713418 0.045361
O O14 0.500000 0.001902 0.750000
O O15 0.636746 0.968475 0.737439
O O16 0.160989 0.019935 0.536242
O O17 0.605898 0.402021 0.944741
#
# Coordination Sequence:
#
# PCOD9258919 Si02
#       8
#     8   8   8   8   8   8   8   8
#     4   9  18  34  50  73 110 142 168 214 273 313
#     4  10  20  32  52  79 105 137 178 218 259 317
#     4  10  18  34  57  82 103 132 174 229 274 313
#     4  11  20  32  50  79 111 141 172 213 264 315
#     4  10  19  32  54  79 107 139 177 216 264 321
#     4  11  24  36  53  74 110 152 180 211 259 315
#     4  10  22  34  53  75 106 145 181 219 253 312
#     4   9  20  37  53  76 105 139 181 217 267 319
#
# _framework density 25.593785
#
# number of rings (size 3 to 8) (size 9 to 14) (size 15 to 20)
#    0.000    2.000    1.250    3.750    3.500    4.000 
#    0.000    0.000    0.000    0.750    0.000    1.750 
#    0.000    1.000    0.000    0.000    0.000    0.000 
#
# Total GULP energy -178507.201979 kJ/mol
# GULP energy per Si atom -5578.350062 kJ/mol
# Density = 2.553553 g / cm^3
# Si number density = 25.593785 Si / 1000 Ang^3
#
#
#
# Elastic Constant Matrix: (Units=GPa)
#
#
# Indices 1 2 3 4 5 6 
#
# 1 146.2353 11.6072 29.3879 0.0060 -13.7691 -0.0068
# 2 11.6072 49.5123 9.8528 0.0032 0.7302 -0.0012
# 3 29.3879 9.8528 103.5900 0.0330 -10.3842 -0.0131
# 4 0.0060 0.0032 0.0330 3.7367 0.0014 -0.9300
# 5 -13.7691 0.7302 -10.3842 0.0014 36.2241 0.0046
# 6 -0.0068 -0.0012 -0.0131 -0.9300 0.0046 1.1820
#
#
#
# Elastic Compliance Matrix: (Units=1/GPa)
#
#
# Indices 1 2 3 4 5 6 
#
# 1 0.007532 -0.001451 -0.001759 0.000009 0.002388 0.000020
# 2 -0.001451 0.020902 -0.001723 0.000000 -0.001467 0.000000
# 3 -0.001759 -0.001723 0.010556 -0.000082 0.002392 0.000031
# 4 0.000009 0.000000 -0.000082 0.332780 -0.000066 0.261827
# 5 0.002388 -0.001467 0.002392 -0.000066 0.029229 -0.000126
# 6 0.000020 0.000000 0.000031 0.261827 -0.000126 1.052013
#
#
# Mechanical properties :
#
#
# Convention : Reuss Voigt Hill
#
# Bulk Modulus (GPa) = 34.33769 44.55925 39.44847
# Shear Modulus (GPa) = 3.39539 24.79454 14.09496
#
# Velocity S-wave (km/s) = 1.15305 3.11589 2.34928
# Velocity P-wave (km/s) = 3.90106 5.51298 4.77552
#
# Compressibility (1/GPa) = 0.02912252
#
# Stress axis : x y z
#
# Youngs Moduli (GPa) = 132.76943 47.84296 94.72993
#
# Poissons Ratio (x) = 0.06941 0.16667
# Poissons Ratio (y) = 0.19262 0.16327
# Poissons Ratio (z) = 0.23359 0.08246
#
# Static dielectric constant tensor:
#      x y z
#    x 2.144890 0.000000 0.031210 
#    y 0.000000 2.042680 0.000000 
#    z 0.031210 0.000000 2.005360 
# 
# From -- ./inp_files/206425.got.cif
#   From: 2010.05.17/outbox.cif.g08.bks.cpg/sg15_104_cif.got.tgz:206425.got - 2010.06.03 18:47:42.
