data_PCOD9258123
_publ_section_title
;
Structure prediction by ZEFSAII (Michael W. Deem and Ramdas Pophale) SiO2 
 PCOD9258123
Probable space group: C 2/C
;
_chemical_formula_sum "Si O2"
_cell_formula_units_Z 56
_cell_length_a 8.859260
_cell_length_b 23.463121
_cell_length_c 19.340369
_cell_angle_alpha 90.000000
_cell_angle_beta 144.619105
_cell_angle_gamma 90.000000
_cell_volume 2327.735086
_symmetry_space_group_name_H-M "C 2/C"
_symmetry_group_IT_number 15
_symmetry_cell_setting 'monoclinic'
loop_
_space_group_symop_operation_xyz
x,y,z
-x,y,1/2-z
-x,-y,-z
x,-y,1/2+z
1/2+x,1/2+y,z
1/2-x,1/2+y,1/2-z
1/2-x,1/2-y,-z
1/2+x,1/2-y,1/2+z
loop_
_atom_site_type_symbol
_atom_site_label
_atom_site_fract_x
_atom_site_fract_y
_atom_site_fract_z
Si Si1 0.438320 0.192061 0.398970
Si Si2 0.999581 0.085398 0.600920
Si Si3 0.688253 0.754359 0.124373
Si Si4 0.422725 0.076328 0.448756
Si Si5 0.258242 0.133325 0.115266
Si Si6 0.176289 0.306381 0.253435
Si Si7 0.234838 0.537382 0.682043
O O1 0.612790 0.221693 0.522246
O O2 0.310250 0.137521 0.387930
O O3 0.598223 0.166164 0.394717
O O4 0.262733 0.243056 0.306844
O O5 0.095727 0.147318 0.663129
O O6 0.210750 0.043434 0.715903
O O7 0.713370 0.072366 0.523943
O O8 0.945807 0.091469 0.498479
O O9 0.627518 0.686769 0.106198
O O10 0.559780 0.794272 0.134687
O O11 0.000000 0.759742 0.250000
O O12 0.482673 0.066571 0.552435
O O13 0.277837 0.025454 0.355669
O O14 0.500000 0.108565 0.250000
O O15 0.000000 0.328125 0.250000
O O16 0.500000 0.564986 0.750000
#
# Coordination Sequence:
#
# PCOD9258123 Si02
#       7
#     8   8   8   8   8   8   8
#     4  11  20  35  56  90 124 162 206 252 317 376
#     4  10  20  37  60  84 121 165 206 251 317 385
#     4  11  19  34  59  85 121 168 208 254 297 382
#     4   9  19  32  64  94 121 158 212 267 312 371
#     4  10  18  32  60  90 117 162 212 263 286 374
#     4  12  25  37  55  93 136 170 202 256 325 386
#     4   9  18  37  60  96 124 153 209 276 322 363
#
# _framework density 24.057721000000001
#
# number of rings (size 3 to 8) (size 9 to 14) (size 15 to 20)
#    0.000    1.714    4.286    3.000    0.000    3.429 
#    0.000    0.000    0.000   14.571    0.000    0.000 
#    0.000    0.000    0.000    0.000    0.000    1.000 
#
# Total GULP energy -156174.149977 kJ/mol
# GULP energy per Si atom -5577.648213 kJ/mol
# Density = 2.400296 g / cm^3
# Si number density = 24.057721 Si / 1000 Ang^3
#
#
#
# Elastic Constant Matrix: (Units=GPa)
#
#
# Indices 1 2 3 4 5 6 
#
# 1 45.0939 -6.4533 21.4108 0.0001 -6.2039 0.0001
# 2 -6.4533 75.4391 60.3843 0.0000 0.5286 0.0000
# 3 21.4108 60.3843 157.5870 0.0004 -37.3495 0.0004
# 4 0.0001 0.0000 0.0004 41.4488 0.0002 -11.6248
# 5 -6.2039 0.5286 -37.3495 0.0002 27.7860 0.0001
# 6 0.0001 0.0000 0.0004 -11.6248 0.0001 6.2590
#
#
#
# Elastic Compliance Matrix: (Units=1/GPa)
#
#
# Indices 1 2 3 4 5 6 
#
# 1 0.026700 0.009042 -0.008394 0.000000 -0.005494 0.000001
# 2 0.009042 0.027650 -0.016832 0.000001 -0.021133 0.000003
# 3 -0.008394 -0.016832 0.019911 -0.000001 0.025210 -0.000004
# 4 0.000000 0.000001 -0.000001 0.050357 -0.000003 0.093527
# 5 -0.005494 -0.021133 0.025210 -0.000003 0.069052 -0.000008
# 6 0.000001 0.000003 -0.000004 0.093527 -0.000008 0.333475
#
#
# Mechanical properties :
#
#
# Convention : Reuss Voigt Hill
#
# Bulk Modulus (GPa) = 23.87139 47.64486 35.75812
# Shear Modulus (GPa) = 8.71872 28.61731 18.66802
#
# Velocity S-wave (km/s) = 1.90577 3.45269 2.78864
# Velocity P-wave (km/s) = 3.84535 5.97848 5.02637
#
# Compressibility (1/GPa) = 0.04189116
#
# Stress axis : x y z
#
# Youngs Moduli (GPa) = 37.45360 36.16583 50.22344
#
# Poissons Ratio (x) = -0.32700 0.42159
# Poissons Ratio (y) = -0.33864 0.84537
# Poissons Ratio (z) = 0.31440 0.60875
#
# Static dielectric constant tensor:
#      x y z
#    x 2.047470 0.000000 -0.062540 
#    y 0.000000 1.957740 0.000000 
#    z -0.062540 0.000000 2.002690 
# 
# From -- ./inp_files/193919.got.cif
#   From: 2010.05.17/outbox.cif.g08.bks.cpg/sg15_97_cif.got.tgz:193919.got - 2010.06.03 18:47:42.
