data_PCOD9258120
_publ_section_title
;
Structure prediction by ZEFSAII (Michael W. Deem and Ramdas Pophale) SiO2 
 PCOD9258120
Probable space group: C 2/C
;
_chemical_formula_sum "Si O2"
_cell_formula_units_Z 56
_cell_length_a 19.835876
_cell_length_b 19.023385
_cell_length_c 13.050480
_cell_angle_alpha 90.000000
_cell_angle_beta 33.252497
_cell_angle_gamma 90.000000
_cell_volume 2700.271406
_symmetry_space_group_name_H-M "C 2/C"
_symmetry_group_IT_number 15
_symmetry_cell_setting 'monoclinic'
loop_
_space_group_symop_operation_xyz
x,y,z
-x,y,1/2-z
-x,-y,-z
x,-y,1/2+z
1/2+x,1/2+y,z
1/2-x,1/2+y,1/2-z
1/2-x,1/2-y,-z
1/2+x,1/2-y,1/2+z
loop_
_atom_site_type_symbol
_atom_site_label
_atom_site_fract_x
_atom_site_fract_y
_atom_site_fract_z
Si Si1 0.351033 0.224707 0.461418
Si Si2 0.353809 0.939513 0.313358
Si Si3 0.307610 0.350672 0.649563
Si Si4 0.719017 0.099073 0.809328
Si Si5 0.869202 0.554678 0.025339
Si Si6 0.871799 0.954189 0.387732
Si Si7 0.468334 0.582129 0.549434
O O1 0.500000 0.234683 0.250000
O O2 0.250000 0.250000 0.500000
O O3 0.313879 0.271558 0.606878
O O4 0.333648 0.146341 0.530782
O O5 0.340658 0.893330 0.227508
O O6 0.350836 0.913972 0.434793
O O7 0.244978 0.996442 0.452597
O O8 0.491733 0.969131 0.132752
O O9 0.177095 0.383824 0.842203
O O10 0.355177 0.393471 0.490928
O O11 0.407531 0.373285 0.607350
O O12 0.864405 0.110285 0.606977
O O13 0.706614 0.016423 0.856766
O O14 0.896462 0.916704 0.249162
O O15 0.000000 0.993556 0.250000
O O16 0.500000 0.500000 0.500000
#
# Coordination Sequence:
#
# PCOD9258120 Si02
#       7
#     8   8   8   8   8   8   8
#     4  12  29  45  68 103 145 189 227 281 354 426
#     4  11  23  38  60 101 126 167 229 275 349 393
#     4  11  22  42  63  92 130 182 224 273 349 397
#     4  12  23  39  65  99 133 176 230 280 339 415
#     4  11  24  39  66  93 134 178 221 291 336 399
#     4  10  18  32  60  88 125 161 213 273 330 395
#     4  11  19  37  63  96 129 171 226 286 341 395
#
# _framework density 20.738657
#
# number of rings (size 3 to 8) (size 9 to 14) (size 15 to 20)
#    0.000    0.857    4.286    4.286    4.000    0.000 
#    0.000    0.714    0.000    0.000    3.714    0.000 
#    0.000    0.000    0.000    0.000    0.000    0.000 
#
# Total GULP energy -155919.179815 kJ/mol
# GULP energy per Si atom -5568.542136 kJ/mol
# Density = 2.069145 g / cm^3
# Si number density = 20.738657 Si / 1000 Ang^3
#
#
#
# Elastic Constant Matrix: (Units=GPa)
#
#
# Indices 1 2 3 4 5 6 
#
# 1 92.6204 5.3535 17.7567 0.0000 -7.9521 0.0000
# 2 5.3535 39.3079 8.2984 0.0000 1.3075 0.0000
# 3 17.7567 8.2984 84.3133 0.0000 -11.8828 0.0000
# 4 0.0000 0.0000 0.0000 32.5196 0.0000 9.4733
# 5 -7.9521 1.3075 -11.8828 0.0000 42.7564 0.0000
# 6 0.0000 0.0000 0.0000 9.4733 0.0000 25.8995
#
#
#
# Elastic Compliance Matrix: (Units=1/GPa)
#
#
# Indices 1 2 3 4 5 6 
#
# 1 0.011395 -0.001169 -0.002062 0.000000 0.001582 0.000000
# 2 -0.001169 0.026201 -0.002577 0.000000 -0.001735 0.000000
# 3 -0.002062 -0.002577 0.013015 0.000000 0.003313 0.000000
# 4 0.000000 0.000000 0.000000 0.034418 0.000000 -0.012589
# 5 0.001582 -0.001735 0.003313 0.000000 0.024656 0.000000
# 6 0.000000 0.000000 0.000000 -0.012589 0.000000 0.043215
#
#
# Mechanical properties :
#
#
# Convention : Reuss Voigt Hill
#
# Bulk Modulus (GPa) = 25.64405 31.00654 28.32530
# Shear Modulus (GPa) = 28.16640 32.55731 30.36186
#
# Velocity S-wave (km/s) = 3.68932 3.96648 3.83041
# Velocity P-wave (km/s) = 5.52633 5.99673 5.76633
#
# Compressibility (1/GPa) = 0.03899540
#
# Stress axis : x y z
#
# Youngs Moduli (GPa) = 87.75418 38.16623 76.83296
#
# Poissons Ratio (x) = 0.04463 0.15842
# Poissons Ratio (y) = 0.10261 0.19800
# Poissons Ratio (z) = 0.18094 0.09836
#
# Static dielectric constant tensor:
#      x y z
#    x 1.920520 0.000000 -0.051570 
#    y 0.000000 1.745930 0.000000 
#    z -0.051570 0.000000 1.783760 
# 
# From -- ./inp_files/169107.got.cif
#   From: 2010.05.17/outbox.cif.g08.bks.cpg/sg15_85_cif.got.tgz:169107.got - 2010.06.03 18:47:42.
