data_PCOD9258019
_publ_section_title
;
Structure prediction by ZEFSAII (Michael W. Deem and Ramdas Pophale) SiO2 
 PCOD9258019
Probable space group: C 2/C
;
_chemical_formula_sum "Si O2"
_cell_formula_units_Z 60
_cell_length_a 31.580849
_cell_length_b 11.152630
_cell_length_c 17.048518
_cell_angle_alpha 90.000000
_cell_angle_beta 154.671970
_cell_angle_gamma 90.000000
_cell_volume 2568.790068
_symmetry_space_group_name_H-M "C 2/C"
_symmetry_group_IT_number 15
_symmetry_cell_setting 'monoclinic'
loop_
_space_group_symop_operation_xyz
x,y,z
-x,y,1/2-z
-x,-y,-z
x,-y,1/2+z
1/2+x,1/2+y,z
1/2-x,1/2+y,1/2-z
1/2-x,1/2-y,-z
1/2+x,1/2-y,1/2+z
loop_
_atom_site_type_symbol
_atom_site_label
_atom_site_fract_x
_atom_site_fract_y
_atom_site_fract_z
Si Si1 0.180706 0.778671 0.807710
Si Si2 0.797981 0.020328 0.756361
Si Si3 0.239522 0.950904 0.128869
Si Si4 0.045140 0.094324 0.192756
Si Si5 0.000000 0.743323 0.750000
Si Si6 0.162269 0.399744 0.827509
Si Si7 0.611899 0.636971 0.729744
Si Si8 0.404471 0.992182 0.134027
O O1 0.203724 0.896606 0.795236
O O2 0.194153 0.668272 0.771437
O O3 0.078299 0.817618 0.677555
O O4 0.250000 0.750000 0.000000
O O5 0.686926 0.064957 0.554312
O O6 0.801532 0.013298 0.855183
O O7 0.878660 0.099974 0.845882
O O8 0.311664 0.052984 0.214800
O O9 0.144570 0.926072 0.914604
O O10 0.979694 0.170779 0.143386
O O11 0.039155 0.956469 0.151124
O O12 0.087020 0.649310 0.873552
O O13 0.101309 0.277146 0.725874
O O14 0.105660 0.492218 0.789646
O O15 0.274010 0.384979 0.049551
O O16 0.500000 0.042648 0.250000
#
# Coordination Sequence:
#
# PCOD9258019 Si02
#       8
#     8   8   8   8   4   8   8   8
#     4   9  17  32  54  74 105 140 186 222 255 318
#     4  10  19  32  51  85 106 130 175 235 272 299
#     4  10  19  28  55  80 106 126 176 235 274 299
#     4   9  17  33  52  79  95 144 181 215 259 317
#     4  10  18  32  58  76 106 138 196 212 240 326
#     4   9  16  33  50  73 102 142 170 212 265 319
#     4   8  17  31  52  70 104 134 178 212 257 319
#     4   9  19  32  53  74 105 143 181 214 253 328
#
# _framework density 23.357299000000001
#
# number of rings (size 3 to 8) (size 9 to 14) (size 15 to 20)
#    0.400    2.400    0.000    4.800    1.867    0.000 
#    1.200    0.667    0.000    3.200    0.000    0.000 
#    0.000    0.000    0.000    0.000    0.000    0.000 
#
# Total GULP energy -167142.001608 kJ/mol
# GULP energy per Si atom -5571.400054 kJ/mol
# Density = 2.330414 g / cm^3
# Si number density = 23.357299 Si / 1000 Ang^3
#
#
#
# Elastic Constant Matrix: (Units=GPa)
#
#
# Indices 1 2 3 4 5 6 
#
# 1 163.4908 62.8744 9.2346 0.0000 -11.7342 0.0000
# 2 62.8744 126.5927 10.6742 0.0000 -4.7267 0.0000
# 3 9.2346 10.6742 20.2176 0.0000 1.3929 0.0000
# 4 0.0000 0.0000 0.0000 24.4027 0.0000 1.5528
# 5 -11.7342 -4.7267 1.3929 0.0000 35.9923 0.0000
# 6 0.0000 0.0000 0.0000 1.5528 0.0000 31.9686
#
#
#
# Elastic Compliance Matrix: (Units=1/GPa)
#
#
# Indices 1 2 3 4 5 6 
#
# 1 0.007764 -0.003627 -0.001778 0.000000 0.002124 0.000000
# 2 -0.003627 0.010019 -0.003652 0.000000 0.000275 0.000000
# 3 -0.001778 -0.003652 0.052415 0.000000 -0.003088 0.000000
# 4 0.000000 0.000000 0.000000 0.041106 0.000000 -0.001997
# 5 0.002124 0.000275 -0.003088 0.000000 0.028632 0.000000
# 6 0.000000 0.000000 0.000000 -0.001997 0.000000 0.031378
#
#
# Mechanical properties :
#
#
# Convention : Reuss Voigt Hill
#
# Bulk Modulus (GPa) = 19.19956 52.87418 36.03687
# Shear Modulus (GPa) = 24.17930 33.64058 28.90994
#
# Velocity S-wave (km/s) = 3.22093 3.79919 3.52195
# Velocity P-wave (km/s) = 4.69791 6.47545 5.65693
#
# Compressibility (1/GPa) = 0.05208452
#
# Stress axis : x y z
#
# Youngs Moduli (GPa) = 128.79507 99.81072 19.07859
#
# Poissons Ratio (x) = 0.36202 0.03392
# Poissons Ratio (y) = 0.46715 0.06967
# Poissons Ratio (z) = 0.22897 0.36450
#
# Static dielectric constant tensor:
#      x y z
#    x 1.906800 0.000000 0.000350 
#    y 0.000000 1.878420 0.000000 
#    z 0.000350 0.000000 2.148930 
# 
# From -- ./inp_files/224803.got.cif
#   From: 2010.05.17/outbox.cif.g08.bks.cpg/sg15_113_cif.got.tgz:224803.got - 2010.06.03 18:47:42.
