data_PCOD9258269
_publ_section_title
;
Structure prediction by ZEFSAII (Michael W. Deem and Ramdas Pophale) SiO2 
 PCOD9258269
Probable space group: C 2/C
;
_chemical_formula_sum "Si O2"
_cell_formula_units_Z 52
_cell_length_a 21.352563
_cell_length_b 9.222756
_cell_length_c 14.835483
_cell_angle_alpha 90.000000
_cell_angle_beta 60.525515
_cell_angle_gamma 90.000000
_cell_volume 2543.422804
_symmetry_space_group_name_H-M "C 2/C"
_symmetry_group_IT_number 15
_symmetry_cell_setting 'monoclinic'
loop_
_space_group_symop_operation_xyz
x,y,z
-x,y,1/2-z
-x,-y,-z
x,-y,1/2+z
1/2+x,1/2+y,z
1/2-x,1/2+y,1/2-z
1/2-x,1/2-y,-z
1/2+x,1/2-y,1/2+z
loop_
_atom_site_type_symbol
_atom_site_label
_atom_site_fract_x
_atom_site_fract_y
_atom_site_fract_z
Si Si1 0.713331 0.873813 0.191552
Si Si2 0.810452 0.934848 0.868863
Si Si3 0.916061 0.087904 0.653340
Si Si4 0.634709 0.154651 0.215341
Si Si5 0.500000 0.696015 0.750000
Si Si6 0.282146 0.810492 0.099823
Si Si7 0.140558 0.971151 0.977312
O O1 0.706486 0.731715 0.135764
O O2 0.713824 0.828421 0.295351
O O3 0.649041 0.987528 0.220918
O O4 0.786555 0.958566 0.117353
O O5 0.857936 0.993702 0.751410
O O6 0.736731 0.030376 0.925598
O O7 0.857709 0.967417 0.923370
O O8 0.884915 0.253338 0.680149
O O9 0.985124 0.102205 0.670528
O O10 0.918674 0.024500 0.552013
O O11 0.569497 0.200818 0.197615
O O12 0.708735 0.224235 0.127877
O O13 0.346423 0.701914 0.029940
#
# Coordination Sequence:
#
# PCOD9258269 Si02
#       7
#     8   8   8   8   4   8   8
#     4  11  17  32  51  80 109 136 170 223 262 314
#     4  11  20  31  52  83 110 136 172 219 266 317
#     4   9  18  36  54  72 103 145 176 215 257 321
#     4   8  17  30  57  70  98 142 177 210 261 315
#     4   8  16  36  58  68  96 152 184 206 274 304
#     4  10  18  33  53  76 113 138 166 214 269 319
#     4  11  20  32  52  82 109 141 172 209 274 320
#
# _framework density 20.444890000000001
#
# number of rings (size 3 to 8) (size 9 to 14) (size 15 to 20)
#    0.923    1.231    4.615    1.846    0.000    0.000 
#    0.000    1.538    0.000    0.923    0.000    0.000 
#    0.000    0.000    0.000    0.000    0.000    0.000 
#
# Total GULP energy -144882.052509 kJ/mol
# GULP energy per Si atom -5572.386635 kJ/mol
# Density = 2.039836 g / cm^3
# Si number density = 20.444890 Si / 1000 Ang^3
#
#
#
# Elastic Constant Matrix: (Units=GPa)
#
#
# Indices 1 2 3 4 5 6 
#
# 1 108.9022 57.6431 27.7086 0.0000 28.3780 0.0000
# 2 57.6431 136.6061 36.7579 0.0000 16.8304 0.0000
# 3 27.7086 36.7579 93.2891 0.0000 33.4905 0.0000
# 4 0.0000 0.0000 0.0000 16.5753 0.0000 2.4025
# 5 28.3780 16.8304 33.4905 0.0000 30.1547 0.0000
# 6 0.0000 0.0000 0.0000 2.4025 0.0000 16.9000
#
#
#
# Elastic Compliance Matrix: (Units=1/GPa)
#
#
# Indices 1 2 3 4 5 6 
#
# 1 0.014996 -0.005316 0.002730 0.000000 -0.014178 0.000000
# 2 -0.005316 0.010122 -0.003621 0.000000 0.003374 0.000000
# 3 0.002730 -0.003621 0.019179 0.000000 -0.021849 0.000000
# 4 0.000000 0.000000 0.000000 0.061600 0.000000 -0.008757
# 5 -0.014178 0.003374 -0.021849 0.000000 0.068887 0.000000
# 6 0.000000 0.000000 0.000000 -0.008757 0.000000 0.060417
#
#
# Mechanical properties :
#
#
# Convention : Reuss Voigt Hill
#
# Bulk Modulus (GPa) = 31.36372 64.77961 48.07167
# Shear Modulus (GPa) = 19.36180 27.17187 23.26684
#
# Velocity S-wave (km/s) = 3.08071 3.64954 3.37713
# Velocity P-wave (km/s) = 5.29418 7.03652 6.22659
#
# Compressibility (1/GPa) = 0.03188397
#
# Stress axis : x y z
#
# Youngs Moduli (GPa) = 66.68438 98.79584 52.14115
#
# Poissons Ratio (x) = 0.52517 -0.14235
# Poissons Ratio (y) = 0.35447 0.18879
# Poissons Ratio (z) = -0.18206 0.35772
#
# Static dielectric constant tensor:
#      x y z
#    x 1.783890 0.000000 -0.010890 
#    y 0.000000 1.737010 0.000000 
#    z -0.010890 0.000000 1.793790 
# 
# From -- ./inp_files/171340.got.cif
#   From: 2010.05.17/outbox.cif.g08.bks.cpg/sg15_86_cif.got.tgz:171340.got - 2010.06.03 18:47:42.
