data_PCOD9258511
_publ_section_title
;
Structure prediction by ZEFSAII (Michael W. Deem and Ramdas Pophale) SiO2 
 PCOD9258511
Probable space group: C 2/C
;
_chemical_formula_sum "Si O2"
_cell_formula_units_Z 36
_cell_length_a 12.251350
_cell_length_b 16.238312
_cell_length_c 14.793108
_cell_angle_alpha 90.000000
_cell_angle_beta 137.975341
_cell_angle_gamma 90.000000
_cell_volume 1970.165223
_symmetry_space_group_name_H-M "C 2/C"
_symmetry_group_IT_number 15
_symmetry_cell_setting 'monoclinic'
loop_
_space_group_symop_operation_xyz
x,y,z
-x,y,1/2-z
-x,-y,-z
x,-y,1/2+z
1/2+x,1/2+y,z
1/2-x,1/2+y,1/2-z
1/2-x,1/2-y,-z
1/2+x,1/2-y,1/2+z
loop_
_atom_site_type_symbol
_atom_site_label
_atom_site_fract_x
_atom_site_fract_y
_atom_site_fract_z
Si Si1 0.976844 0.816154 0.367789
Si Si2 0.000000 0.944000 0.750000
Si Si3 0.064993 0.084291 0.089257
Si Si4 0.765703 0.094194 0.604731
Si Si5 0.939550 0.377772 0.813984
O O1 0.822926 0.866171 0.233830
O O2 0.943308 0.721036 0.329578
O O3 0.010888 0.841487 0.490852
O O4 0.134942 0.849394 0.408093
O O5 0.005617 0.902674 0.655404
O O6 0.154642 0.004960 0.849968
O O7 0.260927 0.085092 0.214328
O O8 0.000000 0.000000 0.000000
O O9 0.577168 0.091358 0.467316
O O10 0.000000 0.395660 0.750000
#
# Coordination Sequence:
#
# PCOD9258511 Si02
#       5
#     8   4   8   8   8
#     4  10  19  34  58  87 121 144 178 245 305 338
#     4  10  22  40  52  80 118 162 190 230 278 346
#     4  12  22  39  60  81 120 160 187 237 293 339
#     4  10  18  33  58  85 122 138 186 243 299 342
#     4  12  20  32  60  95 114 143 193 244 296 346
#
# _framework density 18.272580000000001
#
# number of rings (size 3 to 8) (size 9 to 14) (size 15 to 20)
#    0.000    1.333    8.889    2.000    0.000    0.889 
#    0.000    1.111    0.000    0.000    0.000    0.000 
#    0.000    0.000    0.000    0.000    0.000    0.000 
#
# Total GULP energy -100414.128225 kJ/mol
# GULP energy per Si atom -5578.562679 kJ/mol
# Density = 1.823099 g / cm^3
# Si number density = 18.272580 Si / 1000 Ang^3
#
#
#
# Elastic Constant Matrix: (Units=GPa)
#
#
# Indices 1 2 3 4 5 6 
#
# 1 72.5880 11.3614 52.7166 0.0000 -23.1674 0.0000
# 2 11.3614 20.7634 13.8591 -0.0001 4.9592 -0.0001
# 3 52.7166 13.8591 164.3940 -0.0001 11.8518 -0.0001
# 4 0.0000 -0.0001 -0.0001 7.4496 -0.0001 -3.4293
# 5 -23.1674 4.9592 11.8518 -0.0001 34.7287 0.0000
# 6 0.0000 -0.0001 -0.0001 -3.4293 0.0000 1.4428
#
#
#
# Elastic Compliance Matrix: (Units=1/GPa)
#
#
# Indices 1 2 3 4 5 6 
#
# 1 0.034586 -0.018204 -0.011695 -0.000002 0.029662 -0.000005
# 2 -0.018204 0.061849 0.002189 -0.000009 -0.021723 -0.000019
# 3 -0.011695 0.002189 0.010492 -0.000001 -0.011694 -0.000003
# 4 -0.000002 -0.000009 -0.000001 -1.425493 -0.000007 -3.388211
# 5 0.029662 -0.021723 -0.011694 -0.000007 0.055675 -0.000017
# 6 -0.000005 -0.000019 -0.000003 -3.388211 -0.000017 -7.360240
#
#
# Mechanical properties :
#
#
# Convention : Reuss Voigt Hill
#
# Bulk Modulus (GPa) = 19.41406 45.95774 32.68590
# Shear Modulus (GPa) = -0.58476 20.71144 10.06334
#
# Velocity S-wave (km/s) = -0.56632 3.37036 2.34932
# Velocity P-wave (km/s) = 3.19690 6.35229 5.02850
#
# Compressibility (1/GPa) = 0.05150906
#
# Stress axis : x y z
#
# Youngs Moduli (GPa) = 28.91357 16.16830 95.31440
#
# Poissons Ratio (x) = 0.29432 1.11466
# Poissons Ratio (y) = 0.52633 -0.20867
# Poissons Ratio (z) = 0.33813 -0.03540
#
# Static dielectric constant tensor:
#      x y z
#    x 1.669100 0.000000 -0.034190 
#    y 0.000000 1.638230 0.000000 
#    z -0.034190 0.000000 1.660110 
# 
# From -- ./inp_files/134672.got.cif
#   From: 2010.05.17/outbox.cif.g08.bks.cpg/sg15_68_cif.got.tgz:134672.got - 2010.06.03 18:47:42.
