data_PCOD9258076
_publ_section_title
;
Structure prediction by ZEFSAII (Michael W. Deem and Ramdas Pophale) SiO2 
 PCOD9258076
Probable space group: C 2/C
;
_chemical_formula_sum "Si O2"
_cell_formula_units_Z 60
_cell_length_a 18.830443
_cell_length_b 22.140444
_cell_length_c 14.196777
_cell_angle_alpha 90.000000
_cell_angle_beta 150.099992
_cell_angle_gamma 90.000000
_cell_volume 2950.470050
_symmetry_space_group_name_H-M "C 2/C"
_symmetry_group_IT_number 15
_symmetry_cell_setting 'monoclinic'
loop_
_space_group_symop_operation_xyz
x,y,z
-x,y,1/2-z
-x,-y,-z
x,-y,1/2+z
1/2+x,1/2+y,z
1/2-x,1/2+y,1/2-z
1/2-x,1/2-y,-z
1/2+x,1/2-y,1/2+z
loop_
_atom_site_type_symbol
_atom_site_label
_atom_site_fract_x
_atom_site_fract_y
_atom_site_fract_z
Si Si1 0.496816 0.842090 0.435881
Si Si2 0.552174 0.948072 0.988904
Si Si3 0.269232 0.922494 0.552736
Si Si4 0.000000 0.402187 0.250000
Si Si5 0.700640 0.795382 0.025342
Si Si6 0.268968 0.480122 0.631306
Si Si7 0.001719 0.232883 0.561175
Si Si8 0.819924 0.886239 0.842160
O O1 0.427705 0.886175 0.433197
O O2 0.450930 0.861374 0.280264
O O3 0.470950 0.774383 0.436285
O O4 0.663701 0.859285 0.638529
O O5 0.700170 0.970508 0.120544
O O6 0.429319 0.941423 0.769212
O O7 0.500000 0.000000 0.000000
O O8 0.290563 0.862198 0.512202
O O9 0.194089 0.910535 0.566960
O O10 0.186775 0.976738 0.404313
O O11 0.133010 0.442241 0.436460
O O12 0.559135 0.772035 0.918315
O O13 0.831920 0.783266 0.246444
O O14 0.750000 0.750000 0.000000
O O15 0.353872 0.434896 0.798487
O O16 0.923781 0.169700 0.467149
#
# Coordination Sequence:
#
# PCOD9258076 Si02
#       8
#     8   8   8   4   8   8   8   8
#     4  10  20  35  59  86 127 161 211 250 316 361
#     4  11  16  31  54  86 125 155 193 256 314 361
#     4  11  20  34  55  89 121 161 199 254 307 372
#     4  10  18  32  58  94 118 160 204 272 302 356
#     4  12  24  38  64  92 125 164 208 253 315 374
#     4  11  19  33  56  88 125 156 206 257 316 357
#     4  12  23  44  60  88 129 168 205 259 310 372
#     4  10  22  37  59  91 124 162 200 260 312 369
#
# _framework density 20.335742
#
# number of rings (size 3 to 8) (size 9 to 14) (size 15 to 20)
#    0.000    1.067    8.000    2.000    0.000    2.133 
#    0.000    3.333    0.000    0.000    0.000    0.000 
#    0.000    0.000    0.000    0.000    0.000    0.000 
#
# Total GULP energy -167320.669633 kJ/mol
# GULP energy per Si atom -5577.355654 kJ/mol
# Density = 2.028946 g / cm^3
# Si number density = 20.335742 Si / 1000 Ang^3
#
#
#
# Elastic Constant Matrix: (Units=GPa)
#
#
# Indices 1 2 3 4 5 6 
#
# 1 47.2402 26.7599 19.4986 0.0000 -14.4869 0.0000
# 2 26.7599 107.6352 22.8022 0.0000 -17.1893 0.0000
# 3 19.4986 22.8022 27.0172 0.0000 -8.7769 0.0000
# 4 0.0000 0.0000 0.0000 -49.4952 0.0000 38.8751
# 5 -14.4869 -17.1893 -8.7769 0.0000 21.2795 0.0000
# 6 0.0000 0.0000 0.0000 38.8751 0.0000 0.0543
#
#
#
# Elastic Compliance Matrix: (Units=1/GPa)
#
#
# Indices 1 2 3 4 5 6 
#
# 1 0.034327 -0.002466 -0.018185 0.000000 0.013877 0.000000
# 2 -0.002466 0.012197 -0.006765 0.000000 0.005383 0.000000
# 3 -0.018185 -0.006765 0.057794 0.000000 0.005993 0.000000
# 4 0.000000 0.000000 0.000000 -0.000036 0.000000 0.025678
# 5 0.013877 0.005383 0.005993 0.000000 0.063261 0.000000
# 6 0.000000 0.000000 0.000000 0.025678 0.000000 0.032693
#
#
# Mechanical properties :
#
#
# Convention : Reuss Voigt Hill
#
# Bulk Modulus (GPa) = 20.20780 35.55709 27.88245
# Shear Modulus (GPa) = 18.41195 1.88984 10.15090
#
# Velocity S-wave (km/s) = 3.01225 0.96506 2.23662
# Velocity P-wave (km/s) = 4.69647 4.33183 4.51783
#
# Compressibility (1/GPa) = 0.04948583
#
# Stress axis : x y z
#
# Youngs Moduli (GPa) = 29.13190 81.99029 17.30271
#
# Poissons Ratio (x) = 0.20215 0.31465
# Poissons Ratio (y) = 0.07183 0.11706
# Poissons Ratio (z) = 0.52976 0.55471
#
# Static dielectric constant tensor:
#      x y z
#    x 1.082290 0.000000 0.040610 
#    y 0.000000 1.748810 0.000000 
#    z 0.040610 0.000000 1.746500 
# 
# From -- ./inp_files/99818.got.cif
#   From: 2010.05.17/outbox.cif.g08.bks.cpg/sg15_50_cif.got.tgz:99818.got - 2010.06.03 18:47:42.
