data_PCOD9258872
_publ_section_title
;
Structure prediction by ZEFSAII (Michael W. Deem and Ramdas Pophale) SiO2 
 PCOD9258872
Probable space group: C 2/C
;
_chemical_formula_sum "Si O2"
_cell_formula_units_Z 52
_cell_length_a 20.817319
_cell_length_b 19.381177
_cell_length_c 9.532419
_cell_angle_alpha 90.000000
_cell_angle_beta 46.622428
_cell_angle_gamma 90.000000
_cell_volume 2795.432576
_symmetry_space_group_name_H-M "C 2/C"
_symmetry_group_IT_number 15
_symmetry_cell_setting 'monoclinic'
loop_
_space_group_symop_operation_xyz
x,y,z
-x,y,1/2-z
-x,-y,-z
x,-y,1/2+z
1/2+x,1/2+y,z
1/2-x,1/2+y,1/2-z
1/2-x,1/2-y,-z
1/2+x,1/2-y,1/2+z
loop_
_atom_site_type_symbol
_atom_site_label
_atom_site_fract_x
_atom_site_fract_y
_atom_site_fract_z
Si Si1 0.095931 0.635205 0.160612
Si Si2 0.166191 0.155102 0.162995
Si Si3 0.894317 0.503717 0.176324
Si Si4 0.382624 0.216767 0.099513
Si Si5 0.290199 0.784720 0.231265
Si Si6 0.826389 0.580951 0.021136
Si Si7 0.500000 0.676948 0.250000
O O1 0.132891 0.569833 0.189003
O O2 0.086601 0.693444 0.294187
O O3 0.000000 0.614892 0.250000
O O4 0.153134 0.664018 0.947371
O O5 0.154897 0.223384 0.276305
O O6 0.222511 0.098420 0.162997
O O7 0.073711 0.136431 0.229324
O O8 0.234089 0.178656 0.938323
O O9 0.849972 0.519616 0.093642
O O10 0.863786 0.438810 0.312860
O O11 0.000000 0.500000 0.000000
O O12 0.284192 0.247987 0.252481
O O13 0.373811 0.149462 0.011881
O O14 0.445612 0.272745 0.934651
#
# Coordination Sequence:
#
# PCOD9258872 Si02
#       7
#     8   8   8   8   8   8   4
#     4  11  21  30  50  79 113 148 182 229 275 336
#     4   9  19  34  58  77 109 146 183 243 277 350
#     4  11  24  37  51  83 111 155 193 223 272 340
#     4   9  20  33  54  78 111 146 177 240 274 345
#     4   9  18  34  50  80 108 145 188 220 298 333
#     4  10  22  37  55  78 114 150 185 230 279 328
#     4  10  18  34  56  86 100 140 194 222 298 334
#
# _framework density 18.601773999999999
#
# number of rings (size 3 to 8) (size 9 to 14) (size 15 to 20)
#    0.000    2.154    0.000    3.692    8.615    0.000 
#    0.000    0.000    0.000    0.923    0.000    0.000 
#    0.000    0.000    0.000    0.000    0.000    0.000 
#
# Total GULP energy -145074.024160 kJ/mol
# GULP energy per Si atom -5579.770160 kJ/mol
# Density = 1.855944 g / cm^3
# Si number density = 18.601774 Si / 1000 Ang^3
#
#
#
# Elastic Constant Matrix: (Units=GPa)
#
#
# Indices 1 2 3 4 5 6 
#
# 1 118.9309 13.8530 19.5092 0.0000 -2.1050 0.0000
# 2 13.8530 34.8430 28.1627 0.0000 3.5888 0.0000
# 3 19.5092 28.1627 65.7037 0.0000 4.2439 0.0000
# 4 0.0000 0.0000 0.0000 23.0975 0.0000 5.0492
# 5 -2.1050 3.5888 4.2439 0.0000 26.5163 0.0000
# 6 0.0000 0.0000 0.0000 5.0492 0.0000 32.9023
#
#
#
# Elastic Compliance Matrix: (Units=1/GPa)
#
#
# Indices 1 2 3 4 5 6 
#
# 1 0.008988 -0.002269 -0.001781 0.000000 0.001306 0.000000
# 2 -0.002269 0.044718 -0.018281 0.000000 -0.003307 0.000000
# 3 -0.001781 -0.018281 0.023678 0.000000 -0.001457 0.000000
# 4 0.000000 0.000000 0.000000 0.044798 0.000000 -0.006875
# 5 0.001306 -0.003307 -0.001457 0.000000 0.038497 0.000000
# 6 0.000000 0.000000 0.000000 -0.006875 0.000000 0.031448
#
#
# Mechanical properties :
#
#
# Convention : Reuss Voigt Hill
#
# Bulk Modulus (GPa) = 30.55782 38.05860 34.30821
# Shear Modulus (GPa) = 20.18614 27.03340 23.60977
#
# Velocity S-wave (km/s) = 3.29777 3.81631 3.56648
# Velocity P-wave (km/s) = 5.56448 6.31847 5.95342
#
# Compressibility (1/GPa) = 0.03272484
#
# Stress axis : x y z
#
# Youngs Moduli (GPa) = 111.26332 22.36219 42.23278
#
# Poissons Ratio (x) = 0.05073 0.07520
# Poissons Ratio (y) = 0.25241 0.77204
# Poissons Ratio (z) = 0.19812 0.40879
#
# Static dielectric constant tensor:
#      x y z
#    x 1.681000 0.000000 0.022220 
#    y 0.000000 1.661400 0.000000 
#    z 0.022220 0.000000 1.627580 
# 
# From -- ./inp_files/40882.got.cif
#   From: 2010.05.17/outbox.cif.g08.bks.cpg/sg15_21_cif.got.tgz:40882.got - 2010.06.03 18:47:42.
