data_PCOD9258087
_publ_section_title
;
Structure prediction by ZEFSAII (Michael W. Deem and Ramdas Pophale) SiO2 
 PCOD9258087
Probable space group: C 2/C
;
_chemical_formula_sum "Si O2"
_cell_formula_units_Z 56
_cell_length_a 14.969183
_cell_length_b 18.229773
_cell_length_c 13.711376
_cell_angle_alpha 90.000000
_cell_angle_beta 140.725462
_cell_angle_gamma 90.000000
_cell_volume 2368.587526
_symmetry_space_group_name_H-M "C 2/C"
_symmetry_group_IT_number 15
_symmetry_cell_setting 'monoclinic'
loop_
_space_group_symop_operation_xyz
x,y,z
-x,y,1/2-z
-x,-y,-z
x,-y,1/2+z
1/2+x,1/2+y,z
1/2-x,1/2+y,1/2-z
1/2-x,1/2-y,-z
1/2+x,1/2-y,1/2+z
loop_
_atom_site_type_symbol
_atom_site_label
_atom_site_fract_x
_atom_site_fract_y
_atom_site_fract_z
Si Si1 0.973129 0.138860 0.938242
Si Si2 0.772702 0.598586 0.520660
Si Si3 0.845774 0.949715 0.169222
Si Si4 0.565929 0.850352 0.174174
Si Si5 0.617440 0.320783 0.742990
Si Si6 0.257593 0.169514 0.052880
Si Si7 0.905085 0.308996 0.866009
O O1 0.881729 0.075196 0.810141
O O2 0.907559 0.220286 0.871724
O O3 0.015511 0.131244 0.087381
O O4 0.117648 0.150208 0.998117
O O5 0.723313 0.524833 0.425450
O O6 0.807311 0.606396 0.665077
O O7 0.655280 0.655729 0.384101
O O8 0.922800 0.619006 0.599943
O O9 0.000000 0.949095 0.250000
O O10 0.748578 0.887556 0.039305
O O11 0.578828 0.764421 0.210441
O O12 0.536406 0.845676 0.033455
O O13 0.765567 0.327879 0.809615
O O14 0.383685 0.166603 0.237225
O O15 0.250000 0.250000 0.000000
#
# Coordination Sequence:
#
# PCOD9258087 Si02
#       7
#     8   8   8   8   8   8   8
#     4   9  18  33  55  83 116 138 188 235 279 338
#     4  10  20  37  57  81 115 154 185 237 290 335
#     4  10  21  37  54  83 118 150 191 233 286 347
#     4   9  19  37  59  80 113 144 194 238 276 341
#     4   9  18  34  60  85 109 146 192 238 284 331
#     4  10  18  32  59  84 111 148 185 236 281 338
#     4   9  17  33  58  87 110 142 184 238 284 328
#
# _framework density 23.642783000000001
#
# number of rings (size 3 to 8) (size 9 to 14) (size 15 to 20)
#    0.000    2.571    1.429    0.429    0.000    0.571 
#   10.286    3.571    0.000    0.000    0.000    0.000 
#    0.000    0.000    0.000    0.000    0.000    0.000 
#
# Total GULP energy -156283.182238 kJ/mol
# GULP energy per Si atom -5581.542223 kJ/mol
# Density = 2.358897 g / cm^3
# Si number density = 23.642783 Si / 1000 Ang^3
#
#
#
# Elastic Constant Matrix: (Units=GPa)
#
#
# Indices 1 2 3 4 5 6 
#
# 1 76.0509 9.5747 46.5009 0.0000 -18.0399 0.0000
# 2 9.5747 76.6465 68.0714 0.0000 -2.4016 0.0000
# 3 46.5009 68.0714 233.4312 0.0000 -22.7300 0.0000
# 4 0.0000 0.0000 0.0000 229.0829 0.0000 39.0419
# 5 -18.0399 -2.4016 -22.7300 0.0000 25.4486 0.0000
# 6 0.0000 0.0000 0.0000 39.0419 0.0000 24.3972
#
#
#
# Elastic Compliance Matrix: (Units=1/GPa)
#
#
# Indices 1 2 3 4 5 6 
#
# 1 0.016981 0.000463 -0.002564 0.000000 0.009791 0.000000
# 2 0.000463 0.017861 -0.005591 0.000000 -0.002980 0.000000
# 3 -0.002564 -0.005591 0.006787 0.000000 0.003717 0.000000
# 4 0.000000 0.000000 0.000000 0.006002 0.000000 -0.009605
# 5 0.009791 -0.002980 0.003717 0.000000 0.049274 0.000000
# 6 0.000000 0.000000 0.000000 -0.009605 0.000000 0.056359
#
#
# Mechanical properties :
#
#
# Convention : Reuss Voigt Hill
#
# Bulk Modulus (GPa) = 38.10288 70.49140 54.29714
# Shear Modulus (GPa) = 28.18535 73.25119 50.71827
#
# Velocity S-wave (km/s) = 3.45647 5.57223 4.63664
# Velocity P-wave (km/s) = 5.66398 8.44272 7.18889
#
# Compressibility (1/GPa) = 0.02624474
#
# Stress axis : x y z
#
# Youngs Moduli (GPa) = 58.88838 55.98757 147.33988
#
# Poissons Ratio (x) = -0.02592 0.37784
# Poissons Ratio (y) = -0.02726 0.82376
# Poissons Ratio (z) = 0.15101 0.31302
#
# Static dielectric constant tensor:
#      x y z
#    x 2.162320 0.000000 -0.072730 
#    y 0.000000 1.880390 0.000000 
#    z -0.072730 0.000000 1.978530 
# 
# From -- ./inp_files/163106.got.cif
#   From: 2010.05.17/outbox.cif.g08.bks.cpg/sg15_82_cif.got.tgz:163106.got - 2010.06.03 18:47:42.
