data_PCOD9258530
_publ_section_title
;
Structure prediction by ZEFSAII (Michael W. Deem and Ramdas Pophale) SiO2 
 PCOD9258530
Probable space group: C 2/C
;
_chemical_formula_sum "Si O2"
_cell_formula_units_Z 48
_cell_length_a 25.014424
_cell_length_b 20.335238
_cell_length_c 17.675138
_cell_angle_alpha 90.000000
_cell_angle_beta 18.694464
_cell_angle_gamma 90.000000
_cell_volume 2881.772571
_symmetry_space_group_name_H-M "C 2/C"
_symmetry_group_IT_number 15
_symmetry_cell_setting 'monoclinic'
loop_
_space_group_symop_operation_xyz
x,y,z
-x,y,1/2-z
-x,-y,-z
x,-y,1/2+z
1/2+x,1/2+y,z
1/2-x,1/2+y,1/2-z
1/2-x,1/2-y,-z
1/2+x,1/2-y,1/2+z
loop_
_atom_site_type_symbol
_atom_site_label
_atom_site_fract_x
_atom_site_fract_y
_atom_site_fract_z
Si Si1 0.668327 0.547672 0.485524
Si Si2 0.163160 0.837568 0.695101
Si Si3 0.331376 0.401442 0.079207
Si Si4 0.859320 0.683457 0.779423
Si Si5 0.673504 0.902003 0.877532
Si Si6 0.479541 0.967408 0.943204
O O1 0.500000 0.571314 0.750000
O O2 0.648686 0.469759 0.493265
O O3 0.703931 0.580843 0.356339
O O4 0.831781 0.556933 0.320017
O O5 0.115949 0.760723 0.764869
O O6 0.295714 0.835434 0.448557
O O7 0.242461 0.866680 0.664568
O O8 0.001624 0.880567 0.890555
O O9 0.279178 0.344057 0.091941
O O10 0.171079 0.415691 0.348148
O O11 0.028945 0.644355 0.538816
O O12 0.584765 0.971105 0.019461
O O13 0.500000 0.000000 0.000000
#
# Coordination Sequence:
#
# PCOD9258530 Si02
#       6
#     8   8   8   8   8   8
#     4  10  18  33  59  75  93 139 182 210 262 322
#     4  11  23  28  52  81 107 140 171 212 248 315
#     4  10  18  34  52  73 105 139 173 208 260 319
#     4  11  19  36  48  75 111 145 172 193 261 325
#     4  10  19  35  50  76 108 130 174 222 256 299
#     4   8  16  32  54  70  97 135 171 210 265 308
#
# _framework density 16.656416
#
# number of rings (size 3 to 8) (size 9 to 14) (size 15 to 20)
#    0.000    2.333    5.000    3.000    0.000    5.333 
#    0.000    0.000    0.000    1.000    0.000    0.000 
#    0.000    0.000    0.000    0.000    0.000    0.000 
#
# Total GULP energy -133673.681067 kJ/mol
# GULP energy per Si atom -5569.736711 kJ/mol
# Density = 1.661851 g / cm^3
# Si number density = 16.656416 Si / 1000 Ang^3
#
#
#
# Elastic Constant Matrix: (Units=GPa)
#
#
# Indices 1 2 3 4 5 6 
#
# 1 50.8699 18.2489 25.7973 0.0042 -10.6164 -0.0023
# 2 18.2489 59.8532 22.7586 -0.0021 8.9276 -0.0021
# 3 25.7973 22.7586 102.4351 0.0063 2.5673 -0.0052
# 4 0.0042 -0.0021 0.0063 15.7642 -0.0062 2.0640
# 5 -10.6164 8.9276 2.5673 -0.0062 15.2386 0.0060
# 6 -0.0023 -0.0021 -0.0052 2.0640 0.0060 24.9318
#
#
#
# Elastic Compliance Matrix: (Units=1/GPa)
#
#
# Indices 1 2 3 4 5 6 
#
# 1 0.034446 -0.012847 -0.006639 0.000006 0.032642 -0.000008
# 2 -0.012847 0.024714 -0.001675 -0.000002 -0.023147 0.000006
# 3 -0.006639 -0.001675 0.011948 -0.000006 -0.005656 0.000004
# 4 0.000006 -0.000002 -0.000006 0.064130 0.000034 -0.005309
# 5 0.032642 -0.023147 -0.005656 0.000034 0.102877 -0.000028
# 6 -0.000008 0.000006 0.000004 -0.005309 -0.000028 0.040549
#
#
# Mechanical properties :
#
#
# Convention : Reuss Voigt Hill
#
# Bulk Modulus (GPa) = 34.73908 38.52977 36.63442
# Shear Modulus (GPa) = 15.12490 20.94382 18.03436
#
# Velocity S-wave (km/s) = 3.01666 3.54983 3.29405
# Velocity P-wave (km/s) = 5.74763 6.32330 6.04232
#
# Compressibility (1/GPa) = 0.02878603
#
# Stress axis : x y z
#
# Youngs Moduli (GPa) = 29.03134 40.46284 83.69496
#
# Poissons Ratio (x) = 0.51982 0.55562
# Poissons Ratio (y) = 0.37296 0.14022
# Poissons Ratio (z) = 0.19273 0.06779
#
# Static dielectric constant tensor:
#      x y z
#    x 1.561400 0.000000 0.003600 
#    y 0.000000 1.576680 0.000010 
#    z 0.003600 0.000010 1.617660 
# 
# From -- ./inp_files/63313.got.cif
#   From: 2010.05.17/outbox.cif.g08.bks.cpg/sg15_32_cif.got.tgz:63313.got - 2010.06.03 18:47:42.
