data_PCOD9258121
_publ_section_title
;
Structure prediction by ZEFSAII (Michael W. Deem and Ramdas Pophale) SiO2 
 PCOD9258121
Probable space group: C 2/C
;
_chemical_formula_sum "Si O2"
_cell_formula_units_Z 52
_cell_length_a 21.429257
_cell_length_b 10.068190
_cell_length_c 25.659167
_cell_angle_alpha 90.000000
_cell_angle_beta 23.786071
_cell_angle_gamma 90.000000
_cell_volume 2232.820949
_symmetry_space_group_name_H-M "C 2/C"
_symmetry_group_IT_number 15
_symmetry_cell_setting 'monoclinic'
loop_
_space_group_symop_operation_xyz
x,y,z
-x,y,1/2-z
-x,-y,-z
x,-y,1/2+z
1/2+x,1/2+y,z
1/2-x,1/2+y,1/2-z
1/2-x,1/2-y,-z
1/2+x,1/2-y,1/2+z
loop_
_atom_site_type_symbol
_atom_site_label
_atom_site_fract_x
_atom_site_fract_y
_atom_site_fract_z
Si Si1 0.711176 0.718974 0.230940
Si Si2 0.000000 0.056965 0.250000
Si Si3 0.188715 0.698130 0.639388
Si Si4 0.058563 0.534655 0.821256
Si Si5 0.948919 0.012185 0.401365
Si Si6 0.482854 0.114660 0.470285
Si Si7 0.114207 0.897304 0.944907
O O1 0.783141 0.761539 0.119714
O O2 0.614118 0.849210 0.318099
O O3 0.593920 0.601872 0.307837
O O4 0.843910 0.674337 0.167099
O O5 0.862024 0.164279 0.347095
O O6 0.974216 0.975523 0.322208
O O7 0.042397 0.619397 0.779138
O O8 0.297013 0.605460 0.522641
O O9 0.941245 0.447339 0.945207
O O10 0.212413 0.451356 0.691189
O O11 0.933858 0.904351 0.457516
O O12 0.390360 0.240890 0.562569
O O13 0.500000 0.000000 0.500000
O O14 0.000000 0.000000 0.000000
#
# Coordination Sequence:
#
# PCOD9258121 Si02
#       7
#     8   4   8   8   8   8   8
#     4   9  20  33  53  81 117 149 191 239 279 345
#     4  10  18  32  60  90 110 144 202 248 282 350
#     4   8  18  34  54  81 113 145 186 250 291 331
#     4   9  21  35  53  79 118 146 196 234 293 337
#     4  10  19  34  57  83 118 151 193 241 298 330
#     4  12  25  33  57  86 115 159 201 231 282 353
#     4  11  21  37  57  77 119 158 182 238 294 337
#
# _framework density 23.288924000000002
#
# number of rings (size 3 to 8) (size 9 to 14) (size 15 to 20)
#    0.923    1.231    1.538    1.385    6.462    0.000 
#    0.000    0.000    0.000    0.923    0.000    8.615 
#    0.000    0.000    0.000    0.000    0.000    0.000 
#
# Total GULP energy -144814.565108 kJ/mol
# GULP energy per Si atom -5569.790966 kJ/mol
# Density = 2.323592 g / cm^3
# Si number density = 23.288924 Si / 1000 Ang^3
#
#
#
# Elastic Constant Matrix: (Units=GPa)
#
#
# Indices 1 2 3 4 5 6 
#
# 1 60.6533 6.8847 16.6925 -0.0003 30.6156 -0.0002
# 2 6.8847 76.6347 0.5816 -0.0003 15.9639 -0.0004
# 3 16.6925 0.5816 44.6085 -0.0013 26.6415 -0.0005
# 4 -0.0003 -0.0003 -0.0013 33.6951 0.0005 13.1230
# 5 30.6156 15.9639 26.6415 0.0005 42.9672 0.0000
# 6 -0.0002 -0.0004 -0.0005 13.1230 0.0000 27.0980
#
#
#
# Elastic Compliance Matrix: (Units=1/GPa)
#
#
# Indices 1 2 3 4 5 6 
#
# 1 0.026148 0.002030 0.002806 0.000001 -0.021125 0.000000
# 2 0.002030 0.014948 0.005123 0.000000 -0.010177 0.000000
# 3 0.002806 0.005123 0.037528 0.000002 -0.027172 0.000000
# 4 0.000001 0.000000 0.000002 0.036577 -0.000002 -0.017713
# 5 -0.021125 -0.010177 -0.027172 -0.000002 0.058955 0.000000
# 6 0.000000 0.000000 0.000000 -0.017713 0.000000 0.045481
#
#
# Mechanical properties :
#
#
# Convention : Reuss Voigt Hill
#
# Bulk Modulus (GPa) = 10.14795 25.57934 17.86364
# Shear Modulus (GPa) = 21.49934 31.26792 26.38363
#
# Velocity S-wave (km/s) = 3.04165 3.66814 3.36948
# Velocity P-wave (km/s) = 4.08685 5.38030 4.77755
#
# Compressibility (1/GPa) = 0.09854207
#
# Stress axis : x y z
#
# Youngs Moduli (GPa) = 38.24425 66.90030 26.64648
#
# Poissons Ratio (x) = -0.13582 -0.07476
# Poissons Ratio (y) = -0.07765 -0.13652
# Poissons Ratio (z) = -0.10730 -0.34275
#
# Static dielectric constant tensor:
#      x y z
#    x 1.916560 0.000000 0.008650 
#    y 0.000000 1.940290 0.000000 
#    z 0.008650 0.000000 1.976600 
# 
# From -- ./inp_files/301981.got.cif
#   From: 2010.05.17/outbox.cif.g08.bks.cpg/sg15_151_cif.got.tgz:301981.got - 2010.06.03 18:47:42.
