data_PCOD9258205
_publ_section_title
;
Structure prediction by ZEFSAII (Michael W. Deem and Ramdas Pophale) SiO2 
 PCOD9258205
Probable space group: C 2/C
;
_chemical_formula_sum "Si O2"
_cell_formula_units_Z 40
_cell_length_a 24.004251
_cell_length_b 6.592774
_cell_length_c 9.024396
_cell_angle_alpha 90.000000
_cell_angle_beta 101.162424
_cell_angle_gamma 90.000000
_cell_volume 1401.134882
_symmetry_space_group_name_H-M "C 2/C"
_symmetry_group_IT_number 15
_symmetry_cell_setting 'monoclinic'
loop_
_space_group_symop_operation_xyz
x,y,z
-x,y,1/2-z
-x,-y,-z
x,-y,1/2+z
1/2+x,1/2+y,z
1/2-x,1/2+y,1/2-z
1/2-x,1/2-y,-z
1/2+x,1/2-y,1/2+z
loop_
_atom_site_type_symbol
_atom_site_label
_atom_site_fract_x
_atom_site_fract_y
_atom_site_fract_z
Si Si1 0.167521 0.884950 0.843343
Si Si2 0.463979 0.714223 0.577179
Si Si3 0.631133 0.855762 0.788126
Si Si4 0.569801 0.744593 0.463366
Si Si5 0.255278 0.438918 0.892556
O O1 0.210856 0.860869 0.731254
O O2 0.148649 0.119756 0.816868
O O3 0.108903 0.238193 0.336269
O O4 0.205325 0.890698 0.012678
O O5 0.500000 0.673833 0.750000
O O6 0.582233 0.874367 0.887945
O O7 0.503568 0.788898 0.462187
O O8 0.435042 0.503941 0.511422
O O9 0.603506 0.851317 0.613369
O O10 0.689141 0.982878 0.828663
O O11 0.250000 0.250000 0.000000
#
# Coordination Sequence:
#
# PCOD9258205 Si02
#       5
#     8   8   8   8   8
#     4  10  18  33  50  72 108 135 172 213 253 306
#     4   8  15  26  46  73 104 136 163 207 265 310
#     4   9  17  30  48  74 105 138 169 207 254 308
#     4   9  15  27  48  74 103 136 164 208 265 312
#     4  10  21  34  51  73 107 141 173 210 256 310
#
# _framework density 28.548289
#
# number of rings (size 3 to 8) (size 9 to 14) (size 15 to 20)
#    0.000    2.800    2.000    0.000    0.000    0.800 
#    0.000    0.000    0.000    0.000    0.000   12.600 
#    0.000    0.200    0.000    0.000    0.000    0.000 
#
# Total GULP energy -111890.565874 kJ/mol
# GULP energy per Si atom -5594.528294 kJ/mol
# Density = 2.848331 g / cm^3
# Si number density = 28.548289 Si / 1000 Ang^3
#
#
#
# Elastic Constant Matrix: (Units=GPa)
#
#
# Indices 1 2 3 4 5 6 
#
# 1 286.3143 26.6796 79.3520 0.0000 -53.0773 0.0000
# 2 26.6796 34.6899 26.6649 0.0000 2.5074 0.0000
# 3 79.3520 26.6649 124.1158 0.0000 2.9117 0.0000
# 4 0.0000 0.0000 0.0000 46.1657 0.0000 2.4646
# 5 -53.0773 2.5074 2.9117 0.0000 57.3041 0.0000
# 6 0.0000 0.0000 0.0000 2.4646 0.0000 68.0415
#
#
#
# Elastic Compliance Matrix: (Units=1/GPa)
#
#
# Indices 1 2 3 4 5 6 
#
# 1 0.005608 -0.002220 -0.003236 0.000000 0.005456 0.000000
# 2 -0.002220 0.035481 -0.006126 0.000000 -0.003297 0.000000
# 3 -0.003236 -0.006126 0.011520 0.000000 -0.003315 0.000000
# 4 0.000000 0.000000 0.000000 0.021703 0.000000 -0.000786
# 5 0.005456 -0.003297 -0.003315 0.000000 0.022817 0.000000
# 6 0.000000 0.000000 0.000000 -0.000786 0.000000 0.014725
#
#
# Mechanical properties :
#
#
# Convention : Reuss Voigt Hill
#
# Bulk Modulus (GPa) = 33.96214 78.94589 56.45401
# Shear Modulus (GPa) = 34.52219 55.13049 44.82634
#
# Velocity S-wave (km/s) = 3.48121 4.39923 3.96687
# Velocity P-wave (km/s) = 5.29912 7.31559 6.38743
#
# Compressibility (1/GPa) = 0.02944455
#
# Stress axis : x y z
#
# Youngs Moduli (GPa) = 178.32041 28.18383 86.80440
#
# Poissons Ratio (x) = 0.06256 0.28094
# Poissons Ratio (y) = 0.39579 0.53180
# Poissons Ratio (z) = 0.57713 0.17267
#
# Static dielectric constant tensor:
#      x y z
#    x 2.378960 0.000000 0.022880 
#    y 0.000000 2.413140 0.000000 
#    z 0.022880 0.000000 2.169640 
# 
# From -- ./inp_files/121185.got.cif
#   From: 2010.05.17/outbox.cif.g08.bks.cpg/sg15_61_cif.got.tgz:121185.got - 2010.06.03 18:47:42.
