data_PCOD9258477
_publ_section_title
;
Structure prediction by ZEFSAII (Michael W. Deem and Ramdas Pophale) SiO2 
 PCOD9258477
Probable space group: C 2/C
;
_chemical_formula_sum "Si O2"
_cell_formula_units_Z 48
_cell_length_a 12.865612
_cell_length_b 12.877884
_cell_length_c 11.426270
_cell_angle_alpha 90.000000
_cell_angle_beta 103.793529
_cell_angle_gamma 90.000000
_cell_volume 1838.530208
_symmetry_space_group_name_H-M "C 2/C"
_symmetry_group_IT_number 15
_symmetry_cell_setting 'monoclinic'
loop_
_space_group_symop_operation_xyz
x,y,z
-x,y,1/2-z
-x,-y,-z
x,-y,1/2+z
1/2+x,1/2+y,z
1/2-x,1/2+y,1/2-z
1/2-x,1/2-y,-z
1/2+x,1/2-y,1/2+z
loop_
_atom_site_type_symbol
_atom_site_label
_atom_site_fract_x
_atom_site_fract_y
_atom_site_fract_z
Si Si1 0.000000 0.451423 0.250000
Si Si2 0.700861 0.236424 0.143015
Si Si3 0.597841 0.478991 0.438380
Si Si4 0.364918 0.207639 0.861403
Si Si5 0.688938 0.926908 0.458309
Si Si6 0.036747 0.753561 0.381263
Si Si7 0.500000 0.365063 0.750000
O O1 0.088757 0.392554 0.191932
O O2 0.083779 0.479606 0.376721
O O3 0.749992 0.251376 0.285932
O O4 0.781410 0.315416 0.096478
O O5 0.580863 0.277078 0.096321
O O6 0.687189 0.119152 0.090318
O O7 0.500000 0.500000 0.500000
O O8 0.710545 0.497999 0.529798
O O9 0.587185 0.366791 0.378387
O O10 0.586827 0.563137 0.333473
O O11 0.445299 0.295470 0.833110
O O12 0.388129 0.198796 0.004336
O O13 0.000000 0.699721 0.250000
#
# Coordination Sequence:
#
# PCOD9258477 Si02
#       7
#     4   8   8   8   8   8   4
#     4   9  18  32  60  88 110 153 214 264 294 355
#     4  10  19  34  55  85 119 162 206 253 309 363
#     4  12  21  32  53  90 129 157 196 255 321 374
#     4  10  19  33  57  84 116 156 205 254 304 360
#     4  10  18  33  57  87 120 158 208 261 303 366
#     4  12  24  36  53  88 128 161 204 256 317 373
#     4  11  18  32  54  84 120 161 196 242 304 367
#
# _framework density 26.107813
#
# number of rings (size 3 to 8) (size 9 to 14) (size 15 to 20)
#    0.000    1.333    7.500    0.000    0.000    0.667 
#    0.000    0.000    0.000    0.000    6.500    4.667 
#    0.000    0.000    0.000    0.000    0.000    0.000 
#
# Total GULP energy -133952.124950 kJ/mol
# GULP energy per Si atom -5581.338540 kJ/mol
# Density = 2.604839 g / cm^3
# Si number density = 26.107813 Si / 1000 Ang^3
#
#
#
# Elastic Constant Matrix: (Units=GPa)
#
#
# Indices 1 2 3 4 5 6 
#
# 1 93.8797 24.7584 49.3615 0.0000 48.4647 0.0000
# 2 24.7584 42.3343 21.9305 0.0000 3.7810 0.0000
# 3 49.3615 21.9305 181.0811 0.0000 39.5876 0.0000
# 4 0.0000 0.0000 0.0000 3.5413 0.0000 -7.8783
# 5 48.4647 3.7810 39.5876 0.0000 62.3400 0.0000
# 6 0.0000 0.0000 0.0000 -7.8783 0.0000 8.9438
#
#
#
# Elastic Compliance Matrix: (Units=1/GPa)
#
#
# Indices 1 2 3 4 5 6 
#
# 1 0.022519 -0.011067 -0.001298 0.000000 -0.016011 0.000000
# 2 -0.011067 0.030654 -0.002520 0.000000 0.008345 0.000000
# 3 -0.001298 -0.002520 0.006883 0.000000 -0.003209 0.000000
# 4 0.000000 0.000000 0.000000 -0.294248 0.000000 -0.259194
# 5 -0.016011 0.008345 -0.003209 0.000000 0.030020 0.000000
# 6 0.000000 0.000000 0.000000 -0.259194 0.000000 -0.116508
#
#
# Mechanical properties :
#
#
# Convention : Reuss Voigt Hill
#
# Bulk Modulus (GPa) = 33.01903 56.59956 44.80929
# Shear Modulus (GPa) = -17.80540 29.71467 5.95464
#
# Velocity S-wave (km/s) = -2.61434 3.37731 1.51187
# Velocity P-wave (km/s) = 1.88723 6.07738 4.49979
#
# Compressibility (1/GPa) = 0.03028557
#
# Stress axis : x y z
#
# Youngs Moduli (GPa) = 44.40747 32.62203 145.28762
#
# Poissons Ratio (x) = 0.36104 0.18855
# Poissons Ratio (y) = 0.49147 0.36612
# Poissons Ratio (z) = 0.05763 0.08221
#
# Static dielectric constant tensor:
#      x y z
#    x 2.006990 0.000000 -0.055610 
#    y 0.000000 2.042720 0.000000 
#    z -0.055610 0.000000 2.193880 
# 
# From -- ./inp_files/87900.got.cif
#   From: 2010.05.17/outbox.cif.g08.bks.cpg/sg15_44_cif.got.tgz:87900.got - 2010.06.03 18:47:42.
