data_PCOD9258164
_publ_section_title
;
Structure prediction by ZEFSAII (Michael W. Deem and Ramdas Pophale) SiO2 
 PCOD9258164
Probable space group: C 2/C
;
_chemical_formula_sum "Si O2"
_cell_formula_units_Z 40
_cell_length_a 18.755862
_cell_length_b 5.275442
_cell_length_c 14.804238
_cell_angle_alpha 90.000000
_cell_angle_beta 95.488255
_cell_angle_gamma 90.000000
_cell_volume 1458.097215
_symmetry_space_group_name_H-M "C 2/C"
_symmetry_group_IT_number 15
_symmetry_cell_setting 'monoclinic'
loop_
_space_group_symop_operation_xyz
x,y,z
-x,y,1/2-z
-x,-y,-z
x,-y,1/2+z
1/2+x,1/2+y,z
1/2-x,1/2+y,1/2-z
1/2-x,1/2-y,-z
1/2+x,1/2-y,1/2+z
loop_
_atom_site_type_symbol
_atom_site_label
_atom_site_fract_x
_atom_site_fract_y
_atom_site_fract_z
Si Si1 0.431244 0.015944 0.428611
Si Si2 0.362713 0.486297 0.621852
Si Si3 0.189235 0.476882 0.796106
Si Si4 0.283483 0.863646 0.404226
Si Si5 0.980728 0.981841 0.851838
O O1 0.355496 0.942146 0.463879
O O2 0.434226 0.289798 0.384307
O O3 0.500000 0.000000 0.500000
O O4 0.443424 0.787592 0.359716
O O5 0.500000 0.517287 0.750000
O O6 0.289117 0.534150 0.557592
O O7 0.441185 0.481656 0.588702
O O8 0.350031 0.224670 0.672393
O O9 0.207761 0.496682 0.693008
O O10 0.261128 0.412498 0.862644
O O11 0.141808 0.229901 0.812765
#
# Coordination Sequence:
#
# PCOD9258164 Si02
#       5
#     8   8   8   8   8
#     4  12  28  46  67 101 148 186 219 277 363 428
#     4  10  20  35  60  94 123 161 224 286 321 381
#     4  10  18  32  62  96 124 160 230 278 329 372
#     4  10  21  36  65  91 131 175 225 273 332 414
#     4  12  25  45  71 103 136 180 235 291 340 398
#
# _framework density 27.433012000000002
#
# number of rings (size 3 to 8) (size 9 to 14) (size 15 to 20)
#    1.200    0.000    2.000    4.800    2.800    0.000 
#    0.000    2.000    0.000    0.000    0.000    0.000 
#    0.000    0.000    0.000    0.000    0.000    0.000 
#
# Total GULP energy -111995.847202 kJ/mol
# GULP energy per Si atom -5599.792360 kJ/mol
# Density = 2.737057 g / cm^3
# Si number density = 27.433012 Si / 1000 Ang^3
#
#
#
# Elastic Constant Matrix: (Units=GPa)
#
#
# Indices 1 2 3 4 5 6 
#
# 1 178.9623 39.6837 0.7222 0.0000 28.7358 0.0000
# 2 39.6837 172.6905 -12.9717 0.0000 -26.0238 0.0000
# 3 0.7222 -12.9717 75.1009 0.0000 1.9627 0.0000
# 4 0.0000 0.0000 0.0000 -0.2671 0.0000 -11.1347
# 5 28.7358 -26.0238 1.9627 0.0000 52.9529 0.0000
# 6 0.0000 0.0000 0.0000 -11.1347 0.0000 47.3065
#
#
#
# Elastic Compliance Matrix: (Units=1/GPa)
#
#
# Indices 1 2 3 4 5 6 
#
# 1 0.006893 -0.002345 -0.000344 0.000000 -0.004880 0.000000
# 2 -0.002345 0.007128 0.001130 0.000000 0.004734 0.000000
# 3 -0.000344 0.001130 0.013508 0.000000 0.000241 0.000000
# 4 0.000000 0.000000 0.000000 -0.346269 0.000000 -0.081502
# 5 -0.004880 0.004734 0.000241 0.000000 0.023851 0.000000
# 6 0.000000 0.000000 0.000000 -0.081502 0.000000 0.001955
#
#
# Mechanical properties :
#
#
# Convention : Reuss Voigt Hill
#
# Bulk Modulus (GPa) = 40.96648 53.51357 47.24003
# Shear Modulus (GPa) = -17.75063 46.61976 14.43456
#
# Velocity S-wave (km/s) = -2.54648 4.12685 2.29634
# Velocity P-wave (km/s) = 2.51388 6.50056 4.92833
#
# Compressibility (1/GPa) = 0.02441020
#
# Stress axis : x y z
#
# Youngs Moduli (GPa) = 145.07835 140.29430 74.03245
#
# Poissons Ratio (x) = 0.32902 0.02545
# Poissons Ratio (y) = 0.34024 -0.08366
# Poissons Ratio (z) = 0.04988 -0.15853
#
# Static dielectric constant tensor:
#      x y z
#    x 2.201120 0.000000 0.127810 
#    y 0.000000 2.078000 0.000000 
#    z 0.127810 0.000000 2.260020 
# 
# From -- ./inp_files/271970.got.cif
#   From: 2010.05.17/outbox.cif.g08.bks.cpg/sg15_136_cif.got.tgz:271970.got - 2010.06.03 18:47:42.
