data_PCOD9258777
_publ_section_title
;
Structure prediction by ZEFSAII (Michael W. Deem and Ramdas Pophale) SiO2 
 PCOD9258777
Probable space group: C 2/C
;
_chemical_formula_sum "Si O2"
_cell_formula_units_Z 52
_cell_length_a 28.625296
_cell_length_b 17.970316
_cell_length_c 12.316339
_cell_angle_alpha 90.000000
_cell_angle_beta 152.874951
_cell_angle_gamma 90.000000
_cell_volume 2888.613025
_symmetry_space_group_name_H-M "C 2/C"
_symmetry_group_IT_number 15
_symmetry_cell_setting 'monoclinic'
loop_
_space_group_symop_operation_xyz
x,y,z
-x,y,1/2-z
-x,-y,-z
x,-y,1/2+z
1/2+x,1/2+y,z
1/2-x,1/2+y,1/2-z
1/2-x,1/2-y,-z
1/2+x,1/2-y,1/2+z
loop_
_atom_site_type_symbol
_atom_site_label
_atom_site_fract_x
_atom_site_fract_y
_atom_site_fract_z
Si Si1 0.616685 0.618631 0.965464
Si Si2 0.792794 0.866935 0.615255
Si Si3 0.620899 0.481762 0.266832
Si Si4 0.879677 0.263349 0.661552
Si Si5 0.416010 0.780149 0.304825
Si Si6 0.500000 0.733105 0.250000
Si Si7 0.826409 0.157152 0.758282
O O1 0.500000 0.599321 0.750000
O O2 0.644199 0.565493 0.922912
O O3 0.619132 0.704455 0.933046
O O4 0.683070 0.612908 0.210114
O O5 0.678697 0.835106 0.373142
O O6 0.871517 0.802263 0.739967
O O7 0.817858 0.941551 0.602760
O O8 0.654376 0.426963 0.238558
O O9 0.500000 0.500000 0.000000
O O10 0.853462 0.211241 0.712020
O O11 0.790918 0.323158 0.459194
O O12 0.990295 0.295496 0.919961
O O13 0.459114 0.778789 0.270250
O O14 0.594789 0.682811 0.486368
#
# Coordination Sequence:
#
# PCOD9258777 Si02
#       7
#     8   8   8   8   8   4   8
#     4  11  19  34  58  79 111 151 179 223 286 340
#     4  11  22  37  55  86 114 149 187 237 285 328
#     4  11  21  35  53  83 114 147 183 232 286 336
#     4   9  17  35  54  79 103 145 187 227 270 330
#     4  10  21  36  58  81 113 145 192 236 278 331
#     4  10  18  34  54  86 110 144 184 236 278 334
#     4   9  19  31  54  79 109 138 184 229 275 328
#
# _framework density 18.001719000000001
#
# number of rings (size 3 to 8) (size 9 to 14) (size 15 to 20)
#    0.000    1.846    3.077    2.769    0.000    3.692 
#    1.385    0.769    0.000    0.000    0.000    0.000 
#    0.000    0.000    0.000    0.000    0.000    0.000 
#
# Total GULP energy -145083.423900 kJ/mol
# GULP energy per Si atom -5580.131688 kJ/mol
# Density = 1.796075 g / cm^3
# Si number density = 18.001719 Si / 1000 Ang^3
#
#
#
# Elastic Constant Matrix: (Units=GPa)
#
#
# Indices 1 2 3 4 5 6 
#
# 1 54.5663 26.2378 23.8870 0.0000 5.8008 0.0000
# 2 26.2378 97.8230 52.6111 0.0000 14.2505 0.0000
# 3 23.8870 52.6111 111.5895 0.0000 26.7661 0.0000
# 4 0.0000 0.0000 0.0000 108.3997 0.0000 -9.0024
# 5 5.8008 14.2505 26.7661 0.0000 23.3535 0.0000
# 6 0.0000 0.0000 0.0000 -9.0024 0.0000 30.0930
#
#
#
# Elastic Compliance Matrix: (Units=1/GPa)
#
#
# Indices 1 2 3 4 5 6 
#
# 1 0.021562 -0.004430 -0.002608 0.000000 0.000336 0.000000
# 2 -0.004430 0.014635 -0.005618 0.000000 -0.001391 0.000000
# 3 -0.002608 -0.005618 0.015434 0.000000 -0.013613 0.000000
# 4 0.000000 0.000000 0.000000 0.009460 0.000000 0.002830
# 5 0.000336 -0.001391 -0.013613 0.000000 0.059188 0.000000
# 6 0.000000 0.000000 0.000000 0.002830 0.000000 0.034077
#
#
# Mechanical properties :
#
#
# Convention : Reuss Voigt Hill
#
# Bulk Modulus (GPa) = 37.99451 52.16118 45.07784
# Shear Modulus (GPa) = 26.53371 43.11876 34.82624
#
# Velocity S-wave (km/s) = 3.84338 4.89945 4.40319
# Velocity P-wave (km/s) = 6.39119 7.81311 7.13764
#
# Compressibility (1/GPa) = 0.02631959
#
# Stress axis : x y z
#
# Youngs Moduli (GPa) = 46.37740 68.33029 64.79383
#
# Poissons Ratio (x) = 0.30269 0.16896
# Poissons Ratio (y) = 0.20544 0.36401
# Poissons Ratio (z) = 0.12094 0.38388
#
# Static dielectric constant tensor:
#      x y z
#    x 1.857000 0.000000 -0.095880 
#    y 0.000000 1.599330 0.000000 
#    z -0.095880 0.000000 1.647430 
# 
# From -- ./inp_files/123870.got.cif
#   From: 2010.05.17/outbox.cif.g08.bks.cpg/sg15_62_cif.got.tgz:123870.got - 2010.06.03 18:47:42.
