data_PCOD9258542
_publ_section_title
;
Structure prediction by ZEFSAII (Michael W. Deem and Ramdas Pophale) SiO2 
 PCOD9258542
Probable space group: C 2/C
;
_chemical_formula_sum "Si O2"
_cell_formula_units_Z 36
_cell_length_a 32.937790
_cell_length_b 7.035074
_cell_length_c 14.967366
_cell_angle_alpha 90.000000
_cell_angle_beta 25.579952
_cell_angle_gamma 90.000000
_cell_volume 1497.480368
_symmetry_space_group_name_H-M "C 2/C"
_symmetry_group_IT_number 15
_symmetry_cell_setting 'monoclinic'
loop_
_space_group_symop_operation_xyz
x,y,z
-x,y,1/2-z
-x,-y,-z
x,-y,1/2+z
1/2+x,1/2+y,z
1/2-x,1/2+y,1/2-z
1/2-x,1/2-y,-z
1/2+x,1/2-y,1/2+z
loop_
_atom_site_type_symbol
_atom_site_label
_atom_site_fract_x
_atom_site_fract_y
_atom_site_fract_z
Si Si1 0.500000 0.930662 0.250000
Si Si2 0.501871 0.172823 0.067136
Si Si3 0.192252 0.881029 0.681177
Si Si4 0.799612 0.587444 0.143242
Si Si5 0.703732 0.245916 0.986470
O O1 0.402487 0.813269 0.434690
O O2 0.482822 0.062996 0.369922
O O3 0.584285 0.323346 0.886444
O O4 0.729830 0.597677 0.590500
O O5 0.500000 0.000000 0.000000
O O6 0.250000 0.750000 0.500000
O O7 0.226349 0.840855 0.714154
O O8 0.900463 0.773253 0.270113
O O9 0.817958 0.386300 0.059132
O O10 0.761564 0.592272 0.319814
#
# Coordination Sequence:
#
# PCOD9258542 Si02
#       5
#     4   8   8   8   8
#     4  10  20  36  60  78 120 162 196 246 312 362
#     4  11  19  36  62  84 113 160 205 238 306 370
#     4  10  18  33  59  85 116 149 203 251 295 363
#     4   9  19  36  54  83 115 149 203 244 298 357
#     4   9  20  35  56  84 114 153 196 244 298 351
#
# _framework density 24.040382999999999
#
# number of rings (size 3 to 8) (size 9 to 14) (size 15 to 20)
#    1.333    0.889    2.222    2.667    0.000    0.000 
#    4.000    1.111    0.000    2.667    0.000    0.000 
#    0.000    0.000    0.000    0.000    0.000    0.000 
#
# Total GULP energy -100290.771821 kJ/mol
# GULP energy per Si atom -5571.709546 kJ/mol
# Density = 2.398567 g / cm^3
# Si number density = 24.040383 Si / 1000 Ang^3
#
#
#
# Elastic Constant Matrix: (Units=GPa)
#
#
# Indices 1 2 3 4 5 6 
#
# 1 62.7387 8.6317 24.3572 0.0000 -23.8465 0.0000
# 2 8.6317 73.8421 51.2183 0.0000 -12.1194 0.0000
# 3 24.3572 51.2183 204.9961 0.0000 -40.2979 0.0000
# 4 0.0000 0.0000 0.0000 34.2034 0.0000 -19.2454
# 5 -23.8465 -12.1194 -40.2979 0.0000 40.4882 0.0000
# 6 0.0000 0.0000 0.0000 -19.2454 0.0000 -19.3068
#
#
#
# Elastic Compliance Matrix: (Units=1/GPa)
#
#
# Indices 1 2 3 4 5 6 
#
# 1 0.020550 -0.000454 0.000030 0.000000 0.011998 0.000000
# 2 -0.000454 0.016426 -0.003899 0.000000 0.000769 0.000000
# 3 0.000030 -0.003899 0.006991 0.000000 0.005808 0.000000
# 4 0.000000 0.000000 0.000000 0.018731 0.000000 -0.018671
# 5 0.011998 0.000769 0.005808 0.000000 0.037776 0.000000
# 6 0.000000 0.000000 0.000000 -0.018671 0.000000 -0.033183
#
#
# Mechanical properties :
#
#
# Convention : Reuss Voigt Hill
#
# Bulk Modulus (GPa) = 28.31173 56.66571 42.48872
# Shear Modulus (GPa) = 57.00633 28.23495 42.62064
#
# Velocity S-wave (km/s) = 4.87486 3.43079 4.21512
# Velocity P-wave (km/s) = 6.59454 6.27024 6.43443
#
# Compressibility (1/GPa) = 0.03532105
#
# Stress axis : x y z
#
# Youngs Moduli (GPa) = 48.66165 60.87884 143.05100
#
# Poissons Ratio (x) = 0.02764 -0.00432
# Poissons Ratio (y) = 0.02209 0.55775
# Poissons Ratio (z) = -0.00147 0.23737
#
# Static dielectric constant tensor:
#      x y z
#    x 2.055630 0.000000 0.049260 
#    y 0.000000 2.122340 0.000000 
#    z 0.049260 0.000000 1.878710 
# 
# From -- ./inp_files/180679.got.cif
#   From: 2010.05.17/outbox.cif.g08.bks.cpg/sg15_91_cif.got.tgz:180679.got - 2010.06.03 18:47:42.
