data_PCOD9258718
_publ_section_title
;
Structure prediction by ZEFSAII (Michael W. Deem and Ramdas Pophale) SiO2 
 PCOD9258718
Probable space group: C 2/C
;
_chemical_formula_sum "Si O2"
_cell_formula_units_Z 44
_cell_length_a 12.263111
_cell_length_b 14.085608
_cell_length_c 20.383884
_cell_angle_alpha 90.000000
_cell_angle_beta 38.626095
_cell_angle_gamma 90.000000
_cell_volume 2197.918776
_symmetry_space_group_name_H-M "C 2/C"
_symmetry_group_IT_number 15
_symmetry_cell_setting 'monoclinic'
loop_
_space_group_symop_operation_xyz
x,y,z
-x,y,1/2-z
-x,-y,-z
x,-y,1/2+z
1/2+x,1/2+y,z
1/2-x,1/2+y,1/2-z
1/2-x,1/2-y,-z
1/2+x,1/2-y,1/2+z
loop_
_atom_site_type_symbol
_atom_site_label
_atom_site_fract_x
_atom_site_fract_y
_atom_site_fract_z
Si Si1 0.074219 0.614672 0.427621
Si Si2 0.684033 0.789976 0.195071
Si Si3 0.650859 0.787042 0.352215
Si Si4 0.241986 0.018013 0.561959
Si Si5 0.500000 0.342561 0.250000
Si Si6 0.847981 0.842176 0.986611
O O1 0.191320 0.700694 0.347792
O O2 0.200147 0.534020 0.397390
O O3 0.969356 0.656219 0.539906
O O4 0.919092 0.572340 0.456591
O O5 0.500000 0.757926 0.250000
O O6 0.650452 0.836597 0.281164
O O7 0.777469 0.849107 0.093933
O O8 0.843533 0.784005 0.291041
O O9 0.550364 0.687606 0.391419
O O10 0.187479 0.935615 0.538222
O O11 0.090621 0.091126 0.652186
O O12 0.750000 0.750000 0.000000
#
# Coordination Sequence:
#
# PCOD9258718 Si02
#       6
#     8   8   8   8   4   8
#     4   9  19  32  52  88 111 145 184 241 272 329
#     4  11  18  31  60  85 110 148 191 234 285 326
#     4  10  20  38  53  84 120 146 191 233 280 337
#     4  10  18  34  53  81 118 139 189 232 280 325
#     4  10  24  36  58  82 116 156 186 230 284 342
#     4  11  19  33  55  88 116 144 190 238 276 333
#
# _framework density 20.018937000000001
#
# number of rings (size 3 to 8) (size 9 to 14) (size 15 to 20)
#    0.000    1.818    5.455    0.000    3.818    0.000 
#    0.000    9.091    0.000    0.000    4.727    0.000 
#    0.000    0.000    0.000    0.000    0.000    0.000 
#
# Total GULP energy -122719.456211 kJ/mol
# GULP energy per Si atom -5578.157100 kJ/mol
# Density = 1.997337 g / cm^3
# Si number density = 20.018937 Si / 1000 Ang^3
#
#
#
# Elastic Constant Matrix: (Units=GPa)
#
#
# Indices 1 2 3 4 5 6 
#
# 1 109.9518 47.4116 56.2125 0.0000 -22.8060 0.0000
# 2 47.4116 63.9650 25.6430 -0.0001 -18.1490 0.0000
# 3 56.2125 25.6430 102.6404 -0.0006 -9.6211 0.0001
# 4 0.0000 -0.0001 -0.0006 5.1598 0.0001 -7.1920
# 5 -22.8060 -18.1490 -9.6211 0.0001 41.7234 0.0000
# 6 0.0000 0.0000 0.0001 -7.1920 0.0000 41.4674
#
#
#
# Elastic Compliance Matrix: (Units=1/GPa)
#
#
# Indices 1 2 3 4 5 6 
#
# 1 0.017275 -0.008927 -0.006858 -0.000001 0.003978 0.000000
# 2 -0.008927 0.024036 -0.000607 0.000001 0.005436 0.000000
# 3 -0.006858 -0.000607 0.013567 0.000002 -0.000884 0.000000
# 4 -0.000001 0.000001 0.000002 0.255595 -0.000001 0.044330
# 5 0.003978 0.005436 -0.000884 -0.000001 0.028303 0.000000
# 6 0.000000 0.000000 0.000000 0.044330 0.000000 0.031804
#
#
# Mechanical properties :
#
#
# Convention : Reuss Voigt Hill
#
# Bulk Modulus (GPa) = 45.25729 59.45462 52.35596
# Shear Modulus (GPa) = 12.17353 27.48946 19.83150
#
# Velocity S-wave (km/s) = 2.46865 3.70965 3.15085
# Velocity P-wave (km/s) = 5.54815 6.93631 6.28070
#
# Compressibility (1/GPa) = 0.02209589
#
# Stress axis : x y z
#
# Youngs Moduli (GPa) = 57.88565 41.60505 73.70634
#
# Poissons Ratio (x) = 0.37139 0.50548
# Poissons Ratio (y) = 0.51672 0.04471
# Poissons Ratio (z) = 0.39698 0.02524
#
# Static dielectric constant tensor:
#      x y z
#    x 1.742580 0.000000 -0.006330 
#    y 0.000000 1.730010 0.000000 
#    z -0.006330 0.000000 1.754390 
# 
# From -- ./inp_files/238600.got.cif
#   From: 2010.05.17/outbox.cif.g08.bks.cpg/sg15_120_cif.got.tgz:238600.got - 2010.06.03 18:47:42.
