data_PCOD9258494
_publ_section_title
;
Structure prediction by ZEFSAII (Michael W. Deem and Ramdas Pophale) SiO2 
 PCOD9258494
Probable space group: C 2/C
;
_chemical_formula_sum "Si O2"
_cell_formula_units_Z 56
_cell_length_a 10.694511
_cell_length_b 19.156895
_cell_length_c 15.134839
_cell_angle_alpha 90.000000
_cell_angle_beta 110.184302
_cell_angle_gamma 90.000000
_cell_volume 2910.306068
_symmetry_space_group_name_H-M "C 2/C"
_symmetry_group_IT_number 15
_symmetry_cell_setting 'monoclinic'
loop_
_space_group_symop_operation_xyz
x,y,z
-x,y,1/2-z
-x,-y,-z
x,-y,1/2+z
1/2+x,1/2+y,z
1/2-x,1/2+y,1/2-z
1/2-x,1/2-y,-z
1/2+x,1/2-y,1/2+z
loop_
_atom_site_type_symbol
_atom_site_label
_atom_site_fract_x
_atom_site_fract_y
_atom_site_fract_z
Si Si1 0.963978 0.394757 0.491476
Si Si2 0.609143 0.662933 0.200575
Si Si3 0.990591 0.961185 0.591838
Si Si4 0.703533 0.988020 0.481691
Si Si5 0.608879 0.907552 0.699790
Si Si6 0.739777 0.464402 0.212659
Si Si7 0.115080 0.328559 0.205480
O O1 0.833885 0.434361 0.496774
O O2 0.927260 0.342626 0.405502
O O3 0.072116 0.445168 0.472340
O O4 0.042712 0.373079 0.598228
O O5 0.500000 0.646701 0.250000
O O6 0.545166 0.618219 0.104235
O O7 0.753942 0.630327 0.246665
O O8 0.632991 0.745482 0.211046
O O9 0.089149 0.004993 0.680502
O O10 0.832077 0.961872 0.567393
O O11 0.000000 0.000000 0.500000
O O12 0.724862 0.979867 0.381854
O O13 0.500000 0.904452 0.750000
O O14 0.657072 0.988700 0.704840
O O15 0.767100 0.383665 0.242362
O O16 0.000000 0.344932 0.250000
#
# Coordination Sequence:
#
# PCOD9258494 Si02
#       7
#     8   8   8   8   8   8   8
#     4  11  21  33  60  91 119 153 201 254 298 364
#     4  10  23  42  61  87 128 163 200 249 308 368
#     4   9  20  37  62  87 117 159 203 252 302 357
#     4  10  18  33  57  96 116 148 210 248 298 357
#     4  11  21  39  63  87 118 158 204 254 305 354
#     4  10  18  36  62  85 121 157 197 257 304 352
#     4  11  22  40  58  91 126 158 201 253 306 362
#
# _framework density 19.241962999999998
#
# number of rings (size 3 to 8) (size 9 to 14) (size 15 to 20)
#    0.000    1.714    2.857    3.000    0.000    1.143 
#    5.143    4.286    0.000    0.000    0.000    0.000 
#    0.000    0.000    0.000    0.000    0.000    0.000 
#
# Total GULP energy -155943.121534 kJ/mol
# GULP energy per Si atom -5569.397198 kJ/mol
# Density = 1.919817 g / cm^3
# Si number density = 19.241963 Si / 1000 Ang^3
#
#
#
# Elastic Constant Matrix: (Units=GPa)
#
#
# Indices 1 2 3 4 5 6 
#
# 1 79.5521 37.3654 38.2489 0.0000 21.0845 0.0000
# 2 37.3654 95.3598 21.2660 0.0000 11.9221 0.0000
# 3 38.2489 21.2660 93.1661 0.0000 8.6688 0.0000
# 4 0.0000 0.0000 0.0000 23.2487 0.0000 -2.1036
# 5 21.0845 11.9221 8.6688 0.0000 37.1167 0.0000
# 6 0.0000 0.0000 0.0000 -2.1036 0.0000 10.8674
#
#
#
# Elastic Compliance Matrix: (Units=1/GPa)
#
#
# Indices 1 2 3 4 5 6 
#
# 1 0.020442 -0.005551 -0.006349 0.000000 -0.008347 0.000000
# 2 -0.005551 0.012899 -0.000586 0.000000 -0.000853 0.000000
# 3 -0.006349 -0.000586 0.013412 0.000000 0.000662 0.000000
# 4 0.000000 0.000000 0.000000 0.043780 0.000000 0.008475
# 5 -0.008347 -0.000853 0.000662 0.000000 0.031803 0.000000
# 6 0.000000 0.000000 0.000000 0.008475 0.000000 0.093659
#
#
# Mechanical properties :
#
#
# Convention : Reuss Voigt Hill
#
# Bulk Modulus (GPa) = 45.90921 51.31539 48.61230
# Shear Modulus (GPa) = 20.14287 25.65975 22.90131
#
# Velocity S-wave (km/s) = 3.23897 3.65572 3.45363
# Velocity P-wave (km/s) = 6.15618 6.67423 6.42044
#
# Compressibility (1/GPa) = 0.02178212
#
# Stress axis : x y z
#
# Youngs Moduli (GPa) = 48.91834 77.52579 74.55919
#
# Poissons Ratio (x) = 0.43032 0.47336
# Poissons Ratio (y) = 0.27153 0.04370
# Poissons Ratio (z) = 0.31057 0.04544
#
# Static dielectric constant tensor:
#      x y z
#    x 1.722180 0.000000 -0.024900 
#    y 0.000000 1.695950 0.000000 
#    z -0.024900 0.000000 1.716780 
# 
# From -- ./inp_files/146150.got.cif
#   From: 2010.05.17/outbox.cif.g08.bks.cpg/sg15_74_cif.got.tgz:146150.got - 2010.06.03 18:47:42.
