data_PCOD9258773
_publ_section_title
;
Structure prediction by ZEFSAII (Michael W. Deem and Ramdas Pophale) SiO2 
 PCOD9258773
Probable space group: C 2/C
;
_chemical_formula_sum "Si O2"
_cell_formula_units_Z 44
_cell_length_a 23.933372
_cell_length_b 5.906971
_cell_length_c 18.869953
_cell_angle_alpha 90.000000
_cell_angle_beta 116.533573
_cell_angle_gamma 90.000000
_cell_volume 2386.732573
_symmetry_space_group_name_H-M "C 2/C"
_symmetry_group_IT_number 15
_symmetry_cell_setting 'monoclinic'
loop_
_space_group_symop_operation_xyz
x,y,z
-x,y,1/2-z
-x,-y,-z
x,-y,1/2+z
1/2+x,1/2+y,z
1/2-x,1/2+y,1/2-z
1/2-x,1/2-y,-z
1/2+x,1/2-y,1/2+z
loop_
_atom_site_type_symbol
_atom_site_label
_atom_site_fract_x
_atom_site_fract_y
_atom_site_fract_z
Si Si1 0.898144 0.859172 0.636407
Si Si2 0.292341 0.061784 0.561460
Si Si3 0.994252 0.478576 0.116730
Si Si4 0.552532 0.699199 0.035700
Si Si5 0.000000 0.186031 0.750000
Si Si6 0.829558 0.829658 0.981356
O O1 0.845843 0.687419 0.636670
O O2 0.946491 0.700967 0.622264
O O3 0.861543 0.015332 0.559822
O O4 0.939764 0.024650 0.707305
O O5 0.250000 0.250000 0.500000
O O6 0.241783 0.906060 0.572557
O O7 0.323971 0.914050 0.516639
O O8 0.010227 0.652654 0.188130
O O9 0.046133 0.328090 0.106584
O O10 0.964258 0.627022 0.037071
O O11 0.500000 0.500000 0.000000
O O12 0.623956 0.639512 0.058186
#
# Coordination Sequence:
#
# PCOD9258773 Si02
#       6
#     8   8   8   8   4   8
#     4  11  19  35  52  81 123 150 195 241 297 357
#     4   9  19  31  54  81 119 147 186 241 287 344
#     4  11  22  33  54  82 124 154 188 244 303 362
#     4  11  20  35  56  85 125 147 185 247 309 354
#     4  12  22  34  52  80 128 152 200 238 296 378
#     4  10  18  34  54  84 121 145 192 242 300 349
#
# _framework density 18.435244999999998
#
# number of rings (size 3 to 8) (size 9 to 14) (size 15 to 20)
#    0.000    1.455    5.455    0.545    0.000    0.000 
#    0.000    0.000    0.000    0.000    0.000    0.000 
#  496.364    0.000    0.000    0.000    0.000    0.000 
#
# Total GULP energy -122555.665618 kJ/mol
# GULP energy per Si atom -5570.712074 kJ/mol
# Density = 1.839329 g / cm^3
# Si number density = 18.435245 Si / 1000 Ang^3
#
#
#
# Elastic Constant Matrix: (Units=GPa)
#
#
# Indices 1 2 3 4 5 6 
#
# 1 139.3028 45.3177 35.4277 0.0000 -0.1259 0.0000
# 2 45.3177 105.7787 34.4413 -0.0001 1.8068 0.0002
# 3 35.4277 34.4413 62.0947 0.0000 3.6177 0.0000
# 4 0.0000 -0.0001 0.0000 23.3115 0.0000 13.9047
# 5 -0.1259 1.8068 3.6177 0.0000 15.5530 0.0000
# 6 0.0000 0.0002 0.0000 13.9047 0.0000 33.4762
#
#
#
# Elastic Compliance Matrix: (Units=1/GPa)
#
#
# Indices 1 2 3 4 5 6 
#
# 1 0.008993 -0.002660 -0.003728 0.000000 0.001249 0.000000
# 2 -0.002660 0.012325 -0.005305 0.000000 -0.000219 0.000000
# 3 -0.003728 -0.005305 0.021430 0.000000 -0.004399 0.000000
# 4 0.000000 0.000000 0.000000 0.057025 0.000000 -0.023686
# 5 0.001249 -0.000219 -0.004399 0.000000 0.065355 0.000000
# 6 0.000000 0.000000 0.000000 -0.023686 0.000000 0.039710
#
#
# Mechanical properties :
#
#
# Convention : Reuss Voigt Hill
#
# Bulk Modulus (GPa) = 51.65143 59.72772 55.68958
# Shear Modulus (GPa) = 21.30554 27.26745 24.28649
#
# Velocity S-wave (km/s) = 3.40324 3.85007 3.63353
# Velocity P-wave (km/s) = 6.59707 7.22724 6.91933
#
# Compressibility (1/GPa) = 0.01936055
#
# Stress axis : x y z
#
# Youngs Moduli (GPa) = 111.19294 81.13856 46.66247
#
# Poissons Ratio (x) = 0.21586 0.17397
# Poissons Ratio (y) = 0.29581 0.24756
# Poissons Ratio (z) = 0.41456 0.43047
#
# Static dielectric constant tensor:
#      x y z
#    x 1.702220 0.000000 0.010290 
#    y 0.000000 1.703690 0.000000 
#    z 0.010290 0.000000 1.604370 
# 
# From -- ./inp_files/212841.got.cif
#   From: 2010.05.17/outbox.cif.g08.bks.cpg/sg15_107_cif.got.tgz:212841.got - 2010.06.03 18:47:42.
