data_PCOD9258502
_publ_section_title
;
Structure prediction by ZEFSAII (Michael W. Deem and Ramdas Pophale) SiO2 
 PCOD9258502
Probable space group: C 2/C
;
_chemical_formula_sum "Si O2"
_cell_formula_units_Z 48
_cell_length_a 15.229581
_cell_length_b 12.338522
_cell_length_c 23.368197
_cell_angle_alpha 90.000000
_cell_angle_beta 148.435190
_cell_angle_gamma 90.000000
_cell_volume 2298.592761
_symmetry_space_group_name_H-M "C 2/C"
_symmetry_group_IT_number 15
_symmetry_cell_setting 'monoclinic'
loop_
_space_group_symop_operation_xyz
x,y,z
-x,y,1/2-z
-x,-y,-z
x,-y,1/2+z
1/2+x,1/2+y,z
1/2-x,1/2+y,1/2-z
1/2-x,1/2-y,-z
1/2+x,1/2-y,1/2+z
loop_
_atom_site_type_symbol
_atom_site_label
_atom_site_fract_x
_atom_site_fract_y
_atom_site_fract_z
Si Si1 0.669584 0.544521 0.534666
Si Si2 0.142527 0.412347 0.651299
Si Si3 0.139323 0.643625 0.951481
Si Si4 0.139463 0.274456 0.284144
Si Si5 0.907445 0.634516 0.925476
Si Si6 0.200742 0.879105 0.648107
O O1 0.754735 0.550152 0.520035
O O2 0.746256 0.642483 0.616308
O O3 0.713133 0.436732 0.593740
O O4 0.471929 0.569165 0.422143
O O5 0.263755 0.318232 0.695492
O O6 0.189847 0.531447 0.654028
O O7 0.154939 0.407302 0.726460
O O8 0.965209 0.386981 0.522397
O O9 0.966728 0.657826 0.820898
O O10 0.080782 0.635699 0.983989
O O11 0.250000 0.750000 0.000000
O O12 0.000000 0.227652 0.250000
O O13 0.823043 0.750526 0.870840
#
# Coordination Sequence:
#
# PCOD9258502 Si02
#       6
#     8   8   8   8   8   8
#     4  10  21  34  58  88 115 147 199 245 300 349
#     4  11  22  35  55  85 118 158 193 250 304 358
#     4  11  18  35  57  88 116 147 195 254 295 344
#     4  10  18  33  58  83 113 147 198 250 296 341
#     4  11  22  36  57  85 122 154 200 247 303 356
#     4  11  21  36  57  87 120 157 195 247 300 363
#
# _framework density 20.882342999999999
#
# number of rings (size 3 to 8) (size 9 to 14) (size 15 to 20)
#    0.000    1.333    5.000    2.000    0.000    0.000 
#    0.000    0.000    0.000    9.000    0.000    0.000 
#    0.000    0.000    0.000    0.000    0.000    0.000 
#
# Total GULP energy -134030.477372 kJ/mol
# GULP energy per Si atom -5584.603224 kJ/mol
# Density = 2.083481 g / cm^3
# Si number density = 20.882343 Si / 1000 Ang^3
#
#
#
# Elastic Constant Matrix: (Units=GPa)
#
#
# Indices 1 2 3 4 5 6 
#
# 1 38.9897 16.1770 2.5065 0.0002 -2.9943 0.0000
# 2 16.1770 122.6648 5.3605 0.0005 -9.7417 0.0001
# 3 2.5065 5.3605 70.2371 0.0023 -28.2036 0.0004
# 4 0.0002 0.0005 0.0023 16.2296 0.0003 -0.4005
# 5 -2.9943 -9.7417 -28.2036 0.0003 28.6769 0.0000
# 6 0.0000 0.0001 0.0004 -0.4005 0.0000 32.0416
#
#
#
# Elastic Compliance Matrix: (Units=1/GPa)
#
#
# Indices 1 2 3 4 5 6 
#
# 1 0.027210 -0.003458 -0.000063 0.000000 0.001605 0.000000
# 2 -0.003458 0.008847 0.000843 0.000000 0.003473 0.000000
# 3 -0.000063 0.000843 0.023613 -0.000004 0.023503 0.000000
# 4 0.000000 0.000000 -0.000004 0.061635 -0.000005 0.000770
# 5 0.001605 0.003473 0.023503 -0.000005 0.059334 0.000000
# 6 0.000000 0.000000 0.000000 0.000770 0.000000 0.031219
#
#
# Mechanical properties :
#
#
# Convention : Reuss Voigt Hill
#
# Bulk Modulus (GPa) = 18.41137 31.10883 24.76010
# Shear Modulus (GPa) = 21.24776 29.24614 25.24695
#
# Velocity S-wave (km/s) = 3.19329 3.74641 3.48085
# Velocity P-wave (km/s) = 4.73624 5.80032 5.29507
#
# Compressibility (1/GPa) = 0.05431425
#
# Stress axis : x y z
#
# Youngs Moduli (GPa) = 36.75132 113.02773 42.34946
#
# Poissons Ratio (x) = 0.39088 0.00266
# Poissons Ratio (y) = 0.12710 -0.03570
# Poissons Ratio (z) = 0.00231 -0.09527
#
# Static dielectric constant tensor:
#      x y z
#    x 1.773750 0.000000 -0.022330 
#    y 0.000000 1.765780 0.000000 
#    z -0.022330 0.000000 1.801520 
# 
# From -- ./inp_files/151842.got.cif
#   From: 2010.05.17/outbox.cif.g08.bks.cpg/sg15_76_cif.got.tgz:151842.got - 2010.06.03 18:47:42.
