data_PCOD9258959
_publ_section_title
;
Structure prediction by ZEFSAII (Michael W. Deem and Ramdas Pophale) SiO2 
 PCOD9258959
Probable space group: C 2/C
;
_chemical_formula_sum "Si O2"
_cell_formula_units_Z 60
_cell_length_a 17.054137
_cell_length_b 21.972003
_cell_length_c 13.650713
_cell_angle_alpha 90.000000
_cell_angle_beta 32.474801
_cell_angle_gamma 90.000000
_cell_volume 2746.447448
_symmetry_space_group_name_H-M "C 2/C"
_symmetry_group_IT_number 15
_symmetry_cell_setting 'monoclinic'
loop_
_space_group_symop_operation_xyz
x,y,z
-x,y,1/2-z
-x,-y,-z
x,-y,1/2+z
1/2+x,1/2+y,z
1/2-x,1/2+y,1/2-z
1/2-x,1/2-y,-z
1/2+x,1/2-y,1/2+z
loop_
_atom_site_type_symbol
_atom_site_label
_atom_site_fract_x
_atom_site_fract_y
_atom_site_fract_z
Si Si1 0.335001 0.678507 0.906359
Si Si2 0.353456 0.425694 0.103735
Si Si3 0.695397 0.056119 0.269874
Si Si4 0.500000 0.444483 0.750000
Si Si5 0.158814 0.055821 0.671911
Si Si6 0.537839 0.004515 0.108832
Si Si7 0.181762 0.312615 0.353981
Si Si8 0.329147 0.807678 0.725240
O O1 0.500000 0.703900 0.750000
O O2 0.354992 0.605780 0.896539
O O3 0.257341 0.679968 0.882098
O O4 0.225578 0.700091 0.104937
O O5 0.298339 0.496222 0.156726
O O6 0.424527 0.426488 0.138802
O O7 0.234027 0.371891 0.238569
O O8 0.439345 0.412838 0.912222
O O9 0.596516 0.046562 0.278894
O O10 0.735491 0.126506 0.237903
O O11 0.584482 0.042149 0.476533
O O12 0.617457 0.490590 0.673061
O O13 0.326418 0.049239 0.524610
O O14 0.500000 0.972969 0.250000
O O15 0.256453 0.248509 0.243369
O O16 0.005831 0.307785 0.538107
#
# Coordination Sequence:
#
# PCOD9258959 Si02
#       8
#     8   8   8   4   8   8   8   8
#     4  11  21  37  62  93 129 170 209 251 317 388
#     4  10  23  41  64  94 127 164 215 265 324 376
#     4  10  21  37  64  91 120 160 208 260 317 373
#     4  12  20  38  60  90 128 170 204 268 320 378
#     4  10  21  33  56  96 130 160 202 261 315 386
#     4  10  18  34  57  92 123 155 199 259 318 372
#     4  11  25  42  61  90 131 169 215 264 315 392
#     4  12  23  41  63  89 127 173 211 260 320 375
#
# _framework density 21.846404
#
# number of rings (size 3 to 8) (size 9 to 14) (size 15 to 20)
#    0.000    1.333    0.667    7.600    0.000    0.000 
#    7.200    0.000    1.467    0.800    0.000    0.000 
#    0.000    0.000    0.000    0.000    0.000    0.000 
#
# Total GULP energy -167216.189463 kJ/mol
# GULP energy per Si atom -5573.872982 kJ/mol
# Density = 2.179668 g / cm^3
# Si number density = 21.846404 Si / 1000 Ang^3
#
#
#
# Elastic Constant Matrix: (Units=GPa)
#
#
# Indices 1 2 3 4 5 6 
#
# 1 49.3848 11.3571 37.0032 -0.0152 7.1817 0.0077
# 2 11.3571 134.9825 47.5359 -0.0145 -10.5917 0.0102
# 3 37.0032 47.5359 125.1460 -0.0132 8.0692 0.0104
# 4 -0.0152 -0.0145 -0.0132 29.1843 0.0132 0.4617
# 5 7.1817 -10.5917 8.0692 0.0132 48.9717 -0.0087
# 6 0.0077 0.0102 0.0104 0.4617 -0.0087 23.5122
#
#
#
# Elastic Compliance Matrix: (Units=1/GPa)
#
#
# Indices 1 2 3 4 5 6 
#
# 1 0.026348 0.000314 -0.007747 0.000012 -0.002520 -0.000006
# 2 0.000314 0.008847 -0.003612 0.000002 0.002463 -0.000001
# 3 -0.007747 -0.003612 0.011755 0.000000 -0.001582 -0.000002
# 4 0.000012 0.000002 0.000000 0.034276 -0.000011 -0.000673
# 5 -0.002520 0.002463 -0.001582 -0.000011 0.021583 0.000009
# 6 -0.000006 -0.000001 -0.000002 -0.000673 0.000009 0.042544
#
#
# Mechanical properties :
#
#
# Convention : Reuss Voigt Hill
#
# Bulk Modulus (GPa) = 40.22594 55.70066 47.96330
# Shear Modulus (GPa) = 28.45239 34.57477 31.51358
#
# Velocity S-wave (km/s) = 3.61277 3.98254 3.80215
# Velocity P-wave (km/s) = 5.98798 6.83369 6.42477
#
# Compressibility (1/GPa) = 0.02485958
#
# Stress axis : x y z
#
# Youngs Moduli (GPa) = 37.95287 113.02919 85.06659
#
# Poissons Ratio (x) = -0.03547 0.65905
# Poissons Ratio (y) = -0.01191 0.30727
# Poissons Ratio (z) = 0.29404 0.40828
#
# Static dielectric constant tensor:
#      x y z
#    x 1.869290 0.000000 -0.009930 
#    y 0.000000 1.900680 -0.000010 
#    z -0.009930 -0.000010 1.930720 
# 
# From -- ./inp_files/164087.got.cif
#   From: 2010.05.17/outbox.cif.g08.bks.cpg/sg15_83_cif.got.tgz:164087.got - 2010.06.03 18:47:42.
