data_PCOD9258197
_publ_section_title
;
Structure prediction by ZEFSAII (Michael W. Deem and Ramdas Pophale) SiO2 
 PCOD9258197
Probable space group: C 2/C
;
_chemical_formula_sum "Si O2"
_cell_formula_units_Z 48
_cell_length_a 13.966126
_cell_length_b 18.837384
_cell_length_c 9.410579
_cell_angle_alpha 90.000000
_cell_angle_beta 127.910546
_cell_angle_gamma 90.000000
_cell_volume 1953.322418
_symmetry_space_group_name_H-M "C 2/C"
_symmetry_group_IT_number 15
_symmetry_cell_setting 'monoclinic'
loop_
_space_group_symop_operation_xyz
x,y,z
-x,y,1/2-z
-x,-y,-z
x,-y,1/2+z
1/2+x,1/2+y,z
1/2-x,1/2+y,1/2-z
1/2-x,1/2-y,-z
1/2+x,1/2-y,1/2+z
loop_
_atom_site_type_symbol
_atom_site_label
_atom_site_fract_x
_atom_site_fract_y
_atom_site_fract_z
Si Si1 0.279445 0.685658 0.629797
Si Si2 0.851562 0.575975 0.538001
Si Si3 0.793613 0.280826 0.890533
Si Si4 0.835778 0.439962 0.349835
Si Si5 0.565546 0.561370 0.682784
Si Si6 0.908298 0.877197 0.788686
O O1 0.250000 0.750000 0.500000
O O2 0.334372 0.719448 0.824042
O O3 0.378425 0.627819 0.674631
O O4 0.331335 0.686996 0.287854
O O5 0.883014 0.652696 0.498023
O O6 0.887915 0.506184 0.484549
O O7 0.880329 0.569460 0.730028
O O8 0.704115 0.582858 0.391023
O O9 0.665053 0.135346 0.567959
O O10 0.750000 0.250000 0.000000
O O11 0.691077 0.458118 0.216933
O O12 0.500000 0.518000 0.750000
O O13 0.474957 0.580508 0.473291
O O14 0.000000 0.852500 0.750000
#
# Coordination Sequence:
#
# PCOD9258197 Si02
#       6
#     8   8   8   8   8   8
#     4  10  20  35  50  70 100 139 172 209 251 289
#     4  10  22  32  52  73 105 140 172 201 247 301
#     4  10  18  35  52  66 100 141 168 211 247 290
#     4  10  22  34  48  76 105 137 177 197 247 306
#     4  10  20  33  47  75 104 135 172 202 244 300
#     4  10  18  33  49  72 102 136 168 203 241 301
#
# _framework density 24.573516999999999
#
# number of rings (size 3 to 8) (size 9 to 14) (size 15 to 20)
#    2.000    0.000    3.333    2.000    4.667    1.333 
#    0.000    0.000    0.000    0.000    0.000    0.000 
#    0.000   26.667    0.000    0.000    0.000    0.000 
#
# Total GULP energy -133769.851507 kJ/mol
# GULP energy per Si atom -5573.743813 kJ/mol
# Density = 2.451759 g / cm^3
# Si number density = 24.573517 Si / 1000 Ang^3
#
#
#
# Elastic Constant Matrix: (Units=GPa)
#
#
# Indices 1 2 3 4 5 6 
#
# 1 69.5802 -4.7131 13.6566 0.0000 -1.4397 0.0000
# 2 -4.7131 131.5810 22.0799 0.0000 -11.8976 0.0000
# 3 13.6566 22.0799 93.8998 0.0000 -10.1563 0.0000
# 4 0.0000 0.0000 0.0000 48.9395 0.0000 -6.6106
# 5 -1.4397 -11.8976 -10.1563 0.0000 44.2207 0.0000
# 6 0.0000 0.0000 0.0000 -6.6106 0.0000 14.8229
#
#
#
# Elastic Compliance Matrix: (Units=1/GPa)
#
#
# Indices 1 2 3 4 5 6 
#
# 1 0.014905 0.000949 -0.002370 0.000000 0.000196 0.000000
# 2 0.000949 0.008106 -0.001851 0.000000 0.001787 0.000000
# 3 -0.002370 -0.001851 0.011657 0.000000 0.002102 0.000000
# 4 0.000000 0.000000 0.000000 0.021743 0.000000 0.009697
# 5 0.000196 0.001787 0.002102 0.000000 0.023584 0.000000
# 6 0.000000 0.000000 0.000000 0.009697 0.000000 0.071787
#
#
# Mechanical properties :
#
#
# Convention : Reuss Voigt Hill
#
# Bulk Modulus (GPa) = 35.55479 39.67865 37.61672
# Shear Modulus (GPa) = 29.81503 39.19914 34.50709
#
# Velocity S-wave (km/s) = 3.48702 3.99830 3.75138
# Velocity P-wave (km/s) = 5.54189 6.12349 5.83994
#
# Compressibility (1/GPa) = 0.02812560
#
# Stress axis : x y z
#
# Youngs Moduli (GPa) = 67.08979 123.36487 85.78614
#
# Poissons Ratio (x) = -0.11711 0.20330
# Poissons Ratio (y) = -0.06369 0.15878
# Poissons Ratio (z) = 0.15899 0.22834
#
# Static dielectric constant tensor:
#      x y z
#    x 1.968190 0.000000 0.055030 
#    y 0.000000 2.131540 0.000000 
#    z 0.055030 0.000000 1.935960 
# 
# From -- ./inp_files/48064.got.cif
#   From: 2010.05.17/outbox.cif.g08.bks.cpg/sg15_25_cif.got.tgz:48064.got - 2010.06.03 18:47:42.
