data_PCOD9258996
_publ_section_title
;
Structure prediction by ZEFSAII (Michael W. Deem and Ramdas Pophale) SiO2 
 PCOD9258996
Probable space group: C 2/C
;
_chemical_formula_sum "Si O2"
_cell_formula_units_Z 60
_cell_length_a 16.530325
_cell_length_b 21.442928
_cell_length_c 12.009884
_cell_angle_alpha 90.000000
_cell_angle_beta 134.628699
_cell_angle_gamma 90.000000
_cell_volume 3029.601778
_symmetry_space_group_name_H-M "C 2/C"
_symmetry_group_IT_number 15
_symmetry_cell_setting 'monoclinic'
loop_
_space_group_symop_operation_xyz
x,y,z
-x,y,1/2-z
-x,-y,-z
x,-y,1/2+z
1/2+x,1/2+y,z
1/2-x,1/2+y,1/2-z
1/2-x,1/2-y,-z
1/2+x,1/2-y,1/2+z
loop_
_atom_site_type_symbol
_atom_site_label
_atom_site_fract_x
_atom_site_fract_y
_atom_site_fract_z
Si Si1 0.117613 0.946987 0.809171
Si Si2 0.710586 0.016018 0.828464
Si Si3 0.358951 0.123131 0.044393
Si Si4 0.558207 0.812676 0.646445
Si Si5 0.981433 0.172405 0.599913
Si Si6 0.764237 0.879378 0.779227
Si Si7 0.500000 0.993482 0.750000
Si Si8 0.348325 0.424297 0.267151
O O1 0.174916 0.901377 0.775073
O O2 0.000000 0.924937 0.750000
O O3 0.095908 0.013074 0.726622
O O4 0.209065 0.964988 0.991617
O O5 0.729394 0.943383 0.811114
O O6 0.579813 0.027306 0.737907
O O7 0.757914 0.055379 0.771756
O O8 0.387689 0.163141 0.182887
O O9 0.434492 0.155492 0.022547
O O10 0.410971 0.053874 0.106884
O O11 0.227696 0.114674 0.893374
O O12 0.534408 0.739737 0.625733
O O13 0.649658 0.839738 0.649454
O O14 0.051495 0.120508 0.599728
O O15 0.000000 0.160988 0.750000
O O16 0.852418 0.161951 0.436253
#
# Coordination Sequence:
#
# PCOD9258996 Si02
#       8
#     8   8   8   8   8   8   4   8
#     4  11  22  39  59  82 120 155 190 237 290 337
#     4  11  21  38  58  89 116 154 195 233 288 341
#     4  10  18  37  53  88 119 151 178 237 281 353
#     4  10  21  37  58  85 118 149 185 232 294 345
#     4  12  23  35  59  90 118 151 186 235 297 349
#     4  11  23  38  60  87 118 152 191 238 288 347
#     4  10  18  34  58  82 122 150 188 230 280 338
#     4  11  23  33  60  88 119 151 192 236 283 354
#
# _framework density 19.804583999999998
#
# number of rings (size 3 to 8) (size 9 to 14) (size 15 to 20)
#    0.000    1.333    5.333    3.600    1.867    4.800 
#    0.000    0.000    0.000    3.200    0.000    0.000 
#    0.000    0.000    0.000    0.000    0.000    0.000 
#
# Total GULP energy -167441.828084 kJ/mol
# GULP energy per Si atom -5581.394269 kJ/mol
# Density = 1.975951 g / cm^3
# Si number density = 19.804584 Si / 1000 Ang^3
#
#
#
# Elastic Constant Matrix: (Units=GPa)
#
#
# Indices 1 2 3 4 5 6 
#
# 1 151.2368 42.9620 12.6868 0.0000 11.1205 0.0000
# 2 42.9620 77.3957 5.1576 0.0000 -0.2700 0.0000
# 3 12.6868 5.1576 25.6038 0.0000 2.5826 0.0000
# 4 0.0000 0.0000 0.0000 9.3217 0.0000 6.4104
# 5 11.1205 -0.2700 2.5826 0.0000 28.4915 0.0000
# 6 0.0000 0.0000 0.0000 6.4104 0.0000 21.2128
#
#
#
# Elastic Compliance Matrix: (Units=1/GPa)
#
#
# Indices 1 2 3 4 5 6 
#
# 1 0.008345 -0.004447 -0.002933 0.000000 -0.003033 0.000000
# 2 -0.004447 0.015470 -0.001113 0.000000 0.001983 0.000000
# 3 -0.002933 -0.001113 0.040995 0.000000 -0.002582 0.000000
# 4 0.000000 0.000000 0.000000 0.135420 0.000000 -0.040923
# 5 -0.003033 0.001983 -0.002582 0.000000 0.036535 0.000000
# 6 0.000000 0.000000 0.000000 -0.040923 0.000000 0.059508
#
#
# Mechanical properties :
#
#
# Convention : Reuss Voigt Hill
#
# Bulk Modulus (GPa) = 20.91017 41.76103 31.33560
# Shear Modulus (GPa) = 15.18837 24.70051 19.94444
#
# Velocity S-wave (km/s) = 2.77232 3.53542 3.17687
# Velocity P-wave (km/s) = 4.56386 6.14800 5.41418
#
# Compressibility (1/GPa) = 0.04782363
#
# Stress axis : x y z
#
# Youngs Moduli (GPa) = 119.83917 64.64015 24.39342
#
# Poissons Ratio (x) = 0.28746 0.07155
# Poissons Ratio (y) = 0.53294 0.02714
# Poissons Ratio (z) = 0.35149 0.07193
#
# Static dielectric constant tensor:
#      x y z
#    x 1.773290 0.000000 -0.014140 
#    y 0.000000 1.698680 0.000000 
#    z -0.014140 0.000000 1.722300 
# 
# From -- ./inp_files/100685.got.cif
#   From: 2010.05.17/outbox.cif.g08.bks.cpg/sg15_51_cif.got.tgz:100685.got - 2010.06.03 18:47:42.
