data_PCOD9258208
_publ_section_title
;
Structure prediction by ZEFSAII (Michael W. Deem and Ramdas Pophale) SiO2 
 PCOD9258208
Probable space group: C 2/C
;
_chemical_formula_sum "Si O2"
_cell_formula_units_Z 56
_cell_length_a 18.443203
_cell_length_b 15.351508
_cell_length_c 11.593245
_cell_angle_alpha 90.000000
_cell_angle_beta 58.954527
_cell_angle_gamma 90.000000
_cell_volume 2812.229168
_symmetry_space_group_name_H-M "C 2/C"
_symmetry_group_IT_number 15
_symmetry_cell_setting 'monoclinic'
loop_
_space_group_symop_operation_xyz
x,y,z
-x,y,1/2-z
-x,-y,-z
x,-y,1/2+z
1/2+x,1/2+y,z
1/2-x,1/2+y,1/2-z
1/2-x,1/2-y,-z
1/2+x,1/2-y,1/2+z
loop_
_atom_site_type_symbol
_atom_site_label
_atom_site_fract_x
_atom_site_fract_y
_atom_site_fract_z
Si Si1 0.728178 0.216751 0.703292
Si Si2 0.500000 0.117273 0.750000
Si Si3 0.655163 0.828714 0.025547
Si Si4 0.251198 0.487045 0.459223
Si Si5 0.827834 0.703619 0.500558
Si Si6 0.765403 0.014915 0.701154
Si Si7 0.500000 0.823872 0.750000
Si Si8 0.929284 0.475600 0.651820
O O1 0.675492 0.222588 0.627950
O O2 0.805382 0.281731 0.616767
O O3 0.761787 0.118653 0.686588
O O4 0.676932 0.231652 0.861944
O O5 0.554255 0.165986 0.609860
O O6 0.436398 0.053898 0.737044
O O7 0.698844 0.922829 0.003345
O O8 0.191605 0.401089 0.492626
O O9 0.292914 0.478418 0.552826
O O10 0.305619 0.495817 0.295996
O O11 0.750000 0.750000 0.500000
O O12 0.918922 0.723640 0.370906
O O13 0.669365 0.977848 0.798232
O O14 0.459485 0.887393 0.686621
O O15 0.000000 0.500000 0.500000
#
# Coordination Sequence:
#
# PCOD9258208 Si02
#       8
#     8   4   8   8   8   8   4   8
#     4   9  20  36  49  76 115 148 184 239 271 338
#     4  11  18  28  46  82  99 148 184 217 282 346
#     4  10  19  34  54  76 113 144 188 232 286 335
#     4  10  19  34  53  80 110 150 188 224 283 352
#     4  11  23  38  53  83 119 152 192 233 291 344
#     4  10  18  33  50  76 111 146 183 221 278 339
#     4  11  22  36  52  84 119 148 190 233 282 352
#     4  11  19  28  50  77 115 144 175 220 283 354
#
# _framework density 19.913029000000002
#
# number of rings (size 3 to 8) (size 9 to 14) (size 15 to 20)
#    0.000    1.714    4.286    3.429    2.000    1.143 
#    0.000    0.000    0.000    0.000    0.000   10.000 
#    0.000    0.143    0.000    0.000    0.000    0.000 
#
# Total GULP energy -155959.154592 kJ/mol
# GULP energy per Si atom -5569.969807 kJ/mol
# Density = 1.986771 g / cm^3
# Si number density = 19.913029 Si / 1000 Ang^3
#
#
#
# Elastic Constant Matrix: (Units=GPa)
#
#
# Indices 1 2 3 4 5 6 
#
# 1 41.7102 19.5951 40.0415 0.0000 4.3527 0.0000
# 2 19.5951 45.1939 33.8442 0.0000 -10.4049 0.0000
# 3 40.0415 33.8442 169.7315 0.0000 20.4353 0.0000
# 4 0.0000 0.0000 0.0000 31.5753 0.0000 7.1380
# 5 4.3527 -10.4049 20.4353 0.0000 36.2439 0.0000
# 6 0.0000 0.0000 0.0000 7.1380 0.0000 4.5170
#
#
#
# Elastic Compliance Matrix: (Units=1/GPa)
#
#
# Indices 1 2 3 4 5 6 
#
# 1 0.035437 -0.012542 -0.005271 0.000000 -0.004884 0.000000
# 2 -0.012542 0.035457 -0.005920 0.000000 0.015023 0.000000
# 3 -0.005271 -0.005920 0.009059 0.000000 -0.006174 0.000000
# 4 0.000000 0.000000 0.000000 0.049273 0.000000 -0.077864
# 5 -0.004884 0.015023 -0.006174 0.000000 0.035971 0.000000
# 6 0.000000 0.000000 0.000000 -0.077864 0.000000 0.344433
#
#
# Mechanical properties :
#
#
# Convention : Reuss Voigt Hill
#
# Bulk Modulus (GPa) = 30.78174 49.28857 40.03516
# Shear Modulus (GPa) = 8.80399 25.34422 17.07411
#
# Velocity S-wave (km/s) = 2.10495 3.57143 2.93137
# Velocity P-wave (km/s) = 4.62595 6.46625 5.62191
#
# Compressibility (1/GPa) = 0.03248679
#
# Stress axis : x y z
#
# Youngs Moduli (GPa) = 28.21916 28.20341 110.38805
#
# Poissons Ratio (x) = 0.35372 0.58186
# Poissons Ratio (y) = 0.35392 0.65350
# Poissons Ratio (z) = 0.14875 0.16696
#
# Static dielectric constant tensor:
#      x y z
#    x 1.838770 0.000000 0.027240 
#    y 0.000000 1.742490 0.000000 
#    z 0.027240 0.000000 1.807680 
# 
# From -- ./inp_files/113463.got.cif
#   From: 2010.05.17/outbox.cif.g08.bks.cpg/sg15_57_cif.got.tgz:113463.got - 2010.06.03 18:47:42.
