data_PCOD9258181
_publ_section_title
;
Structure prediction by ZEFSAII (Michael W. Deem and Ramdas Pophale) SiO2 
 PCOD9258181
Probable space group: C 2/C
;
_chemical_formula_sum "Si O2"
_cell_formula_units_Z 44
_cell_length_a 14.640113
_cell_length_b 19.899680
_cell_length_c 8.524469
_cell_angle_alpha 90.000000
_cell_angle_beta 80.283988
_cell_angle_gamma 90.000000
_cell_volume 2447.841982
_symmetry_space_group_name_H-M "C 2/C"
_symmetry_group_IT_number 15
_symmetry_cell_setting 'monoclinic'
loop_
_space_group_symop_operation_xyz
x,y,z
-x,y,1/2-z
-x,-y,-z
x,-y,1/2+z
1/2+x,1/2+y,z
1/2-x,1/2+y,1/2-z
1/2-x,1/2-y,-z
1/2+x,1/2-y,1/2+z
loop_
_atom_site_type_symbol
_atom_site_label
_atom_site_fract_x
_atom_site_fract_y
_atom_site_fract_z
Si Si1 0.121956 0.458037 0.857936
Si Si2 0.616440 0.246216 0.983371
Si Si3 0.821411 0.345616 0.452449
Si Si4 0.200895 0.763074 0.269056
Si Si5 0.500000 0.218359 0.750000
Si Si6 0.407542 0.086724 0.469097
O O1 0.142536 0.436770 0.675534
O O2 0.016551 0.430959 0.917707
O O3 0.180133 0.418743 0.971682
O O4 0.124845 0.537663 0.882940
O O5 0.709385 0.260983 0.857417
O O6 0.532633 0.261903 0.889652
O O7 0.625343 0.275653 0.155389
O O8 0.607992 0.165398 0.007737
O O9 0.824505 0.294744 0.600441
O O10 0.736947 0.324826 0.364074
O O11 0.915060 0.328192 0.330149
#
# Coordination Sequence:
#
# PCOD9258181 Si02
#       6
#     8   8   8   8   4   8
#     4  10  20  29  45  68  96 127 166 198 223 269
#     4  10  18  33  45  69  90 133 162 201 231 283
#     4  10  18  33  45  69  90 133 162 201 231 283
#     4   9  20  30  47  61  95 127 167 192 249 271
#     4  10  20  26  52  62  92 122 170 192 234 266
#     4  10  20  29  45  68  96 127 166 198 223 269
#
# _framework density 17.975017999999999
#
# number of rings (size 3 to 8) (size 9 to 14) (size 15 to 20)
#    0.000    2.182    3.636    0.000    5.091    0.727 
#    0.000    0.000    0.000    0.000    0.000    0.000 
#    0.000    0.000    0.000  369.818    0.000    0.000 
#
# Total GULP energy -122608.595945 kJ/mol
# GULP energy per Si atom -5573.117998 kJ/mol
# Density = 1.793411 g / cm^3
# Si number density = 17.975018 Si / 1000 Ang^3
#
#
#
# Elastic Constant Matrix: (Units=GPa)
#
#
# Indices 1 2 3 4 5 6 
#
# 1 41.9258 19.8306 27.1538 0.0000 26.7142 0.0000
# 2 19.8306 40.0997 18.2140 0.0000 4.2394 0.0000
# 3 27.1538 18.2140 107.4620 0.0000 34.9697 0.0000
# 4 0.0000 0.0000 0.0000 22.0889 0.0000 6.4988
# 5 26.7142 4.2394 34.9697 0.0000 45.8062 0.0000
# 6 0.0000 0.0000 0.0000 6.4988 0.0000 11.8482
#
#
#
# Elastic Compliance Matrix: (Units=1/GPa)
#
#
# Indices 1 2 3 4 5 6 
#
# 1 0.053313 -0.023249 -0.000150 0.000000 -0.028825 0.000000
# 2 -0.023249 0.037217 -0.004956 0.000000 0.013898 0.000000
# 3 -0.000150 -0.004956 0.013313 0.000000 -0.009617 0.000000
# 4 0.000000 0.000000 0.000000 0.053983 0.000000 -0.029610
# 5 -0.028825 0.013898 -0.009617 0.000000 0.044698 0.000000
# 6 0.000000 0.000000 0.000000 -0.029610 0.000000 0.100643
#
#
# Mechanical properties :
#
#
# Convention : Reuss Voigt Hill
#
# Bulk Modulus (GPa) = 21.21702 35.54268 28.37985
# Shear Modulus (GPa) = 13.31243 24.23458 18.77351
#
# Velocity S-wave (km/s) = 2.72436 3.67582 3.23526
# Velocity P-wave (km/s) = 4.66106 6.15076 5.45698
#
# Compressibility (1/GPa) = 0.04713197
#
# Stress axis : x y z
#
# Youngs Moduli (GPa) = 18.75731 26.86937 75.11321
#
# Poissons Ratio (x) = 0.62469 0.01130
# Poissons Ratio (y) = 0.43609 0.37226
# Poissons Ratio (z) = 0.00282 0.13316
#
# Static dielectric constant tensor:
#      x y z
#    x 1.666420 0.000000 0.049890 
#    y 0.000000 1.599190 0.000000 
#    z 0.049890 0.000000 1.693150 
# 
# From -- ./inp_files/31411.got.cif
#   From: 2010.05.17/outbox.cif.g08.bks.cpg/sg15_16_cif.got.tgz:31411.got - 2010.06.03 18:47:42.
