data_PCOD9258422
_publ_section_title
;
Structure prediction by ZEFSAII (Michael W. Deem and Ramdas Pophale) SiO2 
 PCOD9258422
Probable space group: C 2/C
;
_chemical_formula_sum "Si O2"
_cell_formula_units_Z 52
_cell_length_a 23.488438
_cell_length_b 11.925014
_cell_length_c 17.590167
_cell_angle_alpha 90.000000
_cell_angle_beta 27.579241
_cell_angle_gamma 90.000000
_cell_volume 2281.079723
_symmetry_space_group_name_H-M "C 2/C"
_symmetry_group_IT_number 15
_symmetry_cell_setting 'monoclinic'
loop_
_space_group_symop_operation_xyz
x,y,z
-x,y,1/2-z
-x,-y,-z
x,-y,1/2+z
1/2+x,1/2+y,z
1/2-x,1/2+y,1/2-z
1/2-x,1/2-y,-z
1/2+x,1/2-y,1/2+z
loop_
_atom_site_type_symbol
_atom_site_label
_atom_site_fract_x
_atom_site_fract_y
_atom_site_fract_z
Si Si1 0.755985 0.865539 0.185663
Si Si2 0.875296 0.054968 0.694883
Si Si3 0.802087 0.636639 0.088587
Si Si4 0.955604 0.757666 0.461029
Si Si5 0.117037 0.425850 0.838360
Si Si6 0.328122 0.823488 0.963938
Si Si7 0.000000 0.486234 0.250000
O O1 0.852736 0.907289 0.134385
O O2 0.798592 0.768934 0.078650
O O3 0.648055 0.799988 0.361957
O O4 0.709028 0.978240 0.200447
O O5 0.000968 0.115548 0.572244
O O6 0.829291 0.927487 0.765816
O O7 0.768225 0.116045 0.867729
O O8 0.830462 0.619529 0.144294
O O9 0.917475 0.583204 0.906640
O O10 0.072467 0.678580 0.342354
O O11 0.912443 0.744461 0.424902
O O12 0.000000 0.500000 0.000000
O O13 0.401149 0.923990 0.835762
O O14 0.250000 0.750000 0.000000
#
# Coordination Sequence:
#
# PCOD9258422 Si02
#       7
#     8   8   8   8   8   8   4
#     4   9  18  31  52  86 116 153 204 247 287 360
#     4   9  18  31  51  82 116 155 189 245 310 354
#     4  10  19  34  54  84 121 155 206 243 293 362
#     4  10  18  33  56  83 120 152 192 251 319 358
#     4   9  17  31  55  81 113 155 200 242 296 352
#     4  10  20  33  54  83 118 151 201 248 307 368
#     4  10  20  34  54  84 122 170 196 244 306 370
#
# _framework density 22.796222
#
# number of rings (size 3 to 8) (size 9 to 14) (size 15 to 20)
#    0.000    2.462    1.538    3.692    0.000    0.615 
#    0.000    0.000    0.000    8.308    0.000    4.308 
#    0.000    6.769    0.000    0.000    0.000    0.000 
#
# Total GULP energy -144935.870295 kJ/mol
# GULP energy per Si atom -5574.456550 kJ/mol
# Density = 2.274434 g / cm^3
# Si number density = 22.796222 Si / 1000 Ang^3
#
#
#
# Elastic Constant Matrix: (Units=GPa)
#
#
# Indices 1 2 3 4 5 6 
#
# 1 94.0284 48.5050 14.0392 0.0000 -1.7430 0.0000
# 2 48.5050 140.5913 43.6439 0.0000 -5.1245 0.0000
# 3 14.0392 43.6439 92.9906 0.0000 1.1505 0.0000
# 4 0.0000 0.0000 0.0000 45.2697 0.0000 -11.5837
# 5 -1.7430 -5.1245 1.1505 0.0000 8.7888 0.0000
# 6 0.0000 0.0000 0.0000 -11.5837 0.0000 26.1920
#
#
#
# Elastic Compliance Matrix: (Units=1/GPa)
#
#
# Indices 1 2 3 4 5 6 
#
# 1 0.012940 -0.004520 0.000169 0.000000 -0.000092 0.000000
# 2 -0.004520 0.010166 -0.004158 0.000000 0.005576 0.000000
# 3 0.000169 -0.004158 0.012730 0.000000 -0.004057 0.000000
# 4 0.000000 0.000000 0.000000 0.024909 0.000000 0.011016
# 5 -0.000092 0.005576 -0.004057 0.000000 0.117545 0.000000
# 6 0.000000 0.000000 0.000000 0.011016 0.000000 0.043052
#
#
# Mechanical properties :
#
#
# Convention : Reuss Voigt Hill
#
# Bulk Modulus (GPa) = 53.14083 59.99847 56.56965
# Shear Modulus (GPa) = 20.43888 30.81160 25.62524
#
# Velocity S-wave (km/s) = 2.99756 3.68041 3.35640
# Velocity P-wave (km/s) = 5.94494 6.66612 6.31584
#
# Compressibility (1/GPa) = 0.01881792
#
# Stress axis : x y z
#
# Youngs Moduli (GPa) = 77.28033 98.36429 78.55496
#
# Poissons Ratio (x) = 0.44462 -0.01328
# Poissons Ratio (y) = 0.34932 0.32663
# Poissons Ratio (z) = -0.01306 0.40900
#
# Static dielectric constant tensor:
#      x y z
#    x 1.910480 0.000000 -0.061090 
#    y 0.000000 1.983030 0.000000 
#    z -0.061090 0.000000 1.964560 
# 
# From -- ./inp_files/167339.got.cif
#   From: 2010.05.17/outbox.cif.g08.bks.cpg/sg15_84_cif.got.tgz:167339.got - 2010.06.03 18:47:42.
