data_PCOD9258304
_publ_section_title
;
Structure prediction by ZEFSAII (Michael W. Deem and Ramdas Pophale) SiO2 
 PCOD9258304
Probable space group: C 2/C
;
_chemical_formula_sum "Si O2"
_cell_formula_units_Z 56
_cell_length_a 16.906674
_cell_length_b 21.465005
_cell_length_c 11.486368
_cell_angle_alpha 90.000000
_cell_angle_beta 123.387739
_cell_angle_gamma 90.000000
_cell_volume 3480.490918
_symmetry_space_group_name_H-M "C 2/C"
_symmetry_group_IT_number 15
_symmetry_cell_setting 'monoclinic'
loop_
_space_group_symop_operation_xyz
x,y,z
-x,y,1/2-z
-x,-y,-z
x,-y,1/2+z
1/2+x,1/2+y,z
1/2-x,1/2+y,1/2-z
1/2-x,1/2-y,-z
1/2+x,1/2-y,1/2+z
loop_
_atom_site_type_symbol
_atom_site_label
_atom_site_fract_x
_atom_site_fract_y
_atom_site_fract_z
Si Si1 0.095222 0.455526 0.755602
Si Si2 0.825361 0.677142 0.111777
Si Si3 0.937645 0.256651 0.900293
Si Si4 0.538040 0.106581 0.971209
Si Si5 0.349267 0.261921 0.920088
Si Si6 0.349490 0.086444 0.674934
Si Si7 0.244154 0.787695 0.116085
O O1 0.136488 0.392147 0.842976
O O2 0.064739 0.438540 0.599466
O O3 0.167986 0.512821 0.823758
O O4 0.000000 0.472772 0.750000
O O5 0.893768 0.723914 0.240131
O O6 0.722084 0.686607 0.085246
O O7 0.827925 0.701231 0.982615
O O8 0.858351 0.220141 0.907979
O O9 0.952053 0.323212 0.974900
O O10 0.039744 0.224619 0.978788
O O11 0.432827 0.098158 0.836576
O O12 0.607275 0.096266 0.918615
O O13 0.317867 0.245223 0.764568
O O14 0.271740 0.139898 0.626567
O O15 0.250000 0.750000 0.000000
#
# Coordination Sequence:
#
# PCOD9258304 Si02
#       7
#     8   8   8   8   8   8   8
#     4  11  21  31  52  76 105 134 169 212 264 320
#     4   9  20  33  51  81 102 131 169 212 266 313
#     4  10  18  33  54  73 105 133 171 219 254 306
#     4  10  19  33  49  74 101 138 169 208 260 314
#     4  10  19  34  54  72 105 134 170 218 259 304
#     4  11  21  32  49  73 107 139 169 208 260 315
#     4  11  22  32  49  75 104 139 179 209 256 310
#
# _framework density 16.089683999999998
#
# number of rings (size 3 to 8) (size 9 to 14) (size 15 to 20)
#    0.000    1.714    4.286    2.571    0.000    0.571 
#    0.000    0.000    0.000    0.857    0.000    0.000 
#   12.857    0.000    0.000    0.000    0.000    0.000 
#
# Total GULP energy -156195.947645 kJ/mol
# GULP energy per Si atom -5578.426702 kJ/mol
# Density = 1.605306 g / cm^3
# Si number density = 16.089684 Si / 1000 Ang^3
#
#
#
# Elastic Constant Matrix: (Units=GPa)
#
#
# Indices 1 2 3 4 5 6 
#
# 1 68.9617 30.3477 23.7155 0.0000 14.1319 0.0000
# 2 30.3477 78.0734 18.7336 0.0000 0.1229 0.0000
# 3 23.7155 18.7336 77.2435 0.0000 -10.9823 0.0000
# 4 0.0000 0.0000 0.0000 16.7692 0.0000 8.4723
# 5 14.1319 0.1229 -10.9823 0.0000 32.0347 0.0000
# 6 0.0000 0.0000 0.0000 8.4723 0.0000 21.5040
#
#
#
# Elastic Compliance Matrix: (Units=1/GPa)
#
#
# Indices 1 2 3 4 5 6 
#
# 1 0.022518 -0.007067 -0.006947 0.000000 -0.012288 0.000000
# 2 -0.007067 0.015865 -0.001307 0.000000 0.002608 0.000000
# 3 -0.006947 -0.001307 0.016644 0.000000 0.008775 0.000000
# 4 0.000000 0.000000 0.000000 0.074453 0.000000 -0.029334
# 5 -0.012288 0.002608 0.008775 0.000000 0.039635 0.000000
# 6 0.000000 0.000000 0.000000 -0.029334 0.000000 0.058060
#
#
# Mechanical properties :
#
#
# Convention : Reuss Voigt Hill
#
# Bulk Modulus (GPa) = 41.00858 41.09691 41.05275
# Shear Modulus (GPa) = 18.80097 24.16035 21.48066
#
# Velocity S-wave (km/s) = 3.42206 3.87926 3.65781
# Velocity P-wave (km/s) = 6.41536 6.75742 6.58861
#
# Compressibility (1/GPa) = 0.02438514
#
# Stress axis : x y z
#
# Youngs Moduli (GPa) = 44.40984 63.03245 60.08338
#
# Poissons Ratio (x) = 0.44542 0.41738
# Poissons Ratio (y) = 0.31382 0.07854
# Poissons Ratio (z) = 0.30850 0.08240
#
# Static dielectric constant tensor:
#      x y z
#    x 1.543410 0.000000 -0.007970 
#    y 0.000000 1.541570 0.000000 
#    z -0.007970 0.000000 1.559420 
# 
# From -- ./inp_files/106348.got.cif
#   From: 2010.05.17/outbox.cif.g08.bks.cpg/sg15_54_cif.got.tgz:106348.got - 2010.06.03 18:47:42.
