data_PCOD9258911
_publ_section_title
;
Structure prediction by ZEFSAII (Michael W. Deem and Ramdas Pophale) SiO2 
 PCOD9258911
Probable space group: C 2/C
;
_chemical_formula_sum "Si O2"
_cell_formula_units_Z 56
_cell_length_a 14.082409
_cell_length_b 20.822384
_cell_length_c 7.918154
_cell_angle_alpha 90.000000
_cell_angle_beta 70.197315
_cell_angle_gamma 90.000000
_cell_volume 2184.533018
_symmetry_space_group_name_H-M "C 2/C"
_symmetry_group_IT_number 15
_symmetry_cell_setting 'monoclinic'
loop_
_space_group_symop_operation_xyz
x,y,z
-x,y,1/2-z
-x,-y,-z
x,-y,1/2+z
1/2+x,1/2+y,z
1/2-x,1/2+y,1/2-z
1/2-x,1/2-y,-z
1/2+x,1/2-y,1/2+z
loop_
_atom_site_type_symbol
_atom_site_label
_atom_site_fract_x
_atom_site_fract_y
_atom_site_fract_z
Si Si1 0.747361 0.121391 0.705413
Si Si2 0.000000 0.824773 0.250000
Si Si3 0.500000 0.226385 0.750000
Si Si4 0.449183 0.889237 0.036760
Si Si5 0.151678 0.387732 0.775031
Si Si6 0.653641 0.743823 0.903934
Si Si7 0.158642 0.088126 0.516362
Si Si8 0.924075 0.041702 0.427451
O O1 0.639327 0.085810 0.783823
O O2 0.752475 0.194964 0.641969
O O3 0.779628 0.126234 0.880292
O O4 0.838794 0.085856 0.558087
O O5 0.079514 0.781734 0.300332
O O6 0.055336 0.871074 0.078979
O O7 0.532617 0.180003 0.885974
O O8 0.589270 0.265414 0.612854
O O9 0.562225 0.917732 0.946051
O O10 0.402413 0.885376 0.876841
O O11 0.173278 0.317134 0.838501
O O12 0.262992 0.418302 0.684956
O O13 0.137371 0.018954 0.609381
O O14 0.000000 0.073683 0.250000
O O15 0.000000 0.000000 0.500000
#
# Coordination Sequence:
#
# PCOD9258911 Si02
#       8
#     8   4   4   8   8   8   8   8
#     4  10  22  37  60  85 116 154 193 239 290 342
#     4  10  18  34  57  80 111 148 196 240 276 344
#     4  10  20  34  51  78 127 148 184 238 290 352
#     4   9  19  38  55  81 116 152 193 237 284 340
#     4   9  19  36  63  80 109 158 197 237 277 333
#     4  10  20  34  53  87 117 153 191 234 287 347
#     4  10  20  39  61  87 109 150 204 240 279 337
#     4  12  22  42  63  87 119 149 189 246 290 337
#
# _framework density 25.634768000000001
#
# number of rings (size 3 to 8) (size 9 to 14) (size 15 to 20)
#    0.000    2.000    2.143    2.571    1.000    8.000 
#    5.143    0.714    0.000    1.714    0.000    0.000 
#    0.000    0.000    0.000    0.000    0.000    0.000 
#
# Total GULP energy -156075.921939 kJ/mol
# GULP energy per Si atom -5574.140069 kJ/mol
# Density = 2.557642 g / cm^3
# Si number density = 25.634768 Si / 1000 Ang^3
#
#
#
# Elastic Constant Matrix: (Units=GPa)
#
#
# Indices 1 2 3 4 5 6 
#
# 1 91.4551 14.9349 62.4601 0.0000 -33.9331 0.0000
# 2 14.9349 17.1261 6.9447 0.0000 -21.2312 0.0000
# 3 62.4601 6.9447 141.8206 0.0000 -56.7293 0.0000
# 4 0.0000 0.0000 0.0000 30.6438 0.0000 -2.4827
# 5 -33.9331 -21.2312 -56.7293 0.0000 78.8656 0.0000
# 6 0.0000 0.0000 0.0000 -2.4827 0.0000 5.6315
#
#
#
# Elastic Compliance Matrix: (Units=1/GPa)
#
#
# Indices 1 2 3 4 5 6 
#
# 1 0.018157 -0.015131 -0.008087 0.000000 -0.002078 0.000000
# 2 -0.015131 0.105858 0.014426 0.000000 0.032365 0.000000
# 3 -0.008087 0.014426 0.014135 0.000000 0.010572 0.000000
# 4 0.000000 0.000000 0.000000 0.033842 0.000000 0.014919
# 5 -0.002078 0.032365 0.010572 0.000000 0.028103 0.000000
# 6 0.000000 0.000000 0.000000 0.014919 0.000000 0.184150
#
#
# Mechanical properties :
#
#
# Convention : Reuss Voigt Hill
#
# Bulk Modulus (GPa) = 8.29414 46.56457 27.42935
# Shear Modulus (GPa) = 11.31176 34.09898 22.70537
#
# Velocity S-wave (km/s) = 2.10291 3.65113 2.97934
# Velocity P-wave (km/s) = 3.02305 5.99820 4.74959
#
# Compressibility (1/GPa) = 0.12056712
#
# Stress axis : x y z
#
# Youngs Moduli (GPa) = 55.07393 9.44660 70.74514
#
# Poissons Ratio (x) = 0.14294 0.57213
# Poissons Ratio (y) = 0.83333 -1.02060
# Poissons Ratio (z) = 0.44539 -0.13628
#
# Static dielectric constant tensor:
#      x y z
#    x 2.200880 0.000000 -0.056130 
#    y 0.000000 2.108760 0.000000 
#    z -0.056130 0.000000 2.116300 
# 
# From -- ./inp_files/50155.got.cif
#   From: 2010.05.17/outbox.cif.g08.bks.cpg/sg15_26_cif.got.tgz:50155.got - 2010.06.03 18:47:42.
