data_PCOD9258982
_publ_section_title
;
Structure prediction by ZEFSAII (Michael W. Deem and Ramdas Pophale) SiO2 
 PCOD9258982
Probable space group: C 2/C
;
_chemical_formula_sum "Si O2"
_cell_formula_units_Z 60
_cell_length_a 7.787293
_cell_length_b 12.921242
_cell_length_c 24.156833
_cell_angle_alpha 90.000000
_cell_angle_beta 79.012797
_cell_angle_gamma 90.000000
_cell_volume 2386.141493
_symmetry_space_group_name_H-M "C 2/C"
_symmetry_group_IT_number 15
_symmetry_cell_setting 'monoclinic'
loop_
_space_group_symop_operation_xyz
x,y,z
-x,y,1/2-z
-x,-y,-z
x,-y,1/2+z
1/2+x,1/2+y,z
1/2-x,1/2+y,1/2-z
1/2-x,1/2-y,-z
1/2+x,1/2-y,1/2+z
loop_
_atom_site_type_symbol
_atom_site_label
_atom_site_fract_x
_atom_site_fract_y
_atom_site_fract_z
Si Si1 0.810796 0.510972 0.784188
Si Si2 0.945527 0.944904 0.418371
Si Si3 0.000000 0.235961 0.750000
Si Si4 0.746396 0.395219 0.895639
Si Si5 0.363691 0.144728 0.498241
Si Si6 0.502629 0.198663 0.600106
Si Si7 0.336780 0.282667 0.150335
Si Si8 0.234371 0.938365 0.179001
O O1 0.810364 0.426368 0.831226
O O2 0.725636 0.611075 0.816329
O O3 0.721624 0.485533 0.731677
O O4 0.000000 0.539631 0.750000
O O5 0.778516 0.934968 0.467613
O O6 0.873406 0.985394 0.364441
O O7 0.013953 0.828609 0.399732
O O8 0.106286 0.017690 0.424292
O O9 0.902025 0.281414 0.700501
O O10 0.858866 0.164110 0.790494
O O11 0.639538 0.289638 0.895490
O O12 0.896839 0.388821 0.933038
O O13 0.250000 0.250000 0.500000
O O14 0.513996 0.160091 0.535182
O O15 0.673548 0.242714 0.620409
O O16 0.415187 0.105210 0.641271
#
# Coordination Sequence:
#
# PCOD9258982 Si02
#       8
#     8   8   4   8   8   8   8   8
#     4  10  18  34  58  81 116 153 195 240 291 351
#     4   9  18  35  61  81 112 149 192 237 294 352
#     4   8  16  28  50  82 108 142 190 238 272 346
#     4  10  21  35  57  87 115 154 194 245 295 347
#     4   9  19  37  61  83 115 155 197 242 295 351
#     4  10  19  35  59  84 114 152 197 242 293 350
#     4   9  17  32  57  88 109 149 197 234 292 350
#     4   9  17  33  55  78 107 153 190 229 289 350
#
# _framework density 25.145197
#
# number of rings (size 3 to 8) (size 9 to 14) (size 15 to 20)
#    0.000    2.667    1.333    1.200    0.000    0.000 
#    1.200   10.667   11.733    0.000    0.000    0.000 
#    0.000    0.000    0.000    0.000    0.000    0.000 
#
# Total GULP energy -167281.147171 kJ/mol
# GULP energy per Si atom -5576.038239 kJ/mol
# Density = 2.508797 g / cm^3
# Si number density = 25.145197 Si / 1000 Ang^3
#
#
#
# Elastic Constant Matrix: (Units=GPa)
#
#
# Indices 1 2 3 4 5 6 
#
# 1 69.9723 10.8883 37.5708 0.0000 26.9138 0.0000
# 2 10.8883 68.2909 28.2376 0.0000 4.5414 0.0000
# 3 37.5708 28.2376 188.0936 0.0000 54.5810 0.0000
# 4 0.0000 0.0000 0.0000 -39.3516 0.0000 -23.8387
# 5 26.9138 4.5414 54.5810 0.0000 44.0527 0.0000
# 6 0.0000 0.0000 0.0000 -23.8387 0.0000 24.8361
#
#
#
# Elastic Compliance Matrix: (Units=1/GPa)
#
#
# Indices 1 2 3 4 5 6 
#
# 1 0.019034 -0.002192 -0.000256 0.000000 -0.011085 0.000000
# 2 -0.002192 0.015981 -0.002923 0.000000 0.003313 0.000000
# 3 -0.000256 -0.002923 0.008858 0.000000 -0.010518 0.000000
# 4 0.000000 0.000000 0.000000 -0.016069 0.000000 -0.015423
# 5 -0.011085 0.003313 -0.010518 0.000000 0.042163 0.000000
# 6 0.000000 0.000000 0.000000 -0.015423 0.000000 0.025460
#
#
# Mechanical properties :
#
#
# Convention : Reuss Voigt Hill
#
# Bulk Modulus (GPa) = 30.18207 53.30557 41.74382
# Shear Modulus (GPa) = 42.65783 22.55145 32.60464
#
# Velocity S-wave (km/s) = 4.12328 2.99799 3.60482
# Velocity P-wave (km/s) = 5.89048 5.76447 5.82781
#
# Compressibility (1/GPa) = 0.03313225
#
# Stress axis : x y z
#
# Youngs Moduli (GPa) = 52.53839 62.57486 112.88626
#
# Poissons Ratio (x) = 0.13714 0.02892
# Poissons Ratio (y) = 0.11514 0.32992
# Poissons Ratio (z) = 0.01346 0.18288
#
# Static dielectric constant tensor:
#      x y z
#    x 2.156880 0.000000 0.097480 
#    y 0.000000 2.010840 0.000000 
#    z 0.097480 0.000000 2.095200 
# 
# From -- ./inp_files/264325.got.cif
#   From: 2010.05.17/outbox.cif.g08.bks.cpg/sg15_133_cif.got.tgz:264325.got - 2010.06.03 18:47:42.
