data_PCOD9258802
_publ_section_title
;
Structure prediction by ZEFSAII (Michael W. Deem and Ramdas Pophale) SiO2 
 PCOD9258802
Probable space group: C 2/C
;
_chemical_formula_sum "Si O2"
_cell_formula_units_Z 60
_cell_length_a 27.701940
_cell_length_b 8.023881
_cell_length_c 18.002252
_cell_angle_alpha 90.000000
_cell_angle_beta 39.161985
_cell_angle_gamma 90.000000
_cell_volume 2526.999578
_symmetry_space_group_name_H-M "C 2/C"
_symmetry_group_IT_number 15
_symmetry_cell_setting 'monoclinic'
loop_
_space_group_symop_operation_xyz
x,y,z
-x,y,1/2-z
-x,-y,-z
x,-y,1/2+z
1/2+x,1/2+y,z
1/2-x,1/2+y,1/2-z
1/2-x,1/2-y,-z
1/2+x,1/2-y,1/2+z
loop_
_atom_site_type_symbol
_atom_site_label
_atom_site_fract_x
_atom_site_fract_y
_atom_site_fract_z
Si Si1 0.500000 0.802741 0.750000
Si Si2 0.403447 0.283795 0.663097
Si Si3 0.747945 0.667985 0.639254
Si Si4 0.309276 0.459658 0.661160
Si Si5 0.229624 0.172413 0.920125
Si Si6 0.032411 0.535689 0.346988
Si Si7 0.920279 0.872651 0.217783
Si Si8 0.681782 0.010638 0.567970
O O1 0.527821 0.922728 0.647838
O O2 0.554347 0.673944 0.729730
O O3 0.383209 0.367723 0.607290
O O4 0.316310 0.228905 0.792482
O O5 0.434211 0.438979 0.675275
O O6 0.457697 0.123081 0.611511
O O7 0.741234 0.525416 0.710139
O O8 0.761704 0.831157 0.669532
O O9 0.668134 0.658352 0.692408
O O10 0.808307 0.631946 0.504027
O O11 0.318745 0.611886 0.592695
O O12 0.247892 0.027192 0.958024
O O13 0.187999 0.318126 0.014353
O O14 0.041499 0.717982 0.373456
O O15 0.106186 0.508793 0.205511
#
# Coordination Sequence:
#
# PCOD9258802 Si02
#       8
#     4   8   8   8   8   8   8   8
#     4   8  20  38  50  78 110 134 196 238 266 312
#     4  10  18  34  55  79 109 150 176 215 275 320
#     4  11  19  31  51  81 112 144 172 216 274 330
#     4  11  20  31  50  79 118 147 180 201 263 364
#     4  10  19  33  47  78 119 140 172 211 266 348
#     4   9  20  36  55  78 112 142 181 232 275 319
#     4   9  19  33  51  78 107 138 183 229 262 316
#     4  10  19  33  51  77 115 143 164 228 286 317
#
# _framework density 23.743573000000001
#
# number of rings (size 3 to 8) (size 9 to 14) (size 15 to 20)
#    0.800    1.333    4.000    1.600    0.000    2.667 
#    0.000    0.000    0.000    0.000    0.000   19.600 
#    0.000    0.000    0.000    0.000    0.000    0.000 
#
# Total GULP energy -167065.454229 kJ/mol
# GULP energy per Si atom -5568.848474 kJ/mol
# Density = 2.368953 g / cm^3
# Si number density = 23.743573 Si / 1000 Ang^3
#
#
#
# Elastic Constant Matrix: (Units=GPa)
#
#
# Indices 1 2 3 4 5 6 
#
# 1 94.8307 54.7924 22.9151 -0.0050 25.7876 0.0060
# 2 54.7924 128.3441 18.6647 -0.0259 2.6202 0.0008
# 3 22.9151 18.6647 73.7439 -0.0093 16.8038 0.0004
# 4 -0.0050 -0.0259 -0.0093 -39.9427 -0.0091 12.4786
# 5 25.7876 2.6202 16.8038 -0.0091 18.9401 0.0003
# 6 0.0060 0.0008 0.0004 12.4786 0.0003 50.2563
#
#
#
# Elastic Compliance Matrix: (Units=1/GPa)
#
#
# Indices 1 2 3 4 5 6 
#
# 1 0.025993 -0.010784 0.002979 0.000010 -0.036542 -0.000005
# 2 -0.010784 0.012575 -0.003486 -0.000009 0.016036 0.000003
# 3 0.002979 -0.003486 0.017963 0.000002 -0.019511 -0.000001
# 4 0.000010 -0.000009 0.000002 -0.023234 -0.000025 0.005769
# 5 -0.036542 0.016036 -0.019511 -0.000025 0.117642 0.000010
# 6 -0.000005 0.000003 -0.000001 0.005769 0.000010 0.018466
#
#
# Mechanical properties :
#
#
# Convention : Reuss Voigt Hill
#
# Bulk Modulus (GPa) = 29.45570 54.40700 41.93135
# Shear Modulus (GPa) = 24.59380 19.22051 21.90716
#
# Velocity S-wave (km/s) = 3.22189 2.84826 3.04082
# Velocity P-wave (km/s) = 5.12576 5.81214 5.47971
#
# Compressibility (1/GPa) = 0.03394928
#
# Stress axis : x y z
#
# Youngs Moduli (GPa) = 38.47180 79.52264 55.67044
#
# Poissons Ratio (x) = 0.85758 -0.16585
# Poissons Ratio (y) = 0.41488 0.19406
# Poissons Ratio (z) = -0.11461 0.27720
#
# Static dielectric constant tensor:
#      x y z
#    x 1.969000 -0.000010 0.011090 
#    y -0.000010 2.022220 0.000010 
#    z 0.011090 0.000010 1.937520 
# 
# From -- ./inp_files/221890.got.cif
#   From: 2010.05.17/outbox.cif.g08.bks.cpg/sg15_111_cif.got.tgz:221890.got - 2010.06.03 18:47:42.
