data_PCOD9258326
_publ_section_title
;
Structure prediction by ZEFSAII (Michael W. Deem and Ramdas Pophale) SiO2 
 PCOD9258326
Probable space group: C 2/C
;
_chemical_formula_sum "Si O2"
_cell_formula_units_Z 64
_cell_length_a 19.539470
_cell_length_b 8.650551
_cell_length_c 24.485877
_cell_angle_alpha 90.000000
_cell_angle_beta 123.620303
_cell_angle_gamma 90.000000
_cell_volume 3446.464941
_symmetry_space_group_name_H-M "C 2/C"
_symmetry_group_IT_number 15
_symmetry_cell_setting 'monoclinic'
loop_
_space_group_symop_operation_xyz
x,y,z
-x,y,1/2-z
-x,-y,-z
x,-y,1/2+z
1/2+x,1/2+y,z
1/2-x,1/2+y,1/2-z
1/2-x,1/2-y,-z
1/2+x,1/2-y,1/2+z
loop_
_atom_site_type_symbol
_atom_site_label
_atom_site_fract_x
_atom_site_fract_y
_atom_site_fract_z
Si Si1 0.846816 0.284319 0.328509
Si Si2 0.749371 0.000752 0.644004
Si Si3 0.993543 0.473811 0.079586
Si Si4 0.340075 0.797157 0.197518
Si Si5 0.063953 0.550025 0.324308
Si Si6 0.233874 0.723459 0.429482
Si Si7 0.912020 0.692833 0.451503
Si Si8 0.324847 0.503447 0.893821
O O1 0.767110 0.384453 0.312132
O O2 0.926054 0.366643 0.388899
O O3 0.859306 0.294763 0.269879
O O4 0.840222 0.113299 0.350471
O O5 0.753866 0.114407 0.595221
O O6 0.824224 0.881576 0.676430
O O7 0.669860 0.891069 0.606360
O O8 0.013670 0.626268 0.052552
O O9 0.975819 0.517061 0.134171
O O10 0.924928 0.373242 0.018189
O O11 0.403978 0.889680 0.188474
O O12 0.256300 0.895753 0.154133
O O13 0.144185 0.655636 0.372687
O O14 0.000000 0.613700 0.250000
O O15 0.250000 0.750000 0.500000
O O16 0.300665 0.605035 0.434012
O O17 0.896602 0.874776 0.438799
#
# Coordination Sequence:
#
# PCOD9258326 Si02
#       8
#     8   8   8   8   8   8   8   8
#     4  10  18  33  54  80 111 143 181 231 282 333
#     4   9  19  35  56  82 104 138 190 236 275 321
#     4  10  20  35  57  79 114 153 182 233 285 351
#     4  10  19  35  56  79 111 143 185 228 281 342
#     4  11  22  39  57  82 118 155 189 229 297 360
#     4  10  21  38  61  83 113 151 193 240 284 342
#     4   9  19  37  58  84 109 143 196 237 287 330
#     4   9  20  35  57  86 107 143 194 243 279 326
#
# _framework density 18.569752000000001
#
# number of rings (size 3 to 8) (size 9 to 14) (size 15 to 20)
#    0.000    2.250    1.250    1.500    0.000    2.500 
#    4.500    5.625    0.000    0.000    0.000    0.000 
#    0.000    0.000    0.000    0.000    0.000    0.000 
#
# Total GULP energy -178267.833303 kJ/mol
# GULP energy per Si atom -5570.869791 kJ/mol
# Density = 1.852749 g / cm^3
# Si number density = 18.569752 Si / 1000 Ang^3
#
#
#
# Elastic Constant Matrix: (Units=GPa)
#
#
# Indices 1 2 3 4 5 6 
#
# 1 54.0259 20.8412 15.9201 0.0000 -19.0195 0.0000
# 2 20.8412 103.6548 25.7638 0.0000 -9.1271 0.0000
# 3 15.9201 25.7638 73.6896 0.0000 -26.6022 0.0000
# 4 0.0000 0.0000 0.0000 20.0565 0.0000 1.8136
# 5 -19.0195 -9.1271 -26.6022 0.0000 29.3274 0.0000
# 6 0.0000 0.0000 0.0000 1.8136 0.0000 7.8480
#
#
#
# Elastic Compliance Matrix: (Units=1/GPa)
#
#
# Indices 1 2 3 4 5 6 
#
# 1 0.025541 -0.004154 0.002152 0.000000 0.017223 0.000000
# 2 -0.004154 0.011241 -0.004078 0.000000 -0.002894 0.000000
# 3 0.002152 -0.004078 0.021674 0.000000 0.019787 0.000000
# 4 0.000000 0.000000 0.000000 0.050923 0.000000 -0.011768
# 5 0.017223 -0.002894 0.019787 0.000000 0.062315 0.000000
# 6 0.000000 0.000000 0.000000 -0.011768 0.000000 0.130141
#
#
# Mechanical properties :
#
#
# Convention : Reuss Voigt Hill
#
# Bulk Modulus (GPa) = 21.59918 39.60227 30.60073
# Shear Modulus (GPa) = 15.17783 22.70271 18.94027
#
# Velocity S-wave (km/s) = 2.86202 3.50031 3.19713
# Velocity P-wave (km/s) = 4.75165 6.14075 5.49031
#
# Compressibility (1/GPa) = 0.04629805
#
# Stress axis : x y z
#
# Youngs Moduli (GPa) = 39.15232 88.95805 46.13754
#
# Poissons Ratio (x) = 0.36951 -0.09929
# Poissons Ratio (y) = 0.16263 0.18813
# Poissons Ratio (z) = -0.08425 0.36274
#
# Static dielectric constant tensor:
#      x y z
#    x 1.655140 0.000000 0.030680 
#    y 0.000000 1.647430 0.000000 
#    z 0.030680 0.000000 1.654120 
# 
# From -- ./inp_files/279574.got.cif
#   From: 2010.05.17/outbox.cif.g08.bks.cpg/sg15_140_cif.got.tgz:279574.got - 2010.06.03 18:47:42.
