data_PCOD9258216
_publ_section_title
;
Structure prediction by ZEFSAII (Michael W. Deem and Ramdas Pophale) SiO2 
 PCOD9258216
Probable space group: C 2/C
;
_chemical_formula_sum "Si O2"
_cell_formula_units_Z 56
_cell_length_a 27.242259
_cell_length_b 14.225056
_cell_length_c 8.875113
_cell_angle_alpha 90.000000
_cell_angle_beta 65.094438
_cell_angle_gamma 90.000000
_cell_volume 3119.462600
_symmetry_space_group_name_H-M "C 2/C"
_symmetry_group_IT_number 15
_symmetry_cell_setting 'monoclinic'
loop_
_space_group_symop_operation_xyz
x,y,z
-x,y,1/2-z
-x,-y,-z
x,-y,1/2+z
1/2+x,1/2+y,z
1/2-x,1/2+y,1/2-z
1/2-x,1/2-y,-z
1/2+x,1/2-y,1/2+z
loop_
_atom_site_type_symbol
_atom_site_label
_atom_site_fract_x
_atom_site_fract_y
_atom_site_fract_z
Si Si1 0.215087 0.216916 0.800730
Si Si2 0.182974 0.504396 0.769937
Si Si3 0.305803 0.655351 0.325929
Si Si4 0.497167 0.105033 0.570692
Si Si5 0.756718 0.033800 0.920717
Si Si6 0.881945 0.317393 0.237498
Si Si7 0.612505 0.834149 0.907347
O O1 0.259936 0.297039 0.778396
O O2 0.232806 0.135057 0.663888
O O3 0.159013 0.258972 0.808148
O O4 0.206577 0.176691 0.981100
O O5 0.199996 0.499446 0.921284
O O6 0.238279 0.473962 0.616049
O O7 0.163088 0.608587 0.759397
O O8 0.135016 0.431295 0.810161
O O9 0.302325 0.542851 0.322685
O O10 0.360646 0.713429 0.225386
O O11 0.500000 0.097910 0.750000
O O12 0.440478 0.153351 0.601014
O O13 0.549074 0.166478 0.451641
O O14 0.500000 0.000000 0.500000
O O15 0.884951 0.330370 0.413860
#
# Coordination Sequence:
#
# PCOD9258216 Si02
#       7
#     8   8   8   8   8   8   8
#     4  10  19  33  51  72 103 137 167 205 251 299
#     4  12  19  30  51  77 105 135 167 204 248 306
#     4  10  18  33  51  71 102 138 166 202 252 302
#     4  10  20  33  54  76  99 132 169 204 249 297
#     4  12  21  32  51  76 104 138 169 203 253 299
#     4  10  19  33  53  74 101 138 168 200 251 304
#     4  10  20  34  50  75 105 134 168 206 245 302
#
# _framework density 17.951809000000001
#
# number of rings (size 3 to 8) (size 9 to 14) (size 15 to 20)
#    0.000    1.429    7.143    0.857    0.000    0.571 
#    0.000    0.000    0.000    0.857    0.000    0.000 
#    0.000    0.000    0.000    0.000    0.000    0.143 
#
# Total GULP energy -155931.856281 kJ/mol
# GULP energy per Si atom -5568.994867 kJ/mol
# Density = 1.791095 g / cm^3
# Si number density = 17.951809 Si / 1000 Ang^3
#
#
#
# Elastic Constant Matrix: (Units=GPa)
#
#
# Indices 1 2 3 4 5 6 
#
# 1 72.3783 24.3199 20.9564 0.0000 -23.2037 0.0000
# 2 24.3199 51.0064 16.5601 0.0000 -12.1657 0.0000
# 3 20.9564 16.5601 21.4667 0.0000 -17.4532 0.0000
# 4 0.0000 0.0000 0.0000 25.9695 0.0000 -4.4144
# 5 -23.2037 -12.1657 -17.4532 0.0000 27.9023 0.0000
# 6 0.0000 0.0000 0.0000 -4.4144 0.0000 26.9420
#
#
#
# Elastic Compliance Matrix: (Units=1/GPa)
#
#
# Indices 1 2 3 4 5 6 
#
# 1 0.021211 -0.004863 -0.008827 0.000000 0.009998 0.000000
# 2 -0.004863 0.027356 -0.020239 0.000000 -0.004777 0.000000
# 3 -0.008827 -0.020239 0.117352 0.000000 0.057240 0.000000
# 4 0.000000 0.000000 0.000000 0.039610 0.000000 0.006490
# 5 0.009998 -0.004777 0.057240 0.000000 0.077875 0.000000
# 6 0.000000 0.000000 0.000000 0.006490 0.000000 0.038180
#
#
# Mechanical properties :
#
#
# Convention : Reuss Voigt Hill
#
# Bulk Modulus (GPa) = 10.19780 29.83602 20.01691
# Shear Modulus (GPa) = 11.84471 21.69710 16.77090
#
# Velocity S-wave (km/s) = 2.57146 3.48031 3.05981
# Velocity P-wave (km/s) = 3.80913 5.72767 4.86393
#
# Compressibility (1/GPa) = 0.09806037
#
# Stress axis : x y z
#
# Youngs Moduli (GPa) = 47.14469 36.55527 8.52138
#
# Poissons Ratio (x) = 0.17777 0.07522
# Poissons Ratio (y) = 0.22927 0.17247
# Poissons Ratio (z) = 0.41615 0.73985
#
# Static dielectric constant tensor:
#      x y z
#    x 1.629440 0.000000 -0.013390 
#    y 0.000000 1.638660 0.000000 
#    z -0.013390 0.000000 1.627830 
# 
# From -- ./inp_files/65523.got.cif
#   From: 2010.05.17/outbox.cif.g08.bks.cpg/sg15_33_cif.got.tgz:65523.got - 2010.06.03 18:47:42.
