data_PCOD9258401
_publ_section_title
;
Structure prediction by ZEFSAII (Michael W. Deem and Ramdas Pophale) SiO2 
 PCOD9258401
Probable space group: C 2/C
;
_chemical_formula_sum "Si O2"
_cell_formula_units_Z 52
_cell_length_a 11.997052
_cell_length_b 17.792820
_cell_length_c 15.977570
_cell_angle_alpha 90.000000
_cell_angle_beta 43.702916
_cell_angle_gamma 90.000000
_cell_volume 2356.445066
_symmetry_space_group_name_H-M "C 2/C"
_symmetry_group_IT_number 15
_symmetry_cell_setting 'monoclinic'
loop_
_space_group_symop_operation_xyz
x,y,z
-x,y,1/2-z
-x,-y,-z
x,-y,1/2+z
1/2+x,1/2+y,z
1/2-x,1/2+y,1/2-z
1/2-x,1/2-y,-z
1/2+x,1/2-y,1/2+z
loop_
_atom_site_type_symbol
_atom_site_label
_atom_site_fract_x
_atom_site_fract_y
_atom_site_fract_z
Si Si1 0.638055 0.440489 0.342348
Si Si2 0.381214 0.327463 0.699775
Si Si3 0.571048 0.842476 0.385041
Si Si4 0.224820 0.166594 0.051380
Si Si5 0.000000 0.927682 0.250000
Si Si6 0.290971 0.166182 0.512266
Si Si7 0.206820 0.085809 0.402869
O O1 0.783900 0.388362 0.234723
O O2 0.573058 0.473729 0.288283
O O3 0.701246 0.500471 0.374803
O O4 0.478798 0.399806 0.465131
O O5 0.406640 0.241759 0.659657
O O6 0.313959 0.328840 0.829386
O O7 0.560758 0.364216 0.600490
O O8 0.267755 0.365575 0.693627
O O9 0.397109 0.873210 0.450204
O O10 0.582536 0.836777 0.480101
O O11 0.250000 0.250000 0.000000
O O12 0.863916 0.872350 0.359819
O O13 0.250000 0.250000 0.500000
O O14 0.320726 0.113007 0.415778
#
# Coordination Sequence:
#
# PCOD9258401 Si02
#       7
#     8   8   8   8   4   8   8
#     4   9  20  36  60  87 124 166 211 255 308 379
#     4  10  20  36  61  89 120 159 209 253 313 372
#     4  10  20  35  61  90 126 159 203 265 312 366
#     4   9  21  37  56  90 119 155 206 254 308 369
#     4   8  18  32  54  86 120 166 214 242 310 370
#     4  10  18  33  55  91 123 157 200 255 310 367
#     4  10  20  37  59  91 123 164 209 249 314 382
#
# _framework density 22.067138
#
# number of rings (size 3 to 8) (size 9 to 14) (size 15 to 20)
#    0.000    2.462    1.538    0.000    4.308    2.462 
#    0.000    0.769    0.000    3.692    0.000    0.000 
#    0.000    0.000    0.000    0.000    0.000    0.000 
#
# Total GULP energy -145003.772265 kJ/mol
# GULP energy per Si atom -5577.068164 kJ/mol
# Density = 2.201691 g / cm^3
# Si number density = 22.067138 Si / 1000 Ang^3
#
#
#
# Elastic Constant Matrix: (Units=GPa)
#
#
# Indices 1 2 3 4 5 6 
#
# 1 63.6643 16.1033 33.1403 0.0001 0.7020 0.0001
# 2 16.1033 47.2831 17.8549 0.0001 -5.9676 0.0000
# 3 33.1403 17.8549 65.7003 0.0002 17.3348 -0.0001
# 4 0.0001 0.0001 0.0002 23.6652 -0.0002 8.9469
# 5 0.7020 -5.9676 17.3348 -0.0002 33.0857 0.0000
# 6 0.0001 0.0000 -0.0001 8.9469 0.0000 21.4371
#
#
#
# Elastic Compliance Matrix: (Units=1/GPa)
#
#
# Indices 1 2 3 4 5 6 
#
# 1 0.022601 -0.002402 -0.012192 0.000000 0.005475 0.000000
# 2 -0.002402 0.026276 -0.008347 0.000000 0.009163 0.000000
# 3 -0.012192 -0.008347 0.027813 0.000000 -0.015819 0.000000
# 4 0.000000 0.000000 0.000000 0.050173 0.000000 -0.020940
# 5 0.005475 0.009163 -0.015819 0.000000 0.040049 0.000000
# 6 0.000000 0.000000 0.000000 -0.020940 0.000000 0.055388
#
#
# Mechanical properties :
#
#
# Convention : Reuss Voigt Hill
#
# Bulk Modulus (GPa) = 32.45998 34.53829 33.49913
# Shear Modulus (GPa) = 17.95650 22.94086 20.44868
#
# Velocity S-wave (km/s) = 2.85567 3.22777 3.04741
# Velocity P-wave (km/s) = 5.06110 5.43845 5.25317
#
# Compressibility (1/GPa) = 0.03080717
#
# Stress axis : x y z
#
# Youngs Moduli (GPa) = 44.24534 38.05790 35.95495
#
# Poissons Ratio (x) = 0.09143 0.43837
# Poissons Ratio (y) = 0.10630 0.30011
# Poissons Ratio (z) = 0.53944 0.31766
#
# Static dielectric constant tensor:
#      x y z
#    x 1.895340 0.000000 -0.023360 
#    y 0.000000 1.788290 0.000000 
#    z -0.023360 0.000000 1.829420 
# 
# From -- ./inp_files/147063.got.cif
#   From: 2010.05.17/outbox.cif.g08.bks.cpg/sg15_74_cif.got.tgz:147063.got - 2010.06.03 18:47:42.
