data_PCOD9258812
_publ_section_title
;
Structure prediction by ZEFSAII (Michael W. Deem and Ramdas Pophale) SiO2 
 PCOD9258812
Probable space group: C 2/C
;
_chemical_formula_sum "Si O2"
_cell_formula_units_Z 40
_cell_length_a 18.099194
_cell_length_b 14.371543
_cell_length_c 14.607965
_cell_angle_alpha 90.000000
_cell_angle_beta 24.393097
_cell_angle_gamma 90.000000
_cell_volume 1569.266992
_symmetry_space_group_name_H-M "C 2/C"
_symmetry_group_IT_number 15
_symmetry_cell_setting 'monoclinic'
loop_
_space_group_symop_operation_xyz
x,y,z
-x,y,1/2-z
-x,-y,-z
x,-y,1/2+z
1/2+x,1/2+y,z
1/2-x,1/2+y,1/2-z
1/2-x,1/2-y,-z
1/2+x,1/2-y,1/2+z
loop_
_atom_site_type_symbol
_atom_site_label
_atom_site_fract_x
_atom_site_fract_y
_atom_site_fract_z
Si Si1 0.173711 0.320291 0.509294
Si Si2 0.181493 0.410109 0.862403
Si Si3 0.531221 0.587495 0.611373
Si Si4 0.485843 0.632868 0.161401
Si Si5 0.664540 0.867542 0.337251
O O1 0.250000 0.250000 0.500000
O O2 0.344596 0.378088 0.282575
O O3 0.098728 0.298959 0.492701
O O4 0.000000 0.369155 0.750000
O O5 0.296626 0.386866 0.641087
O O6 0.298569 0.373141 0.816384
O O7 0.162225 0.523392 0.875225
O O8 0.984214 0.369078 0.075191
O O9 0.500000 0.620105 0.750000
O O10 0.534379 0.476830 0.612223
O O11 0.500000 0.669163 0.250000
O O12 0.649418 0.667698 0.914806
#
# Coordination Sequence:
#
# PCOD9258812 Si02
#       5
#     8   8   8   8   8
#     4  12  24  38  55  83 124 171 217 256 306 372
#     4  10  18  35  58  86 123 162 200 256 320 394
#     4  10  18  34  55  81 124 164 200 253 314 384
#     4  10  19  34  58  89 122 158 198 256 325 380
#     4  10  20  36  57  85 122 164 208 253 318 384
#
# _framework density 25.489609000000002
#
# number of rings (size 3 to 8) (size 9 to 14) (size 15 to 20)
#    0.000    1.600    4.000    3.000    0.000    2.400 
#    0.000    0.000    0.000    0.000    0.000    1.400 
#    0.000    0.000    0.000    0.000    0.000    0.000 
#
# Total GULP energy -111435.379711 kJ/mol
# GULP energy per Si atom -5571.768986 kJ/mol
# Density = 2.543159 g / cm^3
# Si number density = 25.489609 Si / 1000 Ang^3
#
#
#
# Elastic Constant Matrix: (Units=GPa)
#
#
# Indices 1 2 3 4 5 6 
#
# 1 189.5846 8.2531 33.8568 0.0002 5.5599 -0.0003
# 2 8.2531 62.5484 6.6245 0.0005 -1.6596 -0.0002
# 3 33.8568 6.6245 98.9707 -0.0002 6.3866 0.0001
# 4 0.0002 0.0005 -0.0002 12.5765 0.0000 -2.1267
# 5 5.5599 -1.6596 6.3866 0.0000 51.3286 0.0001
# 6 -0.0003 -0.0002 0.0001 -2.1267 0.0001 22.6426
#
#
#
# Elastic Compliance Matrix: (Units=1/GPa)
#
#
# Indices 1 2 3 4 5 6 
#
# 1 0.005644 -0.000557 -0.001868 0.000000 -0.000397 0.000000
# 2 -0.000557 0.016179 -0.000937 -0.000001 0.000700 0.000000
# 3 -0.001868 -0.000937 0.010882 0.000000 -0.001182 0.000000
# 4 0.000000 -0.000001 0.000000 0.080797 0.000000 0.007589
# 5 -0.000397 0.000700 -0.001182 0.000000 0.019695 0.000000
# 6 0.000000 0.000000 0.000000 0.007589 0.000000 0.044877
#
#
# Mechanical properties :
#
#
# Convention : Reuss Voigt Hill
#
# Bulk Modulus (GPa) = 38.49155 49.84141 44.16648
# Shear Modulus (GPa) = 25.84519 37.46748 31.65634
#
# Velocity S-wave (km/s) = 3.18771 3.83810 3.52793
# Velocity P-wave (km/s) = 5.35559 6.26398 5.82751
#
# Compressibility (1/GPa) = 0.02597973
#
# Stress axis : x y z
#
# Youngs Moduli (GPa) = 177.17387 61.80838 91.89486
#
# Poissons Ratio (x) = 0.03445 0.17165
# Poissons Ratio (y) = 0.09876 0.08614
# Poissons Ratio (z) = 0.33094 0.05794
#
# Static dielectric constant tensor:
#      x y z
#    x 4.465380 -0.000010 -0.840330 
#    y -0.000010 2.131800 0.000000 
#    z -0.840330 0.000000 2.188980 
# 
# From -- ./inp_files/169443.got.cif
#   From: 2010.05.17/outbox.cif.g08.bks.cpg/sg15_85_cif.got.tgz:169443.got - 2010.06.03 18:47:42.
