data_PCOD9258462
_publ_section_title
;
Structure prediction by ZEFSAII (Michael W. Deem and Ramdas Pophale) SiO2 
 PCOD9258462
Probable space group: C 2/C
;
_chemical_formula_sum "Si O2"
_cell_formula_units_Z 56
_cell_length_a 24.787558
_cell_length_b 5.839207
_cell_length_c 16.842188
_cell_angle_alpha 90.000000
_cell_angle_beta 67.965294
_cell_angle_gamma 90.000000
_cell_volume 2259.673057
_symmetry_space_group_name_H-M "C 2/C"
_symmetry_group_IT_number 15
_symmetry_cell_setting 'monoclinic'
loop_
_space_group_symop_operation_xyz
x,y,z
-x,y,1/2-z
-x,-y,-z
x,-y,1/2+z
1/2+x,1/2+y,z
1/2-x,1/2+y,1/2-z
1/2-x,1/2-y,-z
1/2+x,1/2-y,1/2+z
loop_
_atom_site_type_symbol
_atom_site_label
_atom_site_fract_x
_atom_site_fract_y
_atom_site_fract_z
Si Si1 0.804784 0.506145 0.879180
Si Si2 0.379047 0.615032 0.873117
Si Si3 0.379065 0.324090 0.722846
Si Si4 0.022552 0.516553 0.156503
Si Si5 0.773768 0.936563 0.205926
Si Si6 0.623943 0.231119 0.519266
Si Si7 0.940275 0.475410 0.583209
O O1 0.843132 0.615456 0.785555
O O2 0.741245 0.562078 0.879988
O O3 0.827585 0.613968 0.949662
O O4 0.819316 0.239271 0.879954
O O5 0.398570 0.452069 0.791238
O O6 0.427799 0.801794 0.855131
O O7 0.370243 0.495714 0.962710
O O8 0.337971 0.498118 0.697969
O O9 0.421265 0.212126 0.635237
O O10 0.059580 0.325454 0.090652
O O11 0.000000 0.415934 0.250000
O O12 0.968700 0.646521 0.143802
O O13 0.742155 0.178235 0.254398
O O14 0.612756 0.128984 0.437997
O O15 0.000000 0.500000 0.500000
#
# Coordination Sequence:
#
# PCOD9258462 Si02
#       7
#     8   8   8   8   8   8   8
#     4   9  18  35  57  88 114 146 197 259 312 365
#     4  10  18  33  57  82 106 149 198 251 308 361
#     4  10  20  36  58  85 119 154 203 263 313 374
#     4  10  20  34  53  79 109 146 205 260 299 357
#     4  10  19  35  65  99 126 155 206 274 332 372
#     4   9  20  35  54  75 117 158 192 241 309 372
#     4  10  21  38  54  79 121 165 201 248 307 377
#
# _framework density 24.782343999999998
#
# number of rings (size 3 to 8) (size 9 to 14) (size 15 to 20)
#    0.000    2.286    1.429    2.571    0.000    3.429 
#    0.000    7.857    0.000    0.857    0.000    0.000 
#    0.000    0.000    0.000    0.000    0.000    0.000 
#
# Total GULP energy -155915.630632 kJ/mol
# GULP energy per Si atom -5568.415380 kJ/mol
# Density = 2.472594 g / cm^3
# Si number density = 24.782344 Si / 1000 Ang^3
#
#
#
# Elastic Constant Matrix: (Units=GPa)
#
#
# Indices 1 2 3 4 5 6 
#
# 1 79.6677 -11.0562 14.0451 0.0003 40.4089 0.0002
# 2 -11.0562 65.0602 7.6994 -0.0010 -10.7772 -0.0001
# 3 14.0451 7.6994 66.6965 0.0004 4.1241 0.0002
# 4 0.0003 -0.0010 0.0004 2.9526 0.0001 -9.2981
# 5 40.4089 -10.7772 4.1241 0.0001 47.3948 0.0001
# 6 0.0002 -0.0001 0.0002 -9.2981 0.0001 17.2801
#
#
#
# Elastic Compliance Matrix: (Units=1/GPa)
#
#
# Indices 1 2 3 4 5 6 
#
# 1 0.023056 0.001214 -0.003817 0.000001 -0.019049 0.000000
# 2 0.001214 0.016328 -0.002319 -0.000008 0.002879 -0.000004
# 3 -0.003817 -0.002319 0.015982 0.000004 0.001337 0.000002
# 4 0.000001 -0.000008 0.000004 -0.487675 -0.000001 -0.262409
# 5 -0.019049 0.002879 0.001337 -0.000001 0.037879 -0.000001
# 6 0.000000 -0.000004 0.000002 -0.262409 -0.000001 -0.083328
#
#
# Mechanical properties :
#
#
# Convention : Reuss Voigt Hill
#
# Bulk Modulus (GPa) = 21.96718 25.86675 23.91697
# Shear Modulus (GPa) = -11.04386 26.90791 7.93202
#
# Velocity S-wave (km/s) = -2.11330 3.29868 1.79098
# Velocity P-wave (km/s) = 1.71131 4.99686 3.73478
#
# Compressibility (1/GPa) = 0.04552246
#
# Stress axis : x y z
#
# Youngs Moduli (GPa) = 43.37330 61.24417 62.56971
#
# Poissons Ratio (x) = -0.07437 0.23886
# Poissons Ratio (y) = -0.05267 0.14508
# Poissons Ratio (z) = 0.16557 0.14200
#
# Static dielectric constant tensor:
#      x y z
#    x 2.637070 0.000000 0.322210 
#    y 0.000000 2.008370 0.000000 
#    z 0.322210 0.000000 2.268490 
# 
# From -- ./inp_files/223591.got.cif
#   From: 2010.05.17/outbox.cif.g08.bks.cpg/sg15_112_cif.got.tgz:223591.got - 2010.06.03 18:47:42.
