data_PCOD9258782
_publ_section_title
;
Structure prediction by ZEFSAII (Michael W. Deem and Ramdas Pophale) SiO2 
 PCOD9258782
Probable space group: C 2/C
;
_chemical_formula_sum "Si O2"
_cell_formula_units_Z 60
_cell_length_a 9.799460
_cell_length_b 14.884434
_cell_length_c 22.727310
_cell_angle_alpha 90.000000
_cell_angle_beta 109.589647
_cell_angle_gamma 90.000000
_cell_volume 3123.113950
_symmetry_space_group_name_H-M "C 2/C"
_symmetry_group_IT_number 15
_symmetry_cell_setting 'monoclinic'
loop_
_space_group_symop_operation_xyz
x,y,z
-x,y,1/2-z
-x,-y,-z
x,-y,1/2+z
1/2+x,1/2+y,z
1/2-x,1/2+y,1/2-z
1/2-x,1/2-y,-z
1/2+x,1/2-y,1/2+z
loop_
_atom_site_type_symbol
_atom_site_label
_atom_site_fract_x
_atom_site_fract_y
_atom_site_fract_z
Si Si1 0.319807 0.490436 0.605803
Si Si2 0.334693 0.943815 0.792466
Si Si3 0.149442 0.951232 0.168808
Si Si4 0.308343 0.193983 0.452679
Si Si5 0.921920 0.580543 0.642596
Si Si6 0.305560 0.754703 0.816363
Si Si7 0.554431 0.906568 0.034695
Si Si8 0.000000 0.726198 0.750000
O O1 0.256362 0.465854 0.661114
O O2 0.488488 0.514183 0.633479
O O3 0.280574 0.400436 0.563362
O O4 0.224490 0.575387 0.568859
O O5 0.235799 0.983361 0.725897
O O6 0.388501 0.840765 0.803639
O O7 0.479884 0.001132 0.818476
O O8 0.254351 0.943639 0.127138
O O9 0.148891 0.847159 0.192501
O O10 0.250000 0.250000 0.500000
O O11 0.295199 0.237874 0.386050
O O12 0.479252 0.170481 0.485526
O O13 0.974596 0.601651 0.585463
O O14 0.965175 0.663516 0.689918
O O15 0.148348 0.777686 0.765123
O O16 0.500000 0.000000 0.000000
#
# Coordination Sequence:
#
# PCOD9258782 Si02
#       8
#     8   8   8   8   8   8   8   4
#     4   9  21  35  59  84 112 156 193 241 295 336
#     4  10  19  36  57  81 119 156 188 231 295 358
#     4  11  20  38  55  88 121 148 192 247 294 347
#     4  10  19  37  58  85 110 151 205 243 277 346
#     4  10  18  36  61  82 116 155 189 234 301 347
#     4  10  22  33  58  84 117 152 193 237 293 345
#     4   9  19  38  59  80 111 156 197 232 282 352
#     4  10  18  34  54  88 110 152 190 242 286 344
#
# _framework density 19.211594999999999
#
# number of rings (size 3 to 8) (size 9 to 14) (size 15 to 20)
#    0.000    2.133    2.667    2.800    3.733    0.000 
#    0.000   10.667    0.000    0.000    0.000    0.000 
#    0.000    0.000    0.000    0.000    0.000    0.000 
#
# Total GULP energy -167031.305303 kJ/mol
# GULP energy per Si atom -5567.710177 kJ/mol
# Density = 1.916787 g / cm^3
# Si number density = 19.211595 Si / 1000 Ang^3
#
#
#
# Elastic Constant Matrix: (Units=GPa)
#
#
# Indices 1 2 3 4 5 6 
#
# 1 90.1385 18.4006 26.6831 0.0000 28.1803 0.0000
# 2 18.4006 85.8639 27.1486 0.0000 6.5340 0.0000
# 3 26.6831 27.1486 72.3969 0.0000 7.0670 0.0000
# 4 0.0000 0.0000 0.0000 26.9640 0.0000 1.4806
# 5 28.1803 6.5340 7.0670 0.0000 26.2687 0.0000
# 6 0.0000 0.0000 0.0000 1.4806 0.0000 18.0966
#
#
#
# Elastic Compliance Matrix: (Units=1/GPa)
#
#
# Indices 1 2 3 4 5 6 
#
# 1 0.018362 -0.001103 -0.004578 0.000000 -0.018192 0.000000
# 2 -0.001103 0.013383 -0.004521 0.000000 -0.000929 0.000000
# 3 -0.004578 -0.004521 0.017054 0.000000 0.001448 0.000000
# 4 0.000000 0.000000 0.000000 0.037254 0.000000 -0.003048
# 5 -0.018192 -0.000929 0.001448 0.000000 0.057426 0.000000
# 6 0.000000 0.000000 0.000000 -0.003048 0.000000 0.055508
#
#
# Mechanical properties :
#
#
# Convention : Reuss Voigt Hill
#
# Bulk Modulus (GPa) = 35.21853 43.65153 39.43503
# Shear Modulus (GPa) = 21.84771 26.01033 23.92902
#
# Velocity S-wave (km/s) = 3.37592 3.68351 3.53307
# Velocity P-wave (km/s) = 5.79375 6.39232 6.10038
#
# Compressibility (1/GPa) = 0.02839414
#
# Stress axis : x y z
#
# Youngs Moduli (GPa) = 54.46050 74.72168 58.63646
#
# Poissons Ratio (x) = 0.08242 0.26845
# Poissons Ratio (y) = 0.06007 0.26511
# Poissons Ratio (z) = 0.24933 0.33784
#
# Static dielectric constant tensor:
#      x y z
#    x 1.704360 0.000000 0.009930 
#    y 0.000000 1.789500 0.000000 
#    z 0.009930 0.000000 1.702880 
# 
# From -- ./inp_files/264740.got.cif
#   From: 2010.05.17/outbox.cif.g08.bks.cpg/sg15_133_cif.got.tgz:264740.got - 2010.06.03 18:47:42.
