data_PCOD9258069
_publ_section_title
;
Structure prediction by ZEFSAII (Michael W. Deem and Ramdas Pophale) SiO2 
 PCOD9258069
Probable space group: C 2/C
;
_chemical_formula_sum "Si O2"
_cell_formula_units_Z 56
_cell_length_a 8.549142
_cell_length_b 19.322191
_cell_length_c 19.670953
_cell_angle_alpha 90.000000
_cell_angle_beta 51.235299
_cell_angle_gamma 90.000000
_cell_volume 2533.641272
_symmetry_space_group_name_H-M "C 2/C"
_symmetry_group_IT_number 15
_symmetry_cell_setting 'monoclinic'
loop_
_space_group_symop_operation_xyz
x,y,z
-x,y,1/2-z
-x,-y,-z
x,-y,1/2+z
1/2+x,1/2+y,z
1/2-x,1/2+y,1/2-z
1/2-x,1/2-y,-z
1/2+x,1/2-y,1/2+z
loop_
_atom_site_type_symbol
_atom_site_label
_atom_site_fract_x
_atom_site_fract_y
_atom_site_fract_z
Si Si1 0.565729 0.383038 0.797668
Si Si2 0.658270 0.100598 0.486211
Si Si3 0.262062 0.859694 0.873369
Si Si4 0.056001 0.723471 0.961452
Si Si5 0.771675 0.549516 0.503500
Si Si6 0.124313 0.273242 0.836403
Si Si7 0.969238 0.862329 0.337059
O O1 0.500000 0.428506 0.750000
O O2 0.354562 0.377731 0.892509
O O3 0.723162 0.401472 0.814539
O O4 0.676285 0.316172 0.734628
O O5 0.577807 0.169472 0.544474
O O6 0.478604 0.075450 0.483903
O O7 0.710557 0.032042 0.513176
O O8 0.462389 0.815240 0.834024
O O9 0.093008 0.799433 0.923346
O O10 0.244230 0.909949 0.941675
O O11 0.272526 0.686011 0.903850
O O12 0.961592 0.725544 0.063067
O O13 0.587150 0.570943 0.603017
O O14 0.139759 0.192635 0.811876
O O15 0.000000 0.879043 0.250000
#
# Coordination Sequence:
#
# PCOD9258069 Si02
#       7
#     8   8   8   8   8   8   8
#     4  12  24  36  56  93 129 157 206 274 327 381
#     4  10  22  38  59  89 128 161 205 265 329 380
#     4  11  20  37  64  87 118 172 213 257 315 388
#     4  10  18  37  62  86 124 160 206 263 315 388
#     4  10  20  40  64  85 120 174 215 256 312 403
#     4  11  18  37  61  88 121 157 215 260 315 392
#     4  10  18  32  58  91 113 151 213 265 302 369
#
# _framework density 22.102575999999999
#
# number of rings (size 3 to 8) (size 9 to 14) (size 15 to 20)
#    0.000    1.429    5.714    3.000    0.000    1.714 
#    0.000    0.000    0.000    0.000    0.000    2.000 
#    0.000    0.000    0.000    0.000    0.000    0.000 
#
# Total GULP energy -155963.698660 kJ/mol
# GULP energy per Si atom -5570.132095 kJ/mol
# Density = 2.205227 g / cm^3
# Si number density = 22.102576 Si / 1000 Ang^3
#
#
#
# Elastic Constant Matrix: (Units=GPa)
#
#
# Indices 1 2 3 4 5 6 
#
# 1 71.6313 29.7283 23.5580 0.0000 9.6656 0.0000
# 2 29.7283 116.1410 24.3546 0.0000 5.0743 0.0000
# 3 23.5580 24.3546 61.6058 0.0000 -4.7352 0.0000
# 4 0.0000 0.0000 0.0000 10.8822 0.0000 -0.5109
# 5 9.6656 5.0743 -4.7352 0.0000 38.1984 0.0000
# 6 0.0000 0.0000 0.0000 -0.5109 0.0000 13.8147
#
#
#
# Elastic Compliance Matrix: (Units=1/GPa)
#
#
# Indices 1 2 3 4 5 6 
#
# 1 0.017871 -0.003109 -0.005978 0.000000 -0.004850 0.000000
# 2 -0.003109 0.010043 -0.002851 0.000000 -0.000901 0.000000
# 3 -0.005978 -0.002851 0.019981 0.000000 0.004368 0.000000
# 4 0.000000 0.000000 0.000000 0.092053 0.000000 0.003404
# 5 -0.004850 -0.000901 0.004368 0.000000 0.028068 0.000000
# 6 0.000000 0.000000 0.000000 0.003404 0.000000 0.072512
#
#
# Mechanical properties :
#
#
# Convention : Reuss Voigt Hill
#
# Bulk Modulus (GPa) = 41.63133 44.96222 43.29677
# Shear Modulus (GPa) = 18.35473 24.02820 21.19146
#
# Velocity S-wave (km/s) = 2.88485 3.30073 3.09977
# Velocity P-wave (km/s) = 5.47475 5.90873 5.69588
#
# Compressibility (1/GPa) = 0.02402037
#
# Stress axis : x y z
#
# Youngs Moduli (GPa) = 55.95647 99.57005 50.04809
#
# Poissons Ratio (x) = 0.30957 0.29917
# Poissons Ratio (y) = 0.17397 0.14267
# Poissons Ratio (z) = 0.33448 0.28385
#
# Static dielectric constant tensor:
#      x y z
#    x 1.906110 0.000000 -0.017630 
#    y 0.000000 1.861170 0.000000 
#    z -0.017630 0.000000 1.843450 
# 
# From -- ./inp_files/233782.got.cif
#   From: 2010.05.17/outbox.cif.g08.bks.cpg/sg15_117_cif.got.tgz:233782.got - 2010.06.03 18:47:42.
