data_PCOD9258834
_publ_section_title
;
Structure prediction by ZEFSAII (Michael W. Deem and Ramdas Pophale) SiO2 
 PCOD9258834
Probable space group: C 2/C
;
_chemical_formula_sum "Si O2"
_cell_formula_units_Z 64
_cell_length_a 26.123169
_cell_length_b 22.088209
_cell_length_c 20.058585
_cell_angle_alpha 90.000000
_cell_angle_beta 18.189586
_cell_angle_gamma 90.000000
_cell_volume 3612.992295
_symmetry_space_group_name_H-M "C 2/C"
_symmetry_group_IT_number 15
_symmetry_cell_setting 'monoclinic'
loop_
_space_group_symop_operation_xyz
x,y,z
-x,y,1/2-z
-x,-y,-z
x,-y,1/2+z
1/2+x,1/2+y,z
1/2-x,1/2+y,1/2-z
1/2-x,1/2-y,-z
1/2+x,1/2-y,1/2+z
loop_
_atom_site_type_symbol
_atom_site_label
_atom_site_fract_x
_atom_site_fract_y
_atom_site_fract_z
Si Si1 0.533908 0.808839 0.130222
Si Si2 0.584452 0.072695 0.246981
Si Si3 0.420417 0.635185 0.582513
Si Si4 0.851561 0.966172 0.719651
Si Si5 0.260922 0.578884 0.902897
Si Si6 0.413404 0.878384 0.081715
Si Si7 0.001783 0.441328 0.107097
Si Si8 0.108906 0.750072 0.818585
O O1 0.500000 0.800217 0.250000
O O2 0.506894 0.879870 0.144905
O O3 0.416073 0.770808 0.226946
O O4 0.716681 0.783485 0.888541
O O5 0.414738 0.084365 0.416762
O O6 0.555775 0.106437 0.352279
O O7 0.592268 0.000129 0.248873
O O8 0.729967 0.093633 0.018177
O O9 0.575251 0.599638 0.359955
O O10 0.386355 0.616987 0.701847
O O11 0.260304 0.614265 0.740341
O O12 0.463988 0.704643 0.519049
O O13 0.806909 0.008027 0.837323
O O14 0.691644 0.962328 0.871462
O O15 0.000000 0.000000 0.500000
O O16 0.436049 0.922560 0.116376
O O17 0.410445 0.810504 0.113824
#
# Coordination Sequence:
#
# PCOD9258834 Si02
#       8
#     8   8   8   8   8   8   8   8
#     4  11  23  36  56  79 109 141 178 222 266 315
#     4   9  17  32  53  78 112 131 174 224 265 313
#     4  10  18  34  56  76 106 139 183 219 262 320
#     4   9  17  30  52  80 104 139 176 215 261 318
#     4   8  17  30  52  81 104 138 173 221 265 306
#     4  10  21  35  54  80 103 145 180 219 271 316
#     4  10  20  32  56  81 104 140 180 217 266 326
#     4  11  21  38  55  78 106 144 182 218 264 322
#
# _framework density 17.713847999999999
#
# number of rings (size 3 to 8) (size 9 to 14) (size 15 to 20)
#    0.000    2.250    2.500    1.500    3.500    0.000 
#    0.000    0.625    0.000    6.000    0.000    0.000 
#    0.000    0.000    0.000    0.000    0.000    0.000 
#
# Total GULP energy -178152.781478 kJ/mol
# GULP energy per Si atom -5567.274421 kJ/mol
# Density = 1.767353 g / cm^3
# Si number density = 17.713848 Si / 1000 Ang^3
#
#
#
# Elastic Constant Matrix: (Units=GPa)
#
#
# Indices 1 2 3 4 5 6 
#
# 1 77.0463 24.3400 26.6199 0.0100 19.0653 -0.0074
# 2 24.3400 69.8123 13.4202 -0.0069 13.8769 0.0028
# 3 26.6199 13.4202 50.8906 0.0075 15.2160 -0.0044
# 4 0.0100 -0.0069 0.0075 17.1175 -0.0078 -0.9348
# 5 19.0653 13.8769 15.2160 -0.0078 31.2497 0.0056
# 6 -0.0074 0.0028 -0.0044 -0.9348 0.0056 14.1353
#
#
#
# Elastic Compliance Matrix: (Units=1/GPa)
#
#
# Indices 1 2 3 4 5 6 
#
# 1 0.017949 -0.003788 -0.006576 -0.000011 -0.006067 0.000010
# 2 -0.003788 0.016766 -0.001059 0.000007 -0.004619 -0.000003
# 3 -0.006576 -0.001059 0.025782 -0.000011 -0.008072 0.000007
# 4 -0.000011 0.000007 -0.000011 0.058632 0.000023 0.003877
# 5 -0.006067 -0.004619 -0.008072 0.000023 0.041683 -0.000020
# 6 0.000010 -0.000003 0.000007 0.003877 -0.000020 0.071001
#
#
# Mechanical properties :
#
#
# Convention : Reuss Voigt Hill
#
# Bulk Modulus (GPa) = 26.55913 36.27885 31.41899
# Shear Modulus (GPa) = 18.71186 21.39178 20.05182
#
# Velocity S-wave (km/s) = 3.25367 3.47887 3.36815
# Velocity P-wave (km/s) = 5.39825 6.05489 5.73597
#
# Compressibility (1/GPa) = 0.03765184
#
# Stress axis : x y z
#
# Youngs Moduli (GPa) = 55.71304 59.64290 38.78613
#
# Poissons Ratio (x) = 0.22592 0.25506
# Poissons Ratio (y) = 0.21104 0.04108
# Poissons Ratio (z) = 0.36637 0.06317
#
# Static dielectric constant tensor:
#      x y z
#    x 1.609980 0.000000 0.003890 
#    y 0.000000 1.648460 0.000010 
#    z 0.003890 0.000010 1.612360 
# 
# From -- ./inp_files/220410.got.cif
#   From: 2010.05.17/outbox.cif.g08.bks.cpg/sg15_111_cif.got.tgz:220410.got - 2010.06.03 18:47:42.
