data_PCOD9258621
_publ_section_title
;
Structure prediction by ZEFSAII (Michael W. Deem and Ramdas Pophale) SiO2 
 PCOD9258621
Probable space group: C 2/C
;
_chemical_formula_sum "Si O2"
_cell_formula_units_Z 64
_cell_length_a 9.437421
_cell_length_b 27.420701
_cell_length_c 19.145909
_cell_angle_alpha 90.000000
_cell_angle_beta 34.414353
_cell_angle_gamma 90.000000
_cell_volume 2800.204849
_symmetry_space_group_name_H-M "C 2/C"
_symmetry_group_IT_number 15
_symmetry_cell_setting 'monoclinic'
loop_
_space_group_symop_operation_xyz
x,y,z
-x,y,1/2-z
-x,-y,-z
x,-y,1/2+z
1/2+x,1/2+y,z
1/2-x,1/2+y,1/2-z
1/2-x,1/2-y,-z
1/2+x,1/2-y,1/2+z
loop_
_atom_site_type_symbol
_atom_site_label
_atom_site_fract_x
_atom_site_fract_y
_atom_site_fract_z
Si Si1 0.043595 0.078400 0.426803
Si Si2 0.062854 0.193423 0.036148
Si Si3 0.014804 0.071542 0.587531
Si Si4 0.085708 0.295383 0.394114
Si Si5 0.749462 0.052010 0.308261
Si Si6 0.249466 0.168444 0.821406
Si Si7 0.621990 0.109316 0.953044
Si Si8 0.024090 0.545478 0.860601
O O1 0.029039 0.137589 0.427007
O O2 0.146637 0.059206 0.460032
O O3 0.761425 0.056455 0.543059
O O4 0.178502 0.062289 0.301246
O O5 0.869159 0.237596 0.119853
O O6 0.284603 0.197490 0.003383
O O7 0.186662 0.204252 0.909819
O O8 0.960936 0.128471 0.597648
O O9 0.746137 0.047361 0.712755
O O10 0.169321 0.075165 0.595764
O O11 0.206315 0.310921 0.272019
O O12 0.167760 0.333138 0.421149
O O13 0.617191 0.097415 0.400966
O O14 0.000000 0.040344 0.250000
O O15 0.565172 0.005651 0.382824
O O16 0.500000 0.142844 0.750000
O O17 0.580698 0.088522 0.892574
#
# Coordination Sequence:
#
# PCOD9258621 Si02
#       8
#     8   8   8   8   8   8   8   8
#     4  11  24  46  64  95 135 176 223 277 339 400
#     4   9  18  35  61  90 124 165 216 276 329 389
#     4  11  23  40  67  93 133 171 220 280 327 391
#     4  10  18  33  61  94 123 165 221 267 333 398
#     4  12  26  43  68  94 138 178 224 284 341 407
#     4   9  17  34  58  88 122 166 212 276 321 385
#     4  12  24  41  64  99 134 169 223 280 335 394
#     4  12  23  43  70  94 127 177 228 277 335 399
#
# _framework density 22.855471000000001
#
# number of rings (size 3 to 8) (size 9 to 14) (size 15 to 20)
#    0.000    1.250    3.750    3.375    1.750    2.000 
#    2.250    5.000    0.000    3.000    0.000    0.000 
#    0.000    0.000    0.000    0.000    0.000    0.000 
#
# Total GULP energy -178513.157104 kJ/mol
# GULP energy per Si atom -5578.536160 kJ/mol
# Density = 2.280345 g / cm^3
# Si number density = 22.855471 Si / 1000 Ang^3
#
#
#
# Elastic Constant Matrix: (Units=GPa)
#
#
# Indices 1 2 3 4 5 6 
#
# 1 53.3394 17.1039 16.1041 -0.0001 11.6889 0.0000
# 2 17.1039 126.1338 30.8988 0.0000 7.7428 0.0000
# 3 16.1041 30.8988 80.3300 -0.0001 24.1613 0.0001
# 4 -0.0001 0.0000 -0.0001 18.2154 0.0001 0.4535
# 5 11.6889 7.7428 24.1613 0.0001 31.5119 -0.0001
# 6 0.0000 0.0000 0.0001 0.4535 -0.0001 17.4839
#
#
#
# Elastic Compliance Matrix: (Units=1/GPa)
#
#
# Indices 1 2 3 4 5 6 
#
# 1 0.021254 -0.002113 -0.001603 0.000000 -0.006136 0.000000
# 2 -0.002113 0.008970 -0.003379 0.000000 0.001170 0.000000
# 3 -0.001603 -0.003379 0.017730 0.000000 -0.012169 0.000000
# 4 0.000000 0.000000 0.000000 0.054934 0.000000 -0.001425
# 5 -0.006136 0.001170 -0.012169 0.000000 0.043053 0.000000
# 6 0.000000 0.000000 0.000000 -0.001425 0.000000 0.057232
#
#
# Mechanical properties :
#
#
# Convention : Reuss Voigt Hill
#
# Bulk Modulus (GPa) = 29.61600 43.11297 36.36448
# Shear Modulus (GPa) = 21.87056 26.48867 24.17961
#
# Velocity S-wave (km/s) = 3.09675 3.40805 3.25612
# Velocity P-wave (km/s) = 5.07667 5.86435 5.48467
#
# Compressibility (1/GPa) = 0.03376554
#
# Stress axis : x y z
#
# Youngs Moduli (GPa) = 47.05029 111.47676 56.40180
#
# Poissons Ratio (x) = 0.23553 0.09039
# Poissons Ratio (y) = 0.09941 0.19058
# Poissons Ratio (z) = 0.07540 0.37667
#
# Static dielectric constant tensor:
#      x y z
#    x 1.944810 0.000000 -0.028050 
#    y 0.000000 1.891820 0.000000 
#    z -0.028050 0.000000 1.893110 
# 
# From -- ./inp_files/194241.got.cif
#   From: 2010.05.17/outbox.cif.g08.bks.cpg/sg15_98_cif.got.tgz:194241.got - 2010.06.03 18:47:42.
