data_PCOD9258977
_publ_section_title
;
Structure prediction by ZEFSAII (Michael W. Deem and Ramdas Pophale) SiO2 
 PCOD9258977
Probable space group: C 2/C
;
_chemical_formula_sum "Si O2"
_cell_formula_units_Z 24
_cell_length_a 16.120755
_cell_length_b 7.965933
_cell_length_c 13.243402
_cell_angle_alpha 90.000000
_cell_angle_beta 34.763703
_cell_angle_gamma 90.000000
_cell_volume 969.713995
_symmetry_space_group_name_H-M "C 2/C"
_symmetry_group_IT_number 15
_symmetry_cell_setting 'monoclinic'
loop_
_space_group_symop_operation_xyz
x,y,z
-x,y,1/2-z
-x,-y,-z
x,-y,1/2+z
1/2+x,1/2+y,z
1/2-x,1/2+y,1/2-z
1/2-x,1/2-y,-z
1/2+x,1/2-y,1/2+z
loop_
_atom_site_type_symbol
_atom_site_label
_atom_site_fract_x
_atom_site_fract_y
_atom_site_fract_z
Si Si1 0.499999 0.682799 0.364301
Si Si2 0.250001 0.750000 0.248654
Si Si3 0.500000 0.911666 0.635264
O O1 0.500000 0.617658 0.250000
O O2 0.645526 0.642970 0.280695
O O3 0.354470 0.642972 0.571750
O O4 0.500000 0.886655 0.360619
O O5 0.138411 0.653403 0.288111
O O6 0.361589 0.846597 0.064932
O O7 0.500000 0.848510 0.750000
#
# Coordination Sequence:
#
# PCOD9258977 Si02
#       3
#     8   8   8
#     4  10  21  37  56  79 108 141 177 218 264 314
#     4  10  18  34  58  80 104 140 178 218 262 312
#     4  10  21  37  56  79 108 141 177 218 264 314
#
# _framework density 24.749566999999999
#
# number of rings (size 3 to 8) (size 9 to 14) (size 15 to 20)
#    0.000    2.000    0.000    6.000    0.000    0.000 
#    0.000   26.667    0.000   48.000    0.000    0.000 
#    0.000    0.000    0.000    0.000    0.000    0.000 
#
# Total GULP energy -67238.209334 kJ/mol
# GULP energy per Si atom -5603.184111 kJ/mol
# Density = 2.469324 g / cm^3
# Si number density = 24.749567 Si / 1000 Ang^3
#
#
#
# Elastic Constant Matrix: (Units=GPa)
#
#
# Indices 1 2 3 4 5 6 
#
# 1 229.6263 37.5479 161.2534 0.0000 29.2384 0.0000
# 2 37.5479 57.5354 40.6295 0.0000 -3.0846 0.0000
# 3 161.2534 40.6295 211.1639 0.0000 -10.7258 0.0000
# 4 0.0000 0.0000 0.0000 32.3537 0.0000 1.1235
# 5 29.2384 -3.0846 -10.7258 0.0000 59.6276 0.0000
# 6 0.0000 0.0000 0.0000 1.1235 0.0000 33.4730
#
#
#
# Elastic Compliance Matrix: (Units=1/GPa)
#
#
# Indices 1 2 3 4 5 6 
#
# 1 0.012234 -0.001764 -0.009398 0.000000 -0.007781 0.000000
# 2 -0.001764 0.020375 -0.002498 0.000000 0.001470 0.000000
# 3 -0.009398 -0.002498 0.012737 0.000000 0.006770 0.000000
# 4 0.000000 0.000000 0.000000 0.030944 0.000000 -0.001039
# 5 -0.007781 0.001470 0.006770 0.000000 0.021880 0.000000
# 6 0.000000 0.000000 0.000000 -0.001039 0.000000 0.029910
#
#
# Mechanical properties :
#
#
# Convention : Reuss Voigt Hill
#
# Bulk Modulus (GPa) = 55.48020 108.57635 82.02828
# Shear Modulus (GPa) = 30.97725 42.35052 36.66389
#
# Velocity S-wave (km/s) = 3.54167 4.14111 3.85307
# Velocity P-wave (km/s) = 6.26018 8.17498 7.28080
#
# Compressibility (1/GPa) = 0.01802445
#
# Stress axis : x y z
#
# Youngs Moduli (GPa) = 81.74139 49.07959 78.51254
#
# Poissons Ratio (x) = 0.08660 0.73785
# Poissons Ratio (y) = 0.14423 0.19614
# Poissons Ratio (z) = 0.76819 0.12261
#
# Static dielectric constant tensor:
#      x y z
#    x 1.930170 0.000000 0.016150 
#    y 0.000000 1.998630 0.000000 
#    z 0.016150 0.000000 1.914050 
# 
# From -- ./inp_files/27068.got.cif
#   From: 2010.05.17/outbox.cif.g08.bks.cpg/sg15_14_cif.got.tgz:27068.got - 2010.06.03 18:47:42.
