data_PCOD9258228
_publ_section_title
;
Structure prediction by ZEFSAII (Michael W. Deem and Ramdas Pophale) SiO2 
 PCOD9258228
Probable space group: C 2/C
;
_chemical_formula_sum "Si O2"
_cell_formula_units_Z 52
_cell_length_a 23.113703
_cell_length_b 17.507458
_cell_length_c 17.059022
_cell_angle_alpha 90.000000
_cell_angle_beta 158.432736
_cell_angle_gamma 90.000000
_cell_volume 2537.548171
_symmetry_space_group_name_H-M "C 2/C"
_symmetry_group_IT_number 15
_symmetry_cell_setting 'monoclinic'
loop_
_space_group_symop_operation_xyz
x,y,z
-x,y,1/2-z
-x,-y,-z
x,-y,1/2+z
1/2+x,1/2+y,z
1/2-x,1/2+y,1/2-z
1/2-x,1/2-y,-z
1/2+x,1/2-y,1/2+z
loop_
_atom_site_type_symbol
_atom_site_label
_atom_site_fract_x
_atom_site_fract_y
_atom_site_fract_z
Si Si1 0.574213 0.518275 0.424367
Si Si2 0.000000 0.415088 0.750000
Si Si3 0.649788 0.058643 0.143338
Si Si4 0.642015 0.681984 0.559415
Si Si5 0.279697 0.299071 0.614062
Si Si6 0.737693 0.539885 0.383606
Si Si7 0.550136 0.113914 0.484588
O O1 0.500000 0.493638 0.250000
O O2 0.719969 0.466925 0.630499
O O3 0.628079 0.606447 0.486987
O O4 0.440457 0.516267 0.322591
O O5 0.850206 0.470586 0.548366
O O6 0.014860 0.371515 0.684950
O O7 0.737810 0.073125 0.172744
O O8 0.549739 0.124608 0.060443
O O9 0.563221 0.979055 0.009108
O O10 0.465584 0.694156 0.368343
O O11 0.691890 0.755547 0.573138
O O12 0.781346 0.655281 0.793635
O O13 0.250000 0.250000 0.500000
O O14 0.223093 0.383940 0.518979
#
# Coordination Sequence:
#
# PCOD9258228 Si02
#       7
#     8   4   8   8   8   8   8
#     4  10  18  33  51  79 114 147 183 234 286 342
#     4  10  20  36  60  84 110 148 194 242 290 346
#     4   9  18  32  53  79 111 145 184 234 293 346
#     4  10  22  36  54  78 117 152 190 232 285 340
#     4  11  23  36  54  83 115 157 190 231 278 349
#     4  10  21  32  52  82 113 146 185 236 287 344
#     4   9  19  35  55  81 109 148 190 239 288 340
#
# _framework density 20.492222999999999
#
# number of rings (size 3 to 8) (size 9 to 14) (size 15 to 20)
#    0.000    2.154    0.000    3.692    4.308    4.923 
#    0.000    0.000    0.000    0.923    2.000    0.000 
#    0.000    0.000    0.000    0.000    0.000    0.000 
#
# Total GULP energy -144808.834808 kJ/mol
# GULP energy per Si atom -5569.570570 kJ/mol
# Density = 2.044558 g / cm^3
# Si number density = 20.492223 Si / 1000 Ang^3
#
#
#
# Elastic Constant Matrix: (Units=GPa)
#
#
# Indices 1 2 3 4 5 6 
#
# 1 90.9622 -18.0438 26.7761 0.0000 -3.4774 0.0000
# 2 -18.0438 12.7823 -4.3799 0.0000 9.4363 0.0000
# 3 26.7761 -4.3799 78.0677 0.0000 -0.4546 0.0000
# 4 0.0000 0.0000 0.0000 27.3320 0.0000 5.4823
# 5 -3.4774 9.4363 -0.4546 0.0000 40.4785 0.0000
# 6 0.0000 0.0000 0.0000 5.4823 0.0000 15.4411
#
#
#
# Elastic Compliance Matrix: (Units=1/GPa)
#
#
# Indices 1 2 3 4 5 6 
#
# 1 0.017399 0.026512 -0.004508 0.000000 -0.004737 0.000000
# 2 0.026512 0.137033 -0.001578 0.000000 -0.029685 0.000000
# 3 -0.004508 -0.001578 0.014268 0.000000 0.000141 0.000000
# 4 0.000000 0.000000 0.000000 0.039392 0.000000 -0.013986
# 5 -0.004737 -0.029685 0.000141 0.000000 0.031219 0.000000
# 6 0.000000 0.000000 0.000000 -0.013986 0.000000 0.069728
#
#
# Mechanical properties :
#
#
# Convention : Reuss Voigt Hill
#
# Bulk Modulus (GPa) = 4.77208 21.16856 12.97032
# Shear Modulus (GPa) = 14.79129 28.48096 21.63613
#
# Velocity S-wave (km/s) = 2.68955 3.73210 3.25287
# Velocity P-wave (km/s) = 3.46102 5.37810 4.52231
#
# Compressibility (1/GPa) = 0.20955235
#
# Stress axis : x y z
#
# Youngs Moduli (GPa) = 57.47607 7.29752 70.08828
#
# Poissons Ratio (x) = -0.19347 0.31593
# Poissons Ratio (y) = -1.52383 0.11061
# Poissons Ratio (z) = 0.25908 0.01152
#
# Static dielectric constant tensor:
#      x y z
#    x 1.914750 0.000000 0.059130 
#    y 0.000000 1.759690 0.000000 
#    z 0.059130 0.000000 1.749900 
# 
# From -- ./inp_files/220133.got.cif
#   From: 2010.05.17/outbox.cif.g08.bks.cpg/sg15_111_cif.got.tgz:220133.got - 2010.06.03 18:47:42.
