data_PCOD9258369
_publ_section_title
;
Structure prediction by ZEFSAII (Michael W. Deem and Ramdas Pophale) SiO2 
 PCOD9258369
Probable space group: C 2/C
;
_chemical_formula_sum "Si O2"
_cell_formula_units_Z 48
_cell_length_a 9.186980
_cell_length_b 18.782228
_cell_length_c 13.140105
_cell_angle_alpha 90.000000
_cell_angle_beta 85.397439
_cell_angle_gamma 90.000000
_cell_volume 2260.039238
_symmetry_space_group_name_H-M "C 2/C"
_symmetry_group_IT_number 15
_symmetry_cell_setting 'monoclinic'
loop_
_space_group_symop_operation_xyz
x,y,z
-x,y,1/2-z
-x,-y,-z
x,-y,1/2+z
1/2+x,1/2+y,z
1/2-x,1/2+y,1/2-z
1/2-x,1/2-y,-z
1/2+x,1/2-y,1/2+z
loop_
_atom_site_type_symbol
_atom_site_label
_atom_site_fract_x
_atom_site_fract_y
_atom_site_fract_z
Si Si1 0.308491 0.084643 0.307778
Si Si2 0.515956 0.455254 0.599642
Si Si3 0.746308 0.449961 0.199908
Si Si4 0.954269 0.581836 0.508999
Si Si5 0.137512 0.341966 0.161528
Si Si6 0.352278 0.679640 0.328208
O O1 0.407869 0.103456 0.398237
O O2 0.279180 0.148650 0.232072
O O3 0.147387 0.065177 0.359370
O O4 0.345634 0.013106 0.242922
O O5 0.500000 0.500000 0.500000
O O6 0.605586 0.507294 0.669462
O O7 0.607428 0.381406 0.592140
O O8 0.818384 0.416363 0.095123
O O9 0.741383 0.390147 0.288049
O O10 0.000000 0.500000 0.500000
O O11 0.080918 0.624206 0.559813
O O12 0.177305 0.260243 0.139776
O O13 0.000000 0.344090 0.250000
O O14 0.500000 0.681650 0.250000
#
# Coordination Sequence:
#
# PCOD9258369 Si02
#       6
#     8   8   8   8   8   8
#     4  10  19  34  55  79 105 139 174 218 264 309
#     4  10  18  33  55  80 101 134 181 218 260 307
#     4  10  19  33  54  76 104 139 173 219 258 307
#     4  11  20  32  54  82 106 138 177 213 261 319
#     4   9  18  33  49  77 110 137 170 216 266 309
#     4   8  17  33  50  74 110 136 167 222 265 300
#
# _framework density 21.238568999999998
#
# number of rings (size 3 to 8) (size 9 to 14) (size 15 to 20)
#    0.000    2.333    3.333    1.500    0.000    0.000 
#    3.000    3.333    0.000    9.000    8.667    0.000 
#    0.000    0.000    0.000    0.000    0.000    0.000 
#
# Total GULP energy -133896.240024 kJ/mol
# GULP energy per Si atom -5579.010001 kJ/mol
# Density = 2.119023 g / cm^3
# Si number density = 21.238569 Si / 1000 Ang^3
#
#
#
# Elastic Constant Matrix: (Units=GPa)
#
#
# Indices 1 2 3 4 5 6 
#
# 1 62.6599 20.7731 25.9299 0.0000 14.5057 0.0000
# 2 20.7731 182.5652 74.5323 0.0000 34.9497 0.0000
# 3 25.9299 74.5323 144.1010 0.0000 46.5602 0.0000
# 4 0.0000 0.0000 0.0000 27.7374 0.0000 -0.4331
# 5 14.5057 34.9497 46.5602 0.0000 31.3445 0.0000
# 6 0.0000 0.0000 0.0000 -0.4331 0.0000 12.5986
#
#
#
# Elastic Compliance Matrix: (Units=1/GPa)
#
#
# Indices 1 2 3 4 5 6 
#
# 1 0.017982 -0.000431 -0.000922 0.000000 -0.006472 0.000000
# 2 -0.000431 0.007322 -0.002185 0.000000 -0.004720 0.000000
# 3 -0.000922 -0.002185 0.014057 0.000000 -0.018019 0.000000
# 4 0.000000 0.000000 0.000000 0.036072 0.000000 0.001240
# 5 -0.006472 -0.004720 -0.018019 0.000000 0.066927 0.000000
# 6 0.000000 0.000000 0.000000 0.001240 0.000000 0.079417
#
#
# Mechanical properties :
#
#
# Convention : Reuss Voigt Hill
#
# Bulk Modulus (GPa) = 30.97213 70.19964 50.58589
# Shear Modulus (GPa) = 20.86697 32.20881 26.53789
#
# Velocity S-wave (km/s) = 3.13789 3.89848 3.53868
# Velocity P-wave (km/s) = 5.26717 7.30677 6.36914
#
# Compressibility (1/GPa) = 0.03228709
#
# Stress axis : x y z
#
# Youngs Moduli (GPa) = 55.61217 136.57709 71.13682
#
# Poissons Ratio (x) = 0.05883 0.06556
# Poissons Ratio (y) = 0.02395 0.15540
# Poissons Ratio (z) = 0.05125 0.29836
#
# Static dielectric constant tensor:
#      x y z
#    x 1.861550 0.000000 -0.047750 
#    y 0.000000 1.754180 0.000000 
#    z -0.047750 0.000000 1.829970 
# 
# From -- ./inp_files/144985.got.cif
#   From: 2010.05.17/outbox.cif.g08.bks.cpg/sg15_73_cif.got.tgz:144985.got - 2010.06.03 18:47:42.
