data_PCOD9258753
_publ_section_title
;
Structure prediction by ZEFSAII (Michael W. Deem and Ramdas Pophale) SiO2 
 PCOD9258753
Probable space group: C 2/C
;
_chemical_formula_sum "Si O2"
_cell_formula_units_Z 52
_cell_length_a 13.952518
_cell_length_b 9.941503
_cell_length_c 30.172219
_cell_angle_alpha 90.000000
_cell_angle_beta 139.676902
_cell_angle_gamma 90.000000
_cell_volume 2708.204167
_symmetry_space_group_name_H-M "C 2/C"
_symmetry_group_IT_number 15
_symmetry_cell_setting 'monoclinic'
loop_
_space_group_symop_operation_xyz
x,y,z
-x,y,1/2-z
-x,-y,-z
x,-y,1/2+z
1/2+x,1/2+y,z
1/2-x,1/2+y,1/2-z
1/2-x,1/2-y,-z
1/2+x,1/2-y,1/2+z
loop_
_atom_site_type_symbol
_atom_site_label
_atom_site_fract_x
_atom_site_fract_y
_atom_site_fract_z
Si Si1 0.494838 0.273559 0.151004
Si Si2 0.500000 0.271386 0.250000
Si Si3 0.592224 0.989841 0.924827
Si Si4 0.720011 0.472411 0.920772
Si Si5 0.799959 0.275070 0.210846
Si Si6 0.373102 0.177774 0.640305
Si Si7 0.769785 0.522998 0.840477
O O1 0.487854 0.204185 0.197452
O O2 0.425223 0.167812 0.092126
O O3 0.405965 0.412738 0.121765
O O4 0.661015 0.302597 0.193230
O O5 0.353803 0.362785 0.204850
O O6 0.663833 0.065194 0.908466
O O7 0.424702 0.046059 0.870985
O O8 0.681286 0.015431 0.000938
O O9 0.656002 0.323102 0.891993
O O10 0.805656 0.499603 0.904957
O O11 0.784887 0.332819 0.155641
O O12 0.954290 0.324539 0.285013
O O13 0.802932 0.113525 0.204305
#
# Coordination Sequence:
#
# PCOD9258753 Si02
#       7
#     8   4   8   8   8   8   8
#     4  10  21  35  55  76 106 137 169 217 263 311
#     4  10  18  34  54  82 102 130 178 222 262 298
#     4  11  21  34  52  81 109 139 172 212 263 312
#     4  10  20  37  54  75 105 144 179 209 252 314
#     4   9  18  35  54  78 103 135 172 213 272 306
#     4  10  20  34  56  77 104 135 174 221 255 308
#     4   9  18  33  57  77 102 139 181 218 248 307
#
# _framework density 19.200914999999998
#
# number of rings (size 3 to 8) (size 9 to 14) (size 15 to 20)
#    0.000    2.154    0.000    5.077    0.000    2.462 
#    0.000    3.846    0.000    0.000    0.000    0.000 
#    0.000    0.000    0.000    0.000    0.000    0.000 
#
# Total GULP energy -145066.441035 kJ/mol
# GULP energy per Si atom -5579.478501 kJ/mol
# Density = 1.915721 g / cm^3
# Si number density = 19.200915 Si / 1000 Ang^3
#
#
#
# Elastic Constant Matrix: (Units=GPa)
#
#
# Indices 1 2 3 4 5 6 
#
# 1 94.5102 11.9551 9.2081 0.0000 -6.6192 0.0000
# 2 11.9551 22.7807 0.6862 0.0000 -1.2829 0.0000
# 3 9.2081 0.6862 69.9360 0.0000 -20.6609 0.0000
# 4 0.0000 0.0000 0.0000 41.3116 0.0000 33.8118
# 5 -6.6192 -1.2829 -20.6609 0.0000 22.2409 0.0000
# 6 0.0000 0.0000 0.0000 33.8118 0.0000 91.0924
#
#
#
# Elastic Compliance Matrix: (Units=1/GPa)
#
#
# Indices 1 2 3 4 5 6 
#
# 1 0.011571 -0.005914 -0.000756 0.000000 0.002400 0.000000
# 2 -0.005914 0.047073 0.000826 0.000000 0.001722 0.000000
# 3 -0.000756 0.000826 0.019761 0.000000 0.018180 0.000000
# 4 0.000000 0.000000 0.000000 0.034769 0.000000 -0.012906
# 5 0.002400 0.001722 0.018180 0.000000 0.062664 0.000000
# 6 0.000000 0.000000 0.000000 -0.012906 0.000000 0.015768
#
#
# Mechanical properties :
#
#
# Convention : Reuss Voigt Hill
#
# Bulk Modulus (GPa) = 14.98932 25.65841 20.32387
# Shear Modulus (GPa) = 22.16958 41.95415 32.06187
#
# Velocity S-wave (km/s) = 3.40164 4.67948 4.09076
# Velocity P-wave (km/s) = 4.82201 6.52601 5.73762
#
# Compressibility (1/GPa) = 0.06671416
#
# Stress axis : x y z
#
# Youngs Moduli (GPa) = 86.42458 21.24373 50.60452
#
# Poissons Ratio (x) = 0.12564 0.03828
# Poissons Ratio (y) = 0.51114 -0.04178
# Poissons Ratio (z) = 0.06538 -0.01754
#
# Static dielectric constant tensor:
#      x y z
#    x 1.669960 0.000000 -0.026090 
#    y 0.000000 1.655390 0.000000 
#    z -0.026090 0.000000 1.664170 
# 
# From -- ./inp_files/236892.got.cif
#   From: 2010.05.17/outbox.cif.g08.bks.cpg/sg15_119_cif.got.tgz:236892.got - 2010.06.03 18:47:42.
