data_PCOD9258611
_publ_section_title
;
Structure prediction by ZEFSAII (Michael W. Deem and Ramdas Pophale) SiO2 
 PCOD9258611
Probable space group: C 2/C
;
_chemical_formula_sum "Si O2"
_cell_formula_units_Z 64
_cell_length_a 13.951843
_cell_length_b 15.802175
_cell_length_c 17.172912
_cell_angle_alpha 90.000000
_cell_angle_beta 63.803250
_cell_angle_gamma 90.000000
_cell_volume 3397.207162
_symmetry_space_group_name_H-M "C 2/C"
_symmetry_group_IT_number 15
_symmetry_cell_setting 'monoclinic'
loop_
_space_group_symop_operation_xyz
x,y,z
-x,y,1/2-z
-x,-y,-z
x,-y,1/2+z
1/2+x,1/2+y,z
1/2-x,1/2+y,1/2-z
1/2-x,1/2-y,-z
1/2+x,1/2-y,1/2+z
loop_
_atom_site_type_symbol
_atom_site_label
_atom_site_fract_x
_atom_site_fract_y
_atom_site_fract_z
Si Si1 0.100891 0.731126 0.389021
Si Si2 0.689055 0.933087 0.441001
Si Si3 0.763776 0.892773 0.112736
Si Si4 0.119190 0.556020 0.805660
Si Si5 0.700368 0.577925 0.440196
Si Si6 0.366297 0.748973 0.999855
Si Si7 0.596378 0.102389 0.536325
Si Si8 0.111064 0.372439 0.741723
O O1 0.158363 0.816198 0.395746
O O2 0.100926 0.665273 0.461333
O O3 0.154065 0.689506 0.293431
O O4 0.976462 0.748331 0.413468
O O5 0.705252 0.953127 0.344865
O O6 0.781402 0.931411 0.473084
O O7 0.639439 0.839540 0.456907
O O8 0.611136 0.006172 0.500423
O O9 0.676778 0.900820 0.212662
O O10 0.695947 0.880160 0.058063
O O11 0.822490 0.984537 0.084271
O O12 0.086708 0.461976 0.791387
O O13 0.012854 0.601889 0.874910
O O14 0.628031 0.660900 0.454650
O O15 0.809894 0.606362 0.357610
O O16 0.250000 0.750000 0.000000
O O17 0.000000 0.338258 0.750000
#
# Coordination Sequence:
#
# PCOD9258611 Si02
#       8
#     8   8   8   8   8   8   8   8
#     4  12  23  36  58  85 117 154 189 233 290 340
#     4  10  18  33  61  87 112 143 188 236 293 343
#     4  10  24  38  54  86 115 152 190 233 280 343
#     4  11  19  35  60  82 116 146 187 235 299 338
#     4   9  21  38  56  78 117 153 191 230 279 339
#     4  10  20  36  58  84 107 148 194 231 281 340
#     4  11  20  37  59  86 116 148 186 239 288 348
#     4  11  21  34  55  88 116 140 180 248 295 333
#
# _framework density 18.839005
#
# number of rings (size 3 to 8) (size 9 to 14) (size 15 to 20)
#    0.000    1.500    2.500    5.625    1.750    0.500 
#    0.000    0.000    0.000    0.000    0.000    0.000 
#    0.000    0.000    0.000    0.000    0.000    0.000 
#
# Total GULP energy -178217.151635 kJ/mol
# GULP energy per Si atom -5569.285989 kJ/mol
# Density = 1.879613 g / cm^3
# Si number density = 18.839005 Si / 1000 Ang^3
#
#
#
# Elastic Constant Matrix: (Units=GPa)
#
#
# Indices 1 2 3 4 5 6 
#
# 1 59.8147 32.1840 19.0159 0.0000 14.4120 0.0000
# 2 32.1840 128.3633 24.4775 0.0000 3.2192 0.0000
# 3 19.0159 24.4775 52.7357 0.0000 21.8643 0.0000
# 4 0.0000 0.0000 0.0000 25.3369 0.0000 4.4064
# 5 14.4120 3.2192 21.8643 0.0000 22.2663 0.0000
# 6 0.0000 0.0000 0.0000 4.4064 0.0000 -1.5310
#
#
#
# Elastic Compliance Matrix: (Units=1/GPa)
#
#
# Indices 1 2 3 4 5 6 
#
# 1 0.023041 -0.005444 0.000127 0.000000 -0.014251 0.000000
# 2 -0.005444 0.010107 -0.006044 0.000000 0.007997 0.000000
# 3 0.000127 -0.006044 0.036084 0.000000 -0.034641 0.000000
# 4 0.000000 0.000000 0.000000 0.026303 0.000000 0.075701
# 5 -0.014251 0.007997 -0.034641 0.000000 0.086994 0.000000
# 6 0.000000 0.000000 0.000000 0.075701 0.000000 -0.435286
#
#
# Mechanical properties :
#
#
# Convention : Reuss Voigt Hill
#
# Bulk Modulus (GPa) = 21.50051 43.58539 32.54295
# Shear Modulus (GPa) = -23.30658 20.23018 -1.53820
#
# Velocity S-wave (km/s) = -3.52112 3.28051 -0.90458
# Velocity P-wave (km/s) = 2.25689 6.12658 4.02749
#
# Compressibility (1/GPa) = 0.04651053
#
# Stress axis : x y z
#
# Youngs Moduli (GPa) = 43.40160 98.93924 27.71294
#
# Poissons Ratio (x) = 0.53859 -0.00351
# Poissons Ratio (y) = 0.23626 0.16749
# Poissons Ratio (z) = -0.00550 0.59798
#
# Static dielectric constant tensor:
#      x y z
#    x 1.692560 0.000000 0.034750 
#    y 0.000000 1.683210 0.000000 
#    z 0.034750 0.000000 1.664650 
# 
# From -- ./inp_files/205392.got.cif
#   From: 2010.05.17/outbox.cif.g08.bks.cpg/sg15_103_cif.got.tgz:205392.got - 2010.06.03 18:47:42.
