data_PCOD9258047
_publ_section_title
;
Structure prediction by ZEFSAII (Michael W. Deem and Ramdas Pophale) SiO2 
 PCOD9258047
Probable space group: C 2/C
;
_chemical_formula_sum "Si O2"
_cell_formula_units_Z 60
_cell_length_a 21.634695
_cell_length_b 15.216320
_cell_length_c 14.664134
_cell_angle_alpha 90.000000
_cell_angle_beta 137.357703
_cell_angle_gamma 90.000000
_cell_volume 3270.200078
_symmetry_space_group_name_H-M "C 2/C"
_symmetry_group_IT_number 15
_symmetry_cell_setting 'monoclinic'
loop_
_space_group_symop_operation_xyz
x,y,z
-x,y,1/2-z
-x,-y,-z
x,-y,1/2+z
1/2+x,1/2+y,z
1/2-x,1/2+y,1/2-z
1/2-x,1/2-y,-z
1/2+x,1/2-y,1/2+z
loop_
_atom_site_type_symbol
_atom_site_label
_atom_site_fract_x
_atom_site_fract_y
_atom_site_fract_z
Si Si1 0.531796 0.922773 0.470481
Si Si2 0.023751 0.753277 0.084793
Si Si3 0.853783 0.188775 0.301843
Si Si4 0.768886 0.250979 0.666501
Si Si5 0.500000 0.835609 0.750000
Si Si6 0.087811 0.320686 0.291684
Si Si7 0.197284 0.608986 0.446340
Si Si8 0.713704 0.070531 0.056250
O O1 0.531643 0.833252 0.529396
O O2 0.458908 0.902797 0.311740
O O3 0.630706 0.946072 0.537071
O O4 0.500000 0.000000 0.500000
O O5 0.128090 0.782657 0.206873
O O6 0.990444 0.723878 0.149124
O O7 0.950310 0.818075 0.959642
O O8 0.784985 0.234150 0.299002
O O9 0.873489 0.253198 0.239123
O O10 0.802139 0.104453 0.205765
O O11 0.772937 0.343799 0.615325
O O12 0.722024 0.179770 0.550925
O O13 0.411997 0.894307 0.672054
O O14 0.167866 0.353692 0.444147
O O15 0.000000 0.281777 0.250000
O O16 0.233148 0.514347 0.515084
#
# Coordination Sequence:
#
# PCOD9258047 Si02
#       8
#     8   8   8   8   4   8   8   8
#     4  10  20  32  54  90 124 148 193 247 302 363
#     4  10  20  35  58  86 118 158 196 246 293 356
#     4  11  21  40  61  86 120 159 206 237 299 367
#     4  10  21  40  58  88 119 158 202 247 301 366
#     4  10  18  32  58  86 122 154 186 244 324 346
#     4   9  22  37  57  87 123 158 194 245 305 364
#     4  10  22  36  58  88 123 152 199 249 308 357
#     4  11  22  36  57  87 124 160 196 245 301 360
#
# _framework density 18.347501999999999
#
# number of rings (size 3 to 8) (size 9 to 14) (size 15 to 20)
#    0.000    1.867    2.667    1.200    8.400    0.000 
#    0.000    0.667    0.000    1.600    0.000    0.000 
#    0.000    0.000    0.000    0.000    0.000    0.000 
#
# Total GULP energy -167360.463249 kJ/mol
# GULP energy per Si atom -5578.682108 kJ/mol
# Density = 1.830574 g / cm^3
# Si number density = 18.347502 Si / 1000 Ang^3
#
#
#
# Elastic Constant Matrix: (Units=GPa)
#
#
# Indices 1 2 3 4 5 6 
#
# 1 107.6635 26.1443 26.3626 0.0000 -10.4485 0.0000
# 2 26.1443 44.2706 25.6259 0.0000 5.9297 0.0000
# 3 26.3626 25.6259 96.7103 0.0000 5.5104 0.0000
# 4 0.0000 0.0000 0.0000 28.2466 0.0000 -6.8670
# 5 -10.4485 5.9297 5.5104 0.0000 29.4452 0.0000
# 6 0.0000 0.0000 0.0000 -6.8670 0.0000 9.2759
#
#
#
# Elastic Compliance Matrix: (Units=1/GPa)
#
#
# Indices 1 2 3 4 5 6 
#
# 1 0.011962 -0.006825 -0.001792 0.000000 0.005954 0.000000
# 2 -0.006825 0.031072 -0.005942 0.000000 -0.007567 0.000000
# 3 -0.001792 -0.005942 0.012504 0.000000 -0.001779 0.000000
# 4 0.000000 0.000000 0.000000 0.043172 0.000000 0.031961
# 5 0.005954 -0.007567 -0.001779 0.000000 0.037931 0.000000
# 6 0.000000 0.000000 0.000000 0.031961 0.000000 0.131467
#
#
# Mechanical properties :
#
#
# Convention : Reuss Voigt Hill
#
# Bulk Modulus (GPa) = 37.84746 44.99001 41.41873
# Shear Modulus (GPa) = 16.33814 24.76096 20.54955
#
# Velocity S-wave (km/s) = 2.98733 3.67761 3.35030
# Velocity P-wave (km/s) = 5.70717 6.52744 6.13104
#
# Compressibility (1/GPa) = 0.02642185
#
# Stress axis : x y z
#
# Youngs Moduli (GPa) = 83.59797 32.18376 79.97220
#
# Poissons Ratio (x) = 0.21964 0.14328
# Poissons Ratio (y) = 0.57053 0.47517
# Poissons Ratio (z) = 0.14978 0.19123
#
# Static dielectric constant tensor:
#      x y z
#    x 1.630990 0.000000 -0.008140 
#    y 0.000000 1.605160 0.000000 
#    z -0.008140 0.000000 1.707910 
# 
# From -- ./inp_files/168293.got.cif
#   From: 2010.05.17/outbox.cif.g08.bks.cpg/sg15_85_cif.got.tgz:168293.got - 2010.06.03 18:47:42.
