data_PCOD9258319
_publ_section_title
;
Structure prediction by ZEFSAII (Michael W. Deem and Ramdas Pophale) SiO2 
 PCOD9258319
Probable space group: C 2/C
;
_chemical_formula_sum "Si O2"
_cell_formula_units_Z 52
_cell_length_a 20.366127
_cell_length_b 5.325012
_cell_length_c 19.889145
_cell_angle_alpha 90.000000
_cell_angle_beta 93.631159
_cell_angle_gamma 90.000000
_cell_volume 2152.644932
_symmetry_space_group_name_H-M "C 2/C"
_symmetry_group_IT_number 15
_symmetry_cell_setting 'monoclinic'
loop_
_space_group_symop_operation_xyz
x,y,z
-x,y,1/2-z
-x,-y,-z
x,-y,1/2+z
1/2+x,1/2+y,z
1/2-x,1/2+y,1/2-z
1/2-x,1/2-y,-z
1/2+x,1/2-y,1/2+z
loop_
_atom_site_type_symbol
_atom_site_label
_atom_site_fract_x
_atom_site_fract_y
_atom_site_fract_z
Si Si1 0.011899 0.483123 0.110391
Si Si2 0.253035 0.460413 0.162196
Si Si3 0.825417 0.538981 0.721704
Si Si4 0.072016 0.864599 0.831294
Si Si5 0.327452 0.471775 0.545710
Si Si6 0.612568 0.963124 0.999475
Si Si7 0.000000 0.240353 0.750000
O O1 0.994986 0.201648 0.134384
O O2 0.946707 0.547981 0.060849
O O3 0.016987 0.627863 0.180847
O O4 0.073914 0.504705 0.066180
O O5 0.184633 0.452263 0.198635
O O6 0.284347 0.720140 0.191876
O O7 0.260232 0.481515 0.082550
O O8 0.293750 0.212519 0.188574
O O9 0.896937 0.610868 0.698457
O O10 0.120374 0.973151 0.889531
O O11 0.060512 0.057386 0.771757
O O12 0.340864 0.198955 0.515648
O O13 0.348568 0.701406 0.500711
#
# Coordination Sequence:
#
# PCOD9258319 Si02
#       7
#     8   8   8   8   8   8   4
#     4  10  22  35  51  76 106 144 185 225 263 320
#     4   9  16  30  50  79 105 134 171 215 279 332
#     4   9  18  29  50  75 108 138 168 218 277 327
#     4  10  21  33  51  75 111 143 181 220 272 318
#     4  10  18  33  54  78 105 138 172 221 272 323
#     4  10  21  34  56  76 107 141 182 221 274 310
#     4  12  22  36  52  74 108 152 188 220 262 320
#
# _framework density 24.156331000000002
#
# number of rings (size 3 to 8) (size 9 to 14) (size 15 to 20)
#    0.000    2.154    1.538    3.231    4.308    1.846 
#    0.000    0.000    0.000    0.000    0.000    2.154 
#    0.000    0.000    0.000    0.000    0.000    0.000 
#
# Total GULP energy -145162.391147 kJ/mol
# GULP energy per Si atom -5583.168890 kJ/mol
# Density = 2.410135 g / cm^3
# Si number density = 24.156331 Si / 1000 Ang^3
#
#
#
# Elastic Constant Matrix: (Units=GPa)
#
#
# Indices 1 2 3 4 5 6 
#
# 1 39.9881 26.7287 66.9085 0.0000 -12.0415 0.0000
# 2 26.7287 127.4926 45.0400 0.0000 -1.1140 0.0000
# 3 66.9085 45.0400 160.8295 0.0000 -25.4505 0.0000
# 4 0.0000 0.0000 0.0000 28.7687 0.0000 10.0833
# 5 -12.0415 -1.1140 -25.4505 0.0000 61.5722 0.0000
# 6 0.0000 0.0000 0.0000 10.0833 0.0000 -1.4865
#
#
#
# Elastic Compliance Matrix: (Units=1/GPa)
#
#
# Indices 1 2 3 4 5 6 
#
# 1 0.086688 -0.006179 -0.033885 0.000000 0.002835 0.000000
# 2 -0.006179 0.009193 -0.000181 0.000000 -0.001117 0.000000
# 3 -0.033885 -0.000181 0.020668 0.000000 0.001913 0.000000
# 4 0.000000 0.000000 0.000000 0.010292 0.000000 0.069811
# 5 0.002835 -0.001117 0.001913 0.000000 0.017566 0.000000
# 6 0.000000 0.000000 0.000000 0.069811 0.000000 -0.199180
#
#
# Mechanical properties :
#
#
# Convention : Reuss Voigt Hill
#
# Bulk Modulus (GPa) = 27.73149 67.29610 47.51379
# Shear Modulus (GPa) = 132.50160 30.41308 81.45734
#
# Velocity S-wave (km/s) = 7.41423 3.55210 5.81327
# Velocity P-wave (km/s) = 9.20865 6.68897 8.04803
#
# Compressibility (1/GPa) = 0.03606009
#
# Stress axis : x y z
#
# Youngs Moduli (GPa) = 11.53566 108.77806 48.38400
#
# Poissons Ratio (x) = 0.67209 1.63949
# Poissons Ratio (y) = 0.07127 0.00875
# Poissons Ratio (z) = 0.39089 0.01967
#
# Static dielectric constant tensor:
#      x y z
#    x 2.056520 0.000000 -0.019830 
#    y 0.000000 1.930540 0.000000 
#    z -0.019830 0.000000 1.929670 
# 
# From -- ./inp_files/220920.got.cif
#   From: 2010.05.17/outbox.cif.g08.bks.cpg/sg15_111_cif.got.tgz:220920.got - 2010.06.03 18:47:42.
