data_PCOD9258458
_publ_section_title
;
Structure prediction by ZEFSAII (Michael W. Deem and Ramdas Pophale) SiO2 
 PCOD9258458
Probable space group: C 2/C
;
_chemical_formula_sum "Si O2"
_cell_formula_units_Z 40
_cell_length_a 18.016375
_cell_length_b 6.357696
_cell_length_c 25.366986
_cell_angle_alpha 90.000000
_cell_angle_beta 148.290317
_cell_angle_gamma 90.000000
_cell_volume 1527.228945
_symmetry_space_group_name_H-M "C 2/C"
_symmetry_group_IT_number 15
_symmetry_cell_setting 'monoclinic'
loop_
_space_group_symop_operation_xyz
x,y,z
-x,y,1/2-z
-x,-y,-z
x,-y,1/2+z
1/2+x,1/2+y,z
1/2-x,1/2+y,1/2-z
1/2-x,1/2-y,-z
1/2+x,1/2-y,1/2+z
loop_
_atom_site_type_symbol
_atom_site_label
_atom_site_fract_x
_atom_site_fract_y
_atom_site_fract_z
Si Si1 0.804455 0.124082 0.902384
Si Si2 0.124246 0.731851 0.882678
Si Si3 0.872989 0.627604 0.338584
Si Si4 0.453116 0.650339 0.370938
Si Si5 0.553020 0.190624 0.228976
O O1 0.696946 0.273396 0.870790
O O2 0.863829 0.252895 0.888618
O O3 0.707117 0.920165 0.830795
O O4 0.931243 0.063131 0.018425
O O5 0.003292 0.854429 0.840452
O O6 0.062150 0.498100 0.841000
O O7 0.250000 0.750000 0.000000
O O8 0.709468 0.586686 0.225280
O O9 0.947491 0.400612 0.384186
O O10 0.941414 0.749158 0.329898
O O11 0.500000 0.311882 0.250000
#
# Coordination Sequence:
#
# PCOD9258458 Si02
#       5
#     8   8   8   8   8
#     4  10  18  33  57  81 105 140 183 223 259 308
#     4   8  15  30  52  80 101 134 178 221 252 307
#     4  11  19  35  53  80 108 140 177 224 263 319
#     4  10  21  33  55  83 111 138 176 221 273 315
#     4   9  18  33  54  76 107 143 179 218 262 317
#
# _framework density 26.191229
#
# number of rings (size 3 to 8) (size 9 to 14) (size 15 to 20)
#    0.000    2.400    4.000    0.600    0.000    0.800 
#    0.000    0.000    4.400    1.200    0.000    0.000 
#    0.000    0.000    0.000    0.000    0.000    0.000 
#
# Total GULP energy -111618.956810 kJ/mol
# GULP energy per Si atom -5580.947841 kJ/mol
# Density = 2.613162 g / cm^3
# Si number density = 26.191229 Si / 1000 Ang^3
#
#
#
# Elastic Constant Matrix: (Units=GPa)
#
#
# Indices 1 2 3 4 5 6 
#
# 1 273.4129 30.6704 52.5348 -0.0002 -11.8716 0.0002
# 2 30.6704 35.5526 -0.9782 0.0004 9.4485 0.0032
# 3 52.5348 -0.9782 142.7223 -0.0001 -18.7393 0.0003
# 4 -0.0002 0.0004 -0.0001 17.0690 -0.0001 -10.0219
# 5 -11.8716 9.4485 -18.7393 -0.0001 49.0312 0.0000
# 6 0.0002 0.0032 0.0003 -10.0219 0.0000 31.3063
#
#
#
# Elastic Compliance Matrix: (Units=1/GPa)
#
#
# Indices 1 2 3 4 5 6 
#
# 1 0.004482 -0.004262 -0.001504 0.000000 0.001332 0.000001
# 2 -0.004262 0.033743 0.000854 -0.000004 -0.007208 -0.000005
# 3 -0.001504 0.000854 0.007893 0.000000 0.002488 0.000000
# 4 0.000000 -0.000004 0.000000 0.072146 0.000001 0.023096
# 5 0.001332 -0.007208 0.002488 0.000001 0.023057 0.000001
# 6 0.000001 -0.000005 0.000000 0.023096 0.000001 0.039336
#
#
# Mechanical properties :
#
#
# Convention : Reuss Voigt Hill
#
# Bulk Modulus (GPa) = 27.55344 68.46019 48.00682
# Shear Modulus (GPa) = 24.68136 44.11201 34.39669
#
# Velocity S-wave (km/s) = 3.07311 4.10839 3.62787
# Velocity P-wave (km/s) = 4.80988 6.97857 5.99314
#
# Compressibility (1/GPa) = 0.03629310
#
# Stress axis : x y z
#
# Youngs Moduli (GPa) = 223.09175 29.63543 126.69709
#
# Poissons Ratio (x) = 0.12631 0.19059
# Poissons Ratio (y) = 0.95087 -0.10817
# Poissons Ratio (z) = 0.33560 -0.02530
#
# Static dielectric constant tensor:
#      x y z
#    x 2.184620 0.000000 -0.073250 
#    y 0.000000 2.217800 0.000000 
#    z -0.073250 0.000000 2.064920 
# 
# From -- ./inp_files/158739.got.cif
#   From: 2010.05.17/outbox.cif.g08.bks.cpg/sg15_80_cif.got.tgz:158739.got - 2010.06.03 18:47:42.
