data_PCOD9258520
_publ_section_title
;
Structure prediction by ZEFSAII (Michael W. Deem and Ramdas Pophale) SiO2 
 PCOD9258520
Probable space group: C 2/C
;
_chemical_formula_sum "Si O2"
_cell_formula_units_Z 56
_cell_length_a 9.410015
_cell_length_b 16.881781
_cell_length_c 32.013646
_cell_angle_alpha 90.000000
_cell_angle_beta 144.433645
_cell_angle_gamma 90.000000
_cell_volume 2958.026204
_symmetry_space_group_name_H-M "C 2/C"
_symmetry_group_IT_number 15
_symmetry_cell_setting 'monoclinic'
loop_
_space_group_symop_operation_xyz
x,y,z
-x,y,1/2-z
-x,-y,-z
x,-y,1/2+z
1/2+x,1/2+y,z
1/2-x,1/2+y,1/2-z
1/2-x,1/2-y,-z
1/2+x,1/2-y,1/2+z
loop_
_atom_site_type_symbol
_atom_site_label
_atom_site_fract_x
_atom_site_fract_y
_atom_site_fract_z
Si Si1 0.391969 0.036289 0.103553
Si Si2 0.874167 0.938097 0.097754
Si Si3 0.489875 0.292863 0.428976
Si Si4 0.107056 0.878098 0.009538
Si Si5 0.749114 0.138994 0.132706
Si Si6 0.676687 0.897988 0.520338
Si Si7 0.625969 0.489984 0.737316
O O1 0.549659 0.079457 0.105180
O O2 0.268776 0.955682 0.058668
O O3 0.587366 0.017124 0.186176
O O4 0.172057 0.093904 0.063258
O O5 0.969505 0.868157 0.091129
O O6 0.047403 0.961556 0.177743
O O7 0.816988 0.017226 0.057155
O O8 0.610716 0.913833 0.053469
O O9 0.750000 0.250000 0.500000
O O10 0.389774 0.322687 0.449476
O O11 0.311190 0.226894 0.366695
O O12 0.213608 0.848734 0.991345
O O13 0.711255 0.139237 0.074052
O O14 0.006536 0.097629 0.203588
O O15 0.500000 0.522374 0.750000
#
# Coordination Sequence:
#
# PCOD9258520 Si02
#       7
#     8   8   8   8   8   8   8
#     4  10  19  37  57  85 113 154 200 246 291 344
#     4  10  19  35  60  85 119 154 197 247 292 361
#     4  12  22  38  57  92 124 152 190 247 306 352
#     4  11  21  33  60  86 120 147 200 257 284 341
#     4  10  20  38  60  84 121 157 193 237 302 369
#     4  10  18  33  58  88 111 152 202 241 291 342
#     4   9  19  36  62  84 111 159 205 238 289 361
#
# _framework density 18.931543999999999
#
# number of rings (size 3 to 8) (size 9 to 14) (size 15 to 20)
#    0.000    1.714    2.857    5.143    0.000    0.571 
#    0.000   10.714    0.000    0.000    0.000    0.000 
#    0.000    0.000    0.000    0.000    0.000    0.000 
#
# Total GULP energy -156312.518929 kJ/mol
# GULP energy per Si atom -5582.589962 kJ/mol
# Density = 1.888845 g / cm^3
# Si number density = 18.931544 Si / 1000 Ang^3
#
#
#
# Elastic Constant Matrix: (Units=GPa)
#
#
# Indices 1 2 3 4 5 6 
#
# 1 90.0677 33.4279 32.0104 0.0002 -18.7459 0.0000
# 2 33.4279 87.2437 22.2392 0.0004 -10.8910 0.0001
# 3 32.0104 22.2392 121.1442 0.0014 -2.4658 0.0004
# 4 0.0002 0.0004 0.0014 14.8098 0.0003 -2.3693
# 5 -18.7459 -10.8910 -2.4658 0.0003 29.6403 0.0001
# 6 0.0000 0.0001 0.0004 -2.3693 0.0001 28.4909
#
#
#
# Elastic Compliance Matrix: (Units=1/GPa)
#
#
# Indices 1 2 3 4 5 6 
#
# 1 0.015407 -0.004103 -0.003155 0.000000 0.007974 0.000000
# 2 -0.004103 0.013675 -0.001379 0.000000 0.002315 0.000000
# 3 -0.003155 -0.001379 0.009306 -0.000001 -0.001728 0.000000
# 4 0.000000 0.000000 -0.000001 0.068433 -0.000001 0.005691
# 5 0.007974 0.002315 -0.001728 -0.000001 0.039488 0.000000
# 6 0.000000 0.000000 0.000000 0.005691 0.000000 0.035572
#
#
# Mechanical properties :
#
#
# Convention : Reuss Voigt Hill
#
# Bulk Modulus (GPa) = 47.36577 52.64563 50.00570
# Shear Modulus (GPa) = 24.24899 28.64007 26.44453
#
# Velocity S-wave (km/s) = 3.58282 3.89372 3.74150
# Velocity P-wave (km/s) = 6.49533 6.93423 6.71836
#
# Compressibility (1/GPa) = 0.02111229
#
# Stress axis : x y z
#
# Youngs Moduli (GPa) = 64.90675 73.12677 107.45339
#
# Poissons Ratio (x) = 0.30007 0.33906
# Poissons Ratio (y) = 0.26634 0.14818
# Poissons Ratio (z) = 0.20481 0.10084
#
# Static dielectric constant tensor:
#      x y z
#    x 1.682920 0.000000 -0.010990 
#    y 0.000000 1.670320 0.000000 
#    z -0.010990 0.000000 1.656290 
# 
# From -- ./inp_files/308646.got.cif
#   From: 2010.05.17/outbox.cif.g08.bks.cpg/sg15_155_cif.got.tgz:308646.got - 2010.06.03 18:47:42.
