data_PCOD9258271
_publ_section_title
;
Structure prediction by ZEFSAII (Michael W. Deem and Ramdas Pophale) SiO2 
 PCOD9258271
Probable space group: C 2/C
;
_chemical_formula_sum "Si O2"
_cell_formula_units_Z 64
_cell_length_a 8.586727
_cell_length_b 26.921445
_cell_length_c 15.187679
_cell_angle_alpha 90.000000
_cell_angle_beta 75.962105
_cell_angle_gamma 90.000000
_cell_volume 3406.040696
_symmetry_space_group_name_H-M "C 2/C"
_symmetry_group_IT_number 15
_symmetry_cell_setting 'monoclinic'
loop_
_space_group_symop_operation_xyz
x,y,z
-x,y,1/2-z
-x,-y,-z
x,-y,1/2+z
1/2+x,1/2+y,z
1/2-x,1/2+y,1/2-z
1/2-x,1/2-y,-z
1/2+x,1/2-y,1/2+z
loop_
_atom_site_type_symbol
_atom_site_label
_atom_site_fract_x
_atom_site_fract_y
_atom_site_fract_z
Si Si1 0.172116 0.778916 0.706789
Si Si2 0.205234 0.689230 0.119508
Si Si3 0.520121 0.722098 0.851882
Si Si4 0.169093 0.118261 0.109058
Si Si5 0.983492 0.019045 0.352963
Si Si6 0.018794 0.135079 0.522394
Si Si7 0.709880 0.532815 0.479717
Si Si8 0.004634 0.412727 0.646067
O O1 0.248292 0.798335 0.787168
O O2 0.304625 0.743025 0.647503
O O3 0.144347 0.827878 0.653436
O O4 0.000000 0.754852 0.750000
O O5 0.089659 0.641387 0.133151
O O6 0.110411 0.737379 0.096548
O O7 0.366298 0.671897 0.049414
O O8 0.500000 0.722292 0.750000
O O9 0.503498 0.666250 0.887048
O O10 0.029884 0.078833 0.150849
O O11 0.331151 0.095831 0.127036
O O12 0.145930 0.125030 0.007640
O O13 0.000000 0.000371 0.250000
O O14 0.127032 0.009324 0.403086
O O15 0.827119 0.000845 0.429832
O O16 0.112738 0.083417 0.516031
O O17 0.886619 0.549769 0.426377
O O18 0.000000 0.428006 0.750000
#
# Coordination Sequence:
#
# PCOD9258271 Si02
#       8
#     8   8   8   8   8   8   8   8
#     4  11  19  33  51  80 111 143 177 223 273 333
#     4  10  18  33  53  78 108 140 182 223 265 328
#     4  10  21  36  52  76 107 147 186 223 272 332
#     4  11  20  32  55  82 111 141 177 227 286 327
#     4  10  20  37  59  81 109 144 187 233 288 330
#     4  10  21  35  54  77 108 143 183 228 272 322
#     4   9  22  37  54  85 110 142 192 233 271 348
#     4  11  18  32  55  83 116 146 177 226 287 331
#
# _framework density 18.790144999999999
#
# number of rings (size 3 to 8) (size 9 to 14) (size 15 to 20)
#    0.000    1.750    3.750    1.875    1.750    1.500 
#    0.000    1.250    0.000    0.000    0.000    5.250 
#    0.000    0.000    0.000    0.000    0.000    0.000 
#
# Total GULP energy -178314.346525 kJ/mol
# GULP energy per Si atom -5572.323329 kJ/mol
# Density = 1.874738 g / cm^3
# Si number density = 18.790145 Si / 1000 Ang^3
#
#
#
# Elastic Constant Matrix: (Units=GPa)
#
#
# Indices 1 2 3 4 5 6 
#
# 1 67.9203 -1.2003 12.0974 0.0000 3.1603 0.0000
# 2 -1.2003 46.5080 25.5466 0.0000 1.1906 0.0000
# 3 12.0974 25.5466 75.6191 0.0000 -0.3186 0.0000
# 4 0.0000 0.0000 0.0000 23.1707 0.0000 3.5221
# 5 3.1603 1.1906 -0.3186 0.0000 15.1440 0.0000
# 6 0.0000 0.0000 0.0000 3.5221 0.0000 13.7070
#
#
#
# Elastic Compliance Matrix: (Units=1/GPa)
#
#
# Indices 1 2 3 4 5 6 
#
# 1 0.015508 0.002284 -0.003267 0.000000 -0.003484 0.000000
# 2 0.002284 0.026815 -0.009436 0.000000 -0.002783 0.000000
# 3 -0.003267 -0.009436 0.016942 0.000000 0.001780 0.000000
# 4 0.000000 0.000000 0.000000 0.044912 0.000000 -0.011540
# 5 -0.003484 -0.002783 0.001780 0.000000 0.067016 0.000000
# 6 0.000000 0.000000 0.000000 -0.011540 0.000000 0.075921
#
#
# Mechanical properties :
#
#
# Convention : Reuss Voigt Hill
#
# Bulk Modulus (GPa) = 26.02381 29.21497 27.61939
# Shear Modulus (GPa) = 17.80870 20.64457 19.22664
#
# Velocity S-wave (km/s) = 3.08192 3.31825 3.20227
# Velocity P-wave (km/s) = 5.15210 5.50116 5.32949
#
# Compressibility (1/GPa) = 0.03842635
#
# Stress axis : x y z
#
# Youngs Moduli (GPa) = 64.48465 37.29240 59.02426
#
# Poissons Ratio (x) = -0.08518 0.19284
# Poissons Ratio (y) = -0.14729 0.55696
# Poissons Ratio (z) = 0.21068 0.35190
#
# Static dielectric constant tensor:
#      x y z
#    x 1.686800 0.000000 -0.020040 
#    y 0.000000 1.655920 0.000000 
#    z -0.020040 0.000000 1.686400 
# 
# From -- ./inp_files/139275.got.cif
#   From: 2010.05.17/outbox.cif.g08.bks.cpg/sg15_70_cif.got.tgz:139275.got - 2010.06.03 18:47:42.
