data_PCOD9258349
_publ_section_title
;
Structure prediction by ZEFSAII (Michael W. Deem and Ramdas Pophale) SiO2 
 PCOD9258349
Probable space group: C 2/C
;
_chemical_formula_sum "Si O2"
_cell_formula_units_Z 52
_cell_length_a 12.977965
_cell_length_b 28.714678
_cell_length_c 18.004367
_cell_angle_alpha 90.000000
_cell_angle_beta 20.860507
_cell_angle_gamma 90.000000
_cell_volume 2389.202949
_symmetry_space_group_name_H-M "C 2/C"
_symmetry_group_IT_number 15
_symmetry_cell_setting 'monoclinic'
loop_
_space_group_symop_operation_xyz
x,y,z
-x,y,1/2-z
-x,-y,-z
x,-y,1/2+z
1/2+x,1/2+y,z
1/2-x,1/2+y,1/2-z
1/2-x,1/2-y,-z
1/2+x,1/2-y,1/2+z
loop_
_atom_site_type_symbol
_atom_site_label
_atom_site_fract_x
_atom_site_fract_y
_atom_site_fract_z
Si Si1 0.297715 0.923894 0.001983
Si Si2 0.017183 0.475958 0.327390
Si Si3 0.570694 0.863444 0.937411
Si Si4 0.662280 0.223559 0.456316
Si Si5 0.268069 0.823506 0.348052
Si Si6 0.925077 0.902981 0.117856
Si Si7 0.000000 0.916685 0.750000
O O1 0.000000 0.931708 0.250000
O O2 0.196824 0.911708 0.986983
O O3 0.477788 0.883659 0.921209
O O4 0.481887 0.971076 0.877481
O O5 0.748519 0.447936 0.545208
O O6 0.000000 0.473584 0.250000
O O7 0.302975 0.450448 0.165131
O O8 0.589992 0.808054 0.933796
O O9 0.859140 0.885100 0.780062
O O10 0.319977 0.883069 0.160943
O O11 0.469755 0.200105 0.649466
O O12 0.605250 0.278443 0.489327
O O13 0.000000 0.219203 0.250000
O O14 0.500000 0.843791 0.250000
O O15 0.068804 0.863495 0.449162
#
# Coordination Sequence:
#
# PCOD9258349 Si02
#       7
#     8   8   8   8   8   8   4
#     4  10  21  39  60  79 114 157 191 238 289 346
#     4  11  23  38  58  88 112 154 201 239 291 343
#     4   9  19  35  60  84 110 149 194 232 288 348
#     4  10  18  33  54  85 110 143 190 233 288 344
#     4  10  19  34  55  83 113 145 187 236 291 337
#     4   9  21  37  56  83 117 148 192 236 291 346
#     4  10  20  38  62  82 116 150 192 242 294 336
#
# _framework density 21.764581
#
# number of rings (size 3 to 8) (size 9 to 14) (size 15 to 20)
#    0.000    2.154    1.538    2.308    2.154    2.462 
#    2.769    0.769    0.000    0.000    0.000    0.000 
#    0.000    0.000    0.000    0.000    0.000    0.000 
#
# Total GULP energy -145376.743739 kJ/mol
# GULP energy per Si atom -5591.413221 kJ/mol
# Density = 2.171504 g / cm^3
# Si number density = 21.764581 Si / 1000 Ang^3
#
#
#
# Elastic Constant Matrix: (Units=GPa)
#
#
# Indices 1 2 3 4 5 6 
#
# 1 145.5276 61.4537 20.7229 0.1050 -19.2504 0.0299
# 2 61.4537 99.8622 13.2891 0.4096 -14.4385 0.1523
# 3 20.7229 13.2891 82.2412 1.1489 8.4495 -0.0085
# 4 0.1050 0.4096 1.1489 36.6372 -0.3849 22.1980
# 5 -19.2504 -14.4385 8.4495 -0.3849 26.3702 -0.1063
# 6 0.0299 0.1523 -0.0085 22.1980 -0.1063 40.6091
#
#
#
# Elastic Compliance Matrix: (Units=1/GPa)
#
#
# Indices 1 2 3 4 5 6 
#
# 1 0.010052 -0.005128 -0.002247 0.000208 0.005253 -0.000088
# 2 -0.005128 0.013990 -0.001417 -0.000043 0.004370 -0.000014
# 3 -0.002247 -0.001417 0.013663 -0.000707 -0.006803 0.000378
# 4 0.000208 -0.000043 -0.000707 0.040856 0.000861 -0.022331
# 5 0.005253 0.004370 -0.006803 0.000861 0.046339 -0.000371
# 6 -0.000088 -0.000014 0.000378 -0.022331 -0.000371 0.036831
#
#
# Mechanical properties :
#
#
# Convention : Reuss Voigt Hill
#
# Bulk Modulus (GPa) = 49.69719 57.61805 53.65762
# Shear Modulus (GPa) = 26.87870 36.20099 31.53984
#
# Velocity S-wave (km/s) = 3.51803 4.08278 3.81088
# Velocity P-wave (km/s) = 6.27580 6.98257 6.63859
#
# Compressibility (1/GPa) = 0.02012186
#
# Stress axis : x y z
#
# Youngs Moduli (GPa) = 99.48683 71.47977 73.18899
#
# Poissons Ratio (x) = 0.36654 0.16444
# Poissons Ratio (y) = 0.51016 0.10370
# Poissons Ratio (z) = 0.22352 0.10128
#
# Static dielectric constant tensor:
#      x y z
#    x 1.809390 -0.000060 0.069260 
#    y -0.000060 1.790210 0.000240 
#    z 0.069260 0.000240 1.848300 
# 
# From -- ./inp_files/92649.got.cif
#   From: 2010.05.17/outbox.cif.g08.bks.cpg/sg15_47_cif.got.tgz:92649.got - 2010.06.03 18:47:42.
