data_PCOD9258129
_publ_section_title
;
Structure prediction by ZEFSAII (Michael W. Deem and Ramdas Pophale) SiO2 
 PCOD9258129
Probable space group: C 2/C
;
_chemical_formula_sum "Si O2"
_cell_formula_units_Z 52
_cell_length_a 8.758997
_cell_length_b 16.563854
_cell_length_c 14.228289
_cell_angle_alpha 90.000000
_cell_angle_beta 80.469795
_cell_angle_gamma 90.000000
_cell_volume 2035.789018
_symmetry_space_group_name_H-M "C 2/C"
_symmetry_group_IT_number 15
_symmetry_cell_setting 'monoclinic'
loop_
_space_group_symop_operation_xyz
x,y,z
-x,y,1/2-z
-x,-y,-z
x,-y,1/2+z
1/2+x,1/2+y,z
1/2-x,1/2+y,1/2-z
1/2-x,1/2-y,-z
1/2+x,1/2-y,1/2+z
loop_
_atom_site_type_symbol
_atom_site_label
_atom_site_fract_x
_atom_site_fract_y
_atom_site_fract_z
Si Si1 0.966409 0.395476 0.626958
Si Si2 0.786289 0.509546 0.929730
Si Si3 0.331529 0.559797 0.235595
Si Si4 0.907701 0.285806 0.033539
Si Si5 0.500000 0.762712 0.750000
Si Si6 0.912927 0.158646 0.589510
Si Si7 0.727783 0.580393 0.626837
O O1 0.046541 0.482469 0.627557
O O2 0.200271 0.394137 0.808996
O O3 0.992931 0.359572 0.522663
O O4 0.071463 0.327541 0.670237
O O5 0.680330 0.449982 0.875363
O O6 0.724598 0.599023 0.922329
O O7 0.781092 0.481130 0.038176
O O8 0.500000 0.586948 0.250000
O O9 0.300281 0.468670 0.276121
O O10 0.030050 0.213474 0.004744
O O11 0.750000 0.250000 0.000000
O O12 0.830434 0.338353 0.124992
O O13 0.397085 0.711975 0.687079
O O14 0.061718 0.106792 0.604112
#
# Coordination Sequence:
#
# PCOD9258129 Si02
#       7
#     8   8   8   8   4   8   8
#     4  10  21  39  63  94 130 174 220 283 333 406
#     4  11  21  38  63  97 132 168 223 284 334 388
#     4  12  23  37  62  96 130 176 230 276 338 396
#     4   8  18  35  59  89 120 164 219 268 329 393
#     4  10  18  36  62  92 130 172 222 264 332 402
#     4  10  18  32  60  93 122 165 222 270 319 395
#     4  10  21  37  60  95 129 171 222 281 324 406
#
# _framework density 25.542919999999999
#
# number of rings (size 3 to 8) (size 9 to 14) (size 15 to 20)
#    0.000    1.846    3.077    1.385    0.000    2.462 
#    0.000    0.000    0.000   19.385    0.000    0.000 
#    0.000    0.000    0.000    0.000    0.000    0.000 
#
# Total GULP energy -144777.251131 kJ/mol
# GULP energy per Si atom -5568.355813 kJ/mol
# Density = 2.548478 g / cm^3
# Si number density = 25.542920 Si / 1000 Ang^3
#
#
#
# Elastic Constant Matrix: (Units=GPa)
#
#
# Indices 1 2 3 4 5 6 
#
# 1 122.7880 49.7114 33.5767 0.0000 -17.3654 0.0000
# 2 49.7114 141.5423 24.3093 0.0000 -18.1789 0.0000
# 3 33.5767 24.3093 87.3537 0.0000 -7.3623 0.0000
# 4 0.0000 0.0000 0.0000 43.2300 0.0000 -15.3029
# 5 -17.3654 -18.1789 -7.3623 0.0000 36.3770 0.0000
# 6 0.0000 0.0000 0.0000 -15.3029 0.0000 43.5461
#
#
#
# Elastic Compliance Matrix: (Units=1/GPa)
#
#
# Indices 1 2 3 4 5 6 
#
# 1 0.010526 -0.002791 -0.003015 0.000000 0.003020 0.000000
# 2 -0.002791 0.008583 -0.001085 0.000000 0.002737 0.000000
# 3 -0.003015 -0.001085 0.012962 0.000000 0.000642 0.000000
# 4 0.000000 0.000000 0.000000 0.026418 0.000000 0.009284
# 5 0.003020 0.002737 0.000642 0.000000 0.030429 0.000000
# 6 0.000000 0.000000 0.000000 0.009284 0.000000 0.026227
#
#
# Mechanical properties :
#
#
# Convention : Reuss Voigt Hill
#
# Bulk Modulus (GPa) = 54.67514 62.98653 58.83084
# Shear Modulus (GPa) = 37.03054 40.90306 38.96680
#
# Velocity S-wave (km/s) = 3.81167 4.00602 3.91006
# Velocity P-wave (km/s) = 6.38933 6.79045 6.59294
#
# Compressibility (1/GPa) = 0.01828985
#
# Stress axis : x y z
#
# Youngs Moduli (GPa) = 95.00730 116.50627 77.14565
#
# Poissons Ratio (x) = 0.32518 0.23256
# Poissons Ratio (y) = 0.26518 0.08371
# Poissons Ratio (z) = 0.28640 0.12641
#
# Static dielectric constant tensor:
#      x y z
#    x 2.063360 0.000000 0.055730 
#    y 0.000000 2.167790 0.000000 
#    z 0.055730 0.000000 2.143080 
# 
# From -- ./inp_files/197258.got.cif
#   From: 2010.05.17/outbox.cif.g08.bks.cpg/sg15_99_cif.got.tgz:197258.got - 2010.06.03 18:47:42.
