data_PCOD9258983
_publ_section_title
;
Structure prediction by ZEFSAII (Michael W. Deem and Ramdas Pophale) SiO2 
 PCOD9258983
Probable space group: C 2/C
;
_chemical_formula_sum "Si O2"
_cell_formula_units_Z 44
_cell_length_a 13.461553
_cell_length_b 17.456169
_cell_length_c 12.964865
_cell_angle_alpha 90.000000
_cell_angle_beta 39.721558
_cell_angle_gamma 90.000000
_cell_volume 1946.936910
_symmetry_space_group_name_H-M "C 2/C"
_symmetry_group_IT_number 15
_symmetry_cell_setting 'monoclinic'
loop_
_space_group_symop_operation_xyz
x,y,z
-x,y,1/2-z
-x,-y,-z
x,-y,1/2+z
1/2+x,1/2+y,z
1/2-x,1/2+y,1/2-z
1/2-x,1/2-y,-z
1/2+x,1/2-y,1/2+z
loop_
_atom_site_type_symbol
_atom_site_label
_atom_site_fract_x
_atom_site_fract_y
_atom_site_fract_z
Si Si1 0.243395 0.416753 0.847514
Si Si2 0.894054 0.080828 0.735095
Si Si3 0.500000 0.500000 0.000000
Si Si4 0.749202 0.589840 0.920563
Si Si5 0.505937 0.282873 0.861124
Si Si6 0.424602 0.867271 0.079293
O O1 0.348333 0.491184 0.734237
O O2 0.203648 0.426764 0.999791
O O3 0.351100 0.342594 0.754550
O O4 0.081691 0.409053 0.917197
O O5 0.989840 0.092950 0.554907
O O6 0.728424 0.122488 0.869042
O O7 0.000000 0.086485 0.750000
O O8 0.363714 0.478680 0.021707
O O9 0.652624 0.669293 0.002427
O O10 0.871484 0.597580 0.731525
O O11 0.500000 0.246963 0.750000
O O12 0.528757 0.218977 0.929210
#
# Coordination Sequence:
#
# PCOD9258983 Si02
#       6
#     8   8   4   8   8   8
#     4  11  19  36  58  86 116 139 190 244 286 320
#     4  11  21  39  58  82 113 154 193 228 279 344
#     4  10  18  34  58  82 102 148 194 220 270 340
#     4  10  19  33  56  84 112 150 183 230 284 346
#     4  10  19  35  57  83 117 150 179 232 295 343
#     4  11  23  31  55  90 115 145 185 236 290 333
#
# _framework density 22.599603999999999
#
# number of rings (size 3 to 8) (size 9 to 14) (size 15 to 20)
#    0.000    1.455    3.636    3.818    0.000    2.909 
#    0.000    0.000    0.000    9.818    0.000    0.000 
#    0.000    0.000    0.000    0.000    0.000    0.000 
#
# Total GULP energy -122512.169444 kJ/mol
# GULP energy per Si atom -5568.734975 kJ/mol
# Density = 2.254817 g / cm^3
# Si number density = 22.599604 Si / 1000 Ang^3
#
#
#
# Elastic Constant Matrix: (Units=GPa)
#
#
# Indices 1 2 3 4 5 6 
#
# 1 152.2870 21.7232 37.1790 0.0000 -24.7342 -0.0001
# 2 21.7232 70.6931 10.9860 -0.0003 -22.8435 0.0002
# 3 37.1790 10.9860 90.8138 -0.0011 -25.6006 0.0005
# 4 0.0000 -0.0003 -0.0011 9.9015 0.0004 4.2744
# 5 -24.7342 -22.8435 -25.6006 0.0004 40.4303 -0.0001
# 6 -0.0001 0.0002 0.0005 4.2744 -0.0001 20.7020
#
#
#
# Elastic Compliance Matrix: (Units=1/GPa)
#
#
# Indices 1 2 3 4 5 6 
#
# 1 0.007715 -0.001172 -0.002280 0.000000 0.002614 0.000000
# 2 -0.001172 0.017532 0.001155 0.000000 0.009920 0.000000
# 3 -0.002280 0.001155 0.014116 0.000002 0.008196 -0.000001
# 4 0.000000 0.000000 0.000002 0.110878 0.000000 -0.022893
# 5 0.002614 0.009920 0.008196 0.000000 0.037128 0.000000
# 6 0.000000 0.000000 -0.000001 -0.022893 0.000000 0.053031
#
#
# Mechanical properties :
#
#
# Convention : Reuss Voigt Hill
#
# Bulk Modulus (GPa) = 28.76026 50.39671 39.57849
# Shear Modulus (GPa) = 19.48698 30.46713 24.97705
#
# Velocity S-wave (km/s) = 2.93963 3.67567 3.32806
# Velocity P-wave (km/s) = 4.92702 6.35313 5.68497
#
# Compressibility (1/GPa) = 0.03477020
#
# Stress axis : x y z
#
# Youngs Moduli (GPa) = 129.62013 57.03922 70.84352
#
# Poissons Ratio (x) = 0.06683 0.16151
# Poissons Ratio (y) = 0.15187 -0.08185
# Poissons Ratio (z) = 0.29550 -0.06590
#
# Static dielectric constant tensor:
#      x y z
#    x 1.915140 0.000000 0.058880 
#    y 0.000000 1.913960 0.000000 
#    z 0.058880 0.000000 2.330580 
# 
# From -- ./inp_files/30926.got.cif
#   From: 2010.05.17/outbox.cif.g08.bks.cpg/sg15_16_cif.got.tgz:30926.got - 2010.06.03 18:47:42.
