data_PCOD9258377
_publ_section_title
;
Structure prediction by ZEFSAII (Michael W. Deem and Ramdas Pophale) SiO2 
 PCOD9258377
Probable space group: C 2/C
;
_chemical_formula_sum "Si O2"
_cell_formula_units_Z 64
_cell_length_a 17.583842
_cell_length_b 18.959234
_cell_length_c 15.969918
_cell_angle_alpha 90.000000
_cell_angle_beta 139.656529
_cell_angle_gamma 90.000000
_cell_volume 3446.582147
_symmetry_space_group_name_H-M "C 2/C"
_symmetry_group_IT_number 15
_symmetry_cell_setting 'monoclinic'
loop_
_space_group_symop_operation_xyz
x,y,z
-x,y,1/2-z
-x,-y,-z
x,-y,1/2+z
1/2+x,1/2+y,z
1/2-x,1/2+y,1/2-z
1/2-x,1/2-y,-z
1/2+x,1/2-y,1/2+z
loop_
_atom_site_type_symbol
_atom_site_label
_atom_site_fract_x
_atom_site_fract_y
_atom_site_fract_z
Si Si1 0.391919 0.964772 0.513702
Si Si2 0.930580 0.698465 0.532261
Si Si3 0.667031 0.167196 0.634201
Si Si4 0.633353 0.084622 0.893414
Si Si5 0.304549 0.409320 0.390111
Si Si6 0.335803 0.038214 0.288601
Si Si7 0.510036 0.345401 0.661221
Si Si8 0.761859 0.187695 0.255429
O O1 0.353603 0.884640 0.461513
O O2 0.533738 0.968091 0.640978
O O3 0.338287 0.006994 0.546846
O O4 0.355983 0.008826 0.400050
O O5 0.865340 0.638969 0.529556
O O6 0.844230 0.721334 0.386319
O O7 0.047616 0.665169 0.589734
O O8 0.959164 0.765829 0.612362
O O9 0.769016 0.133209 0.777063
O O10 0.690472 0.250535 0.644229
O O11 0.500000 0.085079 0.750000
O O12 0.717610 0.112443 0.892351
O O13 0.261970 0.488555 0.335022
O O14 0.432452 0.394515 0.534559
O O15 0.291648 0.117849 0.249228
O O16 0.500000 0.368209 0.750000
O O17 0.637307 0.336687 0.725288
#
# Coordination Sequence:
#
# PCOD9258377 Si02
#       8
#     8   8   8   8   8   8   8   8
#     4  10  18  33  55  82 106 135 181 228 270 305
#     4  11  19  33  52  79 113 143 180 213 260 323
#     4  10  20  34  54  80 107 138 182 229 263 310
#     4  12  19  29  55  87 107 139 170 222 279 308
#     4  11  22  35  53  80 112 139 185 219 261 328
#     4  10  19  35  56  78 105 140 182 230 262 308
#     4  11  25  35  47  77 118 156 174 203 266 333
#     4  11  21  35  56  76 107 151 177 218 269 313
#
# _framework density 18.569120999999999
#
# number of rings (size 3 to 8) (size 9 to 14) (size 15 to 20)
#    0.000    1.250    6.250    1.875    1.750    1.500 
#    0.000    0.000    0.000    0.750    0.000    0.000 
#    0.000    0.000    0.000    0.000    0.000    0.000 
#
# Total GULP energy -178465.010206 kJ/mol
# GULP energy per Si atom -5577.031569 kJ/mol
# Density = 1.852686 g / cm^3
# Si number density = 18.569121 Si / 1000 Ang^3
#
#
#
# Elastic Constant Matrix: (Units=GPa)
#
#
# Indices 1 2 3 4 5 6 
#
# 1 7.2180 2.2174 -2.8489 0.0000 2.1776 0.0000
# 2 2.2174 86.8246 18.1697 0.0000 -0.3505 0.0000
# 3 -2.8489 18.1697 73.5114 -0.0001 4.4268 0.0000
# 4 0.0000 0.0000 -0.0001 32.5605 0.0000 -0.2575
# 5 2.1776 -0.3505 4.4268 0.0000 10.5466 0.0000
# 6 0.0000 0.0000 0.0000 -0.2575 0.0000 16.3223
#
#
#
# Elastic Compliance Matrix: (Units=1/GPa)
#
#
# Indices 1 2 3 4 5 6 
#
# 1 0.155229 -0.006146 0.009723 0.000000 -0.036336 0.000000
# 2 -0.006146 0.012419 -0.003497 0.000000 0.003150 0.000000
# 3 0.009723 -0.003497 0.015361 0.000000 -0.008571 0.000000
# 4 0.000000 0.000000 0.000000 0.030716 0.000000 0.000485
# 5 -0.036336 0.003150 -0.008571 0.000000 0.106022 0.000000
# 6 0.000000 0.000000 0.000000 0.000485 0.000000 0.061273
#
#
# Mechanical properties :
#
#
# Convention : Reuss Voigt Hill
#
# Bulk Modulus (GPa) = 5.45944 22.51450 13.98697
# Shear Modulus (GPa) = 11.31433 21.88694 16.60064
#
# Velocity S-wave (km/s) = 2.47110 3.43691 2.99321
# Velocity P-wave (km/s) = 3.32990 5.28212 4.41526
#
# Compressibility (1/GPa) = 0.18316885
#
# Stress axis : x y z
#
# Youngs Moduli (GPa) = 6.44208 80.52142 65.10101
#
# Poissons Ratio (x) = 0.49487 -0.63298
# Poissons Ratio (y) = 0.03959 0.22769
# Poissons Ratio (z) = -0.06264 0.28162
#
# Static dielectric constant tensor:
#      x y z
#    x 1.629360 0.000000 -0.004720 
#    y 0.000000 1.675870 0.000000 
#    z -0.004720 0.000000 1.684940 
# 
# From -- ./inp_files/113486.got.cif
#   From: 2010.05.17/outbox.cif.g08.bks.cpg/sg15_57_cif.got.tgz:113486.got - 2010.06.03 18:47:42.
