data_PCOD9258013
_publ_section_title
;
Structure prediction by ZEFSAII (Michael W. Deem and Ramdas Pophale) SiO2 
 PCOD9258013
Probable space group: C 2/C
;
_chemical_formula_sum "Si O2"
_cell_formula_units_Z 56
_cell_length_a 16.135370
_cell_length_b 15.965010
_cell_length_c 13.191950
_cell_angle_alpha 90.000000
_cell_angle_beta 61.030256
_cell_angle_gamma 90.000000
_cell_volume 2973.058283
_symmetry_space_group_name_H-M "C 2/C"
_symmetry_group_IT_number 15
_symmetry_cell_setting 'monoclinic'
loop_
_space_group_symop_operation_xyz
x,y,z
-x,y,1/2-z
-x,-y,-z
x,-y,1/2+z
1/2+x,1/2+y,z
1/2-x,1/2+y,1/2-z
1/2-x,1/2-y,-z
1/2+x,1/2-y,1/2+z
loop_
_atom_site_type_symbol
_atom_site_label
_atom_site_fract_x
_atom_site_fract_y
_atom_site_fract_z
Si Si1 0.750885 0.208520 0.887560
Si Si2 0.679359 0.129918 0.247419
Si Si3 0.779608 0.545423 0.492317
Si Si4 0.000635 0.480058 0.869925
Si Si5 0.080804 0.660061 0.844855
Si Si6 0.724962 0.372289 0.601864
Si Si7 0.884958 0.278052 0.389480
O O1 0.815860 0.271213 0.783195
O O2 0.651546 0.199519 0.885042
O O3 0.750000 0.250000 0.000000
O O4 0.771483 0.112126 0.903384
O O5 0.712927 0.081131 0.126139
O O6 0.575313 0.095686 0.339884
O O7 0.751531 0.110797 0.295288
O O8 0.890252 0.534492 0.458375
O O9 0.730466 0.456636 0.534657
O O10 0.000000 0.495073 0.750000
O O11 0.956119 0.434106 0.111521
O O12 0.126642 0.664495 0.704803
O O13 0.986191 0.712457 0.880898
O O14 0.809925 0.311963 0.514200
O O15 0.634132 0.315948 0.635080
#
# Coordination Sequence:
#
# PCOD9258013 Si02
#       7
#     8   8   8   8   8   8   8
#     4  10  22  37  54  79 116 162 196 230 295 357
#     4  10  21  35  52  81 121 154 184 239 289 349
#     4  10  21  36  57  86 117 153 193 235 298 358
#     4  10  18  32  57  89 116 140 188 244 294 341
#     4  11  18  37  58  86 118 147 195 241 296 340
#     4  11  20  36  54  90 120 147 194 234 298 347
#     4  10  21  32  58  87 118 148 183 247 286 346
#
# _framework density 18.835822
#
# number of rings (size 3 to 8) (size 9 to 14) (size 15 to 20)
#    0.000    1.714    4.286    1.714    2.000    1.143 
#    0.000    0.000    0.000    3.429   26.000    0.000 
#    0.000    0.000    0.000    0.000    0.000    0.000 
#
# Total GULP energy -156033.327101 kJ/mol
# GULP energy per Si atom -5572.618825 kJ/mol
# Density = 1.879295 g / cm^3
# Si number density = 18.835822 Si / 1000 Ang^3
#
#
#
# Elastic Constant Matrix: (Units=GPa)
#
#
# Indices 1 2 3 4 5 6 
#
# 1 85.9431 41.3592 25.2566 0.0000 23.8439 0.0000
# 2 41.3592 125.7638 19.2806 0.0000 -5.4669 0.0000
# 3 25.2566 19.2806 51.4611 0.0000 16.0446 0.0000
# 4 0.0000 0.0000 0.0000 20.8010 0.0000 -3.2898
# 5 23.8439 -5.4669 16.0446 0.0000 32.5666 0.0000
# 6 0.0000 0.0000 0.0000 -3.2898 0.0000 38.8728
#
#
#
# Elastic Compliance Matrix: (Units=1/GPa)
#
#
# Indices 1 2 3 4 5 6 
#
# 1 0.019518 -0.006613 -0.002717 0.000000 -0.014062 0.000000
# 2 -0.006613 0.011031 -0.003514 0.000000 0.008425 0.000000
# 3 -0.002717 -0.003514 0.025574 0.000000 -0.011200 0.000000
# 4 0.000000 0.000000 0.000000 0.048727 0.000000 0.004124
# 5 -0.014062 0.008425 -0.011200 0.000000 0.047934 0.000000
# 6 0.000000 0.000000 0.000000 0.004124 0.000000 0.026074
#
#
# Mechanical properties :
#
#
# Convention : Reuss Voigt Hill
#
# Bulk Modulus (GPa) = 32.85775 48.32895 40.59335
# Shear Modulus (GPa) = 23.28911 30.26618 26.77765
#
# Velocity S-wave (km/s) = 3.52010 4.01289 3.77455
# Velocity P-wave (km/s) = 5.83126 6.86912 6.37136
#
# Compressibility (1/GPa) = 0.03043422
#
# Stress axis : x y z
#
# Youngs Moduli (GPa) = 51.23460 90.65113 39.10175
#
# Poissons Ratio (x) = 0.59952 0.10625
# Poissons Ratio (y) = 0.33884 0.13740
# Poissons Ratio (z) = 0.13922 0.31855
#
# Static dielectric constant tensor:
#      x y z
#    x 1.652060 0.000000 0.002080 
#    y 0.000000 1.687300 0.000000 
#    z 0.002080 0.000000 1.726660 
# 
# From -- ./inp_files/105304.got.cif
#   From: 2010.05.17/outbox.cif.g08.bks.cpg/sg15_53_cif.got.tgz:105304.got - 2010.06.03 18:47:42.
