data_PCOD9258931
_publ_section_title
;
Structure prediction by ZEFSAII (Michael W. Deem and Ramdas Pophale) SiO2 
 PCOD9258931
Probable space group: C 2/C
;
_chemical_formula_sum "Si O2"
_cell_formula_units_Z 64
_cell_length_a 19.021737
_cell_length_b 9.250471
_cell_length_c 23.952158
_cell_angle_alpha 90.000000
_cell_angle_beta 53.874689
_cell_angle_gamma 90.000000
_cell_volume 3404.274899
_symmetry_space_group_name_H-M "C 2/C"
_symmetry_group_IT_number 15
_symmetry_cell_setting 'monoclinic'
loop_
_space_group_symop_operation_xyz
x,y,z
-x,y,1/2-z
-x,-y,-z
x,-y,1/2+z
1/2+x,1/2+y,z
1/2-x,1/2+y,1/2-z
1/2-x,1/2-y,-z
1/2+x,1/2-y,1/2+z
loop_
_atom_site_type_symbol
_atom_site_label
_atom_site_fract_x
_atom_site_fract_y
_atom_site_fract_z
Si Si1 0.740615 0.146574 0.200934
Si Si2 0.964250 0.742706 0.890893
Si Si3 0.642399 0.657520 0.168826
Si Si4 0.801045 0.741123 0.033218
Si Si5 0.425473 0.944667 0.239817
Si Si6 0.845296 0.054083 0.738959
Si Si7 0.642162 0.534897 0.448175
Si Si8 0.017930 0.046702 0.910308
O O1 0.719064 0.311856 0.223640
O O2 0.797460 0.134825 0.117645
O O3 0.649002 0.061936 0.236084
O O4 0.795855 0.064813 0.223356
O O5 0.915034 0.818421 0.860466
O O6 0.024297 0.617333 0.837990
O O7 0.895729 0.689316 0.969485
O O8 0.011721 0.876758 0.897640
O O9 0.743428 0.652572 0.103514
O O10 0.621998 0.802864 0.212691
O O11 0.625452 0.522983 0.217376
O O12 0.802408 0.907060 0.051687
O O13 0.750000 0.750000 0.000000
O O14 0.500000 0.989347 0.250000
O O15 0.930167 0.111593 0.665798
O O16 0.577336 0.598282 0.525581
O O17 0.579585 0.446977 0.435003
#
# Coordination Sequence:
#
# PCOD9258931 Si02
#       8
#     8   8   8   8   8   8   8   8
#     4  11  23  38  57  83 115 150 191 233 290 337
#     4   9  18  32  58  84 110 149 188 228 276 341
#     4  10  18  34  57  84 112 143 193 232 274 332
#     4   9  17  31  57  85 109 146 193 230 280 341
#     4  10  19  35  56  82 113 148 182 237 282 330
#     4  11  23  36  59  84 113 153 192 238 281 337
#     4   9  18  33  56  79 113 144 187 233 279 341
#     4   9  18  33  54  84 109 147 186 227 283 335
#
# _framework density 18.799892
#
# number of rings (size 3 to 8) (size 9 to 14) (size 15 to 20)
#    0.000    2.250    2.500    0.750    3.500    0.000 
#    2.250    1.250    0.000    8.250    0.000    0.000 
#    0.000    0.000    0.000    0.000    0.000    0.000 
#
# Total GULP energy -178219.037856 kJ/mol
# GULP energy per Si atom -5569.344933 kJ/mol
# Density = 1.875710 g / cm^3
# Si number density = 18.799892 Si / 1000 Ang^3
#
#
#
# Elastic Constant Matrix: (Units=GPa)
#
#
# Indices 1 2 3 4 5 6 
#
# 1 45.2307 19.1005 12.3623 0.0000 -3.6797 0.0002
# 2 19.1005 45.3970 23.7199 0.0001 3.0882 0.0004
# 3 12.3623 23.7199 153.2786 0.0000 -16.4064 0.0000
# 4 0.0000 0.0001 0.0000 0.7129 0.0000 -17.2613
# 5 -3.6797 3.0882 -16.4064 0.0000 25.0400 0.0000
# 6 0.0002 0.0004 0.0000 -17.2613 0.0000 17.1809
#
#
#
# Elastic Compliance Matrix: (Units=1/GPa)
#
#
# Indices 1 2 3 4 5 6 
#
# 1 0.027637 -0.012157 0.000266 0.000000 0.005735 0.000000
# 2 -0.012157 0.030121 -0.004592 0.000001 -0.008510 0.000000
# 3 0.000266 -0.004592 0.007827 0.000000 0.005734 0.000000
# 4 0.000000 0.000001 0.000000 -0.060135 0.000000 -0.060417
# 5 0.005735 -0.008510 0.005734 0.000000 0.045585 0.000000
# 6 0.000000 0.000000 0.000000 -0.060417 0.000000 -0.002495
#
#
# Mechanical properties :
#
#
# Convention : Reuss Voigt Hill
#
# Bulk Modulus (GPa) = 30.65666 39.36351 35.01009
# Shear Modulus (GPa) = 54.12602 21.16835 37.64718
#
# Velocity S-wave (km/s) = 5.37151 3.35921 4.47981
# Velocity P-wave (km/s) = 7.40358 6.00244 6.73952
#
# Compressibility (1/GPa) = 0.03261933
#
# Stress axis : x y z
#
# Youngs Moduli (GPa) = 36.18398 33.19953 127.76538
#
# Poissons Ratio (x) = 0.40361 -0.03401
# Poissons Ratio (y) = 0.43989 0.58664
# Poissons Ratio (z) = -0.00963 0.15244
#
# Static dielectric constant tensor:
#      x y z
#    x 1.698300 0.000000 -0.035980 
#    y 0.000000 1.592940 0.000000 
#    z -0.035980 0.000000 1.748910 
# 
# From -- ./inp_files/300357.got.cif
#   From: 2010.05.17/outbox.cif.g08.bks.cpg/sg15_151_cif.got.tgz:300357.got - 2010.06.03 18:47:42.
