data_PCOD9258294
_publ_section_title
;
Structure prediction by ZEFSAII (Michael W. Deem and Ramdas Pophale) SiO2 
 PCOD9258294
Probable space group: C 2/C
;
_chemical_formula_sum "Si O2"
_cell_formula_units_Z 56
_cell_length_a 8.040404
_cell_length_b 17.204785
_cell_length_c 18.906621
_cell_angle_alpha 90.000000
_cell_angle_beta 114.847175
_cell_angle_gamma 90.000000
_cell_volume 2373.313115
_symmetry_space_group_name_H-M "C 2/C"
_symmetry_group_IT_number 15
_symmetry_cell_setting 'monoclinic'
loop_
_space_group_symop_operation_xyz
x,y,z
-x,y,1/2-z
-x,-y,-z
x,-y,1/2+z
1/2+x,1/2+y,z
1/2-x,1/2+y,1/2-z
1/2-x,1/2-y,-z
1/2+x,1/2-y,1/2+z
loop_
_atom_site_type_symbol
_atom_site_label
_atom_site_fract_x
_atom_site_fract_y
_atom_site_fract_z
Si Si1 0.945743 0.890580 0.588458
Si Si2 0.197109 0.527012 0.307681
Si Si3 0.700688 0.591807 0.793528
Si Si4 0.560939 0.130142 0.044504
Si Si5 0.792241 0.053643 0.541947
Si Si6 0.043925 0.801938 0.046576
Si Si7 0.590271 0.123929 0.878667
O O1 0.769539 0.879842 0.608226
O O2 0.946272 0.817516 0.535983
O O3 0.887623 0.972619 0.540783
O O4 0.152161 0.908783 0.647454
O O5 0.287784 0.477397 0.260642
O O6 0.149810 0.459827 0.357152
O O7 0.000000 0.559797 0.250000
O O8 0.500000 0.629348 0.750000
O O9 0.723820 0.556582 0.875967
O O10 0.885475 0.641281 0.814850
O O11 0.404084 0.067076 0.030255
O O12 0.580274 0.127088 0.962240
O O13 0.487760 0.214661 0.052386
O O14 0.912839 0.129248 0.547837
O O15 0.246110 0.818705 0.112705
#
# Coordination Sequence:
#
# PCOD9258294 Si02
#       7
#     8   8   8   8   8   8   8
#     4  11  20  36  59  89 117 148 196 243 291 348
#     4  10  20  35  57  89 115 151 200 255 287 336
#     4  10  18  33  53  86 113 148 193 255 285 325
#     4  10  23  36  57  89 128 151 182 240 310 358
#     4  11  21  36  60  90 117 148 202 243 290 345
#     4  11  21  38  58  88 125 155 184 236 312 362
#     4   9  18  32  55  81 116 149 194 229 298 347
#
# _framework density 23.595707000000001
#
# number of rings (size 3 to 8) (size 9 to 14) (size 15 to 20)
#    0.000    1.714    2.857    3.000    2.000    0.000 
#    2.571    0.000    0.000    7.714   70.571    0.000 
#    0.000    0.000    0.000    0.000    0.000    0.000 
#
# Total GULP energy -156316.577172 kJ/mol
# GULP energy per Si atom -5582.734899 kJ/mol
# Density = 2.354200 g / cm^3
# Si number density = 23.595707 Si / 1000 Ang^3
#
#
#
# Elastic Constant Matrix: (Units=GPa)
#
#
# Indices 1 2 3 4 5 6 
#
# 1 95.4970 20.2025 31.3087 0.0000 34.1884 0.0000
# 2 20.2025 83.3628 11.7842 0.0000 13.8003 0.0000
# 3 31.3087 11.7842 64.9818 0.0000 31.1694 0.0000
# 4 0.0000 0.0000 0.0000 13.3425 0.0000 4.2397
# 5 34.1884 13.8003 31.1694 0.0000 60.3126 0.0000
# 6 0.0000 0.0000 0.0000 4.2397 0.0000 30.4719
#
#
#
# Elastic Compliance Matrix: (Units=1/GPa)
#
#
# Indices 1 2 3 4 5 6 
#
# 1 0.014130 -0.001963 -0.003757 0.000000 -0.005619 0.000000
# 2 -0.001963 0.012810 -0.000671 0.000000 -0.001471 0.000000
# 3 -0.003757 -0.000671 0.021573 0.000000 -0.008866 0.000000
# 4 0.000000 0.000000 0.000000 0.078415 0.000000 -0.010910
# 5 -0.005619 -0.001471 -0.008866 0.000000 0.024684 0.000000
# 6 0.000000 0.000000 0.000000 -0.010910 0.000000 0.034335
#
#
# Mechanical properties :
#
#
# Convention : Reuss Voigt Hill
#
# Bulk Modulus (GPa) = 27.98705 41.15917 34.57311
# Shear Modulus (GPa) = 23.73709 32.86182 28.29945
#
# Velocity S-wave (km/s) = 3.17518 3.73594 3.46692
# Velocity P-wave (km/s) = 5.03281 6.00758 5.54167
#
# Compressibility (1/GPa) = 0.03573082
#
# Stress axis : x y z
#
# Youngs Moduli (GPa) = 70.77086 78.06404 46.35341
#
# Poissons Ratio (x) = 0.15325 0.17414
# Poissons Ratio (y) = 0.13893 0.03113
# Poissons Ratio (z) = 0.26587 0.05242
#
# Static dielectric constant tensor:
#      x y z
#    x 1.983190 0.000000 0.018680 
#    y 0.000000 1.844630 0.000000 
#    z 0.018680 0.000000 1.974030 
# 
# From -- ./inp_files/265327.got.cif
#   From: 2010.05.17/outbox.cif.g08.bks.cpg/sg15_133_cif.got.tgz:265327.got - 2010.06.03 18:47:42.
