data_PCOD9258295
_publ_section_title
;
Structure prediction by ZEFSAII (Michael W. Deem and Ramdas Pophale) SiO2 
 PCOD9258295
Probable space group: C 2/C
;
_chemical_formula_sum "Si O2"
_cell_formula_units_Z 48
_cell_length_a 11.909194
_cell_length_b 12.968515
_cell_length_c 13.960156
_cell_angle_alpha 90.000000
_cell_angle_beta 105.855081
_cell_angle_gamma 90.000000
_cell_volume 2074.044187
_symmetry_space_group_name_H-M "C 2/C"
_symmetry_group_IT_number 15
_symmetry_cell_setting 'monoclinic'
loop_
_space_group_symop_operation_xyz
x,y,z
-x,y,1/2-z
-x,-y,-z
x,-y,1/2+z
1/2+x,1/2+y,z
1/2-x,1/2+y,1/2-z
1/2-x,1/2-y,-z
1/2+x,1/2-y,1/2+z
loop_
_atom_site_type_symbol
_atom_site_label
_atom_site_fract_x
_atom_site_fract_y
_atom_site_fract_z
Si Si1 0.254401 0.127903 0.515848
Si Si2 0.659772 0.640258 0.881949
Si Si3 0.530045 0.998491 0.894931
Si Si4 0.295063 0.097783 0.309146
Si Si5 0.115655 0.837097 0.165107
Si Si6 0.742916 0.864940 0.899469
O O1 0.250000 0.250000 0.500000
O O2 0.379336 0.093272 0.590690
O O3 0.244093 0.084368 0.404252
O O4 0.160507 0.112149 0.577806
O O5 0.523411 0.663244 0.862945
O O6 0.665259 0.605950 0.772212
O O7 0.742289 0.741664 0.899499
O O8 0.695200 0.591473 0.991976
O O9 0.403247 0.982010 0.819369
O O10 0.609454 0.901898 0.883068
O O11 0.500000 0.000000 0.000000
O O12 0.345809 0.216120 0.322078
O O13 0.217288 0.098462 0.195602
#
# Coordination Sequence:
#
# PCOD9258295 Si02
#       6
#     8   8   8   8   8   8
#     4   9  19  34  55  79 114 151 191 235 295 355
#     4   9  18  31  58  80 112 152 198 236 288 351
#     4  10  19  33  54  86 112 146 189 237 295 343
#     4   9  17  33  57  78 117 153 186 238 301 336
#     4   9  16  34  55  80 109 157 195 236 284 351
#     4  10  18  33  53  86 113 148 194 244 284 349
#
# _framework density 23.143189
#
# number of rings (size 3 to 8) (size 9 to 14) (size 15 to 20)
#    0.000    2.667    1.667    0.500    0.000    0.000 
#    9.000    1.667    0.000    0.000    0.000    0.000 
#    0.000    0.000    0.000    0.000    0.000    0.000 
#
# Total GULP energy -133661.319714 kJ/mol
# GULP energy per Si atom -5569.221655 kJ/mol
# Density = 2.309051 g / cm^3
# Si number density = 23.143189 Si / 1000 Ang^3
#
#
#
# Elastic Constant Matrix: (Units=GPa)
#
#
# Indices 1 2 3 4 5 6 
#
# 1 62.9609 8.3715 45.6770 0.0000 -24.3672 0.0000
# 2 8.3715 55.9064 27.1785 0.0000 -9.9447 0.0000
# 3 45.6770 27.1785 224.2071 0.0000 -30.6398 0.0000
# 4 0.0000 0.0000 0.0000 39.8488 0.0000 -6.2873
# 5 -24.3672 -9.9447 -30.6398 0.0000 36.0211 0.0000
# 6 0.0000 0.0000 0.0000 -6.2873 0.0000 32.5907
#
#
#
# Elastic Compliance Matrix: (Units=1/GPa)
#
#
# Indices 1 2 3 4 5 6 
#
# 1 0.023081 0.000320 -0.002937 0.000000 0.013204 0.000000
# 2 0.000320 0.019463 -0.001879 0.000000 0.003991 0.000000
# 3 -0.002937 -0.001879 0.005594 0.000000 0.002253 0.000000
# 4 0.000000 0.000000 0.000000 0.025883 0.000000 0.004993
# 5 0.013204 0.003991 0.002253 0.000000 0.039712 0.000000
# 6 0.000000 0.000000 0.000000 0.004993 0.000000 0.031647
#
#
# Mechanical properties :
#
#
# Convention : Reuss Voigt Hill
#
# Bulk Modulus (GPa) = 25.54482 56.16983 40.85732
# Shear Modulus (GPa) = 29.86513 39.14860 34.50686
#
# Velocity S-wave (km/s) = 3.59618 4.11735 3.86556
# Velocity P-wave (km/s) = 5.32025 6.85030 6.13318
#
# Compressibility (1/GPa) = 0.03914688
#
# Stress axis : x y z
#
# Youngs Moduli (GPa) = 43.32559 51.38066 178.75963
#
# Poissons Ratio (x) = -0.01645 0.52494
# Poissons Ratio (y) = -0.01387 0.33589
# Poissons Ratio (z) = 0.12723 0.09655
#
# Static dielectric constant tensor:
#      x y z
#    x 1.817600 0.000000 -0.015050 
#    y 0.000000 1.964490 0.000000 
#    z -0.015050 0.000000 1.969520 
# 
# From -- ./inp_files/143838.got.cif
#   From: 2010.05.17/outbox.cif.g08.bks.cpg/sg15_72_cif.got.tgz:143838.got - 2010.06.03 18:47:42.
