data_PCOD9258413
_publ_section_title
;
Structure prediction by ZEFSAII (Michael W. Deem and Ramdas Pophale) SiO2 
 PCOD9258413
Probable space group: C 2/C
;
_chemical_formula_sum "Si O2"
_cell_formula_units_Z 48
_cell_length_a 16.396845
_cell_length_b 12.471557
_cell_length_c 12.430643
_cell_angle_alpha 90.000000
_cell_angle_beta 100.524256
_cell_angle_gamma 90.000000
_cell_volume 2499.231970
_symmetry_space_group_name_H-M "C 2/C"
_symmetry_group_IT_number 15
_symmetry_cell_setting 'monoclinic'
loop_
_space_group_symop_operation_xyz
x,y,z
-x,y,1/2-z
-x,-y,-z
x,-y,1/2+z
1/2+x,1/2+y,z
1/2-x,1/2+y,1/2-z
1/2-x,1/2-y,-z
1/2+x,1/2-y,1/2+z
loop_
_atom_site_type_symbol
_atom_site_label
_atom_site_fract_x
_atom_site_fract_y
_atom_site_fract_z
Si Si1 0.199657 0.913094 0.521843
Si Si2 0.246821 0.532714 0.779908
Si Si3 0.596391 0.391718 0.304109
Si Si4 0.830990 0.307188 0.389188
Si Si5 0.525967 0.895906 0.940463
Si Si6 0.381570 0.853570 0.751105
O O1 0.116783 0.922981 0.431717
O O2 0.186769 0.818288 0.605366
O O3 0.269105 0.868354 0.457102
O O4 0.233971 0.016852 0.589780
O O5 0.337861 0.540945 0.749292
O O6 0.191655 0.633908 0.727537
O O7 0.194730 0.427505 0.732527
O O8 0.500000 0.400596 0.250000
O O9 0.626049 0.267863 0.293460
O O10 0.921164 0.327108 0.462125
O O11 0.444740 0.845514 0.865977
O O12 0.580673 0.914206 0.845186
O O13 0.500000 0.000000 0.000000
#
# Coordination Sequence:
#
# PCOD9258413 Si02
#       6
#     8   8   8   8   8   8
#     4  10  19  36  56  79 114 148 194 241 279 339
#     4  11  21  31  58  88 114 150 195 239 292 343
#     4  11  22  39  62  86 112 157 204 239 285 349
#     4  10  18  33  56  82 112 151 189 235 289 339
#     4  11  19  32  59  88 117 143 196 247 291 336
#     4  11  20  36  59  90 115 150 198 244 284 353
#
# _framework density 19.205901000000001
#
# number of rings (size 3 to 8) (size 9 to 14) (size 15 to 20)
#    0.000    1.333    6.667    2.000    0.000    0.667 
#    0.000    0.000    0.000   29.000    0.000    0.000 
#    0.000    0.000    0.000    0.000    0.000    0.000 
#
# Total GULP energy -133637.126582 kJ/mol
# GULP energy per Si atom -5568.213608 kJ/mol
# Density = 1.916219 g / cm^3
# Si number density = 19.205901 Si / 1000 Ang^3
#
#
#
# Elastic Constant Matrix: (Units=GPa)
#
#
# Indices 1 2 3 4 5 6 
#
# 1 84.3985 20.5004 13.8663 0.0000 17.6448 0.0000
# 2 20.5004 36.1841 29.2992 0.0000 -8.3220 0.0000
# 3 13.8663 29.2992 100.2551 0.0000 25.7919 0.0000
# 4 0.0000 0.0000 0.0000 40.1047 0.0000 1.0314
# 5 17.6448 -8.3220 25.7919 0.0000 31.9603 0.0000
# 6 0.0000 0.0000 0.0000 1.0314 0.0000 26.1898
#
#
#
# Elastic Compliance Matrix: (Units=1/GPa)
#
#
# Indices 1 2 3 4 5 6 
#
# 1 0.025925 -0.037025 0.016907 0.000000 -0.037597 0.000000
# 2 -0.037025 0.109409 -0.049775 0.000000 0.089098 0.000000
# 3 0.016907 -0.049775 0.035233 0.000000 -0.050728 0.000000
# 4 0.000000 0.000000 0.000000 0.024960 0.000000 -0.000983
# 5 -0.037597 0.089098 -0.050728 0.000000 0.116183 0.000000
# 6 0.000000 0.000000 0.000000 -0.000983 0.000000 0.038221
#
#
# Mechanical properties :
#
#
# Convention : Reuss Voigt Hill
#
# Bulk Modulus (GPa) = 32.48752 38.68549 35.58651
# Shear Modulus (GPa) = 10.00045 30.12909 20.06477
#
# Velocity S-wave (km/s) = 2.28435 3.96503 3.23572
# Velocity P-wave (km/s) = 4.88976 6.41469 5.70342
#
# Compressibility (1/GPa) = 0.03078105
#
# Stress axis : x y z
#
# Youngs Moduli (GPa) = 38.57350 9.13999 28.38241
#
# Poissons Ratio (x) = 0.33841 -0.47987
# Poissons Ratio (y) = 1.42819 1.41274
# Poissons Ratio (z) = -0.65217 0.45494
#
# Static dielectric constant tensor:
#      x y z
#    x 1.732700 0.000000 0.041080 
#    y 0.000000 1.669720 0.000000 
#    z 0.041080 0.000000 1.728520 
# 
# From -- ./inp_files/104273.got.cif
#   From: 2010.05.17/outbox.cif.g08.bks.cpg/sg15_53_cif.got.tgz:104273.got - 2010.06.03 18:47:42.
