data_PCOD9258779
_publ_section_title
;
Structure prediction by ZEFSAII (Michael W. Deem and Ramdas Pophale) SiO2 
 PCOD9258779
Probable space group: C 2/C
;
_chemical_formula_sum "Si O2"
_cell_formula_units_Z 60
_cell_length_a 9.251763
_cell_length_b 10.131299
_cell_length_c 28.736837
_cell_angle_alpha 90.000000
_cell_angle_beta 72.018576
_cell_angle_gamma 90.000000
_cell_volume 2562.008973
_symmetry_space_group_name_H-M "C 2/C"
_symmetry_group_IT_number 15
_symmetry_cell_setting 'monoclinic'
loop_
_space_group_symop_operation_xyz
x,y,z
-x,y,1/2-z
-x,-y,-z
x,-y,1/2+z
1/2+x,1/2+y,z
1/2-x,1/2+y,1/2-z
1/2-x,1/2-y,-z
1/2+x,1/2-y,1/2+z
loop_
_atom_site_type_symbol
_atom_site_label
_atom_site_fract_x
_atom_site_fract_y
_atom_site_fract_z
Si Si1 0.327734 0.283094 0.075770
Si Si2 0.306740 0.997666 0.964242
Si Si3 0.757137 0.165885 0.834106
Si Si4 0.954754 0.685999 0.377294
Si Si5 0.240747 0.402693 0.794283
Si Si6 0.936954 0.691639 0.824045
Si Si7 0.342324 0.968665 0.060030
Si Si8 0.000000 0.452492 0.750000
O O1 0.313667 0.389104 0.036166
O O2 0.474447 0.293895 0.094555
O O3 0.181503 0.314169 0.122062
O O4 0.322776 0.128818 0.061995
O O5 0.333959 0.898658 0.918403
O O6 0.476788 0.058199 0.954410
O O7 0.279537 0.925836 0.016014
O O8 0.887151 0.266015 0.835494
O O9 0.601005 0.223652 0.829370
O O10 0.803787 0.049894 0.794180
O O11 0.729549 0.101033 0.888234
O O12 0.107402 0.608268 0.346851
O O13 0.365814 0.296892 0.795518
O O14 0.149841 0.382700 0.755640
O O15 0.949172 0.553806 0.795934
#
# Coordination Sequence:
#
# PCOD9258779 Si02
#       8
#     8   8   8   8   8   8   8   4
#     4  10  18  38  58  81 115 159 196 237 297 347
#     4  10  18  34  54  86 118 155 204 244 283 335
#     4  11  20  38  60  86 116 157 196 235 281 348
#     4  10  22  36  59  84 115 158 196 235 296 338
#     4  10  21  43  58  85 118 149 185 235 292 354
#     4  10  20  38  63  83 112 151 188 230 296 346
#     4  10  19  32  59  84 116 159 199 243 288 334
#     4  10  22  36  64  86 112 140 186 246 282 350
#
# _framework density 23.419121000000001
#
# number of rings (size 3 to 8) (size 9 to 14) (size 15 to 20)
#    0.000    1.867    5.333    1.200    0.000    3.733 
#    0.000    3.333    0.000    0.000    0.000    0.000 
#    0.000    0.000    0.000    0.000    0.000    0.000 
#
# Total GULP energy -167538.384687 kJ/mol
# GULP energy per Si atom -5584.612823 kJ/mol
# Density = 2.336582 g / cm^3
# Si number density = 23.419121 Si / 1000 Ang^3
#
#
#
# Elastic Constant Matrix: (Units=GPa)
#
#
# Indices 1 2 3 4 5 6 
#
# 1 94.9118 60.7291 27.2811 0.0000 38.0048 0.0000
# 2 60.7291 66.3810 14.8168 0.0000 25.8414 0.0000
# 3 27.2811 14.8168 82.1039 0.0000 24.5161 0.0000
# 4 0.0000 0.0000 0.0000 31.5149 0.0000 15.3939
# 5 38.0048 25.8414 24.5161 0.0000 53.4073 0.0000
# 6 0.0000 0.0000 0.0000 15.3939 0.0000 42.2496
#
#
#
# Elastic Compliance Matrix: (Units=1/GPa)
#
#
# Indices 1 2 3 4 5 6 
#
# 1 0.029590 -0.023081 -0.003145 0.000000 -0.008445 0.000000
# 2 -0.023081 0.036607 0.001678 0.000000 -0.002058 0.000000
# 3 -0.003145 0.001678 0.014481 0.000000 -0.005221 0.000000
# 4 0.000000 0.000000 0.000000 0.038601 0.000000 -0.014065
# 5 -0.008445 -0.002058 -0.005221 0.000000 0.028126 0.000000
# 6 0.000000 0.000000 0.000000 -0.014065 0.000000 0.028793
#
#
# Mechanical properties :
#
#
# Convention : Reuss Voigt Hill
#
# Bulk Modulus (GPa) = 31.66498 49.89452 40.77975
# Shear Modulus (GPa) = 21.20240 34.80569 28.00404
#
# Velocity S-wave (km/s) = 3.01216 3.85932 3.46175
# Velocity P-wave (km/s) = 5.06437 6.41953 5.78179
#
# Compressibility (1/GPa) = 0.03158063
#
# Stress axis : x y z
#
# Youngs Moduli (GPa) = 33.79532 27.31705 69.05617
#
# Poissons Ratio (x) = 0.63051 0.21719
# Poissons Ratio (y) = 0.78003 -0.11585
# Poissons Ratio (z) = 0.10629 -0.04583
#
# Static dielectric constant tensor:
#      x y z
#    x 1.863960 0.000000 0.033010 
#    y 0.000000 1.924820 0.000000 
#    z 0.033010 0.000000 1.972960 
# 
# From -- ./inp_files/307168.got.cif
#   From: 2010.05.17/outbox.cif.g08.bks.cpg/sg15_154_cif.got.tgz:307168.got - 2010.06.03 18:47:42.
