data_PCOD9258766
_publ_section_title
;
Structure prediction by ZEFSAII (Michael W. Deem and Ramdas Pophale) SiO2 
 PCOD9258766
Probable space group: C 2/C
;
_chemical_formula_sum "Si O2"
_cell_formula_units_Z 60
_cell_length_a 17.359529
_cell_length_b 17.490214
_cell_length_c 27.773510
_cell_angle_alpha 90.000000
_cell_angle_beta 158.027059
_cell_angle_gamma 90.000000
_cell_volume 3155.231670
_symmetry_space_group_name_H-M "C 2/C"
_symmetry_group_IT_number 15
_symmetry_cell_setting 'monoclinic'
loop_
_space_group_symop_operation_xyz
x,y,z
-x,y,1/2-z
-x,-y,-z
x,-y,1/2+z
1/2+x,1/2+y,z
1/2-x,1/2+y,1/2-z
1/2-x,1/2-y,-z
1/2+x,1/2-y,1/2+z
loop_
_atom_site_type_symbol
_atom_site_label
_atom_site_fract_x
_atom_site_fract_y
_atom_site_fract_z
Si Si1 0.500000 0.006587 0.750000
Si Si2 0.174730 0.623415 0.770972
Si Si3 0.725800 0.152662 0.020199
Si Si4 0.271028 0.492136 0.610832
Si Si5 0.548877 0.477544 0.473253
Si Si6 0.422617 0.111303 0.417353
Si Si7 0.937048 0.138836 0.362650
Si Si8 0.892928 0.753626 0.463254
O O1 0.569180 0.061131 0.745612
O O2 0.293928 0.961150 0.614659
O O3 0.376876 0.586451 0.862947
O O4 0.253196 0.691993 0.849776
O O5 0.003201 0.651013 0.634308
O O6 0.765990 0.068488 0.064732
O O7 0.738646 0.210595 0.072043
O O8 0.892448 0.168814 0.076088
O O9 0.500000 0.521608 0.750000
O O10 0.204905 0.443449 0.619821
O O11 0.112614 0.560199 0.511265
O O12 0.500000 0.500000 0.500000
O O13 0.505036 0.553474 0.417080
O O14 0.277672 0.135176 0.289351
O O15 0.483993 0.186222 0.483262
O O16 0.948330 0.192302 0.416097
#
# Coordination Sequence:
#
# PCOD9258766 Si02
#       8
#     4   8   8   8   8   8   8   8
#     4  10  18  34  54  84 106 148 186 234 288 334
#     4  11  20  38  56  82 121 152 190 237 290 342
#     4  11  22  34  59  92 114 152 193 239 296 347
#     4  10  20  42  62  85 115 151 202 250 280 333
#     4  10  20  35  57  79 115 152 190 235 281 339
#     4  10  23  37  61  88 117 154 197 239 289 345
#     4  12  20  36  57  89 122 151 192 236 296 350
#     4  11  23  36  55  87 126 155 184 235 296 356
#
# _framework density 19.016037000000001
#
# number of rings (size 3 to 8) (size 9 to 14) (size 15 to 20)
#    0.000    1.333    5.333    2.000    0.000    2.133 
#    0.000    0.000    1.467    0.800    0.000    0.000 
#    0.000    0.000    0.000    0.000    0.000    0.000 
#
# Total GULP energy -167585.918312 kJ/mol
# GULP energy per Si atom -5586.197277 kJ/mol
# Density = 1.897276 g / cm^3
# Si number density = 19.016037 Si / 1000 Ang^3
#
#
#
# Elastic Constant Matrix: (Units=GPa)
#
#
# Indices 1 2 3 4 5 6 
#
# 1 18.8785 16.1871 13.0088 -0.0009 -1.2905 0.0010
# 2 16.1871 73.3246 59.8134 -0.0013 1.4926 0.0032
# 3 13.0088 59.8134 123.7982 -0.0029 2.5795 0.0088
# 4 -0.0009 -0.0013 -0.0029 8.2439 0.0043 -4.6093
# 5 -1.2905 1.4926 2.5795 0.0043 29.5781 -0.0008
# 6 0.0010 0.0032 0.0088 -4.6093 -0.0008 29.6940
#
#
#
# Elastic Compliance Matrix: (Units=1/GPa)
#
#
# Indices 1 2 3 4 5 6 
#
# 1 0.065720 -0.014668 0.000106 0.000003 0.003598 0.000000
# 2 -0.014668 0.025784 -0.010896 0.000000 -0.000991 0.000001
# 3 0.000106 -0.010896 0.013344 0.000002 -0.000609 -0.000002
# 4 0.000003 0.000000 0.000002 0.132830 -0.000019 0.020619
# 5 0.003598 -0.000991 -0.000609 -0.000019 0.034069 -0.000002
# 6 0.000000 0.000001 -0.000002 0.020619 -0.000002 0.036877
#
#
# Mechanical properties :
#
#
# Convention : Reuss Voigt Hill
#
# Bulk Modulus (GPa) = 18.54171 43.77999 31.16085
# Shear Modulus (GPa) = 13.24442 21.96934 17.60688
#
# Velocity S-wave (km/s) = 2.64197 3.40267 3.04616
# Velocity P-wave (km/s) = 4.36788 6.20566 5.36603
#
# Compressibility (1/GPa) = 0.05393245
#
# Stress axis : x y z
#
# Youngs Moduli (GPa) = 15.21600 38.78329 74.94266
#
# Poissons Ratio (x) = 0.56888 -0.00794
# Poissons Ratio (y) = 0.22319 0.81656
# Poissons Ratio (z) = -0.00161 0.42257
#
# Static dielectric constant tensor:
#      x y z
#    x 1.649500 0.000000 -0.015250 
#    y 0.000000 1.683090 0.000000 
#    z -0.015250 0.000000 1.659040 
# 
# From -- ./inp_files/316654.got.cif
#   From: 2010.05.17/outbox.cif.g08.bks.cpg/sg15_159_cif.got.tgz:316654.got - 2010.06.03 18:47:42.
