data_PCOD9258273
_publ_section_title
;
Structure prediction by ZEFSAII (Michael W. Deem and Ramdas Pophale) SiO2 
 PCOD9258273
Probable space group: C 2/C
;
_chemical_formula_sum "Si O2"
_cell_formula_units_Z 60
_cell_length_a 25.365653
_cell_length_b 14.789901
_cell_length_c 11.885606
_cell_angle_alpha 90.000000
_cell_angle_beta 52.598061
_cell_angle_gamma 90.000000
_cell_volume 3542.163753
_symmetry_space_group_name_H-M "C 2/C"
_symmetry_group_IT_number 15
_symmetry_cell_setting 'monoclinic'
loop_
_space_group_symop_operation_xyz
x,y,z
-x,y,1/2-z
-x,-y,-z
x,-y,1/2+z
1/2+x,1/2+y,z
1/2-x,1/2+y,1/2-z
1/2-x,1/2-y,-z
1/2+x,1/2-y,1/2+z
loop_
_atom_site_type_symbol
_atom_site_label
_atom_site_fract_x
_atom_site_fract_y
_atom_site_fract_z
Si Si1 0.563462 0.683669 0.601068
Si Si2 0.394711 0.519667 0.452484
Si Si3 0.908739 0.753463 0.681057
Si Si4 0.265910 0.541823 0.227541
Si Si5 0.000000 0.831698 0.750000
Si Si6 0.798196 0.888971 0.913284
Si Si7 0.787900 0.228260 0.066455
Si Si8 0.797806 0.364700 0.261283
O O1 0.500000 0.716709 0.750000
O O2 0.567924 0.575024 0.602005
O O3 0.560545 0.712169 0.474984
O O4 0.633213 0.720425 0.557439
O O5 0.339228 0.505847 0.621923
O O6 0.447366 0.601893 0.382508
O O7 0.347369 0.538344 0.406618
O O8 0.845954 0.817412 0.791608
O O9 0.871891 0.659129 0.705950
O O10 0.959861 0.769963 0.714740
O O11 0.254992 0.568474 0.370534
O O12 0.267866 0.631510 0.147708
O O13 0.213418 0.468880 0.254445
O O14 0.754170 0.847682 0.069910
O O15 0.780341 0.303431 0.174866
O O16 0.750000 0.250000 0.000000
#
# Coordination Sequence:
#
# PCOD9258273 Si02
#       8
#     8   8   8   8   4   8   8   8
#     4  10  19  35  52  77 113 154 179 230 296 344
#     4   9  18  29  47  81 112 145 176 220 280 362
#     4  10  20  36  50  75 116 145 188 237 276 344
#     4  10  20  34  55  85 114 148 183 234 291 342
#     4  10  20  32  52  78 108 154 190 230 292 346
#     4  10  18  33  53  78 114 142 188 222 282 340
#     4  10  22  39  55  88 123 148 194 238 284 360
#     4  10  21  34  57  78 117 154 181 240 287 332
#
# _framework density 16.938800000000001
#
# number of rings (size 3 to 8) (size 9 to 14) (size 15 to 20)
#    0.000    2.133    4.667    0.400    5.600    1.600 
#    4.800    0.000    0.000    0.000    1.733    2.800 
#    0.000    0.000    0.000    0.000    0.000    0.000 
#
# Total GULP energy -167107.940119 kJ/mol
# GULP energy per Si atom -5570.264671 kJ/mol
# Density = 1.690025 g / cm^3
# Si number density = 16.938800 Si / 1000 Ang^3
#
#
#
# Elastic Constant Matrix: (Units=GPa)
#
#
# Indices 1 2 3 4 5 6 
#
# 1 115.3099 47.0768 52.9267 0.0000 8.6775 0.0000
# 2 47.0768 72.8848 38.2615 0.0000 -2.1056 0.0000
# 3 52.9267 38.2615 108.8636 0.0000 7.1531 0.0000
# 4 0.0000 0.0000 0.0000 23.0431 0.0000 -0.3880
# 5 8.6775 -2.1056 7.1531 0.0000 15.9910 0.0000
# 6 0.0000 0.0000 0.0000 -0.3880 0.0000 16.5326
#
#
#
# Elastic Compliance Matrix: (Units=1/GPa)
#
#
# Indices 1 2 3 4 5 6 
#
# 1 0.013829 -0.007151 -0.003766 0.000000 -0.006761 0.000000
# 2 -0.007151 0.020920 -0.004443 0.000000 0.008622 0.000000
# 3 -0.003766 -0.004443 0.012860 0.000000 -0.004294 0.000000
# 4 0.000000 0.000000 0.000000 0.043414 0.000000 0.001019
# 5 -0.006761 0.008622 -0.004294 0.000000 0.069260 0.000000
# 6 0.000000 0.000000 0.000000 0.001019 0.000000 0.060510
#
#
# Mechanical properties :
#
#
# Convention : Reuss Voigt Hill
#
# Bulk Modulus (GPa) = 59.20311 63.73205 61.46758
# Shear Modulus (GPa) = 19.44441 21.69956 20.57198
#
# Velocity S-wave (km/s) = 3.39177 3.58307 3.48873
# Velocity P-wave (km/s) = 7.09689 7.40435 7.25225
#
# Compressibility (1/GPa) = 0.01689100
#
# Stress axis : x y z
#
# Youngs Moduli (GPa) = 72.31208 47.80043 77.75879
#
# Poissons Ratio (x) = 0.34180 0.29283
# Poissons Ratio (y) = 0.51708 0.34547
# Poissons Ratio (z) = 0.27232 0.21237
#
# Static dielectric constant tensor:
#      x y z
#    x 1.575310 0.000000 0.007750 
#    y 0.000000 1.598630 0.000000 
#    z 0.007750 0.000000 1.594380 
# 
# From -- ./inp_files/118787.got.cif
#   From: 2010.05.17/outbox.cif.g08.bks.cpg/sg15_60_cif.got.tgz:118787.got - 2010.06.03 18:47:42.
