data_PCOD9258171
_publ_section_title
;
Structure prediction by ZEFSAII (Michael W. Deem and Ramdas Pophale) SiO2 
 PCOD9258171
Probable space group: C 2/C
;
_chemical_formula_sum "Si O2"
_cell_formula_units_Z 56
_cell_length_a 11.896967
_cell_length_b 7.529363
_cell_length_c 27.784864
_cell_angle_alpha 90.000000
_cell_angle_beta 125.232412
_cell_angle_gamma 90.000000
_cell_volume 2032.958111
_symmetry_space_group_name_H-M "C 2/C"
_symmetry_group_IT_number 15
_symmetry_cell_setting 'monoclinic'
loop_
_space_group_symop_operation_xyz
x,y,z
-x,y,1/2-z
-x,-y,-z
x,-y,1/2+z
1/2+x,1/2+y,z
1/2-x,1/2+y,1/2-z
1/2-x,1/2-y,-z
1/2+x,1/2-y,1/2+z
loop_
_atom_site_type_symbol
_atom_site_label
_atom_site_fract_x
_atom_site_fract_y
_atom_site_fract_z
Si Si1 0.721415 0.437840 0.237521
Si Si2 0.906131 0.274249 0.352435
Si Si3 0.688272 0.613538 0.421729
Si Si4 0.000000 0.250026 0.750000
Si Si5 0.724298 0.115854 0.379995
Si Si6 0.500000 0.000000 0.000000
Si Si7 0.228866 0.259266 0.648598
Si Si8 0.583435 0.249587 0.436691
O O1 0.657529 0.600893 0.191358
O O2 0.598149 0.360330 0.238957
O O3 0.786173 0.304983 0.213436
O O4 0.843898 0.437887 0.306996
O O5 0.840795 0.253239 0.389265
O O6 0.069141 0.262705 0.397642
O O7 0.691536 0.595434 0.363320
O O8 0.622935 0.453701 0.436765
O O9 0.851835 0.618025 0.471024
O O10 0.098056 0.356682 0.811025
O O11 0.772309 0.915921 0.385224
O O12 0.682238 0.151413 0.423688
O O13 0.430498 0.159411 0.015137
O O14 0.069783 0.284648 0.619452
#
# Coordination Sequence:
#
# PCOD9258171 Si02
#       8
#     8   8   8   4   8   4   8   8
#     4  10  20  37  57  99 135 178 226 259 333 412
#     4  10  22  38  63  98 139 180 221 274 330 415
#     4  11  22  44  70  95 135 174 227 292 341 403
#     4  10  18  32  64  94 132 186 218 262 318 416
#     4  10  20  39  65  93 140 177 217 274 337 401
#     4  10  26  44  76  98 124 180 238 292 364 388
#     4  10  22  39  64  99 135 177 223 271 333 409
#     4  11  21  47  68  97 131 175 225 292 340 413
#
# _framework density 27.546066
#
# number of rings (size 3 to 8) (size 9 to 14) (size 15 to 20)
#    0.000    1.714    4.286    0.429    0.000    7.429 
#    5.143    3.571    0.000    0.000    0.000    0.000 
#    0.000    0.000    0.000    0.000    0.000    0.000 
#
# Total GULP energy -156019.649587 kJ/mol
# GULP energy per Si atom -5572.130342 kJ/mol
# Density = 2.748337 g / cm^3
# Si number density = 27.546066 Si / 1000 Ang^3
#
#
#
# Elastic Constant Matrix: (Units=GPa)
#
#
# Indices 1 2 3 4 5 6 
#
# 1 211.1387 28.5209 55.7988 0.0000 -2.8134 0.0000
# 2 28.5209 64.6904 22.0983 0.0000 -2.6326 0.0000
# 3 55.7988 22.0983 80.3616 0.0000 0.3148 0.0000
# 4 0.0000 0.0000 0.0000 29.3747 0.0000 -14.6934
# 5 -2.8134 -2.6326 0.3148 0.0000 62.0643 0.0000
# 6 0.0000 0.0000 0.0000 -14.6934 0.0000 30.6635
#
#
#
# Elastic Compliance Matrix: (Units=1/GPa)
#
#
# Indices 1 2 3 4 5 6 
#
# 1 0.005905 -0.001317 -0.003739 0.000000 0.000231 0.000000
# 2 -0.001317 0.017389 -0.003870 0.000000 0.000698 0.000000
# 3 -0.003739 -0.003870 0.016106 0.000000 -0.000415 0.000000
# 4 0.000000 0.000000 0.000000 0.044775 0.000000 0.021455
# 5 0.000231 0.000698 -0.000415 0.000000 0.016154 0.000000
# 6 0.000000 0.000000 0.000000 0.021455 0.000000 0.042893
#
#
# Mechanical properties :
#
#
# Convention : Reuss Voigt Hill
#
# Bulk Modulus (GPa) = 46.40774 63.22521 54.81647
# Shear Modulus (GPa) = 29.71622 41.07200 35.39411
#
# Velocity S-wave (km/s) = 3.28805 3.86557 3.58845
# Velocity P-wave (km/s) = 5.59454 6.55179 6.09200
#
# Compressibility (1/GPa) = 0.02154813
#
# Stress axis : x y z
#
# Youngs Moduli (GPa) = 169.33797 57.50669 62.08907
#
# Poissons Ratio (x) = 0.07573 0.23216
# Poissons Ratio (y) = 0.22300 0.24030
# Poissons Ratio (z) = 0.63318 0.22256
#
# Static dielectric constant tensor:
#      x y z
#    x 2.137900 0.000000 0.073250 
#    y 0.000000 2.358270 0.000000 
#    z 0.073250 0.000000 2.389820 
# 
# From -- ./inp_files/291647.got.cif
#   From: 2010.05.17/outbox.cif.g08.bks.cpg/sg15_146_cif.got.tgz:291647.got - 2010.06.03 18:47:42.
