data_PCOD9258148
_publ_section_title
;
Structure prediction by ZEFSAII (Michael W. Deem and Ramdas Pophale) SiO2 
 PCOD9258148
Probable space group: C 2/C
;
_chemical_formula_sum "Si O2"
_cell_formula_units_Z 52
_cell_length_a 27.335751
_cell_length_b 9.298035
_cell_length_c 18.217175
_cell_angle_alpha 90.000000
_cell_angle_beta 36.250482
_cell_angle_gamma 90.000000
_cell_volume 2737.935198
_symmetry_space_group_name_H-M "C 2/C"
_symmetry_group_IT_number 15
_symmetry_cell_setting 'monoclinic'
loop_
_space_group_symop_operation_xyz
x,y,z
-x,y,1/2-z
-x,-y,-z
x,-y,1/2+z
1/2+x,1/2+y,z
1/2-x,1/2+y,1/2-z
1/2-x,1/2-y,-z
1/2+x,1/2-y,1/2+z
loop_
_atom_site_type_symbol
_atom_site_label
_atom_site_fract_x
_atom_site_fract_y
_atom_site_fract_z
Si Si1 0.907164 0.555926 0.625943
Si Si2 0.615199 0.997840 0.508290
Si Si3 0.461678 0.215860 0.691768
Si Si4 0.500000 0.525247 0.250000
Si Si5 0.801614 0.384496 0.465300
Si Si6 0.804094 0.642166 0.359189
Si Si7 0.627003 0.726013 0.584700
O O1 0.868041 0.564754 0.592791
O O2 0.917850 0.696289 0.665088
O O3 0.856465 0.437964 0.734123
O O4 0.000000 0.500000 0.500000
O O5 0.587284 0.864203 0.593120
O O6 0.543677 0.118362 0.589374
O O7 0.691900 0.073738 0.457489
O O8 0.480223 0.370385 0.704830
O O9 0.396048 0.143989 0.826498
O O10 0.424850 0.418606 0.360459
O O11 0.750000 0.250000 0.500000
O O12 0.772153 0.519885 0.454355
O O13 0.719196 0.716303 0.438354
O O14 0.860073 0.740439 0.344385
#
# Coordination Sequence:
#
# PCOD9258148 Si02
#       7
#     8   8   8   4   8   8   8
#     4   9  20  37  64  82 116 162 203 242 307 379
#     4  10  20  38  61  86 115 164 203 242 311 378
#     4  10  20  37  57  88 113 155 210 247 295 367
#     4  12  22  32  62  92 116 148 210 264 304 342
#     4  10  18  32  62  84 115 149 201 250 295 350
#     4   9  20  40  55  85 121 154 201 249 306 371
#     4  10  23  36  62  88 121 156 204 261 306 366
#
# _framework density 18.992415000000001
#
# number of rings (size 3 to 8) (size 9 to 14) (size 15 to 20)
#    0.000    2.154    1.538    0.923    8.615    0.000 
#    5.538    0.769    0.000    0.000    0.000    0.000 
#    0.000    0.000    0.000    0.000    0.000    0.000 
#
# Total GULP energy -144819.150092 kJ/mol
# GULP energy per Si atom -5569.967311 kJ/mol
# Density = 1.894919 g / cm^3
# Si number density = 18.992415 Si / 1000 Ang^3
#
#
#
# Elastic Constant Matrix: (Units=GPa)
#
#
# Indices 1 2 3 4 5 6 
#
# 1 113.1020 45.1118 34.6195 -0.0005 30.4406 0.0001
# 2 45.1118 110.0935 15.8350 -0.0021 7.3933 0.0014
# 3 34.6195 15.8350 59.0035 -0.0013 10.8789 0.0006
# 4 -0.0005 -0.0021 -0.0013 26.4243 0.0007 -10.0933
# 5 30.4406 7.3933 10.8789 0.0007 23.0100 -0.0002
# 6 0.0001 0.0014 0.0006 -10.0933 -0.0002 39.0691
#
#
#
# Elastic Compliance Matrix: (Units=1/GPa)
#
#
# Indices 1 2 3 4 5 6 
#
# 1 0.017777 -0.005203 -0.005484 0.000000 -0.019254 0.000000
# 2 -0.005203 0.011056 -0.000579 0.000001 0.003604 0.000000
# 3 -0.005484 -0.000579 0.020759 0.000001 -0.002373 0.000000
# 4 0.000000 0.000001 0.000001 0.041987 -0.000002 0.010847
# 5 -0.019254 0.003604 -0.002373 -0.000002 0.068895 0.000000
# 6 0.000000 0.000000 0.000000 0.010847 0.000000 0.028398
#
#
# Mechanical properties :
#
#
# Convention : Reuss Voigt Hill
#
# Bulk Modulus (GPa) = 36.95460 52.59240 44.77350
# Shear Modulus (GPa) = 22.68343 30.14285 26.41314
#
# Velocity S-wave (km/s) = 3.45967 3.98816 3.73328
# Velocity P-wave (km/s) = 5.95474 6.99705 6.49683
#
# Compressibility (1/GPa) = 0.02706023
#
# Stress axis : x y z
#
# Youngs Moduli (GPa) = 56.25110 90.44622 48.17178
#
# Poissons Ratio (x) = 0.47056 0.26420
# Poissons Ratio (y) = 0.29265 0.02790
# Poissons Ratio (z) = 0.30851 0.05238
#
# Static dielectric constant tensor:
#      x y z
#    x 1.762990 0.000000 -0.002660 
#    y 0.000000 1.678910 0.000000 
#    z -0.002660 0.000000 1.653270 
# 
# From -- ./inp_files/221838.got.cif
#   From: 2010.05.17/outbox.cif.g08.bks.cpg/sg15_111_cif.got.tgz:221838.got - 2010.06.03 18:47:42.
