data_PCOD9258623
_publ_section_title
;
Structure prediction by ZEFSAII (Michael W. Deem and Ramdas Pophale) SiO2 
 PCOD9258623
Probable space group: C 2/C
;
_chemical_formula_sum "Si O2"
_cell_formula_units_Z 40
_cell_length_a 18.275864
_cell_length_b 4.983179
_cell_length_c 22.630314
_cell_angle_alpha 90.000000
_cell_angle_beta 129.974942
_cell_angle_gamma 90.000000
_cell_volume 1579.385900
_symmetry_space_group_name_H-M "C 2/C"
_symmetry_group_IT_number 15
_symmetry_cell_setting 'monoclinic'
loop_
_space_group_symop_operation_xyz
x,y,z
-x,y,1/2-z
-x,-y,-z
x,-y,1/2+z
1/2+x,1/2+y,z
1/2-x,1/2+y,1/2-z
1/2-x,1/2-y,-z
1/2+x,1/2-y,1/2+z
loop_
_atom_site_type_symbol
_atom_site_label
_atom_site_fract_x
_atom_site_fract_y
_atom_site_fract_z
Si Si1 0.742789 0.811368 0.706153
Si Si2 0.441904 0.506294 0.780581
Si Si3 0.162759 0.469040 0.553996
Si Si4 0.230755 0.441321 0.933110
Si Si5 0.471599 0.006994 0.621504
O O1 0.749734 0.019108 0.763280
O O2 0.837470 0.883664 0.717509
O O3 0.655010 0.859324 0.616321
O O4 0.500000 0.504156 0.750000
O O5 0.491625 0.306488 0.852692
O O6 0.450539 0.797109 0.814767
O O7 0.428356 0.964532 0.533847
O O8 0.223784 0.743644 0.591416
O O9 0.216511 0.226692 0.545911
O O10 0.117681 0.478401 0.878809
O O11 0.250000 0.250000 0.000000
#
# Coordination Sequence:
#
# PCOD9258623 Si02
#       5
#     8   8   8   8   8
#     4  12  27  48  67  93 135 184 221 263 334 407
#     4  12  25  43  68 101 134 167 214 280 335 382
#     4  11  22  40  64  93 131 180 222 264 322 401
#     4  10  18  33  61  99 133 163 208 270 330 385
#     4  11  21  38  64  98 129 166 218 275 325 381
#
# _framework density 25.326298000000001
#
# number of rings (size 3 to 8) (size 9 to 14) (size 15 to 20)
#    0.000    0.800    0.000   11.400    0.000    0.000 
#    0.000    6.000    0.000    0.000    0.000    0.000 
#    0.000    0.000    0.000    0.000    0.000    0.000 
#
# Total GULP energy -111924.092811 kJ/mol
# GULP energy per Si atom -5596.204641 kJ/mol
# Density = 2.526865 g / cm^3
# Si number density = 25.326298 Si / 1000 Ang^3
#
#
#
# Elastic Constant Matrix: (Units=GPa)
#
#
# Indices 1 2 3 4 5 6 
#
# 1 61.3870 7.6646 8.5270 0.0000 2.0566 -0.0001
# 2 7.6646 117.2982 -4.4518 -0.0002 0.0228 0.0011
# 3 8.5270 -4.4518 103.8304 0.0000 -17.8028 0.0005
# 4 0.0000 -0.0002 0.0000 29.4201 0.0001 3.5013
# 5 2.0566 0.0228 -17.8028 0.0001 36.0231 0.0000
# 6 -0.0001 0.0011 0.0005 3.5013 0.0000 40.3509
#
#
#
# Elastic Compliance Matrix: (Units=1/GPa)
#
#
# Indices 1 2 3 4 5 6 
#
# 1 0.016737 -0.001159 -0.001735 0.000000 -0.001812 0.000000
# 2 -0.001159 0.008621 0.000519 0.000000 0.000317 0.000000
# 3 -0.001735 0.000519 0.010721 0.000000 0.005397 0.000000
# 4 0.000000 0.000000 0.000000 0.034345 0.000000 -0.002980
# 5 -0.001812 0.000317 0.005397 0.000000 0.030531 0.000000
# 6 0.000000 0.000000 0.000000 -0.002980 0.000000 0.025041
#
#
# Mechanical properties :
#
#
# Convention : Reuss Voigt Hill
#
# Bulk Modulus (GPa) = 31.91944 33.99946 32.95945
# Shear Modulus (GPa) = 35.41386 39.21056 37.31221
#
# Velocity S-wave (km/s) = 3.74345 3.93901 3.84247
# Velocity P-wave (km/s) = 5.59600 5.84306 5.72086
#
# Compressibility (1/GPa) = 0.03132887
#
# Stress axis : x y z
#
# Youngs Moduli (GPa) = 59.74955 116.00037 93.27276
#
# Poissons Ratio (x) = 0.13446 0.16182
# Poissons Ratio (y) = 0.06926 -0.04843
# Poissons Ratio (z) = 0.10366 -0.06023
#
# Static dielectric constant tensor:
#      x y z
#    x 2.128330 0.000000 -0.030340 
#    y 0.000000 1.935270 0.000000 
#    z -0.030340 0.000000 2.044470 
# 
# From -- ./inp_files/271962.got.cif
#   From: 2010.05.17/outbox.cif.g08.bks.cpg/sg15_136_cif.got.tgz:271962.got - 2010.06.03 18:47:42.
