data_PCOD9258266
_publ_section_title
;
Structure prediction by ZEFSAII (Michael W. Deem and Ramdas Pophale) SiO2 
 PCOD9258266
Probable space group: C 2/C
;
_chemical_formula_sum "Si O2"
_cell_formula_units_Z 44
_cell_length_a 6.969092
_cell_length_b 21.795906
_cell_length_c 13.767033
_cell_angle_alpha 90.000000
_cell_angle_beta 65.186623
_cell_angle_gamma 90.000000
_cell_volume 1898.121531
_symmetry_space_group_name_H-M "C 2/C"
_symmetry_group_IT_number 15
_symmetry_cell_setting 'monoclinic'
loop_
_space_group_symop_operation_xyz
x,y,z
-x,y,1/2-z
-x,-y,-z
x,-y,1/2+z
1/2+x,1/2+y,z
1/2-x,1/2+y,1/2-z
1/2-x,1/2-y,-z
1/2+x,1/2-y,1/2+z
loop_
_atom_site_type_symbol
_atom_site_label
_atom_site_fract_x
_atom_site_fract_y
_atom_site_fract_z
Si Si1 0.506246 0.741693 0.952694
Si Si2 0.958836 0.517628 0.618974
Si Si3 0.362552 0.491956 0.661223
Si Si4 0.935602 0.103497 0.996871
Si Si5 0.000000 0.215341 0.750000
Si Si6 0.896553 0.352358 0.073418
O O1 0.541998 0.670656 0.971117
O O2 0.579916 0.752449 0.826699
O O3 0.250000 0.750000 0.000000
O O4 0.553953 0.796502 0.016270
O O5 0.731003 0.496581 0.710103
O O6 0.978777 0.591212 0.617857
O O7 0.000000 0.500000 0.500000
O O8 0.147213 0.492370 0.643267
O O9 0.480642 0.553326 0.599016
O O10 0.464467 0.430237 0.594531
O O11 0.699421 0.119837 0.007106
O O12 0.807052 0.173904 0.826888
#
# Coordination Sequence:
#
# PCOD9258266 Si02
#       6
#     8   8   8   8   4   8
#     4   8  16  29  49  77 101 124 171 216 248 302
#     4  11  21  36  48  79 108 137 173 210 266 311
#     4  10  21  34  56  74 107 139 169 219 259 312
#     4   9  17  36  53  80  99 135 179 214 259 306
#     4   8  14  28  50  78  96 134 168 208 260 294
#     4  10  18  33  53  76 105 133 175 216 254 312
#
# _framework density 23.180814999999999
#
# number of rings (size 3 to 8) (size 9 to 14) (size 15 to 20)
#    0.000    2.909    1.818    2.182    0.000    0.000 
#    9.818    0.909    0.000    0.000    0.000    0.000 
#    0.000    0.000    0.000    0.000    0.000    0.000 
#
# Total GULP energy -122596.817499 kJ/mol
# GULP energy per Si atom -5572.582614 kJ/mol
# Density = 2.312805 g / cm^3
# Si number density = 23.180815 Si / 1000 Ang^3
#
#
#
# Elastic Constant Matrix: (Units=GPa)
#
#
# Indices 1 2 3 4 5 6 
#
# 1 27.3773 12.6142 -6.1060 0.0000 -1.8399 0.0000
# 2 12.6142 115.1893 75.7990 0.0000 -5.4508 0.0000
# 3 -6.1060 75.7990 155.4177 0.0000 3.6806 0.0000
# 4 0.0000 0.0000 0.0000 -8.7874 0.0000 9.0463
# 5 -1.8399 -5.4508 3.6806 0.0000 12.9437 0.0000
# 6 0.0000 0.0000 0.0000 9.0463 0.0000 26.1479
#
#
#
# Elastic Compliance Matrix: (Units=1/GPa)
#
#
# Indices 1 2 3 4 5 6 
#
# 1 0.041625 -0.008218 0.005623 0.000000 0.000857 0.000000
# 2 -0.008218 0.015111 -0.007869 0.000000 0.007433 0.000000
# 3 0.005623 -0.007869 0.010624 0.000000 -0.005535 0.000000
# 4 0.000000 0.000000 0.000000 -0.083913 0.000000 0.029031
# 5 0.000857 0.007433 -0.005535 0.000000 0.082084 0.000000
# 6 0.000000 0.000000 0.000000 0.029031 0.000000 0.028200
#
#
# Mechanical properties :
#
#
# Convention : Reuss Voigt Hill
#
# Bulk Modulus (GPa) = 21.53664 51.39986 36.46825
# Shear Modulus (GPa) = 38.42173 20.43932 29.43052
#
# Velocity S-wave (km/s) = 4.07563 2.97262 3.56702
# Velocity P-wave (km/s) = 5.60880 5.83126 5.72111
#
# Compressibility (1/GPa) = 0.04643250
#
# Stress axis : x y z
#
# Youngs Moduli (GPa) = 24.02419 66.17763 94.12752
#
# Poissons Ratio (x) = 0.54384 -0.52928
# Poissons Ratio (y) = 0.19743 0.74065
# Poissons Ratio (z) = -0.13509 0.52073
#
# Static dielectric constant tensor:
#      x y z
#    x 2.012340 0.000000 0.063690 
#    y 0.000000 1.938350 0.000000 
#    z 0.063690 0.000000 1.999710 
# 
# From -- ./inp_files/135822.got.cif
#   From: 2010.05.17/outbox.cif.g08.bks.cpg/sg15_68_cif.got.tgz:135822.got - 2010.06.03 18:47:42.
