data_PCOD9258428
_publ_section_title
;
Structure prediction by ZEFSAII (Michael W. Deem and Ramdas Pophale) SiO2 
 PCOD9258428
Probable space group: C 2/C
;
_chemical_formula_sum "Si O2"
_cell_formula_units_Z 52
_cell_length_a 14.560954
_cell_length_b 7.103021
_cell_length_c 28.152045
_cell_angle_alpha 90.000000
_cell_angle_beta 138.653753
_cell_angle_gamma 90.000000
_cell_volume 1923.475254
_symmetry_space_group_name_H-M "C 2/C"
_symmetry_group_IT_number 15
_symmetry_cell_setting 'monoclinic'
loop_
_space_group_symop_operation_xyz
x,y,z
-x,y,1/2-z
-x,-y,-z
x,-y,1/2+z
1/2+x,1/2+y,z
1/2-x,1/2+y,1/2-z
1/2-x,1/2-y,-z
1/2+x,1/2-y,1/2+z
loop_
_atom_site_type_symbol
_atom_site_label
_atom_site_fract_x
_atom_site_fract_y
_atom_site_fract_z
Si Si1 0.543099 0.047284 0.696233
Si Si2 0.452513 0.501704 0.314951
Si Si3 0.803034 0.492125 0.840669
Si Si4 0.297804 0.559562 0.853999
Si Si5 0.000000 0.500000 0.000000
Si Si6 0.225950 0.057637 0.555102
Si Si7 0.751195 0.992551 0.043265
O O1 0.548383 0.274585 0.694431
O O2 0.613010 0.970910 0.675556
O O3 0.644925 0.992240 0.778315
O O4 0.382387 0.005341 0.630836
O O5 0.342827 0.422757 0.234187
O O6 0.394287 0.477814 0.345908
O O7 0.611624 0.437296 0.374291
O O8 0.779452 0.284525 0.851934
O O9 0.897806 0.584235 0.917307
O O10 0.352946 0.505018 0.927190
O O11 0.894859 0.594797 0.999032
O O12 0.208141 0.975195 0.495862
O O13 0.217391 0.285339 0.542648
#
# Coordination Sequence:
#
# PCOD9258428 Si02
#       7
#     8   8   8   8   4   8   8
#     4   9  18  35  58  82 113 151 189 233 276 341
#     4   9  21  37  56  86 116 146 187 241 285 336
#     4  10  20  35  59  83 113 149 193 228 285 343
#     4  10  19  34  58  85 116 147 185 236 289 334
#     4  12  20  36  58  82 112 152 190 240 284 334
#     4  10  18  33  56  85 110 145 196 230 274 338
#     4  10  21  34  56  82 114 146 192 237 278 340
#
# _framework density 27.034400999999999
#
# number of rings (size 3 to 8) (size 9 to 14) (size 15 to 20)
#    0.000    2.154    3.077    0.462    0.000    1.231 
#    0.000    0.769    3.385    0.000    0.000    0.000 
#    0.000    0.000    0.000    0.000    0.000    0.000 
#
# Total GULP energy -144913.488206 kJ/mol
# GULP energy per Si atom -5573.595700 kJ/mol
# Density = 2.697287 g / cm^3
# Si number density = 27.034401 Si / 1000 Ang^3
#
#
#
# Elastic Constant Matrix: (Units=GPa)
#
#
# Indices 1 2 3 4 5 6 
#
# 1 -7.0947 44.2889 70.4850 0.0000 -24.3585 0.0000
# 2 44.2889 79.3723 22.6882 0.0000 -13.4692 0.0000
# 3 70.4850 22.6882 196.4739 0.0000 -14.8280 0.0000
# 4 0.0000 0.0000 0.0000 -0.6025 0.0000 -1.1760
# 5 -24.3585 -13.4692 -14.8280 0.0000 55.1153 0.0000
# 6 0.0000 0.0000 0.0000 -1.1760 0.0000 -4.8203
#
#
#
# Elastic Compliance Matrix: (Units=1/GPa)
#
#
# Indices 1 2 3 4 5 6 
#
# 1 -0.018904 0.008154 0.005471 0.000001 -0.004890 0.000000
# 2 0.008154 0.009961 -0.003695 -0.000001 0.005044 0.000000
# 3 0.005471 -0.003695 0.003744 0.000000 0.002522 0.000000
# 4 0.000001 -0.000001 0.000000 -3.167968 0.000001 0.772858
# 5 -0.004890 0.005044 0.002522 0.000001 0.017894 0.000000
# 6 0.000000 0.000000 0.000000 0.772858 0.000000 -0.396002
#
#
# Mechanical properties :
#
#
# Convention : Reuss Voigt Hill
#
# Bulk Modulus (GPa) = 68.20264 60.40842 64.30553
# Shear Modulus (GPa) = -1.40203 18.69111 8.64454
#
# Velocity S-wave (km/s) = -0.72093 2.63227 1.79013
# Velocity P-wave (km/s) = 4.95882 5.62423 5.30197
#
# Compressibility (1/GPa) = 0.01466219
#
# Stress axis : x y z
#
# Youngs Moduli (GPa) = -52.89977 100.39209 267.09056
#
# Poissons Ratio (x) = -0.81864 -1.46125
# Poissons Ratio (y) = 0.43137 0.98689
# Poissons Ratio (z) = 0.28942 0.37095
#
# Static dielectric constant tensor:
#      x y z
#    x 2.138240 0.000000 0.050090 
#    y 0.000000 2.257370 0.000000 
#    z 0.050090 0.000000 2.108490 
# 
# From -- ./inp_files/313205.got.cif
#   From: 2010.05.17/outbox.cif.g08.bks.cpg/sg15_157_cif.got.tgz:313205.got - 2010.06.03 18:47:42.
