data_PCOD9258948
_publ_section_title
;
Structure prediction by ZEFSAII (Michael W. Deem and Ramdas Pophale) SiO2 
 PCOD9258948
Probable space group: C 2/C
;
_chemical_formula_sum "Si O2"
_cell_formula_units_Z 60
_cell_length_a 14.485957
_cell_length_b 24.766602
_cell_length_c 14.542005
_cell_angle_alpha 90.000000
_cell_angle_beta 32.799765
_cell_angle_gamma 90.000000
_cell_volume 2826.184826
_symmetry_space_group_name_H-M "C 2/C"
_symmetry_group_IT_number 15
_symmetry_cell_setting 'monoclinic'
loop_
_space_group_symop_operation_xyz
x,y,z
-x,y,1/2-z
-x,-y,-z
x,-y,1/2+z
1/2+x,1/2+y,z
1/2-x,1/2+y,1/2-z
1/2-x,1/2-y,-z
1/2+x,1/2-y,1/2+z
loop_
_atom_site_type_symbol
_atom_site_label
_atom_site_fract_x
_atom_site_fract_y
_atom_site_fract_z
Si Si1 0.245938 0.788663 0.795267
Si Si2 0.234858 0.531049 0.974460
Si Si3 0.000000 0.938133 0.750000
Si Si4 0.120974 0.671970 0.941552
Si Si5 0.097961 0.884583 0.855917
Si Si6 0.162503 0.538165 0.243471
Si Si7 0.686837 0.311894 0.049005
Si Si8 0.705800 0.571103 0.768438
O O1 0.229484 0.724431 0.818576
O O2 0.434470 0.804147 0.607514
O O3 0.119893 0.820226 0.834206
O O4 0.201295 0.819333 0.928764
O O5 0.331579 0.474441 0.905269
O O6 0.334862 0.556915 0.804079
O O7 0.227740 0.551867 0.085413
O O8 0.040578 0.530405 0.098957
O O9 0.037195 0.904655 0.809049
O O10 0.183626 0.657345 0.992783
O O11 0.156249 0.619617 0.851284
O O12 0.271787 0.915174 0.742873
O O13 0.958393 0.904880 0.045101
O O14 0.235625 0.482457 0.225948
O O15 0.500000 0.317081 0.250000
O O16 0.750000 0.250000 0.000000
#
# Coordination Sequence:
#
# PCOD9258948 Si02
#       8
#     8   8   4   8   8   8   8   8
#     4  11  23  41  63  92 138 178 226 278 343 402
#     4  11  24  41  67  97 137 170 220 278 338 420
#     4  12  24  44  68  94 136 178 232 280 342 392
#     4  11  23  39  64  98 131 179 224 282 335 413
#     4  12  25  43  68  97 136 185 226 286 338 411
#     4  11  24  43  65  99 135 176 222 276 346 406
#     4  10  18  34  57  88 128 168 210 265 330 402
#     4  12  23  41  67  98 135 176 225 274 345 406
#
# _framework density 21.230032999999999
#
# number of rings (size 3 to 8) (size 9 to 14) (size 15 to 20)
#    0.000    0.800    2.667    7.600    3.733    0.000 
#    1.200    0.000    0.000    4.800    0.000    0.000 
#    0.000    0.000    0.000    0.000    0.000    0.000 
#
# Total GULP energy -167588.996062 kJ/mol
# GULP energy per Si atom -5586.299869 kJ/mol
# Density = 2.118171 g / cm^3
# Si number density = 21.230033 Si / 1000 Ang^3
#
#
#
# Elastic Constant Matrix: (Units=GPa)
#
#
# Indices 1 2 3 4 5 6 
#
# 1 94.5988 30.2891 25.5001 -0.0060 16.1112 -0.0088
# 2 30.2891 94.9654 3.2471 0.0258 6.9931 0.0108
# 3 25.5001 3.2471 76.2778 0.1228 -0.6400 0.0652
# 4 -0.0060 0.0258 0.1228 21.7123 0.0018 -7.8339
# 5 16.1112 6.9931 -0.6400 0.0018 26.5450 0.0091
# 6 -0.0088 0.0108 0.0652 -7.8339 0.0091 15.7166
#
#
#
# Elastic Compliance Matrix: (Units=1/GPa)
#
#
# Indices 1 2 3 4 5 6 
#
# 1 0.014415 -0.003859 -0.004721 0.000059 -0.007847 0.000064
# 2 -0.003859 0.011789 0.000782 -0.000029 -0.000745 -0.000028
# 3 -0.004721 0.000782 0.014681 -0.000133 0.003013 -0.000132
# 4 0.000059 -0.000029 -0.000133 0.056157 -0.000045 0.027992
# 5 -0.007847 -0.000745 0.003013 -0.000045 0.042703 -0.000063
# 6 0.000064 -0.000028 -0.000132 0.027992 -0.000063 0.077580
#
#
# Mechanical properties :
#
#
# Convention : Reuss Voigt Hill
#
# Bulk Modulus (GPa) = 39.54165 42.65720 41.09942
# Shear Modulus (GPa) = 20.71678 26.58183 23.64931
#
# Velocity S-wave (km/s) = 3.12721 3.54232 3.34122
# Velocity P-wave (km/s) = 5.63072 6.07184 5.85543
#
# Compressibility (1/GPa) = 0.02528979
#
# Stress axis : x y z
#
# Youngs Moduli (GPa) = 69.37060 84.82512 68.11753
#
# Poissons Ratio (x) = 0.32730 0.32157
# Poissons Ratio (y) = 0.26767 -0.05326
# Poissons Ratio (z) = 0.32749 -0.06633
#
# Static dielectric constant tensor:
#      x y z
#    x 1.792200 0.000030 -0.002320 
#    y 0.000030 1.635050 -0.000010 
#    z -0.002320 -0.000010 1.818130 
# 
# From -- ./inp_files/157327.got.cif
#   From: 2010.05.17/outbox.cif.g08.bks.cpg/sg15_79_cif.got.tgz:157327.got - 2010.06.03 18:47:42.
