data_PCOD9258964
_publ_section_title
;
Structure prediction by ZEFSAII (Michael W. Deem and Ramdas Pophale) SiO2 
 PCOD9258964
Probable space group: C 2/C
;
_chemical_formula_sum "Si O2"
_cell_formula_units_Z 56
_cell_length_a 18.883042
_cell_length_b 8.950095
_cell_length_c 17.478612
_cell_angle_alpha 90.000000
_cell_angle_beta 101.466669
_cell_angle_gamma 90.000000
_cell_volume 2895.013393
_symmetry_space_group_name_H-M "C 2/C"
_symmetry_group_IT_number 15
_symmetry_cell_setting 'monoclinic'
loop_
_space_group_symop_operation_xyz
x,y,z
-x,y,1/2-z
-x,-y,-z
x,-y,1/2+z
1/2+x,1/2+y,z
1/2-x,1/2+y,1/2-z
1/2-x,1/2-y,-z
1/2+x,1/2-y,1/2+z
loop_
_atom_site_type_symbol
_atom_site_label
_atom_site_fract_x
_atom_site_fract_y
_atom_site_fract_z
Si Si1 0.245524 0.807154 0.142824
Si Si2 0.413499 0.333106 0.239092
Si Si3 0.991742 0.183116 0.434731
Si Si4 0.593666 0.382558 0.082209
Si Si5 0.885638 0.859030 0.660473
Si Si6 0.559963 0.885104 0.205962
Si Si7 0.187822 0.588470 0.261002
O O1 0.174372 0.833383 0.076608
O O2 0.314595 0.729449 0.118666
O O3 0.230777 0.693971 0.211492
O O4 0.265546 0.970556 0.181074
O O5 0.500000 0.327576 0.250000
O O6 0.405097 0.346164 0.328270
O O7 0.377825 0.478061 0.193765
O O8 0.365019 0.194731 0.200918
O O9 0.031396 0.205711 0.523636
O O10 0.055475 0.121132 0.393370
O O11 0.967426 0.325567 0.380987
O O12 0.929826 0.056904 0.430412
O O13 0.916515 0.756438 0.736460
O O14 0.500000 0.958225 0.250000
O O15 0.628825 0.986592 0.205531
#
# Coordination Sequence:
#
# PCOD9258964 Si02
#       7
#     8   8   8   8   8   8   8
#     4  10  21  35  50  82 109 144 180 222 280 324
#     4  11  18  34  56  85 107 138 184 226 269 322
#     4  10  19  34  57  78 108 145 180 220 272 327
#     4  10  20  33  54  82 108 144 178 223 268 330
#     4  10  18  34  58  77 106 141 179 224 265 323
#     4   9  17  33  54  83 102 136 181 224 268 314
#     4  10  21  31  55  78 113 137 177 232 272 316
#
# _framework density 19.343608
#
# number of rings (size 3 to 8) (size 9 to 14) (size 15 to 20)
#    0.000    2.000    2.857    2.571    2.000    0.571 
#    0.000    2.857    0.000    2.571    0.000    0.000 
#    0.000    0.000    0.000    0.000    0.000    0.000 
#
# Total GULP energy -155929.296870 kJ/mol
# GULP energy per Si atom -5568.903460 kJ/mol
# Density = 1.929958 g / cm^3
# Si number density = 19.343608 Si / 1000 Ang^3
#
#
#
# Elastic Constant Matrix: (Units=GPa)
#
#
# Indices 1 2 3 4 5 6 
#
# 1 76.8841 29.6189 7.0285 0.0000 19.8078 0.0000
# 2 29.6189 76.8011 7.2172 0.0000 4.8709 0.0000
# 3 7.0285 7.2172 23.9670 0.0000 6.5751 0.0000
# 4 0.0000 0.0000 0.0000 8.8234 0.0000 4.0059
# 5 19.8078 4.8709 6.5751 0.0000 19.7399 0.0000
# 6 0.0000 0.0000 0.0000 4.0059 0.0000 38.2937
#
#
#
# Elastic Compliance Matrix: (Units=1/GPa)
#
#
# Indices 1 2 3 4 5 6 
#
# 1 0.020481 -0.006799 0.001342 0.000000 -0.019320 0.000000
# 2 -0.006799 0.015741 -0.003910 0.000000 0.004241 0.000000
# 3 0.001342 -0.003910 0.046898 0.000000 -0.016003 0.000000
# 4 0.000000 0.000000 0.000000 0.118986 0.000000 -0.012447
# 5 -0.019320 0.004241 -0.016003 0.000000 0.074330 0.000000
# 6 0.000000 0.000000 0.000000 -0.012447 0.000000 0.027416
#
#
# Mechanical properties :
#
#
# Convention : Reuss Voigt Hill
#
# Bulk Modulus (GPa) = 15.53144 29.48683 22.50914
# Shear Modulus (GPa) = 14.53283 22.29056 18.41169
#
# Velocity S-wave (km/s) = 2.74396 3.39831 3.08851
# Velocity P-wave (km/s) = 4.25273 5.53848 4.93764
#
# Compressibility (1/GPa) = 0.06438554
#
# Stress axis : x y z
#
# Youngs Moduli (GPa) = 48.82599 63.52717 21.32288
#
# Poissons Ratio (x) = 0.43194 -0.02861
# Poissons Ratio (y) = 0.33198 0.08336
# Poissons Ratio (z) = -0.06551 0.24837
#
# Static dielectric constant tensor:
#      x y z
#    x 1.790990 0.000000 0.001410 
#    y 0.000000 1.701920 0.000000 
#    z 0.001410 0.000000 1.672230 
# 
# From -- ./inp_files/213476.got.cif
#   From: 2010.05.17/outbox.cif.g08.bks.cpg/sg15_107_cif.got.tgz:213476.got - 2010.06.03 18:47:42.
