data_PCOD9258350
_publ_section_title
;
Structure prediction by ZEFSAII (Michael W. Deem and Ramdas Pophale) SiO2 
 PCOD9258350
Probable space group: C 2/C
;
_chemical_formula_sum "Si O2"
_cell_formula_units_Z 48
_cell_length_a 22.451220
_cell_length_b 24.618656
_cell_length_c 10.022572
_cell_angle_alpha 90.000000
_cell_angle_beta 27.917128
_cell_angle_gamma 90.000000
_cell_volume 2593.637647
_symmetry_space_group_name_H-M "C 2/C"
_symmetry_group_IT_number 15
_symmetry_cell_setting 'monoclinic'
loop_
_space_group_symop_operation_xyz
x,y,z
-x,y,1/2-z
-x,-y,-z
x,-y,1/2+z
1/2+x,1/2+y,z
1/2-x,1/2+y,1/2-z
1/2-x,1/2-y,-z
1/2+x,1/2-y,1/2+z
loop_
_atom_site_type_symbol
_atom_site_label
_atom_site_fract_x
_atom_site_fract_y
_atom_site_fract_z
Si Si1 0.352383 0.055242 0.258745
Si Si2 0.000000 0.692504 0.750000
Si Si3 0.350613 0.929421 0.275080
Si Si4 0.389068 0.773719 0.754092
Si Si5 0.248875 0.121541 0.223292
Si Si6 0.142921 0.383818 0.504798
Si Si7 0.000000 0.193497 0.750000
O O1 0.272714 0.089418 0.312056
O O2 0.303305 0.070623 0.503169
O O3 0.346104 0.991936 0.238167
O O4 0.501311 0.074962 0.966702
O O5 0.041829 0.719510 0.525919
O O6 0.126883 0.659488 0.535983
O O7 0.259331 0.919494 0.580050
O O8 0.305317 0.887726 0.248180
O O9 0.467093 0.732316 0.691135
O O10 0.250000 0.750000 0.000000
O O11 0.368177 0.828554 0.886159
O O12 0.122182 0.156583 0.478645
O O13 0.000000 0.401128 0.750000
#
# Coordination Sequence:
#
# PCOD9258350 Si02
#       7
#     8   4   8   8   8   8   4
#     4  10  18  35  60  94 128 157 198 257 322 370
#     4  12  22  40  68  85 125 170 206 266 322 368
#     4  10  20  32  63  95 123 160 203 256 317 380
#     4  12  24  42  61  92 124 168 218 267 317 375
#     4  12  22  41  60  95 126 166 213 259 315 387
#     4  10  18  33  54  85 123 151 196 262 301 363
#     4  12  28  42  64  87 131 174 216 266 324 376
#
# _framework density 18.506826
#
# number of rings (size 3 to 8) (size 9 to 14) (size 15 to 20)
#    0.000    1.000    5.833    2.000    0.000    4.667 
#    0.000    0.833    0.000    0.000    0.000    0.000 
#    0.000    0.000    0.000    0.000    0.000    0.000 
#
# Total GULP energy -133679.557666 kJ/mol
# GULP energy per Si atom -5569.981569 kJ/mol
# Density = 1.846470 g / cm^3
# Si number density = 18.506826 Si / 1000 Ang^3
#
#
#
# Elastic Constant Matrix: (Units=GPa)
#
#
# Indices 1 2 3 4 5 6 
#
# 1 126.6353 59.1179 51.6774 0.0021 20.3622 -0.0013
# 2 59.1179 92.1825 43.9626 0.0009 -0.4769 -0.0004
# 3 51.6774 43.9626 78.3605 0.0025 -1.4190 -0.0009
# 4 0.0021 0.0009 0.0025 14.5835 -0.0012 8.2634
# 5 20.3622 -0.4769 -1.4190 -0.0012 31.6474 0.0008
# 6 -0.0013 -0.0004 -0.0009 8.2634 0.0008 30.8466
#
#
#
# Elastic Compliance Matrix: (Units=1/GPa)
#
#
# Indices 1 2 3 4 5 6 
#
# 1 0.015394 -0.006820 -0.006513 -0.000002 -0.010300 0.000001
# 2 -0.006820 0.017833 -0.005427 0.000002 0.004413 -0.000001
# 3 -0.006513 -0.005427 0.020192 -0.000002 0.005014 0.000001
# 4 -0.000002 0.000002 -0.000002 0.080841 0.000005 -0.021656
# 5 -0.010300 0.004413 0.005014 0.000005 0.038516 -0.000003
# 6 0.000001 -0.000001 0.000001 -0.021656 -0.000003 0.038220
#
#
# Mechanical properties :
#
#
# Convention : Reuss Voigt Hill
#
# Bulk Modulus (GPa) = 62.89402 67.41044 65.15223
# Shear Modulus (GPa) = 19.69929 24.91019 22.30474
#
# Velocity S-wave (km/s) = 3.26611 3.67277 3.47539
# Velocity P-wave (km/s) = 6.94847 7.38169 7.16835
#
# Compressibility (1/GPa) = 0.01589976
#
# Stress axis : x y z
#
# Youngs Moduli (GPa) = 64.95932 56.07617 49.52436
#
# Poissons Ratio (x) = 0.38244 0.32253
# Poissons Ratio (y) = 0.44302 0.26878
# Poissons Ratio (z) = 0.42305 0.30434
#
# Static dielectric constant tensor:
#      x y z
#    x 1.719960 0.000000 0.182370 
#    y 0.000000 1.653180 0.000000 
#    z 0.182370 0.000000 1.899820 
# 
# From -- ./inp_files/31957.got.cif
#   From: 2010.05.17/outbox.cif.g08.bks.cpg/sg15_16_cif.got.tgz:31957.got - 2010.06.03 18:47:42.
