data_PCOD9258196
_publ_section_title
;
Structure prediction by ZEFSAII (Michael W. Deem and Ramdas Pophale) SiO2 
 PCOD9258196
Probable space group: C 2/C
;
_chemical_formula_sum "Si O2"
_cell_formula_units_Z 52
_cell_length_a 24.242917
_cell_length_b 18.674110
_cell_length_c 5.426576
_cell_angle_alpha 90.000000
_cell_angle_beta 85.553458
_cell_angle_gamma 90.000000
_cell_volume 2449.297417
_symmetry_space_group_name_H-M "C 2/C"
_symmetry_group_IT_number 15
_symmetry_cell_setting 'monoclinic'
loop_
_space_group_symop_operation_xyz
x,y,z
-x,y,1/2-z
-x,-y,-z
x,-y,1/2+z
1/2+x,1/2+y,z
1/2-x,1/2+y,1/2-z
1/2-x,1/2-y,-z
1/2+x,1/2-y,1/2+z
loop_
_atom_site_type_symbol
_atom_site_label
_atom_site_fract_x
_atom_site_fract_y
_atom_site_fract_z
Si Si1 0.186247 0.047054 0.099233
Si Si2 0.000000 0.125714 0.250000
Si Si3 0.905262 0.237660 0.827905
Si Si4 0.070995 0.546575 0.516390
Si Si5 0.500000 0.617501 0.750000
Si Si6 0.500000 0.850389 0.750000
Si Si7 0.118628 0.807835 0.666564
Si Si8 0.689725 0.044040 0.386371
O O1 0.146385 0.114878 0.127428
O O2 0.178666 0.996454 0.344508
O O3 0.249654 0.075698 0.090488
O O4 0.052792 0.177491 0.217096
O O5 0.999293 0.079347 0.493273
O O6 0.945547 0.167877 0.785257
O O7 0.948244 0.302021 0.846593
O O8 0.873245 0.238541 0.580711
O O9 0.866902 0.228179 0.078614
O O10 0.068306 0.510115 0.786205
O O11 0.023122 0.601583 0.463802
O O12 0.131691 0.582291 0.462259
O O13 0.688188 0.982164 0.601695
#
# Coordination Sequence:
#
# PCOD9258196 Si02
#       8
#     8   4   8   8   4   4   8   8
#     4  10  19  32  54  79 101 135 181 223 267 321
#     4   8  14  24  40  55  80 117 150 192 240 286
#     4   9  19  30  47  71  99 139 175 211 246 301
#     4  10  21  36  56  84 115 138 163 216 272 313
#     4   7  12  24  38  55  76 109 156 189 226 271
#     4  11  22  36  58  82 108 142 186 207 250 331
#     4  10  18  33  49  70 103 136 176 218 264 304
#     4   8  16  32  52  76 105 136 170 210 265 319
#
# _framework density 21.230578999999999
#
# number of rings (size 3 to 8) (size 9 to 14) (size 15 to 20)
#    0.000    2.769    0.000    2.308    0.000    2.462 
#    0.000    0.769    0.000    1.846    0.000    0.000 
#    0.000    0.000    0.000    0.000    0.000    0.000 
#
# Total GULP energy -144754.164047 kJ/mol
# GULP energy per Si atom -5567.467848 kJ/mol
# Density = 2.118226 g / cm^3
# Si number density = 21.230579 Si / 1000 Ang^3
#
#
#
# Elastic Constant Matrix: (Units=GPa)
#
#
# Indices 1 2 3 4 5 6 
#
# 1 74.2611 24.1200 16.0302 0.0000 -2.4390 0.0000
# 2 24.1200 55.5150 27.9397 0.0000 -0.3698 0.0000
# 3 16.0302 27.9397 191.5651 0.0000 25.2546 0.0000
# 4 0.0000 0.0000 0.0000 -1.8330 0.0000 3.5674
# 5 -2.4390 -0.3698 25.2546 0.0000 24.4670 0.0000
# 6 0.0000 0.0000 0.0000 3.5674 0.0000 0.8214
#
#
#
# Elastic Compliance Matrix: (Units=1/GPa)
#
#
# Indices 1 2 3 4 5 6 
#
# 1 0.015795 -0.006519 -0.000655 0.000000 0.002152 0.000000
# 2 -0.006519 0.022429 -0.003108 0.000000 0.002897 0.000000
# 3 -0.000655 -0.003108 0.006648 0.000000 -0.006974 0.000000
# 4 0.000000 0.000000 0.000000 -0.057715 0.000000 0.250658
# 5 0.002152 0.002897 -0.006974 0.000000 0.048328 0.000000
# 6 0.000000 0.000000 0.000000 0.250658 0.000000 0.128794
#
#
# Mechanical properties :
#
#
# Convention : Reuss Voigt Hill
#
# Bulk Modulus (GPa) = 41.13651 50.83568 45.98610
# Shear Modulus (GPa) = 25.91427 21.57449 23.74438
#
# Velocity S-wave (km/s) = 3.49751 3.19125 3.34788
# Velocity P-wave (km/s) = 5.97731 6.12987 6.05407
#
# Compressibility (1/GPa) = 0.02430931
#
# Stress axis : x y z
#
# Youngs Moduli (GPa) = 63.30982 44.58554 150.43132
#
# Poissons Ratio (x) = 0.29065 0.09848
# Poissons Ratio (y) = 0.41271 0.46748
# Poissons Ratio (z) = 0.04145 0.13855
#
# Static dielectric constant tensor:
#      x y z
#    x 1.808530 0.000000 0.051590 
#    y 0.000000 1.730950 0.000000 
#    z 0.051590 0.000000 1.881950 
# 
# From -- ./inp_files/17060.got.cif
#   From: 2010.05.17/outbox.cif.g08.bks.cpg/sg15_9_cif.got.tgz:17060.got - 2010.06.03 18:47:42.
