data_PCOD9258485
_publ_section_title
;
Structure prediction by ZEFSAII (Michael W. Deem and Ramdas Pophale) SiO2 
 PCOD9258485
Probable space group: C 2/C
;
_chemical_formula_sum "Si O2"
_cell_formula_units_Z 56
_cell_length_a 22.830395
_cell_length_b 9.572916
_cell_length_c 11.877273
_cell_angle_alpha 90.000000
_cell_angle_beta 58.740480
_cell_angle_gamma 90.000000
_cell_volume 2218.972723
_symmetry_space_group_name_H-M "C 2/C"
_symmetry_group_IT_number 15
_symmetry_cell_setting 'monoclinic'
loop_
_space_group_symop_operation_xyz
x,y,z
-x,y,1/2-z
-x,-y,-z
x,-y,1/2+z
1/2+x,1/2+y,z
1/2-x,1/2+y,1/2-z
1/2-x,1/2-y,-z
1/2+x,1/2-y,1/2+z
loop_
_atom_site_type_symbol
_atom_site_label
_atom_site_fract_x
_atom_site_fract_y
_atom_site_fract_z
Si Si1 0.035261 0.379524 0.328659
Si Si2 0.828914 0.460409 0.033824
Si Si3 0.400251 0.191066 0.085733
Si Si4 0.185429 0.333171 0.160106
Si Si5 0.929269 0.693969 0.291129
Si Si6 0.666625 0.452768 0.439439
Si Si7 0.318950 0.490500 0.826843
O O1 0.108981 0.320814 0.289275
O O2 0.047073 0.542948 0.286124
O O3 0.000000 0.319599 0.250000
O O4 0.977644 0.349975 0.478224
O O5 0.833613 0.571629 0.927479
O O6 0.881099 0.340613 0.943900
O O7 0.854324 0.553683 0.112461
O O8 0.750243 0.416827 0.114706
O O9 0.391296 0.253706 0.219858
O O10 0.375663 0.309687 0.025290
O O11 0.252362 0.411645 0.141521
O O12 0.205109 0.171350 0.127694
O O13 0.000000 0.768958 0.250000
O O14 0.650165 0.522291 0.578191
O O15 0.652026 0.519190 0.330452
#
# Coordination Sequence:
#
# PCOD9258485 Si02
#       7
#     8   8   8   8   8   8   8
#     4  10  18  33  57  90 118 153 198 241 302 369
#     4  10  19  34  59  86 116 158 196 241 301 369
#     4  12  20  37  61  83 126 159 198 247 309 367
#     4  10  19  37  60  87 118 157 204 247 300 365
#     4  10  21  32  54  95 122 150 191 249 312 373
#     4  11  24  40  64  92 120 166 204 258 300 362
#     4  11  22  40  61  88 121 159 213 247 301 358
#
# _framework density 25.236903999999999
#
# number of rings (size 3 to 8) (size 9 to 14) (size 15 to 20)
#    0.000    1.429    7.143    1.286    6.000    0.000 
#    0.000    5.000    0.000    0.857    0.000    0.000 
#    0.000    0.000    0.000    0.000    0.000    0.000 
#
# Total GULP energy -156083.997276 kJ/mol
# GULP energy per Si atom -5574.428474 kJ/mol
# Density = 2.517946 g / cm^3
# Si number density = 25.236904 Si / 1000 Ang^3
#
#
#
# Elastic Constant Matrix: (Units=GPa)
#
#
# Indices 1 2 3 4 5 6 
#
# 1 102.8494 8.8957 37.1763 0.0000 6.1858 0.0000
# 2 8.8957 25.9765 10.2444 0.0000 11.7116 0.0000
# 3 37.1763 10.2444 136.7990 0.0000 34.1357 0.0000
# 4 0.0000 0.0000 0.0000 19.1435 0.0000 12.4960
# 5 6.1858 11.7116 34.1357 0.0000 59.5012 0.0000
# 6 0.0000 0.0000 0.0000 12.4960 0.0000 22.9335
#
#
#
# Elastic Compliance Matrix: (Units=1/GPa)
#
#
# Indices 1 2 3 4 5 6 
#
# 1 0.011029 -0.003120 -0.003070 0.000000 0.001229 0.000000
# 2 -0.003120 0.043318 -0.000408 0.000000 -0.007968 0.000000
# 3 -0.003070 -0.000408 0.009424 0.000000 -0.005007 0.000000
# 4 0.000000 0.000000 0.000000 0.081072 0.000000 -0.044174
# 5 0.001229 -0.007968 -0.005007 0.000000 0.021120 0.000000
# 6 0.000000 0.000000 0.000000 -0.044174 0.000000 0.067674
#
#
# Mechanical properties :
#
#
# Convention : Reuss Voigt Hill
#
# Bulk Modulus (GPa) = 19.77259 42.02861 30.90060
# Shear Modulus (GPa) = 18.96162 34.26955 26.61559
#
# Velocity S-wave (km/s) = 2.74404 3.68899 3.25103
# Velocity P-wave (km/s) = 4.22983 5.90209 5.13450
#
# Compressibility (1/GPa) = 0.05057506
#
# Stress axis : x y z
#
# Youngs Moduli (GPa) = 90.67303 23.08511 106.10818
#
# Poissons Ratio (x) = 0.07203 0.32577
# Poissons Ratio (y) = 0.28290 0.04327
# Poissons Ratio (z) = 0.27838 0.00941
#
# Static dielectric constant tensor:
#      x y z
#    x 2.112420 0.000000 0.065780 
#    y 0.000000 2.004110 0.000000 
#    z 0.065780 0.000000 2.134550 
# 
# From -- ./inp_files/111552.got.cif
#   From: 2010.05.17/outbox.cif.g08.bks.cpg/sg15_56_cif.got.tgz:111552.got - 2010.06.03 18:47:42.
