data_PCOD9258787
_publ_section_title
;
Structure prediction by ZEFSAII (Michael W. Deem and Ramdas Pophale) SiO2 
 PCOD9258787
Probable space group: C 2/C
;
_chemical_formula_sum "Si O2"
_cell_formula_units_Z 48
_cell_length_a 24.225220
_cell_length_b 9.427558
_cell_length_c 10.510171
_cell_angle_alpha 90.000000
_cell_angle_beta 126.689841
_cell_angle_gamma 90.000000
_cell_volume 1924.806030
_symmetry_space_group_name_H-M "C 2/C"
_symmetry_group_IT_number 15
_symmetry_cell_setting 'monoclinic'
loop_
_space_group_symop_operation_xyz
x,y,z
-x,y,1/2-z
-x,-y,-z
x,-y,1/2+z
1/2+x,1/2+y,z
1/2-x,1/2+y,1/2-z
1/2-x,1/2-y,-z
1/2+x,1/2-y,1/2+z
loop_
_atom_site_type_symbol
_atom_site_label
_atom_site_fract_x
_atom_site_fract_y
_atom_site_fract_z
Si Si1 0.292115 0.926020 0.435330
Si Si2 0.525675 0.201377 0.603976
Si Si3 0.960117 0.075835 0.563139
Si Si4 0.762826 0.214340 0.196118
Si Si5 0.857825 0.530908 0.769146
Si Si6 0.393318 0.690828 0.040712
O O1 0.233461 0.950935 0.837668
O O2 0.275365 0.769728 0.358626
O O3 0.345561 0.987904 0.402121
O O4 0.322713 0.929230 0.618035
O O5 0.500000 0.583435 0.750000
O O6 0.550407 0.268633 0.505520
O O7 0.563042 0.050797 0.661074
O O8 0.565175 0.287643 0.770552
O O9 0.055048 0.275649 0.484469
O O10 0.896916 0.973416 0.505130
O O11 0.000000 0.000000 0.500000
O O12 0.814369 0.320440 0.193431
O O13 0.684813 0.264113 0.064296
#
# Coordination Sequence:
#
# PCOD9258787 Si02
#       6
#     8   8   8   8   8   8
#     4  10  23  41  65  96 128 172 216 271 324 396
#     4  10  20  36  62  88 128 174 215 264 324 393
#     4  10  18  34  54  95 126 164 213 269 324 383
#     4  10  23  39  67  93 130 170 218 261 332 389
#     4  10  23  42  67  90 130 168 224 262 331 384
#     4  10  19  34  62  90 126 172 218 258 329 397
#
# _framework density 24.937576
#
# number of rings (size 3 to 8) (size 9 to 14) (size 15 to 20)
#    1.000    1.000    5.000    0.500    2.333    0.667 
#    0.000    4.167    0.000    0.000    0.000    0.000 
#    0.000    0.000    0.000    0.000    0.000    0.000 
#
# Total GULP energy -133742.130646 kJ/mol
# GULP energy per Si atom -5572.588777 kJ/mol
# Density = 2.488082 g / cm^3
# Si number density = 24.937576 Si / 1000 Ang^3
#
#
#
# Elastic Constant Matrix: (Units=GPa)
#
#
# Indices 1 2 3 4 5 6 
#
# 1 93.3176 0.0754 36.1465 0.0000 16.4627 0.0000
# 2 0.0754 43.0569 7.3848 0.0000 -1.3472 0.0000
# 3 36.1465 7.3848 88.2501 0.0000 -11.3964 0.0000
# 4 0.0000 0.0000 0.0000 28.2625 0.0000 -5.8223
# 5 16.4627 -1.3472 -11.3964 0.0000 36.4249 0.0000
# 6 0.0000 0.0000 0.0000 -5.8223 0.0000 39.0943
#
#
#
# Elastic Compliance Matrix: (Units=1/GPa)
#
#
# Indices 1 2 3 4 5 6 
#
# 1 0.015252 0.000975 -0.007518 0.000000 -0.009209 0.000000
# 2 0.000975 0.023628 -0.002418 0.000000 -0.000323 0.000000
# 3 -0.007518 -0.002418 0.015674 0.000000 0.008212 0.000000
# 4 0.000000 0.000000 0.000000 0.036502 0.000000 0.005436
# 5 -0.009209 -0.000323 0.008212 0.000000 0.034173 0.000000
# 6 0.000000 0.000000 0.000000 0.005436 0.000000 0.026389
#
#
# Mechanical properties :
#
#
# Convention : Reuss Voigt Hill
#
# Bulk Modulus (GPa) = 27.29953 34.64867 30.97410
# Shear Modulus (GPa) = 27.51007 32.82422 30.16714
#
# Velocity S-wave (km/s) = 3.32498 3.63196 3.48186
# Velocity P-wave (km/s) = 5.07066 5.61360 5.34902
#
# Compressibility (1/GPa) = 0.03663067
#
# Stress axis : x y z
#
# Youngs Moduli (GPa) = 65.56482 42.32264 63.80163
#
# Poissons Ratio (x) = -0.04125 0.47966
# Poissons Ratio (y) = -0.06390 0.15428
# Poissons Ratio (z) = 0.49291 0.10234
#
# Static dielectric constant tensor:
#      x y z
#    x 1.978090 0.000000 -0.020730 
#    y 0.000000 2.164600 0.000000 
#    z -0.020730 0.000000 1.994820 
# 
# From -- ./inp_files/60675.got.cif
#   From: 2010.05.17/outbox.cif.g08.bks.cpg/sg15_31_cif.got.tgz:60675.got - 2010.06.03 18:47:42.
