data_PCOD9258218
_publ_section_title
;
Structure prediction by ZEFSAII (Michael W. Deem and Ramdas Pophale) SiO2 
 PCOD9258218
Probable space group: C 2/C
;
_chemical_formula_sum "Si O2"
_cell_formula_units_Z 64
_cell_length_a 22.876127
_cell_length_b 18.954065
_cell_length_c 8.838035
_cell_angle_alpha 90.000000
_cell_angle_beta 54.297827
_cell_angle_gamma 90.000000
_cell_volume 3111.927328
_symmetry_space_group_name_H-M "C 2/C"
_symmetry_group_IT_number 15
_symmetry_cell_setting 'monoclinic'
loop_
_space_group_symop_operation_xyz
x,y,z
-x,y,1/2-z
-x,-y,-z
x,-y,1/2+z
1/2+x,1/2+y,z
1/2-x,1/2+y,1/2-z
1/2-x,1/2-y,-z
1/2+x,1/2-y,1/2+z
loop_
_atom_site_type_symbol
_atom_site_label
_atom_site_fract_x
_atom_site_fract_y
_atom_site_fract_z
Si Si1 0.795507 0.640312 0.058691
Si Si2 0.478512 0.205151 0.456261
Si Si3 0.127869 0.445892 0.610885
Si Si4 0.285412 0.355892 0.114919
Si Si5 0.625140 0.257239 0.356723
Si Si6 0.845909 0.709660 0.504861
Si Si7 0.555872 0.078282 0.798181
Si Si8 0.777135 0.492845 0.773036
O O1 0.739875 0.665432 0.015272
O O2 0.865054 0.607933 0.866682
O O3 0.830172 0.696069 0.122270
O O4 0.758614 0.575889 0.204309
O O5 0.500000 0.216390 0.250000
O O6 0.540586 0.239027 0.465285
O O7 0.396507 0.234006 0.567885
O O8 0.469481 0.124286 0.522237
O O9 0.119506 0.362704 0.618159
O O10 0.065586 0.493866 0.775841
O O11 0.198923 0.463174 0.601824
O O12 0.149676 0.475112 0.413663
O O13 0.359859 0.326059 0.065311
O O14 0.227921 0.318154 0.314076
O O15 0.275206 0.440427 0.140363
O O16 0.655077 0.260728 0.138076
O O17 0.500000 0.096109 0.750000
#
# Coordination Sequence:
#
# PCOD9258218 Si02
#       8
#     8   8   8   8   8   8   8   8
#     4  11  20  35  53  76 104 146 181 228 267 326
#     4  10  21  35  51  72 108 144 182 219 259 319
#     4  10  19  31  50  72 103 143 187 217 258 307
#     4  11  21  36  54  76 110 146 183 230 270 316
#     4  11  22  34  53  79 107 148 186 222 270 325
#     4  10  20  37  52  74 108 146 180 223 266 326
#     4  11  19  32  50  72 104 145 185 216 261 307
#     4  10  18  33  51  73 105 139 183 225 262 310
#
# _framework density 20.566032
#
# number of rings (size 3 to 8) (size 9 to 14) (size 15 to 20)
#    0.000    1.500    6.250    1.500    0.000    1.500 
#    0.000    4.375    0.000    0.000    0.000    0.000 
#    0.000   16.000    0.000    0.000    0.000    0.000 
#
# Total GULP energy -178479.242878 kJ/mol
# GULP energy per Si atom -5577.476340 kJ/mol
# Density = 2.051922 g / cm^3
# Si number density = 20.566032 Si / 1000 Ang^3
#
#
#
# Elastic Constant Matrix: (Units=GPa)
#
#
# Indices 1 2 3 4 5 6 
#
# 1 136.7901 57.6798 19.9397 0.0000 25.2334 0.0000
# 2 57.6798 74.0761 5.2508 0.0000 6.6003 0.0000
# 3 19.9397 5.2508 26.3316 0.0000 10.3808 0.0000
# 4 0.0000 0.0000 0.0000 16.5316 0.0000 4.3187
# 5 25.2334 6.6003 10.3808 0.0000 28.6982 0.0000
# 6 0.0000 0.0000 0.0000 4.3187 0.0000 32.0807
#
#
#
# Elastic Compliance Matrix: (Units=1/GPa)
#
#
# Indices 1 2 3 4 5 6 
#
# 1 0.013496 -0.009442 -0.005266 0.000000 -0.007791 0.000000
# 2 -0.009442 0.020456 0.001927 0.000000 0.002900 0.000000
# 3 -0.005266 0.001927 0.046571 0.000000 -0.012659 0.000000
# 4 0.000000 0.000000 0.000000 0.062695 0.000000 -0.008440
# 5 -0.007791 0.002900 -0.012659 0.000000 0.045607 0.000000
# 6 0.000000 0.000000 0.000000 -0.008440 0.000000 0.032308
#
#
# Mechanical properties :
#
#
# Convention : Reuss Voigt Hill
#
# Bulk Modulus (GPa) = 18.19406 44.77095 31.48250
# Shear Modulus (GPa) = 18.86676 25.75060 22.30868
#
# Velocity S-wave (km/s) = 3.03211 3.54233 3.29710
# Velocity P-wave (km/s) = 4.59609 6.20866 5.46221
#
# Compressibility (1/GPa) = 0.05496301
#
# Stress axis : x y z
#
# Youngs Moduli (GPa) = 74.09352 48.88438 21.47252
#
# Poissons Ratio (x) = 0.46155 0.11308
# Poissons Ratio (y) = 0.69957 -0.04138
# Poissons Ratio (z) = 0.39018 -0.09421
#
# Static dielectric constant tensor:
#      x y z
#    x 1.810300 0.000000 -0.001510 
#    y 0.000000 1.768650 0.000000 
#    z -0.001510 0.000000 1.820400 
# 
# From -- ./inp_files/57851.got.cif
#   From: 2010.05.17/outbox.cif.g08.bks.cpg/sg15_29_cif.got.tgz:57851.got - 2010.06.03 18:47:42.
