data_PCOD9258434
_publ_section_title
;
Structure prediction by ZEFSAII (Michael W. Deem and Ramdas Pophale) SiO2 
 PCOD9258434
Probable space group: C 2/C
;
_chemical_formula_sum "Si O2"
_cell_formula_units_Z 48
_cell_length_a 26.689347
_cell_length_b 16.735755
_cell_length_c 13.552038
_cell_angle_alpha 90.000000
_cell_angle_beta 21.046726
_cell_angle_gamma 90.000000
_cell_volume 2173.895030
_symmetry_space_group_name_H-M "C 2/C"
_symmetry_group_IT_number 15
_symmetry_cell_setting 'monoclinic'
loop_
_space_group_symop_operation_xyz
x,y,z
-x,y,1/2-z
-x,-y,-z
x,-y,1/2+z
1/2+x,1/2+y,z
1/2-x,1/2+y,1/2-z
1/2-x,1/2-y,-z
1/2+x,1/2-y,1/2+z
loop_
_atom_site_type_symbol
_atom_site_label
_atom_site_fract_x
_atom_site_fract_y
_atom_site_fract_z
Si Si1 0.338468 0.053147 0.846290
Si Si2 0.933232 0.467978 0.965881
Si Si3 0.129495 0.229640 0.078223
Si Si4 0.118101 0.814403 0.819342
Si Si5 0.388326 0.571471 0.715273
Si Si6 0.639844 0.559226 0.958704
O O1 0.411424 0.076584 0.609744
O O2 0.458468 0.037105 0.705283
O O3 0.224869 0.114674 0.092494
O O4 0.252683 0.969778 0.986411
O O5 0.778275 0.491488 0.217942
O O6 0.000000 0.422706 0.750000
O O7 0.096016 0.233851 0.256993
O O8 0.000000 0.260952 0.250000
O O9 0.284789 0.266415 0.782942
O O10 0.142255 0.136435 0.024846
O O11 0.970988 0.856365 0.115613
O O12 0.500000 0.500000 0.500000
O O13 0.362361 0.591892 0.648155
O O14 0.500000 0.514570 0.250000
#
# Coordination Sequence:
#
# PCOD9258434 Si02
#       6
#     8   8   8   8   8   8
#     4  10  21  35  56  90 123 152 197 252 317 359
#     4  11  21  35  56  91 121 155 193 250 312 367
#     4  10  19  33  56  87 117 163 210 249 280 365
#     4  10  19  34  57  87 122 156 209 247 298 355
#     4  10  18  33  56  86 119 154 193 256 303 355
#     4  11  18  35  58  85 117 160 208 236 295 370
#
# _framework density 22.080183000000002
#
# number of rings (size 3 to 8) (size 9 to 14) (size 15 to 20)
#    0.000    1.667    6.667    1.000    0.000    0.667 
#    0.000    0.000    0.000    1.000   21.667    0.000 
#    0.000    0.000    0.000    0.000    0.000    0.000 
#
# Total GULP energy -133672.752450 kJ/mol
# GULP energy per Si atom -5569.698019 kJ/mol
# Density = 2.202993 g / cm^3
# Si number density = 22.080183 Si / 1000 Ang^3
#
#
#
# Elastic Constant Matrix: (Units=GPa)
#
#
# Indices 1 2 3 4 5 6 
#
# 1 102.3395 17.9048 46.0356 0.0000 -35.3013 0.0000
# 2 17.9048 27.1414 18.6021 0.0000 -13.5457 0.0000
# 3 46.0356 18.6021 116.8997 0.0000 -25.5238 0.0000
# 4 0.0000 0.0000 0.0000 24.2678 0.0000 -14.4621
# 5 -35.3013 -13.5457 -25.5238 0.0000 53.3818 0.0000
# 6 0.0000 0.0000 0.0000 -14.4621 0.0000 26.6703
#
#
#
# Elastic Compliance Matrix: (Units=1/GPa)
#
#
# Indices 1 2 3 4 5 6 
#
# 1 0.014392 -0.003595 -0.003592 0.000000 0.006888 0.000000
# 2 -0.003595 0.045741 -0.004296 0.000000 0.007175 0.000000
# 3 -0.003592 -0.004296 0.011049 0.000000 0.001818 0.000000
# 4 0.000000 0.000000 0.000000 0.060880 0.000000 0.033013
# 5 0.006888 0.007175 0.001818 0.000000 0.025978 0.000000
# 6 0.000000 0.000000 0.000000 0.033013 0.000000 0.055396
#
#
# Mechanical properties :
#
#
# Convention : Reuss Voigt Hill
#
# Bulk Modulus (GPa) = 20.73976 45.71839 33.22907
# Shear Modulus (GPa) = 19.80397 31.78654 25.79526
#
# Velocity S-wave (km/s) = 2.99810 3.79832 3.42168
# Velocity P-wave (km/s) = 4.62581 6.32352 5.54008
#
# Compressibility (1/GPa) = 0.04821656
#
# Stress axis : x y z
#
# Youngs Moduli (GPa) = 69.48358 21.86210 90.50346
#
# Poissons Ratio (x) = 0.07859 0.32506
# Poissons Ratio (y) = 0.24979 0.38884
# Poissons Ratio (z) = 0.24956 0.09393
#
# Static dielectric constant tensor:
#      x y z
#    x 1.931150 0.000000 -0.038540 
#    y 0.000000 1.873630 0.000000 
#    z -0.038540 0.000000 1.884710 
# 
# From -- ./inp_files/182960.got.cif
#   From: 2010.05.17/outbox.cif.g08.bks.cpg/sg15_92_cif.got.tgz:182960.got - 2010.06.03 18:47:42.
