data_PCOD9258544
_publ_section_title
;
Structure prediction by ZEFSAII (Michael W. Deem and Ramdas Pophale) SiO2 
 PCOD9258544
Probable space group: C 2/C
;
_chemical_formula_sum "Si O2"
_cell_formula_units_Z 56
_cell_length_a 19.379456
_cell_length_b 11.008378
_cell_length_c 28.832130
_cell_angle_alpha 90.000000
_cell_angle_beta 149.397769
_cell_angle_gamma 90.000000
_cell_volume 3131.290456
_symmetry_space_group_name_H-M "C 2/C"
_symmetry_group_IT_number 15
_symmetry_cell_setting 'monoclinic'
loop_
_space_group_symop_operation_xyz
x,y,z
-x,y,1/2-z
-x,-y,-z
x,-y,1/2+z
1/2+x,1/2+y,z
1/2-x,1/2+y,1/2-z
1/2-x,1/2-y,-z
1/2+x,1/2-y,1/2+z
loop_
_atom_site_type_symbol
_atom_site_label
_atom_site_fract_x
_atom_site_fract_y
_atom_site_fract_z
Si Si1 0.631211 0.622780 0.703852
Si Si2 0.633186 0.509491 0.802685
Si Si3 0.437520 0.957632 0.383543
Si Si4 0.509948 0.611651 0.971993
Si Si5 0.389212 0.150470 0.438554
Si Si6 0.548127 0.849649 0.883411
Si Si7 0.762087 0.249615 0.583140
O O1 0.598940 0.545868 0.730666
O O2 0.790578 0.599185 0.788150
O O3 0.541799 0.579340 0.609134
O O4 0.581513 0.760308 0.685629
O O5 0.500000 0.464720 0.750000
O O6 0.746347 0.406885 0.868908
O O7 0.683514 0.634124 0.856647
O O8 0.521002 0.862997 0.463078
O O9 0.431558 0.067438 0.418444
O O10 0.504299 0.017467 0.376485
O O11 0.407534 0.714987 0.930880
O O12 0.500000 0.500000 0.000000
O O13 0.661167 0.668188 0.055548
O O14 0.618652 0.823995 0.874304
O O15 0.662131 0.804561 0.985900
#
# Coordination Sequence:
#
# PCOD9258544 Si02
#       7
#     8   8   8   8   8   8   8
#     4  10  21  32  54  89 115 147 195 242 294 351
#     4  11  20  35  62  94 116 144 200 255 300 359
#     4  10  18  33  59  86 116 147 193 243 292 361
#     4  11  23  41  58  79 122 163 198 247 302 366
#     4  10  19  36  57  82 113 159 187 237 305 348
#     4  10  18  34  57  86 119 143 188 245 302 348
#     4  10  19  35  59  85 114 149 188 244 307 345
#
# _framework density 17.884
#
# number of rings (size 3 to 8) (size 9 to 14) (size 15 to 20)
#    0.000    1.714    5.714    1.714    0.000    2.286 
#    0.000    0.000    3.143    1.714    0.000    0.000 
#    0.000    0.000    0.000    0.000    0.000    0.000 
#
# Total GULP energy -156038.924693 kJ/mol
# GULP energy per Si atom -5572.818739 kJ/mol
# Density = 1.784330 g / cm^3
# Si number density = 17.884000 Si / 1000 Ang^3
#
#
#
# Elastic Constant Matrix: (Units=GPa)
#
#
# Indices 1 2 3 4 5 6 
#
# 1 113.1051 40.2345 33.3043 0.0000 13.8559 0.0000
# 2 40.2345 41.7992 19.5125 0.0000 -5.5396 0.0000
# 3 33.3043 19.5125 50.0297 -0.0002 -2.3475 -0.0001
# 4 0.0000 0.0000 -0.0002 6.0999 0.0000 8.6873
# 5 13.8559 -5.5396 -2.3475 0.0000 15.0041 0.0000
# 6 0.0000 0.0000 -0.0001 8.6873 0.0000 20.9001
#
#
#
# Elastic Compliance Matrix: (Units=1/GPa)
#
#
# Indices 1 2 3 4 5 6 
#
# 1 0.022911 -0.022407 -0.007952 -0.000001 -0.030675 0.000000
# 2 -0.022407 0.052445 -0.003686 0.000000 0.039478 0.000000
# 3 -0.007952 -0.003686 0.027200 0.000002 0.010238 -0.000001
# 4 -0.000001 0.000000 0.000002 0.401770 0.000002 -0.166999
# 5 -0.030675 0.039478 0.010238 0.000002 0.111153 -0.000001
# 6 0.000000 0.000000 -0.000001 -0.166999 -0.000001 0.117261
#
#
# Mechanical properties :
#
#
# Convention : Reuss Voigt Hill
#
# Bulk Modulus (GPa) = 29.01415 43.44850 36.23133
# Shear Modulus (GPa) = 6.15521 15.85966 11.00744
#
# Velocity S-wave (km/s) = 1.85721 2.98116 2.48360
# Velocity P-wave (km/s) = 4.56702 6.01641 5.34111
#
# Compressibility (1/GPa) = 0.03446594
#
# Stress axis : x y z
#
# Youngs Moduli (GPa) = 43.64627 19.06773 36.76491
#
# Poissons Ratio (x) = 0.42725 0.29236
# Poissons Ratio (y) = 0.97798 0.13551
# Poissons Ratio (z) = 0.34708 0.07028
#
# Static dielectric constant tensor:
#      x y z
#    x 1.650660 0.000000 0.005990 
#    y 0.000000 1.600870 0.000000 
#    z 0.005990 0.000000 1.625480 
# 
# From -- ./inp_files/317580.got.cif
#   From: 2010.05.17/outbox.cif.g08.bks.cpg/sg15_159_cif.got.tgz:317580.got - 2010.06.03 18:47:42.
