data_PCOD9258296
_publ_section_title
;
Structure prediction by ZEFSAII (Michael W. Deem and Ramdas Pophale) SiO2 
 PCOD9258296
Probable space group: C 2/C
;
_chemical_formula_sum "Si O2"
_cell_formula_units_Z 52
_cell_length_a 8.523833
_cell_length_b 28.656026
_cell_length_c 17.932336
_cell_angle_alpha 90.000000
_cell_angle_beta 33.917165
_cell_angle_gamma 90.000000
_cell_volume 2444.089427
_symmetry_space_group_name_H-M "C 2/C"
_symmetry_group_IT_number 15
_symmetry_cell_setting 'monoclinic'
loop_
_space_group_symop_operation_xyz
x,y,z
-x,y,1/2-z
-x,-y,-z
x,-y,1/2+z
1/2+x,1/2+y,z
1/2-x,1/2+y,1/2-z
1/2-x,1/2-y,-z
1/2+x,1/2-y,1/2+z
loop_
_atom_site_type_symbol
_atom_site_label
_atom_site_fract_x
_atom_site_fract_y
_atom_site_fract_z
Si Si1 0.681026 0.705085 0.394877
Si Si2 0.925388 0.399671 0.595487
Si Si3 0.442934 0.633481 0.392571
Si Si4 0.399587 0.022880 0.372258
Si Si5 0.181818 0.929183 0.417295
Si Si6 0.500000 0.294761 0.250000
Si Si7 0.479841 0.351734 0.115572
O O1 0.472668 0.686033 0.412703
O O2 0.747173 0.759945 0.373547
O O3 0.000000 0.686167 0.250000
O O4 0.439842 0.685076 0.980651
O O5 0.802733 0.386098 0.563497
O O6 0.720185 0.374363 0.734447
O O7 0.935011 0.452621 0.624961
O O8 0.233283 0.378745 0.479459
O O9 0.435523 0.601434 0.468427
O O10 0.500000 0.039612 0.250000
O O11 0.078213 0.039302 0.509299
O O12 0.400447 0.966846 0.364280
O O13 0.228757 0.890877 0.334140
O O14 0.391645 0.325359 0.224459
#
# Coordination Sequence:
#
# PCOD9258296 Si02
#       7
#     8   8   8   8   8   4   8
#     4   9  18  32  60  82 107 150 194 238 280 344
#     4  10  19  31  57  80 116 142 188 242 289 332
#     4  10  18  33  53  87 109 143 192 240 288 340
#     4  10  18  34  55  79 108 147 195 236 286 345
#     4   9  20  33  56  79 108 149 197 233 281 355
#     4  10  20  34  60  88 118 146 204 236 286 352
#     4  10  19  36  56  83 114 157 192 231 290 347
#
# _framework density 21.275818000000001
#
# number of rings (size 3 to 8) (size 9 to 14) (size 15 to 20)
#    0.462    1.846    3.077    0.462    0.000    0.615 
#    2.769    0.769    0.000    5.538    0.000    0.000 
#    0.000    0.000    0.000    0.000    0.000    0.000 
#
# Total GULP energy -144761.237238 kJ/mol
# GULP energy per Si atom -5567.739894 kJ/mol
# Density = 2.122739 g / cm^3
# Si number density = 21.275818 Si / 1000 Ang^3
#
#
#
# Elastic Constant Matrix: (Units=GPa)
#
#
# Indices 1 2 3 4 5 6 
#
# 1 112.1704 55.2405 16.8534 0.0000 7.0814 0.0000
# 2 55.2405 119.1271 20.1211 0.0000 17.9166 0.0000
# 3 16.8534 20.1211 25.5125 0.0001 5.5809 0.0000
# 4 0.0000 0.0000 0.0001 18.6186 0.0000 1.6158
# 5 7.0814 17.9166 5.5809 0.0000 34.9216 0.0000
# 6 0.0000 0.0000 0.0000 1.6158 0.0000 27.9227
#
#
#
# Elastic Compliance Matrix: (Units=1/GPa)
#
#
# Indices 1 2 3 4 5 6 
#
# 1 0.011925 -0.004947 -0.004147 0.000000 0.000783 0.000000
# 2 -0.004947 0.012273 -0.005444 0.000000 -0.004424 0.000000
# 3 -0.004147 -0.005444 0.047081 0.000000 -0.003890 0.000000
# 4 0.000000 0.000000 0.000000 0.053981 0.000000 -0.003124
# 5 0.000783 -0.004424 -0.003890 0.000000 0.031368 0.000000
# 6 0.000000 0.000000 0.000000 -0.003124 0.000000 0.035994
#
#
# Mechanical properties :
#
#
# Convention : Reuss Voigt Hill
#
# Bulk Modulus (GPa) = 23.69532 49.02666 36.36099
# Shear Modulus (GPa) = 21.20754 27.26557 24.23656
#
# Velocity S-wave (km/s) = 3.16062 3.58373 3.37881
# Velocity P-wave (km/s) = 4.94781 6.34173 5.68763
#
# Compressibility (1/GPa) = 0.04220242
#
# Stress axis : x y z
#
# Youngs Moduli (GPa) = 83.85791 81.47853 21.24021
#
# Poissons Ratio (x) = 0.40307 0.08809
# Poissons Ratio (y) = 0.41484 0.11563
# Poissons Ratio (z) = 0.34777 0.44357
#
# Static dielectric constant tensor:
#      x y z
#    x 1.801920 0.000000 -0.034460 
#    y 0.000000 1.809990 0.000000 
#    z -0.034460 0.000000 1.809520 
# 
# From -- ./inp_files/193998.got.cif
#   From: 2010.05.17/outbox.cif.g08.bks.cpg/sg15_97_cif.got.tgz:193998.got - 2010.06.03 18:47:42.
