data_PCOD9258366
_publ_section_title
;
Structure prediction by ZEFSAII (Michael W. Deem and Ramdas Pophale) SiO2 
 PCOD9258366
Probable space group: C 2/C
;
_chemical_formula_sum "Si O2"
_cell_formula_units_Z 40
_cell_length_a 10.103211
_cell_length_b 23.919631
_cell_length_c 9.010024
_cell_angle_alpha 90.000000
_cell_angle_beta 123.447195
_cell_angle_gamma 90.000000
_cell_volume 1816.816621
_symmetry_space_group_name_H-M "C 2/C"
_symmetry_group_IT_number 15
_symmetry_cell_setting 'monoclinic'
loop_
_space_group_symop_operation_xyz
x,y,z
-x,y,1/2-z
-x,-y,-z
x,-y,1/2+z
1/2+x,1/2+y,z
1/2-x,1/2+y,1/2-z
1/2-x,1/2-y,-z
1/2+x,1/2-y,1/2+z
loop_
_atom_site_type_symbol
_atom_site_label
_atom_site_fract_x
_atom_site_fract_y
_atom_site_fract_z
Si Si1 0.100475 0.704388 0.167165
Si Si2 0.197418 0.686160 0.702576
Si Si3 0.208392 0.881238 0.537987
Si Si4 0.101070 0.878174 0.952160
Si Si5 0.877937 0.004592 0.557028
O O1 0.227908 0.752799 0.228352
O O2 0.181060 0.647401 0.270799
O O3 0.000000 0.723291 0.250000
O O4 0.984466 0.695145 0.957519
O O5 0.268240 0.653442 0.600076
O O6 0.251160 0.652881 0.882091
O O7 0.249047 0.946946 0.543035
O O8 0.031940 0.878906 0.498896
O O9 0.000000 0.854701 0.750000
O O10 0.161427 0.939976 0.937540
O O11 0.000000 0.028942 0.750000
O O12 0.000000 0.000000 0.500000
#
# Coordination Sequence:
#
# PCOD9258366 Si02
#       5
#     8   8   8   8   8
#     4  10  20  33  56  84 105 131 175 222 266 311
#     4  11  20  35  56  80 105 137 174 219 266 311
#     4  10  18  33  55  79 105 134 172 220 262 308
#     4  10  20  34  52  77 106 140 178 214 253 308
#     4   9  17  29  50  76 101 134 174 211 252 302
#
# _framework density 22.016529999999999
#
# number of rings (size 3 to 8) (size 9 to 14) (size 15 to 20)
#    0.000    2.000    0.000    7.800    0.000    0.000 
#    0.000    6.000    0.000    4.800    0.000    0.000 
#    0.000    0.000    0.000    0.000    0.000    0.000 
#
# Total GULP energy -111466.644085 kJ/mol
# GULP energy per Si atom -5573.332204 kJ/mol
# Density = 2.196642 g / cm^3
# Si number density = 22.016530 Si / 1000 Ang^3
#
#
#
# Elastic Constant Matrix: (Units=GPa)
#
#
# Indices 1 2 3 4 5 6 
#
# 1 38.4196 15.6575 20.1502 0.0000 1.0098 0.0000
# 2 15.6575 132.8743 89.0801 0.0000 29.8125 0.0000
# 3 20.1502 89.0801 205.3253 0.0000 28.6895 0.0000
# 4 0.0000 0.0000 0.0000 37.4715 0.0000 6.4698
# 5 1.0098 29.8125 28.6895 0.0000 34.1065 0.0000
# 6 0.0000 0.0000 0.0000 6.4698 0.0000 27.3045
#
#
#
# Elastic Compliance Matrix: (Units=1/GPa)
#
#
# Indices 1 2 3 4 5 6 
#
# 1 0.028104 -0.002656 -0.002056 0.000000 0.003218 0.000000
# 2 -0.002656 0.012126 -0.004001 0.000000 -0.007156 0.000000
# 3 -0.002056 -0.004001 0.007151 0.000000 -0.002458 0.000000
# 4 0.000000 0.000000 0.000000 0.027825 0.000000 -0.006593
# 5 0.003218 -0.007156 -0.002458 0.000000 0.037547 0.000000
# 6 0.000000 0.000000 0.000000 -0.006593 0.000000 0.038186
#
#
# Mechanical properties :
#
#
# Convention : Reuss Voigt Hill
#
# Bulk Modulus (GPa) = 33.38007 69.59943 51.48975
# Shear Modulus (GPa) = 28.03479 36.55859 32.29669
#
# Velocity S-wave (km/s) = 3.57228 4.07935 3.83421
# Velocity P-wave (km/s) = 5.67531 7.33956 6.56042
#
# Compressibility (1/GPa) = 0.02995800
#
# Stress axis : x y z
#
# Youngs Moduli (GPa) = 35.58182 82.46487 139.83943
#
# Poissons Ratio (x) = 0.21900 0.28745
# Poissons Ratio (y) = 0.09450 0.55943
# Poissons Ratio (z) = 0.07314 0.32990
#
# Static dielectric constant tensor:
#      x y z
#    x 1.855540 0.000000 -0.019370 
#    y 0.000000 1.913390 0.000000 
#    z -0.019370 0.000000 1.788200 
# 
# From -- ./inp_files/33890.got.cif
#   From: 2010.05.17/outbox.cif.g08.bks.cpg/sg15_17_cif.got.tgz:33890.got - 2010.06.03 18:47:42.
