data_PCOD9258696
_publ_section_title
;
Structure prediction by ZEFSAII (Michael W. Deem and Ramdas Pophale) SiO2 
 PCOD9258696
Probable space group: C 2/C
;
_chemical_formula_sum "Si O2"
_cell_formula_units_Z 60
_cell_length_a 15.404879
_cell_length_b 12.129997
_cell_length_c 24.228314
_cell_angle_alpha 90.000000
_cell_angle_beta 142.344173
_cell_angle_gamma 90.000000
_cell_volume 2765.822368
_symmetry_space_group_name_H-M "C 2/C"
_symmetry_group_IT_number 15
_symmetry_cell_setting 'monoclinic'
loop_
_space_group_symop_operation_xyz
x,y,z
-x,y,1/2-z
-x,-y,-z
x,-y,1/2+z
1/2+x,1/2+y,z
1/2-x,1/2+y,1/2-z
1/2-x,1/2-y,-z
1/2+x,1/2-y,1/2+z
loop_
_atom_site_type_symbol
_atom_site_label
_atom_site_fract_x
_atom_site_fract_y
_atom_site_fract_z
Si Si1 0.359007 0.443215 0.826844
Si Si2 0.000000 0.283552 0.750000
Si Si3 0.806074 0.635379 0.055062
Si Si4 0.194088 0.901070 0.299979
Si Si5 0.010886 0.129419 0.949270
Si Si6 0.024276 0.264161 0.071278
Si Si7 0.352427 0.062736 0.438005
Si Si8 0.413924 0.850474 0.852671
O O1 0.369361 0.517611 0.777456
O O2 0.402038 0.527837 0.897094
O O3 0.458854 0.335825 0.877902
O O4 0.197960 0.396537 0.747986
O O5 0.897969 0.346838 0.656722
O O6 0.902892 0.200535 0.735181
O O7 0.930337 0.593054 0.076486
O O8 0.750000 0.750000 0.000000
O O9 0.658250 0.581305 0.998745
O O10 0.343047 0.847489 0.354840
O O11 0.229904 0.971217 0.373948
O O12 0.947920 0.221404 0.875550
O O13 0.037716 0.200479 0.018507
O O14 0.885702 0.342326 0.998870
O O15 0.336367 0.124546 0.371192
O O16 0.500000 0.000000 0.500000
#
# Coordination Sequence:
#
# PCOD9258696 Si02
#       8
#     8   4   8   8   8   8   8   8
#     4  11  20  32  51  82 111 143 190 225 281 337
#     4  12  20  34  58  82 118 144 180 242 300 342
#     4  10  20  33  53  83 116 146 175 234 302 341
#     4  10  20  34  54  84 105 143 184 226 282 339
#     4  10  19  33  51  81 112 146 181 226 293 344
#     4  10  18  34  52  75 111 140 180 230 272 332
#     4   8  17  32  53  77 101 139 184 215 270 330
#     4   9  19  33  52  78 114 141 178 233 279 338
#
# _framework density 21.693366999999999
#
# number of rings (size 3 to 8) (size 9 to 14) (size 15 to 20)
#    0.000    2.133    1.333    3.600    1.867    0.000 
#    0.000    0.000    0.000    0.800   10.400    0.000 
#    0.000    0.000    0.000    0.000    0.000    0.000 
#
# Total GULP energy -167029.099139 kJ/mol
# GULP energy per Si atom -5567.636638 kJ/mol
# Density = 2.164399 g / cm^3
# Si number density = 21.693367 Si / 1000 Ang^3
#
#
#
# Elastic Constant Matrix: (Units=GPa)
#
#
# Indices 1 2 3 4 5 6 
#
# 1 21.8609 -2.8079 6.8352 0.0000 3.4064 0.0000
# 2 -2.8079 84.8713 33.2596 0.0000 3.1979 0.0000
# 3 6.8352 33.2596 100.1612 0.0000 -2.2196 0.0000
# 4 0.0000 0.0000 0.0000 54.8944 0.0000 -7.4924
# 5 3.4064 3.1979 -2.2196 0.0000 26.7907 0.0000
# 6 0.0000 0.0000 0.0000 -7.4924 0.0000 12.2689
#
#
#
# Elastic Compliance Matrix: (Units=1/GPa)
#
#
# Indices 1 2 3 4 5 6 
#
# 1 0.048798 0.003731 -0.004725 0.000000 -0.007041 0.000000
# 2 0.003731 0.013938 -0.004939 0.000000 -0.002547 0.000000
# 3 -0.004725 -0.004939 0.011995 0.000000 0.002184 0.000000
# 4 0.000000 0.000000 0.000000 0.019873 0.000000 0.012136
# 5 -0.007041 -0.002547 0.002184 0.000000 0.038707 0.000000
# 6 0.000000 0.000000 0.000000 0.012136 0.000000 0.088918
#
#
# Mechanical properties :
#
#
# Convention : Reuss Voigt Hill
#
# Bulk Modulus (GPa) = 15.90730 31.27416 23.59073
# Shear Modulus (GPa) = 19.60412 30.09792 24.85102
#
# Velocity S-wave (km/s) = 3.00941 3.72886 3.38828
# Velocity P-wave (km/s) = 4.40728 5.74342 5.11913
#
# Compressibility (1/GPa) = 0.06286421
#
# Stress axis : x y z
#
# Youngs Moduli (GPa) = 20.49279 71.74849 83.36889
#
# Poissons Ratio (x) = -0.26773 0.39393
# Poissons Ratio (y) = -0.07647 0.41178
# Poissons Ratio (z) = 0.09683 0.35438
#
# Static dielectric constant tensor:
#      x y z
#    x 1.937490 0.000000 -0.126060 
#    y 0.000000 1.842850 0.000000 
#    z -0.126060 0.000000 1.939850 
# 
# From -- ./inp_files/317729.got.cif
#   From: 2010.05.17/outbox.cif.g08.bks.cpg/sg15_159_cif.got.tgz:317729.got - 2010.06.03 18:47:42.
