data_PCOD9258921
_publ_section_title
;
Structure prediction by ZEFSAII (Michael W. Deem and Ramdas Pophale) SiO2 
 PCOD9258921
Probable space group: C 2/C
;
_chemical_formula_sum "Si O2"
_cell_formula_units_Z 56
_cell_length_a 15.383040
_cell_length_b 16.668048
_cell_length_c 16.164879
_cell_angle_alpha 90.000000
_cell_angle_beta 130.790529
_cell_angle_gamma 90.000000
_cell_volume 3138.010330
_symmetry_space_group_name_H-M "C 2/C"
_symmetry_group_IT_number 15
_symmetry_cell_setting 'monoclinic'
loop_
_space_group_symop_operation_xyz
x,y,z
-x,y,1/2-z
-x,-y,-z
x,-y,1/2+z
1/2+x,1/2+y,z
1/2-x,1/2+y,1/2-z
1/2-x,1/2-y,-z
1/2+x,1/2-y,1/2+z
loop_
_atom_site_type_symbol
_atom_site_label
_atom_site_fract_x
_atom_site_fract_y
_atom_site_fract_z
Si Si1 0.870654 0.217647 0.683126
Si Si2 0.295019 0.720494 0.939242
Si Si3 0.942194 0.764881 0.922230
Si Si4 0.094933 0.630953 0.740830
Si Si5 0.035787 0.531524 0.113014
Si Si6 0.214849 0.325211 0.725046
Si Si7 0.642262 0.835441 0.976725
O O1 0.847543 0.256277 0.758254
O O2 0.769016 0.156998 0.595098
O O3 0.853317 0.291194 0.608127
O O4 0.000000 0.187883 0.750000
O O5 0.218004 0.646909 0.858862
O O6 0.274988 0.792379 0.861384
O O7 0.250000 0.750000 0.000000
O O8 0.430693 0.704340 0.017670
O O9 0.918198 0.692338 0.843368
O O10 0.841583 0.829101 0.843721
O O11 0.924538 0.723840 0.000835
O O12 0.069780 0.542933 0.690999
O O13 0.000000 0.651962 0.750000
O O14 0.140471 0.594643 0.177681
O O15 0.000000 0.500000 0.000000
O O16 0.926510 0.582697 0.075328
#
# Coordination Sequence:
#
# PCOD9258921 Si02
#       7
#     8   8   8   8   8   8   8
#     4  10  18  34  57  82 111 140 199 237 275 345
#     4  11  20  37  61  85 115 150 205 253 286 338
#     4  10  19  40  57  85 112 147 202 249 281 342
#     4  11  23  34  58  90 116 154 200 240 300 349
#     4  12  22  38  56  83 124 152 187 240 300 359
#     4  10  22  34  57  84 113 152 192 240 296 344
#     4  10  20  33  55  85 109 152 183 237 292 338
#
# _framework density 17.845704000000001
#
# number of rings (size 3 to 8) (size 9 to 14) (size 15 to 20)
#    0.000    1.429    5.714    0.000    2.000    0.000 
#    0.000    0.714    0.000    1.714    0.000    0.000 
#    0.000    0.000    0.000    0.000    0.000    0.000 
#
# Total GULP energy -156227.259018 kJ/mol
# GULP energy per Si atom -5579.544965 kJ/mol
# Density = 1.780509 g / cm^3
# Si number density = 17.845704 Si / 1000 Ang^3
#
#
#
# Elastic Constant Matrix: (Units=GPa)
#
#
# Indices 1 2 3 4 5 6 
#
# 1 91.7577 10.8726 41.5187 0.0000 6.6025 0.0000
# 2 10.8726 69.1495 41.2718 0.0000 10.8251 0.0000
# 3 41.5187 41.2718 122.6982 0.0000 31.5153 0.0000
# 4 0.0000 0.0000 0.0000 31.7837 0.0000 6.7222
# 5 6.6025 10.8251 31.5153 0.0000 54.3310 0.0000
# 6 0.0000 0.0000 0.0000 6.7222 0.0000 13.5325
#
#
#
# Elastic Compliance Matrix: (Units=1/GPa)
#
#
# Indices 1 2 3 4 5 6 
#
# 1 0.012957 0.000721 -0.004918 0.000000 0.001135 0.000000
# 2 0.000721 0.018134 -0.006337 0.000000 -0.000025 0.000000
# 3 -0.004918 -0.006337 0.013476 0.000000 -0.005956 0.000000
# 4 0.000000 0.000000 0.000000 0.035156 0.000000 -0.017464
# 5 0.001135 -0.000025 -0.005956 0.000000 0.021728 0.000000
# 6 0.000000 0.000000 0.000000 -0.017464 0.000000 0.082571
#
#
# Mechanical properties :
#
#
# Convention : Reuss Voigt Hill
#
# Bulk Modulus (GPa) = 42.55837 52.32572 47.44205
# Shear Modulus (GPa) = 23.48254 32.59227 28.03740
#
# Velocity S-wave (km/s) = 3.63142 4.27820 3.96801
# Velocity P-wave (km/s) = 6.44071 7.33409 6.90187
#
# Compressibility (1/GPa) = 0.02349714
#
# Stress axis : x y z
#
# Youngs Moduli (GPa) = 77.18084 55.14377 74.20673
#
# Poissons Ratio (x) = -0.03973 0.36495
# Poissons Ratio (y) = -0.05561 0.47027
# Poissons Ratio (z) = 0.37958 0.34946
#
# Static dielectric constant tensor:
#      x y z
#    x 1.633560 0.000000 0.018550 
#    y 0.000000 1.566690 0.000000 
#    z 0.018550 0.000000 1.663240 
# 
# From -- ./inp_files/206289.got.cif
#   From: 2010.05.17/outbox.cif.g08.bks.cpg/sg15_104_cif.got.tgz:206289.got - 2010.06.03 18:47:42.
