data_PCOD9258595
_publ_section_title
;
Structure prediction by ZEFSAII (Michael W. Deem and Ramdas Pophale) SiO2 
 PCOD9258595
Probable space group: C 2/C
;
_chemical_formula_sum "Si O2"
_cell_formula_units_Z 64
_cell_length_a 27.854813
_cell_length_b 7.888609
_cell_length_c 17.613314
_cell_angle_alpha 90.000000
_cell_angle_beta 137.767679
_cell_angle_gamma 90.000000
_cell_volume 2601.359939
_symmetry_space_group_name_H-M "C 2/C"
_symmetry_group_IT_number 15
_symmetry_cell_setting 'monoclinic'
loop_
_space_group_symop_operation_xyz
x,y,z
-x,y,1/2-z
-x,-y,-z
x,-y,1/2+z
1/2+x,1/2+y,z
1/2-x,1/2+y,1/2-z
1/2-x,1/2-y,-z
1/2+x,1/2-y,1/2+z
loop_
_atom_site_type_symbol
_atom_site_label
_atom_site_fract_x
_atom_site_fract_y
_atom_site_fract_z
Si Si1 0.599581 0.902665 0.745449
Si Si2 0.715919 0.080797 0.601444
Si Si3 0.253915 0.126535 0.578849
Si Si4 0.083704 0.870694 0.557435
Si Si5 0.943003 0.567743 0.086956
Si Si6 0.186970 0.116222 0.909016
Si Si7 0.551258 0.236983 0.025109
Si Si8 0.246810 0.202276 0.262801
O O1 0.527307 0.951501 0.706894
O O2 0.620545 0.720525 0.804961
O O3 0.577236 0.858787 0.632357
O O4 0.667792 0.031179 0.829403
O O5 0.638000 0.075258 0.471930
O O6 0.778268 0.015764 0.620499
O O7 0.752794 0.245425 0.682105
O O8 0.711523 0.970813 0.672772
O O9 0.250000 0.250000 0.500000
O O10 0.235217 0.193655 0.640415
O O11 0.187834 0.999582 0.482595
O O12 0.060808 0.753481 0.459051
O O13 0.162980 0.823769 0.670613
O O14 0.030745 0.796459 0.559306
O O15 0.084247 0.075184 0.551687
O O16 0.938295 0.400159 0.028007
O O17 0.250000 0.250000 0.000000
#
# Coordination Sequence:
#
# PCOD9258595 Si02
#       8
#     8   8   8   8   8   8   8   8
#     4  10  20  38  63  89 123 175 216 267 316 391
#     4  11  24  39  62 100 129 167 212 275 335 393
#     4  11  22  41  63  91 122 165 223 264 313 390
#     4   9  19  34  56  91 128 170 209 262 324 399
#     4  10  21  38  58  95 135 164 216 268 340 384
#     4  10  23  41  64  91 124 172 221 261 320 398
#     4  10  18  33  60  90 130 167 213 263 327 392
#     4  11  23  37  61  91 131 164 209 269 331 377
#
# _framework density 24.602516000000001
#
# number of rings (size 3 to 8) (size 9 to 14) (size 15 to 20)
#    0.000    1.750    1.250    4.500    7.000    0.000 
#    2.250    2.500    0.000    0.000    6.500    0.000 
#    0.000    0.000    0.000    0.000    0.000    0.000 
#
# Total GULP energy -178183.493347 kJ/mol
# GULP energy per Si atom -5568.234167 kJ/mol
# Density = 2.454652 g / cm^3
# Si number density = 24.602516 Si / 1000 Ang^3
#
#
#
# Elastic Constant Matrix: (Units=GPa)
#
#
# Indices 1 2 3 4 5 6 
#
# 1 72.9401 17.4275 20.9020 0.0000 7.4012 0.0000
# 2 17.4275 79.5323 3.5909 0.0000 -8.4706 0.0000
# 3 20.9020 3.5909 61.2755 0.0000 32.8279 0.0000
# 4 0.0000 0.0000 0.0000 44.9633 0.0000 -9.9240
# 5 7.4012 -8.4706 32.8279 0.0000 30.0337 0.0000
# 6 0.0000 0.0000 0.0000 -9.9240 0.0000 13.8874
#
#
#
# Elastic Compliance Matrix: (Units=1/GPa)
#
#
# Indices 1 2 3 4 5 6 
#
# 1 0.016065 -0.002964 -0.006606 0.000000 0.002426 0.000000
# 2 -0.002964 0.014703 -0.005945 0.000000 0.011375 0.000000
# 3 -0.006606 -0.005945 0.045721 0.000000 -0.050024 0.000000
# 4 0.000000 0.000000 0.000000 0.026405 0.000000 0.018869
# 5 0.002426 0.011375 -0.050024 0.000000 0.090584 0.000000
# 6 0.000000 0.000000 0.000000 0.018869 0.000000 0.085492
#
#
# Mechanical properties :
#
#
# Convention : Reuss Voigt Hill
#
# Bulk Modulus (GPa) = 21.99697 33.06539 27.53118
# Shear Modulus (GPa) = 15.37744 29.23204 22.30474
#
# Velocity S-wave (km/s) = 2.50278 3.45073 3.01425
# Velocity P-wave (km/s) = 4.16080 5.41717 4.83001
#
# Compressibility (1/GPa) = 0.04546080
#
# Stress axis : x y z
#
# Youngs Moduli (GPa) = 62.24775 68.01436 21.87161
#
# Poissons Ratio (x) = 0.20157 0.14448
# Poissons Ratio (y) = 0.18448 0.13002
# Poissons Ratio (z) = 0.41120 0.40432
#
# Static dielectric constant tensor:
#      x y z
#    x 0.967540 0.000000 0.902380 
#    y 0.000000 2.201420 0.000000 
#    z 0.902380 0.000000 1.177340 
# 
# From -- ./inp_files/224670.got.cif
#   From: 2010.05.17/outbox.cif.g08.bks.cpg/sg15_113_cif.got.tgz:224670.got - 2010.06.03 18:47:42.
