data_PCOD9258875
_publ_section_title
;
Structure prediction by ZEFSAII (Michael W. Deem and Ramdas Pophale) SiO2 
 PCOD9258875
Probable space group: C 2/C
;
_chemical_formula_sum "Si O2"
_cell_formula_units_Z 64
_cell_length_a 16.234004
_cell_length_b 12.055482
_cell_length_c 26.600783
_cell_angle_alpha 90.000000
_cell_angle_beta 39.056488
_cell_angle_gamma 90.000000
_cell_volume 3280.232802
_symmetry_space_group_name_H-M "C 2/C"
_symmetry_group_IT_number 15
_symmetry_cell_setting 'monoclinic'
loop_
_space_group_symop_operation_xyz
x,y,z
-x,y,1/2-z
-x,-y,-z
x,-y,1/2+z
1/2+x,1/2+y,z
1/2-x,1/2+y,1/2-z
1/2-x,1/2-y,-z
1/2+x,1/2-y,1/2+z
loop_
_atom_site_type_symbol
_atom_site_label
_atom_site_fract_x
_atom_site_fract_y
_atom_site_fract_z
Si Si1 0.453381 0.308388 0.329310
Si Si2 0.628465 0.079040 0.655716
Si Si3 0.729845 0.644716 0.420632
Si Si4 0.091065 0.178342 0.382889
Si Si5 0.794579 0.830931 0.156968
Si Si6 0.965199 0.034554 0.912767
Si Si7 0.053389 0.604474 0.844499
Si Si8 0.360217 0.855097 0.694486
O O1 0.500000 0.320890 0.250000
O O2 0.308934 0.255576 0.395909
O O3 0.465900 0.421086 0.355473
O O4 0.543582 0.219055 0.316376
O O5 0.500000 0.099161 0.750000
O O6 0.745920 0.149470 0.623766
O O7 0.582429 0.106201 0.621630
O O8 0.667312 0.950458 0.644241
O O9 0.628554 0.662257 0.423217
O O10 0.657041 0.591723 0.502422
O O11 0.058375 0.305592 0.386045
O O12 0.222005 0.144519 0.289356
O O13 0.978913 0.095643 0.416210
O O14 0.908643 0.914708 0.118445
O O15 0.671401 0.858765 0.251270
O O16 0.841236 0.710060 0.151318
O O17 0.084990 0.476899 0.840858
#
# Coordination Sequence:
#
# PCOD9258875 Si02
#       8
#     8   8   8   8   8   8   8   8
#     4  11  22  38  62  87 111 153 198 243 281 336
#     4  10  18  34  56  86 111 147 203 235 275 338
#     4  12  21  35  61  86 114 155 196 234 280 350
#     4  11  21  35  57  89 119 152 186 238 296 339
#     4   9  19  32  56  81 115 146 189 239 284 329
#     4  11  23  37  55  90 123 145 187 243 296 336
#     4  10  19  34  58  84 112 147 194 241 278 341
#     4  10  18  34  58  85 112 146 197 245 280 328
#
# _framework density 19.510811
#
# number of rings (size 3 to 8) (size 9 to 14) (size 15 to 20)
#    0.000    1.500    5.000    1.875    0.000    0.000 
#    0.000    5.000    0.000    3.000    0.000    0.000 
#    0.000    0.000    0.000    0.000    0.000    0.000 
#
# Total GULP energy -178617.455601 kJ/mol
# GULP energy per Si atom -5581.795488 kJ/mol
# Density = 1.946640 g / cm^3
# Si number density = 19.510811 Si / 1000 Ang^3
#
#
#
# Elastic Constant Matrix: (Units=GPa)
#
#
# Indices 1 2 3 4 5 6 
#
# 1 91.1332 52.2125 4.8977 0.0000 -7.3127 0.0000
# 2 52.2125 90.5648 2.0080 0.0000 8.2218 0.0000
# 3 4.8977 2.0080 9.0617 0.0000 0.6638 0.0000
# 4 0.0000 0.0000 0.0000 0.5271 0.0000 3.9177
# 5 -7.3127 8.2218 0.6638 0.0000 9.0030 0.0000
# 6 0.0000 0.0000 0.0000 3.9177 0.0000 16.6463
#
#
#
# Elastic Compliance Matrix: (Units=1/GPa)
#
#
# Indices 1 2 3 4 5 6 
#
# 1 0.024247 -0.016990 -0.011984 0.000001 0.036095 0.000000
# 2 -0.016990 0.023977 0.006520 0.000000 -0.036177 0.000000
# 3 -0.011984 0.006520 0.117169 -0.000005 -0.024327 0.000001
# 4 0.000001 0.000000 -0.000005 -2.531807 0.000002 0.595866
# 5 0.036095 -0.036177 -0.024327 0.000002 0.175223 0.000000
# 6 0.000000 0.000000 0.000001 0.595866 0.000000 -0.080165
#
#
# Mechanical properties :
#
#
# Convention : Reuss Voigt Hill
#
# Bulk Modulus (GPa) = 8.29985 34.33288 21.31636
# Shear Modulus (GPa) = -2.28698 14.01138 5.86220
#
# Velocity S-wave (km/s) = -1.08384 2.68271 1.73526
# Velocity P-wave (km/s) = 1.64223 5.21833 3.86833
#
# Compressibility (1/GPa) = 0.12048416
#
# Stress axis : x y z
#
# Youngs Moduli (GPa) = 41.24149 41.70708 8.53465
#
# Poissons Ratio (x) = 0.70861 0.10228
# Poissons Ratio (y) = 0.70070 -0.05564
# Poissons Ratio (z) = 0.49425 -0.27192
#
# Static dielectric constant tensor:
#      x y z
#    x 1.696930 0.000000 -0.010170 
#    y 0.000000 1.696920 0.000000 
#    z -0.010170 0.000000 1.713560 
# 
# From -- ./inp_files/296134.got.cif
#   From: 2010.05.17/outbox.cif.g08.bks.cpg/sg15_149_cif.got.tgz:296134.got - 2010.06.03 18:47:42.
