data_PCOD9258051
_publ_section_title
;
Structure prediction by ZEFSAII (Michael W. Deem and Ramdas Pophale) SiO2 
 PCOD9258051
Probable space group: C 2/C
;
_chemical_formula_sum "Si O2"
_cell_formula_units_Z 48
_cell_length_a 22.670494
_cell_length_b 9.365920
_cell_length_c 17.053919
_cell_angle_alpha 90.000000
_cell_angle_beta 38.560147
_cell_angle_gamma 90.000000
_cell_volume 2257.135994
_symmetry_space_group_name_H-M "C 2/C"
_symmetry_group_IT_number 15
_symmetry_cell_setting 'monoclinic'
loop_
_space_group_symop_operation_xyz
x,y,z
-x,y,1/2-z
-x,-y,-z
x,-y,1/2+z
1/2+x,1/2+y,z
1/2-x,1/2+y,1/2-z
1/2-x,1/2-y,-z
1/2+x,1/2-y,1/2+z
loop_
_atom_site_type_symbol
_atom_site_label
_atom_site_fract_x
_atom_site_fract_y
_atom_site_fract_z
Si Si1 0.000000 0.443791 0.750000
Si Si2 0.649443 0.300092 0.139673
Si Si3 0.551218 0.356687 0.534919
Si Si4 0.000000 0.043306 0.250000
Si Si5 0.027898 0.446478 0.885389
Si Si6 0.090476 0.182283 0.446498
Si Si7 0.811108 0.725638 0.233857
O O1 0.085855 0.336459 0.681060
O O2 0.004158 0.523552 0.661283
O O3 0.589227 0.437243 0.174602
O O4 0.667234 0.326710 0.214215
O O5 0.750000 0.250000 0.000000
O O6 0.535114 0.357343 0.643183
O O7 0.571478 0.523488 0.496079
O O8 0.454045 0.311626 0.593489
O O9 0.632647 0.272022 0.402644
O O10 0.139648 0.417810 0.782595
O O11 0.971038 0.294993 0.939746
O O12 0.000000 0.500000 0.000000
O O13 0.200604 0.214812 0.335354
#
# Coordination Sequence:
#
# PCOD9258051 Si02
#       7
#     4   8   8   4   8   8   8
#     4   9  18  34  51  76 116 142 185 243 282 334
#     4  10  18  32  58  88 109 142 193 252 292 324
#     4  10  21  38  60  86 116 159 193 239 300 348
#     4  11  20  36  57  84 124 150 195 243 290 362
#     4  10  21  36  55  84 115 152 187 238 294 341
#     4  10  20  38  60  85 115 147 199 244 288 354
#     4  10  21  36  61  86 113 151 195 239 293 349
#
# _framework density 21.265888
#
# number of rings (size 3 to 8) (size 9 to 14) (size 15 to 20)
#    0.000    2.000    0.000    7.000    2.333    0.000 
#    3.000    4.167    0.000    0.000    0.000    0.000 
#    0.000    0.000    0.000    0.000    0.000    0.000 
#
# Total GULP energy -133674.198460 kJ/mol
# GULP energy per Si atom -5569.758269 kJ/mol
# Density = 2.121749 g / cm^3
# Si number density = 21.265888 Si / 1000 Ang^3
#
#
#
# Elastic Constant Matrix: (Units=GPa)
#
#
# Indices 1 2 3 4 5 6 
#
# 1 154.5826 23.8832 98.6881 0.0000 -0.9088 0.0000
# 2 23.8832 49.0880 15.3722 0.0000 -0.1935 0.0000
# 3 98.6881 15.3722 138.0136 0.0000 1.6773 0.0000
# 4 0.0000 0.0000 0.0000 20.1218 0.0000 5.7373
# 5 -0.9088 -0.1935 1.6773 0.0000 69.1444 0.0000
# 6 0.0000 0.0000 0.0000 5.7373 0.0000 22.4097
#
#
#
# Elastic Compliance Matrix: (Units=1/GPa)
#
#
# Indices 1 2 3 4 5 6 
#
# 1 0.012430 -0.003379 -0.008516 0.000000 0.000361 0.000000
# 2 -0.003379 0.022027 -0.000037 0.000000 0.000018 0.000000
# 3 -0.008516 -0.000037 0.013345 0.000000 -0.000436 0.000000
# 4 0.000000 0.000000 0.000000 0.053611 0.000000 -0.013726
# 5 0.000361 0.000018 -0.000436 0.000000 0.014478 0.000000
# 6 0.000000 0.000000 0.000000 -0.013726 0.000000 0.048138
#
#
# Mechanical properties :
#
#
# Convention : Reuss Voigt Hill
#
# Bulk Modulus (GPa) = 41.77700 68.61902 55.19801
# Shear Modulus (GPa) = 25.52664 35.91789 30.72227
#
# Velocity S-wave (km/s) = 3.46837 4.11419 3.80501
# Velocity P-wave (km/s) = 5.97722 7.40986 6.73176
#
# Compressibility (1/GPa) = 0.02393662
#
# Stress axis : x y z
#
# Youngs Moduli (GPa) = 80.44878 45.39781 74.93547
#
# Poissons Ratio (x) = 0.15342 0.63818
# Poissons Ratio (y) = 0.27187 0.00279
# Poissons Ratio (z) = 0.68513 0.00169
#
# Static dielectric constant tensor:
#      x y z
#    x 1.788470 0.000000 0.092550 
#    y 0.000000 1.866840 0.000000 
#    z 0.092550 0.000000 1.851010 
# 
# From -- ./inp_files/167862.got.cif
#   From: 2010.05.17/outbox.cif.g08.bks.cpg/sg15_84_cif.got.tgz:167862.got - 2010.06.03 18:47:42.
