data_PCOD9258990
_publ_section_title
;
Structure prediction by ZEFSAII (Michael W. Deem and Ramdas Pophale) SiO2 
 PCOD9258990
Probable space group: C 2/C
;
_chemical_formula_sum "Si O2"
_cell_formula_units_Z 64
_cell_length_a 9.154513
_cell_length_b 21.003483
_cell_length_c 18.593171
_cell_angle_alpha 90.000000
_cell_angle_beta 48.812711
_cell_angle_gamma 90.000000
_cell_volume 2690.430318
_symmetry_space_group_name_H-M "C 2/C"
_symmetry_group_IT_number 15
_symmetry_cell_setting 'monoclinic'
loop_
_space_group_symop_operation_xyz
x,y,z
-x,y,1/2-z
-x,-y,-z
x,-y,1/2+z
1/2+x,1/2+y,z
1/2-x,1/2+y,1/2-z
1/2-x,1/2-y,-z
1/2+x,1/2-y,1/2+z
loop_
_atom_site_type_symbol
_atom_site_label
_atom_site_fract_x
_atom_site_fract_y
_atom_site_fract_z
Si Si1 0.820422 0.178806 0.139392
Si Si2 0.439789 0.236957 0.486648
Si Si3 0.202292 0.498065 0.797674
Si Si4 0.638715 0.523140 0.600540
Si Si5 0.442564 0.871291 0.189398
Si Si6 0.572314 0.363767 0.375332
Si Si7 0.309366 0.404418 0.012683
Si Si8 0.964240 0.642007 0.152535
O O1 0.665020 0.150161 0.131858
O O2 0.700197 0.181805 0.251232
O O3 0.886013 0.246490 0.085517
O O4 0.008895 0.133597 0.080717
O O5 0.250000 0.250000 0.500000
O O6 0.564643 0.296695 0.417961
O O7 0.521563 0.171016 0.431639
O O8 0.418648 0.502380 0.694011
O O9 0.229350 0.515000 0.872568
O O10 0.071859 0.551899 0.804461
O O11 0.107905 0.429599 0.821319
O O12 0.618883 0.597725 0.586422
O O13 0.705857 0.473312 0.518638
O O14 0.500000 0.845950 0.250000
O O15 0.214073 0.855468 0.261070
O O16 0.611931 0.862439 0.076755
O O17 0.647610 0.409377 0.415739
#
# Coordination Sequence:
#
# PCOD9258990 Si02
#       8
#     8   8   8   8   8   8   8   8
#     4   9  19  34  59  87 108 144 201 243 291 354
#     4   9  19  36  58  86 113 147 197 248 293 343
#     4  10  21  35  53  83 119 152 188 232 298 356
#     4  10  20  35  55  83 116 150 187 237 296 351
#     4   9  20  34  55  82 114 149 185 235 289 349
#     4   9  19  36  58  83 114 151 191 241 297 347
#     4  10  18  34  58  82 112 143 192 240 282 351
#     4  10  19  35  60  84 116 150 191 252 296 347
#
# _framework density 23.788015999999999
#
# number of rings (size 3 to 8) (size 9 to 14) (size 15 to 20)
#    0.000    2.500    1.250    0.375    1.750    4.500 
#    0.000   11.250   13.750    3.750    0.000    0.000 
#    0.000    0.000    0.000    0.000    0.000    0.000 
#
# Total GULP energy -178493.741804 kJ/mol
# GULP energy per Si atom -5577.929431 kJ/mol
# Density = 2.373387 g / cm^3
# Si number density = 23.788016 Si / 1000 Ang^3
#
#
#
# Elastic Constant Matrix: (Units=GPa)
#
#
# Indices 1 2 3 4 5 6 
#
# 1 46.2844 5.9655 19.1231 0.0000 -1.0819 0.0000
# 2 5.9655 41.9855 2.9064 0.0000 -2.3732 0.0000
# 3 19.1231 2.9064 102.3476 0.0000 -16.0720 0.0000
# 4 0.0000 0.0000 0.0000 31.4513 0.0000 1.4574
# 5 -1.0819 -2.3732 -16.0720 0.0000 25.3106 0.0000
# 6 0.0000 0.0000 0.0000 1.4574 0.0000 23.2583
#
#
#
# Elastic Compliance Matrix: (Units=1/GPa)
#
#
# Indices 1 2 3 4 5 6 
#
# 1 0.023922 -0.003200 -0.004738 0.000000 -0.002286 0.000000
# 2 -0.003200 0.024385 0.000270 0.000000 0.002321 0.000000
# 3 -0.004738 0.000270 0.011797 0.000000 0.007314 0.000000
# 4 0.000000 0.000000 0.000000 0.031888 0.000000 -0.001998
# 5 -0.002286 0.002321 0.007314 0.000000 0.044273 0.000000
# 6 0.000000 0.000000 0.000000 -0.001998 0.000000 0.043121
#
#
# Mechanical properties :
#
#
# Convention : Reuss Voigt Hill
#
# Bulk Modulus (GPa) = 22.33761 27.40083 24.86922
# Shear Modulus (GPa) = 23.84996 26.84554 25.34775
#
# Velocity S-wave (km/s) = 3.16983 3.36301 3.26785
# Velocity P-wave (km/s) = 4.77574 5.15980 4.97148
#
# Compressibility (1/GPa) = 0.04476755
#
# Stress axis : x y z
#
# Youngs Moduli (GPa) = 41.80235 41.00888 84.76967
#
# Poissons Ratio (x) = 0.13124 0.40162
# Poissons Ratio (y) = 0.13378 -0.02288
# Poissons Ratio (z) = 0.19805 -0.01107
#
# Static dielectric constant tensor:
#      x y z
#    x 1.998090 0.000000 -0.126650 
#    y 0.000000 2.066600 0.000000 
#    z -0.126650 0.000000 2.155530 
# 
# From -- ./inp_files/234437.got.cif
#   From: 2010.05.17/outbox.cif.g08.bks.cpg/sg15_118_cif.got.tgz:234437.got - 2010.06.03 18:47:42.
