data_PCOD9258894
_publ_section_title
;
Structure prediction by ZEFSAII (Michael W. Deem and Ramdas Pophale) SiO2 
 PCOD9258894
Probable space group: C 2/C
;
_chemical_formula_sum "Si O2"
_cell_formula_units_Z 52
_cell_length_a 19.740604
_cell_length_b 14.947296
_cell_length_c 11.477880
_cell_angle_alpha 90.000000
_cell_angle_beta 127.306265
_cell_angle_gamma 90.000000
_cell_volume 2693.855382
_symmetry_space_group_name_H-M "C 2/C"
_symmetry_group_IT_number 15
_symmetry_cell_setting 'monoclinic'
loop_
_space_group_symop_operation_xyz
x,y,z
-x,y,1/2-z
-x,-y,-z
x,-y,1/2+z
1/2+x,1/2+y,z
1/2-x,1/2+y,1/2-z
1/2-x,1/2-y,-z
1/2+x,1/2-y,1/2+z
loop_
_atom_site_type_symbol
_atom_site_label
_atom_site_fract_x
_atom_site_fract_y
_atom_site_fract_z
Si Si1 0.161860 0.814436 0.037275
Si Si2 0.500000 0.699683 0.250000
Si Si3 0.932082 0.642272 0.837480
Si Si4 0.234400 0.378240 0.898813
Si Si5 0.218709 0.563305 0.963633
Si Si6 0.376292 0.111565 0.430232
Si Si7 0.203943 0.302643 0.122994
O O1 0.223032 0.850409 0.999053
O O2 0.143230 0.709170 0.034424
O O3 0.216464 0.833909 0.211832
O O4 0.068817 0.851001 0.902330
O O5 0.551292 0.765934 0.216406
O O6 0.869200 0.581715 0.696151
O O7 0.976312 0.402969 0.049475
O O8 0.881398 0.666626 0.901500
O O9 0.265574 0.478574 0.955619
O O10 0.151057 0.386132 0.731438
O O11 0.291059 0.305290 0.889353
O O12 0.212955 0.340587 0.003401
O O13 0.187726 0.548731 0.063534
#
# Coordination Sequence:
#
# PCOD9258894 Si02
#       7
#     8   4   8   8   8   8   8
#     4   9  19  34  60  79 112 141 194 228 288 329
#     4  10  18  34  56  92 106 144 180 248 284 340
#     4  10  19  35  58  84 118 143 190 230 287 334
#     4  10  23  37  55  81 117 155 196 219 286 338
#     4  11  20  33  57  88 110 146 186 248 275 333
#     4  10  20  36  55  86 115 151 181 234 282 348
#     4   9  21  40  55  76 112 167 183 222 275 363
#
# _framework density 19.303189
#
# number of rings (size 3 to 8) (size 9 to 14) (size 15 to 20)
#    0.000    2.154    3.077    0.462    8.615    1.231 
#    2.769    0.000    0.000   12.000    0.000    0.000 
#    0.000    0.000    0.000    0.000    0.000    0.000 
#
# Total GULP energy -144745.786312 kJ/mol
# GULP energy per Si atom -5567.145627 kJ/mol
# Density = 1.925925 g / cm^3
# Si number density = 19.303189 Si / 1000 Ang^3
#
#
#
# Elastic Constant Matrix: (Units=GPa)
#
#
# Indices 1 2 3 4 5 6 
#
# 1 75.4772 20.1269 42.8882 0.0000 -9.2474 0.0000
# 2 20.1269 51.2098 6.7877 0.0000 7.9693 0.0000
# 3 42.8882 6.7877 97.3253 0.0000 -2.6898 0.0000
# 4 0.0000 0.0000 0.0000 -16.4161 0.0000 21.1834
# 5 -9.2474 7.9693 -2.6898 0.0000 23.1405 0.0000
# 6 0.0000 0.0000 0.0000 21.1834 0.0000 -13.1322
#
#
#
# Elastic Compliance Matrix: (Units=1/GPa)
#
#
# Indices 1 2 3 4 5 6 
#
# 1 0.022021 -0.009198 -0.008760 0.000000 0.010949 0.000000
# 2 -0.009198 0.024739 0.001997 0.000000 -0.011963 0.000000
# 3 -0.008760 0.001997 0.013925 0.000000 -0.002570 0.000000
# 4 0.000000 0.000000 0.000000 0.056323 0.000000 0.090855
# 5 0.010949 -0.011963 -0.002570 0.000000 0.051411 0.000000
# 6 0.000000 0.000000 0.000000 0.090855 0.000000 0.070408
#
#
# Mechanical properties :
#
#
# Convention : Reuss Voigt Hill
#
# Bulk Modulus (GPa) = 34.76538 40.40199 37.58369
# Shear Modulus (GPa) = 17.83575 8.99908 13.41741
#
# Velocity S-wave (km/s) = 3.04300 2.16150 2.63931
# Velocity P-wave (km/s) = 5.51323 5.21585 5.36660
#
# Compressibility (1/GPa) = 0.02876425
#
# Stress axis : x y z
#
# Youngs Moduli (GPa) = 45.41185 40.42128 71.81500
#
# Poissons Ratio (x) = 0.37178 0.62908
# Poissons Ratio (y) = 0.41768 -0.14342
# Poissons Ratio (z) = 0.39780 -0.08072
#
# Static dielectric constant tensor:
#      x y z
#    x 1.669440 0.000000 -0.007650 
#    y 0.000000 1.743670 0.000000 
#    z -0.007650 0.000000 1.708260 
# 
# From -- ./inp_files/112455.got.cif
#   From: 2010.05.17/outbox.cif.g08.bks.cpg/sg15_57_cif.got.tgz:112455.got - 2010.06.03 18:47:42.
