data_PCOD9258842
_publ_section_title
;
Structure prediction by ZEFSAII (Michael W. Deem and Ramdas Pophale) SiO2 
 PCOD9258842
Probable space group: C 2/C
;
_chemical_formula_sum "Si O2"
_cell_formula_units_Z 56
_cell_length_a 8.315500
_cell_length_b 24.958457
_cell_length_c 14.625999
_cell_angle_alpha 90.000000
_cell_angle_beta 72.271398
_cell_angle_gamma 90.000000
_cell_volume 2891.352197
_symmetry_space_group_name_H-M "C 2/C"
_symmetry_group_IT_number 15
_symmetry_cell_setting 'monoclinic'
loop_
_space_group_symop_operation_xyz
x,y,z
-x,y,1/2-z
-x,-y,-z
x,-y,1/2+z
1/2+x,1/2+y,z
1/2-x,1/2+y,1/2-z
1/2-x,1/2-y,-z
1/2+x,1/2-y,1/2+z
loop_
_atom_site_type_symbol
_atom_site_label
_atom_site_fract_x
_atom_site_fract_y
_atom_site_fract_z
Si Si1 0.682234 0.130220 0.762275
Si Si2 0.063353 0.213931 0.843834
Si Si3 0.339970 0.058050 0.096999
Si Si4 0.775114 0.138230 0.956627
Si Si5 0.527780 0.836159 0.855353
Si Si6 0.261196 0.974601 0.973622
Si Si7 0.293171 0.011659 0.774629
O O1 0.500000 0.126349 0.750000
O O2 0.772761 0.177639 0.692667
O O3 0.687329 0.138941 0.871050
O O4 0.765662 0.072283 0.729869
O O5 0.000000 0.215305 0.750000
O O6 0.925622 0.180979 0.925106
O O7 0.085207 0.275628 0.865569
O O8 0.344419 0.119877 0.124802
O O9 0.540025 0.042881 0.055565
O O10 0.261757 0.023702 0.191977
O O11 0.254509 0.032669 0.022711
O O12 0.646899 0.154690 0.059417
O O13 0.829229 0.076494 0.965821
O O14 0.500000 0.844261 0.750000
O O15 0.217800 0.983768 0.876353
O O16 0.500000 0.012123 0.750000
#
# Coordination Sequence:
#
# PCOD9258842 Si02
#       7
#     8   8   8   8   8   8   8
#     4  10  20  34  55  79 106 137 179 222 265 319
#     4   9  20  36  53  78 106 142 182 223 266 316
#     4   9  15  25  43  74 105 125 168 215 261 304
#     4  10  18  34  56  79 107 140 174 223 270 318
#     4  10  19  31  52  81 107 137 184 226 263 311
#     4   9  16  25  45  75 101 131 166 209 266 310
#     4   9  16  27  46  75 104 128 168 219 260 310
#
# _framework density 19.368102
#
# number of rings (size 3 to 8) (size 9 to 14) (size 15 to 20)
#    0.000    2.571    1.429    2.571    6.000    0.000 
#    0.000    1.429    0.000    0.000    3.714    0.000 
#    0.000    0.000    0.000    0.000    0.000    0.000 
#
# Total GULP energy -156002.324399 kJ/mol
# GULP energy per Si atom -5571.511586 kJ/mol
# Density = 1.932402 g / cm^3
# Si number density = 19.368102 Si / 1000 Ang^3
#
#
#
# Elastic Constant Matrix: (Units=GPa)
#
#
# Indices 1 2 3 4 5 6 
#
# 1 9.8181 19.8339 10.5614 0.0000 -3.0600 0.0000
# 2 19.8339 170.8163 34.0005 0.0000 -16.4920 0.0000
# 3 10.5614 34.0005 87.9713 0.0000 -7.6498 0.0000
# 4 0.0000 0.0000 0.0000 30.2648 0.0000 -11.0800
# 5 -3.0600 -16.4920 -7.6498 0.0000 7.9211 0.0000
# 6 0.0000 0.0000 0.0000 -11.0800 0.0000 -33.5662
#
#
#
# Elastic Compliance Matrix: (Units=1/GPa)
#
#
# Indices 1 2 3 4 5 6 
#
# 1 0.145470 -0.012915 -0.010834 0.000000 0.018844 0.000000
# 2 -0.012915 0.008698 -0.000732 0.000000 0.012414 0.000000
# 3 -0.010834 -0.000732 0.013596 0.000000 0.007422 0.000000
# 4 0.000000 0.000000 0.000000 0.029479 0.000000 -0.009731
# 5 0.018844 0.012414 0.007422 0.000000 0.166539 0.000000
# 6 0.000000 0.000000 0.000000 -0.009731 0.000000 -0.026580
#
#
# Mechanical properties :
#
#
# Convention : Reuss Voigt Hill
#
# Bulk Modulus (GPa) = 8.41736 44.15527 26.28631
# Shear Modulus (GPa) = 11.74358 14.53792 13.14075
#
# Velocity S-wave (km/s) = 2.46506 2.74270 2.60758
# Velocity P-wave (km/s) = 3.52951 5.73387 4.76103
#
# Compressibility (1/GPa) = 0.11880213
#
# Stress axis : x y z
#
# Youngs Moduli (GPa) = 6.87429 114.96873 73.54981
#
# Poissons Ratio (x) = 1.48482 0.79685
# Poissons Ratio (y) = 0.08878 0.05382
# Poissons Ratio (z) = 0.07448 0.08413
#
# Static dielectric constant tensor:
#      x y z
#    x 1.691800 0.000000 -0.029550 
#    y 0.000000 1.712350 0.000000 
#    z -0.029550 0.000000 1.685750 
# 
# From -- ./inp_files/137258.got.cif
#   From: 2010.05.17/outbox.cif.g08.bks.cpg/sg15_69_cif.got.tgz:137258.got - 2010.06.03 18:47:42.
