data_PCOD9258332
_publ_section_title
;
Structure prediction by ZEFSAII (Michael W. Deem and Ramdas Pophale) SiO2 
 PCOD9258332
Probable space group: C 2/C
;
_chemical_formula_sum "Si O2"
_cell_formula_units_Z 56
_cell_length_a 16.264741
_cell_length_b 11.593131
_cell_length_c 15.240899
_cell_angle_alpha 90.000000
_cell_angle_beta 53.382419
_cell_angle_gamma 90.000000
_cell_volume 2306.621295
_symmetry_space_group_name_H-M "C 2/C"
_symmetry_group_IT_number 15
_symmetry_cell_setting 'monoclinic'
loop_
_space_group_symop_operation_xyz
x,y,z
-x,y,1/2-z
-x,-y,-z
x,-y,1/2+z
1/2+x,1/2+y,z
1/2-x,1/2+y,1/2-z
1/2-x,1/2-y,-z
1/2+x,1/2-y,1/2+z
loop_
_atom_site_type_symbol
_atom_site_label
_atom_site_fract_x
_atom_site_fract_y
_atom_site_fract_z
Si Si1 0.826879 0.078542 0.297672
Si Si2 0.343559 0.378732 0.395292
Si Si3 0.277733 0.962853 0.303034
Si Si4 0.341133 0.256551 0.058745
Si Si5 0.398687 0.184375 0.221939
Si Si6 0.389621 0.184582 0.477980
Si Si7 0.943894 0.287108 0.143351
O O1 0.748343 0.163982 0.396635
O O2 0.899085 0.162926 0.197153
O O3 0.877145 0.001975 0.340878
O O4 0.771297 0.992505 0.262341
O O5 0.384497 0.289623 0.296077
O O6 0.383184 0.320899 0.458521
O O7 0.219767 0.370799 0.473061
O O8 0.198188 0.888421 0.411086
O O9 0.379098 0.881827 0.237342
O O10 0.318883 0.087731 0.302877
O O11 0.372438 0.228450 0.140520
O O12 0.434175 0.225645 0.935579
O O13 0.514102 0.137129 0.138017
O O14 0.413802 0.176641 0.564001
#
# Coordination Sequence:
#
# PCOD9258332 Si02
#       7
#     8   8   8   8   8   8   8
#     4  10  19  33  55  82 124 151 190 249 297 335
#     4  11  20  37  53  87 124 151 192 241 297 350
#     4  10  18  33  54  81 119 151 187 253 289 338
#     4   9  19  32  53  83 114 150 199 246 289 347
#     4  10  20  34  55  83 119 152 192 237 296 350
#     4  10  21  34  57  82 122 153 190 233 294 357
#     4  10  20  35  54  89 115 153 201 240 296 349
#
# _framework density 24.277933999999998
#
# number of rings (size 3 to 8) (size 9 to 14) (size 15 to 20)
#    0.000    2.000    2.857    2.143    2.000    2.286 
#    2.571    0.000    0.000    0.000    0.000   56.000 
#    0.000    0.000    0.000    0.000    0.000    0.000 
#
# Total GULP energy -156511.384254 kJ/mol
# GULP energy per Si atom -5589.692295 kJ/mol
# Density = 2.422268 g / cm^3
# Si number density = 24.277934 Si / 1000 Ang^3
#
#
#
# Elastic Constant Matrix: (Units=GPa)
#
#
# Indices 1 2 3 4 5 6 
#
# 1 23.4392 -5.4370 6.5239 0.0000 -11.1919 0.0000
# 2 -5.4370 73.4724 14.7930 0.0000 -9.5048 0.0000
# 3 6.5239 14.7930 99.8369 0.0000 -20.2960 0.0000
# 4 0.0000 0.0000 0.0000 24.4204 0.0000 -0.4328
# 5 -11.1919 -9.5048 -20.2960 0.0000 26.5554 0.0000
# 6 0.0000 0.0000 0.0000 -0.4328 0.0000 13.0901
#
#
#
# Elastic Compliance Matrix: (Units=1/GPa)
#
#
# Indices 1 2 3 4 5 6 
#
# 1 0.057348 0.007653 0.000697 0.000000 0.027442 0.000000
# 2 0.007653 0.015431 -0.001193 0.000000 0.007837 0.000000
# 3 0.000697 -0.001193 0.011982 0.000000 0.009025 0.000000
# 4 0.000000 0.000000 0.000000 0.040973 0.000000 0.001355
# 5 0.027442 0.007837 0.009025 0.000000 0.058925 0.000000
# 6 0.000000 0.000000 0.000000 0.001355 0.000000 0.076438
#
#
# Mechanical properties :
#
#
# Convention : Reuss Voigt Hill
#
# Bulk Modulus (GPa) = 10.09328 25.38981 17.74155
# Shear Modulus (GPa) = 17.86934 24.87109 21.37022
#
# Velocity S-wave (km/s) = 2.71593 3.20415 2.97009
# Velocity P-wave (km/s) = 3.74186 4.91624 4.36869
#
# Compressibility (1/GPa) = 0.09907581
#
# Stress axis : x y z
#
# Youngs Moduli (GPa) = 17.43739 64.80471 83.45691
#
# Poissons Ratio (x) = -0.49598 -0.05819
# Poissons Ratio (y) = -0.13346 0.09960
# Poissons Ratio (z) = -0.01216 0.07734
#
# Static dielectric constant tensor:
#      x y z
#    x 2.013060 0.000000 -0.009030 
#    y 0.000000 1.900110 0.000000 
#    z -0.009030 0.000000 1.940450 
# 
# From -- ./inp_files/252351.got.cif
#   From: 2010.05.17/outbox.cif.g08.bks.cpg/sg15_127_cif.got.tgz:252351.got - 2010.06.03 18:47:42.
