data_PCOD9258883
_publ_section_title
;
Structure prediction by ZEFSAII (Michael W. Deem and Ramdas Pophale) SiO2 
 PCOD9258883
Probable space group: C 2/C
;
_chemical_formula_sum "Si O2"
_cell_formula_units_Z 60
_cell_length_a 22.255826
_cell_length_b 8.121437
_cell_length_c 15.278814
_cell_angle_alpha 90.000000
_cell_angle_beta 101.888950
_cell_angle_gamma 90.000000
_cell_volume 2702.394205
_symmetry_space_group_name_H-M "C 2/C"
_symmetry_group_IT_number 15
_symmetry_cell_setting 'monoclinic'
loop_
_space_group_symop_operation_xyz
x,y,z
-x,y,1/2-z
-x,-y,-z
x,-y,1/2+z
1/2+x,1/2+y,z
1/2-x,1/2+y,1/2-z
1/2-x,1/2-y,-z
1/2+x,1/2-y,1/2+z
loop_
_atom_site_type_symbol
_atom_site_label
_atom_site_fract_x
_atom_site_fract_y
_atom_site_fract_z
Si Si1 0.685245 0.967603 0.636447
Si Si2 0.921420 0.344248 0.459091
Si Si3 0.355416 0.508056 0.398559
Si Si4 0.760042 0.446367 0.526227
Si Si5 0.500000 0.221652 0.250000
Si Si6 0.204863 0.844237 0.265974
Si Si7 0.874127 0.353945 0.643526
Si Si8 0.524212 0.662378 0.559820
O O1 0.613701 0.015804 0.605212
O O2 0.714868 0.953992 0.548945
O O3 0.726208 0.119894 0.684826
O O4 0.697613 0.813452 0.701372
O O5 0.895116 0.350713 0.549765
O O6 0.993579 0.313154 0.496739
O O7 0.893567 0.175108 0.413454
O O8 0.305083 0.497852 0.458517
O O9 0.319951 0.495175 0.297308
O O10 0.403330 0.359275 0.421348
O O11 0.750000 0.250000 0.500000
O O12 0.812168 0.463297 0.617894
O O13 0.563620 0.120158 0.282550
O O14 0.493655 0.321163 0.341371
O O15 0.156441 0.813707 0.329631
O O16 0.500000 0.500000 0.500000
#
# Coordination Sequence:
#
# PCOD9258883 Si02
#       8
#     8   8   8   8   4   8   8   8
#     4  11  22  36  56  87 115 164 197 252 309 369
#     4   9  18  37  59  79 114 162 200 239 308 369
#     4  11  19  35  57  89 118 148 202 254 300 371
#     4  11  19  37  59  78 117 163 201 244 313 373
#     4  10  18  34  56  88 116 154 218 240 296 376
#     4  12  22  33  56  90 120 148 202 255 311 358
#     4  10  18  34  57  81 113 155 196 246 296 367
#     4   9  19  32  59  89 118 153 200 259 298 355
#
# _framework density 22.202532999999999
#
# number of rings (size 3 to 8) (size 9 to 14) (size 15 to 20)
#    0.000    1.600    5.333    1.600    0.000    0.533 
#    0.000    0.667    0.000    0.000    0.000    0.000 
#    0.000    0.000    0.000    0.000    0.000    0.000 
#
# Total GULP energy -167165.428638 kJ/mol
# GULP energy per Si atom -5572.180955 kJ/mol
# Density = 2.215200 g / cm^3
# Si number density = 22.202533 Si / 1000 Ang^3
#
#
#
# Elastic Constant Matrix: (Units=GPa)
#
#
# Indices 1 2 3 4 5 6 
#
# 1 123.3893 14.3137 35.7907 0.0000 25.7310 0.0000
# 2 14.3137 54.6306 22.7554 0.0000 8.8120 0.0000
# 3 35.7907 22.7554 116.6254 0.0000 19.2386 0.0000
# 4 0.0000 0.0000 0.0000 30.0316 0.0000 7.9287
# 5 25.7310 8.8120 19.2386 0.0000 44.9601 0.0000
# 6 0.0000 0.0000 0.0000 7.9287 0.0000 15.4389
#
#
#
# Elastic Compliance Matrix: (Units=1/GPa)
#
#
# Indices 1 2 3 4 5 6 
#
# 1 0.009755 -0.000970 -0.002060 0.000000 -0.004511 0.000000
# 2 -0.000970 0.020267 -0.003328 0.000000 -0.001993 0.000000
# 3 -0.002060 -0.003328 0.010280 0.000000 -0.002567 0.000000
# 4 0.000000 0.000000 0.000000 0.038521 0.000000 -0.019783
# 5 -0.004511 -0.001993 -0.002567 0.000000 0.026313 0.000000
# 6 0.000000 0.000000 0.000000 -0.019783 0.000000 0.074931
#
#
# Mechanical properties :
#
#
# Convention : Reuss Voigt Hill
#
# Bulk Modulus (GPa) = 36.25163 48.92943 42.59053
# Shear Modulus (GPa) = 24.75515 32.87180 28.81348
#
# Velocity S-wave (km/s) = 3.34274 3.85196 3.60635
# Velocity P-wave (km/s) = 5.59121 6.47063 6.04693
#
# Compressibility (1/GPa) = 0.02758496
#
# Stress axis : x y z
#
# Youngs Moduli (GPa) = 102.50776 49.34232 97.28043
#
# Poissons Ratio (x) = 0.04787 0.20043
# Poissons Ratio (y) = 0.09944 0.32373
# Poissons Ratio (z) = 0.21120 0.16420
#
# Static dielectric constant tensor:
#      x y z
#    x 1.872650 0.000000 0.028480 
#    y 0.000000 1.853980 0.000000 
#    z 0.028480 0.000000 1.878820 
# 
# From -- ./inp_files/172431.got.cif
#   From: 2010.05.17/outbox.cif.g08.bks.cpg/sg15_87_cif.got.tgz:172431.got - 2010.06.03 18:47:42.
