data_PCOD9258372
_publ_section_title
;
Structure prediction by ZEFSAII (Michael W. Deem and Ramdas Pophale) SiO2 
 PCOD9258372
Probable space group: C 2/C
;
_chemical_formula_sum "Si O2"
_cell_formula_units_Z 56
_cell_length_a 14.710956
_cell_length_b 17.693256
_cell_length_c 18.016410
_cell_angle_alpha 90.000000
_cell_angle_beta 151.535377
_cell_angle_gamma 90.000000
_cell_volume 2235.041418
_symmetry_space_group_name_H-M "C 2/C"
_symmetry_group_IT_number 15
_symmetry_cell_setting 'monoclinic'
loop_
_space_group_symop_operation_xyz
x,y,z
-x,y,1/2-z
-x,-y,-z
x,-y,1/2+z
1/2+x,1/2+y,z
1/2-x,1/2+y,1/2-z
1/2-x,1/2-y,-z
1/2+x,1/2-y,1/2+z
loop_
_atom_site_type_symbol
_atom_site_label
_atom_site_fract_x
_atom_site_fract_y
_atom_site_fract_z
Si Si1 0.094167 0.082887 0.998939
Si Si2 0.564068 0.217479 0.686525
Si Si3 0.817682 0.691856 0.271218
Si Si4 0.770048 0.853218 0.635381
Si Si5 0.385401 0.999770 0.994438
Si Si6 0.361242 0.135717 0.081125
Si Si7 0.730848 0.068501 0.830566
O O1 0.876106 0.074497 0.865352
O O2 0.191796 0.128756 0.137747
O O3 0.157588 0.132716 0.974673
O O4 0.176932 0.996958 0.052437
O O5 0.689654 0.236382 0.702196
O O6 0.361659 0.184750 0.520657
O O7 0.556219 0.299582 0.718236
O O8 0.683728 0.154926 0.818915
O O9 0.855361 0.656530 0.378995
O O10 0.009835 0.702388 0.361591
O O11 0.789760 0.941568 0.637568
O O12 0.532238 0.963748 0.159080
O O13 0.340015 0.079296 0.997299
O O14 0.500000 0.000000 0.000000
O O15 0.500000 0.110045 0.250000
#
# Coordination Sequence:
#
# PCOD9258372 Si02
#       7
#     8   8   8   8   8   8   8
#     4  10  19  33  53  80 109 143 183 233 270 322
#     4   9  18  31  50  80 106 138 187 221 272 328
#     4   9  17  32  52  76 107 142 173 225 271 325
#     4   9  18  29  53  77 102 141 179 228 262 329
#     4  11  17  33  55  80 103 140 190 227 273 323
#     4  10  18  33  55  80 110 142 185 223 278 331
#     4  10  19  31  54  80 104 142 188 225 267 328
#
# _framework density 25.055463
#
# number of rings (size 3 to 8) (size 9 to 14) (size 15 to 20)
#    0.857    1.429    4.286    0.857    0.000    0.000 
#    0.000    1.429    3.143    0.857    0.000    0.000 
#    0.000    0.000    0.000    0.000    0.000    0.000 
#
# Total GULP energy -155970.669158 kJ/mol
# GULP energy per Si atom -5570.381041 kJ/mol
# Density = 2.499844 g / cm^3
# Si number density = 25.055463 Si / 1000 Ang^3
#
#
#
# Elastic Constant Matrix: (Units=GPa)
#
#
# Indices 1 2 3 4 5 6 
#
# 1 120.5008 8.3783 12.0873 0.0064 10.6403 0.0024
# 2 8.3783 100.8758 26.0887 0.0026 -6.2368 -0.0056
# 3 12.0873 26.0887 28.1405 0.0169 1.4285 0.0179
# 4 0.0064 0.0026 0.0169 3.4527 0.0105 -22.5698
# 5 10.6403 -6.2368 1.4285 0.0105 32.2294 0.0073
# 6 0.0024 -0.0056 0.0179 -22.5698 0.0073 -10.6605
#
#
#
# Elastic Compliance Matrix: (Units=1/GPa)
#
#
# Indices 1 2 3 4 5 6 
#
# 1 0.008914 0.000056 -0.003740 -0.000002 -0.002766 -0.000002
# 2 0.000056 0.013349 -0.012559 -0.000009 0.003121 -0.000008
# 3 -0.003740 -0.012559 0.048956 0.000023 -0.003365 0.000036
# 4 -0.000002 -0.000009 0.000023 0.019517 0.000001 -0.041321
# 5 -0.002766 0.003121 -0.003365 0.000001 0.032694 0.000012
# 6 -0.000002 -0.000008 0.000036 -0.041321 0.000012 -0.006321
#
#
# Mechanical properties :
#
#
# Convention : Reuss Voigt Hill
#
# Bulk Modulus (GPa) = 25.81718 38.06952 31.94335
# Shear Modulus (GPa) = 30.76779 18.53518 24.65148
#
# Velocity S-wave (km/s) = 3.50807 2.72281 3.14008
# Velocity P-wave (km/s) = 5.17060 5.01119 5.09152
#
# Compressibility (1/GPa) = 0.03873389
#
# Stress axis : x y z
#
# Youngs Moduli (GPa) = 112.17959 74.90947 20.42640
#
# Poissons Ratio (x) = -0.00419 0.07640
# Poissons Ratio (y) = -0.00628 0.25653
# Poissons Ratio (z) = 0.41960 0.94076
#
# Static dielectric constant tensor:
#      x y z
#    x 2.062000 0.000000 0.034090 
#    y 0.000000 2.056380 -0.000010 
#    z 0.034090 -0.000010 1.981030 
# 
# From -- ./inp_files/249849.got.cif
#   From: 2010.05.17/outbox.cif.g08.bks.cpg/sg15_125_cif.got.tgz:249849.got - 2010.06.03 18:47:42.
