data_PCOD9258186
_publ_section_title
;
Structure prediction by ZEFSAII (Michael W. Deem and Ramdas Pophale) SiO2 
 PCOD9258186
Probable space group: C 2/C
;
_chemical_formula_sum "Si O2"
_cell_formula_units_Z 64
_cell_length_a 12.527142
_cell_length_b 19.341601
_cell_length_c 19.122083
_cell_angle_alpha 90.000000
_cell_angle_beta 130.766561
_cell_angle_gamma 90.000000
_cell_volume 3509.064222
_symmetry_space_group_name_H-M "C 2/C"
_symmetry_group_IT_number 15
_symmetry_cell_setting 'monoclinic'
loop_
_space_group_symop_operation_xyz
x,y,z
-x,y,1/2-z
-x,-y,-z
x,-y,1/2+z
1/2+x,1/2+y,z
1/2-x,1/2+y,1/2-z
1/2-x,1/2-y,-z
1/2+x,1/2-y,1/2+z
loop_
_atom_site_type_symbol
_atom_site_label
_atom_site_fract_x
_atom_site_fract_y
_atom_site_fract_z
Si Si1 0.538481 0.443689 0.693110
Si Si2 0.693251 0.029468 0.686987
Si Si3 0.340855 0.925404 0.181403
Si Si4 0.318456 0.568552 0.596832
Si Si5 0.608760 0.686931 0.968238
Si Si6 0.069914 0.298740 0.853616
Si Si7 0.045449 0.920504 0.996480
Si Si8 0.414785 0.957730 0.616211
O O1 0.500000 0.407361 0.750000
O O2 0.701177 0.464782 0.763222
O O3 0.448313 0.515554 0.656430
O O4 0.499307 0.410302 0.602866
O O5 0.719038 0.076188 0.766116
O O6 0.731617 0.066304 0.631411
O O7 0.535163 0.002837 0.630331
O O8 0.500000 0.894420 0.250000
O O9 0.366386 0.004645 0.166592
O O10 0.212320 0.905073 0.076660
O O11 0.363633 0.643908 0.591520
O O12 0.217824 0.543082 0.491783
O O13 0.528141 0.753853 0.904129
O O14 0.758316 0.705161 0.068748
O O15 0.531140 0.633827 0.985881
O O16 0.037230 0.379714 0.850759
O O17 0.000000 0.277444 0.750000
O O18 0.000000 0.000000 0.000000
#
# Coordination Sequence:
#
# PCOD9258186 Si02
#       8
#     8   8   8   8   8   8   8   8
#     4  10  20  30  47  79 109 134 172 216 270 319
#     4  10  19  27  47  76 103 137 174 210 270 317
#     4  10  19  30  48  76 106 145 182 216 270 322
#     4  10  18  33  47  73 114 134 168 219 266 317
#     4  10  22  34  55  80 108 145 179 212 269 328
#     4  10  21  36  51  76 113 142 176 221 257 307
#     4  12  18  33  54  76 111 147 174 218 272 330
#     4  10  19  33  51  72 109 143 177 217 259 322
#
# _framework density 18.238481
#
# number of rings (size 3 to 8) (size 9 to 14) (size 15 to 20)
#    0.000    1.750    3.750    2.250    1.750    2.500 
#    0.000    0.000    0.000    0.000    0.000    6.125 
#    0.000    0.000    0.000    0.000    0.000    0.000 
#
# Total GULP energy -178216.045735 kJ/mol
# GULP energy per Si atom -5569.251429 kJ/mol
# Density = 1.819697 g / cm^3
# Si number density = 18.238481 Si / 1000 Ang^3
#
#
#
# Elastic Constant Matrix: (Units=GPa)
#
#
# Indices 1 2 3 4 5 6 
#
# 1 69.1517 17.9928 18.1569 0.0000 -16.9155 0.0000
# 2 17.9928 50.4343 16.8906 0.0000 -9.2097 0.0000
# 3 18.1569 16.8906 91.8046 0.0000 -14.8189 0.0000
# 4 0.0000 0.0000 0.0000 15.9489 0.0000 -6.1922
# 5 -16.9155 -9.2097 -14.8189 0.0000 36.8372 0.0000
# 6 0.0000 0.0000 0.0000 -6.1922 0.0000 19.4927
#
#
#
# Elastic Compliance Matrix: (Units=1/GPa)
#
#
# Indices 1 2 3 4 5 6 
#
# 1 0.017621 -0.004594 -0.001625 0.000000 0.006290 0.000000
# 2 -0.004594 0.022887 -0.002908 0.000000 0.002443 0.000000
# 3 -0.001625 -0.002908 0.012311 0.000000 0.003479 0.000000
# 4 0.000000 0.000000 0.000000 0.071521 0.000000 0.022720
# 5 0.006290 0.002443 0.003479 0.000000 0.032045 0.000000
# 6 0.000000 0.000000 0.000000 0.022720 0.000000 0.058519
#
#
# Mechanical properties :
#
#
# Convention : Reuss Voigt Hill
#
# Bulk Modulus (GPa) = 28.93047 35.27459 32.10253
# Shear Modulus (GPa) = 20.43500 25.01244 22.72372
#
# Velocity S-wave (km/s) = 3.35092 3.70727 3.53359
# Velocity P-wave (km/s) = 5.55593 6.14068 5.85560
#
# Compressibility (1/GPa) = 0.03456563
#
# Stress axis : x y z
#
# Youngs Moduli (GPa) = 56.74931 43.69366 81.23047
#
# Poissons Ratio (x) = 0.20073 0.13197
# Poissons Ratio (y) = 0.26070 0.23621
# Poissons Ratio (z) = 0.09220 0.12706
#
# Static dielectric constant tensor:
#      x y z
#    x 1.643760 0.000000 0.002800 
#    y 0.000000 1.632340 0.000000 
#    z 0.002800 0.000000 1.692320 
# 
# From -- ./inp_files/239833.got.cif
#   From: 2010.05.17/outbox.cif.g08.bks.cpg/sg15_120_cif.got.tgz:239833.got - 2010.06.03 18:47:42.
