data_PCOD9258012
_publ_section_title
;
Structure prediction by ZEFSAII (Michael W. Deem and Ramdas Pophale) SiO2 
 PCOD9258012
Probable space group: C 2/C
;
_chemical_formula_sum "Si O2"
_cell_formula_units_Z 64
_cell_length_a 22.502257
_cell_length_b 10.631758
_cell_length_c 26.809349
_cell_angle_alpha 90.000000
_cell_angle_beta 154.210044
_cell_angle_gamma 90.000000
_cell_volume 2790.485881
_symmetry_space_group_name_H-M "C 2/C"
_symmetry_group_IT_number 15
_symmetry_cell_setting 'monoclinic'
loop_
_space_group_symop_operation_xyz
x,y,z
-x,y,1/2-z
-x,-y,-z
x,-y,1/2+z
1/2+x,1/2+y,z
1/2-x,1/2+y,1/2-z
1/2-x,1/2-y,-z
1/2+x,1/2-y,1/2+z
loop_
_atom_site_type_symbol
_atom_site_label
_atom_site_fract_x
_atom_site_fract_y
_atom_site_fract_z
Si Si1 0.974162 0.597866 0.023681
Si Si2 0.486128 0.461170 0.573702
Si Si3 0.190976 0.877341 0.355844
Si Si4 0.316489 0.956597 0.038382
Si Si5 0.516561 0.398979 0.819694
Si Si6 0.636385 0.346766 0.118820
Si Si7 0.298755 0.086332 0.124773
Si Si8 0.418294 0.070954 0.806287
O O1 0.811548 0.618400 0.905919
O O2 0.557962 0.775749 0.577850
O O3 0.000000 0.500000 0.000000
O O4 0.033071 0.529197 0.116578
O O5 0.529908 0.386292 0.656732
O O6 0.421563 0.376545 0.480603
O O7 0.600054 0.541231 0.630163
O O8 0.365784 0.559927 0.499341
O O9 0.263205 0.940475 0.458375
O O10 0.162789 0.731641 0.342636
O O11 0.060555 0.965023 0.246480
O O12 0.358315 0.028817 0.119440
O O13 0.440491 0.876684 0.109791
O O14 0.178536 0.886013 0.947242
O O15 0.500000 0.340100 0.750000
O O16 0.799726 0.341017 0.237807
O O17 0.351078 0.008507 0.211162
#
# Coordination Sequence:
#
# PCOD9258012 Si02
#       8
#     8   8   8   8   8   8   8   8
#     4  11  25  42  60  92 131 169 217 276 318 393
#     4   9  19  36  60  89 125 175 221 266 326 395
#     4  10  20  33  54  88 131 172 210 259 340 382
#     4   9  19  34  51  87 130 162 211 264 321 402
#     4   9  19  33  57  90 130 176 212 267 328 385
#     4  10  21  42  62  88 130 174 218 265 331 387
#     4  10  18  32  57  88 123 171 210 267 326 393
#     4  10  23  36  58  92 125 166 211 262 328 388
#
# _framework density 22.935072999999999
#
# number of rings (size 3 to 8) (size 9 to 14) (size 15 to 20)
#    0.000    2.250    1.250    0.750    3.500    4.000 
#    0.000    0.000    0.000    0.000    0.000   86.625 
#    0.000    0.000    0.000    0.000    0.000    0.000 
#
# Total GULP energy -178437.314870 kJ/mol
# GULP energy per Si atom -5576.166090 kJ/mol
# Density = 2.288287 g / cm^3
# Si number density = 22.935073 Si / 1000 Ang^3
#
#
#
# Elastic Constant Matrix: (Units=GPa)
#
#
# Indices 1 2 3 4 5 6 
#
# 1 149.2231 41.0367 49.4706 -0.0004 8.7156 -0.0001
# 2 41.0367 64.0297 27.6333 -0.0011 11.1492 -0.0002
# 3 49.4706 27.6333 90.0215 -0.0027 17.0243 -0.0003
# 4 -0.0004 -0.0011 -0.0027 -3.1020 -0.0009 27.3506
# 5 8.7156 11.1492 17.0243 -0.0009 54.0451 -0.0001
# 6 -0.0001 -0.0002 -0.0003 27.3506 -0.0001 17.0035
#
#
#
# Elastic Compliance Matrix: (Units=1/GPa)
#
#
# Indices 1 2 3 4 5 6 
#
# 1 0.009109 -0.004305 -0.003801 0.000000 0.000616 0.000000
# 2 -0.004305 0.020264 -0.003398 0.000000 -0.002416 0.000000
# 3 -0.003801 -0.003398 0.014878 -0.000001 -0.003373 0.000001
# 4 0.000000 0.000000 -0.000001 -0.021233 0.000000 0.034154
# 5 0.000616 -0.002416 -0.003373 0.000000 0.019964 0.000000
# 6 0.000000 0.000000 0.000001 0.034154 0.000000 0.003874
#
#
# Mechanical properties :
#
#
# Convention : Reuss Voigt Hill
#
# Bulk Modulus (GPa) = 47.07246 59.95063 53.51154
# Shear Modulus (GPa) = 64.98137 25.93156 45.45646
#
# Velocity S-wave (km/s) = 5.32863 3.36616 4.45675
# Velocity P-wave (km/s) = 7.64381 6.42683 7.06158
#
# Compressibility (1/GPa) = 0.02124384
#
# Stress axis : x y z
#
# Youngs Moduli (GPa) = 109.77626 49.34892 67.21309
#
# Poissons Ratio (x) = 0.21246 0.25548
# Poissons Ratio (y) = 0.47260 0.22836
# Poissons Ratio (z) = 0.41727 0.16766
#
# Static dielectric constant tensor:
#      x y z
#    x 1.931920 0.000000 0.054040 
#    y 0.000000 1.850110 0.000000 
#    z 0.054040 0.000000 1.878060 
# 
# From -- ./inp_files/113233.got.cif
#   From: 2010.05.17/outbox.cif.g08.bks.cpg/sg15_57_cif.got.tgz:113233.got - 2010.06.03 18:47:42.
