data_PCOD9258236
_publ_section_title
;
Structure prediction by ZEFSAII (Michael W. Deem and Ramdas Pophale) SiO2 
 PCOD9258236
Probable space group: C 2/C
;
_chemical_formula_sum "Si O2"
_cell_formula_units_Z 40
_cell_length_a 13.587303
_cell_length_b 23.757263
_cell_length_c 10.642076
_cell_angle_alpha 90.000000
_cell_angle_beta 146.583452
_cell_angle_gamma 90.000000
_cell_volume 1891.857051
_symmetry_space_group_name_H-M "C 2/C"
_symmetry_group_IT_number 15
_symmetry_cell_setting 'monoclinic'
loop_
_space_group_symop_operation_xyz
x,y,z
-x,y,1/2-z
-x,-y,-z
x,-y,1/2+z
1/2+x,1/2+y,z
1/2-x,1/2+y,1/2-z
1/2-x,1/2-y,-z
1/2+x,1/2-y,1/2+z
loop_
_atom_site_type_symbol
_atom_site_label
_atom_site_fract_x
_atom_site_fract_y
_atom_site_fract_z
Si Si1 0.173616 0.693348 0.353915
Si Si2 0.500000 0.960652 0.750000
Si Si3 0.240312 0.960395 0.857799
Si Si4 0.370313 0.431422 0.383636
Si Si5 0.004348 0.618185 0.502710
Si Si6 0.500000 0.389685 0.250000
O O1 0.250000 0.750000 0.500000
O O2 0.085709 0.678824 0.124017
O O3 0.332479 0.649282 0.537166
O O4 0.000000 0.681685 0.250000
O O5 0.509530 0.921799 0.637112
O O6 0.328471 0.001571 0.559545
O O7 0.383513 0.913309 0.975137
O O8 0.043386 0.934486 0.655982
O O9 0.217865 0.006860 0.722339
O O10 0.443983 0.420080 0.319690
O O11 0.216611 0.386532 0.254877
#
# Coordination Sequence:
#
# PCOD9258236 Si02
#       6
#     8   4   8   8   8   4
#     4  12  22  34  52  76 105 142 180 221 279 326
#     4  10  18  33  52  74 110 146 181 216 256 316
#     4  10  21  33  50  76 104 148 190 215 257 323
#     4  10  20  32  50  76 102 149 187 210 266 323
#     4  11  20  37  51  72 111 149 178 229 266 315
#     4  12  20  33  54  72 112 146 175 224 266 320
#
# _framework density 21.143246000000001
#
# number of rings (size 3 to 8) (size 9 to 14) (size 15 to 20)
#    0.000    1.200    6.000    3.600    0.000    0.000 
#    0.000    0.000    0.000    0.000    0.000    0.000 
#    0.000    6.400    0.000    0.000    0.000    0.000 
#
# Total GULP energy -111411.961756 kJ/mol
# GULP energy per Si atom -5570.598088 kJ/mol
# Density = 2.109512 g / cm^3
# Si number density = 21.143246 Si / 1000 Ang^3
#
#
#
# Elastic Constant Matrix: (Units=GPa)
#
#
# Indices 1 2 3 4 5 6 
#
# 1 56.5244 20.2812 21.1479 0.0000 10.1924 0.0000
# 2 20.2812 80.3832 35.9595 0.0000 10.5549 0.0000
# 3 21.1479 35.9595 153.1739 0.0000 38.4821 0.0000
# 4 0.0000 0.0000 0.0000 11.4194 0.0000 -16.7920
# 5 10.1924 10.5549 38.4821 0.0000 31.3260 0.0000
# 6 0.0000 0.0000 0.0000 -16.7920 0.0000 11.4715
#
#
#
# Elastic Compliance Matrix: (Units=1/GPa)
#
#
# Indices 1 2 3 4 5 6 
#
# 1 0.020249 -0.004221 -0.000733 0.000000 -0.004266 0.000000
# 2 -0.004221 0.014801 -0.002870 0.000000 -0.000088 0.000000
# 3 -0.000733 -0.002870 0.010126 0.000000 -0.011233 0.000000
# 4 0.000000 0.000000 0.000000 -0.075984 0.000000 -0.111225
# 5 -0.004266 -0.000088 -0.011233 0.000000 0.047139 0.000000
# 6 0.000000 0.000000 0.000000 -0.111225 0.000000 -0.075638
#
#
# Mechanical properties :
#
#
# Convention : Reuss Voigt Hill
#
# Bulk Modulus (GPa) = 33.86602 49.42875 41.64739
# Shear Modulus (GPa) = -147.85595 25.02290 -61.41653
#
# Velocity S-wave (km/s) = -8.37152 3.44393 -5.39545
# Velocity P-wave (km/s) = 8.79722 6.26442 4.36738
#
# Compressibility (1/GPa) = 0.02952812
#
# Stress axis : x y z
#
# Youngs Moduli (GPa) = 49.38404 67.56419 98.75960
#
# Poissons Ratio (x) = 0.28519 0.07241
# Poissons Ratio (y) = 0.20845 0.28341
# Poissons Ratio (z) = 0.03621 0.19389
#
# Static dielectric constant tensor:
#      x y z
#    x 1.798600 0.000000 0.014370 
#    y 0.000000 1.852110 0.000000 
#    z 0.014370 0.000000 1.927670 
# 
# From -- ./inp_files/100609.got.cif
#   From: 2010.05.17/outbox.cif.g08.bks.cpg/sg15_51_cif.got.tgz:100609.got - 2010.06.03 18:47:42.
