data_PCOD9258320
_publ_section_title
;
Structure prediction by ZEFSAII (Michael W. Deem and Ramdas Pophale) SiO2 
 PCOD9258320
Probable space group: C 2/C
;
_chemical_formula_sum "Si O2"
_cell_formula_units_Z 52
_cell_length_a 21.639661
_cell_length_b 32.009260
_cell_length_c 9.448420
_cell_angle_alpha 90.000000
_cell_angle_beta 24.695326
_cell_angle_gamma 90.000000
_cell_volume 2734.301459
_symmetry_space_group_name_H-M "C 2/C"
_symmetry_group_IT_number 15
_symmetry_cell_setting 'monoclinic'
loop_
_space_group_symop_operation_xyz
x,y,z
-x,y,1/2-z
-x,-y,-z
x,-y,1/2+z
1/2+x,1/2+y,z
1/2-x,1/2+y,1/2-z
1/2-x,1/2-y,-z
1/2+x,1/2-y,1/2+z
loop_
_atom_site_type_symbol
_atom_site_label
_atom_site_fract_x
_atom_site_fract_y
_atom_site_fract_z
Si Si1 0.198895 0.090165 0.819658
Si Si2 0.500000 0.124309 0.250000
Si Si3 0.746442 0.333401 0.802261
Si Si4 0.500000 0.599645 0.750000
Si Si5 0.980439 0.951146 0.565819
Si Si6 0.528161 0.180188 0.920136
Si Si7 0.588772 0.269511 0.304415
Si Si8 0.000000 0.829491 0.750000
O O1 0.371150 0.095448 0.459180
O O2 0.144379 0.060820 0.060604
O O3 0.125063 0.070535 0.834560
O O4 0.134109 0.137117 0.980727
O O5 0.450781 0.153283 0.483150
O O6 0.838494 0.325549 0.467874
O O7 0.874584 0.333435 0.658253
O O8 0.640728 0.373154 0.006952
O O9 0.629592 0.297234 0.084775
O O10 0.551801 0.571354 0.513122
O O11 0.000000 0.000000 0.500000
O O12 0.514185 0.229015 0.990043
O O13 0.530298 0.299970 0.551470
O O14 0.750000 0.250000 0.000000
#
# Coordination Sequence:
#
# PCOD9258320 Si02
#       8
#     8   4   8   4   8   8   8   4
#     4  10  22  39  60  86 116 153 187 230 286 354
#     4  12  22  39  58  84 120 158 194 230 286 353
#     4  10  21  37  55  81 111 147 195 242 286 331
#     4  12  20  34  60  86 108 138 182 236 280 336
#     4  10  21  40  64  89 112 141 182 230 286 348
#     4  10  22  37  54  78 114 157 195 237 285 330
#     4  10  18  33  54  78 111 154 200 249 288 327
#     4  10  18  35  58  80 112 158 202 242 292 345
#
# _framework density 19.017654
#
# number of rings (size 3 to 8) (size 9 to 14) (size 15 to 20)
#    0.000    1.846    0.000    8.308    0.000    0.615 
#    0.000    3.077    0.000    3.692    0.000    0.000 
#    0.000    0.000    0.000    0.000    0.000    0.000 
#
# Total GULP energy -145070.130259 kJ/mol
# GULP energy per Si atom -5579.620395 kJ/mol
# Density = 1.897437 g / cm^3
# Si number density = 19.017654 Si / 1000 Ang^3
#
#
#
# Elastic Constant Matrix: (Units=GPa)
#
#
# Indices 1 2 3 4 5 6 
#
# 1 70.0983 36.2268 25.7111 0.0000 18.6423 0.0000
# 2 36.2268 124.9315 29.5677 0.0000 1.5147 0.0000
# 3 25.7111 29.5677 60.8917 0.0002 -1.5762 0.0003
# 4 0.0000 0.0000 0.0002 61.1423 0.0000 61.4662
# 5 18.6423 1.5147 -1.5762 0.0000 24.9783 -0.0001
# 6 0.0000 0.0000 0.0003 61.4662 -0.0001 64.5479
#
#
#
# Elastic Compliance Matrix: (Units=1/GPa)
#
#
# Indices 1 2 3 4 5 6 
#
# 1 0.025052 -0.004989 -0.008646 0.000000 -0.018940 0.000000
# 2 -0.004989 0.010054 -0.002700 0.000000 0.002943 0.000000
# 3 -0.008646 -0.002700 0.021591 0.000000 0.007979 0.000000
# 4 0.000000 0.000000 0.000000 0.383052 -0.000001 -0.364764
# 5 -0.018940 0.002943 0.007979 -0.000001 0.054496 0.000001
# 6 0.000000 0.000000 0.000000 -0.364764 0.000001 0.362841
#
#
# Mechanical properties :
#
#
# Convention : Reuss Voigt Hill
#
# Bulk Modulus (GPa) = 41.61678 48.77030 45.19354
# Shear Modulus (GPa) = 5.56940 41.09476 23.33208
#
# Velocity S-wave (km/s) = 1.71315 4.65356 3.50646
# Velocity P-wave (km/s) = 5.08369 7.38746 6.34108
#
# Compressibility (1/GPa) = 0.02402877
#
# Stress axis : x y z
#
# Youngs Moduli (GPa) = 39.91683 99.46151 46.31624
#
# Poissons Ratio (x) = 0.49617 0.40045
# Poissons Ratio (y) = 0.19913 0.12503
# Poissons Ratio (z) = 0.34512 0.26850
#
# Static dielectric constant tensor:
#      x y z
#    x 1.700050 0.000000 0.007860 
#    y 0.000000 1.751550 0.000000 
#    z 0.007860 0.000000 1.623530 
# 
# From -- ./inp_files/59316.got.cif
#   From: 2010.05.17/outbox.cif.g08.bks.cpg/sg15_30_cif.got.tgz:59316.got - 2010.06.03 18:47:42.
