data_PCOD9258389
_publ_section_title
;
Structure prediction by ZEFSAII (Michael W. Deem and Ramdas Pophale) SiO2 
 PCOD9258389
Probable space group: C 2/C
;
_chemical_formula_sum "Si O2"
_cell_formula_units_Z 48
_cell_length_a 7.392213
_cell_length_b 20.961570
_cell_length_c 16.682278
_cell_angle_alpha 90.000000
_cell_angle_beta 121.241936
_cell_angle_gamma 90.000000
_cell_volume 2210.100723
_symmetry_space_group_name_H-M "C 2/C"
_symmetry_group_IT_number 15
_symmetry_cell_setting 'monoclinic'
loop_
_space_group_symop_operation_xyz
x,y,z
-x,y,1/2-z
-x,-y,-z
x,-y,1/2+z
1/2+x,1/2+y,z
1/2-x,1/2+y,1/2-z
1/2-x,1/2-y,-z
1/2+x,1/2-y,1/2+z
loop_
_atom_site_type_symbol
_atom_site_label
_atom_site_fract_x
_atom_site_fract_y
_atom_site_fract_z
Si Si1 0.438021 0.389723 0.151144
Si Si2 0.338122 0.875582 0.789368
Si Si3 0.130422 0.507785 0.611952
Si Si4 0.918134 0.912715 0.903606
Si Si5 0.332306 0.820863 0.532080
Si Si6 0.754733 0.555691 0.603437
O O1 0.500000 0.360195 0.250000
O O2 0.354695 0.461470 0.145852
O O3 0.640245 0.397791 0.139894
O O4 0.233005 0.356271 0.064932
O O5 0.500000 0.874912 0.750000
O O6 0.114783 0.881367 0.691069
O O7 0.433360 0.824446 0.874622
O O8 0.356340 0.940558 0.842390
O O9 0.003048 0.553675 0.644336
O O10 0.000000 0.500000 0.500000
O O11 0.808926 0.862454 0.938816
O O12 0.804866 0.982141 0.887220
O O13 0.147026 0.926412 0.993279
O O14 0.250000 0.750000 0.500000
#
# Coordination Sequence:
#
# PCOD9258389 Si02
#       6
#     8   8   8   8   8   8
#     4  11  24  35  56  92 117 150 195 236 298 359
#     4  10  18  33  55  84 112 154 193 225 295 352
#     4  12  20  34  58  85 123 152 179 236 300 354
#     4   9  17  32  56  78 108 151 188 227 289 348
#     4  10  20  36  54  79 117 153 200 246 276 336
#     4  10  19  37  55  88 126 145 183 242 299 355
#
# _framework density 21.718465999999999
#
# number of rings (size 3 to 8) (size 9 to 14) (size 15 to 20)
#    0.000    1.667    5.000    3.000    0.000    2.000 
#    0.000    0.000    0.000    4.000    0.000    4.667 
#    0.000    0.000    0.000    0.000    0.000    0.000 
#
# Total GULP energy -133754.356848 kJ/mol
# GULP energy per Si atom -5573.098202 kJ/mol
# Density = 2.166903 g / cm^3
# Si number density = 21.718466 Si / 1000 Ang^3
#
#
#
# Elastic Constant Matrix: (Units=GPa)
#
#
# Indices 1 2 3 4 5 6 
#
# 1 57.4342 -6.1626 5.9235 0.0000 -8.4498 0.0000
# 2 -6.1626 63.1089 30.0686 0.0000 4.3901 0.0000
# 3 5.9235 30.0686 177.1967 0.0000 4.0771 0.0000
# 4 0.0000 0.0000 0.0000 -4.5440 0.0000 9.3005
# 5 -8.4498 4.3901 4.0771 0.0000 22.9943 0.0000
# 6 0.0000 0.0000 0.0000 9.3005 0.0000 12.7538
#
#
#
# Elastic Compliance Matrix: (Units=1/GPa)
#
#
# Indices 1 2 3 4 5 6 
#
# 1 0.018714 0.001885 -0.001100 0.000000 0.006712 0.000000
# 2 0.001885 0.017609 -0.003002 0.000000 -0.002137 0.000000
# 3 -0.001100 -0.003002 0.006211 0.000000 -0.000932 0.000000
# 4 0.000000 0.000000 0.000000 -0.088290 0.000000 0.064385
# 5 0.006712 -0.002137 -0.000932 0.000000 0.046529 0.000000
# 6 0.000000 0.000000 0.000000 0.064385 0.000000 0.031457
#
#
# Mechanical properties :
#
#
# Convention : Reuss Voigt Hill
#
# Bulk Modulus (GPa) = 26.24689 39.71098 32.97894
# Shear Modulus (GPa) = 101.28973 24.10150 62.69561
#
# Velocity S-wave (km/s) = 6.83658 3.33487 5.37867
# Velocity P-wave (km/s) = 8.62727 5.75783 7.33425
#
# Compressibility (1/GPa) = 0.03809975
#
# Stress axis : x y z
#
# Youngs Moduli (GPa) = 53.43482 56.79060 161.00351
#
# Poissons Ratio (x) = -0.10702 0.17708
# Poissons Ratio (y) = -0.10070 0.48331
# Poissons Ratio (z) = 0.05877 0.17048
#
# Static dielectric constant tensor:
#      x y z
#    x 1.976040 0.000000 0.053490 
#    y 0.000000 1.782480 0.000000 
#    z 0.053490 0.000000 1.943910 
# 
# From -- ./inp_files/123829.got.cif
#   From: 2010.05.17/outbox.cif.g08.bks.cpg/sg15_62_cif.got.tgz:123829.got - 2010.06.03 18:47:42.
