data_PCOD9258613
_publ_section_title
;
Structure prediction by ZEFSAII (Michael W. Deem and Ramdas Pophale) SiO2 
 PCOD9258613
Probable space group: C 2/C
;
_chemical_formula_sum "Si O2"
_cell_formula_units_Z 48
_cell_length_a 29.865959
_cell_length_b 12.345027
_cell_length_c 15.580694
_cell_angle_alpha 90.000000
_cell_angle_beta 28.581304
_cell_angle_gamma 90.000000
_cell_volume 2748.218926
_symmetry_space_group_name_H-M "C 2/C"
_symmetry_group_IT_number 15
_symmetry_cell_setting 'monoclinic'
loop_
_space_group_symop_operation_xyz
x,y,z
-x,y,1/2-z
-x,-y,-z
x,-y,1/2+z
1/2+x,1/2+y,z
1/2-x,1/2+y,1/2-z
1/2-x,1/2-y,-z
1/2+x,1/2-y,1/2+z
loop_
_atom_site_type_symbol
_atom_site_label
_atom_site_fract_x
_atom_site_fract_y
_atom_site_fract_z
Si Si1 0.592145 0.527589 0.141806
Si Si2 0.107773 0.754704 0.537184
Si Si3 0.953800 0.884662 0.597051
Si Si4 0.246757 0.652274 0.436484
Si Si5 0.130035 0.752444 0.298706
Si Si6 0.245746 0.078238 0.496787
O O1 0.500000 0.480509 0.250000
O O2 0.632290 0.617766 0.010071
O O3 0.562443 0.602772 0.273375
O O4 0.666562 0.445044 0.056758
O O5 0.175139 0.684257 0.483514
O O6 0.125894 0.732226 0.407127
O O7 0.000000 0.738590 0.750000
O O8 0.853046 0.866123 0.725361
O O9 0.025594 0.791345 0.451808
O O10 0.000000 0.000000 0.500000
O O11 0.250000 0.750000 0.500000
O O12 0.222914 0.538979 0.522616
O O13 0.196266 0.851861 0.155450
O O14 0.170686 0.648806 0.181972
#
# Coordination Sequence:
#
# PCOD9258613 Si02
#       6
#     8   8   8   8   8   8
#     4  10  18  33  61  88 112 150 207 238 284 350
#     4  11  21  36  62  88 118 153 204 250 288 354
#     4  11  19  35  62  87 112 157 197 241 290 353
#     4  11  20  38  62  87 116 154 209 238 291 366
#     4  11  21  39  57  90 121 155 194 247 311 339
#     4  10  23  37  60  84 126 162 188 248 310 350
#
# _framework density 17.465857
#
# number of rings (size 3 to 8) (size 9 to 14) (size 15 to 20)
#    0.000    1.333   10.000    0.000    0.000    2.667 
#    0.000    3.333    0.000    0.000    0.000    0.000 
#    0.000    0.000    0.000    0.000    0.000    0.000 
#
# Total GULP energy -133733.002756 kJ/mol
# GULP energy per Si atom -5572.208448 kJ/mol
# Density = 1.742610 g / cm^3
# Si number density = 17.465857 Si / 1000 Ang^3
#
#
#
# Elastic Constant Matrix: (Units=GPa)
#
#
# Indices 1 2 3 4 5 6 
#
# 1 100.7744 39.8505 45.0311 0.0000 -21.8393 0.0000
# 2 39.8505 116.1218 50.4677 0.0000 -12.3078 0.0000
# 3 45.0311 50.4677 107.1785 0.0000 -8.3141 0.0000
# 4 0.0000 0.0000 0.0000 37.6912 0.0000 -3.1132
# 5 -21.8393 -12.3078 -8.3141 0.0000 31.2795 0.0000
# 6 0.0000 0.0000 0.0000 -3.1132 0.0000 26.7349
#
#
#
# Elastic Compliance Matrix: (Units=1/GPa)
#
#
# Indices 1 2 3 4 5 6 
#
# 1 0.014533 -0.002198 -0.004443 0.000000 0.008101 0.000000
# 2 -0.002198 0.011436 -0.004321 0.000000 0.001817 0.000000
# 3 -0.004443 -0.004321 0.013130 0.000000 -0.001312 0.000000
# 4 0.000000 0.000000 0.000000 0.026789 0.000000 0.003120
# 5 0.008101 0.001817 -0.001312 0.000000 0.037992 0.000000
# 6 0.000000 0.000000 0.000000 0.003120 0.000000 0.037768
#
#
# Mechanical properties :
#
#
# Convention : Reuss Voigt Hill
#
# Bulk Modulus (GPa) = 58.21947 66.08590 62.15269
# Shear Modulus (GPa) = 29.53404 31.72283 30.62844
#
# Velocity S-wave (km/s) = 4.11659 4.26640 4.19216
# Velocity P-wave (km/s) = 7.48336 7.88600 7.68732
#
# Compressibility (1/GPa) = 0.01717639
#
# Stress axis : x y z
#
# Youngs Moduli (GPa) = 68.80772 87.44074 76.16409
#
# Poissons Ratio (x) = 0.19219 0.33838
# Poissons Ratio (y) = 0.15124 0.32908
# Poissons Ratio (z) = 0.30569 0.37780
#
# Static dielectric constant tensor:
#      x y z
#    x 1.632060 0.000000 0.014570 
#    y 0.000000 1.608470 0.000000 
#    z 0.014570 0.000000 1.639650 
# 
# From -- ./inp_files/181699.got.cif
#   From: 2010.05.17/outbox.cif.g08.bks.cpg/sg15_91_cif.got.tgz:181699.got - 2010.06.03 18:47:42.
