data_PCOD9258080
_publ_section_title
;
Structure prediction by ZEFSAII (Michael W. Deem and Ramdas Pophale) SiO2 
 PCOD9258080
Probable space group: C 2/C
;
_chemical_formula_sum "Si O2"
_cell_formula_units_Z 60
_cell_length_a 16.064415
_cell_length_b 10.964902
_cell_length_c 15.331271
_cell_angle_alpha 90.000000
_cell_angle_beta 96.790782
_cell_angle_gamma 90.000000
_cell_volume 2681.577289
_symmetry_space_group_name_H-M "C 2/C"
_symmetry_group_IT_number 15
_symmetry_cell_setting 'monoclinic'
loop_
_space_group_symop_operation_xyz
x,y,z
-x,y,1/2-z
-x,-y,-z
x,-y,1/2+z
1/2+x,1/2+y,z
1/2-x,1/2+y,1/2-z
1/2-x,1/2-y,-z
1/2+x,1/2-y,1/2+z
loop_
_atom_site_type_symbol
_atom_site_label
_atom_site_fract_x
_atom_site_fract_y
_atom_site_fract_z
Si Si1 0.540151 0.198924 0.873058
Si Si2 0.940949 0.482142 0.906834
Si Si3 0.245967 0.565914 0.064690
Si Si4 0.329278 0.343144 0.999554
Si Si5 0.779137 0.674490 0.632901
Si Si6 0.500000 0.416305 0.750000
Si Si7 0.132788 0.980041 0.155263
Si Si8 0.518339 0.729359 0.562866
O O1 0.624030 0.151268 0.838685
O O2 0.513776 0.327231 0.832124
O O3 0.468948 0.098060 0.855142
O O4 0.559668 0.229699 0.976252
O O5 0.844271 0.486447 0.920141
O O6 0.962585 0.347014 0.874579
O O7 0.000000 0.500000 0.000000
O O8 0.266577 0.680152 0.128753
O O9 0.310662 0.456103 0.061985
O O10 0.239851 0.622151 0.966308
O O11 0.340821 0.406662 0.904687
O O12 0.250000 0.250000 0.000000
O O13 0.419289 0.285529 0.034619
O O14 0.714136 0.601967 0.683649
O O15 0.416221 0.486581 0.763451
O O16 0.065237 0.892914 0.097310
#
# Coordination Sequence:
#
# PCOD9258080 Si02
#       8
#     8   8   8   8   8   4   8   8
#     4  11  22  40  65  91 126 165 203 260 322 375
#     4  10  18  34  61  94 123 149 195 254 319 365
#     4  10  18  32  58  99 125 146 197 268 313 356
#     4  11  22  32  60 103 131 151 204 269 319 356
#     4  10  19  37  62  88 118 159 204 256 310 360
#     4  12  28  44  60  84 132 180 206 244 330 402
#     4  11  24  42  63  90 128 168 213 261 312 386
#     4  11  20  39  67  98 119 164 213 268 310 365
#
# _framework density 22.374891999999999
#
# number of rings (size 3 to 8) (size 9 to 14) (size 15 to 20)
#    0.000    1.333    5.333    3.600    3.733    0.000 
#    0.000    3.333    0.000    0.000    0.000    0.000 
#    0.000    0.000    0.000    0.000    0.000    0.000 
#
# Total GULP energy -167553.037158 kJ/mol
# GULP energy per Si atom -5585.101239 kJ/mol
# Density = 2.232397 g / cm^3
# Si number density = 22.374892 Si / 1000 Ang^3
#
#
#
# Elastic Constant Matrix: (Units=GPa)
#
#
# Indices 1 2 3 4 5 6 
#
# 1 133.9903 41.5533 23.1570 0.0000 -46.8405 0.0000
# 2 41.5533 105.6363 29.9267 0.0000 -28.0367 0.0000
# 3 23.1570 29.9267 32.0373 0.0000 -14.6687 0.0000
# 4 0.0000 0.0000 0.0000 46.5416 0.0000 -6.4420
# 5 -46.8405 -28.0367 -14.6687 0.0000 32.2422 0.0000
# 6 0.0000 0.0000 0.0000 -6.4420 0.0000 56.9558
#
#
#
# Elastic Compliance Matrix: (Units=1/GPa)
#
#
# Indices 1 2 3 4 5 6 
#
# 1 0.015196 0.000093 -0.001170 0.000000 0.021626 0.000000
# 2 0.000093 0.014362 -0.009730 0.000000 0.008198 0.000000
# 3 -0.001170 -0.009730 0.046099 0.000000 0.010813 0.000000
# 4 0.000000 0.000000 0.000000 0.021828 0.000000 0.002469
# 5 0.021626 0.008198 0.010813 0.000000 0.074480 0.000000
# 6 0.000000 0.000000 0.000000 0.002469 0.000000 0.017837
#
#
# Mechanical properties :
#
#
# Convention : Reuss Voigt Hill
#
# Bulk Modulus (GPa) = 18.50321 51.21531 34.85926
# Shear Modulus (GPa) = 21.79320 38.94973 30.37147
#
# Velocity S-wave (km/s) = 3.12429 4.17679 3.68828
# Velocity P-wave (km/s) = 4.61546 6.79707 5.80959
#
# Compressibility (1/GPa) = 0.05404467
#
# Stress axis : x y z
#
# Youngs Moduli (GPa) = 65.80471 69.62875 21.69257
#
# Poissons Ratio (x) = -0.00650 0.02537
# Poissons Ratio (y) = -0.00614 0.21107
# Poissons Ratio (z) = 0.07697 0.67748
#
# Static dielectric constant tensor:
#      x y z
#    x 1.773310 0.000000 0.080390 
#    y 0.000000 1.882800 0.000000 
#    z 0.080390 0.000000 1.671820 
# 
# From -- ./inp_files/204032.got.cif
#   From: 2010.05.17/outbox.cif.g08.bks.cpg/sg15_103_cif.got.tgz:204032.got - 2010.06.03 18:47:42.
