data_PCOD9258252
_publ_section_title
;
Structure prediction by ZEFSAII (Michael W. Deem and Ramdas Pophale) SiO2 
 PCOD9258252
Probable space group: C 2/C
;
_chemical_formula_sum "Si O2"
_cell_formula_units_Z 44
_cell_length_a 17.149360
_cell_length_b 18.002988
_cell_length_c 6.877799
_cell_angle_alpha 90.000000
_cell_angle_beta 127.586644
_cell_angle_gamma 90.000000
_cell_volume 1682.689217
_symmetry_space_group_name_H-M "C 2/C"
_symmetry_group_IT_number 15
_symmetry_cell_setting 'monoclinic'
loop_
_space_group_symop_operation_xyz
x,y,z
-x,y,1/2-z
-x,-y,-z
x,-y,1/2+z
1/2+x,1/2+y,z
1/2-x,1/2+y,1/2-z
1/2-x,1/2-y,-z
1/2+x,1/2-y,1/2+z
loop_
_atom_site_type_symbol
_atom_site_label
_atom_site_fract_x
_atom_site_fract_y
_atom_site_fract_z
Si Si1 0.838507 0.605159 0.853551
Si Si2 0.100210 0.351035 0.479308
Si Si3 0.000000 0.500000 0.500000
Si Si4 0.424520 0.398221 0.927970
Si Si5 0.784436 0.233949 0.274784
Si Si6 0.123056 0.068076 0.585369
O O1 0.845443 0.610552 0.625579
O O2 0.918225 0.542386 0.013428
O O3 0.841096 0.690967 0.917352
O O4 0.736902 0.579426 0.794782
O O5 0.054650 0.418420 0.533379
O O6 0.179390 0.295817 0.695311
O O7 0.000000 0.310748 0.250000
O O8 0.360828 0.332129 0.912558
O O9 0.396524 0.398630 0.656301
O O10 0.543046 0.396012 0.107150
O O11 0.396298 0.480379 0.955249
O O12 0.750000 0.250000 0.000000
#
# Coordination Sequence:
#
# PCOD9258252 Si02
#       6
#     8   8   4   8   8   8
#     4  10  20  32  53  82 107 147 185 243 284 340
#     4   9  18  31  49  78 107 145 185 231 284 341
#     4  10  20  34  50  78 114 150 188 228 294 350
#     4  10  20  35  55  86 110 150 186 236 288 343
#     4  10  18  33  52  85 116 139 190 245 294 329
#     4  10  20  34  56  82 112 147 189 231 283 347
#
# _framework density 26.148620000000001
#
# number of rings (size 3 to 8) (size 9 to 14) (size 15 to 20)
#    0.000    2.182    3.636    1.091    0.000    4.364 
#    3.273    0.000    0.000    1.091   28.364    0.000 
#    0.000    0.000    0.000    0.000    0.000    0.000 
#
# Total GULP energy -122490.907433 kJ/mol
# GULP energy per Si atom -5567.768520 kJ/mol
# Density = 2.608910 g / cm^3
# Si number density = 26.148620 Si / 1000 Ang^3
#
#
#
# Elastic Constant Matrix: (Units=GPa)
#
#
# Indices 1 2 3 4 5 6 
#
# 1 129.5780 50.9495 37.2924 0.0000 54.0283 0.0000
# 2 50.9495 157.7873 57.1464 0.0000 56.4915 0.0000
# 3 37.2924 57.1464 64.2942 0.0000 39.6544 0.0000
# 4 0.0000 0.0000 0.0000 30.5822 0.0000 13.2423
# 5 54.0283 56.4915 39.6544 0.0000 74.5761 0.0000
# 6 0.0000 0.0000 0.0000 13.2423 0.0000 49.1903
#
#
#
# Elastic Compliance Matrix: (Units=1/GPa)
#
#
# Indices 1 2 3 4 5 6 
#
# 1 0.011297 -0.000536 -0.001903 0.000000 -0.006767 0.000000
# 2 -0.000536 0.010231 -0.006312 0.000000 -0.004005 0.000000
# 3 -0.001903 -0.006312 0.027481 0.000000 -0.008452 0.000000
# 4 0.000000 0.000000 0.000000 0.037013 0.000000 -0.009964
# 5 -0.006767 -0.004005 -0.008452 0.000000 0.025839 0.000000
# 6 0.000000 0.000000 0.000000 -0.009964 0.000000 0.023012
#
#
# Mechanical properties :
#
#
# Convention : Reuss Voigt Hill
#
# Bulk Modulus (GPa) = 31.73957 71.38179 51.56068
# Shear Modulus (GPa) = 30.69791 44.62112 37.65952
#
# Velocity S-wave (km/s) = 3.43005 4.13539 3.79913
# Velocity P-wave (km/s) = 5.27745 7.08235 6.24545
#
# Compressibility (1/GPa) = 0.03150641
#
# Stress axis : x y z
#
# Youngs Moduli (GPa) = 88.51792 97.74426 36.38905
#
# Poissons Ratio (x) = 0.05240 0.06924
# Poissons Ratio (y) = 0.04746 0.22970
# Poissons Ratio (z) = 0.16843 0.61699
#
# Static dielectric constant tensor:
#      x y z
#    x 2.072780 0.000000 -0.065760 
#    y 0.000000 2.144010 0.000000 
#    z -0.065760 0.000000 2.276250 
# 
# From -- ./inp_files/106213.got.cif
#   From: 2010.05.17/outbox.cif.g08.bks.cpg/sg15_54_cif.got.tgz:106213.got - 2010.06.03 18:47:42.
