data_PCOD9258688
_publ_section_title
;
Structure prediction by ZEFSAII (Michael W. Deem and Ramdas Pophale) SiO2 
 PCOD9258688
Probable space group: C 2/C
;
_chemical_formula_sum "Si O2"
_cell_formula_units_Z 48
_cell_length_a 11.065607
_cell_length_b 16.492652
_cell_length_c 17.214882
_cell_angle_alpha 90.000000
_cell_angle_beta 120.816038
_cell_angle_gamma 90.000000
_cell_volume 2698.175438
_symmetry_space_group_name_H-M "C 2/C"
_symmetry_group_IT_number 15
_symmetry_cell_setting 'monoclinic'
loop_
_space_group_symop_operation_xyz
x,y,z
-x,y,1/2-z
-x,-y,-z
x,-y,1/2+z
1/2+x,1/2+y,z
1/2-x,1/2+y,1/2-z
1/2-x,1/2-y,-z
1/2+x,1/2-y,1/2+z
loop_
_atom_site_type_symbol
_atom_site_label
_atom_site_fract_x
_atom_site_fract_y
_atom_site_fract_z
Si Si1 0.834395 0.237550 0.380314
Si Si2 0.794804 0.419853 0.939759
Si Si3 0.304131 0.771616 0.826004
Si Si4 0.653063 0.682427 0.510439
Si Si5 0.070050 0.361977 0.850238
Si Si6 0.619241 0.909654 0.036640
O O1 0.802601 0.244563 0.278455
O O2 0.716891 0.177608 0.375026
O O3 0.818686 0.323931 0.417631
O O4 0.990611 0.204306 0.444935
O O5 0.766326 0.352582 0.863715
O O6 0.697761 0.399292 0.981391
O O7 0.790851 0.512318 0.909672
O O8 0.959784 0.409883 0.016981
O O9 0.456585 0.793653 0.839657
O O10 0.314921 0.696744 0.888613
O O11 0.750000 0.750000 0.500000
O O12 0.000000 0.400880 0.750000
O O13 0.096495 0.414014 0.935946
#
# Coordination Sequence:
#
# PCOD9258688 Si02
#       6
#     8   8   8   8   8   8
#     4  11  19  32  61  78 102 149 189 217 275 326
#     4   9  19  35  52  75 116 136 173 233 281 310
#     4   9  19  34  55  80 105 138 187 224 265 336
#     4  10  18  34  51  79 107 138 179 226 266 324
#     4   9  18  33  55  80 103 139 188 227 258 334
#     4  10  18  34  56  78 102 150 177 220 279 328
#
# _framework density 17.7898
#
# number of rings (size 3 to 8) (size 9 to 14) (size 15 to 20)
#    0.000    2.333    5.000    0.500    0.000    2.667 
#    0.000    7.500   11.000    0.000    0.000    0.000 
#    0.000    0.000    0.000    0.000    0.000    0.000 
#
# Total GULP energy -133632.337133 kJ/mol
# GULP energy per Si atom -5568.014047 kJ/mol
# Density = 1.774931 g / cm^3
# Si number density = 17.789800 Si / 1000 Ang^3
#
#
#
# Elastic Constant Matrix: (Units=GPa)
#
#
# Indices 1 2 3 4 5 6 
#
# 1 65.2941 19.0154 25.3165 0.0000 -9.2282 0.0000
# 2 19.0154 60.5207 31.9811 0.0000 3.7452 0.0000
# 3 25.3165 31.9811 93.8404 0.0000 -20.1173 0.0000
# 4 0.0000 0.0000 0.0000 7.7761 0.0000 -4.0144
# 5 -9.2282 3.7452 -20.1173 0.0000 20.0059 0.0000
# 6 0.0000 0.0000 0.0000 -4.0144 0.0000 19.9416
#
#
#
# Elastic Compliance Matrix: (Units=1/GPa)
#
#
# Indices 1 2 3 4 5 6 
#
# 1 0.018660 -0.005693 -0.001300 0.000000 0.008366 0.000000
# 2 -0.005693 0.025289 -0.011040 0.000000 -0.018462 0.000000
# 3 -0.001300 -0.011040 0.019230 0.000000 0.020804 0.000000
# 4 0.000000 0.000000 0.000000 0.143515 0.000000 0.028891
# 5 0.008366 -0.018462 0.020804 0.000000 0.078220 0.000000
# 6 0.000000 0.000000 0.000000 0.028891 0.000000 0.055962
#
#
# Mechanical properties :
#
#
# Convention : Reuss Voigt Hill
#
# Bulk Modulus (GPa) = 36.88686 41.36457 39.12571
# Shear Modulus (GPa) = 12.95405 19.10087 16.02746
#
# Velocity S-wave (km/s) = 2.70140 3.28029 3.00481
# Velocity P-wave (km/s) = 5.52358 6.13591 5.83778
#
# Compressibility (1/GPa) = 0.02710992
#
# Stress axis : x y z
#
# Youngs Moduli (GPa) = 53.59073 39.54334 52.00309
#
# Poissons Ratio (x) = 0.22514 0.06762
# Poissons Ratio (y) = 0.30511 0.57413
# Poissons Ratio (z) = 0.06969 0.43657
#
# Static dielectric constant tensor:
#      x y z
#    x 1.627570 0.000000 -0.031270 
#    y 0.000000 1.629490 0.000000 
#    z -0.031270 0.000000 1.627910 
# 
# From -- ./inp_files/199328.got.cif
#   From: 2010.05.17/outbox.cif.g08.bks.cpg/sg15_100_cif.got.tgz:199328.got - 2010.06.03 18:47:42.
