data_PCOD9258065
_publ_section_title
;
Structure prediction by ZEFSAII (Michael W. Deem and Ramdas Pophale) SiO2 
 PCOD9258065
Probable space group: C 2/C
;
_chemical_formula_sum "Si O2"
_cell_formula_units_Z 60
_cell_length_a 17.582388
_cell_length_b 18.265259
_cell_length_c 11.380388
_cell_angle_alpha 90.000000
_cell_angle_beta 49.068507
_cell_angle_gamma 90.000000
_cell_volume 2761.159406
_symmetry_space_group_name_H-M "C 2/C"
_symmetry_group_IT_number 15
_symmetry_cell_setting 'monoclinic'
loop_
_space_group_symop_operation_xyz
x,y,z
-x,y,1/2-z
-x,-y,-z
x,-y,1/2+z
1/2+x,1/2+y,z
1/2-x,1/2+y,1/2-z
1/2-x,1/2-y,-z
1/2+x,1/2-y,1/2+z
loop_
_atom_site_type_symbol
_atom_site_label
_atom_site_fract_x
_atom_site_fract_y
_atom_site_fract_z
Si Si1 0.500000 0.776382 0.250000
Si Si2 0.746481 0.720055 0.369725
Si Si3 0.680042 0.313356 0.625781
Si Si4 0.365883 0.139573 0.080191
Si Si5 0.600842 0.002827 0.072844
Si Si6 0.212001 0.046941 0.952150
Si Si7 0.272418 0.119954 0.652762
Si Si8 0.385283 0.398719 0.398421
O O1 0.425082 0.726352 0.249443
O O2 0.436812 0.822927 0.409580
O O3 0.750000 0.750000 0.500000
O O4 0.850141 0.680772 0.220588
O O5 0.723937 0.794145 0.320034
O O6 0.657461 0.661351 0.468961
O O7 0.750000 0.250000 0.500000
O O8 0.750673 0.348294 0.653191
O O9 0.662577 0.380422 0.555452
O O10 0.396510 0.054696 0.039207
O O11 0.500000 0.998178 0.250000
O O12 0.692369 0.975830 0.064310
O O13 0.627742 0.084781 0.005082
O O14 0.249926 0.070604 0.787252
O O15 0.137211 0.978794 0.027424
O O16 0.182753 0.108605 0.650069
O O17 0.500000 0.387805 0.250000
#
# Coordination Sequence:
#
# PCOD9258065 Si02
#       8
#     4   8   8   8   8   8   8   8
#     4  10  18  32  58  90 120 154 194 244 314 374
#     4  10  22  43  62  84 125 169 210 258 309 370
#     4   9  19  33  55  88 126 151 194 252 304 367
#     4  10  19  38  60  86 124 160 193 260 314 364
#     4  10  21  38  62  94 125 159 208 261 326 385
#     4  10  21  39  62  90 125 163 208 264 318 375
#     4  10  21  40  64  86 124 167 206 264 313 371
#     4  10  23  42  61  87 126 168 214 256 309 384
#
# _framework density 21.730003
#
# number of rings (size 3 to 8) (size 9 to 14) (size 15 to 20)
#    0.000    2.133    0.667    2.400    0.933    1.600 
#    7.200    0.000    0.000    0.000    0.000    0.000 
#    0.000    0.000    0.000    0.000    0.000    0.000 
#
# Total GULP energy -167376.652681 kJ/mol
# GULP energy per Si atom -5579.221756 kJ/mol
# Density = 2.168054 g / cm^3
# Si number density = 21.730003 Si / 1000 Ang^3
#
#
#
# Elastic Constant Matrix: (Units=GPa)
#
#
# Indices 1 2 3 4 5 6 
#
# 1 19.5465 5.4384 18.2520 0.0000 -9.6654 0.0000
# 2 5.4384 151.6357 66.5238 0.0000 -18.6713 0.0000
# 3 18.2520 66.5238 149.1600 0.0000 -13.2914 0.0000
# 4 0.0000 0.0000 0.0000 -33.8277 0.0000 18.2664
# 5 -9.6654 -18.6713 -13.2914 0.0000 33.3651 0.0000
# 6 0.0000 0.0000 0.0000 18.2664 0.0000 3.3832
#
#
#
# Elastic Compliance Matrix: (Units=1/GPa)
#
#
# Indices 1 2 3 4 5 6 
#
# 1 0.066628 0.003354 -0.008047 0.000000 0.017972 0.000000
# 2 0.003354 0.008722 -0.003918 0.000000 0.004292 0.000000
# 3 -0.008047 -0.003918 0.009366 0.000000 -0.000793 0.000000
# 4 0.000000 0.000000 0.000000 -0.007550 0.000000 0.040764
# 5 0.017972 0.004292 -0.000793 0.000000 0.037264 0.000000
# 6 0.000000 0.000000 0.000000 0.040764 0.000000 0.075490
#
#
# Mechanical properties :
#
#
# Convention : Reuss Voigt Hill
#
# Bulk Modulus (GPa) = 14.81633 55.64116 35.22874
# Shear Modulus (GPa) = 21.77326 15.92598 18.84962
#
# Velocity S-wave (km/s) = 3.16886 2.71015 2.94844
# Velocity P-wave (km/s) = 4.49689 5.95437 5.27620
#
# Compressibility (1/GPa) = 0.06749312
#
# Stress axis : x y z
#
# Youngs Moduli (GPa) = 15.00863 114.65729 106.77437
#
# Poissons Ratio (x) = -0.38453 0.85924
# Poissons Ratio (y) = -0.05034 0.41831
# Poissons Ratio (z) = 0.12078 0.44920
#
# Static dielectric constant tensor:
#      x y z
#    x 1.847870 0.000000 0.102150 
#    y 0.000000 1.916880 0.000000 
#    z 0.102150 0.000000 1.841240 
# 
# From -- ./inp_files/113770.got.cif
#   From: 2010.05.17/outbox.cif.g08.bks.cpg/sg15_57_cif.got.tgz:113770.got - 2010.06.03 18:47:42.
