data_PCOD9258212
_publ_section_title
;
Structure prediction by ZEFSAII (Michael W. Deem and Ramdas Pophale) SiO2 
 PCOD9258212
Probable space group: C 2/C
;
_chemical_formula_sum "Si O2"
_cell_formula_units_Z 52
_cell_length_a 22.197021
_cell_length_b 28.475199
_cell_length_c 5.114823
_cell_angle_alpha 90.000000
_cell_angle_beta 96.787977
_cell_angle_gamma 90.000000
_cell_volume 3210.236959
_symmetry_space_group_name_H-M "C 2/C"
_symmetry_group_IT_number 15
_symmetry_cell_setting 'monoclinic'
loop_
_space_group_symop_operation_xyz
x,y,z
-x,y,1/2-z
-x,-y,-z
x,-y,1/2+z
1/2+x,1/2+y,z
1/2-x,1/2+y,1/2-z
1/2-x,1/2-y,-z
1/2+x,1/2-y,1/2+z
loop_
_atom_site_type_symbol
_atom_site_label
_atom_site_fract_x
_atom_site_fract_y
_atom_site_fract_z
Si Si1 0.569041 0.153662 0.790379
Si Si2 0.539395 0.397729 0.504069
Si Si3 0.887328 0.395527 0.687077
Si Si4 0.642734 0.469374 0.688426
Si Si5 0.785788 0.468526 0.752133
Si Si6 0.000000 0.744758 0.750000
Si Si7 0.500000 0.691914 0.750000
Si Si8 0.500000 0.966729 0.750000
O O1 0.500000 0.132726 0.750000
O O2 0.608822 0.128927 0.591473
O O3 0.555350 0.208356 0.727283
O O4 0.596561 0.142907 0.085556
O O5 0.500000 0.393692 0.750000
O O6 0.599286 0.426364 0.598426
O O7 0.450774 0.345664 0.113417
O O8 0.500000 0.421713 0.250000
O O9 0.826010 0.423077 0.718426
O O10 0.940786 0.434108 0.723133
O O11 0.630836 0.510298 0.470139
O O12 0.714071 0.457681 0.703307
O O13 0.799321 0.507485 0.537121
O O14 0.985237 0.775802 0.489680
O O15 0.500000 0.000000 0.500000
#
# Coordination Sequence:
#
# PCOD9258212 Si02
#       8
#     8   8   8   8   8   4   4   4
#     4  10  20  32  49  72  95 125 161 210 266 302
#     4  10  20  33  51  84 109 129 169 194 256 296
#     4  12  19  34  46  68 101 125 169 223 243 298
#     4  10  21  35  53  74 108 143 176 204 232 286
#     4  10  21  36  50  70  97 144 184 207 240 288
#     4  10  18  33  52  73 106 127 158 201 266 322
#     4  10  18  33  50  79 106 127 154 201 252 320
#     4  12  20  26  40  62  88 126 154 196 258 286
#
# _framework density 16.198181000000002
#
# number of rings (size 3 to 8) (size 9 to 14) (size 15 to 20)
#    0.923    0.615    2.308    4.615    0.000    1.846 
#    0.000    0.000    0.000    0.000    0.000    6.462 
#    0.000    0.000    0.000    0.000    0.000    0.000 
#
# Total GULP energy -144876.674412 kJ/mol
# GULP energy per Si atom -5572.179785 kJ/mol
# Density = 1.616131 g / cm^3
# Si number density = 16.198181 Si / 1000 Ang^3
#
#
#
# Elastic Constant Matrix: (Units=GPa)
#
#
# Indices 1 2 3 4 5 6 
#
# 1 34.0692 25.8093 2.1169 0.0000 -2.7505 0.0000
# 2 25.8093 63.6372 1.8534 0.0000 -0.2748 0.0000
# 3 2.1169 1.8534 73.8650 0.0000 -8.0197 0.0000
# 4 0.0000 0.0000 0.0000 5.5063 0.0000 -16.0408
# 5 -2.7505 -0.2748 -8.0197 0.0000 16.3728 0.0000
# 6 0.0000 0.0000 0.0000 -16.0408 0.0000 -6.2167
#
#
#
# Elastic Compliance Matrix: (Units=1/GPa)
#
#
# Indices 1 2 3 4 5 6 
#
# 1 0.043148 -0.017468 -0.000046 0.000000 0.006933 0.000000
# 2 -0.017468 0.022798 -0.000368 0.000000 -0.002732 0.000000
# 3 -0.000046 -0.000368 0.014308 0.000000 0.006995 0.000000
# 4 0.000000 0.000000 0.000000 0.021324 0.000000 -0.055021
# 5 0.006933 -0.002732 0.006995 0.000000 0.065622 0.000000
# 6 0.000000 0.000000 0.000000 -0.055021 0.000000 -0.018887
#
#
# Mechanical properties :
#
#
# Convention : Reuss Voigt Hill
#
# Bulk Modulus (GPa) = 22.47700 25.68119 24.07909
# Shear Modulus (GPa) = 25.13760 12.58526 18.86143
#
# Velocity S-wave (km/s) = 3.94366 2.79042 3.41606
# Velocity P-wave (km/s) = 5.88583 5.12549 5.51877
#
# Compressibility (1/GPa) = 0.04448993
#
# Stress axis : x y z
#
# Youngs Moduli (GPa) = 23.17622 43.86438 69.89020
#
# Poissons Ratio (x) = 0.76623 0.00318
# Poissons Ratio (y) = 0.40484 0.02572
# Poissons Ratio (z) = 0.00106 0.01614
#
# Static dielectric constant tensor:
#      x y z
#    x 1.527820 0.000000 0.000450 
#    y 0.000000 1.543250 0.000000 
#    z 0.000450 0.000000 1.553600 
# 
# From -- ./inp_files/14469.got.cif
#   From: 2010.05.17/outbox.cif.g08.bks.cpg/sg15_8_cif.got.tgz:14469.got - 2010.06.03 18:47:42.
