data_PCOD9258963
_publ_section_title
;
Structure prediction by ZEFSAII (Michael W. Deem and Ramdas Pophale) SiO2 
 PCOD9258963
Probable space group: C 2/C
;
_chemical_formula_sum "Si O2"
_cell_formula_units_Z 56
_cell_length_a 27.911607
_cell_length_b 9.142952
_cell_length_c 17.495079
_cell_angle_alpha 90.000000
_cell_angle_beta 46.031986
_cell_angle_gamma 90.000000
_cell_volume 3213.329636
_symmetry_space_group_name_H-M "C 2/C"
_symmetry_group_IT_number 15
_symmetry_cell_setting 'monoclinic'
loop_
_space_group_symop_operation_xyz
x,y,z
-x,y,1/2-z
-x,-y,-z
x,-y,1/2+z
1/2+x,1/2+y,z
1/2-x,1/2+y,1/2-z
1/2-x,1/2-y,-z
1/2+x,1/2-y,1/2+z
loop_
_atom_site_type_symbol
_atom_site_label
_atom_site_fract_x
_atom_site_fract_y
_atom_site_fract_z
Si Si1 0.500000 0.911259 0.250000
Si Si2 0.270924 0.578501 0.541761
Si Si3 0.714147 0.211184 0.169265
Si Si4 0.306757 0.227316 0.129511
Si Si5 0.500000 0.414148 0.250000
Si Si6 0.799328 0.524689 0.523411
Si Si7 0.591273 0.155212 0.202340
Si Si8 0.912820 0.845170 0.915952
O O1 0.551915 0.802316 0.151764
O O2 0.539176 0.020979 0.263299
O O3 0.262688 0.415710 0.584537
O O4 0.255834 0.685348 0.629987
O O5 0.224001 0.581350 0.520039
O O6 0.347657 0.613863 0.437457
O O7 0.713557 0.220299 0.260996
O O8 0.740064 0.362508 0.105392
O O9 0.641677 0.170500 0.216787
O O10 0.313930 0.069625 0.081981
O O11 0.376398 0.313182 0.036894
O O12 0.552758 0.305422 0.230358
O O13 0.536169 0.522213 0.149907
O O14 0.862021 0.614148 0.421947
#
# Coordination Sequence:
#
# PCOD9258963 Si02
#       8
#     4   8   8   8   4   8   8   8
#     4  10  18  36  56  76 102 140 188 222 238 308
#     4   9  19  35  56  79 106 138 177 215 259 318
#     4  11  21  34  53  84 114 134 165 224 275 315
#     4  10  21  34  52  82 111 139 167 214 279 312
#     4  10  18  34  58  76  98 142 186 222 244 306
#     4  11  19  35  57  81 108 137 176 218 258 322
#     4  10  20  34  56  81 100 140 184 214 258 308
#     4   9  19  34  54  78 104 137 177 220 257 305
#
# _framework density 17.427406999999999
#
# number of rings (size 3 to 8) (size 9 to 14) (size 15 to 20)
#    0.857    1.143    1.429    4.714    0.000    0.000 
#    0.000    1.429    0.000    0.000    0.000    0.000 
#    0.000    0.000    0.000    0.000    0.000    0.000 
#
# Total GULP energy -155874.716367 kJ/mol
# GULP energy per Si atom -5566.954156 kJ/mol
# Density = 1.738774 g / cm^3
# Si number density = 17.427407 Si / 1000 Ang^3
#
#
#
# Elastic Constant Matrix: (Units=GPa)
#
#
# Indices 1 2 3 4 5 6 
#
# 1 69.7640 44.5497 36.0412 -0.0012 -1.1188 0.0004
# 2 44.5497 104.8574 32.5302 -0.0002 -4.7652 0.0005
# 3 36.0412 32.5302 66.6062 -0.0006 1.0687 0.0005
# 4 -0.0012 -0.0002 -0.0006 20.1169 0.0000 -9.4528
# 5 -1.1188 -4.7652 1.0687 0.0000 30.6499 -0.0001
# 6 0.0004 0.0005 0.0005 -9.4528 -0.0001 26.8705
#
#
#
# Elastic Compliance Matrix: (Units=1/GPa)
#
#
# Indices 1 2 3 4 5 6 
#
# 1 0.023753 -0.007190 -0.009343 0.000001 0.000075 0.000000
# 2 -0.007190 0.013533 -0.002750 0.000000 0.001937 0.000000
# 3 -0.009343 -0.002750 0.021436 0.000000 -0.001516 0.000000
# 4 0.000001 0.000000 0.000000 0.059554 0.000000 0.020950
# 5 0.000075 0.001937 -0.001516 0.000000 0.032983 0.000000
# 6 0.000000 0.000000 0.000000 0.020950 0.000000 0.044586
#
#
# Mechanical properties :
#
#
# Convention : Reuss Voigt Hill
#
# Bulk Modulus (GPa) = 49.61006 51.94108 50.77557
# Shear Modulus (GPa) = 20.73578 24.06790 22.40184
#
# Velocity S-wave (km/s) = 3.45314 3.72026 3.58919
# Velocity P-wave (km/s) = 6.66539 6.95146 6.80993
#
# Compressibility (1/GPa) = 0.02015720
#
# Stress axis : x y z
#
# Youngs Moduli (GPa) = 42.09959 73.89563 46.64969
#
# Poissons Ratio (x) = 0.53131 0.43584
# Poissons Ratio (y) = 0.30269 0.12828
# Poissons Ratio (z) = 0.39333 0.20320
#
# Static dielectric constant tensor:
#      x y z
#    x 1.597350 0.000000 -0.026620 
#    y 0.000000 1.635600 0.000000 
#    z -0.026620 0.000000 1.587380 
# 
# From -- ./inp_files/224427.got.cif
#   From: 2010.05.17/outbox.cif.g08.bks.cpg/sg15_113_cif.got.tgz:224427.got - 2010.06.03 18:47:42.
