data_PCOD9258217
_publ_section_title
;
Structure prediction by ZEFSAII (Michael W. Deem and Ramdas Pophale) SiO2 
 PCOD9258217
Probable space group: C 2/C
;
_chemical_formula_sum "Si O2"
_cell_formula_units_Z 48
_cell_length_a 22.100697
_cell_length_b 25.491433
_cell_length_c 14.068869
_cell_angle_alpha 90.000000
_cell_angle_beta 159.673281
_cell_angle_gamma 90.000000
_cell_volume 2753.312113
_symmetry_space_group_name_H-M "C 2/C"
_symmetry_group_IT_number 15
_symmetry_cell_setting 'monoclinic'
loop_
_space_group_symop_operation_xyz
x,y,z
-x,y,1/2-z
-x,-y,-z
x,-y,1/2+z
1/2+x,1/2+y,z
1/2-x,1/2+y,1/2-z
1/2-x,1/2-y,-z
1/2+x,1/2-y,1/2+z
loop_
_atom_site_type_symbol
_atom_site_label
_atom_site_fract_x
_atom_site_fract_y
_atom_site_fract_z
Si Si1 0.242105 0.526893 0.381694
Si Si2 0.000000 0.935347 0.750000
Si Si3 0.722478 0.621159 0.737272
Si Si4 0.420378 0.316617 0.298290
Si Si5 0.526168 0.796511 0.675953
Si Si6 0.912038 0.485042 0.527232
Si Si7 0.000000 0.881578 0.250000
O O1 0.355353 0.475868 0.578503
O O2 0.347397 0.579235 0.554283
O O3 0.065788 0.529735 0.180887
O O4 0.209995 0.519779 0.220878
O O5 0.899524 0.899556 0.526634
O O6 0.610063 0.652274 0.649518
O O7 0.811398 0.568007 0.909070
O O8 0.881136 0.659704 0.940361
O O9 0.484435 0.256789 0.399925
O O10 0.541508 0.346342 0.401992
O O11 0.226359 0.314936 0.965235
O O12 0.500000 0.783301 0.750000
O O13 0.000000 0.509381 0.750000
#
# Coordination Sequence:
#
# PCOD9258217 Si02
#       7
#     8   4   8   8   8   8   4
#     4   9  20  32  49  73 100 127 165 195 240 291
#     4   9  20  36  50  70 100 132 166 203 236 290
#     4  10  19  33  52  71  98 134 165 198 247 292
#     4  10  19  29  50  76  99 122 161 201 248 287
#     4   9  17  32  49  74  98 124 158 206 245 288
#     4  10  18  33  51  72  96 131 163 200 240 291
#     4  11  18  30  46  76 104 126 148 201 244 288
#
# _framework density 17.433547999999998
#
# number of rings (size 3 to 8) (size 9 to 14) (size 15 to 20)
#    0.000    2.333    0.833    3.500    0.000    1.333 
#    0.000    5.833    0.000    0.000    2.167    0.000 
#    0.000    0.000    0.000    0.000    0.000    0.000 
#
# Total GULP energy -133699.916121 kJ/mol
# GULP energy per Si atom -5570.829838 kJ/mol
# Density = 1.739387 g / cm^3
# Si number density = 17.433548 Si / 1000 Ang^3
#
#
#
# Elastic Constant Matrix: (Units=GPa)
#
#
# Indices 1 2 3 4 5 6 
#
# 1 32.8308 11.6034 -2.7841 0.0000 -4.4426 0.0000
# 2 11.6034 71.0793 8.2132 0.0000 -11.0131 0.0000
# 3 -2.7841 8.2132 46.1694 0.0000 -14.7103 0.0000
# 4 0.0000 0.0000 0.0000 9.9326 0.0000 2.2899
# 5 -4.4426 -11.0131 -14.7103 0.0000 20.6421 0.0000
# 6 0.0000 0.0000 0.0000 2.2899 0.0000 19.6278
#
#
#
# Elastic Compliance Matrix: (Units=1/GPa)
#
#
# Indices 1 2 3 4 5 6 
#
# 1 0.033832 -0.004823 0.005690 0.000000 0.008763 0.000000
# 2 -0.004823 0.016025 -0.000968 0.000000 0.006822 0.000000
# 3 0.005690 -0.000968 0.028981 0.000000 0.021361 0.000000
# 4 0.000000 0.000000 0.000000 0.103462 0.000000 -0.012070
# 5 0.008763 0.006822 0.021361 0.000000 0.069193 0.000000
# 6 0.000000 0.000000 0.000000 -0.012070 0.000000 0.052356
#
#
# Mechanical properties :
#
#
# Convention : Reuss Voigt Hill
#
# Bulk Modulus (GPa) = 12.71668 20.46049 16.58859
# Shear Modulus (GPa) = 15.13952 18.91031 17.02492
#
# Velocity S-wave (km/s) = 2.95008 3.29706 3.12839
# Velocity P-wave (km/s) = 4.34904 5.12405 4.75237
#
# Compressibility (1/GPa) = 0.07863685
#
# Stress axis : x y z
#
# Youngs Moduli (GPa) = 29.55784 62.40289 34.50582
#
# Poissons Ratio (x) = 0.30094 -0.19634
# Poissons Ratio (y) = 0.14255 0.03340
# Poissons Ratio (z) = -0.16819 0.06040
#
# Static dielectric constant tensor:
#      x y z
#    x 1.608150 0.000000 0.015640 
#    y 0.000000 1.589590 0.000000 
#    z 0.015640 0.000000 1.619610 
# 
# From -- ./inp_files/79413.got.cif
#   From: 2010.05.17/outbox.cif.g08.bks.cpg/sg15_40_cif.got.tgz:79413.got - 2010.06.03 18:47:42.
