data_PCOD9258292
_publ_section_title
;
Structure prediction by ZEFSAII (Michael W. Deem and Ramdas Pophale) SiO2 
 PCOD9258292
Probable space group: C 2/C
;
_chemical_formula_sum "Si O2"
_cell_formula_units_Z 48
_cell_length_a 27.127351
_cell_length_b 10.157062
_cell_length_c 21.129328
_cell_angle_alpha 90.000000
_cell_angle_beta 162.365921
_cell_angle_gamma 90.000000
_cell_volume 1763.653193
_symmetry_space_group_name_H-M "C 2/C"
_symmetry_group_IT_number 15
_symmetry_cell_setting 'monoclinic'
loop_
_space_group_symop_operation_xyz
x,y,z
-x,y,1/2-z
-x,-y,-z
x,-y,1/2+z
1/2+x,1/2+y,z
1/2-x,1/2+y,1/2-z
1/2-x,1/2-y,-z
1/2+x,1/2-y,1/2+z
loop_
_atom_site_type_symbol
_atom_site_label
_atom_site_fract_x
_atom_site_fract_y
_atom_site_fract_z
Si Si1 0.802975 0.172709 0.708739
Si Si2 0.928557 0.888286 0.054546
Si Si3 0.809666 0.604101 0.799080
Si Si4 0.651885 0.101876 0.979587
Si Si5 0.855275 0.900369 0.613738
Si Si6 0.048902 0.394107 0.152523
O O1 0.675195 0.284045 0.532942
O O2 0.792576 0.178755 0.772304
O O3 0.972168 0.185888 0.879572
O O4 0.741499 0.027524 0.615190
O O5 0.056291 0.969680 0.252053
O O6 0.809988 0.993671 0.876683
O O7 0.885891 0.675996 0.831073
O O8 0.954239 0.522292 0.010174
O O9 0.500000 0.057511 0.750000
O O10 0.575195 0.168771 0.948265
O O11 0.778419 0.164492 0.083727
O O12 0.000000 0.831714 0.750000
O O13 0.707519 0.935180 0.386758
#
# Coordination Sequence:
#
# PCOD9258292 Si02
#       6
#     8   8   8   8   8   8
#     4  10  23  35  54  86 116 160 198 237 300 347
#     4  11  23  37  59  83 125 154 203 246 288 358
#     4  10  20  37  58  77 118 162 204 243 285 357
#     4   8  17  32  47  75 112 148 188 231 277 355
#     4  10  18  33  53  84 117 150 191 235 299 350
#     4   9  18  33  58  76 112 156 200 233 293 341
#
# _framework density 27.216235999999999
#
# number of rings (size 3 to 8) (size 9 to 14) (size 15 to 20)
#    0.000    2.333    1.667    0.500    7.000    0.667 
#    0.000    6.667    0.000    0.000    0.000    1.167 
#   35.000    1.500    0.000    0.000    0.000    0.000 
#
# Total GULP energy -134445.290257 kJ/mol
# GULP energy per Si atom -5601.887094 kJ/mol
# Density = 2.715429 g / cm^3
# Si number density = 27.216236 Si / 1000 Ang^3
#
#
#
# Elastic Constant Matrix: (Units=GPa)
#
#
# Indices 1 2 3 4 5 6 
#
# 1 268.0889 48.8591 76.8771 0.0004 36.7145 0.0003
# 2 48.8591 60.9201 37.2799 0.0005 7.7512 0.0004
# 3 76.8771 37.2799 156.0903 0.0006 12.5384 0.0007
# 4 0.0004 0.0005 0.0006 41.1486 0.0004 14.1768
# 5 36.7145 7.7512 12.5384 0.0004 69.0172 0.0004
# 6 0.0003 0.0004 0.0007 14.1768 0.0004 50.3135
#
#
#
# Elastic Compliance Matrix: (Units=1/GPa)
#
#
# Indices 1 2 3 4 5 6 
#
# 1 0.004976 -0.002731 -0.001635 0.000000 -0.002044 0.000000
# 2 -0.002731 0.020847 -0.003615 0.000000 -0.000232 0.000000
# 3 -0.001635 -0.003615 0.008091 0.000000 -0.000194 0.000000
# 4 0.000000 0.000000 0.000000 0.026915 0.000000 -0.007584
# 5 -0.002044 -0.000232 -0.000194 0.000000 0.015638 0.000000
# 6 0.000000 0.000000 0.000000 -0.007584 0.000000 0.022012
#
#
# Mechanical properties :
#
#
# Convention : Reuss Voigt Hill
#
# Bulk Modulus (GPa) = 55.70265 90.12573 72.91419
# Shear Modulus (GPa) = 41.51964 53.56807 47.54386
#
# Velocity S-wave (km/s) = 3.91006 4.44130 4.18412
# Velocity P-wave (km/s) = 6.39499 7.71277 7.08458
#
# Compressibility (1/GPa) = 0.01795247
#
# Stress axis : x y z
#
# Youngs Moduli (GPa) = 200.94820 47.96835 123.59880
#
# Poissons Ratio (x) = 0.13100 0.20203
# Poissons Ratio (y) = 0.54877 0.44686
# Poissons Ratio (z) = 0.32847 0.17342
#
# Static dielectric constant tensor:
#      x y z
#    x 2.202920 0.000000 0.035280 
#    y 0.000000 2.081150 0.000000 
#    z 0.035280 0.000000 2.108810 
# 
# From -- ./inp_files/257632.got.cif
#   From: 2010.05.17/outbox.cif.g08.bks.cpg/sg15_129_cif.got.tgz:257632.got - 2010.06.03 18:47:42.
