data_PCOD9258152
_publ_section_title
;
Structure prediction by ZEFSAII (Michael W. Deem and Ramdas Pophale) SiO2 
 PCOD9258152
Probable space group: C 2/C
;
_chemical_formula_sum "Si O2"
_cell_formula_units_Z 60
_cell_length_a 15.728433
_cell_length_b 11.469165
_cell_length_c 24.206686
_cell_angle_alpha 90.000000
_cell_angle_beta 40.415850
_cell_angle_gamma 90.000000
_cell_volume 2831.060020
_symmetry_space_group_name_H-M "C 2/C"
_symmetry_group_IT_number 15
_symmetry_cell_setting 'monoclinic'
loop_
_space_group_symop_operation_xyz
x,y,z
-x,y,1/2-z
-x,-y,-z
x,-y,1/2+z
1/2+x,1/2+y,z
1/2-x,1/2+y,1/2-z
1/2-x,1/2-y,-z
1/2+x,1/2-y,1/2+z
loop_
_atom_site_type_symbol
_atom_site_label
_atom_site_fract_x
_atom_site_fract_y
_atom_site_fract_z
Si Si1 0.929315 0.105090 0.395144
Si Si2 0.500000 0.492460 0.250000
Si Si3 0.263862 0.449322 0.548516
Si Si4 0.637534 0.384386 0.888819
Si Si5 0.302016 0.353946 0.299176
Si Si6 0.433228 0.162884 0.840902
Si Si7 0.651909 0.015242 0.784482
Si Si8 0.981240 0.308921 0.826599
O O1 0.829023 0.004814 0.462654
O O2 0.870077 0.226414 0.402113
O O3 0.015754 0.126099 0.407526
O O4 0.011313 0.063619 0.301085
O O5 0.368989 0.413819 0.318503
O O6 0.370783 0.419979 0.542860
O O7 0.165392 0.553918 0.617096
O O8 0.170315 0.336759 0.587524
O O9 0.715289 0.261016 0.850045
O O10 0.731988 0.482276 0.814967
O O11 0.219177 0.449061 0.307781
O O12 0.435174 0.307353 0.202665
O O13 0.500000 0.193338 0.750000
O O14 0.558118 0.121207 0.814547
O O15 0.557520 0.904398 0.825597
O O16 0.000000 0.329791 0.750000
#
# Coordination Sequence:
#
# PCOD9258152 Si02
#       8
#     8   4   8   8   8   8   8   8
#     4  12  25  36  58  90 124 151 189 246 296 339
#     4  12  24  38  56  86 124 156 186 238 304 338
#     4  11  21  39  61  87 120 151 199 239 284 344
#     4  11  20  38  61  90 111 155 198 240 283 346
#     4  11  20  36  61  84 115 154 198 233 288 344
#     4  11  20  38  63  89 112 155 197 238 289 342
#     4  10  18  32  62  87 110 143 197 246 274 336
#     4  10  18  36  63  83 107 156 200 231 281 352
#
# _framework density 21.193474999999999
#
# number of rings (size 3 to 8) (size 9 to 14) (size 15 to 20)
#    0.000    1.067    8.000    1.600    0.000    0.000 
#    0.000    2.667    0.000    3.200    0.000    0.000 
#    0.000    0.000    0.000    0.000    0.000    0.000 
#
# Total GULP energy -167122.049150 kJ/mol
# GULP energy per Si atom -5570.734972 kJ/mol
# Density = 2.114524 g / cm^3
# Si number density = 21.193475 Si / 1000 Ang^3
#
#
#
# Elastic Constant Matrix: (Units=GPa)
#
#
# Indices 1 2 3 4 5 6 
#
# 1 123.7511 21.2577 1.3668 0.0000 5.7643 0.0000
# 2 21.2577 55.0702 2.9610 0.0000 7.7508 0.0000
# 3 1.3668 2.9610 49.2093 0.0000 8.9112 0.0000
# 4 0.0000 0.0000 0.0000 10.7513 0.0000 -0.1707
# 5 5.7643 7.7508 8.9112 0.0000 17.6303 0.0000
# 6 0.0000 0.0000 0.0000 -0.1707 0.0000 25.6249
#
#
#
# Elastic Compliance Matrix: (Units=1/GPa)
#
#
# Indices 1 2 3 4 5 6 
#
# 1 0.008692 -0.003146 0.000233 0.000000 -0.001577 0.000000
# 2 -0.003146 0.020503 0.000330 0.000000 -0.008152 0.000000
# 3 0.000233 0.000330 0.022384 0.000000 -0.011535 0.000000
# 4 0.000000 0.000000 0.000000 0.093022 0.000000 0.000620
# 5 -0.001577 -0.008152 -0.011535 0.000000 0.066650 0.000000
# 6 0.000000 0.000000 0.000000 0.000620 0.000000 0.039029
#
#
# Mechanical properties :
#
#
# Convention : Reuss Voigt Hill
#
# Bulk Modulus (GPa) = 21.54551 31.02241 26.28396
# Shear Modulus (GPa) = 18.45596 24.29766 21.37681
#
# Velocity S-wave (km/s) = 2.95419 3.38963 3.17937
# Velocity P-wave (km/s) = 4.67167 5.47621 5.08986
#
# Compressibility (1/GPa) = 0.04641339
#
# Stress axis : x y z
#
# Youngs Moduli (GPa) = 115.04846 48.77446 44.67493
#
# Poissons Ratio (x) = 0.15344 -0.01043
# Poissons Ratio (y) = 0.36192 -0.01474
# Poissons Ratio (z) = -0.02685 -0.01609
#
# Static dielectric constant tensor:
#      x y z
#    x 1.776010 0.000000 -0.013740 
#    y 0.000000 1.852250 0.000000 
#    z -0.013740 0.000000 1.783910 
# 
# From -- ./inp_files/273842.got.cif
#   From: 2010.05.17/outbox.cif.g08.bks.cpg/sg15_137_cif.got.tgz:273842.got - 2010.06.03 18:47:42.
