data_PCOD9258961
_publ_section_title
;
Structure prediction by ZEFSAII (Michael W. Deem and Ramdas Pophale) SiO2 
 PCOD9258961
Probable space group: C 2/C
;
_chemical_formula_sum "Si O2"
_cell_formula_units_Z 60
_cell_length_a 29.627826
_cell_length_b 23.025458
_cell_length_c 16.787607
_cell_angle_alpha 90.000000
_cell_angle_beta 162.214984
_cell_angle_gamma 90.000000
_cell_volume 3498.095938
_symmetry_space_group_name_H-M "C 2/C"
_symmetry_group_IT_number 15
_symmetry_cell_setting 'monoclinic'
loop_
_space_group_symop_operation_xyz
x,y,z
-x,y,1/2-z
-x,-y,-z
x,-y,1/2+z
1/2+x,1/2+y,z
1/2-x,1/2+y,1/2-z
1/2-x,1/2-y,-z
1/2+x,1/2-y,1/2+z
loop_
_atom_site_type_symbol
_atom_site_label
_atom_site_fract_x
_atom_site_fract_y
_atom_site_fract_z
Si Si1 0.178685 0.327783 0.545844
Si Si2 0.271973 0.935777 0.768404
Si Si3 0.652643 0.964592 0.975763
Si Si4 0.777453 0.144906 0.033578
Si Si5 0.000000 0.995357 0.750000
Si Si6 0.594857 0.602501 0.535246
Si Si7 0.435966 0.960393 0.323147
Si Si8 0.177647 0.800830 0.055891
O O1 0.256525 0.378391 0.727617
O O2 0.220628 0.332322 0.522945
O O3 0.222071 0.264435 0.652297
O O4 0.000000 0.335799 0.250000
O O5 0.422357 0.925969 0.972515
O O6 0.142538 0.962360 0.495799
O O7 0.311291 0.985835 0.898419
O O8 0.500000 0.936364 0.750000
O O9 0.625079 0.996942 0.847284
O O10 0.792104 0.922713 0.210858
O O11 0.953247 0.134212 0.333470
O O12 0.691405 0.085029 0.870502
O O13 0.756258 0.184103 0.919500
O O14 0.974098 0.950366 0.633360
O O15 0.689751 0.645553 0.637479
O O16 0.500000 0.000000 0.500000
O O17 0.000000 0.797616 0.750000
#
# Coordination Sequence:
#
# PCOD9258961 Si02
#       8
#     8   8   8   8   4   8   8   8
#     4  11  19  36  54  77 110 144 185 227 272 321
#     4  10  19  36  52  77 108 146 175 222 267 325
#     4   9  19  34  54  75 108 145 175 219 269 327
#     4  11  19  33  52  84 109 136 180 226 273 323
#     4  10  18  34  58  74 112 140 176 220 270 324
#     4  10  19  36  54  81 110 139 184 223 277 326
#     4  11  21  32  52  82 112 137 177 214 277 334
#     4   9  20  33  56  80 105 142 182 234 273 312
#
# _framework density 17.152187999999999
#
# number of rings (size 3 to 8) (size 9 to 14) (size 15 to 20)
#    0.000    1.867    4.667    1.600    3.733    0.533 
#    2.400    0.000    1.467    0.000    0.000    2.800 
#    0.000    0.000    0.000    0.000    0.000    0.000 
#
# Total GULP energy -167076.752597 kJ/mol
# GULP energy per Si atom -5569.225087 kJ/mol
# Density = 1.711315 g / cm^3
# Si number density = 17.152188 Si / 1000 Ang^3
#
#
#
# Elastic Constant Matrix: (Units=GPa)
#
#
# Indices 1 2 3 4 5 6 
#
# 1 69.8486 19.2034 18.8916 0.0000 11.8775 0.0000
# 2 19.2034 67.6839 23.7454 0.0000 2.9077 0.0000
# 3 18.8916 23.7454 75.3182 0.0000 -3.9632 0.0000
# 4 0.0000 0.0000 0.0000 6.4666 0.0000 -2.2042
# 5 11.8775 2.9077 -3.9632 0.0000 19.3980 0.0000
# 6 0.0000 0.0000 0.0000 -2.2042 0.0000 10.4825
#
#
#
# Elastic Compliance Matrix: (Units=1/GPa)
#
#
# Indices 1 2 3 4 5 6 
#
# 1 0.018304 -0.003229 -0.004183 0.000000 -0.011578 0.000000
# 2 -0.003229 0.017434 -0.004771 0.000000 -0.001611 0.000000
# 3 -0.004183 -0.004771 0.016177 0.000000 0.006581 0.000000
# 4 0.000000 0.000000 0.000000 0.166580 0.000000 0.035027
# 5 -0.011578 -0.001611 0.006581 0.000000 0.060227 0.000000
# 6 0.000000 0.000000 0.000000 0.035027 0.000000 0.102762
#
#
# Mechanical properties :
#
#
# Convention : Reuss Voigt Hill
#
# Bulk Modulus (GPa) = 36.29776 37.39240 36.84508
# Shear Modulus (GPa) = 12.04724 17.33677 14.69200
#
# Velocity S-wave (km/s) = 2.65311 3.18270 2.92989
# Velocity P-wave (km/s) = 5.53113 5.94590 5.74226
#
# Compressibility (1/GPa) = 0.02754991
#
# Stress axis : x y z
#
# Youngs Moduli (GPa) = 54.63156 57.36020 61.81757
#
# Poissons Ratio (x) = 0.18519 0.25856
# Poissons Ratio (y) = 0.17638 0.29495
# Poissons Ratio (z) = 0.22850 0.27368
#
# Static dielectric constant tensor:
#      x y z
#    x 1.601520 0.000000 0.021160 
#    y 0.000000 1.624600 0.000000 
#    z 0.021160 0.000000 1.574950 
# 
# From -- ./inp_files/179297.got.cif
#   From: 2010.05.17/outbox.cif.g08.bks.cpg/sg15_90_cif.got.tgz:179297.got - 2010.06.03 18:47:42.
