data_PCOD9258136
_publ_section_title
;
Structure prediction by ZEFSAII (Michael W. Deem and Ramdas Pophale) SiO2 
 PCOD9258136
Probable space group: C 2/C
;
_chemical_formula_sum "Si O2"
_cell_formula_units_Z 40
_cell_length_a 24.738383
_cell_length_b 6.842494
_cell_length_c 8.744780
_cell_angle_alpha 90.000000
_cell_angle_beta 84.442722
_cell_angle_gamma 90.000000
_cell_volume 1473.291137
_symmetry_space_group_name_H-M "C 2/C"
_symmetry_group_IT_number 15
_symmetry_cell_setting 'monoclinic'
loop_
_space_group_symop_operation_xyz
x,y,z
-x,y,1/2-z
-x,-y,-z
x,-y,1/2+z
1/2+x,1/2+y,z
1/2-x,1/2+y,1/2-z
1/2-x,1/2-y,-z
1/2+x,1/2-y,1/2+z
loop_
_atom_site_type_symbol
_atom_site_label
_atom_site_fract_x
_atom_site_fract_y
_atom_site_fract_z
Si Si1 0.158000 0.391507 0.821699
Si Si2 0.073976 0.832388 0.164450
Si Si3 0.850002 0.190843 0.372820
Si Si4 0.759982 0.893022 0.353078
Si Si5 0.548117 0.699455 0.344759
O O1 0.105168 0.341838 0.738342
O O2 0.146914 0.360745 0.002995
O O3 0.196121 0.206559 0.766592
O O4 0.202118 0.563385 0.791194
O O5 0.048170 0.967026 0.304183
O O6 0.109530 0.253112 0.277181
O O7 0.041590 0.761223 0.025052
O O8 0.884037 0.995034 0.418192
O O9 0.790058 0.096740 0.381709
O O10 0.750000 0.750000 0.500000
O O11 0.500000 0.781456 0.250000
#
# Coordination Sequence:
#
# PCOD9258136 Si02
#       5
#     8   8   8   8   8
#     4  11  21  39  60  91 136 174 215 278 318 398
#     4   9  17  32  54  89 139 174 223 273 314 385
#     4   9  19  36  56  91 140 167 224 269 314 395
#     4  11  23  38  63  91 130 176 219 266 337 400
#     4  10  18  32  60  97 141 177 226 283 325 376
#
# _framework density 27.150096999999999
#
# number of rings (size 3 to 8) (size 9 to 14) (size 15 to 20)
#    1.200    0.800    2.000    2.400    0.000    1.600 
#    0.000    0.000    0.000    0.000    0.000    2.800 
#    0.000   23.000    0.000    0.000    0.000    4.600 
#
# Total GULP energy -111653.656511 kJ/mol
# GULP energy per Si atom -5582.682826 kJ/mol
# Density = 2.708830 g / cm^3
# Si number density = 27.150097 Si / 1000 Ang^3
#
#
#
# Elastic Constant Matrix: (Units=GPa)
#
#
# Indices 1 2 3 4 5 6 
#
# 1 111.2794 -6.2040 27.9590 0.0000 21.4842 0.0000
# 2 -6.2040 68.9508 -12.4384 0.0000 -2.7306 0.0000
# 3 27.9590 -12.4384 105.5393 0.0000 14.3742 0.0000
# 4 0.0000 0.0000 0.0000 25.1005 0.0000 -10.6069
# 5 21.4842 -2.7306 14.3742 0.0000 58.2082 0.0000
# 6 0.0000 0.0000 0.0000 -10.6069 0.0000 35.1178
#
#
#
# Elastic Compliance Matrix: (Units=1/GPa)
#
#
# Indices 1 2 3 4 5 6 
#
# 1 0.010181 0.000390 -0.002216 0.000000 -0.003192 0.000000
# 2 0.000390 0.014837 0.001625 0.000000 0.000151 0.000000
# 3 -0.002216 0.001625 0.010485 0.000000 -0.001695 0.000000
# 4 0.000000 0.000000 0.000000 0.045669 0.000000 0.013794
# 5 -0.003192 0.000151 -0.001695 0.000000 0.018784 0.000000
# 6 0.000000 0.000000 0.000000 0.013794 0.000000 0.032642
#
#
# Mechanical properties :
#
#
# Convention : Reuss Voigt Hill
#
# Bulk Modulus (GPa) = 28.49038 33.82254 31.15646
# Shear Modulus (GPa) = 34.55403 42.11548 38.33476
#
# Velocity S-wave (km/s) = 3.57137 3.94281 3.76168
# Velocity P-wave (km/s) = 5.24620 5.76302 5.51067
#
# Compressibility (1/GPa) = 0.03509956
#
# Stress axis : x y z
#
# Youngs Moduli (GPa) = 98.21913 67.39792 95.37752
#
# Poissons Ratio (x) = -0.02627 0.21140
# Poissons Ratio (y) = -0.03829 -0.15497
# Poissons Ratio (z) = 0.21770 -0.10951
#
# Static dielectric constant tensor:
#      x y z
#    x 2.146830 0.000000 0.096310 
#    y 0.000000 2.281290 0.000000 
#    z 0.096310 0.000000 2.113250 
# 
# From -- ./inp_files/125103.got.cif
#   From: 2010.05.17/outbox.cif.g08.bks.cpg/sg15_63_cif.got.tgz:125103.got - 2010.06.03 18:47:42.
