data_PCOD9258529
_publ_section_title
;
Structure prediction by ZEFSAII (Michael W. Deem and Ramdas Pophale) SiO2 
 PCOD9258529
Probable space group: C 2/C
;
_chemical_formula_sum "Si O2"
_cell_formula_units_Z 60
_cell_length_a 15.823467
_cell_length_b 11.549023
_cell_length_c 26.053691
_cell_angle_alpha 90.000000
_cell_angle_beta 46.592358
_cell_angle_gamma 90.000000
_cell_volume 3458.928775
_symmetry_space_group_name_H-M "C 2/C"
_symmetry_group_IT_number 15
_symmetry_cell_setting 'monoclinic'
loop_
_space_group_symop_operation_xyz
x,y,z
-x,y,1/2-z
-x,-y,-z
x,-y,1/2+z
1/2+x,1/2+y,z
1/2-x,1/2+y,1/2-z
1/2-x,1/2-y,-z
1/2+x,1/2-y,1/2+z
loop_
_atom_site_type_symbol
_atom_site_label
_atom_site_fract_x
_atom_site_fract_y
_atom_site_fract_z
Si Si1 0.520121 0.313469 0.853297
Si Si2 0.865747 0.038331 0.112950
Si Si3 0.745717 0.829983 0.126196
Si Si4 0.978641 0.409242 0.433986
Si Si5 0.405664 0.374563 0.487430
Si Si6 0.215966 0.923591 0.505110
Si Si7 0.046044 0.658483 0.438000
Si Si8 0.000000 0.229072 0.250000
O O1 0.614236 0.385392 0.845966
O O2 0.526392 0.181956 0.872147
O O3 0.539179 0.333662 0.785387
O O4 0.390162 0.359991 0.921747
O O5 0.860252 0.118168 0.064747
O O6 0.765557 0.943651 0.152486
O O7 0.981502 0.958749 0.060064
O O8 0.780375 0.867067 0.053601
O O9 0.830386 0.726449 0.109976
O O10 0.611832 0.798444 0.184083
O O11 0.840409 0.415380 0.479798
O O12 0.988893 0.361451 0.487762
O O13 0.037490 0.536268 0.412219
O O14 0.316107 0.441390 0.488765
O O15 0.452409 0.248884 0.454384
#
# Coordination Sequence:
#
# PCOD9258529 Si02
#       8
#     8   8   8   8   8   8   8   4
#     4  11  19  35  52  79 101 141 170 213 255 307
#     4   8  15  30  55  72 100 130 171 207 251 297
#     4  10  19  37  54  79  97 137 173 217 249 315
#     4  11  19  29  50  80 109 136 159 217 259 302
#     4   8  14  28  52  81  97 131 167 205 249 315
#     4  10  18  33  59  73 105 134 172 214 260 291
#     4  10  19  31  51  79 110 130 169 207 266 308
#     4  12  24  32  54  78 104 128 186 212 256 298
#
# _framework density 17.346411
#
# number of rings (size 3 to 8) (size 9 to 14) (size 15 to 20)
#    0.000    2.133    4.000    2.800    0.000    0.533 
#    2.400    0.000    0.000    0.000    0.000    9.333 
#    0.000    0.000    0.000    0.000    0.000    0.000 
#
# Total GULP energy -167075.967673 kJ/mol
# GULP energy per Si atom -5569.198922 kJ/mol
# Density = 1.730693 g / cm^3
# Si number density = 17.346411 Si / 1000 Ang^3
#
#
#
# Elastic Constant Matrix: (Units=GPa)
#
#
# Indices 1 2 3 4 5 6 
#
# 1 39.3042 29.1197 3.3730 0.0000 11.4808 0.0000
# 2 29.1197 98.2428 13.5999 0.0000 6.8697 0.0000
# 3 3.3730 13.5999 40.8403 0.0000 14.5873 0.0000
# 4 0.0000 0.0000 0.0000 0.3394 0.0000 2.5149
# 5 11.4808 6.8697 14.5873 0.0000 29.0059 0.0000
# 6 0.0000 0.0000 0.0000 2.5149 0.0000 27.6991
#
#
#
# Elastic Compliance Matrix: (Units=1/GPa)
#
#
# Indices 1 2 3 4 5 6 
#
# 1 0.037424 -0.010853 0.005968 0.000000 -0.015244 0.000000
# 2 -0.010853 0.013837 -0.004968 0.000000 0.003517 0.000000
# 3 0.005968 -0.004968 0.031779 0.000000 -0.017167 0.000000
# 4 0.000000 0.000000 0.000000 9.005077 0.000000 -0.817609
# 5 -0.015244 0.003517 -0.017167 0.000000 0.048310 0.000000
# 6 0.000000 0.000000 0.000000 -0.817609 0.000000 0.110337
#
#
# Mechanical properties :
#
#
# Convention : Reuss Voigt Hill
#
# Bulk Modulus (GPa) = 15.78915 30.06362 22.92638
# Shear Modulus (GPa) = 0.53835 20.22852 10.38344
#
# Velocity S-wave (km/s) = 0.55770 3.41860 2.44927
# Velocity P-wave (km/s) = 3.08816 5.74033 4.60913
#
# Compressibility (1/GPa) = 0.06333464
#
# Stress axis : x y z
#
# Youngs Moduli (GPa) = 26.72104 72.26754 31.46757
#
# Poissons Ratio (x) = 0.78431 -0.18779
# Poissons Ratio (y) = 0.29000 0.15632
# Poissons Ratio (z) = -0.15947 0.35900
#
# Static dielectric constant tensor:
#      x y z
#    x 1.616950 0.000000 0.014980 
#    y 0.000000 1.625560 0.000000 
#    z 0.014980 0.000000 1.594290 
# 
# From -- ./inp_files/273845.got.cif
#   From: 2010.05.17/outbox.cif.g08.bks.cpg/sg15_137_cif.got.tgz:273845.got - 2010.06.03 18:47:42.
