data_PCOD9258947
_publ_section_title
;
Structure prediction by ZEFSAII (Michael W. Deem and Ramdas Pophale) SiO2 
 PCOD9258947
Probable space group: C 2/C
;
_chemical_formula_sum "Si O2"
_cell_formula_units_Z 60
_cell_length_a 12.305258
_cell_length_b 14.985457
_cell_length_c 18.872173
_cell_angle_alpha 90.000000
_cell_angle_beta 135.724191
_cell_angle_gamma 90.000000
_cell_volume 2429.452321
_symmetry_space_group_name_H-M "C 2/C"
_symmetry_group_IT_number 15
_symmetry_cell_setting 'monoclinic'
loop_
_space_group_symop_operation_xyz
x,y,z
-x,y,1/2-z
-x,-y,-z
x,-y,1/2+z
1/2+x,1/2+y,z
1/2-x,1/2+y,1/2-z
1/2-x,1/2-y,-z
1/2+x,1/2-y,1/2+z
loop_
_atom_site_type_symbol
_atom_site_label
_atom_site_fract_x
_atom_site_fract_y
_atom_site_fract_z
Si Si1 0.071110 0.397626 0.861008
Si Si2 0.881463 0.653174 0.900729
Si Si3 0.385862 0.697132 0.626990
Si Si4 0.835305 0.170141 0.836641
Si Si5 0.337191 0.883391 0.875490
Si Si6 0.500000 0.604692 0.250000
Si Si7 0.146236 0.574842 0.863851
Si Si8 0.569145 0.253935 0.902294
O O1 0.145528 0.300510 0.907217
O O2 0.184504 0.483005 0.920959
O O3 0.000000 0.382360 0.750000
O O4 0.928677 0.414471 0.848752
O O5 0.767790 0.651376 0.914270
O O6 0.773713 0.639707 0.780900
O O7 0.954579 0.750961 0.915351
O O8 0.040956 0.606061 0.002320
O O9 0.500000 0.694622 0.750000
O O10 0.491325 0.660120 0.612413
O O11 0.808506 0.275869 0.845934
O O12 0.783795 0.113264 0.880323
O O13 0.173163 0.932901 0.814320
O O14 0.468128 0.667205 0.167441
O O15 0.061779 0.656618 0.863393
O O16 0.000000 0.543590 0.750000
O O17 0.750000 0.250000 0.000000
#
# Coordination Sequence:
#
# PCOD9258947 Si02
#       8
#     8   8   8   8   8   4   8   8
#     4   9  21  36  57  84 120 164 201 237 313 387
#     4  11  19  33  60  85 124 156 201 258 308 361
#     4   8  18  34  55  87 116 157 194 253 308 356
#     4  10  18  34  57  88 122 152 212 255 300 355
#     4  11  21  36  59  95 120 156 203 261 315 361
#     4  12  20  34  60  92 122 144 204 268 304 346
#     4  11  18  35  61  86 116 159 201 249 301 368
#     4  12  20  33  59  94 116 148 202 261 303 348
#
# _framework density 24.696925
#
# number of rings (size 3 to 8) (size 9 to 14) (size 15 to 20)
#    0.000    1.600    6.000    0.800    0.000    2.133 
#    0.000    0.667    0.000   10.400    3.467    2.800 
#    0.000    0.000    0.000    0.000    0.000    0.000 
#
# Total GULP energy -167158.806729 kJ/mol
# GULP energy per Si atom -5571.960224 kJ/mol
# Density = 2.464071 g / cm^3
# Si number density = 24.696925 Si / 1000 Ang^3
#
#
#
# Elastic Constant Matrix: (Units=GPa)
#
#
# Indices 1 2 3 4 5 6 
#
# 1 184.5216 30.4793 14.0474 0.0000 30.8862 0.0000
# 2 30.4793 69.9410 -2.7949 0.0000 8.5372 0.0000
# 3 14.0474 -2.7949 78.7527 0.0000 12.8414 0.0000
# 4 0.0000 0.0000 0.0000 9.1508 0.0000 -4.6822
# 5 30.8862 8.5372 12.8414 0.0000 50.1414 0.0000
# 6 0.0000 0.0000 0.0000 -4.6822 0.0000 57.2501
#
#
#
# Elastic Compliance Matrix: (Units=1/GPa)
#
#
# Indices 1 2 3 4 5 6 
#
# 1 0.006437 -0.002420 -0.000683 0.000000 -0.003378 0.000000
# 2 -0.002420 0.015581 0.001225 0.000000 -0.001476 0.000000
# 3 -0.000683 0.001225 0.013388 0.000000 -0.003216 0.000000
# 4 0.000000 0.000000 0.000000 0.114052 0.000000 0.009328
# 5 -0.003378 -0.001476 -0.003216 0.000000 0.023099 0.000000
# 6 0.000000 0.000000 0.000000 0.009328 0.000000 0.018230
#
#
# Mechanical properties :
#
#
# Convention : Reuss Voigt Hill
#
# Bulk Modulus (GPa) = 31.59539 46.29764 38.94652
# Shear Modulus (GPa) = 24.37915 42.74072 33.55993
#
# Velocity S-wave (km/s) = 3.14528 4.16457 3.69029
# Velocity P-wave (km/s) = 5.10013 6.47394 5.82766
#
# Compressibility (1/GPa) = 0.03165018
#
# Stress axis : x y z
#
# Youngs Moduli (GPa) = 155.36261 64.17873 74.69487
#
# Poissons Ratio (x) = 0.15531 0.05103
# Poissons Ratio (y) = 0.37597 -0.09153
# Poissons Ratio (z) = 0.10615 -0.07864
#
# Static dielectric constant tensor:
#      x y z
#    x 1.994910 0.000000 -0.018280 
#    y 0.000000 0.750360 0.000000 
#    z -0.018280 0.000000 2.091630 
# 
# From -- ./inp_files/239998.got.cif
#   From: 2010.05.17/outbox.cif.g08.bks.cpg/sg15_120_cif.got.tgz:239998.got - 2010.06.03 18:47:42.
