data_PCOD9258072
_publ_section_title
;
Structure prediction by ZEFSAII (Michael W. Deem and Ramdas Pophale) SiO2 
 PCOD9258072
Probable space group: C 2/C
;
_chemical_formula_sum "Si O2"
_cell_formula_units_Z 52
_cell_length_a 27.972947
_cell_length_b 7.638955
_cell_length_c 20.456458
_cell_angle_alpha 90.000000
_cell_angle_beta 146.270241
_cell_angle_gamma 90.000000
_cell_volume 2427.235291
_symmetry_space_group_name_H-M "C 2/C"
_symmetry_group_IT_number 15
_symmetry_cell_setting 'monoclinic'
loop_
_space_group_symop_operation_xyz
x,y,z
-x,y,1/2-z
-x,-y,-z
x,-y,1/2+z
1/2+x,1/2+y,z
1/2-x,1/2+y,1/2-z
1/2-x,1/2-y,-z
1/2+x,1/2-y,1/2+z
loop_
_atom_site_type_symbol
_atom_site_label
_atom_site_fract_x
_atom_site_fract_y
_atom_site_fract_z
Si Si1 0.213897 0.135584 0.620160
Si Si2 0.080892 0.905581 0.619170
Si Si3 0.228205 0.968282 0.359492
Si Si4 0.843553 0.372019 0.381975
Si Si5 0.039347 0.675519 0.937947
Si Si6 0.809147 0.918203 0.547798
Si Si7 0.500000 0.741781 0.250000
O O1 0.247126 0.330324 0.634425
O O2 0.274296 0.069525 0.747485
O O3 0.116193 0.180296 0.529692
O O4 0.213969 0.030077 0.552447
O O5 0.136535 0.046482 0.721042
O O6 0.126560 0.811811 0.611070
O O7 0.046982 0.751459 0.628426
O O8 0.000000 0.000000 0.500000
O O9 0.215802 0.951590 0.422211
O O10 0.297443 0.857860 0.399272
O O11 0.921622 0.507413 0.481185
O O12 0.022141 0.650551 0.840957
O O13 0.750000 0.750000 0.500000
O O14 0.911298 0.866453 0.663961
#
# Coordination Sequence:
#
# PCOD9258072 Si02
#       7
#     8   8   8   8   8   8   4
#     4   8  17  30  52  83 115 150 190 245 297 349
#     4  11  21  34  55  85 116 157 193 245 309 360
#     4   9  17  32  52  78 112 148 192 240 295 353
#     4  10  20  35  53  86 120 152 198 250 306 367
#     4  10  19  34  57  89 117 154 201 262 299 354
#     4   9  16  30  52  83 118 151 201 254 301 351
#     4  10  18  32  58  92 120 152 216 264 304 362
#
# _framework density 21.423551
#
# number of rings (size 3 to 8) (size 9 to 14) (size 15 to 20)
#    0.000    2.462    1.538    2.308    0.000    0.000 
#    0.000    0.000    0.000    0.923    8.000   12.923 
#    0.000    0.000    0.000    0.000    0.000    0.000 
#
# Total GULP energy -144966.248777 kJ/mol
# GULP energy per Si atom -5575.624953 kJ/mol
# Density = 2.137479 g / cm^3
# Si number density = 21.423551 Si / 1000 Ang^3
#
#
#
# Elastic Constant Matrix: (Units=GPa)
#
#
# Indices 1 2 3 4 5 6 
#
# 1 87.2911 23.6575 20.8675 -0.0001 -3.9153 -0.0001
# 2 23.6575 28.4681 10.5327 -0.0001 -13.6138 -0.0001
# 3 20.8675 10.5327 70.4029 0.0000 -7.2244 -0.0001
# 4 -0.0001 -0.0001 0.0000 28.9994 0.0000 2.6129
# 5 -3.9153 -13.6138 -7.2244 0.0000 43.3322 0.0000
# 6 -0.0001 -0.0001 -0.0001 2.6129 0.0000 21.3761
#
#
#
# Elastic Compliance Matrix: (Units=1/GPa)
#
#
# Indices 1 2 3 4 5 6 
#
# 1 0.015681 -0.013525 -0.002966 0.000000 -0.003327 0.000000
# 2 -0.013525 0.054760 -0.002588 0.000000 0.015551 0.000000
# 3 -0.002966 -0.002588 0.015627 0.000000 0.001524 0.000000
# 4 0.000000 0.000000 0.000000 0.034867 0.000000 -0.004262
# 5 -0.003327 0.015551 0.001524 0.000000 0.027917 0.000000
# 6 0.000000 0.000000 0.000000 -0.004262 0.000000 0.047302
#
#
# Mechanical properties :
#
#
# Convention : Reuss Voigt Hill
#
# Bulk Modulus (GPa) = 20.87214 32.91973 26.89594
# Shear Modulus (GPa) = 19.97743 27.48185 23.72964
#
# Velocity S-wave (km/s) = 3.05700 3.58549 3.33174
# Velocity P-wave (km/s) = 4.71424 5.70442 5.23281
#
# Compressibility (1/GPa) = 0.04791075
#
# Stress axis : x y z
#
# Youngs Moduli (GPa) = 63.77041 18.26135 63.99327
#
# Poissons Ratio (x) = 0.24698 0.18980
# Poissons Ratio (y) = 0.86249 0.16561
# Poissons Ratio (z) = 0.18914 0.04726
#
# Static dielectric constant tensor:
#      x y z
#    x 1.862070 0.000000 0.047800 
#    y 0.000000 1.812860 0.000000 
#    z 0.047800 0.000000 1.845350 
# 
# From -- ./inp_files/176702.got.cif
#   From: 2010.05.17/outbox.cif.g08.bks.cpg/sg15_89_cif.got.tgz:176702.got - 2010.06.03 18:47:42.
