data_PCOD9258972
_publ_section_title
;
Structure prediction by ZEFSAII (Michael W. Deem and Ramdas Pophale) SiO2 
 PCOD9258972
Probable space group: C 2/C
;
_chemical_formula_sum "Si O2"
_cell_formula_units_Z 52
_cell_length_a 18.880630
_cell_length_b 18.414149
_cell_length_c 5.648365
_cell_angle_alpha 90.000000
_cell_angle_beta 115.692842
_cell_angle_gamma 90.000000
_cell_volume 1769.615487
_symmetry_space_group_name_H-M "C 2/C"
_symmetry_group_IT_number 15
_symmetry_cell_setting 'monoclinic'
loop_
_space_group_symop_operation_xyz
x,y,z
-x,y,1/2-z
-x,-y,-z
x,-y,1/2+z
1/2+x,1/2+y,z
1/2-x,1/2+y,1/2-z
1/2-x,1/2-y,-z
1/2+x,1/2-y,1/2+z
loop_
_atom_site_type_symbol
_atom_site_label
_atom_site_fract_x
_atom_site_fract_y
_atom_site_fract_z
Si Si1 0.092585 0.173223 0.421548
Si Si2 0.073994 0.306953 0.724358
Si Si3 0.649907 0.083005 0.701190
Si Si4 0.715364 0.411291 0.404878
Si Si5 0.500000 0.921430 0.250000
Si Si6 0.731762 0.321457 0.825292
Si Si7 0.073697 0.036558 0.938819
O O1 0.107387 0.245619 0.599418
O O2 0.144436 0.111738 0.628932
O O3 0.137761 0.175535 0.237088
O O4 0.000000 0.166259 0.250000
O O5 0.043860 0.370164 0.503111
O O6 0.000000 0.271862 0.750000
O O7 0.116166 0.349369 0.998945
O O8 0.710747 0.047983 0.600523
O O9 0.573747 0.044067 0.708899
O O10 0.710370 0.118629 0.974490
O O11 0.744349 0.336083 0.567610
O O12 0.666130 0.448875 0.539799
O O13 0.750000 0.250000 0.000000
O O14 0.000000 0.087900 0.750000
O O15 0.063113 0.981069 0.699059
#
# Coordination Sequence:
#
# PCOD9258972 Si02
#       7
#     8   8   8   8   4   8   8
#     4  11  24  33  53  84 118 169 219 268 318 383
#     4  10  20  33  53  80 119 170 222 260 307 373
#     4  10  21  36  55  87 117 163 214 264 317 387
#     4  11  25  39  63  91 127 164 222 277 341 409
#     4  10  18  34  58  78 122 166 216 260 306 378
#     4  11  23  37  54  83 132 169 216 271 322 389
#     4  10  25  47  75 100 131 172 226 294 357 408
#
# _framework density 29.384913000000001
#
# number of rings (size 3 to 8) (size 9 to 14) (size 15 to 20)
#    0.000    1.538    0.769    3.692   10.769    3.077 
#    0.000    0.000    0.000    0.000    0.000    1.077 
#    0.000    0.000    0.000    0.000    0.000    0.000 
#
# Total GULP energy -145309.996564 kJ/mol
# GULP energy per Si atom -5588.846022 kJ/mol
# Density = 2.931803 g / cm^3
# Si number density = 29.384913 Si / 1000 Ang^3
#
#
#
# Elastic Constant Matrix: (Units=GPa)
#
#
# Indices 1 2 3 4 5 6 
#
# 1 300.9674 36.3060 51.3959 0.0000 -13.4858 0.0000
# 2 36.3060 83.9912 35.4060 0.0000 9.0823 0.0000
# 3 51.3959 35.4060 161.9896 0.0000 22.0644 0.0000
# 4 0.0000 0.0000 0.0000 35.8495 0.0000 7.1113
# 5 -13.4858 9.0823 22.0644 0.0000 66.7628 0.0000
# 6 0.0000 0.0000 0.0000 7.1113 0.0000 43.8795
#
#
#
# Elastic Compliance Matrix: (Units=1/GPa)
#
#
# Indices 1 2 3 4 5 6 
#
# 1 0.003719 -0.001294 -0.001072 0.000000 0.001282 0.000000
# 2 -0.001294 0.013614 -0.002384 0.000000 -0.001326 0.000000
# 3 -0.001072 -0.002384 0.007351 0.000000 -0.002321 0.000000
# 4 0.000000 0.000000 0.000000 0.028821 0.000000 -0.004671
# 5 0.001282 -0.001326 -0.002321 0.000000 0.016185 0.000000
# 6 0.000000 0.000000 0.000000 -0.004671 0.000000 0.023547
#
#
# Mechanical properties :
#
#
# Convention : Reuss Voigt Hill
#
# Bulk Modulus (GPa) = 65.86389 88.12935 76.99662
# Shear Modulus (GPa) = 46.38303 57.55437 51.96870
#
# Velocity S-wave (km/s) = 3.97730 4.43045 4.20998
# Velocity P-wave (km/s) = 6.59960 7.49855 7.06339
#
# Compressibility (1/GPa) = 0.01518283
#
# Stress axis : x y z
#
# Youngs Moduli (GPa) = 268.87495 73.45377 136.04364
#
# Poissons Ratio (x) = 0.09509 0.14579
# Poissons Ratio (y) = 0.34806 0.32437
# Poissons Ratio (z) = 0.28814 0.17514
#
# Static dielectric constant tensor:
#      x y z
#    x 2.492600 0.000000 -0.027620 
#    y 0.000000 2.518200 0.000000 
#    z -0.027620 0.000000 2.273950 
# 
# From -- ./inp_files/11344.got.cif
#   From: 2010.05.17/outbox.cif.g08.bks.cpg/sg15_6_cif.got.tgz:11344.got - 2010.06.03 18:47:42.
