data_PCOD9258939
_publ_section_title
;
Structure prediction by ZEFSAII (Michael W. Deem and Ramdas Pophale) SiO2 
 PCOD9258939
Probable space group: C 2/C
;
_chemical_formula_sum "Si O2"
_cell_formula_units_Z 56
_cell_length_a 20.902100
_cell_length_b 17.330658
_cell_length_c 14.639797
_cell_angle_alpha 90.000000
_cell_angle_beta 28.690138
_cell_angle_gamma 90.000000
_cell_volume 2545.932399
_symmetry_space_group_name_H-M "C 2/C"
_symmetry_group_IT_number 15
_symmetry_cell_setting 'monoclinic'
loop_
_space_group_symop_operation_xyz
x,y,z
-x,y,1/2-z
-x,-y,-z
x,-y,1/2+z
1/2+x,1/2+y,z
1/2-x,1/2+y,1/2-z
1/2-x,1/2-y,-z
1/2+x,1/2-y,1/2+z
loop_
_atom_site_type_symbol
_atom_site_label
_atom_site_fract_x
_atom_site_fract_y
_atom_site_fract_z
Si Si1 0.012023 0.884905 0.063791
Si Si2 0.000000 0.875050 0.750000
Si Si3 0.185644 0.234082 0.435242
Si Si4 0.500000 0.850684 0.750000
Si Si5 0.723353 0.013763 0.305511
Si Si6 0.804214 0.995943 0.903205
Si Si7 0.670305 0.345068 0.372532
Si Si8 0.129507 0.410323 0.757883
O O1 0.057040 0.815702 0.070864
O O2 0.138888 0.939125 0.886394
O O3 0.899455 0.934789 0.252468
O O4 0.949909 0.852720 0.049309
O O5 0.102121 0.832022 0.555304
O O6 0.903896 0.928331 0.807896
O O7 0.237463 0.277092 0.279805
O O8 0.295866 0.172090 0.326462
O O9 0.133300 0.299548 0.569104
O O10 0.515374 0.897196 0.825475
O O11 0.712661 0.018993 0.428795
O O12 0.752398 0.926855 0.234270
O O13 0.613639 0.056794 0.380393
O O14 0.723698 0.027038 0.090314
#
# Coordination Sequence:
#
# PCOD9258939 Si02
#       8
#     8   4   8   4   8   8   8   8
#     4  10  18  34  57  86 125 154 190 258 310 351
#     4  12  18  33  66  90 121 146 206 268 300 341
#     4  11  23  37  58  89 131 164 201 243 314 377
#     4  12  22  39  56  88 125 170 204 248 300 383
#     4  10  19  34  58  89 120 152 198 265 306 353
#     4  11  18  35  62  97 117 146 212 258 312 358
#     4  11  20  36  58  95 117 160 207 254 301 361
#     4  11  23  38  61  89 124 162 201 254 313 369
#
# _framework density 21.99587
#
# number of rings (size 3 to 8) (size 9 to 14) (size 15 to 20)
#    0.000    1.143    4.286    5.571    0.000    0.000 
#    0.000    3.571    0.000    0.000    0.000    1.000 
#    0.000    0.000    0.000    0.000    0.000    0.000 
#
# Total GULP energy -156486.118105 kJ/mol
# GULP energy per Si atom -5588.789932 kJ/mol
# Density = 2.194581 g / cm^3
# Si number density = 21.995870 Si / 1000 Ang^3
#
#
#
# Elastic Constant Matrix: (Units=GPa)
#
#
# Indices 1 2 3 4 5 6 
#
# 1 134.1841 37.0665 10.6080 0.0000 8.5643 0.0000
# 2 37.0665 38.4123 4.0756 0.0000 -1.5528 0.0000
# 3 10.6080 4.0756 48.9417 0.0001 17.9333 0.0000
# 4 0.0000 0.0000 0.0001 -6.9881 -0.0001 -12.6348
# 5 8.5643 -1.5528 17.9333 -0.0001 38.1293 0.0000
# 6 0.0000 0.0000 0.0000 -12.6348 0.0000 2.1110
#
#
#
# Elastic Compliance Matrix: (Units=1/GPa)
#
#
# Indices 1 2 3 4 5 6 
#
# 1 0.010453 -0.010136 -0.000495 0.000000 -0.002528 0.000000
# 2 -0.010136 0.036299 -0.002660 0.000000 0.005006 0.000000
# 3 -0.000495 -0.002660 0.025083 0.000000 -0.011794 0.000000
# 4 0.000000 0.000000 0.000000 -0.012105 0.000000 -0.072452
# 5 -0.002528 0.005006 -0.011794 0.000000 0.032545 0.000000
# 6 0.000000 0.000000 0.000000 -0.072452 0.000000 0.040072
#
#
# Mechanical properties :
#
#
# Convention : Reuss Voigt Hill
#
# Bulk Modulus (GPa) = 22.09876 36.11539 29.10708
# Shear Modulus (GPa) = 28.73322 17.96966 23.35144
#
# Velocity S-wave (km/s) = 3.61820 2.86135 3.26180
# Velocity P-wave (km/s) = 5.24631 5.23175 5.23903
#
# Compressibility (1/GPa) = 0.04525141
#
# Stress axis : x y z
#
# Youngs Moduli (GPa) = 95.66672 27.54886 39.86755
#
# Poissons Ratio (x) = 0.27924 0.01975
# Poissons Ratio (y) = 0.96971 0.10605
# Poissons Ratio (z) = 0.04739 0.07328
#
# Static dielectric constant tensor:
#      x y z
#    x 1.881510 0.000000 0.005520 
#    y 0.000000 1.799000 0.000000 
#    z 0.005520 0.000000 1.836780 
# 
# From -- ./inp_files/119290.got.cif
#   From: 2010.05.17/outbox.cif.g08.bks.cpg/sg15_60_cif.got.tgz:119290.got - 2010.06.03 18:47:42.
