data_PCOD9258490
_publ_section_title
;
Structure prediction by ZEFSAII (Michael W. Deem and Ramdas Pophale) SiO2 
 PCOD9258490
Probable space group: C 2/C
;
_chemical_formula_sum "Si O2"
_cell_formula_units_Z 64
_cell_length_a 12.009776
_cell_length_b 24.873404
_cell_length_c 9.667772
_cell_angle_alpha 90.000000
_cell_angle_beta 76.736756
_cell_angle_gamma 90.000000
_cell_volume 2810.961957
_symmetry_space_group_name_H-M "C 2/C"
_symmetry_group_IT_number 15
_symmetry_cell_setting 'monoclinic'
loop_
_space_group_symop_operation_xyz
x,y,z
-x,y,1/2-z
-x,-y,-z
x,-y,1/2+z
1/2+x,1/2+y,z
1/2-x,1/2+y,1/2-z
1/2-x,1/2-y,-z
1/2+x,1/2-y,1/2+z
loop_
_atom_site_type_symbol
_atom_site_label
_atom_site_fract_x
_atom_site_fract_y
_atom_site_fract_z
Si Si1 0.074162 0.286396 0.584874
Si Si2 0.377747 0.418166 0.356345
Si Si3 0.272954 0.928738 0.364115
Si Si4 0.236159 0.601025 0.249319
Si Si5 0.111833 0.036410 0.125134
Si Si6 0.836612 0.182215 0.061629
Si Si7 0.539905 0.115354 0.528778
Si Si8 0.093283 0.463624 0.601054
O O1 0.078245 0.230444 0.498550
O O2 0.206018 0.296575 0.589789
O O3 0.000000 0.285351 0.750000
O O4 0.033524 0.332852 0.490454
O O5 0.500000 0.412997 0.250000
O O6 0.275703 0.426016 0.275164
O O7 0.390383 0.475601 0.430671
O O8 0.360142 0.364261 0.444641
O O9 0.157374 0.924001 0.491970
O O10 0.379542 0.887996 0.358665
O O11 0.330894 0.983111 0.408729
O O12 0.290005 0.546184 0.289248
O O13 0.137674 0.616865 0.382223
O O14 0.174426 0.585423 0.125180
O O15 0.330739 0.647180 0.204419
O O16 0.000000 0.046056 0.250000
O O17 0.469016 0.059858 0.517789
O O18 0.000000 0.468266 0.750000
#
# Coordination Sequence:
#
# PCOD9258490 Si02
#       8
#     8   8   8   8   8   8   8   8
#     4  11  21  41  65  96 118 161 218 275 318 368
#     4  11  25  40  59  94 131 172 211 265 312 376
#     4  11  23  38  59  93 132 168 211 261 318 390
#     4  10  18  37  61  91 124 166 213 254 303 392
#     4  10  23  37  61  88 132 176 208 250 314 380
#     4  11  23  37  68  91 123 161 221 265 312 376
#     4  10  20  36  62  91 126 164 208 262 321 372
#     4  10  18  33  57  90 129 164 204 251 311 379
#
# _framework density 22.768006
#
# number of rings (size 3 to 8) (size 9 to 14) (size 15 to 20)
#    0.000    1.500    3.750    1.875    1.750    2.000 
#    0.000    0.000    0.000    6.000    0.000    0.000 
#    0.000    0.000    0.000    0.000    0.000    0.000 
#
# Total GULP energy -178436.210456 kJ/mol
# GULP energy per Si atom -5576.131577 kJ/mol
# Density = 2.271618 g / cm^3
# Si number density = 22.768006 Si / 1000 Ang^3
#
#
#
# Elastic Constant Matrix: (Units=GPa)
#
#
# Indices 1 2 3 4 5 6 
#
# 1 67.8690 23.7616 17.0189 0.0000 -8.7988 0.0000
# 2 23.7616 103.4156 11.4806 0.0000 -15.9486 0.0000
# 3 17.0189 11.4806 32.2749 0.0000 -23.1096 0.0000
# 4 0.0000 0.0000 0.0000 28.7798 0.0000 -7.4471
# 5 -8.7988 -15.9486 -23.1096 0.0000 40.0097 0.0000
# 6 0.0000 0.0000 0.0000 -7.4471 0.0000 26.8697
#
#
#
# Elastic Compliance Matrix: (Units=1/GPa)
#
#
# Indices 1 2 3 4 5 6 
#
# 1 0.018267 -0.003553 -0.011095 0.000000 -0.003807 0.000000
# 2 -0.003553 0.011023 0.000919 0.000000 0.004144 0.000000
# 3 -0.011095 0.000919 0.059722 0.000000 0.032422 0.000000
# 4 0.000000 0.000000 0.000000 0.037431 0.000000 0.010374
# 5 -0.003807 0.004144 0.032422 0.000000 0.044535 0.000000
# 6 0.000000 0.000000 0.000000 0.010374 0.000000 0.040092
#
#
# Mechanical properties :
#
#
# Convention : Reuss Voigt Hill
#
# Bulk Modulus (GPa) = 16.24535 34.23129 25.23832
# Shear Modulus (GPa) = 19.30171 29.21839 24.26005
#
# Velocity S-wave (km/s) = 2.91478 3.58622 3.26779
# Velocity P-wave (km/s) = 4.29867 5.67586 5.03458
#
# Compressibility (1/GPa) = 0.06155606
#
# Stress axis : x y z
#
# Youngs Moduli (GPa) = 54.74484 90.71967 16.74420
#
# Poissons Ratio (x) = 0.32229 0.18577
# Poissons Ratio (y) = 0.19448 -0.01539
# Poissons Ratio (z) = 0.60737 -0.08340
#
# Static dielectric constant tensor:
#      x y z
#    x 1.924260 0.000000 -0.022420 
#    y 0.000000 1.882060 0.000000 
#    z -0.022420 0.000000 1.936730 
# 
# From -- ./inp_files/91238.got.cif
#   From: 2010.05.17/outbox.cif.g08.bks.cpg/sg15_46_cif.got.tgz:91238.got - 2010.06.03 18:47:42.
