data_PCOD9258647
_publ_section_title
;
Structure prediction by ZEFSAII (Michael W. Deem and Ramdas Pophale) SiO2 
 PCOD9258647
Probable space group: C 2/C
;
_chemical_formula_sum "Si O2"
_cell_formula_units_Z 60
_cell_length_a 10.956290
_cell_length_b 14.179490
_cell_length_c 19.815129
_cell_angle_alpha 90.000000
_cell_angle_beta 61.365311
_cell_angle_gamma 90.000000
_cell_volume 2701.865132
_symmetry_space_group_name_H-M "C 2/C"
_symmetry_group_IT_number 15
_symmetry_cell_setting 'monoclinic'
loop_
_space_group_symop_operation_xyz
x,y,z
-x,y,1/2-z
-x,-y,-z
x,-y,1/2+z
1/2+x,1/2+y,z
1/2-x,1/2+y,1/2-z
1/2-x,1/2-y,-z
1/2+x,1/2-y,1/2+z
loop_
_atom_site_type_symbol
_atom_site_label
_atom_site_fract_x
_atom_site_fract_y
_atom_site_fract_z
Si Si1 0.475797 0.703810 0.980563
Si Si2 0.021489 0.394627 0.466819
Si Si3 0.500000 0.978929 0.750000
Si Si4 0.122909 0.911723 0.674054
Si Si5 0.795840 0.554362 0.696961
Si Si6 0.774922 0.939009 0.597380
Si Si7 0.275346 0.385643 0.001228
Si Si8 0.549105 0.427559 0.347501
O O1 0.352786 0.656527 0.056723
O O2 0.620996 0.671862 0.978170
O O3 0.463549 0.815517 0.980838
O O4 0.479308 0.654273 0.907767
O O5 0.887792 0.364202 0.457903
O O6 0.000000 0.500000 0.500000
O O7 0.152515 0.396773 0.383758
O O8 0.420552 0.041821 0.716083
O O9 0.625509 0.929468 0.673952
O O10 0.244660 0.947926 0.690784
O O11 0.000000 0.862697 0.750000
O O12 0.056078 0.010215 0.666919
O O13 0.175319 0.870767 0.589419
O O14 0.671545 0.607115 0.766933
O O15 0.776039 0.006930 0.530522
O O16 0.875358 0.997801 0.621758
#
# Coordination Sequence:
#
# PCOD9258647 Si02
#       8
#     8   8   4   8   8   8   8   8
#     4  11  22  39  66  96 124 167 219 266 305 384
#     4  12  25  41  60  91 134 171 210 264 326 374
#     4  10  20  36  64  94 122 174 208 254 322 388
#     4  10  18  33  63  92 124 163 204 258 318 378
#     4  10  21  37  61  87 129 172 204 255 324 379
#     4  10  18  35  67  92 125 160 212 255 317 377
#     4  11  19  39  63  93 126 164 210 260 316 380
#     4   9  18  37  63  95 121 165 213 258 319 379
#
# _framework density 22.206880999999999
#
# number of rings (size 3 to 8) (size 9 to 14) (size 15 to 20)
#    0.000    1.600    5.333    1.200    0.000    0.000 
#    0.000    6.667    4.400    0.000    0.000    0.000 
#    0.000    0.000    0.000    0.000    0.000    0.000 
#
# Total GULP energy -167450.317675 kJ/mol
# GULP energy per Si atom -5581.677256 kJ/mol
# Density = 2.215634 g / cm^3
# Si number density = 22.206881 Si / 1000 Ang^3
#
#
#
# Elastic Constant Matrix: (Units=GPa)
#
#
# Indices 1 2 3 4 5 6 
#
# 1 52.5823 -1.3893 1.5270 0.0000 -8.5743 0.0000
# 2 -1.3893 92.5872 27.4561 0.0000 -13.5511 0.0000
# 3 1.5270 27.4561 133.8570 0.0000 -21.2863 0.0000
# 4 0.0000 0.0000 0.0000 13.3679 0.0000 3.0727
# 5 -8.5743 -13.5511 -21.2863 0.0000 40.0296 0.0000
# 6 0.0000 0.0000 0.0000 3.0727 0.0000 7.6948
#
#
#
# Elastic Compliance Matrix: (Units=1/GPa)
#
#
# Indices 1 2 3 4 5 6 
#
# 1 0.019802 0.000887 0.000343 0.000000 0.004724 0.000000
# 2 0.000887 0.011853 -0.001937 0.000000 0.003172 0.000000
# 3 0.000343 -0.001937 0.008489 0.000000 0.003932 0.000000
# 4 0.000000 0.000000 0.000000 0.082366 0.000000 -0.032891
# 5 0.004724 0.003172 0.003932 0.000000 0.029158 0.000000
# 6 0.000000 0.000000 0.000000 -0.032891 0.000000 0.143091
#
#
# Mechanical properties :
#
#
# Convention : Reuss Voigt Hill
#
# Bulk Modulus (GPa) = 25.81948 37.13491 31.47720
# Shear Modulus (GPa) = 16.17688 28.98065 22.57877
#
# Velocity S-wave (km/s) = 2.70193 3.61644 3.19211
# Velocity P-wave (km/s) = 4.62450 5.84780 5.27175
#
# Compressibility (1/GPa) = 0.03873044
#
# Stress axis : x y z
#
# Youngs Moduli (GPa) = 50.50088 84.36975 117.79516
#
# Poissons Ratio (x) = -0.07481 -0.04046
# Poissons Ratio (y) = -0.04478 0.22814
# Poissons Ratio (z) = -0.01735 0.16341
#
# Static dielectric constant tensor:
#      x y z
#    x 1.875810 0.000000 -0.008100 
#    y 0.000000 1.808230 0.000000 
#    z -0.008100 0.000000 1.842600 
# 
# From -- ./inp_files/238701.got.cif
#   From: 2010.05.17/outbox.cif.g08.bks.cpg/sg15_120_cif.got.tgz:238701.got - 2010.06.03 18:47:42.
