data_PCOD9258790
_publ_section_title
;
Structure prediction by ZEFSAII (Michael W. Deem and Ramdas Pophale) SiO2 
 PCOD9258790
Probable space group: C 2/C
;
_chemical_formula_sum "Si O2"
_cell_formula_units_Z 44
_cell_length_a 12.946230
_cell_length_b 22.120492
_cell_length_c 9.213578
_cell_angle_alpha 90.000000
_cell_angle_beta 109.151088
_cell_angle_gamma 90.000000
_cell_volume 2492.530375
_symmetry_space_group_name_H-M "C 2/C"
_symmetry_group_IT_number 15
_symmetry_cell_setting 'monoclinic'
loop_
_space_group_symop_operation_xyz
x,y,z
-x,y,1/2-z
-x,-y,-z
x,-y,1/2+z
1/2+x,1/2+y,z
1/2-x,1/2+y,1/2-z
1/2-x,1/2-y,-z
1/2+x,1/2-y,1/2+z
loop_
_atom_site_type_symbol
_atom_site_label
_atom_site_fract_x
_atom_site_fract_y
_atom_site_fract_z
Si Si1 0.068776 0.694162 0.522395
Si Si2 0.000000 0.222927 0.250000
Si Si3 0.500000 0.716516 0.750000
Si Si4 0.913238 0.419815 0.933798
Si Si5 0.712619 0.698389 0.702205
Si Si6 0.734090 0.329237 0.880484
Si Si7 0.000000 0.515723 0.750000
O O1 0.190072 0.684258 0.641232
O O2 0.002828 0.731597 0.615384
O O3 0.067691 0.739490 0.387224
O O4 0.005767 0.632320 0.459317
O O5 0.106752 0.181645 0.291755
O O6 0.592758 0.680715 0.703991
O O7 0.928924 0.444541 0.105165
O O8 0.797158 0.387862 0.857217
O O9 0.931864 0.472580 0.826442
O O10 0.744254 0.672533 0.559615
O O11 0.711205 0.770545 0.669058
#
# Coordination Sequence:
#
# PCOD9258790 Si02
#       7
#     8   4   4   8   8   8   4
#     4  11  20  32  55  78 115 147 171 212 266 322
#     4  10  19  34  54  85 109 144 179 194 258 354
#     4  12  19  32  44  83 119 142 174 213 234 328
#     4  11  20  38  57  76 107 139 180 229 274 302
#     4  10  20  31  49  81 112 149 176 202 255 334
#     4  10  18  34  55  75 108 144 178 211 264 325
#     4  10  24  36  54  82  98 132 193 237 262 306
#
# _framework density 17.652743999999998
#
# number of rings (size 3 to 8) (size 9 to 14) (size 15 to 20)
#    0.000    1.455    3.636    4.909    0.000    0.000 
#    0.000    0.000    0.000    1.091    0.000    5.091 
#    0.000    0.000    0.000    0.000    0.000    0.000 
#
# Total GULP energy -122759.172557 kJ/mol
# GULP energy per Si atom -5579.962389 kJ/mol
# Density = 1.761257 g / cm^3
# Si number density = 17.652744 Si / 1000 Ang^3
#
#
#
# Elastic Constant Matrix: (Units=GPa)
#
#
# Indices 1 2 3 4 5 6 
#
# 1 98.4921 8.1165 -7.6808 0.0000 7.7561 0.0000
# 2 8.1165 41.3459 -15.7082 0.0000 -0.0076 0.0000
# 3 -7.6808 -15.7082 31.7085 0.0000 -5.9330 0.0000
# 4 0.0000 0.0000 0.0000 7.4359 0.0000 0.8763
# 5 7.7561 -0.0076 -5.9330 0.0000 30.2844 0.0000
# 6 0.0000 0.0000 0.0000 0.8763 0.0000 18.1806
#
#
#
# Elastic Compliance Matrix: (Units=1/GPa)
#
#
# Indices 1 2 3 4 5 6 
#
# 1 0.010579 -0.001574 0.001324 0.000000 -0.002450 0.000000
# 2 -0.001574 0.030294 0.015263 0.000000 0.003401 0.000000
# 3 0.001324 0.015263 0.040854 0.000000 0.007668 0.000000
# 4 0.000000 0.000000 0.000000 0.135252 0.000000 -0.006519
# 5 -0.002450 0.003401 0.007668 0.000000 0.035151 0.000000
# 6 0.000000 0.000000 0.000000 -0.006519 0.000000 0.055318
#
#
# Mechanical properties :
#
#
# Convention : Reuss Voigt Hill
#
# Bulk Modulus (GPa) = 8.94827 15.66684 12.30755
# Shear Modulus (GPa) = 15.88950 23.63477 19.76213
#
# Velocity S-wave (km/s) = 3.00345 3.66303 3.34951
# Velocity P-wave (km/s) = 4.13614 5.17539 4.68467
#
# Compressibility (1/GPa) = 0.11175344
#
# Stress axis : x y z
#
# Youngs Moduli (GPa) = 94.52652 33.00938 24.47741
#
# Poissons Ratio (x) = 0.05196 -0.03242
# Poissons Ratio (y) = 0.14879 -0.37359
# Poissons Ratio (z) = -0.12518 -0.50381
#
# Static dielectric constant tensor:
#      x y z
#    x 1.624310 0.000000 -0.002230 
#    y 0.000000 1.569440 0.000000 
#    z -0.002230 0.000000 1.648600 
# 
# From -- ./inp_files/30889.got.cif
#   From: 2010.05.17/outbox.cif.g08.bks.cpg/sg15_16_cif.got.tgz:30889.got - 2010.06.03 18:47:42.
