data_PCOD9258822
_publ_section_title
;
Structure prediction by ZEFSAII (Michael W. Deem and Ramdas Pophale) SiO2 
 PCOD9258822
Probable space group: C 2/C
;
_chemical_formula_sum "Si O2"
_cell_formula_units_Z 48
_cell_length_a 29.716545
_cell_length_b 16.576910
_cell_length_c 15.651011
_cell_angle_alpha 90.000000
_cell_angle_beta 18.453770
_cell_angle_gamma 90.000000
_cell_volume 2440.461962
_symmetry_space_group_name_H-M "C 2/C"
_symmetry_group_IT_number 15
_symmetry_cell_setting 'monoclinic'
loop_
_space_group_symop_operation_xyz
x,y,z
-x,y,1/2-z
-x,-y,-z
x,-y,1/2+z
1/2+x,1/2+y,z
1/2-x,1/2+y,1/2-z
1/2-x,1/2-y,-z
1/2+x,1/2-y,1/2+z
loop_
_atom_site_type_symbol
_atom_site_label
_atom_site_fract_x
_atom_site_fract_y
_atom_site_fract_z
Si Si1 0.615057 0.847804 0.790602
Si Si2 0.845955 0.118036 0.566667
Si Si3 0.721276 0.558304 0.370945
Si Si4 0.059164 0.317079 0.553084
Si Si5 0.104868 0.837325 0.333057
Si Si6 0.455965 0.631087 0.946607
O O1 0.648168 0.909135 0.807817
O O2 0.495361 0.861603 0.933925
O O3 0.758532 0.844602 0.474814
O O4 0.588057 0.758626 0.877928
O O5 0.865204 0.117676 0.633545
O O6 0.780115 0.034694 0.651053
O O7 0.728533 0.183807 0.753929
O O8 0.000000 0.131583 0.250000
O O9 0.580136 0.576275 0.682277
O O10 0.686885 0.606979 0.345332
O O11 0.006532 0.224562 0.640906
O O12 0.000000 0.350246 0.750000
O O13 0.971274 0.872549 0.520906
#
# Coordination Sequence:
#
# PCOD9258822 Si02
#       6
#     8   8   8   8   8   8
#     4   9  18  35  62  90 107 158 211 259 265 353
#     4  12  24  36  52  93 132 156 181 252 324 357
#     4  10  18  34  55  86 126 152 190 242 314 341
#     4  11  19  36  65  89 110 154 217 247 276 349
#     4   9  18  33  61  90 114 145 216 247 286 339
#     4   9  17  35  61  86 107 156 207 246 272 353
#
# _framework density 19.668407999999999
#
# number of rings (size 3 to 8) (size 9 to 14) (size 15 to 20)
#    0.000    2.000    5.000    2.000    0.000    1.333 
#    0.000    3.333    0.000    4.000    0.000    0.000 
#    0.000    0.000    0.000    0.000    0.000    0.000 
#
# Total GULP energy -133708.199010 kJ/mol
# GULP energy per Si atom -5571.174959 kJ/mol
# Density = 1.962364 g / cm^3
# Si number density = 19.668408 Si / 1000 Ang^3
#
#
#
# Elastic Constant Matrix: (Units=GPa)
#
#
# Indices 1 2 3 4 5 6 
#
# 1 141.8247 27.0482 15.8902 0.0000 -14.6767 -0.0005
# 2 27.0482 46.0047 7.2205 0.0000 12.6679 0.0002
# 3 15.8902 7.2205 23.9421 0.0000 -8.8237 0.0001
# 4 0.0000 0.0000 0.0000 4.8713 0.0000 2.4216
# 5 -14.6767 12.6679 -8.8237 0.0000 18.0608 -0.0004
# 6 -0.0005 0.0002 0.0001 2.4216 -0.0004 27.7982
#
#
#
# Elastic Compliance Matrix: (Units=1/GPa)
#
#
# Indices 1 2 3 4 5 6 
#
# 1 0.011014 -0.012364 0.003553 0.000000 0.019359 0.000001
# 2 -0.012364 0.049645 -0.028419 0.000000 -0.058753 -0.000001
# 3 0.003553 -0.028419 0.068773 -0.000001 0.056420 0.000001
# 4 0.000000 0.000000 -0.000001 0.214575 -0.000001 -0.018692
# 5 0.019359 -0.058753 0.056420 -0.000001 0.139874 0.000003
# 6 0.000001 -0.000001 0.000001 -0.018692 0.000003 0.037602
#
#
# Mechanical properties :
#
#
# Convention : Reuss Voigt Hill
#
# Bulk Modulus (GPa) = 18.19091 34.67659 26.43375
# Shear Modulus (GPa) = 8.13978 20.92024 14.53001
#
# Velocity S-wave (km/s) = 2.03654 3.26490 2.72094
# Velocity P-wave (km/s) = 3.84693 5.64638 4.83117
#
# Compressibility (1/GPa) = 0.05497251
#
# Stress axis : x y z
#
# Youngs Moduli (GPa) = 90.79199 20.14305 14.54059
#
# Poissons Ratio (x) = 0.24905 -0.05167
# Poissons Ratio (y) = 1.12255 0.41323
# Poissons Ratio (z) = -0.32260 0.57244
#
# Static dielectric constant tensor:
#      x y z
#    x 1.767600 0.000000 -0.024720 
#    y 0.000000 1.696910 0.000000 
#    z -0.024720 0.000000 1.669840 
# 
# From -- ./inp_files/182425.got.cif
#   From: 2010.05.17/outbox.cif.g08.bks.cpg/sg15_92_cif.got.tgz:182425.got - 2010.06.03 18:47:42.
