data_PCOD9258286
_publ_section_title
;
Structure prediction by ZEFSAII (Michael W. Deem and Ramdas Pophale) SiO2 
 PCOD9258286
Probable space group: C 2/C
;
_chemical_formula_sum "Si O2"
_cell_formula_units_Z 56
_cell_length_a 12.131403
_cell_length_b 31.664017
_cell_length_c 7.139298
_cell_angle_alpha 90.000000
_cell_angle_beta 107.964214
_cell_angle_gamma 90.000000
_cell_volume 2608.716695
_symmetry_space_group_name_H-M "C 2/C"
_symmetry_group_IT_number 15
_symmetry_cell_setting 'monoclinic'
loop_
_space_group_symop_operation_xyz
x,y,z
-x,y,1/2-z
-x,-y,-z
x,-y,1/2+z
1/2+x,1/2+y,z
1/2-x,1/2+y,1/2-z
1/2-x,1/2-y,-z
1/2+x,1/2-y,1/2+z
loop_
_atom_site_type_symbol
_atom_site_label
_atom_site_fract_x
_atom_site_fract_y
_atom_site_fract_z
Si Si1 0.862845 0.035200 0.141721
Si Si2 0.000000 0.337951 0.250000
Si Si3 0.111527 0.690177 0.177343
Si Si4 0.613856 0.283753 0.178157
Si Si5 0.264895 0.136505 0.756362
Si Si6 0.363255 0.558576 0.713762
Si Si7 0.296100 0.377158 0.716512
Si Si8 0.500000 0.680143 0.250000
O O1 0.810594 0.072202 0.245826
O O2 0.000000 0.032695 0.250000
O O3 0.821751 0.986762 0.116336
O O4 0.850631 0.051102 0.927064
O O5 0.903611 0.363826 0.315053
O O6 0.069351 0.311706 0.439950
O O7 0.164410 0.736704 0.228696
O O8 0.193571 0.650083 0.253310
O O9 0.000000 0.687691 0.250000
O O10 0.500000 0.287541 0.250000
O O11 0.709776 0.318513 0.278981
O O12 0.569375 0.292965 0.941773
O O13 0.210282 0.100525 0.858788
O O14 0.225238 0.129461 0.519051
O O15 0.500000 0.565314 0.750000
O O16 0.414405 0.351790 0.815678
#
# Coordination Sequence:
#
# PCOD9258286 Si02
#       8
#     8   4   8   8   8   8   8   4
#     4  10  18  33  53  82 113 141 171 223 281 330
#     4  10  21  40  58  76 110 152 192 220 271 320
#     4  10  22  39  55  80 110 149 187 232 265 322
#     4  10  21  36  55  83 115 138 187 229 274 329
#     4   9  20  36  57  79 110 149 178 230 268 322
#     4  10  19  33  54  84 113 137 176 223 279 330
#     4   9  19  35  56  77 113 139 186 223 273 331
#     4  10  19  34  56  82 104 152 172 224 287 322
#
# _framework density 21.466493
#
# number of rings (size 3 to 8) (size 9 to 14) (size 15 to 20)
#    0.000    2.286    0.714    2.571    0.000    7.429 
#    7.714    2.857    1.571    2.571    0.000    0.000 
#    0.000    0.000    0.000    0.000    0.000    0.000 
#
# Total GULP energy -156278.292477 kJ/mol
# GULP energy per Si atom -5581.367588 kJ/mol
# Density = 2.141763 g / cm^3
# Si number density = 21.466493 Si / 1000 Ang^3
#
#
#
# Elastic Constant Matrix: (Units=GPa)
#
#
# Indices 1 2 3 4 5 6 
#
# 1 108.1715 92.0709 -4.4757 0.0000 -6.5424 0.0000
# 2 92.0709 211.8482 20.7740 0.0000 -2.6277 0.0000
# 3 -4.4757 20.7740 42.6700 0.0000 -6.2093 0.0000
# 4 0.0000 0.0000 0.0000 30.6540 0.0000 13.8996
# 5 -6.5424 -2.6277 -6.2093 0.0000 24.4197 0.0000
# 6 0.0000 0.0000 0.0000 13.8996 0.0000 68.4067
#
#
#
# Elastic Compliance Matrix: (Units=1/GPa)
#
#
# Indices 1 2 3 4 5 6 
#
# 1 0.016299 -0.007625 0.006166 0.000000 0.005114 0.000000
# 2 -0.007625 0.008524 -0.005310 0.000000 -0.002476 0.000000
# 3 0.006166 -0.005310 0.027856 0.000000 0.008163 0.000000
# 4 0.000000 0.000000 0.000000 0.035933 0.000000 -0.007301
# 5 0.005114 -0.002476 0.008163 0.000000 0.044130 0.000000
# 6 0.000000 0.000000 0.000000 -0.007301 0.000000 0.016102
#
#
# Mechanical properties :
#
#
# Convention : Reuss Voigt Hill
#
# Bulk Modulus (GPa) = 25.54878 64.38091 44.96484
# Shear Modulus (GPa) = 28.50168 41.65080 35.07624
#
# Velocity S-wave (km/s) = 3.64775 4.40963 4.04666
# Velocity P-wave (km/s) = 5.44693 7.48217 6.54415
#
# Compressibility (1/GPa) = 0.03914082
#
# Stress axis : x y z
#
# Youngs Moduli (GPa) = 61.35362 117.31326 35.89948
#
# Poissons Ratio (x) = 0.89450 -0.22136
# Poissons Ratio (y) = 0.46781 0.19063
# Poissons Ratio (z) = -0.37831 0.62294
#
# Static dielectric constant tensor:
#      x y z
#    x 1.787400 0.000000 -0.046860 
#    y 0.000000 1.846950 0.000000 
#    z -0.046860 0.000000 1.865050 
# 
# From -- ./inp_files/35336.got.cif
#   From: 2010.05.17/outbox.cif.g08.bks.cpg/sg15_18_cif.got.tgz:35336.got - 2010.06.03 18:47:42.
