data_PCOD9258639
_publ_section_title
;
Structure prediction by ZEFSAII (Michael W. Deem and Ramdas Pophale) SiO2 
 PCOD9258639
Probable space group: C 2/C
;
_chemical_formula_sum "Si O2"
_cell_formula_units_Z 44
_cell_length_a 11.354905
_cell_length_b 21.072441
_cell_length_c 12.920420
_cell_angle_alpha 90.000000
_cell_angle_beta 131.246936
_cell_angle_gamma 90.000000
_cell_volume 2324.452447
_symmetry_space_group_name_H-M "C 2/C"
_symmetry_group_IT_number 15
_symmetry_cell_setting 'monoclinic'
loop_
_space_group_symop_operation_xyz
x,y,z
-x,y,1/2-z
-x,-y,-z
x,-y,1/2+z
1/2+x,1/2+y,z
1/2-x,1/2+y,1/2-z
1/2-x,1/2-y,-z
1/2+x,1/2-y,1/2+z
loop_
_atom_site_type_symbol
_atom_site_label
_atom_site_fract_x
_atom_site_fract_y
_atom_site_fract_z
Si Si1 0.500000 0.912384 0.250000
Si Si2 0.914213 0.399511 0.427792
Si Si3 0.333454 0.454167 0.505461
Si Si4 0.657261 0.185949 0.416650
Si Si5 0.604908 0.584822 0.041668
Si Si6 0.734020 0.030837 0.163767
O O1 0.453309 0.878332 0.331722
O O2 0.652013 0.953995 0.365806
O O3 0.884908 0.346822 0.497548
O O4 0.781449 0.454505 0.348440
O O5 0.063761 0.438379 0.554694
O O6 0.402524 0.525068 0.539421
O O7 0.431655 0.406722 0.489477
O O8 0.328604 0.439700 0.623136
O O9 0.500000 0.191623 0.250000
O O10 0.750000 0.250000 0.500000
O O11 0.789279 0.141095 0.439687
O O12 0.695764 0.554520 0.190288
#
# Coordination Sequence:
#
# PCOD9258639 Si02
#       6
#     4   8   8   8   8   8
#     4  10  20  36  60  96 132 158 202 264 344 396
#     4  10  20  35  66  94 126 172 210 264 334 391
#     4  10  21  32  58 100 130 164 196 274 336 397
#     4  12  27  47  68  92 135 187 230 267 315 394
#     4  11  21  37  60  92 134 166 218 262 334 391
#     4  10  18  33  62  95 129 160 206 268 337 397
#
# _framework density 18.929188
#
# number of rings (size 3 to 8) (size 9 to 14) (size 15 to 20)
#    0.000    1.455    5.455    0.545    1.273    1.455 
#    0.000    0.000    4.000    3.273    0.000    0.000 
#    0.000    0.000    0.000    0.000    0.000    0.000 
#
# Total GULP energy -122471.469565 kJ/mol
# GULP energy per Si atom -5566.884980 kJ/mol
# Density = 1.888610 g / cm^3
# Si number density = 18.929188 Si / 1000 Ang^3
#
#
#
# Elastic Constant Matrix: (Units=GPa)
#
#
# Indices 1 2 3 4 5 6 
#
# 1 147.2650 62.3949 45.3634 0.0000 -7.0581 0.0000
# 2 62.3949 99.4786 40.5697 0.0000 -5.7201 0.0000
# 3 45.3634 40.5697 76.9528 0.0000 -3.5577 0.0000
# 4 0.0000 0.0000 0.0000 22.7346 0.0000 -1.0405
# 5 -7.0581 -5.7201 -3.5577 0.0000 38.6986 0.0000
# 6 0.0000 0.0000 0.0000 -1.0405 0.0000 26.5224
#
#
#
# Elastic Compliance Matrix: (Units=1/GPa)
#
#
# Indices 1 2 3 4 5 6 
#
# 1 0.009870 -0.004825 -0.003238 0.000000 0.000789 0.000000
# 2 -0.004825 0.015227 -0.005142 0.000000 0.000898 0.000000
# 3 -0.003238 -0.005142 0.017627 0.000000 0.000270 0.000000
# 4 0.000000 0.000000 0.000000 0.044065 0.000000 0.001729
# 5 0.000789 0.000898 0.000270 0.000000 0.026142 0.000000
# 6 0.000000 0.000000 0.000000 0.001729 0.000000 0.037772
#
#
# Mechanical properties :
#
#
# Convention : Reuss Voigt Hill
#
# Bulk Modulus (GPa) = 61.29558 68.92805 65.11181
# Shear Modulus (GPa) = 27.38946 29.28235 28.33591
#
# Velocity S-wave (km/s) = 3.80800 3.93739 3.87323
# Velocity P-wave (km/s) = 7.19627 7.56064 7.38071
#
# Compressibility (1/GPa) = 0.01631439
#
# Stress axis : x y z
#
# Youngs Moduli (GPa) = 101.31740 65.67157 56.72983
#
# Poissons Ratio (x) = 0.31684 0.18371
# Poissons Ratio (y) = 0.48882 0.29172
# Poissons Ratio (z) = 0.32809 0.33770
#
# Static dielectric constant tensor:
#      x y z
#    x 1.749240 0.000000 0.023970 
#    y 0.000000 1.631310 0.000000 
#    z 0.023970 0.000000 1.727100 
# 
# From -- ./inp_files/145854.got.cif
#   From: 2010.05.17/outbox.cif.g08.bks.cpg/sg15_73_cif.got.tgz:145854.got - 2010.06.03 18:47:42.
