data_PCOD9258081
_publ_section_title
;
Structure prediction by ZEFSAII (Michael W. Deem and Ramdas Pophale) SiO2 
 PCOD9258081
Probable space group: C 2/C
;
_chemical_formula_sum "Si O2"
_cell_formula_units_Z 40
_cell_length_a 16.375463
_cell_length_b 7.208888
_cell_length_c 19.039195
_cell_angle_alpha 90.000000
_cell_angle_beta 47.090741
_cell_angle_gamma 90.000000
_cell_volume 1646.183647
_symmetry_space_group_name_H-M "C 2/C"
_symmetry_group_IT_number 15
_symmetry_cell_setting 'monoclinic'
loop_
_space_group_symop_operation_xyz
x,y,z
-x,y,1/2-z
-x,-y,-z
x,-y,1/2+z
1/2+x,1/2+y,z
1/2-x,1/2+y,1/2-z
1/2-x,1/2-y,-z
1/2+x,1/2-y,1/2+z
loop_
_atom_site_type_symbol
_atom_site_label
_atom_site_fract_x
_atom_site_fract_y
_atom_site_fract_z
Si Si1 0.922003 0.735394 0.594120
Si Si2 0.219484 0.901453 0.119950
Si Si3 0.624668 0.257615 0.731760
Si Si4 0.365692 0.360421 0.087918
Si Si5 0.704670 0.001974 0.571410
O O1 0.814637 0.648837 0.620325
O O2 0.941455 0.681673 0.663142
O O3 0.031943 0.723023 0.482226
O O4 0.900406 0.958576 0.610526
O O5 0.179253 0.708779 0.109370
O O6 0.123597 0.029051 0.209070
O O7 0.278954 0.012859 0.021086
O O8 0.754234 0.232180 0.681780
O O9 0.622545 0.136001 0.662329
O O10 0.324122 0.443867 0.037114
#
# Coordination Sequence:
#
# PCOD9258081 Si02
#       5
#     8   8   8   8   8
#     4  10  18  34  55  87 112 149 186 244 282 344
#     4  10  18  32  59  76 109 151 186 232 292 337
#     4  10  19  33  58  80 108 151 192 232 287 346
#     4   8  19  34  52  82 118 140 190 234 289 340
#     4   8  19  36  52  81 109 150 188 232 287 349
#
# _framework density 24.298625999999999
#
# number of rings (size 3 to 8) (size 9 to 14) (size 15 to 20)
#    1.200    1.600    0.000    1.800    0.000    0.800 
#    0.000    1.000    0.000    2.400    0.000    0.000 
#    0.000    0.000    0.000    0.000    0.000    0.000 
#
# Total GULP energy -111605.285914 kJ/mol
# GULP energy per Si atom -5580.264296 kJ/mol
# Density = 2.424332 g / cm^3
# Si number density = 24.298626 Si / 1000 Ang^3
#
#
#
# Elastic Constant Matrix: (Units=GPa)
#
#
# Indices 1 2 3 4 5 6 
#
# 1 67.6214 -7.4883 25.6613 0.0000 14.2125 0.0000
# 2 -7.4883 62.5809 -2.1445 0.0000 9.2216 0.0001
# 3 25.6613 -2.1445 90.5354 0.0000 36.9036 0.0000
# 4 0.0000 0.0000 0.0000 6.4710 0.0000 16.3693
# 5 14.2125 9.2216 36.9036 0.0000 41.4270 0.0000
# 6 0.0000 0.0001 0.0000 16.3693 0.0000 11.5575
#
#
#
# Elastic Compliance Matrix: (Units=1/GPa)
#
#
# Indices 1 2 3 4 5 6 
#
# 1 0.017055 0.002418 -0.003411 0.000000 -0.003351 0.000000
# 2 0.002418 0.017388 0.002579 0.000000 -0.006997 0.000000
# 3 -0.003411 0.002579 0.018575 0.000000 -0.015951 0.000000
# 4 0.000000 0.000000 0.000000 -0.059833 0.000000 0.084743
# 5 -0.003351 -0.006997 -0.015951 0.000000 0.041055 0.000000
# 6 0.000000 0.000000 0.000000 0.084743 0.000000 -0.033500
#
#
# Mechanical properties :
#
#
# Convention : Reuss Voigt Hill
#
# Bulk Modulus (GPa) = 17.79725 28.08829 22.94277
# Shear Modulus (GPa) = 306.77627 25.53839 166.15733
#
# Velocity S-wave (km/s) = 11.24840 3.24546 8.27827
# Velocity P-wave (km/s) = 13.26810 5.06249 10.04169
#
# Compressibility (1/GPa) = 0.05618845
#
# Stress axis : x y z
#
# Youngs Moduli (GPa) = 58.63539 57.51088 53.83581
#
# Poissons Ratio (x) = -0.13904 0.18363
# Poissons Ratio (y) = -0.14175 -0.13883
# Poissons Ratio (z) = 0.20000 -0.14831
#
# Static dielectric constant tensor:
#      x y z
#    x 1.983690 0.000000 -0.006510 
#    y 0.000000 1.965950 0.000000 
#    z -0.006510 0.000000 1.937710 
# 
# From -- ./inp_files/208464.got.cif
#   From: 2010.05.17/outbox.cif.g08.bks.cpg/sg15_105_cif.got.tgz:208464.got - 2010.06.03 18:47:42.
