data_PCOD9258601
_publ_section_title
;
Structure prediction by ZEFSAII (Michael W. Deem and Ramdas Pophale) SiO2 
 PCOD9258601
Probable space group: C 2/C
;
_chemical_formula_sum "Si O2"
_cell_formula_units_Z 44
_cell_length_a 9.131447
_cell_length_b 28.746922
_cell_length_c 7.807283
_cell_angle_alpha 90.000000
_cell_angle_beta 111.602421
_cell_angle_gamma 90.000000
_cell_volume 1905.470230
_symmetry_space_group_name_H-M "C 2/C"
_symmetry_group_IT_number 15
_symmetry_cell_setting 'monoclinic'
loop_
_space_group_symop_operation_xyz
x,y,z
-x,y,1/2-z
-x,-y,-z
x,-y,1/2+z
1/2+x,1/2+y,z
1/2-x,1/2+y,1/2-z
1/2-x,1/2-y,-z
1/2+x,1/2-y,1/2+z
loop_
_atom_site_type_symbol
_atom_site_label
_atom_site_fract_x
_atom_site_fract_y
_atom_site_fract_z
Si Si1 0.811296 0.347120 0.190309
Si Si2 0.450346 0.714564 0.036368
Si Si3 0.686006 0.948719 0.294713
Si Si4 0.316675 0.049345 0.111847
Si Si5 0.280202 0.351096 0.945518
Si Si6 0.000000 0.715049 0.250000
O O1 0.761181 0.399232 0.105875
O O2 0.760830 0.346793 0.369216
O O3 0.000000 0.344466 0.250000
O O4 0.727222 0.304081 0.061152
O O5 0.500000 0.726641 0.250000
O O6 0.551094 0.669595 0.021753
O O7 0.497796 0.753136 0.917952
O O8 0.500000 0.951540 0.250000
O O9 0.753506 0.998817 0.375284
O O10 0.696032 0.946563 0.096305
O O11 0.500000 0.050758 0.250000
O O12 0.237576 0.097107 0.136592
O O13 0.151330 0.317657 0.805588
#
# Coordination Sequence:
#
# PCOD9258601 Si02
#       6
#     8   8   8   8   8   4
#     4  10  23  45  70 103 139 183 229 280 345 416
#     4  12  28  46  73 102 139 181 232 291 351 406
#     4   9  18  31  59  93 135 175 220 274 329 408
#     4  10  18  33  60  95 133 177 223 273 338 402
#     4  11  24  45  70  97 139 185 227 293 343 407
#     4  12  26  50  70  98 142 182 236 286 350 406
#
# _framework density 23.091415000000001
#
# number of rings (size 3 to 8) (size 9 to 14) (size 15 to 20)
#    0.000    1.455    2.727    2.727    2.545    4.364 
#    0.000    0.909    0.000    0.000    0.000    0.000 
#    0.000    0.000    0.000    0.000    0.000    0.000 
#
# Total GULP energy -123014.750498 kJ/mol
# GULP energy per Si atom -5591.579568 kJ/mol
# Density = 2.303886 g / cm^3
# Si number density = 23.091415 Si / 1000 Ang^3
#
#
#
# Elastic Constant Matrix: (Units=GPa)
#
#
# Indices 1 2 3 4 5 6 
#
# 1 63.6033 21.9136 14.7600 0.0000 -1.2967 0.0000
# 2 21.9136 147.2918 19.0766 0.0000 1.6014 0.0000
# 3 14.7600 19.0766 75.6046 0.0000 -18.8408 0.0000
# 4 0.0000 0.0000 0.0000 42.5757 0.0000 14.5090
# 5 -1.2967 1.6014 -18.8408 0.0000 30.5310 0.0000
# 6 0.0000 0.0000 0.0000 14.5090 0.0000 23.4361
#
#
#
# Elastic Compliance Matrix: (Units=1/GPa)
#
#
# Indices 1 2 3 4 5 6 
#
# 1 0.017152 -0.002143 -0.003070 0.000000 -0.001054 0.000000
# 2 -0.002143 0.007364 -0.001842 0.000000 -0.001614 0.000000
# 3 -0.003070 -0.001842 0.016878 0.000000 0.010382 0.000000
# 4 0.000000 0.000000 0.000000 0.029768 0.000000 -0.018429
# 5 -0.001054 -0.001614 0.010382 0.000000 0.039200 0.000000
# 6 0.000000 0.000000 0.000000 -0.018429 0.000000 0.054078
#
#
# Mechanical properties :
#
#
# Convention : Reuss Voigt Hill
#
# Bulk Modulus (GPa) = 36.65204 44.22224 40.43714
# Shear Modulus (GPa) = 26.64605 34.69185 30.66895
#
# Velocity S-wave (km/s) = 3.40065 3.88025 3.64834
# Velocity P-wave (km/s) = 5.59699 6.26639 5.94112
#
# Compressibility (1/GPa) = 0.02728361
#
# Stress axis : x y z
#
# Youngs Moduli (GPa) = 58.30312 135.79317 59.24845
#
# Poissons Ratio (x) = 0.29096 0.18192
# Poissons Ratio (y) = 0.12492 0.10914
# Poissons Ratio (z) = 0.17902 0.25014
#
# Static dielectric constant tensor:
#      x y z
#    x 2.086650 0.000000 0.065170 
#    y 0.000000 1.951500 0.000000 
#    z 0.065170 0.000000 1.863640 
# 
# From -- ./inp_files/25709.got.cif
#   From: 2010.05.17/outbox.cif.g08.bks.cpg/sg15_13_cif.got.tgz:25709.got - 2010.06.03 18:47:42.
