data_PCOD9258016
_publ_section_title
;
Structure prediction by ZEFSAII (Michael W. Deem and Ramdas Pophale) SiO2 
 PCOD9258016
Probable space group: C 2/C
;
_chemical_formula_sum "Si O2"
_cell_formula_units_Z 48
_cell_length_a 15.545763
_cell_length_b 12.455530
_cell_length_c 14.977573
_cell_angle_alpha 90.000000
_cell_angle_beta 135.615931
_cell_angle_gamma 90.000000
_cell_volume 2028.530181
_symmetry_space_group_name_H-M "C 2/C"
_symmetry_group_IT_number 15
_symmetry_cell_setting 'monoclinic'
loop_
_space_group_symop_operation_xyz
x,y,z
-x,y,1/2-z
-x,-y,-z
x,-y,1/2+z
1/2+x,1/2+y,z
1/2-x,1/2+y,1/2-z
1/2-x,1/2-y,-z
1/2+x,1/2-y,1/2+z
loop_
_atom_site_type_symbol
_atom_site_label
_atom_site_fract_x
_atom_site_fract_y
_atom_site_fract_z
Si Si1 0.751664 0.152555 0.636209
Si Si2 0.135533 0.364774 0.821281
Si Si3 0.115241 0.052664 0.206275
Si Si4 0.728818 0.258241 0.147747
Si Si5 0.161335 0.979954 0.032538
Si Si6 0.974769 0.382002 0.945234
O O1 0.832729 0.240064 0.645076
O O2 0.762226 0.190621 0.747100
O O3 0.606262 0.160738 0.508471
O O4 0.806344 0.034353 0.680888
O O5 0.244581 0.435882 0.940600
O O6 0.000000 0.393721 0.750000
O O7 0.122763 0.390575 0.706650
O O8 0.165364 0.168411 0.274621
O O9 0.134939 0.027109 0.113960
O O10 0.970235 0.034093 0.110945
O O11 0.726827 0.363534 0.084986
O O12 0.595890 0.198487 0.040798
O O13 0.000000 0.500000 0.000000
#
# Coordination Sequence:
#
# PCOD9258016 Si02
#       6
#     8   8   8   8   8   8
#     4  10  20  33  54  85 117 153 198 240 297 355
#     4  11  25  40  56  85 124 167 197 237 304 368
#     4  10  18  34  56  88 114 143 199 257 301 339
#     4  10  18  32  57  91 114 145 190 260 305 340
#     4  10  20  34  56  81 119 154 193 250 301 353
#     4  11  19  36  61  89 116 151 199 250 297 349
#
# _framework density 23.662451999999998
#
# number of rings (size 3 to 8) (size 9 to 14) (size 15 to 20)
#    0.000    1.667    5.000    2.000    7.000    0.667 
#    0.000    0.000    0.000    5.000    0.000    0.000 
#    0.000    0.000    0.000    0.000    0.000    0.000 
#
# Total GULP energy -134125.538321 kJ/mol
# GULP energy per Si atom -5588.564097 kJ/mol
# Density = 2.360860 g / cm^3
# Si number density = 23.662452 Si / 1000 Ang^3
#
#
#
# Elastic Constant Matrix: (Units=GPa)
#
#
# Indices 1 2 3 4 5 6 
#
# 1 34.3295 5.7439 10.6353 0.0000 28.2938 0.0000
# 2 5.7439 106.2689 8.9485 0.0000 14.0604 0.0000
# 3 10.6353 8.9485 102.8735 0.0000 26.9164 0.0000
# 4 0.0000 0.0000 0.0000 36.2449 0.0000 16.9632
# 5 28.2938 14.0604 26.9164 0.0000 50.2942 0.0000
# 6 0.0000 0.0000 0.0000 16.9632 0.0000 16.9231
#
#
#
# Elastic Compliance Matrix: (Units=1/GPa)
#
#
# Indices 1 2 3 4 5 6 
#
# 1 0.055127 0.001128 0.002790 0.000000 -0.032821 0.000000
# 2 0.001128 0.009797 -0.000100 0.000000 -0.003320 0.000000
# 3 0.002790 -0.000100 0.011447 0.000000 -0.007668 0.000000
# 4 0.000000 0.000000 0.000000 0.051971 0.000000 -0.052094
# 5 -0.032821 -0.003320 -0.007668 0.000000 0.043379 0.000000
# 6 0.000000 0.000000 0.000000 -0.052094 0.000000 0.111309
#
#
# Mechanical properties :
#
#
# Convention : Reuss Voigt Hill
#
# Bulk Modulus (GPa) = 11.90375 32.68079 22.29227
# Shear Modulus (GPa) = 16.48011 35.23539 25.85775
#
# Velocity S-wave (km/s) = 2.64193 3.86305 3.30930
# Velocity P-wave (km/s) = 3.78787 5.80851 4.90340
#
# Compressibility (1/GPa) = 0.08400714
#
# Stress axis : x y z
#
# Youngs Moduli (GPa) = 18.13991 102.07420 87.35731
#
# Poissons Ratio (x) = -0.11514 -0.24375
# Poissons Ratio (y) = -0.02046 0.00875
# Poissons Ratio (z) = -0.05062 0.01023
#
# Static dielectric constant tensor:
#      x y z
#    x 2.035950 0.000000 -0.056410 
#    y 0.000000 1.878500 0.000000 
#    z -0.056410 0.000000 1.892040 
# 
# From -- ./inp_files/103727.got.cif
#   From: 2010.05.17/outbox.cif.g08.bks.cpg/sg15_52_cif.got.tgz:103727.got - 2010.06.03 18:47:42.
