data_PCOD9258823
_publ_section_title
;
Structure prediction by ZEFSAII (Michael W. Deem and Ramdas Pophale) SiO2 
 PCOD9258823
Probable space group: C 2/C
;
_chemical_formula_sum "Si O2"
_cell_formula_units_Z 60
_cell_length_a 20.762213
_cell_length_b 24.070945
_cell_length_c 8.911988
_cell_angle_alpha 90.000000
_cell_angle_beta 40.737811
_cell_angle_gamma 90.000000
_cell_volume 2906.614908
_symmetry_space_group_name_H-M "C 2/C"
_symmetry_group_IT_number 15
_symmetry_cell_setting 'monoclinic'
loop_
_space_group_symop_operation_xyz
x,y,z
-x,y,1/2-z
-x,-y,-z
x,-y,1/2+z
1/2+x,1/2+y,z
1/2-x,1/2+y,1/2-z
1/2-x,1/2-y,-z
1/2+x,1/2-y,1/2+z
loop_
_atom_site_type_symbol
_atom_site_label
_atom_site_fract_x
_atom_site_fract_y
_atom_site_fract_z
Si Si1 0.810241 0.404482 0.486782
Si Si2 0.372123 0.356471 0.867729
Si Si3 0.283234 0.523105 0.794883
Si Si4 0.583308 0.477228 0.708833
Si Si5 0.122041 0.326708 0.863188
Si Si6 0.500000 0.735723 0.250000
Si Si7 0.447223 0.119341 0.482956
Si Si8 0.230034 0.354727 0.395699
O O1 0.720471 0.366511 0.579393
O O2 0.772279 0.465291 0.594551
O O3 0.853222 0.372450 0.553983
O O4 0.888587 0.412691 0.214681
O O5 0.436366 0.412380 0.726096
O O6 0.442463 0.303537 0.733288
O O7 0.325568 0.350397 0.119092
O O8 0.384249 0.515239 0.711801
O O9 0.316415 0.528428 0.565062
O O10 0.228680 0.579125 0.938177
O O11 0.500000 0.502187 0.750000
O O12 0.211762 0.322583 0.583828
O O13 0.081817 0.273480 0.023145
O O14 0.030156 0.346937 0.924588
O O15 0.363068 0.156129 0.549606
O O16 0.500000 0.088578 0.250000
#
# Coordination Sequence:
#
# PCOD9258823 Si02
#       8
#     8   8   8   8   8   4   8   8
#     4  10  19  37  57  86 118 145 182 235 276 337
#     4   9  21  37  60  81 113 148 191 228 280 347
#     4  10  20  33  58  83 114 153 181 216 284 340
#     4  10  18  34  55  87 112 146 184 227 272 341
#     4  11  21  36  60  84 116 141 195 243 277 321
#     4  12  22  38  62  82 106 150 198 240 284 318
#     4   9  18  36  56  79 112 149 181 231 271 328
#     4   9  20  39  58  82 117 149 182 226 283 345
#
# _framework density 20.642571
#
# number of rings (size 3 to 8) (size 9 to 14) (size 15 to 20)
#    0.000    2.133    2.000    2.000    0.000    1.067 
#    0.000    7.333    4.400    0.000    0.000    0.000 
#    0.000    0.000    0.000    0.000    0.000    0.000 
#
# Total GULP energy -167083.082728 kJ/mol
# GULP energy per Si atom -5569.436091 kJ/mol
# Density = 2.059559 g / cm^3
# Si number density = 20.642571 Si / 1000 Ang^3
#
#
#
# Elastic Constant Matrix: (Units=GPa)
#
#
# Indices 1 2 3 4 5 6 
#
# 1 91.4794 26.0863 -5.0509 0.0000 0.6120 0.0000
# 2 26.0863 82.6680 9.8864 0.0000 2.1573 0.0000
# 3 -5.0509 9.8864 60.6306 0.0000 16.5782 0.0000
# 4 0.0000 0.0000 0.0000 17.3807 0.0000 -5.8852
# 5 0.6120 2.1573 16.5782 0.0000 30.2538 0.0000
# 6 0.0000 0.0000 0.0000 -5.8852 0.0000 21.8724
#
#
#
# Elastic Compliance Matrix: (Units=1/GPa)
#
#
# Indices 1 2 3 4 5 6 
#
# 1 0.012204 -0.004059 0.001961 0.000000 -0.001032 0.000000
# 2 -0.004059 0.013689 -0.002736 0.000000 0.000605 0.000000
# 3 0.001961 -0.002736 0.020067 0.000000 -0.010841 0.000000
# 4 0.000000 0.000000 0.000000 0.063302 0.000000 0.017033
# 5 -0.001032 0.000605 -0.010841 0.000000 0.038972 0.000000
# 6 0.000000 0.000000 0.000000 0.017033 0.000000 0.050303
#
#
# Mechanical properties :
#
#
# Convention : Reuss Voigt Hill
#
# Bulk Modulus (GPa) = 27.55408 32.95796 30.25602
# Shear Modulus (GPa) = 22.69623 27.49180 25.09402
#
# Velocity S-wave (km/s) = 3.31945 3.65334 3.49039
# Velocity P-wave (km/s) = 5.29800 5.81348 5.56172
#
# Compressibility (1/GPa) = 0.03629227
#
# Stress axis : x y z
#
# Youngs Moduli (GPa) = 81.94093 73.05328 49.83341
#
# Poissons Ratio (x) = 0.29649 -0.09770
# Poissons Ratio (y) = 0.33256 0.13632
# Poissons Ratio (z) = -0.16065 0.19985
#
# Static dielectric constant tensor:
#      x y z
#    x 1.757560 0.000000 -0.018270 
#    y 0.000000 1.717960 0.000000 
#    z -0.018270 0.000000 1.854450 
# 
# From -- ./inp_files/58742.got.cif
#   From: 2010.05.17/outbox.cif.g08.bks.cpg/sg15_30_cif.got.tgz:58742.got - 2010.06.03 18:47:42.
