data_PCOD9258168
_publ_section_title
;
Structure prediction by ZEFSAII (Michael W. Deem and Ramdas Pophale) SiO2 
 PCOD9258168
Probable space group: C 2/C
;
_chemical_formula_sum "Si O2"
_cell_formula_units_Z 52
_cell_length_a 22.181372
_cell_length_b 9.128463
_cell_length_c 19.618509
_cell_angle_alpha 90.000000
_cell_angle_beta 41.840738
_cell_angle_gamma 90.000000
_cell_volume 2649.832903
_symmetry_space_group_name_H-M "C 2/C"
_symmetry_group_IT_number 15
_symmetry_cell_setting 'monoclinic'
loop_
_space_group_symop_operation_xyz
x,y,z
-x,y,1/2-z
-x,-y,-z
x,-y,1/2+z
1/2+x,1/2+y,z
1/2-x,1/2+y,1/2-z
1/2-x,1/2-y,-z
1/2+x,1/2-y,1/2+z
loop_
_atom_site_type_symbol
_atom_site_label
_atom_site_fract_x
_atom_site_fract_y
_atom_site_fract_z
Si Si1 0.000000 0.148416 0.750000
Si Si2 0.501739 0.547346 0.901071
Si Si3 0.664569 0.142383 0.073818
Si Si4 0.154255 0.286462 0.437499
Si Si5 0.872455 0.148162 0.590382
Si Si6 0.205930 0.473057 0.672520
Si Si7 0.100357 0.474103 0.888797
O O1 0.988981 0.059098 0.688364
O O2 0.084410 0.255997 0.668749
O O3 0.592802 0.573006 0.867994
O O4 0.432588 0.678752 0.982172
O O5 0.450798 0.402196 0.970883
O O6 0.682944 0.014839 0.112214
O O7 0.750000 0.250000 0.000000
O O8 0.648808 0.108267 0.008130
O O9 0.241264 0.181991 0.364704
O O10 0.154137 0.387205 0.372210
O O11 0.867874 0.319849 0.607692
O O12 0.779166 0.086696 0.639277
O O13 0.117444 0.469590 0.793791
O O14 0.000000 0.500000 0.000000
#
# Coordination Sequence:
#
# PCOD9258168 Si02
#       7
#     4   8   8   8   8   8   8
#     4  10  18  32  64  88 112 148 200 252 288 340
#     4   9  18  35  59  83 108 151 191 235 285 334
#     4   9  19  35  59  87 111 145 203 247 284 337
#     4   9  19  37  58  86 111 145 196 242 281 339
#     4  10  20  36  56  81 118 148 186 238 287 347
#     4  10  21  37  59  83 113 150 193 239 290 343
#     4  12  22  34  56  84 117 148 190 233 291 345
#
# _framework density 19.62388
#
# number of rings (size 3 to 8) (size 9 to 14) (size 15 to 20)
#    0.000    2.154    1.538    2.769    2.154    1.231 
#    0.000    0.769    3.385    0.000    0.000    0.000 
#    0.000    0.000    0.000    0.000    0.000    0.000 
#
# Total GULP energy -144976.391446 kJ/mol
# GULP energy per Si atom -5576.015056 kJ/mol
# Density = 1.957921 g / cm^3
# Si number density = 19.623880 Si / 1000 Ang^3
#
#
#
# Elastic Constant Matrix: (Units=GPa)
#
#
# Indices 1 2 3 4 5 6 
#
# 1 58.3161 -9.2161 19.5472 0.0000 15.5980 0.0000
# 2 -9.2161 32.2876 -1.3352 0.0002 8.9415 -0.0001
# 3 19.5472 -1.3352 90.8253 0.0000 8.3969 0.0000
# 4 0.0000 0.0002 0.0000 14.9597 -0.0001 7.2871
# 5 15.5980 8.9415 8.3969 -0.0001 40.0439 0.0001
# 6 0.0000 -0.0001 0.0000 7.2871 0.0001 20.9795
#
#
#
# Elastic Compliance Matrix: (Units=1/GPa)
#
#
# Indices 1 2 3 4 5 6 
#
# 1 0.022521 0.009040 -0.003790 0.000000 -0.009996 0.000000
# 2 0.009040 0.036768 -0.000327 -0.000001 -0.011663 0.000000
# 3 -0.003790 -0.000327 0.011909 0.000000 -0.000948 0.000000
# 4 0.000000 -0.000001 0.000000 0.080460 0.000000 -0.027947
# 5 -0.009996 -0.011663 -0.000948 0.000000 0.031669 0.000000
# 6 0.000000 0.000000 0.000000 -0.027947 0.000000 0.057373
#
#
# Mechanical properties :
#
#
# Convention : Reuss Voigt Hill
#
# Bulk Modulus (GPa) = 12.33902 22.15788 17.24845
# Shear Modulus (GPa) = 19.38982 26.69216 23.04099
#
# Velocity S-wave (km/s) = 3.14677 3.69207 3.43028
# Velocity P-wave (km/s) = 4.41637 5.43056 4.94951
#
# Compressibility (1/GPa) = 0.08104372
#
# Stress axis : x y z
#
# Youngs Moduli (GPa) = 44.40387 27.19744 83.97291
#
# Poissons Ratio (x) = -0.24586 0.31824
# Poissons Ratio (y) = -0.40140 0.02744
# Poissons Ratio (z) = 0.16828 0.00889
#
# Static dielectric constant tensor:
#      x y z
#    x 1.757270 0.000000 -0.004640 
#    y 0.000000 1.663580 0.000000 
#    z -0.004640 0.000000 1.726210 
# 
# From -- ./inp_files/171748.got.cif
#   From: 2010.05.17/outbox.cif.g08.bks.cpg/sg15_86_cif.got.tgz:171748.got - 2010.06.03 18:47:42.
