data_PCOD9258744
_publ_section_title
;
Structure prediction by ZEFSAII (Michael W. Deem and Ramdas Pophale) SiO2 
 PCOD9258744
Probable space group: C 2/C
;
_chemical_formula_sum "Si O2"
_cell_formula_units_Z 40
_cell_length_a 11.797265
_cell_length_b 21.177408
_cell_length_c 9.075690
_cell_angle_alpha 90.000000
_cell_angle_beta 89.687874
_cell_angle_gamma 90.000000
_cell_volume 2267.395852
_symmetry_space_group_name_H-M "C 2/C"
_symmetry_group_IT_number 15
_symmetry_cell_setting 'monoclinic'
loop_
_space_group_symop_operation_xyz
x,y,z
-x,y,1/2-z
-x,-y,-z
x,-y,1/2+z
1/2+x,1/2+y,z
1/2-x,1/2+y,1/2-z
1/2-x,1/2-y,-z
1/2+x,1/2-y,1/2+z
loop_
_atom_site_type_symbol
_atom_site_label
_atom_site_fract_x
_atom_site_fract_y
_atom_site_fract_z
Si Si1 0.713584 0.830611 0.884585
Si Si2 0.438672 0.906931 0.104258
Si Si3 0.896740 0.541237 0.134602
Si Si4 0.141300 0.283683 0.569749
Si Si5 0.066409 0.247456 0.093142
O O1 0.696431 0.904445 0.849769
O O2 0.660743 0.795694 0.741732
O O3 0.842896 0.808788 0.898614
O O4 0.644052 0.805639 0.028810
O O5 0.500000 0.883301 0.250000
O O6 0.360095 0.968182 0.136495
O O7 0.541619 0.939261 0.015880
O O8 0.382633 0.850918 0.012056
O O9 0.000000 0.548899 0.250000
O O10 0.250000 0.250000 0.500000
O O11 0.032032 0.242482 0.527783
O O12 0.000000 0.252138 0.250000
#
# Coordination Sequence:
#
# PCOD9258744 Si02
#       5
#     8   8   8   8   8
#     4  11  22  36  59  79 121 155 179 237 292 339
#     4  10  21  32  53  82 113 138 187 237 279 331
#     4  10  18  34  54  79 109 146 182 234 286 333
#     4  12  22  36  56  84 122 150 187 232 287 341
#     4  11  22  36  53  88 114 148 195 229 282 342
#
# _framework density 17.641385
#
# number of rings (size 3 to 8) (size 9 to 14) (size 15 to 20)
#    0.000    1.200    6.000    1.200    0.000    0.000 
#    0.000    0.000    0.000    1.200    0.000    0.000 
#    0.000    0.000    0.000    0.000    0.000    0.000 
#
# Total GULP energy -111377.483271 kJ/mol
# GULP energy per Si atom -5568.874164 kJ/mol
# Density = 1.760123 g / cm^3
# Si number density = 17.641385 Si / 1000 Ang^3
#
#
#
# Elastic Constant Matrix: (Units=GPa)
#
#
# Indices 1 2 3 4 5 6 
#
# 1 109.9921 56.2296 26.0354 0.0000 4.2699 0.0000
# 2 56.2296 111.6200 19.0288 0.0000 5.8963 0.0000
# 3 26.0354 19.0288 85.7590 0.0000 -7.8854 0.0000
# 4 0.0000 0.0000 0.0000 19.7026 0.0000 0.8340
# 5 4.2699 5.8963 -7.8854 0.0000 28.4018 0.0000
# 6 0.0000 0.0000 0.0000 0.8340 0.0000 25.0710
#
#
#
# Elastic Compliance Matrix: (Units=1/GPa)
#
#
# Indices 1 2 3 4 5 6 
#
# 1 0.012814 -0.005916 -0.002711 0.000000 -0.001451 0.000000
# 2 -0.005916 0.012230 -0.001097 0.000000 -0.001954 0.000000
# 3 -0.002711 -0.001097 0.013120 0.000000 0.004278 0.000000
# 4 0.000000 0.000000 0.000000 0.050826 0.000000 -0.001691
# 5 -0.001451 -0.001954 0.004278 0.000000 0.037021 0.000000
# 6 0.000000 0.000000 0.000000 -0.001691 0.000000 0.039943
#
#
# Mechanical properties :
#
#
# Convention : Reuss Voigt Hill
#
# Bulk Modulus (GPa) = 53.43204 56.66208 55.04706
# Shear Modulus (GPa) = 26.09043 28.37356 27.23200
#
# Velocity S-wave (km/s) = 3.84986 4.01478 3.93318
# Velocity P-wave (km/s) = 7.07923 7.32665 7.20401
#
# Compressibility (1/GPa) = 0.01871536
#
# Stress axis : x y z
#
# Youngs Moduli (GPa) = 78.03898 81.76818 76.21750
#
# Poissons Ratio (x) = 0.48378 0.20661
# Poissons Ratio (y) = 0.46171 0.08362
# Poissons Ratio (z) = 0.21155 0.08971
#
# Static dielectric constant tensor:
#      x y z
#    x 1.597360 0.000000 -0.078010 
#    y 0.000000 1.692750 0.000000 
#    z -0.078010 0.000000 1.998360 
# 
# From -- ./inp_files/30293.got.cif
#   From: 2010.05.17/outbox.cif.g08.bks.cpg/sg15_16_cif.got.tgz:30293.got - 2010.06.03 18:47:42.
