data_PCOD9258832
_publ_section_title
;
Structure prediction by ZEFSAII (Michael W. Deem and Ramdas Pophale) SiO2 
 PCOD9258832
Probable space group: C 2/C
;
_chemical_formula_sum "Si O2"
_cell_formula_units_Z 60
_cell_length_a 8.656589
_cell_length_b 17.255680
_cell_length_c 19.287585
_cell_angle_alpha 90.000000
_cell_angle_beta 51.595379
_cell_angle_gamma 90.000000
_cell_volume 2257.746548
_symmetry_space_group_name_H-M "C 2/C"
_symmetry_group_IT_number 15
_symmetry_cell_setting 'monoclinic'
loop_
_space_group_symop_operation_xyz
x,y,z
-x,y,1/2-z
-x,-y,-z
x,-y,1/2+z
1/2+x,1/2+y,z
1/2-x,1/2+y,1/2-z
1/2-x,1/2-y,-z
1/2+x,1/2-y,1/2+z
loop_
_atom_site_type_symbol
_atom_site_label
_atom_site_fract_x
_atom_site_fract_y
_atom_site_fract_z
Si Si1 0.841378 0.201065 0.193311
Si Si2 0.420368 0.547759 0.126417
Si Si3 0.296405 0.158945 0.502078
Si Si4 0.635801 0.988901 0.031521
Si Si5 0.153841 0.118638 0.873912
Si Si6 0.211544 0.285220 0.886553
Si Si7 0.000000 0.980417 0.250000
Si Si8 0.842381 0.373489 0.173626
O O1 0.717952 0.203609 0.300039
O O2 0.824097 0.283435 0.159995
O O3 0.806767 0.128569 0.152636
O O4 0.071869 0.191428 0.149351
O O5 0.339204 0.472009 0.110161
O O6 0.416967 0.529215 0.209816
O O7 0.651045 0.546227 0.045387
O O8 0.250000 0.250000 0.500000
O O9 0.342652 0.077777 0.447827
O O10 0.520339 0.171816 0.469861
O O11 0.072872 0.134497 0.585748
O O12 0.531167 0.924750 0.107426
O O13 0.500000 0.000000 0.000000
O O14 0.198185 0.193516 0.907717
O O15 0.293981 0.126628 0.768434
O O16 0.176921 0.923692 0.181617
#
# Coordination Sequence:
#
# PCOD9258832 Si02
#       8
#     8   8   8   8   8   8   4   8
#     4  10  20  32  52  82 109 136 180 230 273 319
#     4  10  19  31  52  79 104 138 173 225 270 317
#     4   9  18  33  54  81 107 138 185 226 263 319
#     4  11  20  32  53  79 105 142 180 221 273 325
#     4   8  18  33  51  79 108 141 176 228 269 320
#     4   9  17  32  55  78 105 141 181 224 269 321
#     4  10  18  34  56  74 104 144 186 224 266 324
#     4  10  21  34  52  79 111 142 177 227 279 324
#
# _framework density 26.575171000000001
#
# number of rings (size 3 to 8) (size 9 to 14) (size 15 to 20)
#    0.000    2.400    1.333    1.600    3.733    0.533 
#    0.000    0.000    0.000   13.600    0.000    0.000 
#    0.000    0.000    0.000    0.000    0.000    0.000 
#
# Total GULP energy -167374.409853 kJ/mol
# GULP energy per Si atom -5579.146995 kJ/mol
# Density = 2.651468 g / cm^3
# Si number density = 26.575171 Si / 1000 Ang^3
#
#
#
# Elastic Constant Matrix: (Units=GPa)
#
#
# Indices 1 2 3 4 5 6 
#
# 1 50.7424 18.7453 30.1442 -0.0001 -2.4309 0.0002
# 2 18.7453 254.1096 73.3028 0.0000 -10.3822 0.0001
# 3 30.1442 73.3028 60.9169 0.0000 -1.5829 0.0000
# 4 -0.0001 0.0000 0.0000 37.9475 0.0000 1.6386
# 5 -2.4309 -10.3822 -1.5829 0.0000 19.6992 -0.0001
# 6 0.0002 0.0001 0.0000 1.6386 -0.0001 2.8805
#
#
#
# Elastic Compliance Matrix: (Units=1/GPa)
#
#
# Indices 1 2 3 4 5 6 
#
# 1 0.029729 0.003342 -0.018630 0.000000 0.003933 -0.000002
# 2 0.003342 0.006539 -0.009442 0.000000 0.003100 0.000000
# 3 -0.018630 -0.009442 0.036884 0.000000 -0.004311 0.000002
# 4 0.000000 0.000000 0.000000 0.027016 0.000000 -0.015368
# 5 0.003933 0.003100 -0.004311 0.000000 0.052536 0.000001
# 6 -0.000002 0.000000 0.000002 -0.015368 0.000001 0.355907
#
#
# Mechanical properties :
#
#
# Convention : Reuss Voigt Hill
#
# Bulk Modulus (GPa) = 42.20844 67.79481 55.00163
# Shear Modulus (GPa) = 8.83441 28.34387 18.58914
#
# Velocity S-wave (km/s) = 1.82525 3.26936 2.64766
# Velocity P-wave (km/s) = 4.51211 6.31012 5.48529
#
# Compressibility (1/GPa) = 0.02369194
#
# Stress axis : x y z
#
# Youngs Moduli (GPa) = 33.63749 152.92579 27.11177
#
# Poissons Ratio (x) = -0.51106 0.50510
# Poissons Ratio (y) = -0.11241 0.25598
# Poissons Ratio (z) = 0.62667 1.44390
#
# Static dielectric constant tensor:
#      x y z
#    x 1.962660 0.000000 0.314020 
#    y 0.000000 2.144610 0.000000 
#    z 0.314020 0.000000 1.769460 
# 
# From -- ./inp_files/313965.got.cif
#   From: 2010.05.17/outbox.cif.g08.bks.cpg/sg15_157_cif.got.tgz:313965.got - 2010.06.03 18:47:42.
