data_PCOD9258778
_publ_section_title
;
Structure prediction by ZEFSAII (Michael W. Deem and Ramdas Pophale) SiO2 
 PCOD9258778
Probable space group: C 2/C
;
_chemical_formula_sum "Si O2"
_cell_formula_units_Z 52
_cell_length_a 13.445832
_cell_length_b 13.609659
_cell_length_c 12.666759
_cell_angle_alpha 90.000000
_cell_angle_beta 60.755376
_cell_angle_gamma 90.000000
_cell_volume 2022.491469
_symmetry_space_group_name_H-M "C 2/C"
_symmetry_group_IT_number 15
_symmetry_cell_setting 'monoclinic'
loop_
_space_group_symop_operation_xyz
x,y,z
-x,y,1/2-z
-x,-y,-z
x,-y,1/2+z
1/2+x,1/2+y,z
1/2-x,1/2+y,1/2-z
1/2-x,1/2-y,-z
1/2+x,1/2-y,1/2+z
loop_
_atom_site_type_symbol
_atom_site_label
_atom_site_fract_x
_atom_site_fract_y
_atom_site_fract_z
Si Si1 0.197240 0.894580 0.003714
Si Si2 0.922579 0.946706 0.629353
Si Si3 0.006631 0.625962 0.591327
Si Si4 0.542249 0.891056 0.611222
Si Si5 0.000000 0.898006 0.250000
Si Si6 0.649429 0.378367 0.559236
Si Si7 0.681339 0.790918 0.173150
O O1 0.090585 0.847908 0.123538
O O2 0.176318 0.102545 0.387750
O O3 0.190299 0.009986 0.037781
O O4 0.324111 0.863807 0.965346
O O5 0.013601 0.869899 0.626383
O O6 0.000000 0.000000 0.500000
O O7 0.919096 0.031849 0.718692
O O8 0.019009 0.649164 0.461601
O O9 0.881972 0.663614 0.694560
O O10 0.022383 0.509632 0.607285
O O11 0.100039 0.675919 0.617230
O O12 0.500000 0.865033 0.750000
O O13 0.690805 0.324539 0.644154
O O14 0.699849 0.337018 0.423629
#
# Coordination Sequence:
#
# PCOD9258778 Si02
#       7
#     8   8   8   8   4   8   8
#     4  10  19  34  54  86 116 145 192 234 293 357
#     4   8  17  30  48  80 115 140 180 228 277 352
#     4  10  21  34  55  85 117 151 195 263 285 347
#     4  11  21  37  58  83 118 159 203 242 302 348
#     4   8  16  28  46  78 108 142 164 228 292 326
#     4   9  17  31  56  82 116 149 180 234 308 353
#     4  10  18  34  54  86 117 144 192 243 304 348
#
# _framework density 25.710863
#
# number of rings (size 3 to 8) (size 9 to 14) (size 15 to 20)
#    0.000    2.769    3.077    0.000    0.000   11.077 
#    0.000    0.000    0.000    0.923   18.000    0.000 
#    0.000    0.000    0.000    0.000    0.000    0.000 
#
# Total GULP energy -145141.459678 kJ/mol
# GULP energy per Si atom -5582.363834 kJ/mol
# Density = 2.565234 g / cm^3
# Si number density = 25.710863 Si / 1000 Ang^3
#
#
#
# Elastic Constant Matrix: (Units=GPa)
#
#
# Indices 1 2 3 4 5 6 
#
# 1 94.3855 9.7158 48.5450 0.0000 13.6033 0.0000
# 2 9.7158 62.7091 11.7057 0.0000 -3.2210 0.0000
# 3 48.5450 11.7057 162.2549 0.0000 17.6633 0.0000
# 4 0.0000 0.0000 0.0000 17.8000 0.0000 -3.0083
# 5 13.6033 -3.2210 17.6633 0.0000 54.0909 0.0000
# 6 0.0000 0.0000 0.0000 -3.0083 0.0000 15.9789
#
#
#
# Elastic Compliance Matrix: (Units=1/GPa)
#
#
# Indices 1 2 3 4 5 6 
#
# 1 0.012861 -0.001450 -0.003506 0.000000 -0.002176 0.000000
# 2 -0.001450 0.016430 -0.000931 0.000000 0.001647 0.000000
# 3 -0.003506 -0.000931 0.007454 0.000000 -0.001608 0.000000
# 4 0.000000 0.000000 0.000000 0.058026 0.000000 0.010924
# 5 -0.002176 0.001647 -0.001608 0.000000 0.019658 0.000000
# 6 0.000000 0.000000 0.000000 0.010924 0.000000 0.064639
#
#
# Mechanical properties :
#
#
# Convention : Reuss Voigt Hill
#
# Bulk Modulus (GPa) = 40.04652 51.03138 45.53895
# Shear Modulus (GPa) = 25.10471 34.19949 29.65210
#
# Velocity S-wave (km/s) = 3.12817 3.65109 3.39970
# Velocity P-wave (km/s) = 5.35320 6.13720 5.75856
#
# Compressibility (1/GPa) = 0.02497096
#
# Stress axis : x y z
#
# Youngs Moduli (GPa) = 77.75363 60.86561 134.14851
#
# Poissons Ratio (x) = 0.08825 0.47039
# Poissons Ratio (y) = 0.11273 0.12487
# Poissons Ratio (z) = 0.27264 0.05665
#
# Static dielectric constant tensor:
#      x y z
#    x 2.135060 0.000000 0.022070 
#    y 0.000000 2.157860 0.000000 
#    z 0.022070 0.000000 2.124030 
# 
# From -- ./inp_files/153870.got.cif
#   From: 2010.05.17/outbox.cif.g08.bks.cpg/sg15_77_cif.got.tgz:153870.got - 2010.06.03 18:47:42.
