data_PCOD9258840
_publ_section_title
;
Structure prediction by ZEFSAII (Michael W. Deem and Ramdas Pophale) SiO2 
 PCOD9258840
Probable space group: C 2/C
;
_chemical_formula_sum "Si O2"
_cell_formula_units_Z 60
_cell_length_a 9.183094
_cell_length_b 17.006824
_cell_length_c 23.581536
_cell_angle_alpha 90.000000
_cell_angle_beta 112.504157
_cell_angle_gamma 90.000000
_cell_volume 3402.409872
_symmetry_space_group_name_H-M "C 2/C"
_symmetry_group_IT_number 15
_symmetry_cell_setting 'monoclinic'
loop_
_space_group_symop_operation_xyz
x,y,z
-x,y,1/2-z
-x,-y,-z
x,-y,1/2+z
1/2+x,1/2+y,z
1/2-x,1/2+y,1/2-z
1/2-x,1/2-y,-z
1/2+x,1/2-y,1/2+z
loop_
_atom_site_type_symbol
_atom_site_label
_atom_site_fract_x
_atom_site_fract_y
_atom_site_fract_z
Si Si1 0.500000 0.506445 0.250000
Si Si2 0.194485 0.605006 0.709965
Si Si3 0.268928 0.120077 0.537188
Si Si4 0.176887 0.956497 0.466830
Si Si5 0.629894 0.163764 0.579968
Si Si6 0.414035 0.550262 0.357097
Si Si7 0.832354 0.420501 0.170815
Si Si8 0.565449 0.331858 0.544381
O O1 0.656398 0.451941 0.277682
O O2 0.480697 0.556412 0.303961
O O3 0.186096 0.661943 0.654218
O O4 0.203441 0.630333 0.777699
O O5 0.017733 0.568210 0.685470
O O6 0.442642 0.150114 0.550019
O O7 0.257790 0.116481 0.603586
O O8 0.123842 0.170243 0.491499
O O9 0.253247 0.031733 0.509462
O O10 0.286269 0.907394 0.440478
O O11 0.121286 0.895239 0.506308
O O12 0.032333 0.993681 0.410101
O O13 0.651484 0.248542 0.554460
O O14 0.249448 0.504106 0.330722
O O15 0.402959 0.630374 0.389557
#
# Coordination Sequence:
#
# PCOD9258840 Si02
#       8
#     4   8   8   8   8   8   8   8
#     4  10  18  34  58  80 100 136 188 230 258 300
#     4   9  19  31  54  81  99 136 180 227 256 314
#     4  10  19  35  57  78 105 145 183 217 256 323
#     4  11  19  35  53  83 102 147 183 215 254 320
#     4  11  22  34  51  84 114 138 174 228 271 309
#     4  10  18  34  56  79 102 140 185 220 255 320
#     4   9  16  33  55  78  98 135 189 216 255 312
#     4  11  21  35  53  80 115 144 170 216 280 318
#
# _framework density 17.634558999999999
#
# number of rings (size 3 to 8) (size 9 to 14) (size 15 to 20)
#    0.000    1.867    4.000    2.000    0.000    0.000 
#    0.000    2.667    0.000    3.200    0.000    0.000 
#    0.000    0.000    0.000    0.000    0.000    0.000 
#
# Total GULP energy -167078.933115 kJ/mol
# GULP energy per Si atom -5569.297770 kJ/mol
# Density = 1.759442 g / cm^3
# Si number density = 17.634559 Si / 1000 Ang^3
#
#
#
# Elastic Constant Matrix: (Units=GPa)
#
#
# Indices 1 2 3 4 5 6 
#
# 1 41.0313 1.7547 14.9086 0.0000 -10.3188 0.0000
# 2 1.7547 53.9447 35.5682 0.0000 -2.6828 0.0000
# 3 14.9086 35.5682 95.5766 0.0000 -14.0463 0.0000
# 4 0.0000 0.0000 0.0000 12.9857 0.0000 2.3863
# 5 -10.3188 -2.6828 -14.0463 0.0000 26.7602 0.0000
# 6 0.0000 0.0000 0.0000 2.3863 0.0000 12.8808
#
#
#
# Elastic Compliance Matrix: (Units=1/GPa)
#
#
# Indices 1 2 3 4 5 6 
#
# 1 0.027921 0.002041 -0.003795 0.000000 0.008979 0.000000
# 2 0.002041 0.024873 -0.009853 0.000000 -0.001891 0.000000
# 3 -0.003795 -0.009853 0.015562 0.000000 0.005717 0.000000
# 4 0.000000 0.000000 0.000000 0.079722 0.000000 -0.014769
# 5 0.008979 -0.001891 0.005717 0.000000 0.043643 0.000000
# 6 0.000000 0.000000 0.000000 -0.014769 0.000000 0.080371
#
#
# Mechanical properties :
#
#
# Convention : Reuss Voigt Hill
#
# Bulk Modulus (GPa) = 22.15228 32.77950 27.46589
# Shear Modulus (GPa) = 16.11067 19.74676 17.92871
#
# Velocity S-wave (km/s) = 3.02584 3.34994 3.19200
# Velocity P-wave (km/s) = 4.97963 5.79580 5.40315
#
# Compressibility (1/GPa) = 0.04514208
#
# Stress axis : x y z
#
# Youngs Moduli (GPa) = 35.81473 40.20355 64.26060
#
# Poissons Ratio (x) = -0.08204 0.24388
# Poissons Ratio (y) = -0.07309 0.63314
# Poissons Ratio (z) = 0.13592 0.39611
#
# Static dielectric constant tensor:
#      x y z
#    x 1.611270 0.000000 -0.007160 
#    y 0.000000 1.567720 0.000000 
#    z -0.007160 0.000000 1.642950 
# 
# From -- ./inp_files/264320.got.cif
#   From: 2010.05.17/outbox.cif.g08.bks.cpg/sg15_133_cif.got.tgz:264320.got - 2010.06.03 18:47:42.
