data_PCOD9258603
_publ_section_title
;
Structure prediction by ZEFSAII (Michael W. Deem and Ramdas Pophale) SiO2 
 PCOD9258603
Probable space group: C 2/C
;
_chemical_formula_sum "Si O2"
_cell_formula_units_Z 36
_cell_length_a 26.639501
_cell_length_b 11.611730
_cell_length_c 12.800641
_cell_angle_alpha 90.000000
_cell_angle_beta 158.399297
_cell_angle_gamma 90.000000
_cell_volume 1457.682618
_symmetry_space_group_name_H-M "C 2/C"
_symmetry_group_IT_number 15
_symmetry_cell_setting 'monoclinic'
loop_
_space_group_symop_operation_xyz
x,y,z
-x,y,1/2-z
-x,-y,-z
x,-y,1/2+z
1/2+x,1/2+y,z
1/2-x,1/2+y,1/2-z
1/2-x,1/2-y,-z
1/2+x,1/2-y,1/2+z
loop_
_atom_site_type_symbol
_atom_site_label
_atom_site_fract_x
_atom_site_fract_y
_atom_site_fract_z
Si Si1 0.500000 0.730706 0.750000
Si Si2 0.640956 0.105829 0.223223
Si Si3 0.739831 0.675454 0.816824
Si Si4 0.817244 0.374628 0.117368
Si Si5 0.574967 0.529832 0.036687
O O1 0.369025 0.812372 0.491551
O O2 0.505462 0.637746 0.666876
O O3 0.689046 0.194202 0.229820
O O4 0.697235 0.144159 0.446540
O O5 0.695151 0.975095 0.318215
O O6 0.477959 0.121057 0.909304
O O7 0.614596 0.588680 0.554761
O O8 0.750000 0.250000 0.000000
O O9 0.727032 0.422304 0.848465
O O10 0.500000 0.500000 0.000000
#
# Coordination Sequence:
#
# PCOD9258603 Si02
#       5
#     4   8   8   8   8
#     4  12  24  44  66  98 140 182 222 290 350 398
#     4   9  19  37  64  91 124 169 215 276 332 401
#     4  10  21  42  62  93 130 173 222 277 343 409
#     4  10  18  33  61 100 119 163 220 264 326 406
#     4  11  24  45  68  96 133 181 228 276 348 411
#
# _framework density 24.696733999999999
#
# number of rings (size 3 to 8) (size 9 to 14) (size 15 to 20)
#    0.000    1.778    0.000    6.667    0.000    0.000 
#   28.000    0.000    0.000    0.000    0.000    0.000 
#    0.000    0.000    0.000    0.000    0.000    0.000 
#
# Total GULP energy -100398.292235 kJ/mol
# GULP energy per Si atom -5577.682902 kJ/mol
# Density = 2.464052 g / cm^3
# Si number density = 24.696734 Si / 1000 Ang^3
#
#
#
# Elastic Constant Matrix: (Units=GPa)
#
#
# Indices 1 2 3 4 5 6 
#
# 1 54.3549 35.1327 7.9701 0.0000 10.4332 0.0000
# 2 35.1327 189.2226 40.7364 0.0000 16.1152 0.0000
# 3 7.9701 40.7364 114.7204 0.0000 8.7368 0.0000
# 4 0.0000 0.0000 0.0000 49.2476 0.0000 3.0392
# 5 10.4332 16.1152 8.7368 0.0000 32.9282 0.0000
# 6 0.0000 0.0000 0.0000 3.0392 0.0000 29.7568
#
#
#
# Elastic Compliance Matrix: (Units=1/GPa)
#
#
# Indices 1 2 3 4 5 6 
#
# 1 0.021706 -0.003629 0.000173 0.000000 -0.005147 0.000000
# 2 -0.003629 0.006506 -0.001942 0.000000 -0.001519 0.000000
# 3 0.000173 -0.001942 0.009519 0.000000 -0.001630 0.000000
# 4 0.000000 0.000000 0.000000 0.020434 0.000000 -0.002087
# 5 -0.005147 -0.001519 -0.001630 0.000000 0.033176 0.000000
# 6 0.000000 0.000000 0.000000 -0.002087 0.000000 0.033819
#
#
# Mechanical properties :
#
#
# Convention : Reuss Voigt Hill
#
# Bulk Modulus (GPa) = 37.12898 58.44181 47.78539
# Shear Modulus (GPa) = 34.49824 40.68376 37.59100
#
# Velocity S-wave (km/s) = 3.74153 4.06314 3.90565
# Velocity P-wave (km/s) = 5.80793 6.76220 6.30315
#
# Compressibility (1/GPa) = 0.02693314
#
# Stress axis : x y z
#
# Youngs Moduli (GPa) = 46.07049 153.70210 105.05617
#
# Poissons Ratio (x) = 0.55777 -0.01813
# Poissons Ratio (y) = 0.16718 0.20407
# Poissons Ratio (z) = -0.00795 0.29856
#
# Static dielectric constant tensor:
#      x y z
#    x 2.025880 0.000000 -0.009840 
#    y 0.000000 2.171000 0.000000 
#    z -0.009840 0.000000 2.003190 
# 
# From -- ./inp_files/181674.got.cif
#   From: 2010.05.17/outbox.cif.g08.bks.cpg/sg15_91_cif.got.tgz:181674.got - 2010.06.03 18:47:42.
