data_PCOD9258730
_publ_section_title
;
Structure prediction by ZEFSAII (Michael W. Deem and Ramdas Pophale) SiO2 
 PCOD9258730
Probable space group: C 2/C
;
_chemical_formula_sum "Si O2"
_cell_formula_units_Z 60
_cell_length_a 13.195830
_cell_length_b 14.651484
_cell_length_c 18.399113
_cell_angle_alpha 90.000000
_cell_angle_beta 46.159223
_cell_angle_gamma 90.000000
_cell_volume 2565.733522
_symmetry_space_group_name_H-M "C 2/C"
_symmetry_group_IT_number 15
_symmetry_cell_setting 'monoclinic'
loop_
_space_group_symop_operation_xyz
x,y,z
-x,y,1/2-z
-x,-y,-z
x,-y,1/2+z
1/2+x,1/2+y,z
1/2-x,1/2+y,1/2-z
1/2-x,1/2-y,-z
1/2+x,1/2-y,1/2+z
loop_
_atom_site_type_symbol
_atom_site_label
_atom_site_fract_x
_atom_site_fract_y
_atom_site_fract_z
Si Si1 0.578460 0.951142 0.600870
Si Si2 0.576166 0.166636 0.608585
Si Si3 0.677622 0.586988 0.767689
Si Si4 0.231702 0.811839 0.916874
Si Si5 0.772253 0.612156 0.248788
Si Si6 0.500000 0.687149 0.750000
Si Si7 0.431928 0.849307 0.036055
Si Si8 0.778234 0.720571 0.827946
O O1 0.713812 0.894695 0.560937
O O2 0.427356 0.913064 0.702637
O O3 0.558662 0.932361 0.524808
O O4 0.587179 0.057236 0.615796
O O5 0.554820 0.172915 0.532149
O O6 0.432499 0.205650 0.714875
O O7 0.695532 0.212801 0.599098
O O8 0.698887 0.479714 0.759533
O O9 0.539333 0.622770 0.797521
O O10 0.803347 0.624956 0.653841
O O11 0.692347 0.634701 0.838478
O O12 0.190497 0.848703 0.858167
O O13 0.370517 0.750240 0.836437
O O14 0.110717 0.737943 0.992784
O O15 0.779235 0.688074 0.182481
#
# Coordination Sequence:
#
# PCOD9258730 Si02
#       8
#     8   8   8   8   8   4   8   8
#     4  12  21  33  62  83 108 154 189 225 288 336
#     4  10  20  35  56  78 114 147 182 232 277 324
#     4  10  20  35  54  84 111 142 186 235 282 331
#     4  11  20  36  56  86 109 145 190 241 272 332
#     4  12  20  34  59  83 110 145 195 228 278 335
#     4  10  18  34  54  74 114 136 178 238 270 322
#     4  10  21  38  53  83 122 140 182 240 284 329
#     4  10  19  35  54  83 114 138 185 245 269 313
#
# _framework density 23.385124000000001
#
# number of rings (size 3 to 8) (size 9 to 14) (size 15 to 20)
#    0.000    1.333    8.000    1.600    1.867    1.067 
#    0.000    0.667    0.000    0.000    0.000    7.467 
#    0.000    0.000    0.000    0.000    0.000    0.000 
#
# Total GULP energy -167562.612901 kJ/mol
# GULP energy per Si atom -5585.420430 kJ/mol
# Density = 2.333190 g / cm^3
# Si number density = 23.385124 Si / 1000 Ang^3
#
#
#
# Elastic Constant Matrix: (Units=GPa)
#
#
# Indices 1 2 3 4 5 6 
#
# 1 115.6494 58.6373 11.4531 0.0000 26.2158 0.0000
# 2 58.6373 139.2934 4.7961 0.0000 -8.0396 0.0000
# 3 11.4531 4.7961 32.3786 0.0000 13.9394 0.0000
# 4 0.0000 0.0000 0.0000 1.0069 0.0000 19.6433
# 5 26.2158 -8.0396 13.9394 0.0000 23.0113 0.0000
# 6 0.0000 0.0000 0.0000 19.6433 0.0000 42.9983
#
#
#
# Elastic Compliance Matrix: (Units=1/GPa)
#
#
# Indices 1 2 3 4 5 6 
#
# 1 0.020643 -0.010834 0.008194 0.000000 -0.032267 0.000000
# 2 -0.010834 0.013229 -0.007347 0.000000 0.021415 0.000000
# 3 0.008194 -0.007347 0.046263 0.000000 -0.039926 0.000000
# 4 0.000000 0.000000 0.000000 -0.125519 0.000000 0.057342
# 5 -0.032267 0.021415 -0.039926 0.000000 0.111885 0.000000
# 6 0.000000 0.000000 0.000000 0.057342 0.000000 -0.002939
#
#
# Mechanical properties :
#
#
# Convention : Reuss Voigt Hill
#
# Bulk Modulus (GPa) = 16.62210 48.56606 32.59408
# Shear Modulus (GPa) = 48.26775 27.56563 37.91669
#
# Velocity S-wave (km/s) = 4.54810 3.43704 4.03103
# Velocity P-wave (km/s) = 5.89098 6.04682 5.96941
#
# Compressibility (1/GPa) = 0.06016088
#
# Stress axis : x y z
#
# Youngs Moduli (GPa) = 48.44269 75.59174 21.61548
#
# Poissons Ratio (x) = 0.81899 -0.17712
# Poissons Ratio (y) = 0.52485 0.15880
# Poissons Ratio (z) = -0.39694 0.55535
#
# Static dielectric constant tensor:
#      x y z
#    x 1.930200 0.000000 0.011350 
#    y 0.000000 1.861520 0.000000 
#    z 0.011350 0.000000 1.973080 
# 
# From -- ./inp_files/244353.got.cif
#   From: 2010.05.17/outbox.cif.g08.bks.cpg/sg15_123_cif.got.tgz:244353.got - 2010.06.03 18:47:42.
