data_PCOD9258032
_publ_section_title
;
Structure prediction by ZEFSAII (Michael W. Deem and Ramdas Pophale) SiO2 
 PCOD9258032
Probable space group: C 2/C
;
_chemical_formula_sum "Si O2"
_cell_formula_units_Z 64
_cell_length_a 9.929960
_cell_length_b 17.146812
_cell_length_c 23.619668
_cell_angle_alpha 90.000000
_cell_angle_beta 48.402283
_cell_angle_gamma 90.000000
_cell_volume 3007.491367
_symmetry_space_group_name_H-M "C 2/C"
_symmetry_group_IT_number 15
_symmetry_cell_setting 'monoclinic'
loop_
_space_group_symop_operation_xyz
x,y,z
-x,y,1/2-z
-x,-y,-z
x,-y,1/2+z
1/2+x,1/2+y,z
1/2-x,1/2+y,1/2-z
1/2-x,1/2-y,-z
1/2+x,1/2-y,1/2+z
loop_
_atom_site_type_symbol
_atom_site_label
_atom_site_fract_x
_atom_site_fract_y
_atom_site_fract_z
Si Si1 0.691445 0.874577 0.708945
Si Si2 0.297352 0.093950 0.030056
Si Si3 0.062041 0.090472 0.849093
Si Si4 0.034607 0.193631 0.173488
Si Si5 0.526095 0.553902 0.438928
Si Si6 0.863902 0.638729 0.842069
Si Si7 0.634696 0.976705 0.307846
Si Si8 0.817692 0.567271 0.580129
O O1 0.500000 0.835947 0.750000
O O2 0.787771 0.900878 0.623063
O O3 0.846297 0.825566 0.696082
O O4 0.645750 0.947098 0.764728
O O5 0.188515 0.133275 0.111663
O O6 0.153364 0.105380 0.019651
O O7 0.324841 0.000528 0.030520
O O8 0.503674 0.120381 0.968747
O O9 0.164045 0.134446 0.871646
O O10 0.210262 0.081132 0.759100
O O11 0.867565 0.113321 0.879831
O O12 0.034861 0.003854 0.882314
O O13 0.100250 0.279656 0.138430
O O14 0.000000 0.189278 0.250000
O O15 0.500000 0.500000 0.500000
O O16 0.000000 0.637910 0.750000
O O17 0.939646 0.563796 0.854218
O O18 0.680031 0.980262 0.361263
#
# Coordination Sequence:
#
# PCOD9258032 Si02
#       8
#     8   8   8   8   8   8   8   8
#     4  10  20  33  55  86 111 134 195 236 267 343
#     4   9  20  33  50  80 111 142 183 221 281 339
#     4   9  18  33  50  80 105 134 189 225 259 332
#     4  10  20  39  57  74 109 153 180 224 285 338
#     4   9  18  31  52  77 113 144 172 228 282 320
#     4   9  19  35  56  78 105 143 188 225 272 337
#     4  10  18  32  58  83 104 141 179 230 284 319
#     4  10  19  32  53  80 113 137 174 240 277 320
#
# _framework density 21.280194000000002
#
# number of rings (size 3 to 8) (size 9 to 14) (size 15 to 20)
#    0.000    2.500    0.000    3.750    3.500    0.000 
#    2.250    5.000    0.000    0.000    0.000    0.000 
#    0.000    0.000    0.000    0.000    0.000    0.000 
#
# Total GULP energy -178177.791005 kJ/mol
# GULP energy per Si atom -5568.055969 kJ/mol
# Density = 2.123176 g / cm^3
# Si number density = 21.280194 Si / 1000 Ang^3
#
#
#
# Elastic Constant Matrix: (Units=GPa)
#
#
# Indices 1 2 3 4 5 6 
#
# 1 125.5723 24.3627 40.8049 0.0000 -36.9763 0.0000
# 2 24.3627 49.8595 -1.1691 0.0000 -12.9499 -0.0001
# 3 40.8049 -1.1691 70.7874 0.0004 -22.8714 -0.0003
# 4 0.0000 0.0000 0.0004 8.5188 -0.0002 2.3029
# 5 -36.9763 -12.9499 -22.8714 -0.0002 41.8470 0.0001
# 6 0.0000 -0.0001 -0.0003 2.3029 0.0001 17.5925
#
#
#
# Elastic Compliance Matrix: (Units=1/GPa)
#
#
# Indices 1 2 3 4 5 6 
#
# 1 0.012498 -0.004429 -0.005043 0.000001 0.006917 0.000000
# 2 -0.004429 0.023948 0.004953 0.000000 0.006205 0.000000
# 3 -0.005043 0.004953 0.019639 -0.000001 0.007811 0.000000
# 4 0.000001 0.000000 -0.000001 0.121694 0.000001 -0.015930
# 5 0.006917 0.006205 0.007811 0.000001 0.036197 0.000000
# 6 0.000000 0.000000 0.000000 -0.015930 0.000000 0.058928
#
#
# Mechanical properties :
#
#
# Convention : Reuss Voigt Hill
#
# Bulk Modulus (GPa) = 21.25451 41.57959 31.41705
# Shear Modulus (GPa) = 16.79973 25.73971 21.26972
#
# Velocity S-wave (km/s) = 2.81277 3.48165 3.16493
# Velocity P-wave (km/s) = 4.53415 5.97863 5.30578
#
# Compressibility (1/GPa) = 0.04704884
#
# Stress axis : x y z
#
# Youngs Moduli (GPa) = 80.01160 41.75704 50.91874
#
# Poissons Ratio (x) = 0.18493 0.25677
# Poissons Ratio (y) = 0.35435 -0.25221
# Poissons Ratio (z) = 0.40348 -0.20683
#
# Static dielectric constant tensor:
#      x y z
#    x 1.841800 0.000000 -0.024090 
#    y 0.000000 1.798210 0.000000 
#    z -0.024090 0.000000 1.874460 
# 
# From -- ./inp_files/266069.got.cif
#   From: 2010.05.17/outbox.cif.g08.bks.cpg/sg15_134_cif.got.tgz:266069.got - 2010.06.03 18:47:42.
