data_PCOD9258659
_publ_section_title
;
Structure prediction by ZEFSAII (Michael W. Deem and Ramdas Pophale) SiO2 
 PCOD9258659
Probable space group: C 2/C
;
_chemical_formula_sum "Si O2"
_cell_formula_units_Z 60
_cell_length_a 26.131935
_cell_length_b 31.952046
_cell_length_c 5.527434
_cell_angle_alpha 90.000000
_cell_angle_beta 117.694393
_cell_angle_gamma 90.000000
_cell_volume 4086.509465
_symmetry_space_group_name_H-M "C 2/C"
_symmetry_group_IT_number 15
_symmetry_cell_setting 'monoclinic'
loop_
_space_group_symop_operation_xyz
x,y,z
-x,y,1/2-z
-x,-y,-z
x,-y,1/2+z
1/2+x,1/2+y,z
1/2-x,1/2+y,1/2-z
1/2-x,1/2-y,-z
1/2+x,1/2-y,1/2+z
loop_
_atom_site_type_symbol
_atom_site_label
_atom_site_fract_x
_atom_site_fract_y
_atom_site_fract_z
Si Si1 0.800716 0.216695 0.632569
Si Si2 0.191936 0.876532 0.320593
Si Si3 0.173955 0.101941 0.289253
Si Si4 0.554341 0.362152 0.047996
Si Si5 0.138395 0.199768 0.227038
Si Si6 0.411244 0.474990 0.800829
Si Si7 0.992322 0.224744 0.486151
Si Si8 0.000000 0.926570 0.250000
O O1 0.750000 0.250000 0.500000
O O2 0.779636 0.168516 0.572923
O O3 0.841831 0.220564 0.484110
O O4 0.829246 0.217944 0.963756
O O5 0.198133 0.904415 0.572660
O O6 0.121740 0.867201 0.127964
O O7 0.213265 0.895444 0.115437
O O8 0.150436 0.150121 0.219771
O O9 0.130747 0.064528 0.257748
O O10 0.547117 0.395308 0.246374
O O11 0.500000 0.372644 0.750000
O O12 0.536983 0.314771 0.081887
O O13 0.071446 0.205556 0.142031
O O14 0.403177 0.495188 0.519235
O O15 0.474565 0.455429 0.984955
O O16 0.000000 0.247487 0.250000
O O17 0.000000 0.249424 0.750000
#
# Coordination Sequence:
#
# PCOD9258659 Si02
#       8
#     8   8   8   8   8   8   8   4
#     4  10  19  30  45  63  84  99 118 150 194 246
#     4  10  19  31  47  61  73  94 124 151 191 237
#     4  10  18  34  45  54  68  94 123 155 183 235
#     4  11  20  27  45  58  71  95 126 164 191 232
#     4  10  19  31  46  63  79 102 129 155 195 245
#     4  12  25  35  41  53  73  97 125 162 206 243
#     4  11  18  27  40  63  79  95 125 161 192 220
#     4  12  22  32  42  50  72  94 130 158 206 234
#
# _framework density 14.682456
#
# number of rings (size 3 to 8) (size 9 to 14) (size 15 to 20)
#    0.000    1.333    2.000    8.800    1.867    0.000 
#    0.000    0.000    0.000    0.000    0.000    0.000 
#    0.000    0.000    0.000    0.000    0.000    0.000 
#
# Total GULP energy -167060.098350 kJ/mol
# GULP energy per Si atom -5568.669945 kJ/mol
# Density = 1.464904 g / cm^3
# Si number density = 14.682456 Si / 1000 Ang^3
#
#
#
# Elastic Constant Matrix: (Units=GPa)
#
#
# Indices 1 2 3 4 5 6 
#
# 1 46.5289 19.4352 29.3695 0.0000 -20.7134 0.0000
# 2 19.4352 43.7893 21.2590 0.0000 1.4194 0.0000
# 3 29.3695 21.2590 87.0182 0.0000 -31.1249 0.0000
# 4 0.0000 0.0000 0.0000 22.5018 0.0000 1.0554
# 5 -20.7134 1.4194 -31.1249 0.0000 27.8481 0.0000
# 6 0.0000 0.0000 0.0000 1.0554 0.0000 19.7404
#
#
#
# Elastic Compliance Matrix: (Units=1/GPa)
#
#
# Indices 1 2 3 4 5 6 
#
# 1 0.047579 -0.025072 0.005301 0.000000 0.042592 0.000000
# 2 -0.025072 0.042863 -0.015763 0.000000 -0.038451 0.000000
# 3 0.005301 -0.015763 0.025409 0.000000 0.033145 0.000000
# 4 0.000000 0.000000 0.000000 0.044553 0.000000 -0.002382
# 5 0.042592 -0.038451 0.033145 0.000000 0.106595 0.000000
# 6 0.000000 0.000000 0.000000 -0.002382 0.000000 0.050785
#
#
# Mechanical properties :
#
#
# Convention : Reuss Voigt Hill
#
# Bulk Modulus (GPa) = 22.32892 35.27379 28.80135
# Shear Modulus (GPa) = 12.38301 21.16956 16.77629
#
# Velocity S-wave (km/s) = 2.90727 3.80126 3.38392
# Velocity P-wave (km/s) = 5.14883 6.58352 5.90987
#
# Compressibility (1/GPa) = 0.04478498
#
# Stress axis : x y z
#
# Youngs Moduli (GPa) = 21.01755 23.32999 39.35588
#
# Poissons Ratio (x) = 0.58492 -0.20863
# Poissons Ratio (y) = 0.52694 0.62037
# Poissons Ratio (z) = -0.11142 0.36775
#
# Static dielectric constant tensor:
#      x y z
#    x 1.525980 0.000000 -0.076330 
#    y 0.000000 1.477020 0.000000 
#    z -0.076330 0.000000 1.614250 
# 
# From -- ./inp_files/17856.got.cif
#   From: 2010.05.17/outbox.cif.g08.bks.cpg/sg15_9_cif.got.tgz:17856.got - 2010.06.03 18:47:42.
