data_PCOD9258747
_publ_section_title
;
Structure prediction by ZEFSAII (Michael W. Deem and Ramdas Pophale) SiO2 
 PCOD9258747
Probable space group: C 2/C
;
_chemical_formula_sum "Si O2"
_cell_formula_units_Z 60
_cell_length_a 12.407195
_cell_length_b 16.115444
_cell_length_c 13.140564
_cell_angle_alpha 90.000000
_cell_angle_beta 60.495886
_cell_angle_gamma 90.000000
_cell_volume 2286.699099
_symmetry_space_group_name_H-M "C 2/C"
_symmetry_group_IT_number 15
_symmetry_cell_setting 'monoclinic'
loop_
_space_group_symop_operation_xyz
x,y,z
-x,y,1/2-z
-x,-y,-z
x,-y,1/2+z
1/2+x,1/2+y,z
1/2-x,1/2+y,1/2-z
1/2-x,1/2-y,-z
1/2+x,1/2-y,1/2+z
loop_
_atom_site_type_symbol
_atom_site_label
_atom_site_fract_x
_atom_site_fract_y
_atom_site_fract_z
Si Si1 0.951930 0.219331 0.951814
Si Si2 0.303735 0.053808 0.774510
Si Si3 0.646461 0.156118 0.451918
Si Si4 0.000000 0.452691 0.750000
Si Si5 0.761361 0.996728 0.461160
Si Si6 0.706560 0.836308 0.594915
Si Si7 0.140373 0.727913 0.684045
Si Si8 0.966502 0.037190 0.626587
O O1 0.868218 0.254780 0.899841
O O2 0.026346 0.137817 0.885851
O O3 0.029901 0.296046 0.957788
O O4 0.841675 0.183877 0.074868
O O5 0.266708 0.029916 0.909423
O O6 0.325323 0.152079 0.757898
O O7 0.177995 0.023463 0.778956
O O8 0.442070 0.016940 0.695160
O O9 0.673307 0.058284 0.439405
O O10 0.765456 0.198191 0.345411
O O11 0.652257 0.188322 0.565598
O O12 0.113610 0.388899 0.704802
O O13 0.722484 0.900184 0.491016
O O14 0.909777 0.995376 0.373654
O O15 0.000000 0.757052 0.750000
O O16 0.000000 0.000000 0.500000
#
# Coordination Sequence:
#
# PCOD9258747 Si02
#       8
#     8   8   8   4   8   8   8   8
#     4  10  19  36  55  81 109 147 191 226 286 348
#     4   9  15  28  52  74 106 135 182 233 275 314
#     4  10  20  34  56  83 116 151 184 233 293 343
#     4  10  18  34  54  80 108 136 186 244 278 314
#     4   8  17  31  51  80 105 144 181 226 272 341
#     4   9  20  36  56  79 110 149 194 238 273 343
#     4  10  19  33  51  82 119 145 180 234 288 340
#     4   9  16  29  52  78 103 138 188 225 271 339
#
# _framework density 26.238695
#
# number of rings (size 3 to 8) (size 9 to 14) (size 15 to 20)
#    0.000    2.667    2.000    0.800    1.867    0.533 
#    2.400    0.000    0.000    0.000   15.600    0.000 
#    0.000    0.000    0.000    0.000    0.000    0.000 
#
# Total GULP energy -167200.954804 kJ/mol
# GULP energy per Si atom -5573.365160 kJ/mol
# Density = 2.617897 g / cm^3
# Si number density = 26.238695 Si / 1000 Ang^3
#
#
#
# Elastic Constant Matrix: (Units=GPa)
#
#
# Indices 1 2 3 4 5 6 
#
# 1 167.9035 52.2722 36.4861 0.0000 -33.7858 0.0000
# 2 52.2722 135.0042 23.0784 0.0000 -19.2251 0.0000
# 3 36.4861 23.0784 52.1630 0.0000 -27.4008 0.0000
# 4 0.0000 0.0000 0.0000 -4.5315 0.0000 -28.2409
# 5 -33.7858 -19.2251 -27.4008 0.0000 44.5841 0.0000
# 6 0.0000 0.0000 0.0000 -28.2409 0.0000 36.1609
#
#
#
# Elastic Compliance Matrix: (Units=1/GPa)
#
#
# Indices 1 2 3 4 5 6 
#
# 1 0.007897 -0.002097 -0.002846 0.000000 0.003331 0.000000
# 2 -0.002097 0.008679 -0.001834 0.000000 0.001026 0.000000
# 3 -0.002846 -0.001834 0.030162 0.000000 0.015589 0.000000
# 4 0.000000 0.000000 0.000000 -0.037612 0.000000 -0.029374
# 5 0.003331 0.001026 0.015589 0.000000 0.034977 0.000000
# 6 0.000000 0.000000 0.000000 -0.029374 0.000000 0.004713
#
#
# Mechanical properties :
#
#
# Convention : Reuss Voigt Hill
#
# Bulk Modulus (GPa) = 30.13541 64.30490 47.22016
# Shear Modulus (GPa) = 68.08997 31.45830 49.77414
#
# Velocity S-wave (km/s) = 5.09966 3.46631 4.36015
# Velocity P-wave (km/s) = 6.79599 6.37034 6.58660
#
# Compressibility (1/GPa) = 0.03318355
#
# Stress axis : x y z
#
# Youngs Moduli (GPa) = 126.62343 115.22457 33.15431
#
# Poissons Ratio (x) = 0.24161 0.09437
# Poissons Ratio (y) = 0.26551 0.06080
# Poissons Ratio (z) = 0.36043 0.21132
#
# Static dielectric constant tensor:
#      x y z
#    x 2.081400 0.000000 0.018440 
#    y 0.000000 2.092410 0.000000 
#    z 0.018440 0.000000 2.314900 
# 
# From -- ./inp_files/238713.got.cif
#   From: 2010.05.17/outbox.cif.g08.bks.cpg/sg15_120_cif.got.tgz:238713.got - 2010.06.03 18:47:42.
