data_PCOD9258789
_publ_section_title
;
Structure prediction by ZEFSAII (Michael W. Deem and Ramdas Pophale) SiO2 
 PCOD9258789
Probable space group: C 2/C
;
_chemical_formula_sum "Si O2"
_cell_formula_units_Z 60
_cell_length_a 18.028790
_cell_length_b 20.095424
_cell_length_c 12.012250
_cell_angle_alpha 90.000000
_cell_angle_beta 55.578986
_cell_angle_gamma 90.000000
_cell_volume 3589.985559
_symmetry_space_group_name_H-M "C 2/C"
_symmetry_group_IT_number 15
_symmetry_cell_setting 'monoclinic'
loop_
_space_group_symop_operation_xyz
x,y,z
-x,y,1/2-z
-x,-y,-z
x,-y,1/2+z
1/2+x,1/2+y,z
1/2-x,1/2+y,1/2-z
1/2-x,1/2-y,-z
1/2+x,1/2-y,1/2+z
loop_
_atom_site_type_symbol
_atom_site_label
_atom_site_fract_x
_atom_site_fract_y
_atom_site_fract_z
Si Si1 0.239596 0.421581 0.201673
Si Si2 0.813277 0.929625 0.665198
Si Si3 0.089620 0.527371 0.980833
Si Si4 0.738466 0.454004 0.564330
Si Si5 0.204721 0.823044 0.159742
Si Si6 0.403146 0.428258 0.373220
Si Si7 0.178756 0.669900 0.156189
Si Si8 0.000000 0.611951 0.250000
O O1 0.290978 0.491596 0.180507
O O2 0.142125 0.432475 0.339865
O O3 0.281507 0.362249 0.237524
O O4 0.243030 0.415733 0.066038
O O5 0.814535 0.914098 0.794731
O O6 0.896890 0.918775 0.511814
O O7 0.734223 0.885898 0.676120
O O8 0.165915 0.477148 0.964360
O O9 0.055666 0.568240 0.115696
O O10 0.000000 0.500000 0.000000
O O11 0.676439 0.519039 0.589550
O O12 0.122227 0.859397 0.166511
O O13 0.196254 0.744528 0.182115
O O14 0.285849 0.833297 0.001802
O O15 0.500000 0.451759 0.250000
O O16 0.073980 0.654787 0.250674
#
# Coordination Sequence:
#
# PCOD9258789 Si02
#       8
#     8   8   8   8   8   8   8   4
#     4  10  18  34  55  74 107 143 175 217 266 328
#     4   9  18  35  51  75 106 138 174 222 265 322
#     4  11  19  30  52  81 111 138 174 218 270 324
#     4  10  19  35  52  78 109 141 177 221 272 323
#     4  10  19  38  51  76 107 145 176 222 275 322
#     4  10  19  32  55  80 103 136 183 231 274 311
#     4  10  21  33  55  75 112 139 181 222 274 323
#     4  12  18  30  48  84 106 136 172 220 274 314
#
# _framework density 16.713159000000001
#
# number of rings (size 3 to 8) (size 9 to 14) (size 15 to 20)
#    0.000    1.867    4.000    4.000    0.933    0.533 
#    0.000    0.667    0.000    0.000    0.000    1.867 
#    0.000    0.000    0.000    0.000    0.000    0.000 
#
# Total GULP energy -167039.881628 kJ/mol
# GULP energy per Si atom -5567.996054 kJ/mol
# Density = 1.667512 g / cm^3
# Si number density = 16.713159 Si / 1000 Ang^3
#
#
#
# Elastic Constant Matrix: (Units=GPa)
#
#
# Indices 1 2 3 4 5 6 
#
# 1 41.8961 24.6489 39.4846 0.0000 4.6127 0.0000
# 2 24.6489 70.1910 26.1082 0.0000 8.6160 0.0000
# 3 39.4846 26.1082 139.8071 0.0000 21.5351 0.0000
# 4 0.0000 0.0000 0.0000 15.3406 0.0000 7.4388
# 5 4.6127 8.6160 21.5351 0.0000 32.7175 0.0000
# 6 0.0000 0.0000 0.0000 7.4388 0.0000 15.7064
#
#
#
# Elastic Compliance Matrix: (Units=1/GPa)
#
#
# Indices 1 2 3 4 5 6 
#
# 1 0.038569 -0.010452 -0.009489 0.000000 0.003561 0.000000
# 2 -0.010452 0.018313 0.000053 0.000000 -0.003384 0.000000
# 3 -0.009489 0.000053 0.010704 0.000000 -0.005722 0.000000
# 4 0.000000 0.000000 0.000000 0.084620 0.000000 -0.040077
# 5 0.003561 -0.003384 -0.005722 0.000000 0.034720 0.000000
# 6 0.000000 0.000000 0.000000 -0.040077 0.000000 0.082649
#
#
# Mechanical properties :
#
#
# Convention : Reuss Voigt Hill
#
# Bulk Modulus (GPa) = 35.95812 48.04198 42.00005
# Shear Modulus (GPa) = 15.69266 23.52975 19.61120
#
# Velocity S-wave (km/s) = 3.06754 3.75621 3.42921
# Velocity P-wave (km/s) = 5.84020 6.90069 6.39248
#
# Compressibility (1/GPa) = 0.02781013
#
# Stress axis : x y z
#
# Youngs Moduli (GPa) = 25.92774 54.60692 93.42193
#
# Poissons Ratio (x) = 0.57073 0.88652
# Poissons Ratio (y) = 0.27099 -0.00497
# Poissons Ratio (z) = 0.24604 -0.00291
#
# Static dielectric constant tensor:
#      x y z
#    x 1.629450 0.000000 -0.006510 
#    y 0.000000 1.561000 0.000000 
#    z -0.006510 0.000000 1.615530 
# 
# From -- ./inp_files/106699.got.cif
#   From: 2010.05.17/outbox.cif.g08.bks.cpg/sg15_54_cif.got.tgz:106699.got - 2010.06.03 18:47:42.
