data_PCOD9258074
_publ_section_title
;
Structure prediction by ZEFSAII (Michael W. Deem and Ramdas Pophale) SiO2 
 PCOD9258074
Probable space group: C 2/C
;
_chemical_formula_sum "Si O2"
_cell_formula_units_Z 60
_cell_length_a 14.854053
_cell_length_b 26.659028
_cell_length_c 8.305474
_cell_angle_alpha 90.000000
_cell_angle_beta 62.390818
_cell_angle_gamma 90.000000
_cell_volume 2914.411088
_symmetry_space_group_name_H-M "C 2/C"
_symmetry_group_IT_number 15
_symmetry_cell_setting 'monoclinic'
loop_
_space_group_symop_operation_xyz
x,y,z
-x,y,1/2-z
-x,-y,-z
x,-y,1/2+z
1/2+x,1/2+y,z
1/2-x,1/2+y,1/2-z
1/2-x,1/2-y,-z
1/2+x,1/2-y,1/2+z
loop_
_atom_site_type_symbol
_atom_site_label
_atom_site_fract_x
_atom_site_fract_y
_atom_site_fract_z
Si Si1 0.978778 0.147725 0.071120
Si Si2 0.092526 0.037941 0.399699
Si Si3 0.348147 0.733907 0.231935
Si Si4 0.256378 0.488856 0.986112
Si Si5 0.187030 0.191786 0.875507
Si Si6 0.939677 0.454419 0.965427
Si Si7 0.648545 0.889346 0.198197
Si Si8 0.500000 0.810533 0.250000
O O1 0.000000 0.145261 0.250000
O O2 0.951487 0.092782 0.035392
O O3 0.885926 0.184762 0.112436
O O4 0.077405 0.173546 0.912915
O O5 0.190605 0.022332 0.422086
O O6 0.143500 0.033083 0.183249
O O7 0.000000 0.000000 0.500000
O O8 0.252296 0.763726 0.242186
O O9 0.325921 0.713217 0.431207
O O10 0.442514 0.773135 0.174586
O O11 0.174728 0.525122 0.969026
O O12 0.189881 0.440360 0.087585
O O13 0.256804 0.142512 0.817116
O O14 0.000000 0.443315 0.750000
O O15 0.926030 0.407788 0.097476
O O16 0.000000 0.500000 0.000000
O O17 0.590232 0.849501 0.132122
#
# Coordination Sequence:
#
# PCOD9258074 Si02
#       8
#     8   8   8   8   8   8   8   4
#     4  10  18  33  54  83 125 160 199 251 320 366
#     4  12  24  39  59  89 128 173 209 259 309 380
#     4   9  16  31  51  88 126 151 197 263 325 363
#     4  12  23  40  59  88 127 165 219 254 310 377
#     4   9  17  29  52  81 120 151 189 252 312 371
#     4  12  23  42  62  86 125 172 213 267 322 384
#     4  11  21  34  58  88 120 162 206 257 319 379
#     4  10  18  32  58  92 126 156 202 268 330 378
#
# _framework density 20.587350000000001
#
# number of rings (size 3 to 8) (size 9 to 14) (size 15 to 20)
#    0.000    1.333    4.667    4.400    0.000    0.000 
#    0.000    0.000    0.000    0.000    0.000   15.867 
#    0.000    0.000    0.000    0.000    0.000    0.000 
#
# Total GULP energy -167138.846721 kJ/mol
# GULP energy per Si atom -5571.294891 kJ/mol
# Density = 2.054049 g / cm^3
# Si number density = 20.587350 Si / 1000 Ang^3
#
#
#
# Elastic Constant Matrix: (Units=GPa)
#
#
# Indices 1 2 3 4 5 6 
#
# 1 52.1023 34.7809 6.8396 0.0000 -20.3710 0.0000
# 2 34.7809 149.7156 21.5716 0.0000 -15.1780 0.0000
# 3 6.8396 21.5716 54.6728 0.0000 -23.2392 0.0000
# 4 0.0000 0.0000 0.0000 100.9794 0.0000 11.3540
# 5 -20.3710 -15.1780 -23.2392 0.0000 25.7734 0.0000
# 6 0.0000 0.0000 0.0000 11.3540 0.0000 53.6224
#
#
#
# Elastic Compliance Matrix: (Units=1/GPa)
#
#
# Indices 1 2 3 4 5 6 
#
# 1 0.036514 -0.006697 0.014050 0.000000 0.037586 0.000000
# 2 -0.006697 0.008426 -0.004260 0.000000 -0.004172 0.000000
# 3 0.014050 -0.004260 0.035457 0.000000 0.040567 0.000000
# 4 0.000000 0.000000 0.000000 0.010145 0.000000 -0.002148
# 5 0.037586 -0.004172 0.040567 0.000000 0.102628 0.000000
# 6 0.000000 0.000000 0.000000 -0.002148 0.000000 0.019104
#
#
# Mechanical properties :
#
#
# Convention : Reuss Voigt Hill
#
# Bulk Modulus (GPa) = 11.54942 42.54165 27.04553
# Shear Modulus (GPa) = 21.28121 48.96163 35.12142
#
# Velocity S-wave (km/s) = 3.21861 4.88201 4.13482
# Velocity P-wave (km/s) = 4.40849 7.24483 5.99676
#
# Compressibility (1/GPa) = 0.08658445
#
# Stress axis : x y z
#
# Youngs Moduli (GPa) = 27.38647 118.68126 28.20289
#
# Poissons Ratio (x) = 0.79479 -0.39626
# Poissons Ratio (y) = 0.18340 0.12015
# Poissons Ratio (z) = -0.38479 0.50562
#
# Static dielectric constant tensor:
#      x y z
#    x 1.916990 0.000000 0.200470 
#    y 0.000000 1.703890 0.000000 
#    z 0.200470 0.000000 2.034740 
# 
# From -- ./inp_files/51522.got.cif
#   From: 2010.05.17/outbox.cif.g08.bks.cpg/sg15_26_cif.got.tgz:51522.got - 2010.06.03 18:47:42.
