data_PCOD9258469
_publ_section_title
;
Structure prediction by ZEFSAII (Michael W. Deem and Ramdas Pophale) SiO2 
 PCOD9258469
Probable space group: C 2/C
;
_chemical_formula_sum "Si O2"
_cell_formula_units_Z 56
_cell_length_a 10.281426
_cell_length_b 14.420106
_cell_length_c 28.253683
_cell_angle_alpha 90.000000
_cell_angle_beta 35.362426
_cell_angle_gamma 90.000000
_cell_volume 2424.293790
_symmetry_space_group_name_H-M "C 2/C"
_symmetry_group_IT_number 15
_symmetry_cell_setting 'monoclinic'
loop_
_space_group_symop_operation_xyz
x,y,z
-x,y,1/2-z
-x,-y,-z
x,-y,1/2+z
1/2+x,1/2+y,z
1/2-x,1/2+y,1/2-z
1/2-x,1/2-y,-z
1/2+x,1/2-y,1/2+z
loop_
_atom_site_type_symbol
_atom_site_label
_atom_site_fract_x
_atom_site_fract_y
_atom_site_fract_z
Si Si1 0.050857 0.949927 0.109814
Si Si2 0.500000 0.687168 0.750000
Si Si3 0.500000 0.780959 0.250000
Si Si4 0.724364 0.725813 0.923396
Si Si5 0.628519 0.050262 0.894607
Si Si6 0.435448 0.857675 0.942288
Si Si7 0.405105 0.259140 0.180153
Si Si8 0.375174 0.632877 0.452660
O O1 0.231645 0.964613 0.098430
O O2 0.882922 0.870685 0.178007
O O3 0.195589 0.897786 0.027327
O O4 0.976590 0.047410 0.110515
O O5 0.285541 0.620154 0.819246
O O6 0.533967 0.750976 0.784654
O O7 0.643523 0.820100 0.161186
O O8 0.678079 0.720000 0.225978
O O9 0.560777 0.800469 0.946657
O O10 0.599450 0.661816 0.999778
O O11 0.887392 0.783106 0.911302
O O12 0.384412 0.096349 0.973903
O O13 0.581883 0.949185 0.887387
O O14 0.409466 0.788376 0.906724
#
# Coordination Sequence:
#
# PCOD9258469 Si02
#       8
#     8   4   4   8   8   8   8   8
#     4  10  18  35  57  87 111 144 199 248 295 333
#     4  10  22  37  58  91 116 160 192 256 295 350
#     4  10  22  39  54  85 120 162 192 236 297 368
#     4  10  19  32  57  85 116 149 196 237 294 345
#     4  10  18  33  57  83 121 144 202 244 296 335
#     4  10  18  35  57  86 110 150 188 252 290 352
#     4  10  22  37  59  84 121 155 197 240 302 356
#     4  10  18  33  57  89 112 152 194 253 279 351
#
# _framework density 23.099509999999999
#
# number of rings (size 3 to 8) (size 9 to 14) (size 15 to 20)
#    0.000    2.000    2.857    2.143    0.000    2.286 
#    0.000    2.857    0.000   12.857    0.000    0.000 
#    0.000    0.000    0.000    0.000    0.000    0.000 
#
# Total GULP energy -156044.833297 kJ/mol
# GULP energy per Si atom -5573.029761 kJ/mol
# Density = 2.304693 g / cm^3
# Si number density = 23.099510 Si / 1000 Ang^3
#
#
#
# Elastic Constant Matrix: (Units=GPa)
#
#
# Indices 1 2 3 4 5 6 
#
# 1 75.4114 32.2199 38.2485 0.0001 35.5741 0.0008
# 2 32.2199 70.3343 8.3230 0.0007 18.8288 -0.0009
# 3 38.2485 8.3230 63.6807 0.0046 36.0423 0.0007
# 4 0.0001 0.0007 0.0046 -0.1078 -0.0016 17.5954
# 5 35.5741 18.8288 36.0423 -0.0016 53.9617 -0.0007
# 6 0.0008 -0.0009 0.0007 17.5954 -0.0007 22.1787
#
#
#
# Elastic Compliance Matrix: (Units=1/GPa)
#
#
# Indices 1 2 3 4 5 6 
#
# 1 0.025348 -0.008554 -0.010190 -0.000004 -0.006920 0.000002
# 2 -0.008554 0.018682 0.005135 0.000004 -0.004310 -0.000002
# 3 -0.010190 0.005135 0.029527 0.000010 -0.014795 -0.000009
# 4 -0.000004 0.000004 0.000010 -0.071088 -0.000007 0.056398
# 5 -0.006920 -0.004310 -0.014795 -0.000007 0.034479 0.000007
# 6 0.000002 -0.000002 -0.000009 0.056398 0.000007 0.000345
#
#
# Mechanical properties :
#
#
# Convention : Reuss Voigt Hill
#
# Bulk Modulus (GPa) = 21.58010 40.77880 31.17945
# Shear Modulus (GPa) = 62.53314 23.91555 43.22434
#
# Velocity S-wave (km/s) = 5.20864 3.22114 4.33046
# Velocity P-wave (km/s) = 6.74802 5.61482 6.20733
#
# Compressibility (1/GPa) = 0.04633899
#
# Stress axis : x y z
#
# Youngs Moduli (GPa) = 39.45105 53.52684 33.86752
#
# Poissons Ratio (x) = 0.45784 0.34512
# Poissons Ratio (y) = 0.33744 -0.17391
# Poissons Ratio (z) = 0.40202 -0.27486
#
# Static dielectric constant tensor:
#      x y z
#    x 1.874720 0.000000 -0.041820 
#    y 0.000000 1.912870 0.000000 
#    z -0.041820 0.000000 2.049590 
# 
# From -- ./inp_files/292871.got.cif
#   From: 2010.05.17/outbox.cif.g08.bks.cpg/sg15_147_cif.got.tgz:292871.got - 2010.06.03 18:47:42.
