data_PCOD9258390
_publ_section_title
;
Structure prediction by ZEFSAII (Michael W. Deem and Ramdas Pophale) SiO2 
 PCOD9258390
Probable space group: C 2/C
;
_chemical_formula_sum "Si O2"
_cell_formula_units_Z 56
_cell_length_a 28.652489
_cell_length_b 16.562437
_cell_length_c 8.862959
_cell_angle_alpha 90.000000
_cell_angle_beta 142.674597
_cell_angle_gamma 90.000000
_cell_volume 2550.247255
_symmetry_space_group_name_H-M "C 2/C"
_symmetry_group_IT_number 15
_symmetry_cell_setting 'monoclinic'
loop_
_space_group_symop_operation_xyz
x,y,z
-x,y,1/2-z
-x,-y,-z
x,-y,1/2+z
1/2+x,1/2+y,z
1/2-x,1/2+y,1/2-z
1/2-x,1/2-y,-z
1/2+x,1/2-y,1/2+z
loop_
_atom_site_type_symbol
_atom_site_label
_atom_site_fract_x
_atom_site_fract_y
_atom_site_fract_z
Si Si1 0.445418 0.242502 0.736114
Si Si2 0.812159 0.557538 0.660059
Si Si3 0.199790 0.024493 0.631683
Si Si4 0.145378 0.614265 0.197866
Si Si5 0.340822 0.236989 0.713060
Si Si6 0.671522 0.386835 0.350548
Si Si7 0.904955 0.733198 0.203049
O O1 0.500000 0.284593 0.750000
O O2 0.409150 0.166966 0.550465
O O3 0.375114 0.278753 0.651997
O O4 0.505989 0.224399 0.025845
O O5 0.751033 0.569364 0.638315
O O6 0.760545 0.526253 0.388829
O O7 0.866522 0.481736 0.839659
O O8 0.851603 0.640635 0.721805
O O9 0.150600 0.958589 0.413257
O O10 0.158602 0.080236 0.648663
O O11 0.235976 0.626163 0.395917
O O12 0.132475 0.650320 0.332204
O O13 0.250000 0.250000 0.500000
O O14 0.383605 0.256549 0.978838
O O15 0.631290 0.304169 0.288096
#
# Coordination Sequence:
#
# PCOD9258390 Si02
#       7
#     8   8   8   8   8   8   8
#     4  10  23  41  56  83 125 162 200 249 309 366
#     4  10  18  33  55  84 117 154 204 258 297 351
#     4   8  17  31  53  86 118 149 192 252 311 357
#     4   9  19  37  58  84 119 163 207 248 301 364
#     4  12  23  38  62  91 118 159 211 258 306 367
#     4  10  18  34  59  91 123 156 203 256 307 372
#     4  11  22  36  57  89 123 161 203 257 309 367
#
# _framework density 21.958653999999999
#
# number of rings (size 3 to 8) (size 9 to 14) (size 15 to 20)
#    0.000    2.286    0.000    6.000    0.000    3.429 
#    0.000    7.857    0.000    0.000    0.000   66.000 
#    0.000    0.000    0.000    0.000    0.000    0.000 
#
# Total GULP energy -156186.101460 kJ/mol
# GULP energy per Si atom -5578.075052 kJ/mol
# Density = 2.190868 g / cm^3
# Si number density = 21.958654 Si / 1000 Ang^3
#
#
#
# Elastic Constant Matrix: (Units=GPa)
#
#
# Indices 1 2 3 4 5 6 
#
# 1 135.9818 19.5204 28.1961 0.0000 -13.5505 0.0000
# 2 19.5204 65.2350 14.2909 0.0000 6.2708 0.0000
# 3 28.1961 14.2909 88.7953 0.0000 -9.0656 0.0000
# 4 0.0000 0.0000 0.0000 21.9629 0.0000 -16.0546
# 5 -13.5505 6.2708 -9.0656 0.0000 34.3912 0.0000
# 6 0.0000 0.0000 0.0000 -16.0546 0.0000 19.3943
#
#
#
# Elastic Compliance Matrix: (Units=1/GPa)
#
#
# Indices 1 2 3 4 5 6 
#
# 1 0.008428 -0.002405 -0.001958 0.000000 0.003243 0.000000
# 2 -0.002405 0.017039 -0.002459 0.000000 -0.004703 0.000000
# 3 -0.001958 -0.002459 0.012585 0.000000 0.002994 0.000000
# 4 0.000000 0.000000 0.000000 0.115301 0.000000 0.095446
# 5 0.003243 -0.004703 0.002994 0.000000 0.032002 0.000000
# 6 0.000000 0.000000 0.000000 0.095446 0.000000 0.130572
#
#
# Mechanical properties :
#
#
# Convention : Reuss Voigt Hill
#
# Bulk Modulus (GPa) = 40.96814 46.00298 43.48556
# Shear Modulus (GPa) = 14.80570 30.34999 22.57785
#
# Velocity S-wave (km/s) = 2.59946 3.72175 3.21003
# Velocity P-wave (km/s) = 5.26375 6.28203 5.79529
#
# Compressibility (1/GPa) = 0.02440921
#
# Stress axis : x y z
#
# Youngs Moduli (GPa) = 118.64717 58.68723 79.45902
#
# Poissons Ratio (x) = 0.14113 0.15560
# Poissons Ratio (y) = 0.28532 0.19538
# Poissons Ratio (z) = 0.23233 0.14430
#
# Static dielectric constant tensor:
#      x y z
#    x 1.874450 0.000000 -0.040990 
#    y 0.000000 1.836790 0.000000 
#    z -0.040990 0.000000 1.815560 
# 
# From -- ./inp_files/70516.got.cif
#   From: 2010.05.17/outbox.cif.g08.bks.cpg/sg15_36_cif.got.tgz:70516.got - 2010.06.03 18:47:42.
