data_PCOD9258556
_publ_section_title
;
Structure prediction by ZEFSAII (Michael W. Deem and Ramdas Pophale) SiO2 
 PCOD9258556
Probable space group: C 2/C
;
_chemical_formula_sum "Si O2"
_cell_formula_units_Z 52
_cell_length_a 13.608601
_cell_length_b 28.908254
_cell_length_c 5.357920
_cell_angle_alpha 90.000000
_cell_angle_beta 78.878824
_cell_angle_gamma 90.000000
_cell_volume 2068.228879
_symmetry_space_group_name_H-M "C 2/C"
_symmetry_group_IT_number 15
_symmetry_cell_setting 'monoclinic'
loop_
_space_group_symop_operation_xyz
x,y,z
-x,y,1/2-z
-x,-y,-z
x,-y,1/2+z
1/2+x,1/2+y,z
1/2-x,1/2+y,1/2-z
1/2-x,1/2-y,-z
1/2+x,1/2-y,1/2+z
loop_
_atom_site_type_symbol
_atom_site_label
_atom_site_fract_x
_atom_site_fract_y
_atom_site_fract_z
Si Si1 0.622680 0.986062 0.824611
Si Si2 0.646180 0.523082 0.799895
Si Si3 0.670599 0.169436 0.925806
Si Si4 0.183109 0.612395 0.409156
Si Si5 0.000000 0.728310 0.750000
Si Si6 0.333395 0.283638 0.087858
Si Si7 0.890566 0.112073 0.413581
O O1 0.622393 0.934159 0.925226
O O2 0.581185 0.983721 0.568275
O O3 0.734736 0.010010 0.744261
O O4 0.605511 0.497515 0.065146
O O5 0.623078 0.577417 0.846130
O O6 0.679449 0.132812 0.690947
O O7 0.577946 0.199454 0.876565
O O8 0.773716 0.199811 0.865967
O O9 0.654555 0.148134 0.205845
O O10 0.297092 0.596728 0.288344
O O11 0.064828 0.756252 0.512955
O O12 0.250000 0.250000 0.000000
O O13 0.364516 0.333905 0.963147
O O14 0.000000 0.107261 0.250000
#
# Coordination Sequence:
#
# PCOD9258556 Si02
#       7
#     8   8   8   8   4   8   8
#     4  10  18  33  59  87 130 172 222 265 323 390
#     4  10  21  36  56  88 130 175 224 263 321 389
#     4  10  24  41  73  97 137 175 221 282 340 409
#     4  11  22  41  62 101 135 175 230 272 330 402
#     4  10  20  48  72 104 134 174 224 284 354 406
#     4   9  20  41  70  97 137 171 225 278 336 402
#     4  11  22  38  65  90 139 180 225 272 336 394
#
# _framework density 25.142287
#
# number of rings (size 3 to 8) (size 9 to 14) (size 15 to 20)
#    0.000    1.846    3.846    0.923    6.462    1.231 
#    0.000   28.462    0.000    0.000    0.000   10.769 
#    0.000    0.000    0.000    0.000    0.000    0.000 
#
# Total GULP energy -145134.174513 kJ/mol
# GULP energy per Si atom -5582.083635 kJ/mol
# Density = 2.508506 g / cm^3
# Si number density = 25.142287 Si / 1000 Ang^3
#
#
#
# Elastic Constant Matrix: (Units=GPa)
#
#
# Indices 1 2 3 4 5 6 
#
# 1 87.2950 18.9070 16.3146 0.0000 -15.0755 0.0000
# 2 18.9070 119.4003 36.9212 0.0000 -11.2233 0.0000
# 3 16.3146 36.9212 112.6972 0.0000 10.4989 0.0000
# 4 0.0000 0.0000 0.0000 -19.7792 0.0000 17.5910
# 5 -15.0755 -11.2233 10.4989 0.0000 37.1736 0.0000
# 6 0.0000 0.0000 0.0000 17.5910 0.0000 10.9796
#
#
#
# Elastic Compliance Matrix: (Units=1/GPa)
#
#
# Indices 1 2 3 4 5 6 
#
# 1 0.013010 -0.000878 -0.002118 0.000000 0.005609 0.000000
# 2 -0.000878 0.009925 -0.003461 0.000000 0.003618 0.000000
# 3 -0.002118 -0.003461 0.010775 0.000000 -0.004947 0.000000
# 4 0.000000 0.000000 0.000000 -0.020850 0.000000 0.033404
# 5 0.005609 0.003618 -0.004947 0.000000 0.031665 0.000000
# 6 0.000000 0.000000 0.000000 0.033404 0.000000 0.037559
#
#
# Mechanical properties :
#
#
# Convention : Reuss Voigt Hill
#
# Bulk Modulus (GPa) = 48.08987 51.51978 49.80483
# Shear Modulus (GPa) = 49.05251 22.15812 35.60532
#
# Velocity S-wave (km/s) = 4.42180 2.97191 3.76726
# Velocity P-wave (km/s) = 6.72595 5.68437 6.22698
#
# Compressibility (1/GPa) = 0.02079440
#
# Stress axis : x y z
#
# Youngs Moduli (GPa) = 76.86288 100.75952 92.80821
#
# Poissons Ratio (x) = 0.08845 0.19661
# Poissons Ratio (y) = 0.06747 0.32125
# Poissons Ratio (z) = 0.16283 0.34877
#
# Static dielectric constant tensor:
#      x y z
#    x 0.543580 0.000000 0.087870 
#    y 0.000000 2.043070 0.000000 
#    z 0.087870 0.000000 2.028920 
# 
# From -- ./inp_files/9004.got.cif
#   From: 2010.05.17/outbox.cif.g08.bks.cpg/sg15_5_cif.got.tgz:9004.got - 2010.06.03 18:47:42.
