data_PCOD9258466
_publ_section_title
;
Structure prediction by ZEFSAII (Michael W. Deem and Ramdas Pophale) SiO2 
 PCOD9258466
Probable space group: C 2/C
;
_chemical_formula_sum "Si O2"
_cell_formula_units_Z 44
_cell_length_a 12.418289
_cell_length_b 12.739783
_cell_length_c 21.174408
_cell_angle_alpha 90.000000
_cell_angle_beta 31.524819
_cell_angle_gamma 90.000000
_cell_volume 1751.568049
_symmetry_space_group_name_H-M "C 2/C"
_symmetry_group_IT_number 15
_symmetry_cell_setting 'monoclinic'
loop_
_space_group_symop_operation_xyz
x,y,z
-x,y,1/2-z
-x,-y,-z
x,-y,1/2+z
1/2+x,1/2+y,z
1/2-x,1/2+y,1/2-z
1/2-x,1/2-y,-z
1/2+x,1/2-y,1/2+z
loop_
_atom_site_type_symbol
_atom_site_label
_atom_site_fract_x
_atom_site_fract_y
_atom_site_fract_z
Si Si1 0.500000 0.173473 0.750000
Si Si2 0.621306 0.547429 0.997372
Si Si3 0.799065 0.635011 0.498175
Si Si4 0.042022 0.266433 0.063704
Si Si5 0.737451 0.156898 0.329710
Si Si6 0.701319 0.061046 0.869304
O O1 0.327757 0.100240 0.866220
O O2 0.593628 0.250963 0.757676
O O3 0.699265 0.459002 0.007457
O O4 0.475664 0.644667 0.092491
O O5 0.500000 0.500000 0.000000
O O6 0.750000 0.750000 0.500000
O O7 0.718645 0.622415 0.610064
O O8 0.048694 0.639728 0.376331
O O9 0.133468 0.302022 0.947929
O O10 0.250000 0.250000 0.000000
O O11 0.871030 0.360229 0.149676
O O12 0.833041 0.040626 0.285332
O O13 0.500000 0.000000 0.000000
#
# Coordination Sequence:
#
# PCOD9258466 Si02
#       6
#     4   8   8   8   8   8
#     4  10  22  38  54  82 114 154 204 250 306 368
#     4  11  21  36  59  84 118 156 195 252 306 363
#     4  10  18  33  57  83 110 149 194 242 303 360
#     4   9  15  28  53  83 107 140 186 228 282 351
#     4   9  18  33  51  76 114 145 183 240 289 353
#     4   8  15  28  49  77 105 137 177 223 278 346
#
# _framework density 25.120349000000001
#
# number of rings (size 3 to 8) (size 9 to 14) (size 15 to 20)
#    0.000    2.909    0.000    6.545    0.000    0.000 
#    0.000    7.273    0.000    4.364    0.000    0.000 
#    0.000    0.000    0.000    0.000    0.000    0.000 
#
# Total GULP energy -122605.262690 kJ/mol
# GULP energy per Si atom -5572.966486 kJ/mol
# Density = 2.506317 g / cm^3
# Si number density = 25.120349 Si / 1000 Ang^3
#
#
#
# Elastic Constant Matrix: (Units=GPa)
#
#
# Indices 1 2 3 4 5 6 
#
# 1 181.8048 120.5808 17.0270 -0.0004 -33.1419 -0.0002
# 2 120.5808 253.2754 32.6761 -0.0021 -16.9979 -0.0002
# 3 17.0270 32.6761 76.4006 -0.0096 -14.0902 -0.0033
# 4 -0.0004 -0.0021 -0.0096 49.4808 0.0003 -8.3241
# 5 -33.1419 -16.9979 -14.0902 0.0003 25.3548 0.0008
# 6 -0.0002 -0.0002 -0.0033 -8.3241 0.0008 75.9289
#
#
#
# Elastic Compliance Matrix: (Units=1/GPa)
#
#
# Indices 1 2 3 4 5 6 
#
# 1 0.010340 -0.004367 0.001689 0.000000 0.011526 0.000000
# 2 -0.004367 0.006118 -0.002161 0.000000 -0.002808 0.000000
# 3 0.001689 -0.002161 0.015350 0.000003 0.009289 0.000001
# 4 0.000000 0.000000 0.000003 0.020590 0.000001 0.002257
# 5 0.011526 -0.002808 0.009289 0.000001 0.057787 0.000000
# 6 0.000000 0.000000 0.000001 0.002257 0.000000 0.013418
#
#
# Mechanical properties :
#
#
# Convention : Reuss Voigt Hill
#
# Bulk Modulus (GPa) = 45.18849 94.67206 69.93028
# Shear Modulus (GPa) = 35.54778 52.89937 44.22357
#
# Velocity S-wave (km/s) = 3.76586 4.59392 4.20035
# Velocity P-wave (km/s) = 6.07756 8.11837 7.17094
#
# Compressibility (1/GPa) = 0.02212953
#
# Stress axis : x y z
#
# Youngs Moduli (GPa) = 96.71384 163.46013 65.14678
#
# Poissons Ratio (x) = 0.71383 -0.11004
# Poissons Ratio (y) = 0.42235 0.14079
# Poissons Ratio (z) = -0.16336 0.35325
#
# Static dielectric constant tensor:
#      x y z
#    x 0.953810 -0.000050 -0.116980 
#    y -0.000050 1.336440 -0.000010 
#    z -0.116980 -0.000010 2.686300 
# 
# From -- ./inp_files/292170.got.cif
#   From: 2010.05.17/outbox.cif.g08.bks.cpg/sg15_147_cif.got.tgz:292170.got - 2010.06.03 18:47:42.
