data_PCOD9258708
_publ_section_title
;
Structure prediction by ZEFSAII (Michael W. Deem and Ramdas Pophale) SiO2 
 PCOD9258708
Probable space group: C 2/C
;
_chemical_formula_sum "Si O2"
_cell_formula_units_Z 52
_cell_length_a 8.580110
_cell_length_b 17.447465
_cell_length_c 14.588472
_cell_angle_alpha 90.000000
_cell_angle_beta 111.362399
_cell_angle_gamma 90.000000
_cell_volume 2033.865837
_symmetry_space_group_name_H-M "C 2/C"
_symmetry_group_IT_number 15
_symmetry_cell_setting 'monoclinic'
loop_
_space_group_symop_operation_xyz
x,y,z
-x,y,1/2-z
-x,-y,-z
x,-y,1/2+z
1/2+x,1/2+y,z
1/2-x,1/2+y,1/2-z
1/2-x,1/2-y,-z
1/2+x,1/2-y,1/2+z
loop_
_atom_site_type_symbol
_atom_site_label
_atom_site_fract_x
_atom_site_fract_y
_atom_site_fract_z
Si Si1 0.500000 0.228306 0.250000
Si Si2 0.417584 0.146435 0.426333
Si Si3 0.899131 0.958968 0.076390
Si Si4 0.177609 0.739041 0.585697
Si Si5 0.957182 0.862757 0.635098
Si Si6 0.112670 0.524494 0.644624
Si Si7 0.254596 0.029720 0.628795
O O1 0.461499 0.179481 0.334217
O O2 0.667835 0.274317 0.312317
O O3 0.535676 0.178390 0.530674
O O4 0.230399 0.167595 0.415118
O O5 0.423935 0.054704 0.416423
O O6 0.947603 0.046433 0.114123
O O7 0.764150 0.934775 0.122515
O O8 0.082368 0.920647 0.103757
O O9 0.800984 0.968010 0.959751
O O10 0.250000 0.750000 0.500000
O O11 0.086659 0.815253 0.602912
O O12 0.000000 0.852298 0.750000
O O13 0.195143 0.501103 0.759985
O O14 0.932145 0.561430 0.629874
#
# Coordination Sequence:
#
# PCOD9258708 Si02
#       7
#     4   8   8   8   8   8   8
#     4  10  18  34  52  84 116 152 194 246 290 360
#     4  10  20  34  57  90 114 155 203 250 298 351
#     4  10  21  34  55  92 119 151 200 253 299 356
#     4  10  22  34  57  87 121 153 202 250 302 358
#     4  11  20  36  60  86 118 156 205 250 296 365
#     4  10  20  35  60  85 119 154 205 245 294 370
#     4  10  20  34  57  88 120 154 193 254 306 347
#
# _framework density 25.567076
#
# number of rings (size 3 to 8) (size 9 to 14) (size 15 to 20)
#    0.000    1.846    1.538    4.154    4.308    0.000 
#    0.000    0.000    0.000   18.462    2.000    0.000 
#    0.000    0.000    0.000    0.000    0.000    0.000 
#
# Total GULP energy -145349.355009 kJ/mol
# GULP energy per Si atom -5590.359808 kJ/mol
# Density = 2.550888 g / cm^3
# Si number density = 25.567076 Si / 1000 Ang^3
#
#
#
# Elastic Constant Matrix: (Units=GPa)
#
#
# Indices 1 2 3 4 5 6 
#
# 1 235.9215 38.6674 75.0726 0.0000 22.1258 0.0000
# 2 38.6674 77.1776 48.1779 0.0000 4.6691 0.0000
# 3 75.0726 48.1779 170.1585 0.0000 27.9267 0.0000
# 4 0.0000 0.0000 0.0000 54.6385 0.0000 -21.6023
# 5 22.1258 4.6691 27.9267 0.0000 62.8725 0.0000
# 6 0.0000 0.0000 0.0000 -21.6023 0.0000 45.7639
#
#
#
# Elastic Compliance Matrix: (Units=1/GPa)
#
#
# Indices 1 2 3 4 5 6 
#
# 1 0.005100 -0.001446 -0.001687 0.000000 -0.000938 0.000000
# 2 -0.001446 0.016193 -0.004135 0.000000 0.001143 0.000000
# 3 -0.001687 -0.004135 0.008245 0.000000 -0.002762 0.000000
# 4 0.000000 0.000000 0.000000 0.022502 0.000000 0.010622
# 5 -0.000938 0.001143 -0.002762 0.000000 0.017377 0.000000
# 6 0.000000 0.000000 0.000000 0.010622 0.000000 0.026865
#
#
# Mechanical properties :
#
#
# Convention : Reuss Voigt Hill
#
# Bulk Modulus (GPa) = 66.64727 89.67704 78.16216
# Shear Modulus (GPa) = 43.17099 54.07762 48.62430
#
# Velocity S-wave (km/s) = 4.11364 4.60404 4.36573
# Velocity P-wave (km/s) = 6.97760 7.96331 7.48669
#
# Compressibility (1/GPa) = 0.01500436
#
# Stress axis : x y z
#
# Youngs Moduli (GPa) = 196.06162 61.75396 121.28458
#
# Poissons Ratio (x) = 0.08927 0.20461
# Poissons Ratio (y) = 0.28342 0.50147
# Poissons Ratio (z) = 0.33076 0.25533
#
# Static dielectric constant tensor:
#      x y z
#    x 2.122690 0.000000 -0.015390 
#    y 0.000000 2.014550 0.000000 
#    z -0.015390 0.000000 2.063250 
# 
# From -- ./inp_files/137542.got.cif
#   From: 2010.05.17/outbox.cif.g08.bks.cpg/sg15_69_cif.got.tgz:137542.got - 2010.06.03 18:47:42.
