data_PCOD9258709
_publ_section_title
;
Structure prediction by ZEFSAII (Michael W. Deem and Ramdas Pophale) SiO2 
 PCOD9258709
Probable space group: C 2/C
;
_chemical_formula_sum "Si O2"
_cell_formula_units_Z 60
_cell_length_a 18.446607
_cell_length_b 14.916600
_cell_length_c 11.381444
_cell_angle_alpha 90.000000
_cell_angle_beta 49.462077
_cell_angle_gamma 90.000000
_cell_volume 2380.036127
_symmetry_space_group_name_H-M "C 2/C"
_symmetry_group_IT_number 15
_symmetry_cell_setting 'monoclinic'
loop_
_space_group_symop_operation_xyz
x,y,z
-x,y,1/2-z
-x,-y,-z
x,-y,1/2+z
1/2+x,1/2+y,z
1/2-x,1/2+y,1/2-z
1/2-x,1/2-y,-z
1/2+x,1/2-y,1/2+z
loop_
_atom_site_type_symbol
_atom_site_label
_atom_site_fract_x
_atom_site_fract_y
_atom_site_fract_z
Si Si1 0.849428 0.535602 0.579177
Si Si2 0.000000 0.512149 0.750000
Si Si3 0.708314 0.390963 0.394131
Si Si4 0.633198 0.823856 0.136588
Si Si5 0.656644 0.513267 0.637922
Si Si6 0.570477 0.320637 0.342468
Si Si7 0.117128 0.837279 0.826514
Si Si8 0.663108 0.160073 0.335910
O O1 0.945565 0.545187 0.405407
O O2 0.801324 0.608287 0.712473
O O3 0.763631 0.520941 0.576517
O O4 0.857096 0.445342 0.648361
O O5 0.076616 0.583350 0.721224
O O6 0.754296 0.340053 0.455577
O O7 0.669028 0.482351 0.491149
O O8 0.625003 0.354721 0.402666
O O9 0.598431 0.741369 0.250784
O O10 0.622296 0.813922 0.008209
O O11 0.603062 0.606570 0.713021
O O12 0.609873 0.433178 0.765696
O O13 0.460350 0.324911 0.490040
O O14 0.614336 0.220769 0.288031
O O15 0.223205 0.827947 0.769449
#
# Coordination Sequence:
#
# PCOD9258709 Si02
#       8
#     8   4   8   8   8   8   8   8
#     4   9  20  34  56  82 114 154 187 242 297 349
#     4  10  18  34  52  84 118 142 192 246 290 352
#     4  11  20  37  57  84 117 156 189 238 312 341
#     4  11  19  33  56  85 115 142 187 257 296 346
#     4  10  21  38  52  81 125 148 193 244 287 364
#     4  11  23  35  59  87 114 159 193 241 306 351
#     4  11  19  34  57  85 116 148 196 246 296 348
#     4  10  19  37  53  81 120 145 187 253 299 338
#
# _framework density 25.209700999999999
#
# number of rings (size 3 to 8) (size 9 to 14) (size 15 to 20)
#    0.000    1.600    5.333    3.200    0.000    2.133 
#    0.000    0.667    0.000    0.000    0.000    0.000 
#    0.000    0.000    0.000    0.000    0.000    0.000 
#
# Total GULP energy -167787.694036 kJ/mol
# GULP energy per Si atom -5592.923135 kJ/mol
# Density = 2.515232 g / cm^3
# Si number density = 25.209701 Si / 1000 Ang^3
#
#
#
# Elastic Constant Matrix: (Units=GPa)
#
#
# Indices 1 2 3 4 5 6 
#
# 1 60.6432 -1.2789 12.5272 0.0000 -14.6035 0.0000
# 2 -1.2789 70.0329 43.9973 0.0000 -0.2990 0.0000
# 3 12.5272 43.9973 125.7382 0.0000 -36.6380 0.0000
# 4 0.0000 0.0000 0.0000 28.2684 0.0000 1.5318
# 5 -14.6035 -0.2990 -36.6380 0.0000 31.7518 0.0000
# 6 0.0000 0.0000 0.0000 1.5318 0.0000 25.0307
#
#
#
# Elastic Compliance Matrix: (Units=1/GPa)
#
#
# Indices 1 2 3 4 5 6 
#
# 1 0.018626 -0.000333 0.001139 0.000000 0.009878 0.000000
# 2 -0.000333 0.021193 -0.011102 0.000000 -0.012764 0.000000
# 3 0.001139 -0.011102 0.017847 0.000000 0.021013 0.000000
# 4 0.000000 0.000000 0.000000 0.035493 0.000000 -0.002172
# 5 0.009878 -0.012764 0.021013 0.000000 0.060164 0.000000
# 6 0.000000 0.000000 0.000000 -0.002172 0.000000 0.040084
#
#
# Mechanical properties :
#
#
# Convention : Reuss Voigt Hill
#
# Bulk Modulus (GPa) = 26.97268 40.76730 33.86999
# Shear Modulus (GPa) = 22.08909 30.42143 26.25526
#
# Velocity S-wave (km/s) = 2.96330 3.47758 3.23069
# Velocity P-wave (km/s) = 4.73611 5.68605 5.23268
#
# Compressibility (1/GPa) = 0.03707455
#
# Stress axis : x y z
#
# Youngs Moduli (GPa) = 53.68761 47.18570 56.03223
#
# Poissons Ratio (x) = 0.01573 -0.06384
# Poissons Ratio (y) = 0.01790 0.62205
# Poissons Ratio (z) = -0.06117 0.52384
#
# Static dielectric constant tensor:
#      x y z
#    x 2.007950 0.000000 0.027810 
#    y 0.000000 2.166260 0.000000 
#    z 0.027810 0.000000 1.997050 
# 
# From -- ./inp_files/113805.got.cif
#   From: 2010.05.17/outbox.cif.g08.bks.cpg/sg15_57_cif.got.tgz:113805.got - 2010.06.03 18:47:42.
