data_PCOD9258335
_publ_section_title
;
Structure prediction by ZEFSAII (Michael W. Deem and Ramdas Pophale) SiO2 
 PCOD9258335
Probable space group: C 2/C
;
_chemical_formula_sum "Si O2"
_cell_formula_units_Z 52
_cell_length_a 20.809293
_cell_length_b 11.766657
_cell_length_c 21.562533
_cell_angle_alpha 90.000000
_cell_angle_beta 32.363699
_cell_angle_gamma 90.000000
_cell_volume 2826.186009
_symmetry_space_group_name_H-M "C 2/C"
_symmetry_group_IT_number 15
_symmetry_cell_setting 'monoclinic'
loop_
_space_group_symop_operation_xyz
x,y,z
-x,y,1/2-z
-x,-y,-z
x,-y,1/2+z
1/2+x,1/2+y,z
1/2-x,1/2+y,1/2-z
1/2-x,1/2-y,-z
1/2+x,1/2-y,1/2+z
loop_
_atom_site_type_symbol
_atom_site_label
_atom_site_fract_x
_atom_site_fract_y
_atom_site_fract_z
Si Si1 0.717000 0.602725 0.184894
Si Si2 0.125595 0.448547 0.769374
Si Si3 0.367416 0.528719 0.631974
Si Si4 0.673257 0.839793 0.024799
Si Si5 0.449042 0.201395 0.633652
Si Si6 0.574712 0.213553 0.415150
Si Si7 0.500000 0.993587 0.250000
O O1 0.650896 0.512025 0.282124
O O2 0.643880 0.719312 0.254968
O O3 0.845023 0.621417 0.113502
O O4 0.744275 0.588265 0.090204
O O5 0.266884 0.465718 0.671265
O O6 0.074674 0.568971 0.836070
O O7 0.068639 0.343124 0.853111
O O8 0.081258 0.441862 0.734635
O O9 0.500000 0.500000 0.500000
O O10 0.359412 0.665259 0.638102
O O11 0.578587 0.772747 0.058347
O O12 0.593652 0.915785 0.135402
O O13 0.750000 0.750000 0.000000
O O14 0.456617 0.225995 0.554061
#
# Coordination Sequence:
#
# PCOD9258335 Si02
#       7
#     8   8   8   8   8   8   4
#     4  10  20  33  52  85 111 142 180 239 294 342
#     4  10  21  37  56  83 114 152 202 232 286 349
#     4  11  21  35  58  88 116 147 188 247 301 336
#     4  10  20  32  53  80 111 148 186 235 288 343
#     4  10  18  33  54  82 113 142 184 237 294 342
#     4  10  20  34  56  82 114 146 187 244 285 341
#     4  10  22  38  56  78 114 166 196 234 272 352
#
# _framework density 18.399353999999999
#
# number of rings (size 3 to 8) (size 9 to 14) (size 15 to 20)
#    0.000    1.846    3.077    2.308    2.154    1.231 
#    0.000    0.000    0.000    5.538    0.000    0.000 
#    0.000    0.000    0.000    0.000    0.000    0.000 
#
# Total GULP energy -144804.303755 kJ/mol
# GULP energy per Si atom -5569.396298 kJ/mol
# Density = 1.835748 g / cm^3
# Si number density = 18.399354 Si / 1000 Ang^3
#
#
#
# Elastic Constant Matrix: (Units=GPa)
#
#
# Indices 1 2 3 4 5 6 
#
# 1 109.5986 14.4363 47.6187 0.0000 13.3663 0.0000
# 2 14.4363 35.7531 14.3996 0.0000 9.3294 0.0000
# 3 47.6187 14.3996 122.3681 0.0000 21.6438 0.0000
# 4 0.0000 0.0000 0.0000 20.4376 0.0000 6.1540
# 5 13.3663 9.3294 21.6438 0.0000 36.7317 0.0000
# 6 0.0000 0.0000 0.0000 6.1540 0.0000 25.5267
#
#
#
# Elastic Compliance Matrix: (Units=1/GPa)
#
#
# Indices 1 2 3 4 5 6 
#
# 1 0.011305 -0.002705 -0.003879 0.000000 -0.001141 0.000000
# 2 -0.002705 0.031265 -0.001559 0.000000 -0.006038 0.000000
# 3 -0.003879 -0.001559 0.010656 0.000000 -0.004471 0.000000
# 4 0.000000 0.000000 0.000000 0.052759 0.000000 -0.012719
# 5 -0.001141 -0.006038 -0.004471 0.000000 0.031808 0.000000
# 6 0.000000 0.000000 0.000000 -0.012719 0.000000 0.042241
#
#
# Mechanical properties :
#
#
# Convention : Reuss Voigt Hill
#
# Bulk Modulus (GPa) = 27.07002 46.73655 36.90329
# Shear Modulus (GPa) = 23.96554 29.29022 26.62788
#
# Velocity S-wave (km/s) = 3.61296 3.99421 3.80836
# Velocity P-wave (km/s) = 5.67001 6.83578 6.28001
#
# Compressibility (1/GPa) = 0.03694124
#
# Stress axis : x y z
#
# Youngs Moduli (GPa) = 88.45601 31.98461 93.84462
#
# Poissons Ratio (x) = 0.08651 0.36404
# Poissons Ratio (y) = 0.23924 0.14626
# Poissons Ratio (z) = 0.34314 0.04985
#
# Static dielectric constant tensor:
#      x y z
#    x 1.681180 0.000000 0.004990 
#    y 0.000000 1.629770 0.000000 
#    z 0.004990 0.000000 1.718690 
# 
# From -- ./inp_files/111176.got.cif
#   From: 2010.05.17/outbox.cif.g08.bks.cpg/sg15_56_cif.got.tgz:111176.got - 2010.06.03 18:47:42.
