data_PCOD9258412
_publ_section_title
;
Structure prediction by ZEFSAII (Michael W. Deem and Ramdas Pophale) SiO2 
 PCOD9258412
Probable space group: C 2/C
;
_chemical_formula_sum "Si O2"
_cell_formula_units_Z 56
_cell_length_a 26.232270
_cell_length_b 18.218549
_cell_length_c 17.681200
_cell_angle_alpha 90.000000
_cell_angle_beta 22.013887
_cell_angle_gamma 90.000000
_cell_volume 3167.358728
_symmetry_space_group_name_H-M "C 2/C"
_symmetry_group_IT_number 15
_symmetry_cell_setting 'monoclinic'
loop_
_space_group_symop_operation_xyz
x,y,z
-x,y,1/2-z
-x,-y,-z
x,-y,1/2+z
1/2+x,1/2+y,z
1/2-x,1/2+y,1/2-z
1/2-x,1/2-y,-z
1/2+x,1/2-y,1/2+z
loop_
_atom_site_type_symbol
_atom_site_label
_atom_site_fract_x
_atom_site_fract_y
_atom_site_fract_z
Si Si1 0.644093 0.526129 0.022490
Si Si2 0.807346 0.136887 0.982300
Si Si3 0.582336 0.981272 0.561267
Si Si4 0.001501 0.659433 0.080529
Si Si5 0.874408 0.029930 0.124521
Si Si6 0.555813 0.068712 0.873226
Si Si7 0.434283 0.679557 0.964818
O O1 0.670865 0.449328 0.030011
O O2 0.632222 0.507006 0.949986
O O3 0.781289 0.571255 0.848015
O O4 0.500000 0.556127 0.250000
O O5 0.652541 0.154986 0.177047
O O6 0.848719 0.174684 0.004684
O O7 0.912485 0.159850 0.773185
O O8 0.500000 0.965629 0.750000
O O9 0.580280 0.906429 0.514586
O O10 0.736106 0.008451 0.357442
O O11 0.502596 0.046401 0.627064
O O12 0.065314 0.738375 0.005293
O O13 0.997153 0.638271 0.997862
O O14 0.887079 0.116423 0.087501
O O15 0.000000 0.000000 0.000000
O O16 0.500000 0.000000 0.000000
#
# Coordination Sequence:
#
# PCOD9258412 Si02
#       7
#     8   8   8   8   8   8   8
#     4  11  18  35  60  80 114 156 189 232 289 346
#     4  10  18  33  56  81 118 149 180 227 299 363
#     4  11  24  36  61  88 114 149 201 248 281 338
#     4  11  21  36  60  82 118 152 193 232 293 358
#     4  11  23  37  54  86 122 151 197 237 290 340
#     4  10  18  37  58  79 110 154 203 232 274 347
#     4  10  22  35  53  86 119 153 180 238 301 352
#
# _framework density 17.680347000000001
#
# number of rings (size 3 to 8) (size 9 to 14) (size 15 to 20)
#    0.000    1.429    8.571    1.286    6.000    1.143 
#    0.000    0.000    0.000    1.714    0.000    0.000 
#    0.000    0.000    0.000    0.000    0.000    0.000 
#
# Total GULP energy -156184.002684 kJ/mol
# GULP energy per Si atom -5578.000096 kJ/mol
# Density = 1.764011 g / cm^3
# Si number density = 17.680347 Si / 1000 Ang^3
#
#
#
# Elastic Constant Matrix: (Units=GPa)
#
#
# Indices 1 2 3 4 5 6 
#
# 1 39.3747 21.2480 13.5908 0.0002 -7.2612 -0.0001
# 2 21.2480 79.7932 24.6289 0.0002 -1.1323 -0.0001
# 3 13.5908 24.6289 108.9634 0.0003 -20.6008 -0.0002
# 4 0.0002 0.0002 0.0003 5.2183 -0.0002 2.6254
# 5 -7.2612 -1.1323 -20.6008 -0.0002 30.0714 0.0002
# 6 -0.0001 -0.0001 -0.0002 2.6254 0.0002 18.6723
#
#
#
# Elastic Compliance Matrix: (Units=1/GPa)
#
#
# Indices 1 2 3 4 5 6 
#
# 1 0.031209 -0.007959 -0.000834 -0.000001 0.006665 0.000000
# 2 -0.007959 0.015589 -0.003197 0.000000 -0.003525 0.000000
# 3 -0.000834 -0.003197 0.011423 0.000000 0.007504 0.000000
# 4 -0.000001 0.000000 0.000000 0.206223 0.000001 -0.028996
# 5 0.006665 -0.003525 0.007504 0.000001 0.039871 0.000000
# 6 0.000000 0.000000 0.000000 -0.028996 0.000000 0.057632
#
#
# Mechanical properties :
#
#
# Convention : Reuss Voigt Hill
#
# Bulk Modulus (GPa) = 29.20491 38.56301 33.88396
# Shear Modulus (GPa) = 12.58373 22.03663 17.31018
#
# Velocity S-wave (km/s) = 2.67073 3.53426 3.13239
# Velocity P-wave (km/s) = 5.10535 6.20590 5.68233
#
# Compressibility (1/GPa) = 0.03424082
#
# Stress axis : x y z
#
# Youngs Moduli (GPa) = 32.04246 64.14978 87.54511
#
# Poissons Ratio (x) = 0.51054 0.07298
# Poissons Ratio (y) = 0.25501 0.27990
# Poissons Ratio (z) = 0.02671 0.20510
#
# Static dielectric constant tensor:
#      x y z
#    x 1.624780 0.000000 -0.008050 
#    y 0.000000 1.596210 0.000000 
#    z -0.008050 0.000000 1.627160 
# 
# From -- ./inp_files/222909.got.cif
#   From: 2010.05.17/outbox.cif.g08.bks.cpg/sg15_112_cif.got.tgz:222909.got - 2010.06.03 18:47:42.
