data_PCOD9258873
_publ_section_title
;
Structure prediction by ZEFSAII (Michael W. Deem and Ramdas Pophale) SiO2 
 PCOD9258873
Probable space group: C 2/C
;
_chemical_formula_sum "Si O2"
_cell_formula_units_Z 44
_cell_length_a 11.384543
_cell_length_b 14.118279
_cell_length_c 12.937021
_cell_angle_alpha 90.000000
_cell_angle_beta 97.059294
_cell_angle_gamma 90.000000
_cell_volume 2063.606724
_symmetry_space_group_name_H-M "C 2/C"
_symmetry_group_IT_number 15
_symmetry_cell_setting 'monoclinic'
loop_
_space_group_symop_operation_xyz
x,y,z
-x,y,1/2-z
-x,-y,-z
x,-y,1/2+z
1/2+x,1/2+y,z
1/2-x,1/2+y,1/2-z
1/2-x,1/2-y,-z
1/2+x,1/2-y,1/2+z
loop_
_atom_site_type_symbol
_atom_site_label
_atom_site_fract_x
_atom_site_fract_y
_atom_site_fract_z
Si Si1 0.168252 0.191854 0.099145
Si Si2 0.102804 0.428613 0.590410
Si Si3 0.500000 0.281864 0.750000
Si Si4 0.853605 0.389889 0.487905
Si Si5 0.867052 0.243586 0.771240
Si Si6 0.199358 0.677217 0.909403
O O1 0.077591 0.159331 0.176646
O O2 0.111017 0.282116 0.036317
O O3 0.280326 0.242230 0.165954
O O4 0.227001 0.116494 0.029783
O O5 0.143836 0.536992 0.607651
O O6 0.140711 0.346250 0.672033
O O7 0.151014 0.403401 0.480145
O O8 0.960912 0.422900 0.572515
O O9 0.593643 0.219784 0.826870
O O10 0.808978 0.166689 0.842076
O O11 0.000000 0.224565 0.750000
O O12 0.250000 0.750000 0.000000
#
# Coordination Sequence:
#
# PCOD9258873 Si02
#       6
#     8   8   4   8   8   8
#     4  10  20  36  56  84 113 157 185 237 284 364
#     4  10  19  37  53  88 115 144 185 247 289 339
#     4  10  18  34  56  86 108 148 204 226 282 356
#     4  10  20  34  58  83 117 145 186 237 301 338
#     4  10  19  35  56  83 112 150 193 233 283 350
#     4   9  19  33  57  77 112 153 188 232 291 348
#
# _framework density 21.321892999999999
#
# number of rings (size 3 to 8) (size 9 to 14) (size 15 to 20)
#    0.000    2.182    3.636    0.000    0.000    0.000 
#    8.182    0.000    2.000   10.909    0.000    0.000 
#    0.000    0.000    0.000    0.000    0.000    0.000 
#
# Total GULP energy -122516.804941 kJ/mol
# GULP energy per Si atom -5568.945679 kJ/mol
# Density = 2.127336 g / cm^3
# Si number density = 21.321893 Si / 1000 Ang^3
#
#
#
# Elastic Constant Matrix: (Units=GPa)
#
#
# Indices 1 2 3 4 5 6 
#
# 1 113.7763 17.4677 27.0529 0.0000 -38.3671 0.0000
# 2 17.4677 54.0531 7.7085 0.0000 -8.7139 0.0000
# 3 27.0529 7.7085 60.8994 0.0000 -14.4039 0.0000
# 4 0.0000 0.0000 0.0000 17.5929 0.0000 -9.0118
# 5 -38.3671 -8.7139 -14.4039 0.0000 47.5662 0.0000
# 6 0.0000 0.0000 0.0000 -9.0118 0.0000 30.6412
#
#
#
# Elastic Compliance Matrix: (Units=1/GPa)
#
#
# Indices 1 2 3 4 5 6 
#
# 1 0.012980 -0.002260 -0.003341 0.000000 0.009044 0.000000
# 2 -0.002260 0.019624 -0.001143 0.000000 0.001426 0.000000
# 3 -0.003341 -0.001143 0.018702 0.000000 0.002759 0.000000
# 4 0.000000 0.000000 0.000000 0.066923 0.000000 0.019683
# 5 0.009044 0.001426 0.002759 0.000000 0.029415 0.000000
# 6 0.000000 0.000000 0.000000 0.019683 0.000000 0.038425
#
#
# Mechanical properties :
#
#
# Convention : Reuss Voigt Hill
#
# Bulk Modulus (GPa) = 26.44226 37.02075 31.73151
# Shear Modulus (GPa) = 23.56682 30.92671 27.24676
#
# Velocity S-wave (km/s) = 3.32819 3.81263 3.57862
# Velocity P-wave (km/s) = 5.21513 6.06482 5.65595
#
# Compressibility (1/GPa) = 0.03781825
#
# Stress axis : x y z
#
# Youngs Moduli (GPa) = 77.03887 50.95918 53.47060
#
# Poissons Ratio (x) = 0.11518 0.17864
# Poissons Ratio (y) = 0.17413 0.06110
# Poissons Ratio (z) = 0.25738 0.05823
#
# Static dielectric constant tensor:
#      x y z
#    x 1.778990 0.000000 -0.054560 
#    y 0.000000 1.853960 0.000000 
#    z -0.054560 0.000000 1.821130 
# 
# From -- ./inp_files/142991.got.cif
#   From: 2010.05.17/outbox.cif.g08.bks.cpg/sg15_72_cif.got.tgz:142991.got - 2010.06.03 18:47:42.
