data_PCOD9258546
_publ_section_title
;
Structure prediction by ZEFSAII (Michael W. Deem and Ramdas Pophale) SiO2 
 PCOD9258546
Probable space group: C 2/C
;
_chemical_formula_sum "Si O2"
_cell_formula_units_Z 64
_cell_length_a 24.245334
_cell_length_b 11.868847
_cell_length_c 13.109452
_cell_angle_alpha 90.000000
_cell_angle_beta 137.590658
_cell_angle_gamma 90.000000
_cell_volume 2544.213035
_symmetry_space_group_name_H-M "C 2/C"
_symmetry_group_IT_number 15
_symmetry_cell_setting 'monoclinic'
loop_
_space_group_symop_operation_xyz
x,y,z
-x,y,1/2-z
-x,-y,-z
x,-y,1/2+z
1/2+x,1/2+y,z
1/2-x,1/2+y,1/2-z
1/2-x,1/2-y,-z
1/2+x,1/2-y,1/2+z
loop_
_atom_site_type_symbol
_atom_site_label
_atom_site_fract_x
_atom_site_fract_y
_atom_site_fract_z
Si Si1 0.375529 0.708525 0.121413
Si Si2 0.226586 0.142208 0.064524
Si Si3 0.546953 0.894472 0.610386
Si Si4 0.743772 0.096734 0.821117
Si Si5 0.471387 0.686926 0.045642
Si Si6 0.096857 0.531189 0.858740
Si Si7 0.887235 0.676897 0.981518
Si Si8 0.165569 0.854630 0.268265
O O1 0.426725 0.665864 0.091635
O O2 0.432992 0.679621 0.297011
O O3 0.369355 0.843692 0.102074
O O4 0.289692 0.650579 0.980419
O O5 0.153987 0.219546 0.014665
O O6 0.304526 0.226497 0.163056
O O7 0.251004 0.037302 0.166292
O O8 0.195103 0.091678 0.913729
O O9 0.557329 0.812876 0.527947
O O10 0.484465 0.821266 0.596534
O O11 0.500000 0.000000 0.500000
O O12 0.606718 0.959952 0.768484
O O13 0.657240 0.157669 0.687047
O O14 0.787788 0.125616 0.773572
O O15 0.427987 0.621643 0.892585
O O16 0.000000 0.544273 0.750000
O O17 0.129358 0.442785 0.985581
#
# Coordination Sequence:
#
# PCOD9258546 Si02
#       8
#     8   8   8   8   8   8   8   8
#     4  10  19  36  59  89 114 161 207 260 313 374
#     4  10  21  43  63  91 130 162 219 260 308 399
#     4  11  20  33  57  94 123 158 198 266 329 376
#     4  10  23  39  64  88 126 168 211 262 315 380
#     4  10  18  35  62  81 117 156 214 254 307 383
#     4  10  18  33  59  86 119 151 205 257 315 371
#     4  10  23  37  59  93 124 165 205 265 321 371
#     4   9  21  40  69  90 113 177 213 255 324 375
#
# _framework density 25.155125000000002
#
# number of rings (size 3 to 8) (size 9 to 14) (size 15 to 20)
#    0.000    2.000    2.500    1.500    7.000    0.000 
#    2.250    1.250   24.750    0.000    0.000    0.000 
#    0.000    0.000    0.000    0.000    0.000    0.000 
#
# Total GULP energy -178538.264087 kJ/mol
# GULP energy per Si atom -5579.320753 kJ/mol
# Density = 2.509787 g / cm^3
# Si number density = 25.155125 Si / 1000 Ang^3
#
#
#
# Elastic Constant Matrix: (Units=GPa)
#
#
# Indices 1 2 3 4 5 6 
#
# 1 60.9097 9.9804 3.4934 0.0000 -10.3380 0.0000
# 2 9.9804 61.2878 11.2086 0.0000 -0.6302 0.0000
# 3 3.4934 11.2086 173.6308 0.0000 -18.9461 0.0000
# 4 0.0000 0.0000 0.0000 33.9580 0.0000 -1.9977
# 5 -10.3380 -0.6302 -18.9461 0.0000 22.8260 0.0000
# 6 0.0000 0.0000 0.0000 -1.9977 0.0000 19.7681
#
#
#
# Elastic Compliance Matrix: (Units=1/GPa)
#
#
# Indices 1 2 3 4 5 6 
#
# 1 0.018383 -0.003048 0.000799 0.000000 0.008904 0.000000
# 2 -0.003048 0.017021 -0.001250 0.000000 -0.001948 0.000000
# 3 0.000799 -0.001250 0.006443 0.000000 0.005675 0.000000
# 4 0.000000 0.000000 0.000000 0.029624 0.000000 0.002994
# 5 0.008904 -0.001948 0.005675 0.000000 0.052499 0.000000
# 6 0.000000 0.000000 0.000000 0.002994 0.000000 0.050889
#
#
# Mechanical properties :
#
#
# Convention : Reuss Voigt Hill
#
# Bulk Modulus (GPa) = 28.69590 38.35481 33.52536
# Shear Modulus (GPa) = 25.84314 33.38682 29.61498
#
# Velocity S-wave (km/s) = 3.20871 3.64708 3.43489
# Velocity P-wave (km/s) = 5.01598 5.74590 5.39330
#
# Compressibility (1/GPa) = 0.03484818
#
# Stress axis : x y z
#
# Youngs Moduli (GPa) = 54.39908 58.74962 155.20157
#
# Poissons Ratio (x) = 0.17907 -0.12393
# Poissons Ratio (y) = 0.16581 0.19401
# Poissons Ratio (z) = -0.04344 0.07344
#
# Static dielectric constant tensor:
#      x y z
#    x 2.137930 0.000000 0.075910 
#    y 0.000000 1.986560 0.000000 
#    z 0.075910 0.000000 2.142870 
# 
# From -- ./inp_files/181770.got.cif
#   From: 2010.05.17/outbox.cif.g08.bks.cpg/sg15_91_cif.got.tgz:181770.got - 2010.06.03 18:47:42.
