data_PCOD9258209
_publ_section_title
;
Structure prediction by ZEFSAII (Michael W. Deem and Ramdas Pophale) SiO2 
 PCOD9258209
Probable space group: C 2/C
;
_chemical_formula_sum "Si O2"
_cell_formula_units_Z 56
_cell_length_a 10.531142
_cell_length_b 13.343801
_cell_length_c 23.133706
_cell_angle_alpha 90.000000
_cell_angle_beta 39.818056
_cell_angle_gamma 90.000000
_cell_volume 2081.703439
_symmetry_space_group_name_H-M "C 2/C"
_symmetry_group_IT_number 15
_symmetry_cell_setting 'monoclinic'
loop_
_space_group_symop_operation_xyz
x,y,z
-x,y,1/2-z
-x,-y,-z
x,-y,1/2+z
1/2+x,1/2+y,z
1/2-x,1/2+y,1/2-z
1/2-x,1/2-y,-z
1/2+x,1/2-y,1/2+z
loop_
_atom_site_type_symbol
_atom_site_label
_atom_site_fract_x
_atom_site_fract_y
_atom_site_fract_z
Si Si1 0.713667 0.379569 0.849259
Si Si2 0.158557 0.090813 0.850320
Si Si3 0.284498 0.055119 0.496648
Si Si4 0.312089 0.024058 0.673205
Si Si5 0.884678 0.303771 0.057830
Si Si6 0.321025 0.642240 0.419912
Si Si7 0.203293 0.191246 0.227169
O O1 0.765174 0.495042 0.843131
O O2 0.736408 0.297752 0.890467
O O3 0.475994 0.376817 0.918595
O O4 0.796216 0.335389 0.759123
O O5 0.224867 0.205640 0.825241
O O6 0.931352 0.085024 0.950020
O O7 0.191528 0.056611 0.772021
O O8 0.453166 0.000347 0.400208
O O9 0.369471 0.152071 0.499342
O O10 0.252134 0.972457 0.559133
O O11 0.232824 0.914060 0.684380
O O12 0.299143 0.115232 0.633330
O O13 0.117014 0.298174 0.993782
O O14 0.471370 0.698298 0.324691
#
# Coordination Sequence:
#
# PCOD9258209 Si02
#       7
#     8   8   8   8   8   8   8
#     4   8  17  29  51  75 108 142 181 234 268 324
#     4  10  19  36  52  82 110 145 196 227 277 325
#     4  10  21  32  52  85 116 143 175 230 295 336
#     4  10  18  33  50  76 113 138 179 232 275 327
#     4  11  18  32  52  86 114 139 177 230 296 342
#     4   8  16  31  49  77 108 143 184 226 276 328
#     4   9  18  32  51  74 106 145 189 228 271 319
#
# _framework density 26.901043999999999
#
# number of rings (size 3 to 8) (size 9 to 14) (size 15 to 20)
#    0.857    1.714    2.857    2.143    0.000    2.286 
#    2.571    0.000    0.000    0.857    0.000   16.000 
#    0.000    0.000    0.000    0.000    0.000    0.000 
#
# Total GULP energy -156196.289245 kJ/mol
# GULP energy per Si atom -5578.438902 kJ/mol
# Density = 2.683982 g / cm^3
# Si number density = 26.901044 Si / 1000 Ang^3
#
#
#
# Elastic Constant Matrix: (Units=GPa)
#
#
# Indices 1 2 3 4 5 6 
#
# 1 37.8439 12.6641 11.9576 0.0002 -0.4797 -0.0001
# 2 12.6641 212.2051 55.8368 0.0003 -1.4484 -0.0001
# 3 11.9576 55.8368 77.4132 0.0006 -8.0350 -0.0001
# 4 0.0002 0.0003 0.0006 51.3653 -0.0001 4.9855
# 5 -0.4797 -1.4484 -8.0350 -0.0001 28.7202 0.0001
# 6 -0.0001 -0.0001 -0.0001 4.9855 0.0001 17.3505
#
#
#
# Elastic Compliance Matrix: (Units=1/GPa)
#
#
# Indices 1 2 3 4 5 6 
#
# 1 0.027866 -0.000638 -0.003913 0.000000 -0.000661 0.000000
# 2 -0.000638 0.005854 -0.004217 0.000000 -0.000895 0.000000
# 3 -0.003913 -0.004217 0.017029 0.000000 0.004486 0.000000
# 4 0.000000 0.000000 0.000000 0.020027 0.000000 -0.005754
# 5 -0.000661 -0.000895 0.004486 0.000000 0.036018 0.000000
# 6 0.000000 0.000000 0.000000 -0.005754 0.000000 0.059289
#
#
# Mechanical properties :
#
#
# Convention : Reuss Voigt Hill
#
# Bulk Modulus (GPa) = 30.10783 54.26437 42.18610
# Shear Modulus (GPa) = 25.68211 35.95412 30.81811
#
# Velocity S-wave (km/s) = 3.09315 3.65983 3.38836
# Velocity P-wave (km/s) = 4.89624 6.17047 5.56992
#
# Compressibility (1/GPa) = 0.03321395
#
# Stress axis : x y z
#
# Youngs Moduli (GPa) = 35.88638 170.82605 58.72286
#
# Poissons Ratio (x) = 0.10898 0.22977
# Poissons Ratio (y) = 0.02289 0.24762
# Poissons Ratio (z) = 0.14042 0.72032
#
# Static dielectric constant tensor:
#      x y z
#    x 2.162390 0.000000 0.039860 
#    y 0.000000 2.102400 0.000000 
#    z 0.039860 0.000000 2.117680 
# 
# From -- ./inp_files/313702.got.cif
#   From: 2010.05.17/outbox.cif.g08.bks.cpg/sg15_157_cif.got.tgz:313702.got - 2010.06.03 18:47:42.
