data_PCOD9258251
_publ_section_title
;
Structure prediction by ZEFSAII (Michael W. Deem and Ramdas Pophale) SiO2 
 PCOD9258251
Probable space group: C 2/C
;
_chemical_formula_sum "Si O2"
_cell_formula_units_Z 56
_cell_length_a 5.867900
_cell_length_b 26.429002
_cell_length_c 23.258897
_cell_angle_alpha 90.000000
_cell_angle_beta 125.773099
_cell_angle_gamma 90.000000
_cell_volume 2926.540917
_symmetry_space_group_name_H-M "C 2/C"
_symmetry_group_IT_number 15
_symmetry_cell_setting 'monoclinic'
loop_
_space_group_symop_operation_xyz
x,y,z
-x,y,1/2-z
-x,-y,-z
x,-y,1/2+z
1/2+x,1/2+y,z
1/2-x,1/2+y,1/2-z
1/2-x,1/2-y,-z
1/2+x,1/2-y,1/2+z
loop_
_atom_site_type_symbol
_atom_site_label
_atom_site_fract_x
_atom_site_fract_y
_atom_site_fract_z
Si Si1 0.410758 0.676643 0.039246
Si Si2 0.943906 0.348062 0.306627
Si Si3 0.536251 0.913746 0.510864
Si Si4 0.144345 0.723737 0.604252
Si Si5 0.675437 0.035475 0.716856
Si Si6 0.834444 0.502112 0.058240
Si Si7 0.558473 0.661871 0.936677
O O1 0.566330 0.717736 0.101615
O O2 0.301471 0.624439 0.050686
O O3 0.600926 0.669422 0.010672
O O4 0.130230 0.701783 0.969851
O O5 0.248265 0.357178 0.379729
O O6 0.000000 0.329203 0.250000
O O7 0.806536 0.307959 0.330323
O O8 0.807381 0.403158 0.282998
O O9 0.453198 0.943281 0.556398
O O10 0.276003 0.880580 0.450516
O O11 0.569473 0.958037 0.470341
O O12 0.387671 0.711458 0.594019
O O13 0.500000 0.024249 0.750000
O O14 0.000000 0.018132 0.750000
O O15 0.466886 0.013283 0.638044
O O16 0.500000 0.500000 0.000000
#
# Coordination Sequence:
#
# PCOD9258251 Si02
#       7
#     8   8   8   8   8   8   8
#     4   9  17  32  49  83 107 145 182 245 296 359
#     4  10  22  33  53  79 117 155 197 235 303 375
#     4  10  21  33  61  80 121 145 207 253 322 358
#     4   9  18  30  52  75 114 141 190 230 295 359
#     4  11  26  41  63  91 131 169 209 259 327 398
#     4  11  23  39  61  90 119 162 211 268 320 384
#     4  10  18  33  52  84 112 153 185 248 307 371
#
# _framework density 19.13522
#
# number of rings (size 3 to 8) (size 9 to 14) (size 15 to 20)
#    0.000    2.000    0.000    4.714   12.000    1.143 
#    0.000    0.000    0.000    0.857    0.000    0.000 
#    0.000    0.000    0.000    0.000    0.000    0.000 
#
# Total GULP energy -155932.971550 kJ/mol
# GULP energy per Si atom -5569.034698 kJ/mol
# Density = 1.909167 g / cm^3
# Si number density = 19.135220 Si / 1000 Ang^3
#
#
#
# Elastic Constant Matrix: (Units=GPa)
#
#
# Indices 1 2 3 4 5 6 
#
# 1 99.9010 35.4204 42.5000 0.0000 -6.4632 0.0000
# 2 35.4204 86.7787 22.6861 0.0000 -14.2485 0.0000
# 3 42.5000 22.6861 77.9940 0.0000 -15.7444 0.0000
# 4 0.0000 0.0000 0.0000 26.2017 0.0000 1.0575
# 5 -6.4632 -14.2485 -15.7444 0.0000 26.7936 0.0000
# 6 0.0000 0.0000 0.0000 1.0575 0.0000 18.9150
#
#
#
# Elastic Compliance Matrix: (Units=1/GPa)
#
#
# Indices 1 2 3 4 5 6 
#
# 1 0.014484 -0.004546 -0.007208 0.000000 -0.003159 0.000000
# 2 -0.004546 0.014547 -0.000469 0.000000 0.006363 0.000000
# 3 -0.007208 -0.000469 0.018703 0.000000 0.009002 0.000000
# 4 0.000000 0.000000 0.000000 0.038252 0.000000 -0.002139
# 5 -0.003159 0.006363 0.009002 0.000000 0.045234 0.000000
# 6 0.000000 0.000000 0.000000 -0.002139 0.000000 0.052988
#
#
# Mechanical properties :
#
#
# Convention : Reuss Voigt Hill
#
# Bulk Modulus (GPa) = 42.94335 51.76522 47.35428
# Shear Modulus (GPa) = 23.10371 25.31988 24.21180
#
# Velocity S-wave (km/s) = 3.47852 3.64154 3.56096
# Velocity P-wave (km/s) = 6.21484 6.69269 6.45819
#
# Compressibility (1/GPa) = 0.02328649
#
# Stress axis : x y z
#
# Youngs Moduli (GPa) = 69.04285 68.74401 53.46795
#
# Poissons Ratio (x) = 0.31253 0.38538
# Poissons Ratio (y) = 0.31389 0.02510
# Poissons Ratio (z) = 0.49765 0.03227
#
# Static dielectric constant tensor:
#      x y z
#    x 1.803360 0.000000 -0.032090 
#    y 0.000000 1.697310 0.000000 
#    z -0.032090 0.000000 1.681500 
# 
# From -- ./inp_files/261751.got.cif
#   From: 2010.05.17/outbox.cif.g08.bks.cpg/sg15_131_cif.got.tgz:261751.got - 2010.06.03 18:47:42.
