data_PCOD9258808
_publ_section_title
;
Structure prediction by ZEFSAII (Michael W. Deem and Ramdas Pophale) SiO2 
 PCOD9258808
Probable space group: C 2/C
;
_chemical_formula_sum "Si O2"
_cell_formula_units_Z 56
_cell_length_a 17.874672
_cell_length_b 19.221740
_cell_length_c 12.560025
_cell_angle_alpha 90.000000
_cell_angle_beta 145.482614
_cell_angle_gamma 90.000000
_cell_volume 2445.349812
_symmetry_space_group_name_H-M "C 2/C"
_symmetry_group_IT_number 15
_symmetry_cell_setting 'monoclinic'
loop_
_space_group_symop_operation_xyz
x,y,z
-x,y,1/2-z
-x,-y,-z
x,-y,1/2+z
1/2+x,1/2+y,z
1/2-x,1/2+y,1/2-z
1/2-x,1/2-y,-z
1/2+x,1/2-y,1/2+z
loop_
_atom_site_type_symbol
_atom_site_label
_atom_site_fract_x
_atom_site_fract_y
_atom_site_fract_z
Si Si1 0.500000 0.906521 0.750000
Si Si2 0.815048 0.943533 0.348022
Si Si3 0.355024 0.306860 0.254531
Si Si4 0.742850 0.091354 0.220112
Si Si5 0.227559 0.089064 0.993815
Si Si6 0.859210 0.228259 0.365956
Si Si7 0.500000 0.507673 0.250000
Si Si8 0.045288 0.374865 0.052837
O O1 0.362538 0.944607 0.609788
O O2 0.519918 0.871688 0.892415
O O3 0.853230 0.875558 0.326811
O O4 0.914868 0.951622 0.563203
O O5 0.801928 0.015564 0.267004
O O6 0.664794 0.928447 0.209684
O O7 0.279654 0.334041 0.062911
O O8 0.267937 0.250148 0.213535
O O9 0.506151 0.287931 0.412197
O O10 0.774931 0.095364 0.383586
O O11 0.815275 0.157921 0.254068
O O12 0.584575 0.101022 0.036195
O O13 0.102326 0.044717 0.815170
O O14 0.902809 0.298105 0.354623
#
# Coordination Sequence:
#
# PCOD9258808 Si02
#       8
#     4   8   8   8   8   8   4   8
#     4  10  18  34  55  80 119 150 184 220 274 342
#     4  10  21  39  59  82 109 156 192 239 285 333
#     4  11  22  38  57  84 118 152 192 229 288 339
#     4  10  21  35  56  83 120 151 191 230 279 334
#     4  10  20  35  53  84 115 152 186 226 272 357
#     4  11  21  35  55  88 118 157 184 230 278 354
#     4  10  22  38  59  82 115 142 198 246 288 318
#     4  10  20  36  56  84 115 156 184 229 282 347
#
# _framework density 22.900607000000001
#
# number of rings (size 3 to 8) (size 9 to 14) (size 15 to 20)
#    0.000    1.714    4.286    2.143    0.000    4.000 
#    0.000    0.000    0.000    3.429    0.000    0.000 
#    0.000    0.000    0.000    0.000    0.000    0.000 
#
# Total GULP energy -156212.849846 kJ/mol
# GULP energy per Si atom -5579.030352 kJ/mol
# Density = 2.284848 g / cm^3
# Si number density = 22.900607 Si / 1000 Ang^3
#
#
#
# Elastic Constant Matrix: (Units=GPa)
#
#
# Indices 1 2 3 4 5 6 
#
# 1 52.9097 23.6200 25.4107 0.0000 26.8817 0.0000
# 2 23.6200 117.5060 39.1981 0.0000 2.2804 0.0000
# 3 25.4107 39.1981 112.1300 0.0000 38.0784 0.0000
# 4 0.0000 0.0000 0.0000 24.2877 0.0000 3.1678
# 5 26.8817 2.2804 38.0784 0.0000 29.0608 0.0000
# 6 0.0000 0.0000 0.0000 3.1678 0.0000 25.9613
#
#
#
# Elastic Compliance Matrix: (Units=1/GPa)
#
#
# Indices 1 2 3 4 5 6 
#
# 1 0.053193 -0.015041 0.017138 0.000000 -0.070480 0.000000
# 2 -0.015041 0.014642 -0.010890 0.000000 0.027034 0.000000
# 3 0.017138 -0.010890 0.025106 0.000000 -0.047895 0.000000
# 4 0.000000 0.000000 0.000000 0.041839 0.000000 -0.005105
# 5 -0.070480 0.027034 -0.047895 0.000000 0.160241 0.000000
# 6 0.000000 0.000000 0.000000 -0.005105 0.000000 0.039142
#
#
# Mechanical properties :
#
#
# Convention : Reuss Voigt Hill
#
# Bulk Modulus (GPa) = 13.27088 51.00036 32.13562
# Shear Modulus (GPa) = 13.26725 28.81642 21.04183
#
# Velocity S-wave (km/s) = 2.40956 3.55114 3.03451
# Velocity P-wave (km/s) = 3.68088 6.25562 5.13233
#
# Compressibility (1/GPa) = 0.07535296
#
# Stress axis : x y z
#
# Youngs Moduli (GPa) = 18.79959 68.29702 39.83077
#
# Poissons Ratio (x) = 1.02729 -0.68262
# Poissons Ratio (y) = 0.28277 0.43378
# Poissons Ratio (z) = -0.32219 0.74379
#
# Static dielectric constant tensor:
#      x y z
#    x 1.872760 0.000000 -0.003610 
#    y 0.000000 1.938200 0.000000 
#    z -0.003610 0.000000 1.877360 
# 
# From -- ./inp_files/169198.got.cif
#   From: 2010.05.17/outbox.cif.g08.bks.cpg/sg15_85_cif.got.tgz:169198.got - 2010.06.03 18:47:42.
