data_PCOD9258837
_publ_section_title
;
Structure prediction by ZEFSAII (Michael W. Deem and Ramdas Pophale) SiO2 
 PCOD9258837
Probable space group: C 2/C
;
_chemical_formula_sum "Si O2"
_cell_formula_units_Z 40
_cell_length_a 17.518844
_cell_length_b 21.240705
_cell_length_c 12.491053
_cell_angle_alpha 90.000000
_cell_angle_beta 29.841012
_cell_angle_gamma 90.000000
_cell_volume 2312.860345
_symmetry_space_group_name_H-M "C 2/C"
_symmetry_group_IT_number 15
_symmetry_cell_setting 'monoclinic'
loop_
_space_group_symop_operation_xyz
x,y,z
-x,y,1/2-z
-x,-y,-z
x,-y,1/2+z
1/2+x,1/2+y,z
1/2-x,1/2+y,1/2-z
1/2-x,1/2-y,-z
1/2+x,1/2-y,1/2+z
loop_
_atom_site_type_symbol
_atom_site_label
_atom_site_fract_x
_atom_site_fract_y
_atom_site_fract_z
Si Si1 0.726675 0.418516 0.332514
Si Si2 0.168793 0.052159 0.495980
Si Si3 0.678682 0.317547 0.564901
Si Si4 0.835537 0.462779 0.988701
Si Si5 0.631444 0.583482 0.301294
O O1 0.737489 0.483166 0.386039
O O2 0.749278 0.359291 0.382415
O O3 0.550691 0.420200 0.502004
O O4 0.837830 0.423732 0.095883
O O5 0.268859 0.078006 0.471754
O O6 0.159298 0.087638 0.394507
O O7 0.000000 0.044119 0.750000
O O8 0.500000 0.311222 0.750000
O O9 0.750000 0.250000 0.500000
O O10 0.690527 0.359282 0.657806
O O11 0.000000 0.486438 0.750000
O O12 0.718926 0.520387 0.155660
#
# Coordination Sequence:
#
# PCOD9258837 Si02
#       5
#     8   8   8   8   8
#     4  10  18  34  56  76 108 146 179 209 259 327
#     4  11  16  32  57  79 106 141 175 209 264 331
#     4  10  21  39  57  77 103 139 185 223 255 306
#     4  11  21  31  50  87 117 133 167 225 276 308
#     4  10  19  33  56  77 106 145 182 207 258 331
#
# _framework density 17.294602000000001
#
# number of rings (size 3 to 8) (size 9 to 14) (size 15 to 20)
#    0.000    1.600    6.000    1.800    0.000    4.000 
#    3.600    0.000    0.000    2.400    0.000    0.000 
#    0.000    0.000    0.000    0.000    0.000    0.000 
#
# Total GULP energy -111501.038727 kJ/mol
# GULP energy per Si atom -5575.051936 kJ/mol
# Density = 1.725524 g / cm^3
# Si number density = 17.294602 Si / 1000 Ang^3
#
#
#
# Elastic Constant Matrix: (Units=GPa)
#
#
# Indices 1 2 3 4 5 6 
#
# 1 86.4502 36.5869 38.0572 0.0014 41.8969 -0.0010
# 2 36.5869 93.8588 29.8597 0.0016 24.2791 -0.0022
# 3 38.0572 29.8597 84.9583 0.0015 29.8075 -0.0026
# 4 0.0014 0.0016 0.0015 16.4921 -0.0019 -1.3183
# 5 41.8969 24.2791 29.8075 -0.0019 34.2530 0.0023
# 6 -0.0010 -0.0022 -0.0026 -1.3183 0.0023 28.4150
#
#
#
# Elastic Compliance Matrix: (Units=1/GPa)
#
#
# Indices 1 2 3 4 5 6 
#
# 1 0.028924 -0.002554 -0.000405 -0.000006 -0.033216 0.000003
# 2 -0.002554 0.013496 -0.001927 -0.000001 -0.004765 0.000001
# 3 -0.000405 -0.001927 0.017240 -0.000003 -0.013140 0.000002
# 4 -0.000006 -0.000001 -0.000003 0.060861 0.000014 0.002824
# 5 -0.033216 -0.004765 -0.013140 0.000014 0.084636 -0.000009
# 6 0.000003 0.000001 0.000002 0.002824 -0.000009 0.035324
#
#
# Mechanical properties :
#
#
# Convention : Reuss Voigt Hill
#
# Bulk Modulus (GPa) = 20.04542 52.69720 36.37131
# Shear Modulus (GPa) = 18.73489 26.54959 22.64224
#
# Velocity S-wave (km/s) = 3.29489 3.92233 3.62222
# Velocity P-wave (km/s) = 5.10792 7.14489 6.21048
#
# Compressibility (1/GPa) = 0.04988670
#
# Stress axis : x y z
#
# Youngs Moduli (GPa) = 34.57296 74.09859 58.00553
#
# Poissons Ratio (x) = 0.18923 0.02351
# Poissons Ratio (y) = 0.08829 0.11180
# Poissons Ratio (z) = 0.01401 0.14282
#
# Static dielectric constant tensor:
#      x y z
#    x 1.653600 0.000000 -0.003850 
#    y 0.000000 1.555370 0.000000 
#    z -0.003850 0.000000 1.612780 
# 
# From -- ./inp_files/30156.got.cif
#   From: 2010.05.17/outbox.cif.g08.bks.cpg/sg15_16_cif.got.tgz:30156.got - 2010.06.03 18:47:42.
