data_PCOD9258988
_publ_section_title
;
Structure prediction by ZEFSAII (Michael W. Deem and Ramdas Pophale) SiO2 
 PCOD9258988
Probable space group: C 2/C
;
_chemical_formula_sum "Si O2"
_cell_formula_units_Z 48
_cell_length_a 19.794717
_cell_length_b 10.309342
_cell_length_c 18.607297
_cell_angle_alpha 90.000000
_cell_angle_beta 41.581402
_cell_angle_gamma 90.000000
_cell_volume 2520.139136
_symmetry_space_group_name_H-M "C 2/C"
_symmetry_group_IT_number 15
_symmetry_cell_setting 'monoclinic'
loop_
_space_group_symop_operation_xyz
x,y,z
-x,y,1/2-z
-x,-y,-z
x,-y,1/2+z
1/2+x,1/2+y,z
1/2-x,1/2+y,1/2-z
1/2-x,1/2-y,-z
1/2+x,1/2-y,1/2+z
loop_
_atom_site_type_symbol
_atom_site_label
_atom_site_fract_x
_atom_site_fract_y
_atom_site_fract_z
Si Si1 0.495353 0.496955 0.830323
Si Si2 0.317754 0.588705 0.564592
Si Si3 0.863592 0.761615 0.756116
Si Si4 0.079822 0.608933 0.913815
Si Si5 0.725719 0.907041 0.750535
Si Si6 0.552814 0.298027 0.405430
O O1 0.500000 0.566885 0.750000
O O2 0.568087 0.371683 0.763881
O O3 0.534644 0.588205 0.863496
O O4 0.384138 0.448530 0.943337
O O5 0.223605 0.688117 0.629532
O O6 0.271646 0.463083 0.641147
O O7 0.395419 0.648912 0.562380
O O8 0.932720 0.657291 0.658395
O O9 0.803909 0.830541 0.737827
O O10 0.187303 0.534484 0.825645
O O11 0.000000 0.500000 0.000000
O O12 0.052003 0.727204 0.988240
O O13 0.630761 0.810958 0.814314
#
# Coordination Sequence:
#
# PCOD9258988 Si02
#       6
#     8   8   8   8   8   8
#     4  12  24  37  53  79 119 157 182 216 277 343
#     4  10  19  35  60  80 105 141 189 243 273 312
#     4  10  19  34  55  82 112 139 187 229 279 322
#     4   9  17  30  56  86 105 132 180 243 278 311
#     4   9  18  31  57  88 105 132 181 245 277 312
#     4  10  18  34  58  82 110 140 188 231 274 321
#
# _framework density 19.046568000000001
#
# number of rings (size 3 to 8) (size 9 to 14) (size 15 to 20)
#    0.000    2.000    3.333    1.500    0.000    0.667 
#    0.000    0.833    0.000    7.000    0.000    0.000 
#    0.000    0.000    0.000    0.000    0.000    0.000 
#
# Total GULP energy -133762.099244 kJ/mol
# GULP energy per Si atom -5573.420802 kJ/mol
# Density = 1.900322 g / cm^3
# Si number density = 19.046568 Si / 1000 Ang^3
#
#
#
# Elastic Constant Matrix: (Units=GPa)
#
#
# Indices 1 2 3 4 5 6 
#
# 1 16.4510 7.8953 25.8766 0.0000 -2.6921 0.0000
# 2 7.8953 70.7204 37.5928 0.0000 -4.9419 0.0000
# 3 25.8766 37.5928 131.4851 0.0000 -3.6285 0.0000
# 4 0.0000 0.0000 0.0000 31.4987 0.0000 -12.4010
# 5 -2.6921 -4.9419 -3.6285 0.0000 17.2752 0.0000
# 6 0.0000 0.0000 0.0000 -12.4010 0.0000 14.0101
#
#
#
# Elastic Compliance Matrix: (Units=1/GPa)
#
#
# Indices 1 2 3 4 5 6 
#
# 1 0.089842 -0.000072 -0.017376 0.000000 0.010331 0.000000
# 2 -0.000072 0.016925 -0.004719 0.000000 0.003839 0.000000
# 3 -0.017376 -0.004719 0.012334 0.000000 -0.001467 0.000000
# 4 0.000000 0.000000 0.000000 0.048728 0.000000 0.043131
# 5 0.010331 0.003839 -0.001467 0.000000 0.060287 0.000000
# 6 0.000000 0.000000 0.000000 0.043131 0.000000 0.109555
#
#
# Mechanical properties :
#
#
# Convention : Reuss Voigt Hill
#
# Bulk Modulus (GPa) = 13.37467 40.15400 26.76433
# Shear Modulus (GPa) = 12.28725 22.37624 17.33175
#
# Velocity S-wave (km/s) = 2.54267 3.43128 3.01984
# Velocity P-wave (km/s) = 3.95696 6.06844 5.12267
#
# Compressibility (1/GPa) = 0.07476823
#
# Stress axis : x y z
#
# Youngs Moduli (GPa) = 11.13060 59.08446 81.07889
#
# Poissons Ratio (x) = 0.00425 1.40879
# Poissons Ratio (y) = 0.00080 0.38260
# Poissons Ratio (z) = 0.19340 0.27881
#
# Static dielectric constant tensor:
#      x y z
#    x 1.651250 0.000000 -0.036480 
#    y 0.000000 1.733220 0.000000 
#    z -0.036480 0.000000 1.701670 
# 
# From -- ./inp_files/166995.got.cif
#   From: 2010.05.17/outbox.cif.g08.bks.cpg/sg15_84_cif.got.tgz:166995.got - 2010.06.03 18:47:42.
