data_PCOD9258437
_publ_section_title
;
Structure prediction by ZEFSAII (Michael W. Deem and Ramdas Pophale) SiO2 
 PCOD9258437
Probable space group: C 2/C
;
_chemical_formula_sum "Si O2"
_cell_formula_units_Z 56
_cell_length_a 17.916852
_cell_length_b 17.154407
_cell_length_c 20.283431
_cell_angle_alpha 90.000000
_cell_angle_beta 155.942818
_cell_angle_gamma 90.000000
_cell_volume 2541.349139
_symmetry_space_group_name_H-M "C 2/C"
_symmetry_group_IT_number 15
_symmetry_cell_setting 'monoclinic'
loop_
_space_group_symop_operation_xyz
x,y,z
-x,y,1/2-z
-x,-y,-z
x,-y,1/2+z
1/2+x,1/2+y,z
1/2-x,1/2+y,1/2-z
1/2-x,1/2-y,-z
1/2+x,1/2-y,1/2+z
loop_
_atom_site_type_symbol
_atom_site_label
_atom_site_fract_x
_atom_site_fract_y
_atom_site_fract_z
Si Si1 0.914391 0.116259 0.947573
Si Si2 0.191308 0.413093 0.736198
Si Si3 0.040893 0.572288 0.641059
Si Si4 0.799131 0.364305 0.603579
Si Si5 0.110840 0.145146 0.723975
Si Si6 0.474630 0.207203 0.976456
Si Si7 0.704176 0.517483 0.911716
O O1 0.731153 0.085489 0.833874
O O2 0.895868 0.104459 0.853366
O O3 0.949793 0.208685 0.980564
O O4 0.101198 0.076971 0.120409
O O5 0.082215 0.491996 0.635398
O O6 0.190277 0.395822 0.813373
O O7 0.102157 0.339686 0.629198
O O8 0.029385 0.650325 0.589366
O O9 0.850090 0.550503 0.519194
O O10 0.597038 0.323893 0.432450
O O11 0.771981 0.435123 0.530274
O O12 0.000000 0.327329 0.750000
O O13 0.179231 0.083947 0.834168
O O14 0.271733 0.208578 0.845192
O O15 0.500000 0.484430 0.750000
#
# Coordination Sequence:
#
# PCOD9258437 Si02
#       7
#     8   8   8   8   8   8   8
#     4  10  23  36  57  88 127 153 188 244 313 352
#     4  11  20  35  59  90 119 150 203 251 287 349
#     4  11  21  37  61  89 115 155 199 248 296 354
#     4  10  18  33  56  88 121 150 189 254 289 325
#     4   9  19  34  59  80 116 155 193 229 298 344
#     4  11  21  38  58  86 125 158 189 241 311 365
#     4  10  20  37  61  91 117 151 197 252 287 345
#
# _framework density 22.035540000000001
#
# number of rings (size 3 to 8) (size 9 to 14) (size 15 to 20)
#    0.000    1.714    2.857    2.571    2.000    0.000 
#    2.571    0.000    0.000   66.000    0.000    0.000 
#    0.000    0.000    0.000    0.000    0.000    0.000 
#
# Total GULP energy -156271.617755 kJ/mol
# GULP energy per Si atom -5581.129206 kJ/mol
# Density = 2.198539 g / cm^3
# Si number density = 22.035540 Si / 1000 Ang^3
#
#
#
# Elastic Constant Matrix: (Units=GPa)
#
#
# Indices 1 2 3 4 5 6 
#
# 1 14.5431 7.2047 19.2722 0.0031 18.6138 -0.0185
# 2 7.2047 74.4496 5.2338 0.0164 14.5611 -0.0112
# 3 19.2722 5.2338 126.3742 0.0044 51.0777 -0.0164
# 4 0.0031 0.0164 0.0044 84.6423 0.0085 -2.9262
# 5 18.6138 14.5611 51.0777 0.0085 50.5690 -0.0104
# 6 -0.0185 -0.0112 -0.0164 -2.9262 -0.0104 1.5292
#
#
#
# Elastic Compliance Matrix: (Units=1/GPa)
#
#
# Indices 1 2 3 4 5 6 
#
# 1 0.130959 -0.003612 -0.001282 0.000046 -0.045869 0.001320
# 2 -0.003612 0.014580 0.001870 -0.000001 -0.004758 0.000050
# 3 -0.001282 0.001870 0.013617 0.000002 -0.013820 0.000055
# 4 0.000046 -0.000001 0.000002 0.012651 -0.000016 0.024209
# 5 -0.045869 -0.004758 -0.013820 -0.000016 0.051988 -0.000417
# 6 0.001320 0.000050 0.000055 0.024209 -0.000417 0.700272
#
#
# Mechanical properties :
#
#
# Convention : Reuss Voigt Hill
#
# Bulk Modulus (GPa) = 6.53135 30.97649 18.75392
# Shear Modulus (GPa) = 5.09605 39.59186 22.34395
#
# Velocity S-wave (km/s) = 1.52239 4.24338 3.18779
# Velocity P-wave (km/s) = 2.46184 6.17223 4.69878
#
# Compressibility (1/GPa) = 0.15310766
#
# Stress axis : x y z
#
# Youngs Moduli (GPa) = 7.63598 68.58486 73.43738
#
# Poissons Ratio (x) = 0.24771 0.09418
# Poissons Ratio (y) = 0.02758 -0.13732
# Poissons Ratio (z) = 0.00979 -0.12824
#
# Static dielectric constant tensor:
#      x y z
#    x 1.854190 -0.000010 0.048640 
#    y -0.000010 1.786710 -0.000010 
#    z 0.048640 -0.000010 1.907200 
# 
# From -- ./inp_files/280437.got.cif
#   From: 2010.05.17/outbox.cif.g08.bks.cpg/sg15_141_cif.got.tgz:280437.got - 2010.06.03 18:47:42.
