data_PCOD9258202
_publ_section_title
;
Structure prediction by ZEFSAII (Michael W. Deem and Ramdas Pophale) SiO2 
 PCOD9258202
Probable space group: C 2/C
;
_chemical_formula_sum "Si O2"
_cell_formula_units_Z 64
_cell_length_a 26.465323
_cell_length_b 17.399588
_cell_length_c 22.253193
_cell_angle_alpha 90.000000
_cell_angle_beta 20.075950
_cell_angle_gamma 90.000000
_cell_volume 3517.536616
_symmetry_space_group_name_H-M "C 2/C"
_symmetry_group_IT_number 15
_symmetry_cell_setting 'monoclinic'
loop_
_space_group_symop_operation_xyz
x,y,z
-x,y,1/2-z
-x,-y,-z
x,-y,1/2+z
1/2+x,1/2+y,z
1/2-x,1/2+y,1/2-z
1/2-x,1/2-y,-z
1/2+x,1/2-y,1/2+z
loop_
_atom_site_type_symbol
_atom_site_label
_atom_site_fract_x
_atom_site_fract_y
_atom_site_fract_z
Si Si1 0.057401 0.168920 0.993602
Si Si2 0.721482 0.186170 0.351936
Si Si3 0.411626 0.260352 0.293746
Si Si4 0.027705 0.386428 0.598638
Si Si5 0.242111 0.522102 0.714673
Si Si6 0.320529 0.303917 0.271935
Si Si7 0.961426 0.544051 0.949568
Si Si8 0.772323 0.642702 0.295072
O O1 0.150516 0.229159 0.929850
O O2 0.130654 0.084614 0.917771
O O3 0.080074 0.194010 0.898258
O O4 0.883088 0.176562 0.199666
O O5 0.607521 0.120857 0.500376
O O6 0.736054 0.165718 0.264758
O O7 0.500000 0.295539 0.250000
O O8 0.250000 0.250000 0.500000
O O9 0.469384 0.175262 0.211443
O O10 0.406033 0.308609 0.238607
O O11 0.198075 0.367743 0.401267
O O12 0.007725 0.476226 0.632180
O O13 0.937338 0.370355 0.637728
O O14 0.157031 0.492593 0.870116
O O15 0.297722 0.441865 0.622255
O O16 0.111530 0.557058 0.819247
O O17 0.233236 0.221898 0.372246
#
# Coordination Sequence:
#
# PCOD9258202 Si02
#       8
#     8   8   8   8   8   8   8   8
#     4  11  21  30  47  69  97 130 173 205 242 283
#     4  10  21  29  43  66  93 126 164 208 236 284
#     4  11  22  35  50  69  94 121 170 216 257 288
#     4  10  18  33  50  66  89 129 158 205 249 305
#     4   9  16  30  45  62  92 125 161 204 237 286
#     4  10  20  30  49  68  94 130 172 203 242 296
#     4   9  17  31  47  64  91 127 162 200 253 286
#     4   8  19  27  44  64  91 121 162 198 243 277
#
# _framework density 18.19455
#
# number of rings (size 3 to 8) (size 9 to 14) (size 15 to 20)
#    0.000    2.250    2.500    1.500   10.500    2.000 
#    0.000    0.000    0.000    0.000    0.000    0.000 
#    0.000    0.000    0.000   18.000    0.000    6.375 
#
# Total GULP energy -178148.701235 kJ/mol
# GULP energy per Si atom -5567.146914 kJ/mol
# Density = 1.815314 g / cm^3
# Si number density = 18.194550 Si / 1000 Ang^3
#
#
#
# Elastic Constant Matrix: (Units=GPa)
#
#
# Indices 1 2 3 4 5 6 
#
# 1 45.0208 32.0708 13.8557 -0.0014 -20.9094 0.0008
# 2 32.0708 88.3986 5.2944 0.0027 -13.5882 -0.0008
# 3 13.8557 5.2944 32.3370 0.0043 -14.3854 -0.0023
# 4 -0.0014 0.0027 0.0043 28.4060 -0.0011 -8.9813
# 5 -20.9094 -13.5882 -14.3854 -0.0011 24.0336 0.0001
# 6 0.0008 -0.0008 -0.0023 -8.9813 0.0001 14.2814
#
#
#
# Elastic Compliance Matrix: (Units=1/GPa)
#
#
# Indices 1 2 3 4 5 6 
#
# 1 0.046358 -0.011771 -0.004027 0.000005 0.031266 -0.000001
# 2 -0.011771 0.015430 0.002511 -0.000002 -0.000014 0.000001
# 3 -0.004027 0.002511 0.042675 -0.000005 0.023459 0.000004
# 4 0.000005 -0.000002 -0.000005 0.043941 0.000002 0.027634
# 5 0.031266 -0.000014 0.023459 0.000002 0.082844 0.000003
# 6 -0.000001 0.000001 0.000004 0.027634 0.000003 0.087400
#
#
# Mechanical properties :
#
#
# Convention : Reuss Voigt Hill
#
# Bulk Modulus (GPa) = 12.83885 29.79980 21.31932
# Shear Modulus (GPa) = 13.47039 20.97991 17.22515
#
# Velocity S-wave (km/s) = 2.72390 3.39940 3.08022
# Velocity P-wave (km/s) = 4.11880 5.64109 4.93895
#
# Compressibility (1/GPa) = 0.07788861
#
# Stress axis : x y z
#
# Youngs Moduli (GPa) = 21.57140 64.80696 23.43302
#
# Poissons Ratio (x) = 0.76286 0.09437
# Poissons Ratio (y) = 0.25392 -0.05885
# Poissons Ratio (z) = 0.08687 -0.16275
#
# Static dielectric constant tensor:
#      x y z
#    x 1.634180 0.000000 -0.017830 
#    y 0.000000 1.693540 0.000000 
#    z -0.017830 0.000000 1.673080 
# 
# From -- ./inp_files/70310.got.cif
#   From: 2010.05.17/outbox.cif.g08.bks.cpg/sg15_36_cif.got.tgz:70310.got - 2010.06.03 18:47:42.
