data_PCOD9258763
_publ_section_title
;
Structure prediction by ZEFSAII (Michael W. Deem and Ramdas Pophale) SiO2 
 PCOD9258763
Probable space group: C 2/C
;
_chemical_formula_sum "Si O2"
_cell_formula_units_Z 56
_cell_length_a 15.131928
_cell_length_b 24.424906
_cell_length_c 14.437976
_cell_angle_alpha 90.000000
_cell_angle_beta 33.073428
_cell_angle_gamma 90.000000
_cell_volume 2912.045097
_symmetry_space_group_name_H-M "C 2/C"
_symmetry_group_IT_number 15
_symmetry_cell_setting 'monoclinic'
loop_
_space_group_symop_operation_xyz
x,y,z
-x,y,1/2-z
-x,-y,-z
x,-y,1/2+z
1/2+x,1/2+y,z
1/2-x,1/2+y,1/2-z
1/2-x,1/2-y,-z
1/2+x,1/2-y,1/2+z
loop_
_atom_site_type_symbol
_atom_site_label
_atom_site_fract_x
_atom_site_fract_y
_atom_site_fract_z
Si Si1 0.680573 0.094724 0.612772
Si Si2 0.000000 0.927817 0.750000
Si Si3 0.125821 0.576920 0.312859
Si Si4 0.647583 0.203143 0.987034
Si Si5 0.277577 0.180182 0.368977
Si Si6 0.872241 0.998984 0.194540
Si Si7 0.500000 0.012686 0.250000
Si Si8 0.201642 0.390607 0.311239
O O1 0.500000 0.118669 0.750000
O O2 0.840940 0.108017 0.414100
O O3 0.721537 0.104203 0.684002
O O4 0.649457 0.029904 0.618223
O O5 0.050281 0.967547 0.789834
O O6 0.246572 0.621878 0.160428
O O7 0.219389 0.531815 0.288591
O O8 0.026944 0.550063 0.314923
O O9 0.988554 0.599853 0.500915
O O10 0.458480 0.193655 0.173625
O O11 0.723078 0.181298 0.018207
O O12 0.670724 0.266723 0.942976
O O13 0.727836 0.167697 0.835561
O O14 0.809767 0.937361 0.265040
O O15 0.000000 0.000000 0.000000
#
# Coordination Sequence:
#
# PCOD9258763 Si02
#       8
#     8   4   8   8   8   8   4   8
#     4  10  21  36  55  81 115 159 193 241 300 348
#     4  12  22  38  54  77 125 156 196 250 284 360
#     4  11  20  34  58  82 117 157 202 243 294 369
#     4   9  19  35  58  81 117 151 195 245 294 360
#     4   9  19  36  55  85 112 155 196 240 303 352
#     4  12  23  36  52  86 121 155 199 242 304 361
#     4  10  18  34  54  83 117 160 194 240 294 354
#     4  11  20  36  55  83 113 154 200 244 292 362
#
# _framework density 19.230471000000001
#
# number of rings (size 3 to 8) (size 9 to 14) (size 15 to 20)
#    0.429    1.143    2.857    3.857    0.000    2.286 
#    0.000    1.429    0.000    0.000    1.857    3.000 
#    0.000    0.000    0.000    0.000    0.000    0.000 
#
# Total GULP energy -156015.034407 kJ/mol
# GULP energy per Si atom -5571.965515 kJ/mol
# Density = 1.918670 g / cm^3
# Si number density = 19.230471 Si / 1000 Ang^3
#
#
#
# Elastic Constant Matrix: (Units=GPa)
#
#
# Indices 1 2 3 4 5 6 
#
# 1 75.7352 8.1080 16.7124 -0.0184 8.3900 0.0063
# 2 8.1080 42.8971 10.4606 -0.0246 7.5218 0.0236
# 3 16.7124 10.4606 85.0093 -0.0154 7.1484 0.0146
# 4 -0.0184 -0.0246 -0.0154 20.5112 0.0172 0.3350
# 5 8.3900 7.5218 7.1484 0.0172 16.8876 -0.0114
# 6 0.0063 0.0236 0.0146 0.3350 -0.0114 14.2424
#
#
#
# Elastic Compliance Matrix: (Units=1/GPa)
#
#
# Indices 1 2 3 4 5 6 
#
# 1 0.014453 -0.001190 -0.002215 0.000015 -0.005713 -0.000007
# 2 -0.001190 0.025804 -0.002099 0.000037 -0.010014 -0.000049
# 3 -0.002215 -0.002099 0.012739 0.000008 -0.003357 -0.000011
# 4 0.000015 0.000037 0.000008 0.048773 -0.000078 -0.001147
# 5 -0.005713 -0.010014 -0.003357 -0.000078 0.067935 0.000079
# 6 -0.000007 -0.000049 -0.000011 -0.001147 0.000079 0.070240
#
#
# Mechanical properties :
#
#
# Convention : Reuss Voigt Hill
#
# Bulk Modulus (GPa) = 23.81572 30.46707 27.14140
# Shear Modulus (GPa) = 18.87160 21.55226 20.21193
#
# Velocity S-wave (km/s) = 3.13603 3.35137 3.24549
# Velocity P-wave (km/s) = 5.05215 5.55456 5.30930
#
# Compressibility (1/GPa) = 0.04198907
#
# Stress axis : x y z
#
# Youngs Moduli (GPa) = 69.19040 38.75317 78.49652
#
# Poissons Ratio (x) = 0.04611 0.17383
# Poissons Ratio (y) = 0.08233 0.16479
# Poissons Ratio (z) = 0.15322 0.08135
#
# Static dielectric constant tensor:
#      x y z
#    x 1.678820 0.000000 -0.016500 
#    y 0.000000 1.712800 0.000000 
#    z -0.016500 0.000000 1.705490 
# 
# From -- ./inp_files/157222.got.cif
#   From: 2010.05.17/outbox.cif.g08.bks.cpg/sg15_79_cif.got.tgz:157222.got - 2010.06.03 18:47:42.
