data_PCOD9258322
_publ_section_title
;
Structure prediction by ZEFSAII (Michael W. Deem and Ramdas Pophale) SiO2 
 PCOD9258322
Probable space group: C 2/C
;
_chemical_formula_sum "Si O2"
_cell_formula_units_Z 56
_cell_length_a 10.374712
_cell_length_b 21.627499
_cell_length_c 13.396626
_cell_angle_alpha 90.000000
_cell_angle_beta 98.776166
_cell_angle_gamma 90.000000
_cell_volume 2970.728993
_symmetry_space_group_name_H-M "C 2/C"
_symmetry_group_IT_number 15
_symmetry_cell_setting 'monoclinic'
loop_
_space_group_symop_operation_xyz
x,y,z
-x,y,1/2-z
-x,-y,-z
x,-y,1/2+z
1/2+x,1/2+y,z
1/2-x,1/2+y,1/2-z
1/2-x,1/2-y,-z
1/2+x,1/2-y,1/2+z
loop_
_atom_site_type_symbol
_atom_site_label
_atom_site_fract_x
_atom_site_fract_y
_atom_site_fract_z
Si Si1 0.989316 0.797849 0.899463
Si Si2 0.243615 0.761708 0.251031
Si Si3 0.593798 0.911928 0.054449
Si Si4 0.366157 0.170882 0.590757
Si Si5 0.682366 0.310465 0.442549
Si Si6 0.739883 0.645932 0.369857
Si Si7 0.926335 0.458667 0.846423
O O1 0.870518 0.769372 0.820563
O O2 0.079157 0.738386 0.932861
O O3 0.084698 0.844560 0.853691
O O4 0.933763 0.824912 0.995528
O O5 0.292732 0.816402 0.185055
O O6 0.152558 0.787967 0.327011
O O7 0.195193 0.705760 0.176204
O O8 0.489257 0.874171 0.108318
O O9 0.715802 0.866790 0.051798
O O10 0.618928 0.975985 0.113665
O O11 0.524493 0.928393 0.940464
O O12 0.278304 0.146353 0.490749
O O13 0.750000 0.250000 0.500000
O O14 0.802335 0.586718 0.325513
O O15 0.000000 0.464911 0.750000
#
# Coordination Sequence:
#
# PCOD9258322 Si02
#       7
#     8   8   8   8   8   8   8
#     4  10  19  32  52  83 112 144 178 226 279 335
#     4  10  19  30  55  85 108 146 182 227 285 335
#     4  10  21  39  55  86 111 144 189 237 277 329
#     4  10  18  33  54  79 113 140 180 231 282 329
#     4  10  20  32  57  84 114 138 184 231 282 331
#     4  10  21  35  51  80 117 146 188 222 281 333
#     4  10  24  37  59  79 112 151 190 234 275 328
#
# _framework density 18.850591999999999
#
# number of rings (size 3 to 8) (size 9 to 14) (size 15 to 20)
#    0.000    2.000    2.857    3.429    6.000    0.000 
#    0.000    2.857    0.000    0.000    0.000    0.000 
#    0.000    0.000    0.000    0.000    0.000    0.000 
#
# Total GULP energy -156132.905389 kJ/mol
# GULP energy per Si atom -5576.175192 kJ/mol
# Density = 1.880769 g / cm^3
# Si number density = 18.850592 Si / 1000 Ang^3
#
#
#
# Elastic Constant Matrix: (Units=GPa)
#
#
# Indices 1 2 3 4 5 6 
#
# 1 39.8982 25.9333 23.1036 0.0000 -13.3134 0.0000
# 2 25.9333 91.3409 18.2579 0.0000 -16.1227 0.0000
# 3 23.1036 18.2579 96.3044 0.0000 -31.3695 0.0000
# 4 0.0000 0.0000 0.0000 16.1066 0.0000 1.0585
# 5 -13.3134 -16.1227 -31.3695 0.0000 29.2648 0.0000
# 6 0.0000 0.0000 0.0000 1.0585 0.0000 31.3841
#
#
#
# Elastic Compliance Matrix: (Units=1/GPa)
#
#
# Indices 1 2 3 4 5 6 
#
# 1 0.035133 -0.007867 -0.004829 0.000000 0.006473 0.000000
# 2 -0.007867 0.013891 0.000892 0.000000 0.005031 0.000000
# 3 -0.004829 0.000892 0.016621 0.000000 0.016111 0.000000
# 4 0.000000 0.000000 0.000000 0.062224 0.000000 -0.002099
# 5 0.006473 0.005031 0.016111 0.000000 0.057157 0.000000
# 6 0.000000 0.000000 0.000000 -0.002099 0.000000 0.031934
#
#
# Mechanical properties :
#
#
# Convention : Reuss Voigt Hill
#
# Bulk Modulus (GPa) = 23.78757 40.23702 32.01230
# Shear Modulus (GPa) = 19.64016 26.03435 22.83725
#
# Velocity S-wave (km/s) = 3.23133 3.72033 3.48442
# Velocity P-wave (km/s) = 5.15445 6.31237 5.76257
#
# Compressibility (1/GPa) = 0.04203876
#
# Stress axis : x y z
#
# Youngs Moduli (GPa) = 28.46288 71.98793 60.16529
#
# Poissons Ratio (x) = 0.56635 0.29051
# Poissons Ratio (y) = 0.22392 -0.05369
# Poissons Ratio (z) = 0.13743 -0.06424
#
# Static dielectric constant tensor:
#      x y z
#    x 1.686580 0.000000 0.018110 
#    y 0.000000 1.650140 0.000000 
#    z 0.018110 0.000000 1.717320 
# 
# From -- ./inp_files/90426.got.cif
#   From: 2010.05.17/outbox.cif.g08.bks.cpg/sg15_46_cif.got.tgz:90426.got - 2010.06.03 18:47:42.
