data_PCOD9258423
_publ_section_title
;
Structure prediction by ZEFSAII (Michael W. Deem and Ramdas Pophale) SiO2 
 PCOD9258423
Probable space group: C 2/C
;
_chemical_formula_sum "Si O2"
_cell_formula_units_Z 64
_cell_length_a 12.680212
_cell_length_b 26.656459
_cell_length_c 9.927675
_cell_angle_alpha 90.000000
_cell_angle_beta 96.945255
_cell_angle_gamma 90.000000
_cell_volume 3331.025698
_symmetry_space_group_name_H-M "C 2/C"
_symmetry_group_IT_number 15
_symmetry_cell_setting 'monoclinic'
loop_
_space_group_symop_operation_xyz
x,y,z
-x,y,1/2-z
-x,-y,-z
x,-y,1/2+z
1/2+x,1/2+y,z
1/2-x,1/2+y,1/2-z
1/2-x,1/2-y,-z
1/2+x,1/2-y,1/2+z
loop_
_atom_site_type_symbol
_atom_site_label
_atom_site_fract_x
_atom_site_fract_y
_atom_site_fract_z
Si Si1 0.424383 0.514539 0.362795
Si Si2 0.147549 0.886949 0.535549
Si Si3 0.071008 0.160342 0.474126
Si Si4 0.525740 0.240196 0.116263
Si Si5 0.830641 0.092040 0.772693
Si Si6 0.188740 0.302538 0.009930
Si Si7 0.626876 0.147036 0.775545
Si Si8 0.219795 0.695834 0.056163
O O1 0.500000 0.529805 0.250000
O O2 0.500000 0.500000 0.500000
O O3 0.344248 0.558748 0.394250
O O4 0.364706 0.463861 0.312928
O O5 0.130907 0.895559 0.372124
O O6 0.242863 0.846740 0.549370
O O7 0.038296 0.865492 0.580475
O O8 0.118113 0.130619 0.611327
O O9 0.172907 0.166179 0.392558
O O10 0.039709 0.217032 0.508158
O O11 0.500000 0.268195 0.250000
O O12 0.633287 0.208976 0.153439
O O13 0.429457 0.204458 0.063997
O O14 0.703226 0.099369 0.761981
O O15 0.170139 0.315491 0.165286
O O16 0.250000 0.250000 0.000000
O O17 0.500000 0.140205 0.750000
O O18 0.657855 0.167980 0.926513
O O19 0.250000 0.750000 0.000000
#
# Coordination Sequence:
#
# PCOD9258423 Si02
#       8
#     8   8   8   8   8   8   8   8
#     4  12  22  39  62  91 123 154 194 254 317 366
#     4  11  21  37  58  88 120 148 199 244 304 364
#     4  10  18  33  56  84 112 153 200 238 287 369
#     4  11  21  35  54  76 120 160 199 237 294 356
#     4  10  20  35  63  87 113 151 197 251 297 370
#     4  11  23  36  57  86 119 160 196 245 292 357
#     4  10  20  38  60  83 111 153 215 249 277 354
#     4   9  20  33  51  79 109 152 196 239 284 337
#
# _framework density 19.213301999999999
#
# number of rings (size 3 to 8) (size 9 to 14) (size 15 to 20)
#    0.000    1.500    5.000    1.125    5.250    0.000 
#    2.250    0.625    0.000    3.750    0.000    0.000 
#    0.000    0.000    0.000    0.000    0.000    0.000 
#
# Total GULP energy -178484.949116 kJ/mol
# GULP energy per Si atom -5577.654660 kJ/mol
# Density = 1.916957 g / cm^3
# Si number density = 19.213302 Si / 1000 Ang^3
#
#
#
# Elastic Constant Matrix: (Units=GPa)
#
#
# Indices 1 2 3 4 5 6 
#
# 1 139.4941 53.8241 9.8935 0.0000 -9.8998 0.0000
# 2 53.8241 104.6549 10.0520 0.0000 -5.2960 0.0000
# 3 9.8935 10.0520 32.1489 0.0000 -12.8938 0.0000
# 4 0.0000 0.0000 0.0000 19.2818 0.0000 -5.5866
# 5 -9.8998 -5.2960 -12.8938 0.0000 23.1700 0.0000
# 6 0.0000 0.0000 0.0000 -5.5866 0.0000 25.0680
#
#
#
# Elastic Compliance Matrix: (Units=1/GPa)
#
#
# Indices 1 2 3 4 5 6 
#
# 1 0.009130 -0.004529 -0.000314 0.000000 0.002691 0.000000
# 2 -0.004529 0.012106 -0.002649 0.000000 -0.000642 0.000000
# 3 -0.000314 -0.002649 0.040851 0.000000 0.021993 0.000000
# 4 0.000000 0.000000 0.000000 0.055442 0.000000 0.012356
# 5 0.002691 -0.000642 0.021993 0.000000 0.056401 0.000000
# 6 0.000000 0.000000 0.000000 0.012356 0.000000 0.042645
#
#
# Mechanical properties :
#
#
# Convention : Reuss Voigt Hill
#
# Bulk Modulus (GPa) = 21.23045 47.09301 34.16173
# Shear Modulus (GPa) = 20.22156 27.00584 23.61370
#
# Velocity S-wave (km/s) = 3.24771 3.75317 3.50955
# Velocity P-wave (km/s) = 5.01372 6.58374 5.85162
#
# Compressibility (1/GPa) = 0.04710217
#
# Stress axis : x y z
#
# Youngs Moduli (GPa) = 109.53473 82.60080 24.47923
#
# Poissons Ratio (x) = 0.37410 0.00769
# Poissons Ratio (y) = 0.49608 0.06485
# Poissons Ratio (z) = 0.03443 0.21882
#
# Static dielectric constant tensor:
#      x y z
#    x 1.720700 0.000000 -0.034450 
#    y 0.000000 1.659550 0.000000 
#    z -0.034450 0.000000 1.696120 
# 
# From -- ./inp_files/90837.got.cif
#   From: 2010.05.17/outbox.cif.g08.bks.cpg/sg15_46_cif.got.tgz:90837.got - 2010.06.03 18:47:42.
