data_PCOD9258100
_publ_section_title
;
Structure prediction by ZEFSAII (Michael W. Deem and Ramdas Pophale) SiO2 
 PCOD9258100
Probable space group: C 2/C
;
_chemical_formula_sum "Si O2"
_cell_formula_units_Z 56
_cell_length_a 7.106162
_cell_length_b 23.989496
_cell_length_c 14.633650
_cell_angle_alpha 90.000000
_cell_angle_beta 78.732028
_cell_angle_gamma 90.000000
_cell_volume 2446.559102
_symmetry_space_group_name_H-M "C 2/C"
_symmetry_group_IT_number 15
_symmetry_cell_setting 'monoclinic'
loop_
_space_group_symop_operation_xyz
x,y,z
-x,y,1/2-z
-x,-y,-z
x,-y,1/2+z
1/2+x,1/2+y,z
1/2-x,1/2+y,1/2-z
1/2-x,1/2-y,-z
1/2+x,1/2-y,1/2+z
loop_
_atom_site_type_symbol
_atom_site_label
_atom_site_fract_x
_atom_site_fract_y
_atom_site_fract_z
Si Si1 0.283109 0.590653 0.464703
Si Si2 0.555950 0.982849 0.845828
Si Si3 0.595925 0.102971 0.888952
Si Si4 0.325406 0.206412 0.095084
Si Si5 0.710707 0.578530 0.443797
Si Si6 0.799021 0.170279 0.211643
Si Si7 0.032039 0.723732 0.896056
O O1 0.200702 0.557901 0.384703
O O2 0.121172 0.591662 0.557002
O O3 0.296155 0.656467 0.440975
O O4 0.487140 0.566028 0.469766
O O5 0.500000 0.966010 0.750000
O O6 0.356025 0.973165 0.919449
O O7 0.640790 0.045362 0.833887
O O8 0.597412 0.164708 0.848639
O O9 0.724551 0.105960 0.967708
O O10 0.354726 0.182791 0.193526
O O11 0.183304 0.258893 0.115112
O O12 0.499844 0.217859 0.009186
O O13 0.736102 0.620206 0.355367
O O14 0.165560 0.226500 0.349721
O O15 0.000000 0.160101 0.250000
#
# Coordination Sequence:
#
# PCOD9258100 Si02
#       7
#     8   8   8   8   8   8   8
#     4  10  19  39  62  87 115 150 202 258 302 342
#     4  11  25  38  58  90 121 156 201 247 301 366
#     4  10  24  40  57  89 122 161 203 234 301 380
#     4   9  17  32  57  89 115 152 200 249 302 350
#     4  11  21  38  65  88 116 155 200 263 302 343
#     4  10  18  32  59  94 114 153 207 250 309 350
#     4   9  18  34  56  83 122 156 191 246 297 367
#
# _framework density 22.889292000000001
#
# number of rings (size 3 to 8) (size 9 to 14) (size 15 to 20)
#    0.000    2.000    2.857    2.571    0.000    4.571 
#    0.000    0.000    0.000    0.000    0.000    0.000 
#    0.000    0.000    0.000    0.000    0.000    0.000 
#
# Total GULP energy -156284.384482 kJ/mol
# GULP energy per Si atom -5581.585160 kJ/mol
# Density = 2.283719 g / cm^3
# Si number density = 22.889292 Si / 1000 Ang^3
#
#
#
# Elastic Constant Matrix: (Units=GPa)
#
#
# Indices 1 2 3 4 5 6 
#
# 1 85.6287 12.8189 12.6139 0.0000 17.4334 0.0000
# 2 12.8189 139.9757 1.3865 0.0000 15.5868 0.0000
# 3 12.6139 1.3865 48.2995 0.0000 0.9461 0.0000
# 4 0.0000 0.0000 0.0000 29.7130 0.0000 -6.3744
# 5 17.4334 15.5868 0.9461 0.0000 26.2126 0.0000
# 6 0.0000 0.0000 0.0000 -6.3744 0.0000 18.8839
#
#
#
# Elastic Compliance Matrix: (Units=1/GPa)
#
#
# Indices 1 2 3 4 5 6 
#
# 1 0.014081 -0.000242 -0.003492 0.000000 -0.009095 0.000000
# 2 -0.000242 0.007656 -0.000071 0.000000 -0.004389 0.000000
# 3 -0.003492 -0.000071 0.021587 0.000000 0.001585 0.000000
# 4 0.000000 0.000000 0.000000 0.036283 0.000000 0.012247
# 5 -0.009095 -0.004389 0.001585 0.000000 0.046751 0.000000
# 6 0.000000 0.000000 0.000000 0.012247 0.000000 0.057089
#
#
# Mechanical properties :
#
#
# Convention : Reuss Voigt Hill
#
# Bulk Modulus (GPa) = 28.00055 36.39363 32.19709
# Shear Modulus (GPa) = 24.63533 31.43421 28.03477
#
# Velocity S-wave (km/s) = 3.28423 3.70985 3.50351
# Velocity P-wave (km/s) = 5.16151 5.85534 5.51934
#
# Compressibility (1/GPa) = 0.03571358
#
# Stress axis : x y z
#
# Youngs Moduli (GPa) = 71.01953 130.62220 46.32383
#
# Poissons Ratio (x) = 0.03163 0.16177
# Poissons Ratio (y) = 0.01720 0.00327
# Poissons Ratio (z) = 0.24802 0.00922
#
# Static dielectric constant tensor:
#      x y z
#    x 1.852000 0.000000 -0.023740 
#    y 0.000000 1.872530 0.000000 
#    z -0.023740 0.000000 1.901940 
# 
# From -- ./inp_files/136438.got.cif
#   From: 2010.05.17/outbox.cif.g08.bks.cpg/sg15_69_cif.got.tgz:136438.got - 2010.06.03 18:47:42.
