data_PCOD9258855
_publ_section_title
;
Structure prediction by ZEFSAII (Michael W. Deem and Ramdas Pophale) SiO2 
 PCOD9258855
Probable space group: C 2/C
;
_chemical_formula_sum "Si O2"
_cell_formula_units_Z 56
_cell_length_a 7.225559
_cell_length_b 19.117898
_cell_length_c 23.160594
_cell_angle_alpha 90.000000
_cell_angle_beta 63.221348
_cell_angle_gamma 90.000000
_cell_volume 2856.228633
_symmetry_space_group_name_H-M "C 2/C"
_symmetry_group_IT_number 15
_symmetry_cell_setting 'monoclinic'
loop_
_space_group_symop_operation_xyz
x,y,z
-x,y,1/2-z
-x,-y,-z
x,-y,1/2+z
1/2+x,1/2+y,z
1/2-x,1/2+y,1/2-z
1/2-x,1/2-y,-z
1/2+x,1/2-y,1/2+z
loop_
_atom_site_type_symbol
_atom_site_label
_atom_site_fract_x
_atom_site_fract_y
_atom_site_fract_z
Si Si1 0.515121 0.511140 0.363183
Si Si2 0.296000 0.926383 0.502788
Si Si3 0.640476 0.814442 0.443736
Si Si4 0.331376 0.613043 0.816852
Si Si5 0.676369 0.021024 0.273519
Si Si6 0.861368 0.451881 0.905702
Si Si7 0.067588 0.835800 0.994722
O O1 0.331978 0.550455 0.422673
O O2 0.436355 0.436173 0.351571
O O3 0.617566 0.543538 0.290472
O O4 0.700317 0.510540 0.383844
O O5 0.483325 0.873950 0.487538
O O6 0.133981 0.883724 0.484876
O O7 0.373523 0.994776 0.457501
O O8 0.692324 0.832549 0.370475
O O9 0.849169 0.819102 0.453001
O O10 0.544547 0.738237 0.466361
O O11 0.500000 0.645172 0.750000
O O12 0.212150 0.556478 0.794180
O O13 0.500000 0.020556 0.250000
O O14 0.576077 0.060707 0.341908
O O15 0.750138 0.380770 0.939367
#
# Coordination Sequence:
#
# PCOD9258855 Si02
#       7
#     8   8   8   8   8   8   8
#     4   9  19  31  51  84 112 134 177 245 276 320
#     4  11  20  35  60  82 107 147 190 231 281 335
#     4  11  22  37  56  81 113 156 184 228 282 346
#     4  10  19  34  54  81 110 142 187 227 275 334
#     4   9  18  32  51  80 112 137 176 236 288 324
#     4  10  18  34  56  82 107 146 184 232 287 333
#     4  10  23  37  53  83 119 141 188 236 281 328
#
# _framework density 19.606273000000002
#
# number of rings (size 3 to 8) (size 9 to 14) (size 15 to 20)
#    0.000    2.000    1.429    3.857    2.000    1.143 
#    0.000    3.571    0.000    0.000    0.000    0.000 
#    0.000    0.000    0.000    0.000    0.000    0.000 
#
# Total GULP energy -156164.379647 kJ/mol
# GULP energy per Si atom -5577.299273 kJ/mol
# Density = 1.956165 g / cm^3
# Si number density = 19.606273 Si / 1000 Ang^3
#
#
#
# Elastic Constant Matrix: (Units=GPa)
#
#
# Indices 1 2 3 4 5 6 
#
# 1 37.8934 -0.7181 21.5355 0.0000 2.0934 0.0000
# 2 -0.7181 84.6945 48.0590 0.0000 -4.5550 0.0000
# 3 21.5355 48.0590 109.2173 0.0000 -10.5576 0.0000
# 4 0.0000 0.0000 0.0000 12.7418 0.0000 2.0554
# 5 2.0934 -4.5550 -10.5576 0.0000 25.8803 0.0000
# 6 0.0000 0.0000 0.0000 2.0554 0.0000 22.8081
#
#
#
# Elastic Compliance Matrix: (Units=1/GPa)
#
#
# Indices 1 2 3 4 5 6 
#
# 1 0.031943 0.005132 -0.009077 0.000000 -0.005384 0.000000
# 2 0.005132 0.016561 -0.008388 0.000000 -0.000922 0.000000
# 3 -0.009077 -0.008388 0.015163 0.000000 0.005444 0.000000
# 4 0.000000 0.000000 0.000000 0.079640 0.000000 -0.007177
# 5 -0.005384 -0.000922 0.005444 0.000000 0.041133 0.000000
# 6 0.000000 0.000000 0.000000 -0.007177 0.000000 0.044491
#
#
# Mechanical properties :
#
#
# Convention : Reuss Voigt Hill
#
# Bulk Modulus (GPa) = 25.64079 41.06196 33.35138
# Shear Modulus (GPa) = 18.75479 23.14795 20.95137
#
# Velocity S-wave (km/s) = 3.09620 3.43977 3.27250
# Velocity P-wave (km/s) = 5.08805 6.06340 5.59701
#
# Compressibility (1/GPa) = 0.03900035
#
# Stress axis : x y z
#
# Youngs Moduli (GPa) = 31.30548 60.38284 65.94871
#
# Poissons Ratio (x) = -0.30989 0.59863
# Poissons Ratio (y) = -0.16066 0.55321
# Poissons Ratio (z) = 0.28417 0.50652
#
# Static dielectric constant tensor:
#      x y z
#    x 1.750420 0.000000 -0.014000 
#    y 0.000000 1.642400 0.000000 
#    z -0.014000 0.000000 1.740610 
# 
# From -- ./inp_files/289401.got.cif
#   From: 2010.05.17/outbox.cif.g08.bks.cpg/sg15_145_cif.got.tgz:289401.got - 2010.06.03 18:47:42.
