data_PCOD9258487
_publ_section_title
;
Structure prediction by ZEFSAII (Michael W. Deem and Ramdas Pophale) SiO2 
 PCOD9258487
Probable space group: C 2/C
;
_chemical_formula_sum "Si O2"
_cell_formula_units_Z 64
_cell_length_a 17.301314
_cell_length_b 20.496516
_cell_length_c 18.586163
_cell_angle_alpha 90.000000
_cell_angle_beta 27.679880
_cell_angle_gamma 90.000000
_cell_volume 3061.707320
_symmetry_space_group_name_H-M "C 2/C"
_symmetry_group_IT_number 15
_symmetry_cell_setting 'monoclinic'
loop_
_space_group_symop_operation_xyz
x,y,z
-x,y,1/2-z
-x,-y,-z
x,-y,1/2+z
1/2+x,1/2+y,z
1/2-x,1/2+y,1/2-z
1/2-x,1/2-y,-z
1/2+x,1/2-y,1/2+z
loop_
_atom_site_type_symbol
_atom_site_label
_atom_site_fract_x
_atom_site_fract_y
_atom_site_fract_z
Si Si1 0.884855 0.876131 0.779834
Si Si2 0.093378 0.996236 0.065260
Si Si3 0.609939 0.950374 0.087402
Si Si4 0.789313 0.670763 0.205402
Si Si5 0.871291 0.551519 0.228624
Si Si6 0.533732 0.359862 0.141650
Si Si7 0.417274 0.745134 0.005946
Si Si8 0.891268 0.338116 0.897264
O O1 0.839875 0.827957 0.752823
O O2 0.000000 0.851857 0.750000
O O3 0.710133 0.896065 0.961066
O O4 0.983179 0.938454 0.663540
O O5 0.201155 0.975274 0.906123
O O6 0.238181 0.006186 0.005690
O O7 0.977612 0.933849 0.175889
O O8 0.500000 0.933229 0.250000
O O9 0.490622 0.988762 0.130884
O O10 0.824910 0.595462 0.198147
O O11 0.712004 0.706492 0.338768
O O12 0.958468 0.709781 0.051148
O O13 0.991464 0.602619 0.173166
O O14 0.500000 0.340297 0.250000
O O15 0.485396 0.311040 0.118888
O O16 0.733998 0.361000 0.981466
O O17 0.348102 0.793158 0.000774
O O18 0.000000 0.299025 0.750000
#
# Coordination Sequence:
#
# PCOD9258487 Si02
#       8
#     8   8   8   8   8   8   8   8
#     4  10  23  42  64  88 113 148 196 257 308 359
#     4  10  18  33  57  90 124 155 191 228 287 346
#     4   9  17  34  61  90 122 150 185 230 287 361
#     4  11  24  44  58  81 124 154 203 251 298 344
#     4  10  18  34  56  87 128 163 181 229 286 350
#     4  12  19  29  53  90 123 163 203 225 267 349
#     4  11  23  38  55  83 118 167 201 246 284 329
#     4  11  18  32  53  82 128 169 199 225 270 335
#
# _framework density 20.903368
#
# number of rings (size 3 to 8) (size 9 to 14) (size 15 to 20)
#    0.000    1.500    3.750    3.750    0.000    1.000 
#    0.000    4.375    0.000    0.000    0.000    0.000 
#    0.000    0.000    0.000    0.000    0.000    0.000 
#
# Total GULP energy -178299.242366 kJ/mol
# GULP energy per Si atom -5571.851324 kJ/mol
# Density = 2.085579 g / cm^3
# Si number density = 20.903368 Si / 1000 Ang^3
#
#
#
# Elastic Constant Matrix: (Units=GPa)
#
#
# Indices 1 2 3 4 5 6 
#
# 1 82.6785 15.3542 3.8550 -0.0093 -8.1867 0.0021
# 2 15.3542 19.3221 5.9178 -0.0496 -1.9214 0.0187
# 3 3.8550 5.9178 72.2384 -0.0147 -1.7455 0.0053
# 4 -0.0093 -0.0496 -0.0147 7.9299 0.0104 -1.0957
# 5 -8.1867 -1.9214 -1.7455 0.0104 16.6798 -0.0081
# 6 0.0021 0.0187 0.0053 -1.0957 -0.0081 20.2696
#
#
#
# Elastic Compliance Matrix: (Units=1/GPa)
#
#
# Indices 1 2 3 4 5 6 
#
# 1 0.014757 -0.011217 0.000276 -0.000059 0.005980 0.000008
# 2 -0.011217 0.062154 -0.004464 0.000361 0.001187 -0.000035
# 3 0.000276 -0.004464 0.014221 -0.000003 0.001109 0.000001
# 4 -0.000059 0.000361 -0.000003 0.127055 -0.000063 0.006868
# 5 0.005980 0.001187 0.001109 -0.000063 0.063141 0.000020
# 6 0.000008 -0.000035 0.000001 0.006868 0.000020 0.049706
#
#
# Mechanical properties :
#
#
# Convention : Reuss Voigt Hill
#
# Bulk Modulus (GPa) = 16.57786 24.94365 20.76075
# Shear Modulus (GPa) = 13.09065 18.91667 16.00366
#
# Velocity S-wave (km/s) = 2.50521 3.01152 2.76995
# Velocity P-wave (km/s) = 4.03931 4.90419 4.49261
#
# Compressibility (1/GPa) = 0.06032143
#
# Stress axis : x y z
#
# Youngs Moduli (GPa) = 67.76283 16.08914 70.31924
#
# Poissons Ratio (x) = 0.18047 -0.01940
# Poissons Ratio (y) = 0.76008 0.31393
# Poissons Ratio (z) = -0.01869 0.07183
#
# Static dielectric constant tensor:
#      x y z
#    x 1.768900 -0.000010 -0.154550 
#    y -0.000010 1.783260 0.000050 
#    z -0.154550 0.000050 2.851790 
# 
# From -- ./inp_files/211974.got.cif
#   From: 2010.05.17/outbox.cif.g08.bks.cpg/sg15_106_cif.got.tgz:211974.got - 2010.06.03 18:47:42.
