data_PCOD9258291
_publ_section_title
;
Structure prediction by ZEFSAII (Michael W. Deem and Ramdas Pophale) SiO2 
 PCOD9258291
Probable space group: C 2/C
;
_chemical_formula_sum "Si O2"
_cell_formula_units_Z 52
_cell_length_a 13.723266
_cell_length_b 14.067099
_cell_length_c 12.327332
_cell_angle_alpha 90.000000
_cell_angle_beta 112.901135
_cell_angle_gamma 90.000000
_cell_volume 2192.171526
_symmetry_space_group_name_H-M "C 2/C"
_symmetry_group_IT_number 15
_symmetry_cell_setting 'monoclinic'
loop_
_space_group_symop_operation_xyz
x,y,z
-x,y,1/2-z
-x,-y,-z
x,-y,1/2+z
1/2+x,1/2+y,z
1/2-x,1/2+y,1/2-z
1/2-x,1/2-y,-z
1/2+x,1/2-y,1/2+z
loop_
_atom_site_type_symbol
_atom_site_label
_atom_site_fract_x
_atom_site_fract_y
_atom_site_fract_z
Si Si1 0.845123 0.103218 0.876121
Si Si2 0.472510 0.109360 0.990444
Si Si3 0.103336 0.834393 0.861916
Si Si4 0.345837 0.210670 0.110260
Si Si5 0.614825 0.879834 0.276983
Si Si6 0.190735 0.322193 0.668334
Si Si7 0.000000 0.877243 0.250000
O O1 0.724815 0.062036 0.837777
O O2 0.806089 0.208306 0.826520
O O3 0.928632 0.073837 0.816523
O O4 0.897165 0.121760 0.017312
O O5 0.403823 0.143717 0.858210
O O6 0.407789 0.135023 0.067392
O O7 0.585558 0.157084 0.056741
O O8 0.500000 0.000000 0.000000
O O9 0.112542 0.718268 0.848140
O O10 0.210103 0.867673 0.848652
O O11 0.000000 0.861676 0.750000
O O12 0.316007 0.158505 0.208226
O O13 0.419793 0.303444 0.158477
O O14 0.250000 0.250000 0.000000
O O15 0.500000 0.928952 0.250000
#
# Coordination Sequence:
#
# PCOD9258291 Si02
#       7
#     8   8   8   8   8   8   4
#     4  10  18  33  53  83 119 148 201 250 314 368
#     4  12  23  37  56  87 124 163 202 253 325 400
#     4  10  19  31  56  86 114 151 204 253 317 365
#     4  11  21  36  59  83 122 162 210 260 330 383
#     4  10  20  33  53  81 113 153 194 242 306 371
#     4  10  19  35  52  82 116 157 199 261 310 382
#     4  10  20  32  56  80 126 150 198 260 320 376
#
# _framework density 23.720772
#
# number of rings (size 3 to 8) (size 9 to 14) (size 15 to 20)
#    0.000    1.538    3.077    7.385    2.154    1.231 
#    0.000    0.000    0.000    0.000    8.000    2.154 
#    0.000    0.000    0.000    0.000    0.000    0.000 
#
# Total GULP energy -144968.043878 kJ/mol
# GULP energy per Si atom -5575.693995 kJ/mol
# Density = 2.366678 g / cm^3
# Si number density = 23.720772 Si / 1000 Ang^3
#
#
#
# Elastic Constant Matrix: (Units=GPa)
#
#
# Indices 1 2 3 4 5 6 
#
# 1 168.9611 13.6538 92.9015 0.0000 -8.8482 0.0000
# 2 13.6538 44.0035 12.3559 0.0000 1.1726 0.0000
# 3 92.9015 12.3559 195.5565 0.0000 -3.7677 0.0000
# 4 0.0000 0.0000 0.0000 -3.6502 0.0000 -16.8941
# 5 -8.8482 1.1726 -3.7677 0.0000 62.5410 0.0000
# 6 0.0000 0.0000 0.0000 -16.8941 0.0000 -298.3872
#
#
#
# Elastic Compliance Matrix: (Units=1/GPa)
#
#
# Indices 1 2 3 4 5 6 
#
# 1 0.008159 -0.001500 -0.003763 0.000000 0.000956 0.000000
# 2 -0.001500 0.023429 -0.000781 0.000000 -0.000699 0.000000
# 3 -0.003763 -0.000781 0.006949 0.000000 -0.000099 0.000000
# 4 0.000000 0.000000 0.000000 -0.371238 0.000000 0.021019
# 5 0.000956 -0.000699 -0.000099 0.000000 0.016132 0.000000
# 6 0.000000 0.000000 0.000000 0.021019 0.000000 -0.004541
#
#
# Mechanical properties :
#
#
# Convention : Reuss Voigt Hill
#
# Bulk Modulus (GPa) = 37.81008 71.81594 54.81301
# Shear Modulus (GPa) = -16.65518 -28.59193 -22.62356
#
# Velocity S-wave (km/s) = -2.65266 -3.47559 -3.09163
# Velocity P-wave (km/s) = 2.56752 3.77293 3.22701
#
# Compressibility (1/GPa) = 0.02644797
#
# Stress axis : x y z
#
# Youngs Moduli (GPa) = 122.56869 42.68225 143.91503
#
# Poissons Ratio (x) = 0.06404 0.54150
# Poissons Ratio (y) = 0.18391 0.11239
# Poissons Ratio (z) = 0.46119 0.03333
#
# Static dielectric constant tensor:
#      x y z
#    x 2.076760 0.000000 0.009110 
#    y 0.000000 1.696980 0.000000 
#    z 0.009110 0.000000 1.996040 
# 
# From -- ./inp_files/98472.got.cif
#   From: 2010.05.17/outbox.cif.g08.bks.cpg/sg15_50_cif.got.tgz:98472.got - 2010.06.03 18:47:42.
