data_PCOD9258023
_publ_section_title
;
Structure prediction by ZEFSAII (Michael W. Deem and Ramdas Pophale) SiO2 
 PCOD9258023
Probable space group: C 2/C
;
_chemical_formula_sum "Si O2"
_cell_formula_units_Z 52
_cell_length_a 9.028364
_cell_length_b 18.408587
_cell_length_c 31.243935
_cell_angle_alpha 90.000000
_cell_angle_beta 147.528983
_cell_angle_gamma 90.000000
_cell_volume 2787.832853
_symmetry_space_group_name_H-M "C 2/C"
_symmetry_group_IT_number 15
_symmetry_cell_setting 'monoclinic'
loop_
_space_group_symop_operation_xyz
x,y,z
-x,y,1/2-z
-x,-y,-z
x,-y,1/2+z
1/2+x,1/2+y,z
1/2-x,1/2+y,1/2-z
1/2-x,1/2-y,-z
1/2+x,1/2-y,1/2+z
loop_
_atom_site_type_symbol
_atom_site_label
_atom_site_fract_x
_atom_site_fract_y
_atom_site_fract_z
Si Si1 0.732250 0.412573 0.531152
Si Si2 0.298677 0.271476 0.332754
Si Si3 0.640221 0.821853 0.572572
Si Si4 0.315458 0.653600 0.341114
Si Si5 0.639477 0.273006 0.563026
Si Si6 0.000000 0.413259 0.250000
Si Si7 0.769490 0.509047 0.124481
O O1 0.592585 0.345331 0.522987
O O2 0.499243 0.460624 0.451583
O O3 0.866358 0.459661 0.602369
O O4 0.953266 0.380784 0.551648
O O5 0.366373 0.247540 0.397202
O O6 0.533132 0.240126 0.360273
O O7 0.000000 0.238514 0.250000
O O8 0.255534 0.357082 0.315173
O O9 0.500358 0.794682 0.494635
O O10 0.952980 0.845676 0.639176
O O11 0.418283 0.711546 0.401774
O O12 0.307987 0.576555 0.363884
O O13 0.000000 0.668518 0.250000
O O14 0.986065 0.461783 0.204322
#
# Coordination Sequence:
#
# PCOD9258023 Si02
#       7
#     8   8   8   8   8   4   8
#     4   9  20  35  60  84 108 144 194 232 268 339
#     4   9  19  32  58  85 109 145 185 235 280 339
#     4  11  20  36  57  86 113 145 192 238 278 332
#     4  11  23  36  54  80 119 155 180 232 291 333
#     4  10  19  36  57  85 111 143 190 234 284 330
#     4  10  18  32  58  80 108 152 186 222 282 338
#     4  10  19  37  56  80 111 152 187 223 280 338
#
# _framework density 18.652481000000002
#
# number of rings (size 3 to 8) (size 9 to 14) (size 15 to 20)
#    0.462    1.538    0.769    5.077    0.000    0.615 
#    0.000    0.000    0.000    1.846    0.000    0.000 
#    0.000    0.000    0.000    0.000    0.000    0.000 
#
# Total GULP energy -144824.615756 kJ/mol
# GULP energy per Si atom -5570.177529 kJ/mol
# Density = 1.861003 g / cm^3
# Si number density = 18.652481 Si / 1000 Ang^3
#
#
#
# Elastic Constant Matrix: (Units=GPa)
#
#
# Indices 1 2 3 4 5 6 
#
# 1 106.6952 28.1997 39.8889 0.0002 -2.6617 0.0003
# 2 28.1997 72.4680 40.6972 0.0003 -15.7139 0.0003
# 3 39.8889 40.6972 90.8932 0.0008 -11.0561 0.0004
# 4 0.0002 0.0003 0.0008 26.0537 0.0007 -2.1551
# 5 -2.6617 -15.7139 -11.0561 0.0007 24.8992 0.0008
# 6 0.0003 0.0003 0.0004 -2.1551 0.0008 12.7082
#
#
#
# Elastic Compliance Matrix: (Units=1/GPa)
#
#
# Indices 1 2 3 4 5 6 
#
# 1 0.011577 -0.002662 -0.004168 0.000000 -0.002293 0.000000
# 2 -0.002662 0.020885 -0.006992 0.000000 0.009791 -0.000001
# 3 -0.004168 -0.006992 0.016248 -0.000001 0.002357 0.000000
# 4 0.000000 0.000000 -0.000001 0.038928 -0.000002 0.006602
# 5 -0.002293 0.009791 0.002357 -0.000002 0.047142 -0.000003
# 6 0.000000 -0.000001 0.000000 0.006602 -0.000003 0.079809
#
#
# Mechanical properties :
#
#
# Convention : Reuss Voigt Hill
#
# Bulk Modulus (GPa) = 47.46735 54.18090 50.82413
# Shear Modulus (GPa) = 20.05980 23.48359 21.77170
#
# Velocity S-wave (km/s) = 3.28296 3.55210 3.42018
# Velocity P-wave (km/s) = 6.31458 6.77745 6.55011
#
# Compressibility (1/GPa) = 0.02106711
#
# Stress axis : x y z
#
# Youngs Moduli (GPa) = 86.37889 47.88206 61.54494
#
# Poissons Ratio (x) = 0.12744 0.25650
# Poissons Ratio (y) = 0.22990 0.43032
# Poissons Ratio (z) = 0.36001 0.33479
#
# Static dielectric constant tensor:
#      x y z
#    x 1.621670 0.000000 -0.018260 
#    y 0.000000 1.665340 0.000000 
#    z -0.018260 0.000000 1.687140 
# 
# From -- ./inp_files/289638.got.cif
#   From: 2010.05.17/outbox.cif.g08.bks.cpg/sg15_145_cif.got.tgz:289638.got - 2010.06.03 18:47:42.
