data_PCOD9258003
_publ_section_title
;
Structure prediction by ZEFSAII (Michael W. Deem and Ramdas Pophale) SiO2 
 PCOD9258003
Probable space group: C 2/C
;
_chemical_formula_sum "Si O2"
_cell_formula_units_Z 56
_cell_length_a 28.431405
_cell_length_b 16.906684
_cell_length_c 9.633820
_cell_angle_alpha 90.000000
_cell_angle_beta 38.756616
_cell_angle_gamma 90.000000
_cell_volume 2898.938480
_symmetry_space_group_name_H-M "C 2/C"
_symmetry_group_IT_number 15
_symmetry_cell_setting 'monoclinic'
loop_
_space_group_symop_operation_xyz
x,y,z
-x,y,1/2-z
-x,-y,-z
x,-y,1/2+z
1/2+x,1/2+y,z
1/2-x,1/2+y,1/2-z
1/2-x,1/2-y,-z
1/2+x,1/2-y,1/2+z
loop_
_atom_site_type_symbol
_atom_site_label
_atom_site_fract_x
_atom_site_fract_y
_atom_site_fract_z
Si Si1 0.800383 0.920382 0.953647
Si Si2 0.482918 0.078477 0.127716
Si Si3 0.578571 0.360032 0.602428
Si Si4 0.190562 0.894696 0.118434
Si Si5 0.559083 0.817631 0.232586
Si Si6 0.271801 0.118663 0.146843
Si Si7 0.810419 0.432318 0.055258
O O1 0.863921 0.897549 0.919182
O O2 0.781864 0.866772 0.862793
O O3 0.821295 0.010011 0.861714
O O4 0.721312 0.918122 0.218428
O O5 0.500000 0.067146 0.250000
O O6 0.394261 0.090906 0.330059
O O7 0.528507 0.148110 0.947720
O O8 0.500000 0.000000 0.000000
O O9 0.500000 0.403503 0.750000
O O10 0.621522 0.354000 0.355785
O O11 0.557425 0.276198 0.718004
O O12 0.259481 0.885307 0.064978
O O13 0.219445 0.869695 0.901640
O O14 0.500000 0.849397 0.250000
O O15 0.647536 0.839761 0.018365
O O16 0.296404 0.026469 0.071554
#
# Coordination Sequence:
#
# PCOD9258003 Si02
#       7
#     8   8   8   8   8   8   8
#     4   9  19  37  61  87 111 149 196 257 298 346
#     4  12  23  34  58  91 125 167 202 238 290 348
#     4  10  23  42  57  80 119 155 194 251 315 366
#     4   9  19  36  61  85 108 150 199 251 304 350
#     4  11  23  38  56  83 126 167 194 242 299 358
#     4  10  18  32  57  86 116 147 199 247 285 359
#     4   9  18  32  55  85 122 149 197 242 282 349
#
# _framework density 19.317416000000001
#
# number of rings (size 3 to 8) (size 9 to 14) (size 15 to 20)
#    0.000    2.000    1.429    3.000    4.000    1.714 
#    0.000    5.000    0.000    0.000    0.000    0.000 
#    0.000    0.000    0.000    0.000    0.000    0.000 
#
# Total GULP energy -155968.459913 kJ/mol
# GULP energy per Si atom -5570.302140 kJ/mol
# Density = 1.927345 g / cm^3
# Si number density = 19.317416 Si / 1000 Ang^3
#
#
#
# Elastic Constant Matrix: (Units=GPa)
#
#
# Indices 1 2 3 4 5 6 
#
# 1 97.8607 1.0774 53.3086 0.0000 3.5691 0.0000
# 2 1.0774 29.7630 25.2358 0.0000 7.1315 0.0000
# 3 53.3086 25.2358 110.6581 0.0000 -3.4475 0.0000
# 4 0.0000 0.0000 0.0000 14.0422 0.0000 -13.7420
# 5 3.5691 7.1315 -3.4475 0.0000 40.9153 0.0000
# 6 0.0000 0.0000 0.0000 -13.7420 0.0000 -8.2609
#
#
#
# Elastic Compliance Matrix: (Units=1/GPa)
#
#
# Indices 1 2 3 4 5 6 
#
# 1 0.015385 0.008280 -0.009411 0.000000 -0.003578 0.000000
# 2 0.008280 0.048957 -0.015483 0.000000 -0.010560 0.000000
# 3 -0.009411 -0.015483 0.017256 0.000000 0.004974 0.000000
# 4 0.000000 0.000000 0.000000 0.027099 0.000000 -0.045079
# 5 -0.003578 -0.010560 0.004974 0.000000 0.027013 0.000000
# 6 0.000000 0.000000 0.000000 -0.045079 0.000000 -0.046064
#
#
# Mechanical properties :
#
#
# Convention : Reuss Voigt Hill
#
# Bulk Modulus (GPa) = 20.67373 44.16950 32.42162
# Shear Modulus (GPa) = 35.97223 19.91666 27.94445
#
# Velocity S-wave (km/s) = 4.31996 3.21444 3.80754
# Velocity P-wave (km/s) = 5.96726 6.05735 6.01247
#
# Compressibility (1/GPa) = 0.04837056
#
# Stress axis : x y z
#
# Youngs Moduli (GPa) = 65.00015 20.42615 57.94967
#
# Poissons Ratio (x) = -0.16913 0.54537
# Poissons Ratio (y) = -0.53821 0.89721
# Poissons Ratio (z) = 0.61173 0.31625
#
# Static dielectric constant tensor:
#      x y z
#    x 1.795500 0.000000 0.028820 
#    y 0.000000 1.686000 0.000000 
#    z 0.028820 0.000000 1.722410 
# 
# From -- ./inp_files/57786.got.cif
#   From: 2010.05.17/outbox.cif.g08.bks.cpg/sg15_29_cif.got.tgz:57786.got - 2010.06.03 18:47:42.
