data_PCOD9258283
_publ_section_title
;
Structure prediction by ZEFSAII (Michael W. Deem and Ramdas Pophale) SiO2 
 PCOD9258283
Probable space group: C 2/C
;
_chemical_formula_sum "Si O2"
_cell_formula_units_Z 64
_cell_length_a 18.322568
_cell_length_b 17.509879
_cell_length_c 25.938922
_cell_angle_alpha 90.000000
_cell_angle_beta 156.854243
_cell_angle_gamma 90.000000
_cell_volume 3271.094148
_symmetry_space_group_name_H-M "C 2/C"
_symmetry_group_IT_number 15
_symmetry_cell_setting 'monoclinic'
loop_
_space_group_symop_operation_xyz
x,y,z
-x,y,1/2-z
-x,-y,-z
x,-y,1/2+z
1/2+x,1/2+y,z
1/2-x,1/2+y,1/2-z
1/2-x,1/2-y,-z
1/2+x,1/2-y,1/2+z
loop_
_atom_site_type_symbol
_atom_site_label
_atom_site_fract_x
_atom_site_fract_y
_atom_site_fract_z
Si Si1 0.246031 0.503352 0.117259
Si Si2 0.861641 0.659059 0.781796
Si Si3 0.393132 0.702995 0.059294
Si Si4 0.968944 0.804168 0.494867
Si Si5 0.550462 0.527557 0.391017
Si Si6 0.028002 0.628930 0.530814
Si Si7 0.932656 0.518623 0.611717
Si Si8 0.153393 0.957042 0.635113
O O1 0.450705 0.497899 0.274533
O O2 0.148414 0.426072 0.073540
O O3 0.174898 0.511744 0.012699
O O4 0.164062 0.581715 0.089589
O O5 0.654344 0.654851 0.627918
O O6 0.887605 0.631000 0.856752
O O7 0.920401 0.746913 0.816763
O O8 0.997615 0.605913 0.836382
O O9 0.418236 0.618064 0.094945
O O10 0.250000 0.750000 0.000000
O O11 0.347746 0.702655 0.968820
O O12 0.017930 0.718190 0.510021
O O13 0.126443 0.865428 0.611683
O O14 0.761387 0.497012 0.538195
O O15 0.410757 0.519660 0.348629
O O16 0.132146 0.476634 0.738238
O O17 0.000000 0.000000 0.500000
#
# Coordination Sequence:
#
# PCOD9258283 Si02
#       8
#     8   8   8   8   8   8   8   8
#     4  10  20  36  59  87 119 154 201 250 300 356
#     4  10  18  33  53  80 122 156 192 232 297 367
#     4  10  20  34  49  86 126 155 190 234 299 381
#     4  10  21  35  57  84 118 161 196 245 304 361
#     4  11  22  38  61  88 123 163 196 249 307 355
#     4   9  19  34  58  86 116 156 198 250 295 354
#     4  11  22  38  60  88 120 158 206 246 295 366
#     4  11  23  39  59  87 122 160 205 245 297 366
#
# _framework density 19.565318000000001
#
# number of rings (size 3 to 8) (size 9 to 14) (size 15 to 20)
#    0.000    1.750    2.500    3.375    0.000    3.000 
#    2.250    0.000    0.000    0.750    3.250    0.000 
#    0.000    0.000    0.000    0.000    0.000    0.000 
#
# Total GULP energy -178207.304307 kJ/mol
# GULP energy per Si atom -5568.978260 kJ/mol
# Density = 1.952079 g / cm^3
# Si number density = 19.565318 Si / 1000 Ang^3
#
#
#
# Elastic Constant Matrix: (Units=GPa)
#
#
# Indices 1 2 3 4 5 6 
#
# 1 25.6491 14.4539 22.4367 0.0085 5.2767 0.0003
# 2 14.4539 92.9109 30.2204 0.0210 11.2987 0.0017
# 3 22.4367 30.2204 111.9106 0.0240 10.2670 0.0059
# 4 0.0085 0.0210 0.0240 24.2625 0.0008 -0.3455
# 5 5.2767 11.2987 10.2670 0.0008 23.1536 -0.0009
# 6 0.0003 0.0017 0.0059 -0.3455 -0.0009 20.2382
#
#
#
# Elastic Compliance Matrix: (Units=1/GPa)
#
#
# Indices 1 2 3 4 5 6 
#
# 1 0.049862 -0.004382 -0.008305 -0.000005 -0.005543 0.000002
# 2 -0.004382 0.012658 -0.002152 -0.000007 -0.004224 -0.000001
# 3 -0.008305 -0.002152 0.011375 -0.000006 -0.002101 -0.000003
# 4 -0.000005 -0.000007 -0.000006 0.041226 0.000006 0.000704
# 5 -0.005543 -0.004224 -0.002101 0.000006 0.047446 0.000003
# 6 0.000002 -0.000001 -0.000003 0.000704 0.000003 0.049424
#
#
# Mechanical properties :
#
#
# Convention : Reuss Voigt Hill
#
# Bulk Modulus (GPa) = 22.61561 40.52140 31.56851
# Shear Modulus (GPa) = 19.50025 24.42150 21.96088
#
# Velocity S-wave (km/s) = 3.16044 3.53683 3.35392
# Velocity P-wave (km/s) = 4.99019 6.11839 5.58286
#
# Compressibility (1/GPa) = 0.04421724
#
# Stress axis : x y z
#
# Youngs Moduli (GPa) = 20.05543 78.99899 87.91445
#
# Poissons Ratio (x) = 0.34614 0.73013
# Poissons Ratio (y) = 0.08787 0.18922
# Poissons Ratio (z) = 0.16656 0.17003
#
# Static dielectric constant tensor:
#      x y z
#    x 1.756180 -0.000010 0.009420 
#    y -0.000010 1.689480 -0.000010 
#    z 0.009420 -0.000010 1.750010 
# 
# From -- ./inp_files/318090.got.cif
#   From: 2010.05.17/outbox.cif.g08.bks.cpg/sg15_160_cif.got.tgz:318090.got - 2010.06.03 18:47:42.
