data_PCOD9258219
_publ_section_title
;
Structure prediction by ZEFSAII (Michael W. Deem and Ramdas Pophale) SiO2 
 PCOD9258219
Probable space group: C 2/C
;
_chemical_formula_sum "Si O2"
_cell_formula_units_Z 48
_cell_length_a 8.572303
_cell_length_b 17.370785
_cell_length_c 14.836867
_cell_angle_alpha 90.000000
_cell_angle_beta 90.478302
_cell_angle_gamma 90.000000
_cell_volume 2209.245755
_symmetry_space_group_name_H-M "C 2/C"
_symmetry_group_IT_number 15
_symmetry_cell_setting 'monoclinic'
loop_
_space_group_symop_operation_xyz
x,y,z
-x,y,1/2-z
-x,-y,-z
x,-y,1/2+z
1/2+x,1/2+y,z
1/2-x,1/2+y,1/2-z
1/2-x,1/2-y,-z
1/2+x,1/2-y,1/2+z
loop_
_atom_site_type_symbol
_atom_site_label
_atom_site_fract_x
_atom_site_fract_y
_atom_site_fract_z
Si Si1 0.509559 0.351924 0.032891
Si Si2 0.180772 0.415212 0.026969
Si Si3 0.954606 0.739705 0.883821
Si Si4 0.134832 0.238334 0.809818
Si Si5 0.226798 0.629377 0.828210
Si Si6 0.970659 0.520328 0.152258
O O1 0.368451 0.412614 0.027388
O O2 0.445291 0.284260 0.097648
O O3 0.667134 0.377110 0.082153
O O4 0.529255 0.309651 0.938735
O O5 0.121369 0.330745 0.058417
O O6 0.111665 0.477511 0.097882
O O7 0.112336 0.431055 0.927118
O O8 0.804711 0.772969 0.829669
O O9 0.094818 0.694701 0.837203
O O10 0.174149 0.158579 0.756095
O O11 0.000000 0.276775 0.750000
O O12 0.142624 0.549140 0.818116
O O13 0.000000 0.558275 0.250000
#
# Coordination Sequence:
#
# PCOD9258219 Si02
#       6
#     8   8   8   8   8   8
#     4  10  19  32  51  77 104 132 168 211 260 311
#     4   9  19  33  52  75 100 134 172 212 259 309
#     4  10  18  33  51  73 106 134 165 207 259 314
#     4   9  17  29  48  74  96 126 172 211 246 295
#     4  10  19  31  52  76  98 133 176 211 252 307
#     4  10  19  34  54  74  99 134 175 219 260 306
#
# _framework density 21.726873999999999
#
# number of rings (size 3 to 8) (size 9 to 14) (size 15 to 20)
#    0.000    2.333    0.000    6.000    0.000    0.667 
#    0.000    6.667    0.000    4.000    0.000    0.000 
#    0.000    0.000    0.000    0.000    0.000    0.000 
#
# Total GULP energy -133792.312520 kJ/mol
# GULP energy per Si atom -5574.679688 kJ/mol
# Density = 2.167742 g / cm^3
# Si number density = 21.726874 Si / 1000 Ang^3
#
#
#
# Elastic Constant Matrix: (Units=GPa)
#
#
# Indices 1 2 3 4 5 6 
#
# 1 97.6181 18.9261 26.1772 0.0000 24.8652 0.0000
# 2 18.9261 45.9295 13.9071 0.0000 2.7756 0.0000
# 3 26.1772 13.9071 106.0500 0.0000 25.2203 0.0000
# 4 0.0000 0.0000 0.0000 7.5326 0.0000 3.2941
# 5 24.8652 2.7756 25.2203 0.0000 37.8723 0.0000
# 6 0.0000 0.0000 0.0000 3.2941 0.0000 -10.5602
#
#
#
# Elastic Compliance Matrix: (Units=1/GPa)
#
#
# Indices 1 2 3 4 5 6 
#
# 1 0.013406 -0.004805 -0.000796 0.000000 -0.007920 0.000000
# 2 -0.004805 0.024399 -0.002779 0.000000 0.003217 0.000000
# 3 -0.000796 -0.002779 0.011665 0.000000 -0.007042 0.000000
# 4 0.000000 0.000000 0.000000 0.116821 0.000000 0.036441
# 5 -0.007920 0.003217 -0.007042 0.000000 0.036058 0.000000
# 6 0.000000 0.000000 0.000000 0.036441 0.000000 -0.083328
#
#
# Mechanical properties :
#
#
# Convention : Reuss Voigt Hill
#
# Bulk Modulus (GPa) = 30.56932 40.84647 35.70790
# Shear Modulus (GPa) = 34.08695 19.67475 26.88085
#
# Velocity S-wave (km/s) = 3.96521 3.01250 3.52122
# Velocity P-wave (km/s) = 5.92151 5.56246 5.74479
#
# Compressibility (1/GPa) = 0.03271253
#
# Stress axis : x y z
#
# Youngs Moduli (GPa) = 74.59194 40.98467 85.72663
#
# Poissons Ratio (x) = 0.19692 0.06820
# Poissons Ratio (y) = 0.35840 0.23820
# Poissons Ratio (z) = 0.05935 0.11388
#
# Static dielectric constant tensor:
#      x y z
#    x 1.816960 0.000000 0.006860 
#    y 0.000000 1.759020 0.000000 
#    z 0.006860 0.000000 1.736790 
# 
# From -- ./inp_files/134835.got.cif
#   From: 2010.05.17/outbox.cif.g08.bks.cpg/sg15_68_cif.got.tgz:134835.got - 2010.06.03 18:47:42.
