data_PCOD9258751
_publ_section_title
;
Structure prediction by ZEFSAII (Michael W. Deem and Ramdas Pophale) SiO2 
 PCOD9258751
Probable space group: C 2/C
;
_chemical_formula_sum "Si O2"
_cell_formula_units_Z 44
_cell_length_a 17.826310
_cell_length_b 15.377823
_cell_length_c 7.842342
_cell_angle_alpha 90.000000
_cell_angle_beta 120.235519
_cell_angle_gamma 90.000000
_cell_volume 1857.364474
_symmetry_space_group_name_H-M "C 2/C"
_symmetry_group_IT_number 15
_symmetry_cell_setting 'monoclinic'
loop_
_space_group_symop_operation_xyz
x,y,z
-x,y,1/2-z
-x,-y,-z
x,-y,1/2+z
1/2+x,1/2+y,z
1/2-x,1/2+y,1/2-z
1/2-x,1/2-y,-z
1/2+x,1/2-y,1/2+z
loop_
_atom_site_type_symbol
_atom_site_label
_atom_site_fract_x
_atom_site_fract_y
_atom_site_fract_z
Si Si1 0.500000 0.358591 0.250000
Si Si2 0.603330 0.170592 0.859460
Si Si3 0.640871 0.526612 0.109936
Si Si4 0.861929 0.720541 0.963570
Si Si5 0.789652 0.366145 0.706679
Si Si6 0.397971 0.629225 0.099490
O O1 0.562178 0.432820 0.411189
O O2 0.552887 0.281631 0.420204
O O3 0.500000 0.159428 0.750000
O O4 0.632792 0.162477 0.698855
O O5 0.626790 0.271079 0.933308
O O6 0.653329 0.118818 0.060631
O O7 0.729475 0.550097 0.115488
O O8 0.642923 0.576081 0.291694
O O9 0.623943 0.423140 0.097783
O O10 0.780533 0.787087 0.854945
O O11 0.847821 0.662766 0.114604
O O12 0.500000 0.628148 0.250000
#
# Coordination Sequence:
#
# PCOD9258751 Si02
#       6
#     4   8   8   8   8   8
#     4  10  18  34  54  80 122 150 200 226 290 358
#     4  11  22  38  61  90 119 157 200 248 298 355
#     4  11  23  37  55  87 124 163 197 238 294 366
#     4  10  20  34  56  81 116 157 190 248 289 347
#     4  10  22  37  56  84 123 156 203 244 294 351
#     4  11  23  36  56  86 121 165 194 233 294 361
#
# _framework density 23.68948
#
# number of rings (size 3 to 8) (size 9 to 14) (size 15 to 20)
#    0.000    1.455    4.545    2.182    2.545    2.909 
#    0.000    0.000    0.000    0.000    0.000    1.273 
#   10.909    0.000    0.000    0.000    0.000    0.000 
#
# Total GULP energy -122684.016123 kJ/mol
# GULP energy per Si atom -5576.546187 kJ/mol
# Density = 2.363556 g / cm^3
# Si number density = 23.689480 Si / 1000 Ang^3
#
#
#
# Elastic Constant Matrix: (Units=GPa)
#
#
# Indices 1 2 3 4 5 6 
#
# 1 77.9652 -9.9772 16.2093 0.0000 -7.8087 0.0000
# 2 -9.9772 38.0597 22.7339 0.0000 2.3670 0.0000
# 3 16.2093 22.7339 150.4288 0.0000 0.5814 0.0000
# 4 0.0000 0.0000 0.0000 20.6229 0.0000 3.6147
# 5 -7.8087 2.3670 0.5814 0.0000 32.6029 0.0000
# 6 0.0000 0.0000 0.0000 3.6147 0.0000 -3.0751
#
#
#
# Elastic Compliance Matrix: (Units=1/GPa)
#
#
# Indices 1 2 3 4 5 6 
#
# 1 0.014240 0.004907 -0.002288 0.000000 0.003095 0.000000
# 2 0.004907 0.030706 -0.005166 0.000000 -0.000962 0.000000
# 3 -0.002288 -0.005166 0.007676 0.000000 -0.000310 0.000000
# 4 0.000000 0.000000 0.000000 0.040206 0.000000 0.047261
# 5 0.003095 -0.000962 -0.000310 0.000000 0.031489 0.000000
# 6 0.000000 0.000000 0.000000 0.047261 0.000000 -0.269637
#
#
# Mechanical properties :
#
#
# Convention : Reuss Voigt Hill
#
# Bulk Modulus (GPa) = 21.03972 36.04287 28.54129
# Shear Modulus (GPa) = -40.19785 25.86267 -7.16759
#
# Velocity S-wave (km/s) = -4.12377 3.30773 -1.74132
# Velocity P-wave (km/s) = 3.71123 5.46222 2.83395
#
# Compressibility (1/GPa) = 0.04752915
#
# Stress axis : x y z
#
# Youngs Moduli (GPa) = 70.22543 32.56673 130.27527
#
# Poissons Ratio (x) = -0.15981 0.29806
# Poissons Ratio (y) = -0.34460 0.67295
# Poissons Ratio (z) = 0.16067 0.16823
#
# Static dielectric constant tensor:
#      x y z
#    x 2.050710 0.000000 -0.066550 
#    y 0.000000 1.930660 0.000000 
#    z -0.066550 0.000000 1.865880 
# 
# From -- ./inp_files/49293.got.cif
#   From: 2010.05.17/outbox.cif.g08.bks.cpg/sg15_25_cif.got.tgz:49293.got - 2010.06.03 18:47:42.
