data_PCOD9258809
_publ_section_title
;
Structure prediction by ZEFSAII (Michael W. Deem and Ramdas Pophale) SiO2 
 PCOD9258809
Probable space group: C 2/C
;
_chemical_formula_sum "Si O2"
_cell_formula_units_Z 56
_cell_length_a 15.087805
_cell_length_b 8.218052
_cell_length_c 24.989271
_cell_angle_alpha 90.000000
_cell_angle_beta 70.039683
_cell_angle_gamma 90.000000
_cell_volume 2912.350977
_symmetry_space_group_name_H-M "C 2/C"
_symmetry_group_IT_number 15
_symmetry_cell_setting 'monoclinic'
loop_
_space_group_symop_operation_xyz
x,y,z
-x,y,1/2-z
-x,-y,-z
x,-y,1/2+z
1/2+x,1/2+y,z
1/2-x,1/2+y,1/2-z
1/2-x,1/2-y,-z
1/2+x,1/2-y,1/2+z
loop_
_atom_site_type_symbol
_atom_site_label
_atom_site_fract_x
_atom_site_fract_y
_atom_site_fract_z
Si Si1 0.111948 0.930724 0.388343
Si Si2 0.867174 0.642778 0.192765
Si Si3 0.670763 0.204676 0.473812
Si Si4 0.466845 0.892487 0.313038
Si Si5 0.202122 0.570908 0.884531
Si Si6 0.497974 0.743502 0.083701
Si Si7 0.794481 0.369567 0.823325
O O1 0.195237 0.037641 0.345353
O O2 0.027294 0.053838 0.418535
O O3 0.090569 0.790944 0.349821
O O4 0.152072 0.842661 0.432873
O O5 0.796608 0.547188 0.167556
O O6 0.817858 0.688525 0.258435
O O7 0.950906 0.521185 0.190729
O O8 0.750000 0.250000 0.500000
O O9 0.702382 0.042745 0.436126
O O10 0.573378 0.189542 0.526249
O O11 0.500000 0.814006 0.250000
O O12 0.372661 0.999298 0.324980
O O13 0.463375 0.773627 0.364260
O O14 0.280342 0.711012 0.863270
O O15 0.099908 0.658793 0.903324
#
# Coordination Sequence:
#
# PCOD9258809 Si02
#       7
#     8   8   8   8   8   8   8
#     4  10  21  35  55  80 104 139 180 217 264 320
#     4   9  18  34  55  79 109 138 171 214 263 318
#     4  11  22  37  54  78 106 135 178 230 267 305
#     4   9  19  35  55  79 109 141 174 214 264 316
#     4   9  20  35  55  78 103 142 179 209 262 322
#     4  10  20  38  56  75 106 145 177 214 264 320
#     4  10  18  34  55  81 109 138 173 216 261 313
#
# _framework density 19.228451
#
# number of rings (size 3 to 8) (size 9 to 14) (size 15 to 20)
#    0.000    2.286    0.000    2.571    0.000    2.286 
#    0.000   11.429    0.000    0.000    0.000    0.000 
#    0.000    0.000    0.000    0.000    0.000    0.000 
#
# Total GULP energy -156206.048625 kJ/mol
# GULP energy per Si atom -5578.787451 kJ/mol
# Density = 1.918469 g / cm^3
# Si number density = 19.228451 Si / 1000 Ang^3
#
#
#
# Elastic Constant Matrix: (Units=GPa)
#
#
# Indices 1 2 3 4 5 6 
#
# 1 36.1777 -3.1875 22.0126 0.0000 4.8701 0.0000
# 2 -3.1875 57.8793 20.8721 0.0000 7.6591 0.0000
# 3 22.0126 20.8721 95.5121 0.0000 3.2029 0.0000
# 4 0.0000 0.0000 0.0000 20.0081 0.0000 -3.9978
# 5 4.8701 7.6591 3.2029 0.0000 27.6016 0.0000
# 6 0.0000 0.0000 0.0000 -3.9978 0.0000 14.7942
#
#
#
# Elastic Compliance Matrix: (Units=1/GPa)
#
#
# Indices 1 2 3 4 5 6 
#
# 1 0.034605 0.006070 -0.009076 0.000000 -0.006737 0.000000
# 2 0.006070 0.020461 -0.005666 0.000000 -0.006091 0.000000
# 3 -0.009076 -0.005666 0.013747 0.000000 0.001578 0.000000
# 4 0.000000 0.000000 0.000000 0.052832 0.000000 0.014277
# 5 -0.006737 -0.006091 0.001578 0.000000 0.038926 0.000000
# 6 0.000000 0.000000 0.000000 0.014277 0.000000 0.071452
#
#
# Mechanical properties :
#
#
# Convention : Reuss Voigt Hill
#
# Bulk Modulus (GPa) = 19.42897 29.88484 24.65690
# Shear Modulus (GPa) = 18.76007 22.47224 20.61616
#
# Velocity S-wave (km/s) = 3.12691 3.42233 3.27795
# Velocity P-wave (km/s) = 4.81280 5.58500 5.21321
#
# Compressibility (1/GPa) = 0.05146954
#
# Stress axis : x y z
#
# Youngs Moduli (GPa) = 28.89715 48.87365 72.74363
#
# Poissons Ratio (x) = -0.29668 0.66023
# Poissons Ratio (y) = -0.17541 0.41217
# Poissons Ratio (z) = 0.26227 0.27692
#
# Static dielectric constant tensor:
#      x y z
#    x 1.655770 0.000000 -0.004580 
#    y 0.000000 1.678790 0.000000 
#    z -0.004580 0.000000 1.677210 
# 
# From -- ./inp_files/272623.got.cif
#   From: 2010.05.17/outbox.cif.g08.bks.cpg/sg15_137_cif.got.tgz:272623.got - 2010.06.03 18:47:42.
