data_PCOD9258794
_publ_section_title
;
Structure prediction by ZEFSAII (Michael W. Deem and Ramdas Pophale) SiO2 
 PCOD9258794
Probable space group: C 2/C
;
_chemical_formula_sum "Si O2"
_cell_formula_units_Z 64
_cell_length_a 21.838215
_cell_length_b 11.531532
_cell_length_c 21.470238
_cell_angle_alpha 90.000000
_cell_angle_beta 142.040602
_cell_angle_gamma 90.000000
_cell_volume 3325.743748
_symmetry_space_group_name_H-M "C 2/C"
_symmetry_group_IT_number 15
_symmetry_cell_setting 'monoclinic'
loop_
_space_group_symop_operation_xyz
x,y,z
-x,y,1/2-z
-x,-y,-z
x,-y,1/2+z
1/2+x,1/2+y,z
1/2-x,1/2+y,1/2-z
1/2-x,1/2-y,-z
1/2+x,1/2-y,1/2+z
loop_
_atom_site_type_symbol
_atom_site_label
_atom_site_fract_x
_atom_site_fract_y
_atom_site_fract_z
Si Si1 0.689849 0.271683 0.514143
Si Si2 0.783347 0.327056 0.220765
Si Si3 0.058849 0.458388 0.485988
Si Si4 0.449628 0.288058 0.484815
Si Si5 0.368349 0.409526 0.817855
Si Si6 0.754008 0.587134 0.834717
Si Si7 0.218682 0.424282 0.816657
Si Si8 0.485636 0.813339 0.875640
O O1 0.750000 0.250000 0.500000
O O2 0.725573 0.173866 0.592717
O O3 0.719711 0.390203 0.572904
O O4 0.571238 0.258115 0.409413
O O5 0.837895 0.205321 0.254728
O O6 0.791230 0.351753 0.301332
O O7 0.820211 0.443570 0.216503
O O8 0.666156 0.318809 0.111159
O O9 0.037473 0.324185 0.460252
O O10 0.173906 0.477877 0.594716
O O11 0.028245 0.554998 0.412217
O O12 0.000000 0.500000 0.500000
O O13 0.522740 0.387828 0.566964
O O14 0.480361 0.242596 0.440615
O O15 0.351430 0.528146 0.765895
O O16 0.290224 0.415093 0.813311
O O17 0.126927 0.333929 0.736745
#
# Coordination Sequence:
#
# PCOD9258794 Si02
#       8
#     8   8   8   8   8   8   8   8
#     4  11  23  40  57  77 110 150 198 234 269 328
#     4  11  19  32  53  83 119 142 177 233 286 349
#     4   9  15  27  47  74 106 144 179 214 270 338
#     4  11  17  28  50  83 116 146 173 220 299 346
#     4  11  18  31  52  83 113 144 174 228 292 347
#     4  10  19  32  50  75 111 144 179 229 279 330
#     4  11  21  35  52  81 115 146 186 230 281 334
#     4  10  18  34  55  77 108 150 189 229 272 332
#
# _framework density 19.243815999999999
#
# number of rings (size 3 to 8) (size 9 to 14) (size 15 to 20)
#    0.000    1.500    5.000    4.500    0.000    2.500 
#    2.250    0.000    0.000    0.750    0.000    0.000 
#    0.000    0.000    0.000    0.000    0.000    0.000 
#
# Total GULP energy -178455.566640 kJ/mol
# GULP energy per Si atom -5576.736458 kJ/mol
# Density = 1.920002 g / cm^3
# Si number density = 19.243816 Si / 1000 Ang^3
#
#
#
# Elastic Constant Matrix: (Units=GPa)
#
#
# Indices 1 2 3 4 5 6 
#
# 1 37.8943 -5.5227 10.8815 0.0000 -0.1401 0.0000
# 2 -5.5227 59.5246 2.4013 0.0000 -9.2465 0.0000
# 3 10.8815 2.4013 68.0417 0.0000 20.1856 0.0000
# 4 0.0000 0.0000 0.0000 37.7063 0.0000 6.6649
# 5 -0.1401 -9.2465 20.1856 0.0000 18.2160 0.0000
# 6 0.0000 0.0000 0.0000 6.6649 0.0000 11.5513
#
#
#
# Elastic Compliance Matrix: (Units=1/GPa)
#
#
# Indices 1 2 3 4 5 6 
#
# 1 0.029613 0.004991 -0.008538 0.000000 0.012222 0.000000
# 2 0.004991 0.020323 -0.006834 0.000000 0.017927 0.000000
# 3 -0.008538 -0.006834 0.025850 0.000000 -0.032180 0.000000
# 4 0.000000 0.000000 0.000000 0.029533 0.000000 -0.017040
# 5 0.012222 0.017927 -0.032180 0.000000 0.099750 0.000000
# 6 0.000000 0.000000 0.000000 -0.017040 0.000000 0.096402
#
#
# Mechanical properties :
#
#
# Convention : Reuss Voigt Hill
#
# Bulk Modulus (GPa) = 18.17371 20.10898 19.14135
# Shear Modulus (GPa) = 14.68105 24.00808 19.34457
#
# Velocity S-wave (km/s) = 2.76506 3.53593 3.17398
# Velocity P-wave (km/s) = 4.43379 5.20987 4.83741
#
# Compressibility (1/GPa) = 0.05502454
#
# Stress axis : x y z
#
# Youngs Moduli (GPa) = 33.76852 49.20458 38.68459
#
# Poissons Ratio (x) = -0.24556 0.33029
# Poissons Ratio (y) = -0.16852 0.26436
# Poissons Ratio (z) = 0.28831 0.33625
#
# Static dielectric constant tensor:
#      x y z
#    x 1.641460 0.000000 0.049550 
#    y 0.000000 1.763880 0.000000 
#    z 0.049550 0.000000 1.742320 
# 
# From -- ./inp_files/252596.got.cif
#   From: 2010.05.17/outbox.cif.g08.bks.cpg/sg15_127_cif.got.tgz:252596.got - 2010.06.03 18:47:42.
