data_PCOD9258918
_publ_section_title
;
Structure prediction by ZEFSAII (Michael W. Deem and Ramdas Pophale) SiO2 
 PCOD9258918
Probable space group: C 2/C
;
_chemical_formula_sum "Si O2"
_cell_formula_units_Z 56
_cell_length_a 8.264790
_cell_length_b 15.858061
_cell_length_c 16.167797
_cell_angle_alpha 90.000000
_cell_angle_beta 97.592881
_cell_angle_gamma 90.000000
_cell_volume 2100.429231
_symmetry_space_group_name_H-M "C 2/C"
_symmetry_group_IT_number 15
_symmetry_cell_setting 'monoclinic'
loop_
_space_group_symop_operation_xyz
x,y,z
-x,y,1/2-z
-x,-y,-z
x,-y,1/2+z
1/2+x,1/2+y,z
1/2-x,1/2+y,1/2-z
1/2-x,1/2-y,-z
1/2+x,1/2-y,1/2+z
loop_
_atom_site_type_symbol
_atom_site_label
_atom_site_fract_x
_atom_site_fract_y
_atom_site_fract_z
Si Si1 0.981438 0.403578 0.476705
Si Si2 0.463555 0.383075 0.504350
Si Si3 0.187714 0.626339 0.377567
Si Si4 0.767232 0.266841 0.263489
Si Si5 0.107293 0.735810 0.892240
Si Si6 0.846428 0.034281 0.608032
Si Si7 0.697058 0.038294 0.764543
O O1 0.951771 0.362814 0.563219
O O2 0.111918 0.359746 0.426647
O O3 0.808393 0.405151 0.417893
O O4 0.000000 0.500000 0.500000
O O5 0.642926 0.375471 0.559402
O O6 0.395953 0.293770 0.527515
O O7 0.364809 0.456004 0.546001
O O8 0.498491 0.410230 0.412157
O O9 0.165557 0.702880 0.312502
O O10 0.199939 0.535548 0.333461
O O11 0.937358 0.262405 0.327736
O O12 0.736184 0.365353 0.240913
O O13 0.774355 0.231968 0.170509
O O14 0.804044 0.999115 0.695395
O O15 0.500000 0.051437 0.750000
#
# Coordination Sequence:
#
# PCOD9258918 Si02
#       7
#     8   8   8   8   8   8   8
#     4  11  21  36  58  89 118 156 197 244 294 356
#     4   9  21  37  58  86 111 154 195 241 295 342
#     4  10  23  35  61  89 121 150 205 246 293 353
#     4  10  19  34  56  87 112 156 196 240 289 348
#     4  10  18  34  57  81 115 147 199 238 279 349
#     4  10  20  36  58  82 117 149 192 239 291 352
#     4  12  21  37  61  86 119 158 194 246 302 353
#
# _framework density 26.661216
#
# number of rings (size 3 to 8) (size 9 to 14) (size 15 to 20)
#    0.000    1.714    2.857    2.571    2.000    3.429 
#    0.000    0.714    3.143    1.714    0.000    0.000 
#    0.000    0.000    0.000    0.000    0.000    0.000 
#
# Total GULP energy -156141.348907 kJ/mol
# GULP energy per Si atom -5576.476747 kJ/mol
# Density = 2.660053 g / cm^3
# Si number density = 26.661216 Si / 1000 Ang^3
#
#
#
# Elastic Constant Matrix: (Units=GPa)
#
#
# Indices 1 2 3 4 5 6 
#
# 1 58.7400 22.0139 30.8053 0.0000 3.5403 0.0000
# 2 22.0139 78.8827 29.0931 0.0000 6.6949 0.0000
# 3 30.8053 29.0931 124.9892 0.0000 -24.6566 0.0000
# 4 0.0000 0.0000 0.0000 48.5299 0.0000 -3.0410
# 5 3.5403 6.6949 -24.6566 0.0000 30.0292 0.0000
# 6 0.0000 0.0000 0.0000 -3.0410 0.0000 29.3240
#
#
#
# Elastic Compliance Matrix: (Units=1/GPa)
#
#
# Indices 1 2 3 4 5 6 
#
# 1 0.021773 -0.003331 -0.005908 0.000000 -0.006675 0.000000
# 2 -0.003331 0.015669 -0.004102 0.000000 -0.006469 0.000000
# 3 -0.005908 -0.004102 0.012803 0.000000 0.012124 0.000000
# 4 0.000000 0.000000 0.000000 0.020741 0.000000 0.002151
# 5 -0.006675 -0.006469 0.012124 0.000000 0.045485 0.000000
# 6 0.000000 0.000000 0.000000 0.002151 0.000000 0.034325
#
#
# Mechanical properties :
#
#
# Convention : Reuss Voigt Hill
#
# Bulk Modulus (GPa) = 42.43925 47.38183 44.91054
# Shear Modulus (GPa) = 26.97876 33.62328 30.30102
#
# Velocity S-wave (km/s) = 3.18450 3.55509 3.37489
# Velocity P-wave (km/s) = 5.42899 5.88744 5.66286
#
# Compressibility (1/GPa) = 0.02356309
#
# Stress axis : x y z
#
# Youngs Moduli (GPa) = 45.92845 63.82191 78.10528
#
# Poissons Ratio (x) = 0.21258 0.46143
# Poissons Ratio (y) = 0.15298 0.32041
# Poissons Ratio (z) = 0.27133 0.26182
#
# Static dielectric constant tensor:
#      x y z
#    x 2.656560 0.000000 0.325490 
#    y 0.000000 2.097090 0.000000 
#    z 0.325490 0.000000 2.317840 
# 
# From -- ./inp_files/197748.got.cif
#   From: 2010.05.17/outbox.cif.g08.bks.cpg/sg15_99_cif.got.tgz:197748.got - 2010.06.03 18:47:42.
