data_PCOD9258440
_publ_section_title
;
Structure prediction by ZEFSAII (Michael W. Deem and Ramdas Pophale) SiO2 
 PCOD9258440
Probable space group: C 2/C
;
_chemical_formula_sum "Si O2"
_cell_formula_units_Z 52
_cell_length_a 17.641032
_cell_length_b 5.472241
_cell_length_c 23.129983
_cell_angle_alpha 90.000000
_cell_angle_beta 70.187463
_cell_angle_gamma 90.000000
_cell_volume 2100.704108
_symmetry_space_group_name_H-M "C 2/C"
_symmetry_group_IT_number 15
_symmetry_cell_setting 'monoclinic'
loop_
_space_group_symop_operation_xyz
x,y,z
-x,y,1/2-z
-x,-y,-z
x,-y,1/2+z
1/2+x,1/2+y,z
1/2-x,1/2+y,1/2-z
1/2-x,1/2-y,-z
1/2+x,1/2-y,1/2+z
loop_
_atom_site_type_symbol
_atom_site_label
_atom_site_fract_x
_atom_site_fract_y
_atom_site_fract_z
Si Si1 0.569317 0.262691 0.836282
Si Si2 0.338063 0.746835 0.509960
Si Si3 0.346655 0.246613 0.461006
Si Si4 0.383445 0.764828 0.630135
Si Si5 0.783843 0.230165 0.291003
Si Si6 0.343139 0.225505 0.326065
Si Si7 0.000000 0.513952 0.750000
O O1 0.564700 0.524795 0.868158
O O2 0.653517 0.266837 0.777935
O O3 0.573547 0.026370 0.876391
O O4 0.503608 0.190815 0.804684
O O5 0.250000 0.750000 0.500000
O O6 0.379152 0.498908 0.477849
O O7 0.341152 0.742123 0.578488
O O8 0.378860 0.998867 0.480455
O O9 0.250000 0.250000 0.500000
O O10 0.358079 0.235435 0.390153
O O11 0.310935 0.775174 0.696165
O O12 0.794510 0.479259 0.324346
O O13 0.803818 0.981638 0.319716
O O14 0.425343 0.167553 0.271761
#
# Coordination Sequence:
#
# PCOD9258440 Si02
#       7
#     8   8   8   8   8   8   4
#     4  11  24  39  61  87 127 171 215 266 312 389
#     4  10  20  34  56  87 123 155 197 250 325 398
#     4  10  18  33  56  89 119 155 202 259 320 369
#     4  12  22  38  62  94 129 162 205 273 340 384
#     4  11  21  37  59  94 127 160 203 265 343 391
#     4  11  22  38  65  91 128 167 214 268 311 394
#     4  10  26  46  64  92 128 184 234 256 316 390
#
# _framework density 24.753606999999999
#
# number of rings (size 3 to 8) (size 9 to 14) (size 15 to 20)
#    0.000    1.231    0.000    9.231    0.000    5.538 
#    0.000    0.000    0.000    5.538    0.000    0.000 
#    0.000    0.000    0.000    0.000    0.000    0.000 
#
# Total GULP energy -145494.746878 kJ/mol
# GULP energy per Si atom -5595.951803 kJ/mol
# Density = 2.469727 g / cm^3
# Si number density = 24.753607 Si / 1000 Ang^3
#
#
#
# Elastic Constant Matrix: (Units=GPa)
#
#
# Indices 1 2 3 4 5 6 
#
# 1 59.7312 28.1055 8.9432 -0.0020 11.3464 -0.0016
# 2 28.1055 282.5077 63.2998 -0.0068 20.9503 -0.0009
# 3 8.9432 63.2998 106.6786 -0.0024 32.6196 -0.0016
# 4 -0.0020 -0.0068 -0.0024 25.2971 -0.0013 9.6706
# 5 11.3464 20.9503 32.6196 -0.0013 33.1987 -0.0021
# 6 -0.0016 -0.0009 -0.0016 9.6706 -0.0021 14.2421
#
#
#
# Elastic Compliance Matrix: (Units=1/GPa)
#
#
# Indices 1 2 3 4 5 6 
#
# 1 0.018596 -0.001687 0.001515 0.000000 -0.006780 0.000001
# 2 -0.001687 0.004237 -0.002475 0.000001 0.000334 -0.000001
# 3 0.001515 -0.002475 0.014861 0.000000 -0.013558 -0.000001
# 4 0.000000 0.000001 0.000000 0.053388 -0.000001 -0.036252
# 5 -0.006780 0.000334 -0.013558 -0.000001 0.045549 0.000005
# 6 0.000001 -0.000001 -0.000001 -0.036252 0.000005 0.094830
#
#
# Mechanical properties :
#
#
# Convention : Reuss Voigt Hill
#
# Bulk Modulus (GPa) = 30.86319 72.17941 51.52130
# Shear Modulus (GPa) = 20.19740 37.78551 28.99146
#
# Velocity S-wave (km/s) = 2.85956 3.91124 3.42599
# Velocity P-wave (km/s) = 4.83715 7.04411 6.04225
#
# Compressibility (1/GPa) = 0.03240106
#
# Stress axis : x y z
#
# Youngs Moduli (GPa) = 53.77392 235.99785 67.28902
#
# Poissons Ratio (x) = 0.39807 -0.10194
# Poissons Ratio (y) = 0.09070 0.16655
# Poissons Ratio (z) = -0.08147 0.58413
#
# Static dielectric constant tensor:
#      x y z
#    x 2.015630 0.000000 0.011540 
#    y 0.000000 1.975870 0.000000 
#    z 0.011540 0.000000 1.962850 
# 
# From -- ./inp_files/251037.got.cif
#   From: 2010.05.17/outbox.cif.g08.bks.cpg/sg15_126_cif.got.tgz:251037.got - 2010.06.03 18:47:42.
