data_PCOD9258082
_publ_section_title
;
Structure prediction by ZEFSAII (Michael W. Deem and Ramdas Pophale) SiO2 
 PCOD9258082
Probable space group: C 2/C
;
_chemical_formula_sum "Si O2"
_cell_formula_units_Z 48
_cell_length_a 28.953223
_cell_length_b 13.729797
_cell_length_c 8.540579
_cell_angle_alpha 90.000000
_cell_angle_beta 134.747407
_cell_angle_gamma 90.000000
_cell_volume 2411.235081
_symmetry_space_group_name_H-M "C 2/C"
_symmetry_group_IT_number 15
_symmetry_cell_setting 'monoclinic'
loop_
_space_group_symop_operation_xyz
x,y,z
-x,y,1/2-z
-x,-y,-z
x,-y,1/2+z
1/2+x,1/2+y,z
1/2-x,1/2+y,1/2-z
1/2-x,1/2-y,-z
1/2+x,1/2-y,1/2+z
loop_
_atom_site_type_symbol
_atom_site_label
_atom_site_fract_x
_atom_site_fract_y
_atom_site_fract_z
Si Si1 0.907626 0.761375 0.772460
Si Si2 0.834456 0.085712 0.299357
Si Si3 0.000000 0.865310 0.750000
Si Si4 0.086162 0.114185 0.726593
Si Si5 0.000000 0.752142 0.250000
Si Si6 0.782946 0.122901 0.616052
Si Si7 0.276160 0.789122 0.816888
O O1 0.881720 0.862085 0.789815
O O2 0.951690 0.796095 0.732919
O O3 0.844985 0.703222 0.564736
O O4 0.948364 0.706285 0.005800
O O5 0.876309 0.052629 0.551756
O O6 0.783142 0.169252 0.224346
O O7 0.795124 0.991363 0.154414
O O8 0.959933 0.924697 0.522309
O O9 0.042849 0.184700 0.730069
O O10 0.147180 0.162782 0.781396
O O11 0.730082 0.151752 0.360940
O O12 0.768295 0.176900 0.743141
#
# Coordination Sequence:
#
# PCOD9258082 Si02
#       7
#     8   8   4   8   4   8   8
#     4  10  19  36  57  87 115 156 189 234 277 347
#     4  10  22  37  58  84 121 149 191 241 285 336
#     4  10  18  32  59  78 119 158 198 216 273 344
#     4   9  18  34  52  78 118 154 185 224 272 336
#     4   8  18  34  55  82 117 148 198 214 277 340
#     4  10  21  37  56  86 119 150 187 243 286 336
#     4  10  21  36  60  82 115 154 193 232 296 334
#
# _framework density 19.90681
#
# number of rings (size 3 to 8) (size 9 to 14) (size 15 to 20)
#    0.000    2.333    1.667    0.500    4.667    0.000 
#    0.000   14.167    0.000    0.000    0.000    3.500 
#    0.000    0.000    0.000    0.000    0.000    0.000 
#
# Total GULP energy -133708.326609 kJ/mol
# GULP energy per Si atom -5571.180275 kJ/mol
# Density = 1.986150 g / cm^3
# Si number density = 19.906810 Si / 1000 Ang^3
#
#
#
# Elastic Constant Matrix: (Units=GPa)
#
#
# Indices 1 2 3 4 5 6 
#
# 1 124.9987 21.6855 20.4680 0.0000 2.3242 0.0000
# 2 21.6855 25.2268 23.1029 0.0000 4.8854 0.0000
# 3 20.4680 23.1029 192.7871 0.0000 -6.8113 0.0000
# 4 0.0000 0.0000 0.0000 9.6664 0.0000 -15.4161
# 5 2.3242 4.8854 -6.8113 0.0000 20.4575 0.0000
# 6 0.0000 0.0000 0.0000 -15.4161 0.0000 7.3030
#
#
#
# Elastic Compliance Matrix: (Units=1/GPa)
#
#
# Indices 1 2 3 4 5 6 
#
# 1 0.009418 -0.008299 0.000027 0.000000 0.000921 0.000000
# 2 -0.008299 0.055275 -0.006249 0.000000 -0.014338 0.000000
# 3 0.000027 -0.006249 0.006057 0.000000 0.003506 0.000000
# 4 0.000000 0.000000 0.000000 -0.043714 0.000000 -0.092278
# 5 0.000921 -0.014338 0.003506 0.000000 0.053368 0.000000
# 6 0.000000 0.000000 0.000000 -0.092278 0.000000 -0.057862
#
#
# Mechanical properties :
#
#
# Convention : Reuss Voigt Hill
#
# Bulk Modulus (GPa) = 23.97700 52.61392 38.29546
# Shear Modulus (GPa) = 76.35031 26.00246 51.17638
#
# Velocity S-wave (km/s) = 6.19977 3.61807 5.07580
# Velocity P-wave (km/s) = 7.95740 6.62883 7.32331
#
# Compressibility (1/GPa) = 0.04170664
#
# Stress axis : x y z
#
# Youngs Moduli (GPa) = 106.17581 18.09152 165.09966
#
# Poissons Ratio (x) = 0.15015 -0.00449
# Poissons Ratio (y) = 0.88120 1.03176
# Poissons Ratio (z) = -0.00289 0.11306
#
# Static dielectric constant tensor:
#      x y z
#    x 1.739250 0.000000 -0.025610 
#    y 0.000000 1.673370 0.000000 
#    z -0.025610 0.000000 1.803510 
# 
# From -- ./inp_files/70030.got.cif
#   From: 2010.05.17/outbox.cif.g08.bks.cpg/sg15_36_cif.got.tgz:70030.got - 2010.06.03 18:47:42.
