data_PCOD9258762
_publ_section_title
;
Structure prediction by ZEFSAII (Michael W. Deem and Ramdas Pophale) SiO2 
 PCOD9258762
Probable space group: C 2/C
;
_chemical_formula_sum "Si O2"
_cell_formula_units_Z 44
_cell_length_a 14.994729
_cell_length_b 13.616876
_cell_length_c 9.955763
_cell_angle_alpha 90.000000
_cell_angle_beta 61.147343
_cell_angle_gamma 90.000000
_cell_volume 1780.439052
_symmetry_space_group_name_H-M "C 2/C"
_symmetry_group_IT_number 15
_symmetry_cell_setting 'monoclinic'
loop_
_space_group_symop_operation_xyz
x,y,z
-x,y,1/2-z
-x,-y,-z
x,-y,1/2+z
1/2+x,1/2+y,z
1/2-x,1/2+y,1/2-z
1/2-x,1/2-y,-z
1/2+x,1/2-y,1/2+z
loop_
_atom_site_type_symbol
_atom_site_label
_atom_site_fract_x
_atom_site_fract_y
_atom_site_fract_z
Si Si1 0.898784 0.063422 0.042399
Si Si2 0.826546 0.547862 0.010364
Si Si3 0.374104 0.755363 0.594821
Si Si4 0.785373 0.586301 0.759223
Si Si5 0.106988 0.142047 0.189946
Si Si6 0.000000 0.829037 0.250000
O O1 0.911408 0.107016 0.885637
O O2 0.890960 0.154719 0.151868
O O3 0.805822 0.993072 0.149132
O O4 0.000000 0.000000 0.000000
O O5 0.868731 0.628325 0.083597
O O6 0.831798 0.443615 0.081226
O O7 0.708343 0.582678 0.085445
O O8 0.859858 0.565027 0.831923
O O9 0.269540 0.692570 0.695000
O O10 0.400103 0.722305 0.422052
O O11 0.447641 0.726070 0.663111
O O12 0.000000 0.086845 0.250000
#
# Coordination Sequence:
#
# PCOD9258762 Si02
#       6
#     8   8   8   8   8   4
#     4  11  20  29  53  88 121 150 175 226 298 368
#     4  10  22  37  58  88 115 154 193 235 292 341
#     4  11  22  37  58  86 120 154 193 235 285 351
#     4  10  19  36  57  83 120 147 191 231 291 350
#     4  10  18  34  54  83 117 149 184 220 287 356
#     4  12  22  32  54  86 124 148 190 238 290 336
#
# _framework density 24.713006
#
# number of rings (size 3 to 8) (size 9 to 14) (size 15 to 20)
#    0.000    1.455    3.636    4.364    6.364    0.000 
#    0.000   10.000    0.000    1.091    2.364    0.000 
#    0.000    0.000    0.000    0.000    0.000    0.000 
#
# Total GULP energy -122574.315814 kJ/mol
# GULP energy per Si atom -5571.559810 kJ/mol
# Density = 2.465676 g / cm^3
# Si number density = 24.713006 Si / 1000 Ang^3
#
#
#
# Elastic Constant Matrix: (Units=GPa)
#
#
# Indices 1 2 3 4 5 6 
#
# 1 55.7726 23.8121 24.8465 0.0000 22.4158 0.0000
# 2 23.8121 55.8898 10.4617 0.0000 9.9629 0.0000
# 3 24.8465 10.4617 70.7886 0.0000 33.2220 0.0000
# 4 0.0000 0.0000 0.0000 19.9007 0.0000 14.4254
# 5 22.4158 9.9629 33.2220 0.0000 27.5366 0.0000
# 6 0.0000 0.0000 0.0000 14.4254 0.0000 20.0392
#
#
#
# Elastic Compliance Matrix: (Units=1/GPa)
#
#
# Indices 1 2 3 4 5 6 
#
# 1 0.030570 -0.009129 0.001724 0.000000 -0.023662 0.000000
# 2 -0.009129 0.021881 0.000457 0.000000 -0.001037 0.000000
# 3 0.001724 0.000457 0.032712 0.000000 -0.041035 0.000000
# 4 0.000000 0.000000 0.000000 0.105081 0.000000 -0.075643
# 5 -0.023662 -0.001037 -0.041035 0.000000 0.105459 0.000000
# 6 0.000000 0.000000 0.000000 -0.075643 0.000000 0.104354
#
#
# Mechanical properties :
#
#
# Convention : Reuss Voigt Hill
#
# Bulk Modulus (GPa) = 14.03174 33.41019 23.72096
# Shear Modulus (GPa) = 11.42314 21.71736 16.57025
#
# Velocity S-wave (km/s) = 2.15229 2.96764 2.59222
# Velocity P-wave (km/s) = 3.44480 5.02903 4.31033
#
# Compressibility (1/GPa) = 0.07126701
#
# Stress axis : x y z
#
# Youngs Moduli (GPa) = 32.71229 45.70158 30.56988
#
# Poissons Ratio (x) = 0.41721 -0.05271
# Poissons Ratio (y) = 0.29863 -0.01397
# Poissons Ratio (z) = -0.05641 -0.02088
#
# Static dielectric constant tensor:
#      x y z
#    x 2.035000 0.000000 0.029720 
#    y 0.000000 2.025740 0.000000 
#    z 0.029720 0.000000 2.067960 
# 
# From -- ./inp_files/104784.got.cif
#   From: 2010.05.17/outbox.cif.g08.bks.cpg/sg15_53_cif.got.tgz:104784.got - 2010.06.03 18:47:42.
