data_PCOD9258876
_publ_section_title
;
Structure prediction by ZEFSAII (Michael W. Deem and Ramdas Pophale) SiO2 
 PCOD9258876
Probable space group: C 2/C
;
_chemical_formula_sum "Si O2"
_cell_formula_units_Z 44
_cell_length_a 11.842473
_cell_length_b 22.253176
_cell_length_c 7.570450
_cell_angle_alpha 90.000000
_cell_angle_beta 88.003528
_cell_angle_gamma 90.000000
_cell_volume 1993.849590
_symmetry_space_group_name_H-M "C 2/C"
_symmetry_group_IT_number 15
_symmetry_cell_setting 'monoclinic'
loop_
_space_group_symop_operation_xyz
x,y,z
-x,y,1/2-z
-x,-y,-z
x,-y,1/2+z
1/2+x,1/2+y,z
1/2-x,1/2+y,1/2-z
1/2-x,1/2-y,-z
1/2+x,1/2-y,1/2+z
loop_
_atom_site_type_symbol
_atom_site_label
_atom_site_fract_x
_atom_site_fract_y
_atom_site_fract_z
Si Si1 0.095373 0.085668 0.110292
Si Si2 0.883894 0.227904 0.337847
Si Si3 0.000000 0.123397 0.750000
Si Si4 0.357069 0.066027 0.066846
Si Si5 0.000000 0.333408 0.750000
Si Si6 0.652737 0.733845 0.739329
Si Si7 0.000000 0.536267 0.750000
O O1 0.117456 0.155135 0.166842
O O2 0.222346 0.059441 0.091884
O O3 0.000000 0.060893 0.250000
O O4 0.041001 0.087437 0.917926
O O5 0.784483 0.255876 0.227142
O O6 0.870387 0.241796 0.546809
O O7 0.000000 0.248869 0.250000
O O8 0.898548 0.169510 0.808290
O O9 0.409612 0.122784 0.164616
O O10 0.418904 0.007216 0.140424
O O11 0.410385 0.073005 0.869739
O O12 0.916966 0.286275 0.851687
#
# Coordination Sequence:
#
# PCOD9258876 Si02
#       7
#     8   8   4   8   4   8   4
#     4  10  20  39  60  88 123 163 197 246 288 357
#     4   9  17  32  52  77 120 166 199 239 284 325
#     4   9  20  37  56  84 128 168 204 233 288 329
#     4  10  20  42  64  88 118 142 194 244 311 366
#     4  10  18  34  56  86 114 156 192 240 290 350
#     4   9  17  33  50  79 124 158 199 244 268 333
#     4   9  22  43  68  88 110 146 180 259 316 361
#
# _framework density 22.067862000000002
#
# number of rings (size 3 to 8) (size 9 to 14) (size 15 to 20)
#    0.000    2.545    1.818    0.000    0.000    0.000 
#   14.727    4.545    2.000    0.000    0.000    0.000 
#    0.000    0.000    0.000    0.000    0.000    0.000 
#
# Total GULP energy -122674.261487 kJ/mol
# GULP energy per Si atom -5576.102795 kJ/mol
# Density = 2.201763 g / cm^3
# Si number density = 22.067862 Si / 1000 Ang^3
#
#
#
# Elastic Constant Matrix: (Units=GPa)
#
#
# Indices 1 2 3 4 5 6 
#
# 1 236.8494 21.1300 62.5988 0.0000 -5.6141 0.0000
# 2 21.1300 21.3452 16.1535 0.0000 -1.2270 0.0000
# 3 62.5988 16.1535 68.9339 0.0000 -4.8742 0.0000
# 4 0.0000 0.0000 0.0000 -21.4055 0.0000 -36.2965
# 5 -5.6141 -1.2270 -4.8742 0.0000 39.2897 0.0000
# 6 0.0000 0.0000 0.0000 -36.2965 0.0000 -58.9879
#
#
#
# Elastic Compliance Matrix: (Units=1/GPa)
#
#
# Indices 1 2 3 4 5 6 
#
# 1 0.005631 -0.002071 -0.004616 0.000000 0.000167 0.000000
# 2 -0.002071 0.057710 -0.011638 0.000000 0.000063 0.000000
# 3 -0.004616 -0.011638 0.021543 0.000000 0.001649 0.000000
# 4 0.000000 0.000000 0.000000 1.076976 0.000000 -0.662686
# 5 0.000167 0.000063 0.001649 0.000000 0.025682 0.000000
# 6 0.000000 0.000000 0.000000 -0.662686 0.000000 0.390812
#
#
# Mechanical properties :
#
#
# Convention : Reuss Voigt Hill
#
# Bulk Modulus (GPa) = 20.73294 58.54365 39.63830
# Shear Modulus (GPa) = 3.06545 6.92902 4.99723
#
# Velocity S-wave (km/s) = 1.17988 1.77389 1.50645
# Velocity P-wave (km/s) = 3.35733 5.54816 4.58551
#
# Compressibility (1/GPa) = 0.04823243
#
# Stress axis : x y z
#
# Youngs Moduli (GPa) = 177.59194 17.32799 46.41979
#
# Poissons Ratio (x) = 0.03589 0.21429
# Poissons Ratio (y) = 0.36780 0.54025
# Poissons Ratio (z) = 0.81981 0.20167
#
# Static dielectric constant tensor:
#      x y z
#    x 1.840750 0.000000 0.003230 
#    y 0.000000 1.804730 0.000000 
#    z 0.003230 0.000000 1.901180 
# 
# From -- ./inp_files/31439.got.cif
#   From: 2010.05.17/outbox.cif.g08.bks.cpg/sg15_16_cif.got.tgz:31439.got - 2010.06.03 18:47:42.
