data_PCOD9258126
_publ_section_title
;
Structure prediction by ZEFSAII (Michael W. Deem and Ramdas Pophale) SiO2 
 PCOD9258126
Probable space group: C 2/C
;
_chemical_formula_sum "Si O2"
_cell_formula_units_Z 60
_cell_length_a 12.020832
_cell_length_b 16.657948
_cell_length_c 15.721195
_cell_angle_alpha 90.000000
_cell_angle_beta 105.217014
_cell_angle_gamma 90.000000
_cell_volume 3037.674682
_symmetry_space_group_name_H-M "C 2/C"
_symmetry_group_IT_number 15
_symmetry_cell_setting 'monoclinic'
loop_
_space_group_symop_operation_xyz
x,y,z
-x,y,1/2-z
-x,-y,-z
x,-y,1/2+z
1/2+x,1/2+y,z
1/2-x,1/2+y,1/2-z
1/2-x,1/2-y,-z
1/2+x,1/2-y,1/2+z
loop_
_atom_site_type_symbol
_atom_site_label
_atom_site_fract_x
_atom_site_fract_y
_atom_site_fract_z
Si Si1 0.939307 0.402801 0.389334
Si Si2 0.281570 0.321634 0.401065
Si Si3 0.882698 0.246659 0.273707
Si Si4 0.000000 0.520061 0.250000
Si Si5 0.235553 0.023498 0.361047
Si Si6 0.876287 0.336703 0.962299
Si Si7 0.634479 0.511343 0.527265
Si Si8 0.242611 0.087702 0.191037
O O1 0.923116 0.314714 0.347203
O O2 0.001065 0.460567 0.332255
O O3 0.820166 0.447770 0.381107
O O4 0.012646 0.387330 0.488649
O O5 0.199117 0.293669 0.308909
O O6 0.198603 0.325863 0.466973
O O7 0.380503 0.253715 0.429226
O O8 0.333767 0.409460 0.412195
O O9 0.809109 0.175626 0.301098
O O10 0.000000 0.216612 0.250000
O O11 0.881165 0.571064 0.224480
O O12 0.305742 0.107253 0.384579
O O13 0.165570 0.020777 0.434128
O O14 0.187433 0.032357 0.256072
O O15 0.500000 0.500000 0.500000
O O16 0.700953 0.441261 0.590263
#
# Coordination Sequence:
#
# PCOD9258126 Si02
#       8
#     8   8   8   4   8   8   8   8
#     4  11  20  36  68  91 126 167 227 280 331 396
#     4  10  20  37  56  91 127 162 216 270 336 381
#     4  12  23  39  66 101 131 175 229 287 331 402
#     4  10  20  44  62  96 130 178 218 286 338 404
#     4  10  22  41  64  97 127 175 225 269 345 403
#     4  10  18  32  60  92 120 151 207 287 319 383
#     4  11  26  43  65  95 140 180 224 279 344 420
#     4  11  25  41  68  98 137 177 228 280 345 410
#
# _framework density 19.751950999999998
#
# number of rings (size 3 to 8) (size 9 to 14) (size 15 to 20)
#    0.000    1.333    3.333    3.600    3.733    1.067 
#    0.000    2.000    0.000    0.000    0.000    0.000 
#    0.000    0.000    0.000    0.000    0.000    0.000 
#
# Total GULP energy -167306.579157 kJ/mol
# GULP energy per Si atom -5576.885972 kJ/mol
# Density = 1.970699 g / cm^3
# Si number density = 19.751951 Si / 1000 Ang^3
#
#
#
# Elastic Constant Matrix: (Units=GPa)
#
#
# Indices 1 2 3 4 5 6 
#
# 1 82.3878 48.6635 16.7235 0.0000 -2.5541 0.0000
# 2 48.6635 85.3240 -4.5138 0.0000 -7.1764 0.0000
# 3 16.7235 -4.5138 49.0203 0.0000 -7.4883 0.0000
# 4 0.0000 0.0000 0.0000 19.8238 0.0000 -3.2182
# 5 -2.5541 -7.1764 -7.4883 0.0000 17.9861 0.0000
# 6 0.0000 0.0000 0.0000 -3.2182 0.0000 35.1478
#
#
#
# Elastic Compliance Matrix: (Units=1/GPa)
#
#
# Indices 1 2 3 4 5 6 
#
# 1 0.021903 -0.013536 -0.009684 0.000000 -0.006323 0.000000
# 2 -0.013536 0.020675 0.007997 0.000000 0.009657 0.000000
# 3 -0.009684 0.007997 0.026396 0.000000 0.012805 0.000000
# 4 0.000000 0.000000 0.000000 0.051205 0.000000 0.004688
# 5 -0.006323 0.009657 0.012805 0.000000 0.063885 0.000000
# 6 0.000000 0.000000 0.000000 0.004688 0.000000 0.028881
#
#
# Mechanical properties :
#
#
# Convention : Reuss Voigt Hill
#
# Bulk Modulus (GPa) = 25.95597 37.60872 31.78234
# Shear Modulus (GPa) = 19.51335 24.98215 22.24775
#
# Velocity S-wave (km/s) = 3.14653 3.56025 3.35977
# Velocity P-wave (km/s) = 5.13521 5.99853 5.58358
#
# Compressibility (1/GPa) = 0.03852678
#
# Stress axis : x y z
#
# Youngs Moduli (GPa) = 45.65624 48.36659 37.88445
#
# Poissons Ratio (x) = 0.65470 0.36689
# Poissons Ratio (y) = 0.61801 -0.30296
# Poissons Ratio (z) = 0.44216 -0.38678
#
# Static dielectric constant tensor:
#      x y z
#    x 1.702830 0.000000 0.008030 
#    y 0.000000 1.701910 0.000000 
#    z 0.008030 0.000000 1.752510 
# 
# From -- ./inp_files/146123.got.cif
#   From: 2010.05.17/outbox.cif.g08.bks.cpg/sg15_74_cif.got.tgz:146123.got - 2010.06.03 18:47:42.
