data_PCOD9258374
_publ_section_title
;
Structure prediction by ZEFSAII (Michael W. Deem and Ramdas Pophale) SiO2 
 PCOD9258374
Probable space group: C 2/C
;
_chemical_formula_sum "Si O2"
_cell_formula_units_Z 48
_cell_length_a 8.692513
_cell_length_b 24.227892
_cell_length_c 15.553592
_cell_angle_alpha 90.000000
_cell_angle_beta 46.539851
_cell_angle_gamma 90.000000
_cell_volume 2377.608458
_symmetry_space_group_name_H-M "C 2/C"
_symmetry_group_IT_number 15
_symmetry_cell_setting 'monoclinic'
loop_
_space_group_symop_operation_xyz
x,y,z
-x,y,1/2-z
-x,-y,-z
x,-y,1/2+z
1/2+x,1/2+y,z
1/2-x,1/2+y,1/2-z
1/2-x,1/2-y,-z
1/2+x,1/2-y,1/2+z
loop_
_atom_site_type_symbol
_atom_site_label
_atom_site_fract_x
_atom_site_fract_y
_atom_site_fract_z
Si Si1 0.301004 0.481919 0.458680
Si Si2 0.387490 0.575592 0.560678
Si Si3 0.461948 0.271121 0.662848
Si Si4 0.232557 0.628956 0.196750
Si Si5 0.359176 0.075138 0.093892
Si Si6 0.357739 0.160075 0.937431
O O1 0.301867 0.522287 0.541803
O O2 0.513886 0.445775 0.387953
O O3 0.274622 0.523684 0.390048
O O4 0.090063 0.445394 0.535303
O O5 0.590680 0.601018 0.431609
O O6 0.212542 0.623116 0.617202
O O7 0.500000 0.278064 0.750000
O O8 0.266815 0.305930 0.700781
O O9 0.462564 0.205843 0.644769
O O10 0.655985 0.302423 0.541376
O O11 0.255211 0.602334 0.281808
O O12 0.000000 0.618503 0.250000
O O13 0.390341 0.118033 0.003668
#
# Coordination Sequence:
#
# PCOD9258374 Si02
#       6
#     8   8   8   8   8   8
#     4   9  18  31  54  79 107 141 168 216 266 327
#     4   9  18  33  54  80 112 137 177 218 266 326
#     4  10  19  35  56  78 103 139 185 227 270 324
#     4  11  20  33  55  85 102 137 187 231 261 316
#     4  10  18  33  55  81 109 139 178 219 269 322
#     4   9  19  33  56  80 105 141 180 225 276 317
#
# _framework density 20.188355000000001
#
# number of rings (size 3 to 8) (size 9 to 14) (size 15 to 20)
#    0.000    2.333    3.333    0.000    0.000    0.000 
#    0.000    2.500   36.667    0.000    0.000    0.000 
#    0.000    0.000    0.000    0.000    0.000    0.000 
#
# Total GULP energy -133796.015181 kJ/mol
# GULP energy per Si atom -5574.833966 kJ/mol
# Density = 2.014241 g / cm^3
# Si number density = 20.188355 Si / 1000 Ang^3
#
#
#
# Elastic Constant Matrix: (Units=GPa)
#
#
# Indices 1 2 3 4 5 6 
#
# 1 106.0193 47.8297 15.4205 0.0000 0.9107 0.0000
# 2 47.8297 124.6338 17.9777 0.0000 -0.5630 0.0000
# 3 15.4205 17.9777 25.5087 0.0000 -2.6751 0.0000
# 4 0.0000 0.0000 0.0000 232.9845 0.0000 -184.6978
# 5 0.9107 -0.5630 -2.6751 0.0000 16.2144 0.0000
# 6 0.0000 0.0000 0.0000 -184.6978 0.0000 163.0384
#
#
#
# Elastic Compliance Matrix: (Units=1/GPa)
#
#
# Indices 1 2 3 4 5 6 
#
# 1 0.011874 -0.003901 -0.004592 0.000000 -0.001560 0.000000
# 2 -0.003901 0.010222 -0.004870 0.000000 -0.000229 0.000000
# 3 -0.004592 -0.004870 0.046219 0.000000 0.007714 0.000000
# 4 0.000000 0.000000 0.000000 0.042105 0.000000 0.047699
# 5 -0.001560 -0.000229 0.007714 0.000000 0.063026 0.000000
# 6 0.000000 0.000000 0.000000 0.047699 0.000000 0.060169
#
#
# Mechanical properties :
#
#
# Convention : Reuss Voigt Hill
#
# Bulk Modulus (GPa) = 24.04489 46.51306 35.27897
# Shear Modulus (GPa) = 18.23458 94.10972 56.17215
#
# Velocity S-wave (km/s) = 3.00863 6.83499 5.28057
# Velocity P-wave (km/s) = 4.89951 9.24007 7.39541
#
# Compressibility (1/GPa) = 0.04158888
#
# Stress axis : x y z
#
# Youngs Moduli (GPa) = 84.22054 97.82731 21.63601
#
# Poissons Ratio (x) = 0.38166 0.09935
# Poissons Ratio (y) = 0.32857 0.10536
# Poissons Ratio (z) = 0.38673 0.47640
#
# Static dielectric constant tensor:
#      x y z
#    x 1.719250 0.000000 -0.008370 
#    y 0.000000 1.767590 0.000000 
#    z -0.008370 0.000000 1.735620 
# 
# From -- ./inp_files/80255.got.cif
#   From: 2010.05.17/outbox.cif.g08.bks.cpg/sg15_41_cif.got.tgz:80255.got - 2010.06.03 18:47:42.
