data_PCOD9258722
_publ_section_title
;
Structure prediction by ZEFSAII (Michael W. Deem and Ramdas Pophale) SiO2 
 PCOD9258722
Probable space group: C 2/C
;
_chemical_formula_sum "Si O2"
_cell_formula_units_Z 64
_cell_length_a 13.181802
_cell_length_b 19.625572
_cell_length_c 11.381088
_cell_angle_alpha 90.000000
_cell_angle_beta 63.161352
_cell_angle_gamma 90.000000
_cell_volume 2627.137291
_symmetry_space_group_name_H-M "C 2/C"
_symmetry_group_IT_number 15
_symmetry_cell_setting 'monoclinic'
loop_
_space_group_symop_operation_xyz
x,y,z
-x,y,1/2-z
-x,-y,-z
x,-y,1/2+z
1/2+x,1/2+y,z
1/2-x,1/2+y,1/2-z
1/2-x,1/2-y,-z
1/2+x,1/2-y,1/2+z
loop_
_atom_site_type_symbol
_atom_site_label
_atom_site_fract_x
_atom_site_fract_y
_atom_site_fract_z
Si Si1 0.568983 0.153152 0.596055
Si Si2 0.784468 0.807274 0.102360
Si Si3 0.689541 0.966969 0.890513
Si Si4 0.851650 0.380764 0.119663
Si Si5 0.133471 0.049399 0.375896
Si Si6 0.394773 0.433455 0.938886
Si Si7 0.882093 0.732577 0.270559
Si Si8 0.312693 0.661778 0.992067
O O1 0.500000 0.131521 0.750000
O O2 0.667052 0.205925 0.586122
O O3 0.625021 0.088962 0.501072
O O4 0.461618 0.168102 0.569311
O O5 0.728992 0.856937 0.231866
O O6 0.857690 0.855663 0.978984
O O7 0.857803 0.755925 0.147350
O O8 0.741750 0.938571 0.742184
O O9 0.627789 0.037670 0.892869
O O10 0.807035 0.974523 0.902299
O O11 0.786949 0.368987 0.033915
O O12 0.114775 0.102909 0.488988
O O13 0.028308 0.063316 0.346794
O O14 0.122697 0.973534 0.428867
O O15 0.758146 0.701723 0.371393
O O16 0.885580 0.793761 0.364506
O O17 0.000000 0.694609 0.250000
#
# Coordination Sequence:
#
# PCOD9258722 Si02
#       8
#     8   8   8   8   8   8   8   8
#     4   9  20  34  55  77 114 158 199 235 288 358
#     4   9  18  36  58  81 114 152 205 240 287 366
#     4  11  20  34  52  84 122 155 194 240 287 366
#     4  10  18  34  53  84 115 153 194 238 297 347
#     4  11  21  34  55  86 122 158 190 239 309 354
#     4  10  20  34  55  84 122 159 190 237 300 371
#     4  10  21  39  62  85 113 158 205 258 305 347
#     4  10  22  37  58  87 123 147 202 261 292 356
#
# _framework density 24.361118999999999
#
# number of rings (size 3 to 8) (size 9 to 14) (size 15 to 20)
#    0.000    2.000    2.500    1.500    0.000    1.000 
#    0.000    0.625    0.000   17.250    0.000    0.000 
#    0.000    0.000    0.000    0.000    0.000    0.000 
#
# Total GULP energy -178246.279098 kJ/mol
# GULP energy per Si atom -5570.196222 kJ/mol
# Density = 2.430567 g / cm^3
# Si number density = 24.361119 Si / 1000 Ang^3
#
#
#
# Elastic Constant Matrix: (Units=GPa)
#
#
# Indices 1 2 3 4 5 6 
#
# 1 113.1605 1.9063 5.0997 0.0000 7.2089 0.0000
# 2 1.9063 36.5243 -2.2388 0.0000 -9.4160 0.0000
# 3 5.0997 -2.2388 28.8009 0.0000 -13.5544 0.0000
# 4 0.0000 0.0000 0.0000 9.2258 0.0000 5.6178
# 5 7.2089 -9.4160 -13.5544 0.0000 49.9389 0.0000
# 6 0.0000 0.0000 0.0000 5.6178 0.0000 19.9693
#
#
#
# Elastic Compliance Matrix: (Units=1/GPa)
#
#
# Indices 1 2 3 4 5 6 
#
# 1 0.009132 -0.001245 -0.002803 0.000000 -0.002314 0.000000
# 2 -0.001245 0.029726 0.006023 0.000000 0.007419 0.000000
# 3 -0.002803 0.006023 0.041742 0.000000 0.012870 0.000000
# 4 0.000000 0.000000 0.000000 0.130798 0.000000 -0.036796
# 5 -0.002314 0.007419 0.012870 0.000000 0.025250 0.000000
# 6 0.000000 0.000000 0.000000 -0.036796 0.000000 0.060428
#
#
# Mechanical properties :
#
#
# Convention : Reuss Voigt Hill
#
# Bulk Modulus (GPa) = 11.82722 20.89112 16.35917
# Shear Modulus (GPa) = 15.56131 27.40802 21.48466
#
# Velocity S-wave (km/s) = 2.53014 3.35785 2.97294
# Velocity P-wave (km/s) = 3.66074 4.86084 4.30283
#
# Compressibility (1/GPa) = 0.08455074
#
# Stress axis : x y z
#
# Youngs Moduli (GPa) = 109.50905 33.64075 23.95648
#
# Poissons Ratio (x) = 0.04188 0.06714
# Poissons Ratio (y) = 0.13632 -0.14428
# Poissons Ratio (z) = 0.30690 -0.20261
#
# Static dielectric constant tensor:
#      x y z
#    x 2.011550 0.000000 -0.010560 
#    y 0.000000 2.000900 0.000000 
#    z -0.010560 0.000000 2.041350 
# 
# From -- ./inp_files/91267.got.cif
#   From: 2010.05.17/outbox.cif.g08.bks.cpg/sg15_46_cif.got.tgz:91267.got - 2010.06.03 18:47:42.
