data_PCOD9258083
_publ_section_title
;
Structure prediction by ZEFSAII (Michael W. Deem and Ramdas Pophale) SiO2 
 PCOD9258083
Probable space group: C 2/C
;
_chemical_formula_sum "Si O2"
_cell_formula_units_Z 56
_cell_length_a 28.335468
_cell_length_b 10.036404
_cell_length_c 14.680730
_cell_angle_alpha 90.000000
_cell_angle_beta 150.726178
_cell_angle_gamma 90.000000
_cell_volume 2041.506602
_symmetry_space_group_name_H-M "C 2/C"
_symmetry_group_IT_number 15
_symmetry_cell_setting 'monoclinic'
loop_
_space_group_symop_operation_xyz
x,y,z
-x,y,1/2-z
-x,-y,-z
x,-y,1/2+z
1/2+x,1/2+y,z
1/2-x,1/2+y,1/2-z
1/2-x,1/2-y,-z
1/2+x,1/2-y,1/2+z
loop_
_atom_site_type_symbol
_atom_site_label
_atom_site_fract_x
_atom_site_fract_y
_atom_site_fract_z
Si Si1 0.085587 0.430735 0.320981
Si Si2 0.312284 0.655844 0.499183
Si Si3 0.389984 0.284088 0.369130
Si Si4 0.697769 0.468056 0.843204
Si Si5 0.189103 0.264421 0.201456
Si Si6 0.394777 0.663494 0.071675
Si Si7 0.482373 0.834570 0.870831
O O1 0.194065 0.490449 0.515022
O O2 0.101128 0.273212 0.342879
O O3 0.054962 0.516002 0.183109
O O4 0.000000 0.460854 0.250000
O O5 0.207439 0.723207 0.338924
O O6 0.315665 0.526789 0.575202
O O7 0.308870 0.661511 0.382083
O O8 0.406598 0.744527 0.684087
O O9 0.376165 0.441715 0.338715
O O10 0.402517 0.245651 0.493437
O O11 0.477635 0.239108 0.457738
O O12 0.683129 0.317822 0.785573
O O13 0.280634 0.364530 0.364325
O O14 0.090437 0.339426 0.019369
O O15 0.500000 0.586919 0.250000
#
# Coordination Sequence:
#
# PCOD9258083 Si02
#       7
#     8   8   8   8   8   8   8
#     4  10  18  32  59  80 115 147 202 248 292 337
#     4  10  18  35  58  86 125 159 202 242 309 369
#     4  10  19  35  60  81 118 166 207 234 319 372
#     4  10  19  36  57  89 123 163 199 251 304 367
#     4  10  22  34  60  93 122 152 208 261 300 346
#     4   9  21  40  55  79 120 165 191 249 308 371
#     4  11  19  34  59  95 115 152 208 264 291 357
#
# _framework density 27.430721999999999
#
# number of rings (size 3 to 8) (size 9 to 14) (size 15 to 20)
#    0.000    2.000    2.857    2.143    2.000    2.286 
#    0.000    6.429    3.143    0.000    0.000    0.000 
#    0.000    0.000    0.000    0.000    0.000    0.000 
#
# Total GULP energy -155875.302497 kJ/mol
# GULP energy per Si atom -5566.975089 kJ/mol
# Density = 2.736829 g / cm^3
# Si number density = 27.430722 Si / 1000 Ang^3
#
#
#
# Elastic Constant Matrix: (Units=GPa)
#
#
# Indices 1 2 3 4 5 6 
#
# 1 82.9114 -1.0237 52.4535 0.0000 -9.9217 0.0000
# 2 -1.0237 38.5361 24.5440 0.0000 0.2032 0.0000
# 3 52.4535 24.5440 187.4743 0.0000 15.2519 0.0000
# 4 0.0000 0.0000 0.0000 29.5781 0.0000 -9.5050
# 5 -9.9217 0.2032 15.2519 0.0000 59.3304 0.0000
# 6 0.0000 0.0000 0.0000 -9.5050 0.0000 30.4718
#
#
#
# Elastic Compliance Matrix: (Units=1/GPa)
#
#
# Indices 1 2 3 4 5 6 
#
# 1 0.015923 0.003760 -0.005273 0.000000 0.004005 0.000000
# 2 0.003760 0.029243 -0.005029 0.000000 0.001821 0.000000
# 3 -0.005273 -0.005029 0.007699 0.000000 -0.002844 0.000000
# 4 0.000000 0.000000 0.000000 0.037575 0.000000 0.011721
# 5 0.004005 0.001821 -0.002844 0.000000 0.018249 0.000000
# 6 0.000000 0.000000 0.000000 0.011721 0.000000 0.036473
#
#
# Mechanical properties :
#
#
# Convention : Reuss Voigt Hill
#
# Bulk Modulus (GPa) = 25.13712 51.20772 38.17242
# Shear Modulus (GPa) = 29.15336 39.40591 34.27964
#
# Velocity S-wave (km/s) = 3.26360 3.79431 3.53892
# Velocity P-wave (km/s) = 4.83582 6.15664 5.53577
#
# Compressibility (1/GPa) = 0.03978180
#
# Stress axis : x y z
#
# Youngs Moduli (GPa) = 62.80258 34.19638 129.88370
#
# Poissons Ratio (x) = -0.12859 0.68491
# Poissons Ratio (y) = -0.23617 0.65316
# Poissons Ratio (z) = 0.33117 0.17197
#
# Static dielectric constant tensor:
#      x y z
#    x 2.272110 0.000000 -0.018510 
#    y 0.000000 2.206560 0.000000 
#    z -0.018510 0.000000 2.163810 
# 
# From -- ./inp_files/178451.got.cif
#   From: 2010.05.17/outbox.cif.g08.bks.cpg/sg15_90_cif.got.tgz:178451.got - 2010.06.03 18:47:42.
