data_PCOD9258325
_publ_section_title
;
Structure prediction by ZEFSAII (Michael W. Deem and Ramdas Pophale) SiO2 
 PCOD9258325
Probable space group: C 2/C
;
_chemical_formula_sum "Si O2"
_cell_formula_units_Z 64
_cell_length_a 19.903614
_cell_length_b 18.123744
_cell_length_c 11.530274
_cell_angle_alpha 90.000000
_cell_angle_beta 128.526948
_cell_angle_gamma 90.000000
_cell_volume 3253.878270
_symmetry_space_group_name_H-M "C 2/C"
_symmetry_group_IT_number 15
_symmetry_cell_setting 'monoclinic'
loop_
_space_group_symop_operation_xyz
x,y,z
-x,y,1/2-z
-x,-y,-z
x,-y,1/2+z
1/2+x,1/2+y,z
1/2-x,1/2+y,1/2-z
1/2-x,1/2-y,-z
1/2+x,1/2-y,1/2+z
loop_
_atom_site_type_symbol
_atom_site_label
_atom_site_fract_x
_atom_site_fract_y
_atom_site_fract_z
Si Si1 0.883706 0.523228 0.964412
Si Si2 0.726395 0.428016 0.461585
Si Si3 0.259745 0.064945 0.625616
Si Si4 0.293060 0.816063 0.975423
Si Si5 0.026060 0.379505 0.518297
Si Si6 0.293369 0.817314 0.719801
Si Si7 0.470876 0.259830 0.596557
Si Si8 0.852295 0.155630 0.816217
O O1 0.813352 0.546725 0.984694
O O2 0.831706 0.529122 0.786227
O O3 0.932339 0.443946 0.018731
O O4 0.959711 0.582202 0.033217
O O5 0.704137 0.498840 0.513774
O O6 0.745911 0.360332 0.568065
O O7 0.654249 0.402903 0.293513
O O8 0.296466 0.112934 0.559705
O O9 0.202551 0.120091 0.639404
O O10 0.253899 0.833076 0.805972
O O11 0.250000 0.750000 0.000000
O O12 0.384745 0.783619 0.040231
O O13 0.108623 0.347237 0.673245
O O14 0.978930 0.310530 0.403088
O O15 0.302352 0.729286 0.720227
O O16 0.500000 0.292996 0.750000
O O17 0.442262 0.317414 0.467510
#
# Coordination Sequence:
#
# PCOD9258325 Si02
#       8
#     8   8   8   8   8   8   8   8
#     4  10  20  32  48  79 120 156 186 223 271 336
#     4  11  21  32  54  80 115 152 185 232 285 343
#     4  11  19  33  51  80 109 144 195 229 282 321
#     4  10  18  33  54  80 111 139 187 247 266 326
#     4   9  18  34  47  77 117 155 190 220 266 334
#     4  10  19  35  51  77 109 155 188 227 282 329
#     4  10  19  34  58  80 103 146 190 233 288 332
#     4   9  21  36  53  76 111 140 183 241 278 335
#
# _framework density 19.668835999999999
#
# number of rings (size 3 to 8) (size 9 to 14) (size 15 to 20)
#    0.000    2.250    3.750    2.625    1.750    0.500 
#    0.000    0.000    0.000    0.750    0.000    0.000 
#    0.000    0.000    0.000    0.000    0.000    0.000 
#
# Total GULP energy -178255.475554 kJ/mol
# GULP energy per Si atom -5570.483611 kJ/mol
# Density = 1.962407 g / cm^3
# Si number density = 19.668836 Si / 1000 Ang^3
#
#
#
# Elastic Constant Matrix: (Units=GPa)
#
#
# Indices 1 2 3 4 5 6 
#
# 1 26.8183 20.5966 6.7704 0.0000 -11.0204 0.0000
# 2 20.5966 97.4366 31.1274 0.0000 -4.3243 0.0000
# 3 6.7704 31.1274 84.1214 0.0000 -19.7994 0.0000
# 4 0.0000 0.0000 0.0000 16.0558 0.0000 0.6942
# 5 -11.0204 -4.3243 -19.7994 0.0000 17.1405 0.0000
# 6 0.0000 0.0000 0.0000 0.6942 0.0000 23.1199
#
#
#
# Elastic Compliance Matrix: (Units=1/GPa)
#
#
# Indices 1 2 3 4 5 6 
#
# 1 0.069990 -0.016725 0.013946 0.000000 0.056889 0.000000
# 2 -0.016725 0.015734 -0.008340 0.000000 -0.016418 0.000000
# 3 0.013946 -0.008340 0.021242 0.000000 0.031399 0.000000
# 4 0.000000 0.000000 0.000000 0.062364 0.000000 -0.001873
# 5 0.056889 -0.016418 0.031399 0.000000 0.127046 0.000000
# 6 0.000000 0.000000 0.000000 -0.001873 0.000000 0.043309
#
#
# Mechanical properties :
#
#
# Convention : Reuss Voigt Hill
#
# Bulk Modulus (GPa) = 11.80275 36.15167 23.97721
# Shear Modulus (GPa) = 12.81506 21.25536 17.03521
#
# Velocity S-wave (km/s) = 2.55530 3.29091 2.94615
# Velocity P-wave (km/s) = 3.83664 5.73238 4.87750
#
# Compressibility (1/GPa) = 0.08472601
#
# Stress axis : x y z
#
# Youngs Moduli (GPa) = 14.28783 63.55547 47.07740
#
# Poissons Ratio (x) = 1.06297 -0.65652
# Poissons Ratio (y) = 0.23896 0.39264
# Poissons Ratio (z) = -0.19925 0.53007
#
# Static dielectric constant tensor:
#      x y z
#    x 1.718420 0.000000 -0.046920 
#    y 0.000000 1.787140 0.000000 
#    z -0.046920 0.000000 1.778700 
# 
# From -- ./inp_files/113687.got.cif
#   From: 2010.05.17/outbox.cif.g08.bks.cpg/sg15_57_cif.got.tgz:113687.got - 2010.06.03 18:47:42.
