data_PCOD9258438
_publ_section_title
;
Structure prediction by ZEFSAII (Michael W. Deem and Ramdas Pophale) SiO2 
 PCOD9258438
Probable space group: C 2/C
;
_chemical_formula_sum "Si O2"
_cell_formula_units_Z 60
_cell_length_a 11.617209
_cell_length_b 18.098339
_cell_length_c 17.202759
_cell_angle_alpha 90.000000
_cell_angle_beta 71.958322
_cell_angle_gamma 90.000000
_cell_volume 3439.079207
_symmetry_space_group_name_H-M "C 2/C"
_symmetry_group_IT_number 15
_symmetry_cell_setting 'monoclinic'
loop_
_space_group_symop_operation_xyz
x,y,z
-x,y,1/2-z
-x,-y,-z
x,-y,1/2+z
1/2+x,1/2+y,z
1/2-x,1/2+y,1/2-z
1/2-x,1/2-y,-z
1/2+x,1/2-y,1/2+z
loop_
_atom_site_type_symbol
_atom_site_label
_atom_site_fract_x
_atom_site_fract_y
_atom_site_fract_z
Si Si1 0.323165 0.664566 0.696269
Si Si2 0.306631 0.456360 0.064773
Si Si3 0.080393 0.790431 0.599832
Si Si4 0.488949 0.552329 0.111180
Si Si5 0.500000 0.559123 0.750000
Si Si6 0.559321 0.849248 0.311086
Si Si7 0.945393 0.429279 0.472160
Si Si8 0.135340 0.715201 0.426965
O O1 0.307257 0.612796 0.623407
O O2 0.397870 0.615011 0.740902
O O3 0.193204 0.675717 0.762198
O O4 0.381437 0.740044 0.650054
O O5 0.358391 0.525691 0.104802
O O6 0.177594 0.451670 0.048581
O O7 0.409646 0.450598 0.977423
O O8 0.000948 0.862652 0.633599
O O9 0.087180 0.767625 0.507275
O O10 0.220277 0.797035 0.594742
O O11 0.023760 0.721495 0.655742
O O12 0.524919 0.495422 0.172061
O O13 0.500000 0.890316 0.250000
O O14 0.542606 0.898321 0.390361
O O15 0.919737 0.364579 0.540554
O O16 0.000000 0.500000 0.500000
#
# Coordination Sequence:
#
# PCOD9258438 Si02
#       8
#     8   8   8   8   4   8   8   8
#     4  11  20  40  57  84 114 155 191 238 292 345
#     4  10  19  36  59  80 115 153 190 230 295 340
#     4  10  18  33  56  89 105 140 197 236 278 335
#     4  10  20  35  57  85 114 149 189 244 282 342
#     4  10  26  34  56  86 122 152 188 234 294 346
#     4  11  21  34  60  87 114 145 193 253 287 329
#     4  11  23  38  58  88 117 158 195 235 290 359
#     4  10  18  34  59  77 110 150 190 232 283 337
#
# _framework density 17.446531
#
# number of rings (size 3 to 8) (size 9 to 14) (size 15 to 20)
#    0.000    1.600    5.333    0.800    2.800    0.000 
#    0.000    1.333    1.467    3.200    0.000    0.000 
#    0.000    0.000    0.000    0.000    0.000    0.000 
#
# Total GULP energy -167077.550640 kJ/mol
# GULP energy per Si atom -5569.251688 kJ/mol
# Density = 1.740682 g / cm^3
# Si number density = 17.446531 Si / 1000 Ang^3
#
#
#
# Elastic Constant Matrix: (Units=GPa)
#
#
# Indices 1 2 3 4 5 6 
#
# 1 51.8835 30.0890 23.6159 0.0000 3.5635 0.0000
# 2 30.0890 116.6615 37.9719 0.0000 4.7256 0.0000
# 3 23.6159 37.9719 79.2087 0.0000 -15.6261 0.0000
# 4 0.0000 0.0000 0.0000 15.8508 0.0000 -0.1985
# 5 3.5635 4.7256 -15.6261 0.0000 23.0685 0.0000
# 6 0.0000 0.0000 0.0000 -0.1985 0.0000 25.0671
#
#
#
# Elastic Compliance Matrix: (Units=1/GPa)
#
#
# Indices 1 2 3 4 5 6 
#
# 1 0.025391 -0.003835 -0.007330 0.000000 -0.008102 0.000000
# 2 -0.003835 0.011569 -0.005487 0.000000 -0.005494 0.000000
# 3 -0.007330 -0.005487 0.020645 0.000000 0.016241 0.000000
# 4 0.000000 0.000000 0.000000 0.063094 0.000000 0.000500
# 5 -0.008102 -0.005494 0.016241 0.000000 0.056727 0.000000
# 6 0.000000 0.000000 0.000000 0.000500 0.000000 0.039897
#
#
# Mechanical properties :
#
#
# Convention : Reuss Voigt Hill
#
# Bulk Modulus (GPa) = 41.15021 47.90082 44.52552
# Shear Modulus (GPa) = 19.32539 23.20242 21.26391
#
# Velocity S-wave (km/s) = 3.33181 3.65076 3.49493
# Velocity P-wave (km/s) = 6.19992 6.72949 6.47013
#
# Compressibility (1/GPa) = 0.02430121
#
# Stress axis : x y z
#
# Youngs Moduli (GPa) = 39.38437 86.43587 48.43879
#
# Poissons Ratio (x) = 0.33145 0.35507
# Poissons Ratio (y) = 0.15102 0.26577
# Poissons Ratio (z) = 0.28870 0.47426
#
# Static dielectric constant tensor:
#      x y z
#    x 1.594980 0.000000 0.027480 
#    y 0.000000 1.614710 0.000000 
#    z 0.027480 0.000000 1.629270 
# 
# From -- ./inp_files/198298.got.cif
#   From: 2010.05.17/outbox.cif.g08.bks.cpg/sg15_100_cif.got.tgz:198298.got - 2010.06.03 18:47:42.
