data_PCOD9258078
_publ_section_title
;
Structure prediction by ZEFSAII (Michael W. Deem and Ramdas Pophale) SiO2 
 PCOD9258078
Probable space group: C 2/C
;
_chemical_formula_sum "Si O2"
_cell_formula_units_Z 52
_cell_length_a 32.120287
_cell_length_b 16.729560
_cell_length_c 16.654782
_cell_angle_alpha 90.000000
_cell_angle_beta 162.949317
_cell_angle_gamma 90.000000
_cell_volume 2624.175095
_symmetry_space_group_name_H-M "C 2/C"
_symmetry_group_IT_number 15
_symmetry_cell_setting 'monoclinic'
loop_
_space_group_symop_operation_xyz
x,y,z
-x,y,1/2-z
-x,-y,-z
x,-y,1/2+z
1/2+x,1/2+y,z
1/2-x,1/2+y,1/2-z
1/2-x,1/2-y,-z
1/2+x,1/2-y,1/2+z
loop_
_atom_site_type_symbol
_atom_site_label
_atom_site_fract_x
_atom_site_fract_y
_atom_site_fract_z
Si Si1 0.500000 0.458298 0.750000
Si Si2 0.093971 0.323974 0.142546
Si Si3 0.881664 0.144344 0.240824
Si Si4 0.346718 0.347094 0.362327
Si Si5 0.725927 0.154882 0.464402
Si Si6 0.634129 0.745195 0.051270
Si Si7 0.998856 0.090385 0.881956
O O1 0.363957 0.406620 0.469623
O O2 0.478784 0.515770 0.787530
O O3 0.099225 0.233861 0.188224
O O4 0.221472 0.370408 0.419299
O O5 0.130625 0.305744 0.118562
O O6 0.937186 0.359991 0.858795
O O7 0.991293 0.150656 0.369889
O O8 0.925805 0.083223 0.392305
O O9 0.277407 0.264463 0.266284
O O10 0.261159 0.368175 0.122333
O O11 0.750000 0.250000 0.500000
O O12 0.842590 0.119960 0.619178
O O13 0.500000 0.766990 0.750000
O O14 0.594400 0.656887 0.010809
#
# Coordination Sequence:
#
# PCOD9258078 Si02
#       7
#     4   8   8   8   8   8   8
#     4  12  26  40  60  98 132 168 202 266 328 384
#     4  10  18  32  58  94 125 146 209 271 313 342
#     4   9  20  35  57  89 122 163 203 258 306 377
#     4  11  22  37  61  90 127 162 215 253 321 373
#     4  11  18  37  64  96 118 167 217 267 305 379
#     4  11  18  33  64  95 114 161 210 269 296 373
#     4  10  22  38  64  87 128 165 216 249 324 378
#
# _framework density 19.815750999999999
#
# number of rings (size 3 to 8) (size 9 to 14) (size 15 to 20)
#    0.000    1.538    6.923    0.923    0.000    2.462 
#    0.000    0.000    3.385    2.769    0.000    0.000 
#    0.000    0.000    0.000    0.000    0.000    0.000 
#
# Total GULP energy -144802.686812 kJ/mol
# GULP energy per Si atom -5569.334108 kJ/mol
# Density = 1.977065 g / cm^3
# Si number density = 19.815751 Si / 1000 Ang^3
#
#
#
# Elastic Constant Matrix: (Units=GPa)
#
#
# Indices 1 2 3 4 5 6 
#
# 1 82.5754 42.0763 39.2027 0.0000 1.5976 0.0000
# 2 42.0763 55.7199 41.7899 0.0000 -1.7821 0.0000
# 3 39.2027 41.7899 160.2862 0.0000 -0.1786 0.0000
# 4 0.0000 0.0000 0.0000 17.5735 0.0000 -1.8052
# 5 1.5976 -1.7821 -0.1786 0.0000 33.1910 0.0000
# 6 0.0000 0.0000 0.0000 -1.8052 0.0000 12.7844
#
#
#
# Elastic Compliance Matrix: (Units=1/GPa)
#
#
# Indices 1 2 3 4 5 6 
#
# 1 0.019960 -0.014252 -0.001168 0.000000 -0.001732 0.000000
# 2 -0.014252 0.032531 -0.004993 0.000000 0.002406 0.000000
# 3 -0.001168 -0.004993 0.007826 0.000000 -0.000170 0.000000
# 4 0.000000 0.000000 0.000000 0.057741 0.000000 0.008153
# 5 -0.001732 0.002406 -0.000170 0.000000 0.030340 0.000000
# 6 0.000000 0.000000 0.000000 0.008153 0.000000 0.079371
#
#
# Mechanical properties :
#
#
# Convention : Reuss Voigt Hill
#
# Bulk Modulus (GPa) = 51.30573 60.52436 55.91505
# Shear Modulus (GPa) = 18.17558 24.41062 21.29310
#
# Velocity S-wave (km/s) = 3.03186 3.51362 3.28160
# Velocity P-wave (km/s) = 6.18093 6.86080 6.52972
#
# Compressibility (1/GPa) = 0.01949100
#
# Stress axis : x y z
#
# Youngs Moduli (GPa) = 50.09916 30.73982 127.77765
#
# Poissons Ratio (x) = 0.43811 0.14924
# Poissons Ratio (y) = 0.71403 0.63800
# Poissons Ratio (z) = 0.05851 0.15348
#
# Static dielectric constant tensor:
#      x y z
#    x 3.749360 0.000000 -1.031470 
#    y 0.000000 1.722540 0.000000 
#    z -1.031470 0.000000 2.231480 
# 
# From -- ./inp_files/182910.got.cif
#   From: 2010.05.17/outbox.cif.g08.bks.cpg/sg15_92_cif.got.tgz:182910.got - 2010.06.03 18:47:42.
