data_PCOD9258483
_publ_section_title
;
Structure prediction by ZEFSAII (Michael W. Deem and Ramdas Pophale) SiO2 
 PCOD9258483
Probable space group: C 2/C
;
_chemical_formula_sum "Si O2"
_cell_formula_units_Z 56
_cell_length_a 12.672764
_cell_length_b 7.226546
_cell_length_c 29.165386
_cell_angle_alpha 90.000000
_cell_angle_beta 61.883083
_cell_angle_gamma 90.000000
_cell_volume 2355.767383
_symmetry_space_group_name_H-M "C 2/C"
_symmetry_group_IT_number 15
_symmetry_cell_setting 'monoclinic'
loop_
_space_group_symop_operation_xyz
x,y,z
-x,y,1/2-z
-x,-y,-z
x,-y,1/2+z
1/2+x,1/2+y,z
1/2-x,1/2+y,1/2-z
1/2-x,1/2-y,-z
1/2+x,1/2-y,1/2+z
loop_
_atom_site_type_symbol
_atom_site_label
_atom_site_fract_x
_atom_site_fract_y
_atom_site_fract_z
Si Si1 0.298037 0.492371 0.281479
Si Si2 0.667377 0.277636 0.373896
Si Si3 0.052139 0.503864 0.289766
Si Si4 0.466449 0.564617 0.672249
Si Si5 0.976416 0.466024 0.057685
Si Si6 0.356786 0.916114 0.399012
Si Si7 0.789009 0.186460 0.874485
O O1 0.252889 0.657639 0.323233
O O2 0.189394 0.449695 0.269256
O O3 0.412224 0.537104 0.227280
O O4 0.310434 0.321842 0.314737
O O5 0.618376 0.450256 0.354746
O O6 0.740694 0.310838 0.404881
O O7 0.551424 0.158164 0.410387
O O8 0.045262 0.719242 0.308100
O O9 0.000000 0.486463 0.250000
O O10 0.969083 0.389073 0.341675
O O11 0.605481 0.543725 0.631931
O O12 0.848769 0.364211 0.089441
O O13 0.089061 0.382929 0.062011
O O14 0.000000 0.500000 0.000000
O O15 0.317169 0.126908 0.395638
#
# Coordination Sequence:
#
# PCOD9258483 Si02
#       7
#     8   8   8   8   8   8   8
#     4  10  19  35  59  93 132 173 214 255 318 384
#     4  10  22  42  63  99 131 168 223 268 316 394
#     4  10  18  33  57  88 129 173 208 255 313 373
#     4  10  18  35  61  88 129 172 212 252 312 394
#     4  11  24  47  70  93 129 169 220 282 332 380
#     4  11  21  43  66  91 136 166 212 277 319 384
#     4  10  20  41  66  91 129 171 211 264 326 383
#
# _framework density 23.771446000000001
#
# number of rings (size 3 to 8) (size 9 to 14) (size 15 to 20)
#    0.000    1.714    5.714    3.000    0.000    2.286 
#    5.143   13.571    0.000    0.000    0.000    0.000 
#    0.000    0.000    0.000    0.000    0.000    0.000 
#
# Total GULP energy -156436.153862 kJ/mol
# GULP energy per Si atom -5587.005495 kJ/mol
# Density = 2.371734 g / cm^3
# Si number density = 23.771446 Si / 1000 Ang^3
#
#
#
# Elastic Constant Matrix: (Units=GPa)
#
#
# Indices 1 2 3 4 5 6 
#
# 1 153.0049 22.0649 18.6571 0.0000 26.2064 0.0000
# 2 22.0649 30.7344 9.4309 0.0000 1.6942 0.0000
# 3 18.6571 9.4309 84.7067 0.0000 22.0041 0.0000
# 4 0.0000 0.0000 0.0000 9.9230 0.0000 5.6991
# 5 26.2064 1.6942 22.0041 0.0000 34.2905 0.0000
# 6 0.0000 0.0000 0.0000 5.6991 0.0000 36.6999
#
#
#
# Elastic Compliance Matrix: (Units=1/GPa)
#
#
# Indices 1 2 3 4 5 6 
#
# 1 0.008425 -0.005837 0.000470 0.000000 -0.006452 0.000000
# 2 -0.005837 0.037755 -0.004311 0.000000 0.005362 0.000000
# 3 0.000470 -0.004311 0.014664 0.000000 -0.009556 0.000000
# 4 0.000000 0.000000 0.000000 0.110645 0.000000 -0.017182
# 5 -0.006452 0.005362 -0.009556 0.000000 0.039961 0.000000
# 6 0.000000 0.000000 0.000000 -0.017182 0.000000 0.029916
#
#
# Mechanical properties :
#
#
# Convention : Reuss Voigt Hill
#
# Bulk Modulus (GPa) = 24.10276 40.97244 32.53760
# Shear Modulus (GPa) = 18.21151 30.73554 24.47353
#
# Velocity S-wave (km/s) = 2.77087 3.59968 3.21212
# Velocity P-wave (km/s) = 4.51645 5.87795 5.24160
#
# Compressibility (1/GPa) = 0.04148902
#
# Stress axis : x y z
#
# Youngs Moduli (GPa) = 118.68911 26.48670 68.19308
#
# Poissons Ratio (x) = 0.15461 -0.03207
# Poissons Ratio (y) = 0.69284 0.29395
# Poissons Ratio (z) = -0.05582 0.11417
#
# Static dielectric constant tensor:
#      x y z
#    x 1.962230 0.000000 0.016810 
#    y 0.000000 2.045650 0.000000 
#    z 0.016810 0.000000 1.841300 
# 
# From -- ./inp_files/291537.got.cif
#   From: 2010.05.17/outbox.cif.g08.bks.cpg/sg15_146_cif.got.tgz:291537.got - 2010.06.03 18:47:42.
