data_PCOD9258525
_publ_section_title
;
Structure prediction by ZEFSAII (Michael W. Deem and Ramdas Pophale) SiO2 
 PCOD9258525
Probable space group: C 2/C
;
_chemical_formula_sum "Si O2"
_cell_formula_units_Z 60
_cell_length_a 24.904149
_cell_length_b 14.934340
_cell_length_c 15.757121
_cell_angle_alpha 90.000000
_cell_angle_beta 32.457950
_cell_angle_gamma 90.000000
_cell_volume 3145.215575
_symmetry_space_group_name_H-M "C 2/C"
_symmetry_group_IT_number 15
_symmetry_cell_setting 'monoclinic'
loop_
_space_group_symop_operation_xyz
x,y,z
-x,y,1/2-z
-x,-y,-z
x,-y,1/2+z
1/2+x,1/2+y,z
1/2-x,1/2+y,1/2-z
1/2-x,1/2-y,-z
1/2+x,1/2-y,1/2+z
loop_
_atom_site_type_symbol
_atom_site_label
_atom_site_fract_x
_atom_site_fract_y
_atom_site_fract_z
Si Si1 0.136596 0.653283 0.675960
Si Si2 0.597099 0.021651 0.313466
Si Si3 0.856813 0.198847 0.580767
Si Si4 0.947918 0.230982 0.070834
Si Si5 0.238242 0.135773 0.150161
Si Si6 0.484744 0.160050 0.368941
Si Si7 0.794898 0.541660 0.670969
Si Si8 0.000000 0.785260 0.750000
O O1 0.103726 0.551462 0.730355
O O2 0.122209 0.692031 0.790367
O O3 0.233690 0.653016 0.486327
O O4 0.060943 0.717689 0.728243
O O5 0.579350 0.116043 0.292082
O O6 0.685350 0.004812 0.263170
O O7 0.500000 0.000000 0.500000
O O8 0.797155 0.287463 0.626781
O O9 0.920378 0.164247 0.414243
O O10 0.942875 0.226675 0.533061
O O11 0.786671 0.120351 0.709267
O O12 0.880061 0.145565 0.179309
O O13 0.956289 0.253367 0.961353
O O14 0.270300 0.038822 0.139777
O O15 0.500000 0.175164 0.250000
O O16 0.394988 0.089557 0.503167
#
# Coordination Sequence:
#
# PCOD9258525 Si02
#       8
#     8   8   8   8   8   8   8   4
#     4  10  18  33  58  90 116 146 191 248 309 356
#     4  10  19  31  55  84 118 146 186 245 308 346
#     4  10  21  39  60  90 122 156 200 246 308 361
#     4  11  21  39  60  83 122 161 197 254 299 353
#     4  11  22  36  62  89 121 156 199 245 307 363
#     4  11  22  37  60  87 117 158 207 253 301 354
#     4  11  22  38  60  85 125 156 194 253 303 365
#     4   8  20  30  58  88 114 148 190 246 294 364
#
# _framework density 19.076594
#
# number of rings (size 3 to 8) (size 9 to 14) (size 15 to 20)
#    0.000    1.600    4.000    2.000   10.267    2.667 
#    0.000    0.667    4.400    0.000    0.000    0.000 
#    0.000    0.000    0.000    0.000    0.000    0.000 
#
# Total GULP energy -167161.537717 kJ/mol
# GULP energy per Si atom -5572.051257 kJ/mol
# Density = 1.903317 g / cm^3
# Si number density = 19.076594 Si / 1000 Ang^3
#
#
#
# Elastic Constant Matrix: (Units=GPa)
#
#
# Indices 1 2 3 4 5 6 
#
# 1 67.3120 15.6225 50.6419 0.0000 14.2045 0.0000
# 2 15.6225 53.0965 35.3642 0.0000 3.0048 0.0000
# 3 50.6419 35.3642 100.2471 0.0000 23.1955 0.0000
# 4 0.0000 0.0000 0.0000 28.9545 0.0000 -0.7795
# 5 14.2045 3.0048 23.1955 0.0000 32.3174 0.0000
# 6 0.0000 0.0000 0.0000 -0.7795 0.0000 17.1370
#
#
#
# Elastic Compliance Matrix: (Units=1/GPa)
#
#
# Indices 1 2 3 4 5 6 
#
# 1 0.024142 0.001075 -0.012108 0.000000 -0.002021 0.000000
# 2 0.001075 0.025284 -0.010563 0.000000 0.004758 0.000000
# 3 -0.012108 -0.010563 0.022016 0.000000 -0.009498 0.000000
# 4 0.000000 0.000000 0.000000 0.034579 0.000000 0.001573
# 5 -0.002021 0.004758 -0.009498 0.000000 0.038206 0.000000
# 6 0.000000 0.000000 0.000000 0.001573 0.000000 0.058425
#
#
# Mechanical properties :
#
#
# Convention : Reuss Voigt Hill
#
# Bulk Modulus (GPa) = 35.39832 47.10141 41.24987
# Shear Modulus (GPa) = 19.58784 23.61691 21.60237
#
# Velocity S-wave (km/s) = 3.20785 3.52235 3.36877
# Velocity P-wave (km/s) = 5.68477 6.42548 6.06644
#
# Compressibility (1/GPa) = 0.02824993
#
# Stress axis : x y z
#
# Youngs Moduli (GPa) = 41.42118 39.55122 45.42184
#
# Poissons Ratio (x) = -0.04252 0.54995
# Poissons Ratio (y) = -0.04453 0.47981
# Poissons Ratio (z) = 0.50151 0.41780
#
# Static dielectric constant tensor:
#      x y z
#    x 1.722170 0.000000 0.003300 
#    y 0.000000 1.709370 0.000000 
#    z 0.003300 0.000000 1.694740 
# 
# From -- ./inp_files/178531.got.cif
#   From: 2010.05.17/outbox.cif.g08.bks.cpg/sg15_90_cif.got.tgz:178531.got - 2010.06.03 18:47:42.
