data_PCOD9258898
_publ_section_title
;
Structure prediction by ZEFSAII (Michael W. Deem and Ramdas Pophale) SiO2 
 PCOD9258898
Probable space group: C 2/C
;
_chemical_formula_sum "Si O2"
_cell_formula_units_Z 52
_cell_length_a 10.984081
_cell_length_b 15.880394
_cell_length_c 21.619491
_cell_angle_alpha 90.000000
_cell_angle_beta 145.889616
_cell_angle_gamma 90.000000
_cell_volume 2114.803385
_symmetry_space_group_name_H-M "C 2/C"
_symmetry_group_IT_number 15
_symmetry_cell_setting 'monoclinic'
loop_
_space_group_symop_operation_xyz
x,y,z
-x,y,1/2-z
-x,-y,-z
x,-y,1/2+z
1/2+x,1/2+y,z
1/2-x,1/2+y,1/2-z
1/2-x,1/2-y,-z
1/2+x,1/2-y,1/2+z
loop_
_atom_site_type_symbol
_atom_site_label
_atom_site_fract_x
_atom_site_fract_y
_atom_site_fract_z
Si Si1 0.000000 0.985653 0.250000
Si Si2 0.345698 0.477950 0.880158
Si Si3 0.199727 0.902573 0.936956
Si Si4 0.736984 0.241013 0.869464
Si Si5 0.915503 0.679588 0.318451
Si Si6 0.796032 0.187772 0.398089
Si Si7 0.124728 0.473199 0.180510
O O1 0.837639 0.040710 0.139615
O O2 0.828920 0.943696 0.224178
O O3 0.497469 0.430920 0.893602
O O4 0.209096 0.407221 0.856127
O O5 0.205584 0.544849 0.784247
O O6 0.500000 0.500000 0.000000
O O7 0.200650 0.809159 0.909599
O O8 0.413387 0.928215 0.064909
O O9 0.500000 0.207762 0.750000
O O10 0.827808 0.284428 0.845490
O O11 0.948336 0.190089 0.981526
O O12 0.768557 0.715220 0.198654
O O13 0.909872 0.576578 0.330521
O O14 0.149392 0.716377 0.394030
#
# Coordination Sequence:
#
# PCOD9258898 Si02
#       7
#     4   8   8   8   8   8   8
#     4  10  18  34  56  94 126 162 204 264 330 380
#     4  10  22  42  62  91 128 165 218 269 331 392
#     4  11  21  37  64  94 124 168 216 266 327 389
#     4  12  23  41  65  96 133 177 222 274 332 401
#     4  10  21  41  68  90 123 173 222 277 338 390
#     4  10  23  42  64  90 127 175 220 272 332 406
#     4  10  20  37  66  91 127 168 218 271 333 388
#
# _framework density 24.588571999999999
#
# number of rings (size 3 to 8) (size 9 to 14) (size 15 to 20)
#    0.000    1.538    2.308    3.692    0.000    4.308 
#    5.538    1.538    0.000    0.000    0.000    0.000 
#    0.000    0.000    0.000    0.000    0.000    0.000 
#
# Total GULP energy -144785.670873 kJ/mol
# GULP energy per Si atom -5568.679649 kJ/mol
# Density = 2.453261 g / cm^3
# Si number density = 24.588572 Si / 1000 Ang^3
#
#
#
# Elastic Constant Matrix: (Units=GPa)
#
#
# Indices 1 2 3 4 5 6 
#
# 1 129.7895 33.3534 45.0989 0.0001 -3.4136 0.0000
# 2 33.3534 45.6134 46.8219 0.0002 2.3256 0.0001
# 3 45.0989 46.8219 242.6868 0.0011 15.5078 0.0002
# 4 0.0001 0.0002 0.0011 18.3172 0.0003 2.1658
# 5 -3.4136 2.3256 15.5078 0.0003 57.2023 0.0000
# 6 0.0000 0.0001 0.0002 2.1658 0.0000 20.6660
#
#
#
# Elastic Compliance Matrix: (Units=1/GPa)
#
#
# Indices 1 2 3 4 5 6 
#
# 1 0.009598 -0.006450 -0.000603 0.000000 0.000998 0.000000
# 2 -0.006450 0.031678 -0.004891 0.000000 -0.000347 0.000000
# 3 -0.000603 -0.004891 0.005257 0.000000 -0.001262 0.000000
# 4 0.000000 0.000000 0.000000 0.055278 0.000000 -0.005793
# 5 0.000998 -0.000347 -0.001262 0.000000 0.017898 0.000000
# 6 0.000000 0.000000 0.000000 -0.005793 0.000000 0.048996
#
#
# Mechanical properties :
#
#
# Convention : Reuss Voigt Hill
#
# Bulk Modulus (GPa) = 44.16019 74.29314 59.22666
# Shear Modulus (GPa) = 24.98231 38.75814 31.87023
#
# Velocity S-wave (km/s) = 3.19095 3.97453 3.60410
# Velocity P-wave (km/s) = 5.61915 7.16538 6.43885
#
# Compressibility (1/GPa) = 0.02264483
#
# Stress axis : x y z
#
# Youngs Moduli (GPa) = 104.18649 31.56749 190.22783
#
# Poissons Ratio (x) = 0.20362 0.11470
# Poissons Ratio (y) = 0.67204 0.93038
# Poissons Ratio (z) = 0.06282 0.15439
#
# Static dielectric constant tensor:
#      x y z
#    x 2.075820 0.000000 -0.036670 
#    y 0.000000 2.051820 0.000000 
#    z -0.036670 0.000000 1.995720 
# 
# From -- ./inp_files/240542.got.cif
#   From: 2010.05.17/outbox.cif.g08.bks.cpg/sg15_121_cif.got.tgz:240542.got - 2010.06.03 18:47:42.
