data_PCOD9258575
_publ_section_title
;
Structure prediction by ZEFSAII (Michael W. Deem and Ramdas Pophale) SiO2 
 PCOD9258575
Probable space group: C 2/C
;
_chemical_formula_sum "Si O2"
_cell_formula_units_Z 48
_cell_length_a 24.409348
_cell_length_b 7.984902
_cell_length_c 13.624064
_cell_angle_alpha 90.000000
_cell_angle_beta 57.022682
_cell_angle_gamma 90.000000
_cell_volume 2227.590971
_symmetry_space_group_name_H-M "C 2/C"
_symmetry_group_IT_number 15
_symmetry_cell_setting 'monoclinic'
loop_
_space_group_symop_operation_xyz
x,y,z
-x,y,1/2-z
-x,-y,-z
x,-y,1/2+z
1/2+x,1/2+y,z
1/2-x,1/2+y,1/2-z
1/2-x,1/2-y,-z
1/2+x,1/2-y,1/2+z
loop_
_atom_site_type_symbol
_atom_site_label
_atom_site_fract_x
_atom_site_fract_y
_atom_site_fract_z
Si Si1 0.229347 0.168534 0.916704
Si Si2 0.027503 0.180380 0.012139
Si Si3 0.136804 0.057207 0.784480
Si Si4 0.718205 0.013899 0.817591
Si Si5 0.402614 0.240014 0.548391
Si Si6 0.906102 0.993286 0.890486
O O1 0.275184 0.047708 0.806152
O O2 0.218029 0.326140 0.856751
O O3 0.250000 0.250000 0.000000
O O4 0.164878 0.064792 0.003410
O O5 0.093931 0.194954 0.884429
O O6 0.046236 0.144898 0.106657
O O7 0.969070 0.304106 0.041815
O O8 0.000000 0.000000 0.000000
O O9 0.131726 0.885242 0.852334
O O10 0.100972 0.018813 0.717462
O O11 0.214207 0.088739 0.701223
O O12 0.651473 0.101170 0.915437
O O13 0.421606 0.331008 0.428327
#
# Coordination Sequence:
#
# PCOD9258575 Si02
#       6
#     8   8   8   8   8   8
#     4  12  22  39  59  89 126 162 205 259 313 380
#     4   8  18  33  54  82 115 149 203 250 295 357
#     4  10  18  33  60  83 115 160 207 256 301 356
#     4  12  21  38  59  86 128 159 205 260 314 373
#     4  10  21  36  53  88 118 155 205 251 308 365
#     4  10  18  36  58  84 114 155 209 247 306 363
#
# _framework density 21.547941000000002
#
# number of rings (size 3 to 8) (size 9 to 14) (size 15 to 20)
#    0.000    2.000    6.667    0.000    0.000    6.667 
#    3.000    0.833    0.000    0.000    0.000    7.000 
#    0.000    0.000    0.000    0.000    0.000    0.000 
#
# Total GULP energy -133732.916774 kJ/mol
# GULP energy per Si atom -5572.204866 kJ/mol
# Density = 2.149890 g / cm^3
# Si number density = 21.547941 Si / 1000 Ang^3
#
#
#
# Elastic Constant Matrix: (Units=GPa)
#
#
# Indices 1 2 3 4 5 6 
#
# 1 122.8960 6.7935 35.2167 0.0000 5.5529 0.0000
# 2 6.7935 44.5730 22.0468 0.0000 4.2789 0.0000
# 3 35.2167 22.0468 86.9711 0.0000 26.8405 0.0000
# 4 0.0000 0.0000 0.0000 23.0175 0.0000 -6.8252
# 5 5.5529 4.2789 26.8405 0.0000 58.2438 0.0000
# 6 0.0000 0.0000 0.0000 -6.8252 0.0000 25.5909
#
#
#
# Elastic Compliance Matrix: (Units=1/GPa)
#
#
# Indices 1 2 3 4 5 6 
#
# 1 0.009266 0.000573 -0.004210 0.000000 0.001015 0.000000
# 2 0.000573 0.025771 -0.007186 0.000000 0.001363 0.000000
# 3 -0.004210 -0.007186 0.017181 0.000000 -0.006988 0.000000
# 4 0.000000 0.000000 0.000000 0.047176 0.000000 0.012582
# 5 0.001015 0.001363 -0.006988 0.000000 0.020193 0.000000
# 6 0.000000 0.000000 0.000000 0.012582 0.000000 0.042432
#
#
# Mechanical properties :
#
#
# Convention : Reuss Voigt Hill
#
# Bulk Modulus (GPa) = 32.70974 42.50600 37.60787
# Shear Modulus (GPa) = 25.79237 34.06266 29.92752
#
# Velocity S-wave (km/s) = 3.46349 3.98022 3.73081
# Velocity P-wave (km/s) = 5.58635 6.39468 6.00413
#
# Compressibility (1/GPa) = 0.03057194
#
# Stress axis : x y z
#
# Youngs Moduli (GPa) = 107.92189 38.80321 58.20327
#
# Poissons Ratio (x) = -0.02223 0.24506
# Poissons Ratio (y) = -0.06183 0.41823
# Poissons Ratio (z) = 0.45440 0.27882
#
# Static dielectric constant tensor:
#      x y z
#    x 1.900900 0.000000 -0.023710 
#    y 0.000000 1.819710 0.000000 
#    z -0.023710 0.000000 1.847840 
# 
# From -- ./inp_files/171319.got.cif
#   From: 2010.05.17/outbox.cif.g08.bks.cpg/sg15_86_cif.got.tgz:171319.got - 2010.06.03 18:47:42.
