data_PCOD9258215
_publ_section_title
;
Structure prediction by ZEFSAII (Michael W. Deem and Ramdas Pophale) SiO2 
 PCOD9258215
Probable space group: C 2/C
;
_chemical_formula_sum "Si O2"
_cell_formula_units_Z 40
_cell_length_a 6.835716
_cell_length_b 17.493615
_cell_length_c 16.822155
_cell_angle_alpha 90.000000
_cell_angle_beta 50.060275
_cell_angle_gamma 90.000000
_cell_volume 1542.347124
_symmetry_space_group_name_H-M "C 2/C"
_symmetry_group_IT_number 15
_symmetry_cell_setting 'monoclinic'
loop_
_space_group_symop_operation_xyz
x,y,z
-x,y,1/2-z
-x,-y,-z
x,-y,1/2+z
1/2+x,1/2+y,z
1/2-x,1/2+y,1/2-z
1/2-x,1/2-y,-z
1/2+x,1/2-y,1/2+z
loop_
_atom_site_type_symbol
_atom_site_label
_atom_site_fract_x
_atom_site_fract_y
_atom_site_fract_z
Si Si1 0.305669 0.873509 0.968147
Si Si2 0.847395 0.891089 0.187130
Si Si3 0.194131 0.282694 0.774711
Si Si4 0.938969 0.546246 0.894003
Si Si5 0.116787 0.169455 0.054325
O O1 0.540445 0.817239 0.889436
O O2 0.092564 0.846854 0.959737
O O3 0.393172 0.958926 0.926165
O O4 0.144329 0.876590 0.091205
O O5 0.744818 0.805505 0.226433
O O6 0.729500 0.931969 0.140113
O O7 0.727273 0.938603 0.290556
O O8 0.446189 0.325227 0.677960
O O9 0.000000 0.285700 0.750000
O O10 0.822494 0.601529 0.991979
O O11 0.250000 0.250000 0.000000
#
# Coordination Sequence:
#
# PCOD9258215 Si02
#       5
#     8   8   8   8   8
#     4  10  22  34  57  85 112 140 186 236 278 312
#     4  10  19  34  53  82 112 139 181 225 276 328
#     4  10  21  34  55  81 110 149 181 223 276 336
#     4  10  21  33  57  87 107 138 182 240 274 311
#     4  10  18  33  50  81 111 143 176 221 276 329
#
# _framework density 25.9345
#
# number of rings (size 3 to 8) (size 9 to 14) (size 15 to 20)
#    0.000    2.000    2.000    3.000   11.200    0.000 
#    0.000    0.000    0.000    1.200   15.600    0.000 
#    0.000    0.000    0.000    0.000    0.000    0.000 
#
# Total GULP energy -112047.425506 kJ/mol
# GULP energy per Si atom -5602.371275 kJ/mol
# Density = 2.587547 g / cm^3
# Si number density = 25.934500 Si / 1000 Ang^3
#
#
#
# Elastic Constant Matrix: (Units=GPa)
#
#
# Indices 1 2 3 4 5 6 
#
# 1 104.9173 9.8396 41.6996 0.0000 -13.9442 0.0000
# 2 9.8396 142.5436 39.2803 0.0000 -11.0924 0.0000
# 3 41.6996 39.2803 196.3830 0.0000 -23.0445 0.0000
# 4 0.0000 0.0000 0.0000 38.8931 0.0000 -33.4176
# 5 -13.9442 -11.0924 -23.0445 0.0000 54.8985 0.0000
# 6 0.0000 0.0000 0.0000 -33.4176 0.0000 4.6689
#
#
#
# Elastic Compliance Matrix: (Units=1/GPa)
#
#
# Indices 1 2 3 4 5 6 
#
# 1 0.010583 -0.000030 -0.002026 0.000000 0.001831 0.000000
# 2 -0.000030 0.007469 -0.001379 0.000000 0.000923 0.000000
# 3 -0.002026 -0.001379 0.006001 0.000000 0.001726 0.000000
# 4 0.000000 0.000000 0.000000 -0.004993 0.000000 -0.035735
# 5 0.001831 0.000923 0.001726 0.000000 0.019591 0.000000
# 6 0.000000 0.000000 0.000000 -0.035735 0.000000 -0.041590
#
#
# Mechanical properties :
#
#
# Convention : Reuss Voigt Hill
#
# Bulk Modulus (GPa) = 58.19969 69.49809 63.84889
# Shear Modulus (GPa) = 517.62617 43.22706 280.42661
#
# Velocity S-wave (km/s) = 14.14295 4.08705 10.40978
# Velocity P-wave (km/s) = 17.00551 7.00911 13.00605
#
# Compressibility (1/GPa) = 0.01718222
#
# Stress axis : x y z
#
# Youngs Moduli (GPa) = 94.49234 133.88000 166.64576
#
# Poissons Ratio (x) = 0.00397 0.33768
# Poissons Ratio (y) = 0.00280 0.22988
# Poissons Ratio (z) = 0.19147 0.18468
#
# Static dielectric constant tensor:
#      x y z
#    x 2.232640 0.000000 -0.055930 
#    y 0.000000 1.919490 0.000000 
#    z -0.055930 0.000000 2.071440 
# 
# From -- ./inp_files/142809.got.cif
#   From: 2010.05.17/outbox.cif.g08.bks.cpg/sg15_72_cif.got.tgz:142809.got - 2010.06.03 18:47:42.
