data_PCOD9258307
_publ_section_title
;
Structure prediction by ZEFSAII (Michael W. Deem and Ramdas Pophale) SiO2 
 PCOD9258307
Probable space group: C 2/C
;
_chemical_formula_sum "Si O2"
_cell_formula_units_Z 40
_cell_length_a 7.143656
_cell_length_b 14.190532
_cell_length_c 21.162890
_cell_angle_alpha 90.000000
_cell_angle_beta 131.812240
_cell_angle_gamma 90.000000
_cell_volume 1598.986807
_symmetry_space_group_name_H-M "C 2/C"
_symmetry_group_IT_number 15
_symmetry_cell_setting 'monoclinic'
loop_
_space_group_symop_operation_xyz
x,y,z
-x,y,1/2-z
-x,-y,-z
x,-y,1/2+z
1/2+x,1/2+y,z
1/2-x,1/2+y,1/2-z
1/2-x,1/2-y,-z
1/2+x,1/2-y,1/2+z
loop_
_atom_site_type_symbol
_atom_site_label
_atom_site_fract_x
_atom_site_fract_y
_atom_site_fract_z
Si Si1 0.570841 0.394480 0.034806
Si Si2 0.663796 0.628464 0.701356
Si Si3 0.090865 0.250418 0.371192
Si Si4 0.173173 0.912644 0.729741
Si Si5 0.560230 0.200156 0.384078
O O1 0.673304 0.399606 0.129545
O O2 0.793148 0.329081 0.055168
O O3 0.500000 0.500000 0.000000
O O4 0.311875 0.337577 0.970490
O O5 0.662810 0.524570 0.728142
O O6 0.425150 0.699342 0.649061
O O7 0.878284 0.693098 0.782059
O O8 0.342516 0.218377 0.388228
O O9 0.949749 0.151085 0.353856
O O10 0.447075 0.876269 0.810250
O O11 0.000000 0.884544 0.750000
#
# Coordination Sequence:
#
# PCOD9258307 Si02
#       5
#     8   8   8   8   8
#     4  11  20  32  51  77 103 132 171 212 249 299
#     4  10  18  33  54  74  97 135 173 207 250 305
#     4   9  18  34  54  71  99 138 171 201 250 318
#     4   9  18  34  53  73  97 132 171 209 255 306
#     4   9  18  33  52  73 101 135 169 203 248 312
#
# _framework density 25.015843
#
# number of rings (size 3 to 8) (size 9 to 14) (size 15 to 20)
#    0.000    2.400    0.000    9.600    0.000    0.000 
#    0.000   14.000    0.000    0.000    0.000    0.000 
#    0.000    0.000    0.000    0.000    0.000    0.000 
#
# Total GULP energy -111335.660352 kJ/mol
# GULP energy per Si atom -5566.783018 kJ/mol
# Density = 2.495891 g / cm^3
# Si number density = 25.015843 Si / 1000 Ang^3
#
#
#
# Elastic Constant Matrix: (Units=GPa)
#
#
# Indices 1 2 3 4 5 6 
#
# 1 56.8802 21.4048 34.5773 0.0000 14.5445 0.0000
# 2 21.4048 232.4405 52.3451 0.0000 33.1172 0.0000
# 3 34.5773 52.3451 115.4285 0.0000 41.5828 0.0000
# 4 0.0000 0.0000 0.0000 50.5998 0.0000 -3.0360
# 5 14.5445 33.1172 41.5828 0.0000 32.6961 0.0000
# 6 0.0000 0.0000 0.0000 -3.0360 0.0000 25.1474
#
#
#
# Elastic Compliance Matrix: (Units=1/GPa)
#
#
# Indices 1 2 3 4 5 6 
#
# 1 0.021648 -0.000444 -0.005493 0.000000 -0.002194 0.000000
# 2 -0.000444 0.005079 -0.000716 0.000000 -0.004036 0.000000
# 3 -0.005493 -0.000716 0.017518 0.000000 -0.019110 0.000000
# 4 0.000000 0.000000 0.000000 0.019907 0.000000 0.002403
# 5 -0.002194 -0.004036 -0.019110 0.000000 0.059954 0.000000
# 6 0.000000 0.000000 0.000000 0.002403 0.000000 0.040056
#
#
# Mechanical properties :
#
#
# Convention : Reuss Voigt Hill
#
# Bulk Modulus (GPa) = 32.32159 69.04485 50.68322
# Shear Modulus (GPa) = 26.62663 41.45014 34.03839
#
# Velocity S-wave (km/s) = 3.26604 4.07499 3.69273
# Velocity P-wave (km/s) = 5.21260 7.05699 6.20372
#
# Compressibility (1/GPa) = 0.03093907
#
# Stress axis : x y z
#
# Youngs Moduli (GPa) = 46.19333 196.87124 57.08345
#
# Poissons Ratio (x) = 0.08738 0.31356
# Poissons Ratio (y) = 0.02050 0.04090
# Poissons Ratio (z) = 0.25374 0.14105
#
# Static dielectric constant tensor:
#      x y z
#    x 2.241940 0.000000 -0.105580 
#    y 0.000000 2.100810 0.000000 
#    z -0.105580 0.000000 2.002030 
# 
# From -- ./inp_files/310869.got.cif
#   From: 2010.05.17/outbox.cif.g08.bks.cpg/sg15_156_cif.got.tgz:310869.got - 2010.06.03 18:47:42.
