data_PCOD9258240
_publ_section_title
;
Structure prediction by ZEFSAII (Michael W. Deem and Ramdas Pophale) SiO2 
 PCOD9258240
Probable space group: C 2/C
;
_chemical_formula_sum "Si O2"
_cell_formula_units_Z 40
_cell_length_a 8.441994
_cell_length_b 16.595448
_cell_length_c 11.656606
_cell_angle_alpha 90.000000
_cell_angle_beta 91.558879
_cell_angle_gamma 90.000000
_cell_volume 1632.470620
_symmetry_space_group_name_H-M "C 2/C"
_symmetry_group_IT_number 15
_symmetry_cell_setting 'monoclinic'
loop_
_space_group_symop_operation_xyz
x,y,z
-x,y,1/2-z
-x,-y,-z
x,-y,1/2+z
1/2+x,1/2+y,z
1/2-x,1/2+y,1/2-z
1/2-x,1/2-y,-z
1/2+x,1/2-y,1/2+z
loop_
_atom_site_type_symbol
_atom_site_label
_atom_site_fract_x
_atom_site_fract_y
_atom_site_fract_z
Si Si1 0.959477 0.839289 0.059082
Si Si2 0.517889 0.170289 0.125528
Si Si3 0.158597 0.069302 0.399547
Si Si4 0.298446 0.584243 0.747223
Si Si5 0.856701 0.490303 0.584700
O O1 0.980238 0.744130 0.042163
O O2 0.091299 0.872789 0.154442
O O3 0.803286 0.862762 0.130944
O O4 0.007681 0.880866 0.939988
O O5 0.500000 0.208944 0.250000
O O6 0.690824 0.130021 0.110797
O O7 0.386988 0.099716 0.126233
O O8 0.150935 0.005940 0.295616
O O9 0.204179 0.010418 0.506345
O O10 0.145234 0.557623 0.816534
O O11 0.000000 0.500000 0.500000
#
# Coordination Sequence:
#
# PCOD9258240 Si02
#       5
#     8   8   8   8   8
#     4  10  21  34  54  81 106 136 179 216 260 312
#     4  11  18  35  56  77 107 136 174 220 261 305
#     4  10  20  34  57  78 105 140 174 216 262 312
#     4  10  18  33  52  76 107 139 173 215 256 313
#     4   9  20  33  52  80 103 137 177 211 261 315
#
# _framework density 24.502738000000001
#
# number of rings (size 3 to 8) (size 9 to 14) (size 15 to 20)
#    0.000    2.000    4.000    1.200    0.000    0.000 
#    0.000    1.000    0.000    0.000    0.000    5.600 
#    0.000    0.000    0.000    0.000    0.000    0.000 
#
# Total GULP energy -111383.543834 kJ/mol
# GULP energy per Si atom -5569.177192 kJ/mol
# Density = 2.444697 g / cm^3
# Si number density = 24.502738 Si / 1000 Ang^3
#
#
#
# Elastic Constant Matrix: (Units=GPa)
#
#
# Indices 1 2 3 4 5 6 
#
# 1 56.0146 27.3325 18.6002 0.0000 -15.9988 0.0000
# 2 27.3325 127.2786 12.4924 0.0000 -23.2404 0.0000
# 3 18.6002 12.4924 64.9344 0.0000 -25.7975 0.0000
# 4 0.0000 0.0000 0.0000 28.2116 0.0000 -0.4561
# 5 -15.9988 -23.2404 -25.7975 0.0000 34.5670 0.0000
# 6 0.0000 0.0000 0.0000 -0.4561 0.0000 30.9176
#
#
#
# Elastic Compliance Matrix: (Units=1/GPa)
#
#
# Indices 1 2 3 4 5 6 
#
# 1 0.022246 -0.003460 -0.003611 0.000000 0.005276 0.000000
# 2 -0.003460 0.009536 0.001517 0.000000 0.005942 0.000000
# 3 -0.003611 0.001517 0.022578 0.000000 0.016199 0.000000
# 4 0.000000 0.000000 0.000000 0.035455 0.000000 0.000523
# 5 0.005276 0.005942 0.016199 0.000000 0.047456 0.000000
# 6 0.000000 0.000000 0.000000 0.000523 0.000000 0.032352
#
#
# Mechanical properties :
#
#
# Convention : Reuss Voigt Hill
#
# Bulk Modulus (GPa) = 23.11926 40.56420 31.84173
# Shear Modulus (GPa) = 25.62164 31.39273 28.50718
#
# Velocity S-wave (km/s) = 3.23718 3.58326 3.41461
# Velocity P-wave (km/s) = 4.84028 5.80608 5.34504
#
# Compressibility (1/GPa) = 0.04325399
#
# Stress axis : x y z
#
# Youngs Moduli (GPa) = 44.95090 104.86760 44.29040
#
# Poissons Ratio (x) = 0.36280 0.15993
# Poissons Ratio (y) = 0.15551 -0.06720
# Poissons Ratio (z) = 0.16231 -0.15911
#
# Static dielectric constant tensor:
#      x y z
#    x 2.110440 0.000000 -0.038230 
#    y 0.000000 1.982940 0.000000 
#    z -0.038230 0.000000 2.025990 
# 
# From -- ./inp_files/142376.got.cif
#   From: 2010.05.17/outbox.cif.g08.bks.cpg/sg15_72_cif.got.tgz:142376.got - 2010.06.03 18:47:42.
