data_PCOD9258904
_publ_section_title
;
Structure prediction by ZEFSAII (Michael W. Deem and Ramdas Pophale) SiO2 
 PCOD9258904
Probable space group: C 2/C
;
_chemical_formula_sum "Si O2"
_cell_formula_units_Z 48
_cell_length_a 25.100551
_cell_length_b 7.462229
_cell_length_c 17.922842
_cell_angle_alpha 90.000000
_cell_angle_beta 148.271737
_cell_angle_gamma 90.000000
_cell_volume 1765.446947
_symmetry_space_group_name_H-M "C 2/C"
_symmetry_group_IT_number 15
_symmetry_cell_setting 'monoclinic'
loop_
_space_group_symop_operation_xyz
x,y,z
-x,y,1/2-z
-x,-y,-z
x,-y,1/2+z
1/2+x,1/2+y,z
1/2-x,1/2+y,1/2-z
1/2-x,1/2-y,-z
1/2+x,1/2-y,1/2+z
loop_
_atom_site_type_symbol
_atom_site_label
_atom_site_fract_x
_atom_site_fract_y
_atom_site_fract_z
Si Si1 0.903088 0.212909 0.291988
Si Si2 0.378616 0.815503 0.102366
Si Si3 0.661917 0.228384 0.632262
Si Si4 0.128850 0.829393 0.066604
Si Si5 0.073718 0.636810 0.144388
Si Si6 0.256567 0.820831 0.425125
O O1 0.858861 0.207174 0.155680
O O2 0.845906 0.158177 0.299310
O O3 0.907521 0.433851 0.305596
O O4 0.010882 0.109281 0.425415
O O5 0.500000 0.855340 0.250000
O O6 0.356332 0.699768 0.003110
O O7 0.318307 0.996067 0.010683
O O8 0.761166 0.111008 0.772262
O O9 0.544544 0.172936 0.486892
O O10 0.687152 0.281598 0.576599
O O11 0.108247 0.663133 0.099284
O O12 0.139545 0.790904 0.262045
O O13 0.250000 0.750000 0.500000
#
# Coordination Sequence:
#
# PCOD9258904 Si02
#       6
#     8   8   8   8   8   8
#     4  10  18  34  57  79 106 139 182 220 262 318
#     4  10  19  34  56  82 107 139 176 225 264 316
#     4  10  20  33  52  79 109 143 173 223 263 311
#     4   9  19  32  52  81 104 139 181 211 264 315
#     4  10  19  35  55  81 107 140 179 220 268 319
#     4  11  21  32  53  85 108 131 182 223 273 317
#
# _framework density 27.188583000000001
#
# number of rings (size 3 to 8) (size 9 to 14) (size 15 to 20)
#    0.000    2.000    1.667    5.000    0.000    0.667 
#    0.000    0.833    0.000    2.000    0.000    0.000 
#    0.000    0.000    0.000    0.000    0.000    0.000 
#
# Total GULP energy -133623.330362 kJ/mol
# GULP energy per Si atom -5567.638765 kJ/mol
# Density = 2.712670 g / cm^3
# Si number density = 27.188583 Si / 1000 Ang^3
#
#
#
# Elastic Constant Matrix: (Units=GPa)
#
#
# Indices 1 2 3 4 5 6 
#
# 1 248.0867 35.6348 71.2365 0.0000 -17.0852 0.0000
# 2 35.6348 81.8859 62.1924 0.0000 13.6504 0.0000
# 3 71.2365 62.1924 213.6226 0.0000 13.2523 0.0000
# 4 0.0000 0.0000 0.0000 39.7524 0.0000 4.9268
# 5 -17.0852 13.6504 13.2523 0.0000 57.4256 0.0000
# 6 0.0000 0.0000 0.0000 4.9268 0.0000 18.5467
#
#
#
# Elastic Compliance Matrix: (Units=1/GPa)
#
#
# Indices 1 2 3 4 5 6 
#
# 1 0.004749 -0.001424 -0.001296 0.000000 0.002050 0.000000
# 2 -0.001424 0.016534 -0.004128 0.000000 -0.003401 0.000000
# 3 -0.001296 -0.004128 0.006369 0.000000 -0.000874 0.000000
# 4 0.000000 0.000000 0.000000 0.026012 0.000000 -0.006910
# 5 0.002050 -0.003401 -0.000874 0.000000 0.019034 0.000000
# 6 0.000000 0.000000 0.000000 -0.006910 0.000000 0.055754
#
#
# Mechanical properties :
#
#
# Convention : Reuss Voigt Hill
#
# Bulk Modulus (GPa) = 71.65243 97.96918 84.81081
# Shear Modulus (GPa) = 34.06008 48.11370 41.08689
#
# Velocity S-wave (km/s) = 3.54324 4.21126 3.89161
# Velocity P-wave (km/s) = 6.56890 7.73031 7.17315
#
# Compressibility (1/GPa) = 0.01395626
#
# Stress axis : x y z
#
# Youngs Moduli (GPa) = 210.57998 60.48252 157.00195
#
# Poissons Ratio (x) = 0.08612 0.20351
# Poissons Ratio (y) = 0.29984 0.64805
# Poissons Ratio (z) = 0.27296 0.24965
#
# Static dielectric constant tensor:
#      x y z
#    x 2.125980 0.000000 0.018580 
#    y 0.000000 2.325600 0.000000 
#    z 0.018580 0.000000 2.163510 
# 
# From -- ./inp_files/219347.got.cif
#   From: 2010.05.17/outbox.cif.g08.bks.cpg/sg15_110_cif.got.tgz:219347.got - 2010.06.03 18:47:42.
