data_PCOD9258242
_publ_section_title
;
Structure prediction by ZEFSAII (Michael W. Deem and Ramdas Pophale) SiO2 
 PCOD9258242
Probable space group: C 2/C
;
_chemical_formula_sum "Si O2"
_cell_formula_units_Z 56
_cell_length_a 23.924215
_cell_length_b 21.280508
_cell_length_c 16.645330
_cell_angle_alpha 90.000000
_cell_angle_beta 159.376442
_cell_angle_gamma 90.000000
_cell_volume 2984.929762
_symmetry_space_group_name_H-M "C 2/C"
_symmetry_group_IT_number 15
_symmetry_cell_setting 'monoclinic'
loop_
_space_group_symop_operation_xyz
x,y,z
-x,y,1/2-z
-x,-y,-z
x,-y,1/2+z
1/2+x,1/2+y,z
1/2-x,1/2+y,1/2-z
1/2-x,1/2-y,-z
1/2+x,1/2-y,1/2+z
loop_
_atom_site_type_symbol
_atom_site_label
_atom_site_fract_x
_atom_site_fract_y
_atom_site_fract_z
Si Si1 0.856280 0.986311 0.726756
Si Si2 0.433317 0.897116 0.439547
Si Si3 0.636390 0.005686 0.778597
Si Si4 0.215277 0.683240 0.343323
Si Si5 0.105180 0.069704 0.968518
Si Si6 0.311145 0.175533 0.003357
Si Si7 0.850646 0.084719 0.838739
O O1 0.721812 0.982331 0.478149
O O2 0.796445 0.016963 0.728758
O O3 0.985745 0.037640 0.869342
O O4 0.965404 0.925459 0.890015
O O5 0.440872 0.932558 0.364282
O O6 0.531225 0.832800 0.577356
O O7 0.253308 0.893077 0.225948
O O8 0.518226 0.946345 0.615705
O O9 0.769338 0.982309 0.893186
O O10 0.304919 0.635983 0.402472
O O11 0.276823 0.754010 0.425369
O O12 0.234665 0.666948 0.464641
O O13 0.000000 0.083246 0.750000
O O14 0.201972 0.131755 0.802086
O O15 0.500000 0.162615 0.250000
#
# Coordination Sequence:
#
# PCOD9258242 Si02
#       7
#     8   8   8   8   8   8   8
#     4  10  21  33  50  78 111 142 167 211 269 315
#     4  10  18  33  52  77 103 135 180 214 257 307
#     4   9  18  30  53  75 102 136 173 212 252 312
#     4  10  21  33  52  75 101 141 173 215 259 308
#     4   9  15  29  48  71 100 131 169 199 243 310
#     4  11  21  34  51  77 107 136 173 216 268 311
#     4  11  21  33  50  78 110 138 170 216 267 315
#
# _framework density 18.760911
#
# number of rings (size 3 to 8) (size 9 to 14) (size 15 to 20)
#    0.000    2.000    2.857    3.000    0.000    1.143 
#    0.000    0.000    0.000    0.857    0.000    0.000 
#    0.000    0.000    0.000    0.000    0.000    0.000 
#
# Total GULP energy -155891.350395 kJ/mol
# GULP energy per Si atom -5567.548228 kJ/mol
# Density = 1.871821 g / cm^3
# Si number density = 18.760911 Si / 1000 Ang^3
#
#
#
# Elastic Constant Matrix: (Units=GPa)
#
#
# Indices 1 2 3 4 5 6 
#
# 1 19.4608 -1.8379 8.4299 0.0000 1.1969 0.0000
# 2 -1.8379 48.2913 23.2357 0.0000 -7.9972 0.0000
# 3 8.4299 23.2357 85.1749 0.0000 -19.5930 0.0000
# 4 0.0000 0.0000 0.0000 35.5382 0.0000 -6.3708
# 5 1.1969 -7.9972 -19.5930 0.0000 35.2291 0.0000
# 6 0.0000 0.0000 0.0000 -6.3708 0.0000 18.0460
#
#
#
# Elastic Compliance Matrix: (Units=1/GPa)
#
#
# Indices 1 2 3 4 5 6 
#
# 1 0.055716 0.005164 -0.008129 0.000000 -0.005242 0.000000
# 2 0.005164 0.024446 -0.006816 0.000000 0.001583 0.000000
# 3 -0.008129 -0.006816 0.016182 0.000000 0.007729 0.000000
# 4 0.000000 0.000000 0.000000 0.030040 0.000000 0.010605
# 5 -0.005242 0.001583 0.007729 0.000000 0.033222 0.000000
# 6 0.000000 0.000000 0.000000 0.010605 0.000000 0.059158
#
#
# Mechanical properties :
#
#
# Convention : Reuss Voigt Hill
#
# Bulk Modulus (GPa) = 13.02371 23.62028 18.32199
# Shear Modulus (GPa) = 18.94516 25.96928 22.45722
#
# Velocity S-wave (km/s) = 3.18122 3.72455 3.46355
# Velocity P-wave (km/s) = 4.52223 5.57798 5.07762
#
# Compressibility (1/GPa) = 0.07678301
#
# Stress axis : x y z
#
# Youngs Moduli (GPa) = 17.94802 40.90692 61.79607
#
# Poissons Ratio (x) = -0.21123 0.50232
# Poissons Ratio (y) = -0.09268 0.42118
# Poissons Ratio (z) = 0.14589 0.27881
#
# Static dielectric constant tensor:
#      x y z
#    x 1.730570 0.000000 0.050450 
#    y 0.000000 1.696400 0.000000 
#    z 0.050450 0.000000 1.691480 
# 
# From -- ./inp_files/124135.got.cif
#   From: 2010.05.17/outbox.cif.g08.bks.cpg/sg15_63_cif.got.tgz:124135.got - 2010.06.03 18:47:42.
