data_PCOD9258476
_publ_section_title
;
Structure prediction by ZEFSAII (Michael W. Deem and Ramdas Pophale) SiO2 
 PCOD9258476
Probable space group: C 2/C
;
_chemical_formula_sum "Si O2"
_cell_formula_units_Z 56
_cell_length_a 11.885966
_cell_length_b 15.786980
_cell_length_c 14.918811
_cell_angle_alpha 90.000000
_cell_angle_beta 61.089649
_cell_angle_gamma 90.000000
_cell_volume 2450.546721
_symmetry_space_group_name_H-M "C 2/C"
_symmetry_group_IT_number 15
_symmetry_cell_setting 'monoclinic'
loop_
_space_group_symop_operation_xyz
x,y,z
-x,y,1/2-z
-x,-y,-z
x,-y,1/2+z
1/2+x,1/2+y,z
1/2-x,1/2+y,1/2-z
1/2-x,1/2-y,-z
1/2+x,1/2-y,1/2+z
loop_
_atom_site_type_symbol
_atom_site_label
_atom_site_fract_x
_atom_site_fract_y
_atom_site_fract_z
Si Si1 0.107834 0.283606 0.567045
Si Si2 0.913543 0.961780 0.857133
Si Si3 0.518013 0.871434 0.049604
Si Si4 0.498831 0.377995 0.076037
Si Si5 0.746592 0.615357 0.937984
Si Si6 0.762777 0.577874 0.371926
Si Si7 0.827041 0.513544 0.153452
O O1 0.250000 0.250000 0.500000
O O2 0.031601 0.200742 0.626913
O O3 0.128466 0.363366 0.623933
O O4 0.051703 0.307352 0.490755
O O5 0.995019 0.030020 0.880958
O O6 0.000000 0.919810 0.750000
O O7 0.800479 0.013444 0.851031
O O8 0.847399 0.891039 0.941109
O O9 0.623295 0.839651 0.080855
O O10 0.414698 0.931857 0.138148
O O11 0.596059 0.929067 0.947482
O O12 0.354569 0.359025 0.098430
O O13 0.619292 0.388965 0.957551
O O14 0.778808 0.516534 0.905941
O O15 0.787362 0.565970 0.256806
#
# Coordination Sequence:
#
# PCOD9258476 Si02
#       7
#     8   8   8   8   8   8   8
#     4  10  21  38  57  81 117 158 193 240 309 362
#     4  10  18  33  57  87 118 149 196 251 294 342
#     4  10  21  35  54  84 115 152 196 242 296 346
#     4  10  20  36  57  86 123 159 191 237 307 364
#     4  10  20  34  57  86 115 150 202 247 290 352
#     4  10  19  35  61  86 112 151 202 248 296 345
#     4  10  19  34  58  86 114 144 197 254 286 336
#
# _framework density 22.852043999999999
#
# number of rings (size 3 to 8) (size 9 to 14) (size 15 to 20)
#    0.000    2.000    0.000    7.714    0.000    2.857 
#    2.571    0.000    3.143    0.000   18.571    0.000 
#    0.000    0.000    0.000    0.000    0.000    0.000 
#
# Total GULP energy -156162.320835 kJ/mol
# GULP energy per Si atom -5577.225744 kJ/mol
# Density = 2.280003 g / cm^3
# Si number density = 22.852044 Si / 1000 Ang^3
#
#
#
# Elastic Constant Matrix: (Units=GPa)
#
#
# Indices 1 2 3 4 5 6 
#
# 1 142.9217 12.4536 0.0654 0.0000 23.0486 0.0000
# 2 12.4536 47.7256 2.6867 0.0000 5.9114 0.0000
# 3 0.0654 2.6867 56.3349 0.0000 2.2956 0.0000
# 4 0.0000 0.0000 0.0000 4.0189 0.0000 10.6744
# 5 23.0486 5.9114 2.2956 0.0000 22.6441 0.0000
# 6 0.0000 0.0000 0.0000 10.6744 0.0000 38.3149
#
#
#
# Elastic Compliance Matrix: (Units=1/GPa)
#
#
# Indices 1 2 3 4 5 6 
#
# 1 0.008443 -0.001194 0.000386 0.000000 -0.008321 0.000000
# 2 -0.001194 0.021859 -0.000862 0.000000 -0.004403 0.000000
# 3 0.000386 -0.000862 0.017872 0.000000 -0.001980 0.000000
# 4 0.000000 0.000000 0.000000 0.956866 0.000000 -0.266580
# 5 -0.008321 -0.004403 -0.001980 0.000000 0.053981 0.000000
# 6 0.000000 0.000000 0.000000 -0.266580 0.000000 0.100368
#
#
# Mechanical properties :
#
#
# Convention : Reuss Voigt Hill
#
# Bulk Modulus (GPa) = 22.30430 30.82151 26.56290
# Shear Modulus (GPa) = 4.24566 28.44736 16.34651
#
# Velocity S-wave (km/s) = 1.36452 3.53207 2.67745
# Velocity P-wave (km/s) = 3.50201 5.49097 4.60515
#
# Compressibility (1/GPa) = 0.04483441
#
# Stress axis : x y z
#
# Youngs Moduli (GPa) = 118.44698 45.74847 55.95252
#
# Poissons Ratio (x) = 0.05463 -0.02161
# Poissons Ratio (y) = 0.14144 0.04821
# Poissons Ratio (z) = -0.04574 0.03942
#
# Static dielectric constant tensor:
#      x y z
#    x 1.937300 0.000000 0.010410 
#    y 0.000000 1.854450 0.000000 
#    z 0.010410 0.000000 1.890820 
# 
# From -- ./inp_files/145569.got.cif
#   From: 2010.05.17/outbox.cif.g08.bks.cpg/sg15_73_cif.got.tgz:145569.got - 2010.06.03 18:47:42.
