data_PCOD9258568
_publ_section_title
;
Structure prediction by ZEFSAII (Michael W. Deem and Ramdas Pophale) SiO2 
 PCOD9258568
Probable space group: C 2/C
;
_chemical_formula_sum "Si O2"
_cell_formula_units_Z 32
_cell_length_a 9.965866
_cell_length_b 9.279363
_cell_length_c 14.833582
_cell_angle_alpha 90.000000
_cell_angle_beta 104.214820
_cell_angle_gamma 90.000000
_cell_volume 1329.762667
_symmetry_space_group_name_H-M "C 2/C"
_symmetry_group_IT_number 15
_symmetry_cell_setting 'monoclinic'
loop_
_space_group_symop_operation_xyz
x,y,z
-x,y,1/2-z
-x,-y,-z
x,-y,1/2+z
1/2+x,1/2+y,z
1/2-x,1/2+y,1/2-z
1/2-x,1/2-y,-z
1/2+x,1/2-y,1/2+z
loop_
_atom_site_type_symbol
_atom_site_label
_atom_site_fract_x
_atom_site_fract_y
_atom_site_fract_z
Si Si1 0.148164 0.304266 0.173642
Si Si2 0.431376 0.157423 0.499130
Si Si3 0.571031 0.302849 0.354383
Si Si4 0.803746 0.085814 0.159213
O O1 0.268576 0.253379 0.123414
O O2 0.165552 0.211842 0.266015
O O3 0.197023 0.471372 0.191937
O O4 0.997923 0.292235 0.104001
O O5 0.492392 0.253169 0.428729
O O6 0.273020 0.134530 0.444686
O O7 0.500000 0.000000 0.500000
O O8 0.500000 0.251413 0.250000
O O9 0.575111 0.476483 0.348618
#
# Coordination Sequence:
#
# PCOD9258568 Si02
#       4
#     8   8   8   8
#     4   9  19  33  58  81 120 155 198 245 302 347
#     4  10  18  33  59  92 116 156 204 246 294 360
#     4  10  19  34  59  84 121 158 196 243 306 346
#     4   9  19  34  58  86 119 159 198 248 301 351
#
# _framework density 24.064444000000002
#
# number of rings (size 3 to 8) (size 9 to 14) (size 15 to 20)
#    1.500    1.000    2.500    0.750    0.000    0.000 
#    0.000    5.000   11.000    3.000    0.000    0.000 
#    0.000    0.000    0.000    0.000    0.000    0.000 
#
# Total GULP energy -89283.539533 kJ/mol
# GULP energy per Si atom -5580.221221 kJ/mol
# Density = 2.400967 g / cm^3
# Si number density = 24.064444 Si / 1000 Ang^3
#
#
#
# Elastic Constant Matrix: (Units=GPa)
#
#
# Indices 1 2 3 4 5 6 
#
# 1 49.3013 4.7627 12.7319 0.0000 17.1597 0.0000
# 2 4.7627 108.0220 69.2943 0.0000 -1.5038 0.0000
# 3 12.7319 69.2943 147.8136 0.0000 31.5846 0.0000
# 4 0.0000 0.0000 0.0000 42.5156 0.0000 -5.4462
# 5 17.1597 -1.5038 31.5846 0.0000 49.4745 0.0000
# 6 0.0000 0.0000 0.0000 -5.4462 0.0000 31.8904
#
#
#
# Elastic Compliance Matrix: (Units=1/GPa)
#
#
# Indices 1 2 3 4 5 6 
#
# 1 0.023225 -0.001443 0.000471 0.000000 -0.008400 0.000000
# 2 -0.001443 0.014517 -0.007970 0.000000 0.006030 0.000000
# 3 0.000471 -0.007970 0.012214 0.000000 -0.008203 0.000000
# 4 0.000000 0.000000 0.000000 0.024047 0.000000 0.004107
# 5 -0.008400 0.006030 -0.008203 0.000000 0.028546 0.000000
# 6 0.000000 0.000000 0.000000 0.004107 0.000000 0.032059
#
#
# Mechanical properties :
#
#
# Convention : Reuss Voigt Hill
#
# Bulk Modulus (GPa) = 31.17974 53.19050 42.18512
# Shear Modulus (GPa) = 30.64063 39.33262 34.98662
#
# Velocity S-wave (km/s) = 3.57217 4.04724 3.81710
# Velocity P-wave (km/s) = 5.47711 6.63262 6.08236
#
# Compressibility (1/GPa) = 0.03207211
#
# Stress axis : x y z
#
# Youngs Moduli (GPa) = 43.05729 68.88259 81.87519
#
# Poissons Ratio (x) = 0.09939 -0.03855
# Poissons Ratio (y) = 0.06213 0.65253
# Poissons Ratio (z) = -0.02027 0.54898
#
# Static dielectric constant tensor:
#      x y z
#    x 1.989780 0.000000 0.067870 
#    y 0.000000 1.962480 0.000000 
#    z 0.067870 0.000000 1.953490 
# 
# From -- ./inp_files/84065.got.cif
#   From: 2010.05.17/outbox.cif.g08.bks.cpg/sg15_43_cif.got.tgz:84065.got - 2010.06.03 18:47:42.
