data_PCOD9258173
_publ_section_title
;
Structure prediction by ZEFSAII (Michael W. Deem and Ramdas Pophale) SiO2 
 PCOD9258173
Probable space group: C 2/C
;
_chemical_formula_sum "Si O2"
_cell_formula_units_Z 28
_cell_length_a 7.436514
_cell_length_b 12.101016
_cell_length_c 12.903708
_cell_angle_alpha 90.000000
_cell_angle_beta 110.279673
_cell_angle_gamma 90.000000
_cell_volume 1089.216313
_symmetry_space_group_name_H-M "C 2/C"
_symmetry_group_IT_number 15
_symmetry_cell_setting 'monoclinic'
loop_
_space_group_symop_operation_xyz
x,y,z
-x,y,1/2-z
-x,-y,-z
x,-y,1/2+z
1/2+x,1/2+y,z
1/2-x,1/2+y,1/2-z
1/2-x,1/2-y,-z
1/2+x,1/2-y,1/2+z
loop_
_atom_site_type_symbol
_atom_site_label
_atom_site_fract_x
_atom_site_fract_y
_atom_site_fract_z
Si Si1 0.500000 0.897273 0.250000
Si Si2 0.772582 0.083734 0.217265
Si Si3 0.813903 0.149152 0.444102
Si Si4 0.237734 0.397723 0.480992
O O1 0.663742 0.973346 0.230677
O O2 0.602089 0.841506 0.368344
O O3 0.753093 0.163793 0.311823
O O4 0.692268 0.123104 0.091672
O O5 0.000000 0.061790 0.250000
O O6 0.750000 0.250000 0.500000
O O7 0.042426 0.133140 0.495343
O O8 0.727941 0.030892 0.463350
#
# Coordination Sequence:
#
# PCOD9258173 Si02
#       4
#     4   8   8   8
#     4  10  18  32  64  96 128 190 236 266 364 432
#     4   9  18  34  62  96 131 179 235 287 347 421
#     4   9  18  35  65 102 134 183 244 297 347 423
#     4   9  18  34  63  98 137 186 235 283 366 422
#
# _framework density 25.706554000000001
#
# number of rings (size 3 to 8) (size 9 to 14) (size 15 to 20)
#    0.000    2.857    0.000    2.571    0.000    0.000 
#    0.000    0.000   97.429   30.857    0.000    0.000 
#    0.000    0.000    0.000    0.000    0.000    0.000 
#
# Total GULP energy -78482.136730 kJ/mol
# GULP energy per Si atom -5605.866909 kJ/mol
# Density = 2.564804 g / cm^3
# Si number density = 25.706554 Si / 1000 Ang^3
#
#
#
# Elastic Constant Matrix: (Units=GPa)
#
#
# Indices 1 2 3 4 5 6 
#
# 1 98.2190 43.3667 55.4292 0.0000 -5.2503 0.0000
# 2 43.3667 130.9287 55.7743 0.0000 -19.8312 0.0000
# 3 55.4292 55.7743 292.7277 0.0000 -10.8081 0.0000
# 4 0.0000 0.0000 0.0000 14.7023 0.0000 -3.4183
# 5 -5.2503 -19.8312 -10.8081 0.0000 43.8282 0.0000
# 6 0.0000 0.0000 0.0000 -3.4183 0.0000 40.4589
#
#
#
# Elastic Compliance Matrix: (Units=1/GPa)
#
#
# Indices 1 2 3 4 5 6 
#
# 1 0.012705 -0.003540 -0.001750 0.000000 -0.000511 0.000000
# 2 -0.003540 0.009834 -0.001064 0.000000 0.003763 0.000000
# 3 -0.001750 -0.001064 0.003961 0.000000 0.000286 0.000000
# 4 0.000000 0.000000 0.000000 0.069379 0.000000 0.005862
# 5 -0.000511 0.003763 0.000286 0.000000 0.024528 0.000000
# 6 0.000000 0.000000 0.000000 0.005862 0.000000 0.025212
#
#
# Mechanical properties :
#
#
# Convention : Reuss Voigt Hill
#
# Bulk Modulus (GPa) = 72.51518 92.33509 82.42514
# Shear Modulus (GPa) = 30.68916 44.28492 37.48704
#
# Velocity S-wave (km/s) = 3.45893 4.15506 3.82287
# Velocity P-wave (km/s) = 6.64999 7.68220 7.18465
#
# Compressibility (1/GPa) = 0.01379022
#
# Stress axis : x y z
#
# Youngs Moduli (GPa) = 78.71120 101.69149 252.46993
#
# Poissons Ratio (x) = 0.35999 0.44184
# Poissons Ratio (y) = 0.27864 0.26872
# Poissons Ratio (z) = 0.13775 0.10824
#
# Static dielectric constant tensor:
#      x y z
#    x 1.994910 0.000000 0.014430 
#    y 0.000000 1.994190 0.000000 
#    z 0.014430 0.000000 2.065700 
# 
# From -- ./inp_files/131453.got.cif
#   From: 2010.05.17/outbox.cif.g08.bks.cpg/sg15_66_cif.got.tgz:131453.got - 2010.06.03 18:47:42.
