data_PCOD9258849
_publ_section_title
;
Structure prediction by ZEFSAII (Michael W. Deem and Ramdas Pophale) SiO2 
 PCOD9258849
Probable space group: C 2/C
;
_chemical_formula_sum "Si O2"
_cell_formula_units_Z 56
_cell_length_a 16.238093
_cell_length_b 7.873026
_cell_length_c 29.819887
_cell_angle_alpha 90.000000
_cell_angle_beta 47.348366
_cell_angle_gamma 90.000000
_cell_volume 2803.868138
_symmetry_space_group_name_H-M "C 2/C"
_symmetry_group_IT_number 15
_symmetry_cell_setting 'monoclinic'
loop_
_space_group_symop_operation_xyz
x,y,z
-x,y,1/2-z
-x,-y,-z
x,-y,1/2+z
1/2+x,1/2+y,z
1/2-x,1/2+y,1/2-z
1/2-x,1/2-y,-z
1/2+x,1/2-y,1/2+z
loop_
_atom_site_type_symbol
_atom_site_label
_atom_site_fract_x
_atom_site_fract_y
_atom_site_fract_z
Si Si1 0.699759 0.534443 0.819271
Si Si2 0.705230 0.845171 0.878743
Si Si3 0.760379 0.468787 0.047721
Si Si4 0.944333 0.674849 0.933161
Si Si5 0.464824 0.245334 0.501314
Si Si6 0.685361 0.134683 0.815611
Si Si7 0.441166 0.545787 0.926143
O O1 0.731622 0.658839 0.848812
O O2 0.711643 0.330311 0.820150
O O3 0.764574 0.596813 0.751511
O O4 0.566318 0.565769 0.862104
O O5 0.570187 0.844707 0.937607
O O6 0.762177 0.892316 0.904781
O O7 0.729756 0.991601 0.833473
O O8 0.657117 0.364288 0.065063
O O9 0.842724 0.549528 0.979767
O O10 0.846380 0.344789 0.041427
O O11 0.901355 0.854278 0.931550
O O12 0.050114 0.614857 0.865498
O O13 0.998476 0.732902 0.960993
O O14 0.446708 0.409967 0.476783
#
# Coordination Sequence:
#
# PCOD9258849 Si02
#       7
#     8   8   8   8   8   8   8
#     4  10  22  34  59  84 104 147 192 237 268 328
#     4  10  19  36  57  82 111 143 190 229 268 334
#     4  11  19  35  55  83 116 146 171 229 293 327
#     4  10  19  34  56  78 107 149 185 226 272 331
#     4  10  18  34  56  80 110 145 184 220 273 330
#     4  11  18  35  58  82 105 143 200 229 270 322
#     4  10  22  33  52  89 113 141 180 230 285 328
#
# _framework density 19.97241
#
# number of rings (size 3 to 8) (size 9 to 14) (size 15 to 20)
#    0.000    1.714    4.286    2.143    0.000    1.143 
#    0.000    0.714    0.000    0.000    7.429    0.000 
#    0.000    0.000    0.000    0.000    0.000    0.000 
#
# Total GULP energy -155972.834728 kJ/mol
# GULP energy per Si atom -5570.458383 kJ/mol
# Density = 1.992695 g / cm^3
# Si number density = 19.972410 Si / 1000 Ang^3
#
#
#
# Elastic Constant Matrix: (Units=GPa)
#
#
# Indices 1 2 3 4 5 6 
#
# 1 74.2936 3.9381 18.6031 -0.0004 -0.7095 -0.0011
# 2 3.9381 73.2078 15.3969 -0.0011 -0.1877 -0.0011
# 3 18.6031 15.3969 90.1713 -0.0001 4.3252 -0.0001
# 4 -0.0004 -0.0011 -0.0001 27.7656 -0.0001 5.1232
# 5 -0.7095 -0.1877 4.3252 -0.0001 13.8930 -0.0003
# 6 -0.0011 -0.0011 -0.0001 5.1232 -0.0003 9.8379
#
#
#
# Elastic Compliance Matrix: (Units=1/GPa)
#
#
# Indices 1 2 3 4 5 6 
#
# 1 0.014232 -0.000132 -0.002993 0.000000 0.001657 0.000002
# 2 -0.000132 0.014182 -0.002440 0.000000 0.000944 0.000001
# 3 -0.002993 -0.002440 0.012317 0.000000 -0.004020 -0.000001
# 4 0.000000 0.000000 0.000000 0.039844 0.000000 -0.020749
# 5 0.001657 0.000944 -0.004020 0.000000 0.073328 0.000002
# 6 0.000002 0.000001 -0.000001 -0.020749 0.000002 0.112454
#
#
# Mechanical properties :
#
#
# Convention : Reuss Voigt Hill
#
# Bulk Modulus (GPa) = 33.78137 34.83876 34.31007
# Shear Modulus (GPa) = 17.40010 23.61492 20.50751
#
# Velocity S-wave (km/s) = 2.95482 3.44230 3.20784
# Velocity P-wave (km/s) = 5.34715 5.76893 5.56204
#
# Compressibility (1/GPa) = 0.02960212
#
# Stress axis : x y z
#
# Youngs Moduli (GPa) = 70.26205 70.50996 81.18878
#
# Poissons Ratio (x) = 0.00930 0.24302
# Poissons Ratio (y) = 0.00926 0.19808
# Poissons Ratio (z) = 0.21031 0.17203
#
# Static dielectric constant tensor:
#      x y z
#    x 1.730330 0.000000 0.007310 
#    y 0.000000 1.825770 0.000000 
#    z 0.007310 0.000000 1.696800 
# 
# From -- ./inp_files/247025.got.cif
#   From: 2010.05.17/outbox.cif.g08.bks.cpg/sg15_124_cif.got.tgz:247025.got - 2010.06.03 18:47:42.
