data_PCOD9258141
_publ_section_title
;
Structure prediction by ZEFSAII (Michael W. Deem and Ramdas Pophale) SiO2 
 PCOD9258141
Probable space group: C 2/C
;
_chemical_formula_sum "Si O2"
_cell_formula_units_Z 52
_cell_length_a 23.624713
_cell_length_b 15.473741
_cell_length_c 8.691617
_cell_angle_alpha 90.000000
_cell_angle_beta 123.441505
_cell_angle_gamma 90.000000
_cell_volume 2651.320194
_symmetry_space_group_name_H-M "C 2/C"
_symmetry_group_IT_number 15
_symmetry_cell_setting 'monoclinic'
loop_
_space_group_symop_operation_xyz
x,y,z
-x,y,1/2-z
-x,-y,-z
x,-y,1/2+z
1/2+x,1/2+y,z
1/2-x,1/2+y,1/2-z
1/2-x,1/2-y,-z
1/2+x,1/2-y,1/2+z
loop_
_atom_site_type_symbol
_atom_site_label
_atom_site_fract_x
_atom_site_fract_y
_atom_site_fract_z
Si Si1 0.586588 0.909444 0.638437
Si Si2 0.764420 0.516467 0.149101
Si Si3 0.750273 0.127557 0.658005
Si Si4 0.500000 0.006356 0.750000
Si Si5 0.358643 0.256129 0.161123
Si Si6 0.951874 0.952819 0.801507
Si Si7 0.624648 0.594438 0.025823
O O1 0.659553 0.950503 0.704468
O O2 0.534087 0.935502 0.430134
O O3 0.594790 0.807806 0.674134
O O4 0.557518 0.948963 0.753517
O O5 0.755565 0.416547 0.184448
O O6 0.754261 0.542084 0.955798
O O7 0.704787 0.574423 0.135846
O O8 0.692104 0.192437 0.510146
O O9 0.817780 0.180191 0.715167
O O10 0.392511 0.317276 0.086744
O O11 0.000000 0.904841 0.750000
O O12 0.910870 0.020463 0.632927
O O13 0.900580 0.904347 0.837225
O O14 0.000000 0.000000 0.000000
#
# Coordination Sequence:
#
# PCOD9258141 Si02
#       7
#     8   8   8   4   8   8   8
#     4  10  20  38  60  85 116 151 199 245 285 344
#     4  10  18  32  61  87 109 145 190 242 282 345
#     4   9  18  32  55  87 114 143 183 227 302 345
#     4  10  22  38  62  82 112 164 208 224 280 366
#     4   9  18  32  55  85 116 143 181 242 292 340
#     4   9  19  35  55  79 112 157 201 229 268 354
#     4  10  18  33  60  86 110 152 198 234 295 346
#
# _framework density 19.612870000000001
#
# number of rings (size 3 to 8) (size 9 to 14) (size 15 to 20)
#    0.000    2.462    0.000    4.615    0.000    0.000 
#    4.154    0.000    8.462   46.154    0.000    0.000 
#    0.000    0.000    0.000    0.000    0.000    0.000 
#
# Total GULP energy -144833.011933 kJ/mol
# GULP energy per Si atom -5570.500459 kJ/mol
# Density = 1.956823 g / cm^3
# Si number density = 19.612870 Si / 1000 Ang^3
#
#
#
# Elastic Constant Matrix: (Units=GPa)
#
#
# Indices 1 2 3 4 5 6 
#
# 1 119.5175 28.2962 23.4241 0.0000 -12.7532 0.0000
# 2 28.2962 97.3545 28.5806 0.0000 -11.1588 0.0000
# 3 23.4241 28.5806 41.9727 0.0000 -7.5929 0.0000
# 4 0.0000 0.0000 0.0000 28.6219 0.0000 -5.6658
# 5 -12.7532 -11.1588 -7.5929 0.0000 25.9251 0.0000
# 6 0.0000 0.0000 0.0000 -5.6658 0.0000 11.4439
#
#
#
# Elastic Compliance Matrix: (Units=1/GPa)
#
#
# Indices 1 2 3 4 5 6 
#
# 1 0.009793 -0.001316 -0.004013 0.000000 0.003076 0.000000
# 2 -0.001316 0.013260 -0.007792 0.000000 0.002778 0.000000
# 3 -0.004013 -0.007792 0.032108 0.000000 0.004076 0.000000
# 4 0.000000 0.000000 0.000000 0.038734 0.000000 0.019177
# 5 0.003076 0.002778 0.004076 0.000000 0.042475 0.000000
# 6 0.000000 0.000000 0.000000 0.019177 0.000000 0.096877
#
#
# Mechanical properties :
#
#
# Convention : Reuss Voigt Hill
#
# Bulk Modulus (GPa) = 34.57943 46.60519 40.59231
# Shear Modulus (GPa) = 18.57838 25.10110 21.83974
#
# Velocity S-wave (km/s) = 3.08109 3.58135 3.34060
# Velocity P-wave (km/s) = 5.50697 6.39653 5.96835
#
# Compressibility (1/GPa) = 0.02891893
#
# Stress axis : x y z
#
# Youngs Moduli (GPa) = 102.11168 75.41345 31.14488
#
# Poissons Ratio (x) = 0.09922 0.12499
# Poissons Ratio (y) = 0.13435 0.24270
# Poissons Ratio (z) = 0.40978 0.58766
#
# Static dielectric constant tensor:
#      x y z
#    x 1.759420 0.000000 -0.001960 
#    y 0.000000 1.671770 0.000000 
#    z -0.001960 0.000000 1.727530 
# 
# From -- ./inp_files/61675.got.cif
#   From: 2010.05.17/outbox.cif.g08.bks.cpg/sg15_31_cif.got.tgz:61675.got - 2010.06.03 18:47:42.
