data_PCOD9258419
_publ_section_title
;
Structure prediction by ZEFSAII (Michael W. Deem and Ramdas Pophale) SiO2 
 PCOD9258419
Probable space group: C 2/C
;
_chemical_formula_sum "Si O2"
_cell_formula_units_Z 52
_cell_length_a 11.989679
_cell_length_b 15.211873
_cell_length_c 20.174300
_cell_angle_alpha 90.000000
_cell_angle_beta 130.242460
_cell_angle_gamma 90.000000
_cell_volume 2808.626156
_symmetry_space_group_name_H-M "C 2/C"
_symmetry_group_IT_number 15
_symmetry_cell_setting 'monoclinic'
loop_
_space_group_symop_operation_xyz
x,y,z
-x,y,1/2-z
-x,-y,-z
x,-y,1/2+z
1/2+x,1/2+y,z
1/2-x,1/2+y,1/2-z
1/2-x,1/2-y,-z
1/2+x,1/2-y,1/2+z
loop_
_atom_site_type_symbol
_atom_site_label
_atom_site_fract_x
_atom_site_fract_y
_atom_site_fract_z
Si Si1 0.250583 0.736947 0.140053
Si Si2 0.540490 0.955570 0.120692
Si Si3 0.500000 0.026188 0.750000
Si Si4 0.711926 0.952947 0.582283
Si Si5 0.326123 0.419813 0.391661
Si Si6 0.522723 0.752149 0.152818
Si Si7 0.025984 0.064279 0.412161
O O1 0.177853 0.644257 0.097025
O O2 0.139939 0.817531 0.106949
O O3 0.357807 0.753348 0.118506
O O4 0.360088 0.733380 0.244297
O O5 0.548056 0.850586 0.136440
O O6 0.523885 0.008645 0.183924
O O7 0.680153 0.983604 0.131353
O O8 0.400516 0.973210 0.020319
O O9 0.348224 0.077103 0.682717
O O10 0.874060 0.951268 0.614021
O O11 0.401821 0.490732 0.373230
O O12 0.373099 0.444097 0.483940
O O13 0.530129 0.665033 0.110448
#
# Coordination Sequence:
#
# PCOD9258419 Si02
#       7
#     8   8   4   8   8   8   8
#     4  10  18  33  56  83 110 146 191 232 274 328
#     4  11  20  36  60  82 116 148 189 233 281 336
#     4  12  20  36  60  88 108 162 184 234 272 358
#     4  10  22  36  58  87 113 146 188 237 285 328
#     4  11  20  36  60  82 116 148 189 233 281 336
#     4  10  18  33  56  83 110 146 191 232 274 328
#     4  10  22  36  58  87 113 146 188 237 285 328
#
# _framework density 18.514389999999999
#
# number of rings (size 3 to 8) (size 9 to 14) (size 15 to 20)
#    0.000    1.538    4.615    0.923    2.154    2.462 
#    0.000    0.000    3.385    3.692    0.000    0.000 
#    0.000    0.000    0.000    0.000    0.000    0.000 
#
# Total GULP energy -144800.002250 kJ/mol
# GULP energy per Si atom -5569.230856 kJ/mol
# Density = 1.847225 g / cm^3
# Si number density = 18.514390 Si / 1000 Ang^3
#
#
#
# Elastic Constant Matrix: (Units=GPa)
#
#
# Indices 1 2 3 4 5 6 
#
# 1 78.7456 48.1857 19.0533 0.0000 -13.4150 0.0000
# 2 48.1857 93.1443 8.6451 0.0000 -4.4456 0.0000
# 3 19.0533 8.6451 59.2362 0.0000 -10.1104 0.0000
# 4 0.0000 0.0000 0.0000 14.3383 0.0000 -7.1428
# 5 -13.4150 -4.4456 -10.1104 0.0000 25.6568 0.0000
# 6 0.0000 0.0000 0.0000 -7.1428 0.0000 35.0273
#
#
#
# Elastic Compliance Matrix: (Units=1/GPa)
#
#
# Indices 1 2 3 4 5 6 
#
# 1 0.021273 -0.010262 -0.004020 0.000000 0.007761 0.000000
# 2 -0.010262 0.015877 0.000576 0.000000 -0.002387 0.000000
# 3 -0.004020 0.000576 0.019029 0.000000 0.005496 0.000000
# 4 0.000000 0.000000 0.000000 0.077630 0.000000 0.015830
# 5 0.007761 -0.002387 0.005496 0.000000 0.044786 0.000000
# 6 0.000000 0.000000 0.000000 0.015830 0.000000 0.031777
#
#
# Mechanical properties :
#
#
# Convention : Reuss Voigt Hill
#
# Bulk Modulus (GPa) = 34.76167 42.54381 38.65274
# Shear Modulus (GPa) = 20.21241 25.35395 22.78318
#
# Velocity S-wave (km/s) = 3.30769 3.70458 3.51175
# Velocity P-wave (km/s) = 5.77962 6.42862 6.11274
#
# Compressibility (1/GPa) = 0.02876731
#
# Stress axis : x y z
#
# Youngs Moduli (GPa) = 47.00756 62.98354 52.55209
#
# Poissons Ratio (x) = 0.64631 0.21128
# Poissons Ratio (y) = 0.48237 -0.03027
# Poissons Ratio (z) = 0.18899 -0.03628
#
# Static dielectric constant tensor:
#      x y z
#    x 1.647990 0.000000 -0.025560 
#    y 0.000000 1.661830 0.000000 
#    z -0.025560 0.000000 1.687920 
# 
# From -- ./inp_files/238830.got.cif
#   From: 2010.05.17/outbox.cif.g08.bks.cpg/sg15_120_cif.got.tgz:238830.got - 2010.06.03 18:47:42.
