data_PCOD9258522
_publ_section_title
;
Structure prediction by ZEFSAII (Michael W. Deem and Ramdas Pophale) SiO2 
 PCOD9258522
Probable space group: C 2/C
;
_chemical_formula_sum "Si O2"
_cell_formula_units_Z 36
_cell_length_a 31.164360
_cell_length_b 14.503530
_cell_length_c 8.942359
_cell_angle_alpha 90.000000
_cell_angle_beta 151.698548
_cell_angle_gamma 90.000000
_cell_volume 1916.300554
_symmetry_space_group_name_H-M "C 2/C"
_symmetry_group_IT_number 15
_symmetry_cell_setting 'monoclinic'
loop_
_space_group_symop_operation_xyz
x,y,z
-x,y,1/2-z
-x,-y,-z
x,-y,1/2+z
1/2+x,1/2+y,z
1/2-x,1/2+y,1/2-z
1/2-x,1/2-y,-z
1/2+x,1/2-y,1/2+z
loop_
_atom_site_type_symbol
_atom_site_label
_atom_site_fract_x
_atom_site_fract_y
_atom_site_fract_z
Si Si1 0.678368 0.255632 0.143994
Si Si2 0.240939 0.906132 0.097012
Si Si3 0.768856 0.572817 0.362492
Si Si4 0.500000 0.780620 0.250000
Si Si5 0.583489 0.934667 0.715274
O O1 0.750000 0.250000 0.500000
O O2 0.703200 0.332039 0.097505
O O3 0.684390 0.156717 0.079814
O O4 0.579278 0.272469 0.908223
O O5 0.350971 0.900227 0.450981
O O6 0.216244 0.008442 0.082379
O O7 0.216843 0.893995 0.849969
O O8 0.844709 0.499364 0.651375
O O9 0.549773 0.848846 0.518242
O O10 0.500000 0.000000 0.500000
#
# Coordination Sequence:
#
# PCOD9258522 Si02
#       5
#     8   8   8   4   8
#     4  12  22  37  58  86 123 160 194 242 296 355
#     4  10  21  35  57  87 115 156 190 244 300 352
#     4  10  20  37  59  87 117 153 195 244 299 353
#     4  12  20  38  56  90 122 158 196 244 298 354
#     4  10  18  33  58  89 115 144 188 249 303 338
#
# _framework density 18.786197000000001
#
# number of rings (size 3 to 8) (size 9 to 14) (size 15 to 20)
#    1.333    0.000    4.444    4.667    0.000    0.000 
#    0.000    0.000    0.000    5.333    0.000    0.000 
#    0.000    0.000    0.000    0.000    0.000    0.000 
#
# Total GULP energy -100206.629133 kJ/mol
# GULP energy per Si atom -5567.034952 kJ/mol
# Density = 1.874344 g / cm^3
# Si number density = 18.786197 Si / 1000 Ang^3
#
#
#
# Elastic Constant Matrix: (Units=GPa)
#
#
# Indices 1 2 3 4 5 6 
#
# 1 96.8176 11.5382 22.7853 0.0000 5.7290 0.0000
# 2 11.5382 38.3723 1.4557 0.0000 15.6220 0.0000
# 3 22.7853 1.4557 37.0029 0.0000 3.6871 0.0000
# 4 0.0000 0.0000 0.0000 17.0589 0.0000 6.8385
# 5 5.7290 15.6220 3.6871 0.0000 26.6496 0.0000
# 6 0.0000 0.0000 0.0000 6.8385 0.0000 43.5373
#
#
#
# Elastic Compliance Matrix: (Units=1/GPa)
#
#
# Indices 1 2 3 4 5 6 
#
# 1 0.012532 -0.003693 -0.007624 0.000000 0.000526 0.000000
# 2 -0.003693 0.035334 0.002909 0.000000 -0.020321 0.000000
# 3 -0.007624 0.002909 0.032054 0.000000 -0.004501 0.000000
# 4 0.000000 0.000000 0.000000 0.062559 0.000000 -0.009826
# 5 0.000526 -0.020321 -0.004501 0.000000 0.049946 0.000000
# 6 0.000000 0.000000 0.000000 -0.009826 0.000000 0.024512
#
#
# Mechanical properties :
#
#
# Convention : Reuss Voigt Hill
#
# Bulk Modulus (GPa) = 15.84710 27.08348 21.46529
# Shear Modulus (GPa) = 19.62422 26.54340 23.08381
#
# Velocity S-wave (km/s) = 3.23555 3.76296 3.50918
# Velocity P-wave (km/s) = 4.73415 5.77303 5.27920
#
# Compressibility (1/GPa) = 0.06310301
#
# Stress axis : x y z
#
# Youngs Moduli (GPa) = 79.79613 28.30165 31.19782
#
# Poissons Ratio (x) = 0.10452 0.23785
# Poissons Ratio (y) = 0.29469 -0.09075
# Poissons Ratio (z) = 0.60836 -0.08232
#
# Static dielectric constant tensor:
#      x y z
#    x 1.735360 0.000000 -0.068150 
#    y 0.000000 1.666100 0.000000 
#    z -0.068150 0.000000 1.740050 
# 
# From -- ./inp_files/37652.got.cif
#   From: 2010.05.17/outbox.cif.g08.bks.cpg/sg15_19_cif.got.tgz:37652.got - 2010.06.03 18:47:42.
