data_PCOD9258512
_publ_section_title
;
Structure prediction by ZEFSAII (Michael W. Deem and Ramdas Pophale) SiO2 
 PCOD9258512
Probable space group: C 2/C
;
_chemical_formula_sum "Si O2"
_cell_formula_units_Z 56
_cell_length_a 32.624519
_cell_length_b 5.661658
_cell_length_c 22.670399
_cell_angle_alpha 90.000000
_cell_angle_beta 146.632688
_cell_angle_gamma 90.000000
_cell_volume 2303.101319
_symmetry_space_group_name_H-M "C 2/C"
_symmetry_group_IT_number 15
_symmetry_cell_setting 'monoclinic'
loop_
_space_group_symop_operation_xyz
x,y,z
-x,y,1/2-z
-x,-y,-z
x,-y,1/2+z
1/2+x,1/2+y,z
1/2-x,1/2+y,1/2-z
1/2-x,1/2-y,-z
1/2+x,1/2-y,1/2+z
loop_
_atom_site_type_symbol
_atom_site_label
_atom_site_fract_x
_atom_site_fract_y
_atom_site_fract_z
Si Si1 0.909821 0.661672 0.635986
Si Si2 0.658534 0.231778 0.626041
Si Si3 0.432693 0.344128 0.121250
Si Si4 0.266022 0.979956 0.681956
Si Si5 0.010155 0.379628 0.926989
Si Si6 0.603388 0.604857 0.650085
Si Si7 0.626965 0.214659 0.774498
O O1 0.889736 0.399504 0.588159
O O2 0.873856 0.715771 0.656229
O O3 0.000000 0.646501 0.750000
O O4 0.895217 0.895930 0.579527
O O5 0.691537 0.334257 0.605555
O O6 0.594390 0.034754 0.540609
O O7 0.616589 0.437874 0.610810
O O8 0.722981 0.151906 0.748344
O O9 0.500000 0.361918 0.250000
O O10 0.472629 0.294030 0.107082
O O11 0.330164 0.787903 0.766952
O O12 0.295043 0.114655 0.658765
O O13 0.973607 0.245374 0.938246
O O14 0.945722 0.557061 0.829721
O O15 0.612040 0.453385 0.720702
#
# Coordination Sequence:
#
# PCOD9258512 Si02
#       7
#     8   8   8   8   8   8   8
#     4  10  18  33  58  85 124 157 196 249 309 371
#     4  11  22  40  59  83 124 161 208 244 303 369
#     4  10  19  34  57  90 126 158 191 250 318 367
#     4  10  22  39  58  82 117 170 204 240 304 379
#     4  11  22  35  59  96 119 152 203 262 303 359
#     4  10  21  37  60  84 119 154 199 251 307 360
#     4  10  21  36  58  91 116 154 206 251 309 368
#
# _framework density 24.31504
#
# number of rings (size 3 to 8) (size 9 to 14) (size 15 to 20)
#    0.000    1.714    4.286    2.143    2.000    6.286 
#    0.000    0.000    0.000    1.714    0.000    0.000 
#    0.000    0.000    0.000    0.000    0.000    0.000 
#
# Total GULP energy -156332.940295 kJ/mol
# GULP energy per Si atom -5583.319296 kJ/mol
# Density = 2.425970 g / cm^3
# Si number density = 24.315040 Si / 1000 Ang^3
#
#
#
# Elastic Constant Matrix: (Units=GPa)
#
#
# Indices 1 2 3 4 5 6 
#
# 1 144.6912 22.5800 23.1489 0.0004 13.0557 0.0012
# 2 22.5800 97.6751 4.8419 0.0001 5.2975 0.0026
# 3 23.1489 4.8419 30.8525 -0.0007 9.7140 0.0000
# 4 0.0004 0.0001 -0.0007 14.6900 -0.0004 -4.6903
# 5 13.0557 5.2975 9.7140 -0.0004 33.9785 -0.0001
# 6 0.0012 0.0026 0.0000 -4.6903 -0.0001 44.8869
#
#
#
# Elastic Compliance Matrix: (Units=1/GPa)
#
#
# Indices 1 2 3 4 5 6 
#
# 1 0.008144 -0.001540 -0.005449 -0.000001 -0.001331 0.000000
# 2 -0.001540 0.010659 -0.000198 0.000000 -0.001013 -0.000001
# 3 -0.005449 -0.000198 0.039411 0.000002 -0.009142 0.000000
# 4 -0.000001 0.000000 0.000002 0.070423 0.000001 0.007359
# 5 -0.001331 -0.001013 -0.009142 0.000001 0.032713 0.000000
# 6 0.000000 -0.000001 0.000000 0.007359 0.000000 0.023047
#
#
# Mechanical properties :
#
#
# Convention : Reuss Voigt Hill
#
# Bulk Modulus (GPa) = 22.81144 41.59559 32.20352
# Shear Modulus (GPa) = 23.43186 33.55429 28.49307
#
# Velocity S-wave (km/s) = 3.10768 3.71884 3.42691
# Velocity P-wave (km/s) = 4.72005 5.96521 5.37879
#
# Compressibility (1/GPa) = 0.04383766
#
# Stress axis : x y z
#
# Youngs Moduli (GPa) = 122.79612 93.81860 25.37386
#
# Poissons Ratio (x) = 0.14451 0.13827
# Poissons Ratio (y) = 0.18914 0.00502
# Poissons Ratio (z) = 0.66917 0.01858
#
# Static dielectric constant tensor:
#      x y z
#    x 1.962030 0.000000 -0.030710 
#    y 0.000000 1.989950 0.000000 
#    z -0.030710 0.000000 2.003970 
# 
# From -- ./inp_files/303937.got.cif
#   From: 2010.05.17/outbox.cif.g08.bks.cpg/sg15_152_cif.got.tgz:303937.got - 2010.06.03 18:47:42.
