data_PCOD9258124
_publ_section_title
;
Structure prediction by ZEFSAII (Michael W. Deem and Ramdas Pophale) SiO2 
 PCOD9258124
Probable space group: C 2/C
;
_chemical_formula_sum "Si O2"
_cell_formula_units_Z 56
_cell_length_a 23.668653
_cell_length_b 15.465323
_cell_length_c 10.556694
_cell_angle_alpha 90.000000
_cell_angle_beta 49.815691
_cell_angle_gamma 90.000000
_cell_volume 2952.149502
_symmetry_space_group_name_H-M "C 2/C"
_symmetry_group_IT_number 15
_symmetry_cell_setting 'monoclinic'
loop_
_space_group_symop_operation_xyz
x,y,z
-x,y,1/2-z
-x,-y,-z
x,-y,1/2+z
1/2+x,1/2+y,z
1/2-x,1/2+y,1/2-z
1/2-x,1/2-y,-z
1/2+x,1/2-y,1/2+z
loop_
_atom_site_type_symbol
_atom_site_label
_atom_site_fract_x
_atom_site_fract_y
_atom_site_fract_z
Si Si1 0.494342 0.937255 0.124074
Si Si2 0.250555 0.508855 0.115709
Si Si3 0.078746 0.825792 0.472879
Si Si4 0.350481 0.845590 0.625025
Si Si5 0.091508 0.173573 0.260340
Si Si6 0.164428 0.653292 0.642970
Si Si7 0.152437 0.993796 0.271575
O O1 0.500000 0.985847 0.250000
O O2 0.417658 0.887165 0.230657
O O3 0.564995 0.875566 0.018288
O O4 0.500000 0.000000 0.000000
O O5 0.190120 0.583740 0.230054
O O6 0.215647 0.413204 0.144531
O O7 0.301591 0.505703 0.165723
O O8 0.294930 0.528686 0.923259
O O9 0.137065 0.752033 0.345511
O O10 0.089958 0.833855 0.609109
O O11 0.096572 0.915648 0.379619
O O12 0.992374 0.803033 0.578436
O O13 0.314571 0.846166 0.536489
O O14 0.151240 0.248323 0.205349
O O15 0.113255 0.083018 0.290120
#
# Coordination Sequence:
#
# PCOD9258124 Si02
#       7
#     8   8   8   8   8   8   8
#     4  10  18  32  60  90 118 153 197 256 304 350
#     4  12  24  39  62  93 132 166 197 244 315 377
#     4  10  21  41  68  92 117 161 212 264 304 349
#     4  10  20  37  63  93 123 156 204 253 307 365
#     4  10  21  41  69  91 116 161 218 259 297 359
#     4  10  20  37  64  93 119 158 210 250 301 367
#     4  12  25  42  61  90 129 168 203 251 305 370
#
# _framework density 18.96923
#
# number of rings (size 3 to 8) (size 9 to 14) (size 15 to 20)
#    0.000    1.429    5.714    0.429    0.000    2.286 
#    0.000    0.000    0.000    0.000    0.000    0.000 
#    0.000    0.000    0.000    0.000    0.000    0.000 
#
# Total GULP energy -156244.155001 kJ/mol
# GULP energy per Si atom -5580.148393 kJ/mol
# Density = 1.892605 g / cm^3
# Si number density = 18.969230 Si / 1000 Ang^3
#
#
#
# Elastic Constant Matrix: (Units=GPa)
#
#
# Indices 1 2 3 4 5 6 
#
# 1 60.4586 21.8387 10.2556 0.0000 4.0072 0.0000
# 2 21.8387 134.2457 30.7034 0.0000 3.0352 0.0000
# 3 10.2556 30.7034 73.1138 0.0000 -2.6250 0.0000
# 4 0.0000 0.0000 0.0000 -18.6797 0.0000 27.6915
# 5 4.0072 3.0352 -2.6250 0.0000 23.9424 0.0000
# 6 0.0000 0.0000 0.0000 27.6915 0.0000 21.0295
#
#
#
# Elastic Compliance Matrix: (Units=1/GPa)
#
#
# Indices 1 2 3 4 5 6 
#
# 1 0.017894 -0.002488 -0.001568 0.000000 -0.002851 0.000000
# 2 -0.002488 0.008635 -0.003315 0.000000 -0.001042 0.000000
# 3 -0.001568 -0.003315 0.015374 0.000000 0.002368 0.000000
# 4 0.000000 0.000000 0.000000 -0.018134 0.000000 0.023879
# 5 -0.002851 -0.001042 0.002368 0.000000 0.042636 0.000000
# 6 0.000000 0.000000 0.000000 0.023879 0.000000 0.016108
#
#
# Mechanical properties :
#
#
# Convention : Reuss Voigt Hill
#
# Bulk Modulus (GPa) = 36.81482 43.71260 40.26371
# Shear Modulus (GPa) = 47.03325 18.92648 32.97986
#
# Velocity S-wave (km/s) = 4.98481 3.16214 4.17417
# Velocity P-wave (km/s) = 7.25127 6.03541 6.67110
#
# Compressibility (1/GPa) = 0.02716297
#
# Stress axis : x y z
#
# Youngs Moduli (GPa) = 55.88524 115.80187 65.04393
#
# Poissons Ratio (x) = 0.28811 0.10196
# Poissons Ratio (y) = 0.13904 0.21561
# Poissons Ratio (z) = 0.08760 0.38386
#
# Static dielectric constant tensor:
#      x y z
#    x 1.664740 0.000000 -0.030180 
#    y 0.000000 1.693270 0.000000 
#    z -0.030180 0.000000 1.636010 
# 
# From -- ./inp_files/55658.got.cif
#   From: 2010.05.17/outbox.cif.g08.bks.cpg/sg15_28_cif.got.tgz:55658.got - 2010.06.03 18:47:42.
