data_PCOD9258448
_publ_section_title
;
Structure prediction by ZEFSAII (Michael W. Deem and Ramdas Pophale) SiO2 
 PCOD9258448
Probable space group: C 2/C
;
_chemical_formula_sum "Si O2"
_cell_formula_units_Z 36
_cell_length_a 10.571994
_cell_length_b 18.410864
_cell_length_c 7.981440
_cell_angle_alpha 90.000000
_cell_angle_beta 106.307560
_cell_angle_gamma 90.000000
_cell_volume 1491.003663
_symmetry_space_group_name_H-M "C 2/C"
_symmetry_group_IT_number 15
_symmetry_cell_setting 'monoclinic'
loop_
_space_group_symop_operation_xyz
x,y,z
-x,y,1/2-z
-x,-y,-z
x,-y,1/2+z
1/2+x,1/2+y,z
1/2-x,1/2+y,1/2-z
1/2-x,1/2-y,-z
1/2+x,1/2-y,1/2+z
loop_
_atom_site_type_symbol
_atom_site_label
_atom_site_fract_x
_atom_site_fract_y
_atom_site_fract_z
Si Si1 0.783626 0.087069 0.541399
Si Si2 0.098178 0.222327 0.438287
Si Si3 0.500000 0.305549 0.250000
Si Si4 0.001223 0.415581 0.450290
Si Si5 0.207641 0.918424 0.847461
O O1 0.633802 0.111822 0.520680
O O2 0.815463 0.089271 0.357677
O O3 0.876660 0.141839 0.672815
O O4 0.801209 0.003194 0.606235
O O5 0.250000 0.250000 0.500000
O O6 0.029419 0.236981 0.590296
O O7 0.115473 0.135240 0.417655
O O8 0.000000 0.247039 0.250000
O O9 0.142973 0.391177 0.565581
O O10 0.000000 0.410254 0.250000
O O11 0.000000 0.500000 0.500000
#
# Coordination Sequence:
#
# PCOD9258448 Si02
#       5
#     8   8   4   8   8
#     4  11  22  38  72 111 147 183 232 305 381 441
#     4  12  29  53  74 106 146 198 257 305 363 443
#     4  12  26  48  78 108 144 186 244 306 380 432
#     4  10  18  33  56  96 141 183 224 278 355 434
#     4  11  22  42  69 107 147 186 237 300 374 442
#
# _framework density 24.144808999999999
#
# number of rings (size 3 to 8) (size 9 to 14) (size 15 to 20)
#    0.000    0.889    2.222    8.667    1.556    5.333 
#    4.000    0.000    0.000    0.000    0.000    0.000 
#    0.000    0.000    0.000    0.000    0.000    0.000 
#
# Total GULP energy -100800.806579 kJ/mol
# GULP energy per Si atom -5600.044810 kJ/mol
# Density = 2.408985 g / cm^3
# Si number density = 24.144809 Si / 1000 Ang^3
#
#
#
# Elastic Constant Matrix: (Units=GPa)
#
#
# Indices 1 2 3 4 5 6 
#
# 1 148.6550 34.8198 53.7118 0.0000 9.9833 0.0000
# 2 34.8198 94.0103 23.7078 0.0000 1.9080 0.0000
# 3 53.7118 23.7078 180.5731 0.0000 -10.2002 0.0000
# 4 0.0000 0.0000 0.0000 -15.2220 0.0000 0.8997
# 5 9.9833 1.9080 -10.2002 0.0000 60.4198 0.0000
# 6 0.0000 0.0000 0.0000 0.8997 0.0000 36.5001
#
#
#
# Elastic Compliance Matrix: (Units=1/GPa)
#
#
# Indices 1 2 3 4 5 6 
#
# 1 0.008212 -0.002450 -0.002214 0.000000 -0.001653 0.000000
# 2 -0.002450 0.011753 -0.000820 0.000000 -0.000105 0.000000
# 3 -0.002214 -0.000820 0.006387 0.000000 0.001470 0.000000
# 4 0.000000 0.000000 0.000000 -0.065599 0.000000 0.001617
# 5 -0.001653 -0.000105 0.001470 0.000000 0.017076 0.000000
# 6 0.000000 0.000000 0.000000 0.001617 0.000000 0.027357
#
#
# Mechanical properties :
#
#
# Convention : Reuss Voigt Hill
#
# Bulk Modulus (GPa) = 65.00314 71.96858 68.48586
# Shear Modulus (GPa) = 234.92225 37.07283 135.99754
#
# Velocity S-wave (km/s) = 9.87464 3.92272 7.51319
# Velocity P-wave (km/s) = 12.52964 7.09850 10.18284
#
# Compressibility (1/GPa) = 0.01538387
#
# Stress axis : x y z
#
# Youngs Moduli (GPa) = 121.77445 85.08148 156.55890
#
# Poissons Ratio (x) = 0.20841 0.34669
# Poissons Ratio (y) = 0.29829 0.12845
# Poissons Ratio (z) = 0.26966 0.06980
#
# Static dielectric constant tensor:
#      x y z
#    x 1.909050 0.000000 0.005680 
#    y 0.000000 1.908920 0.000000 
#    z 0.005680 0.000000 1.814480 
# 
# From -- ./inp_files/29882.got.cif
#   From: 2010.05.17/outbox.cif.g08.bks.cpg/sg15_15_cif.got.tgz:29882.got - 2010.06.03 18:47:42.
