data_PCOD9258861
_publ_section_title
;
Structure prediction by ZEFSAII (Michael W. Deem and Ramdas Pophale) SiO2 
 PCOD9258861
Probable space group: C 2/C
;
_chemical_formula_sum "Si O2"
_cell_formula_units_Z 60
_cell_length_a 12.453075
_cell_length_b 23.383744
_cell_length_c 18.122863
_cell_angle_alpha 90.000000
_cell_angle_beta 145.053959
_cell_angle_gamma 90.000000
_cell_volume 3022.901936
_symmetry_space_group_name_H-M "C 2/C"
_symmetry_group_IT_number 15
_symmetry_cell_setting 'monoclinic'
loop_
_space_group_symop_operation_xyz
x,y,z
-x,y,1/2-z
-x,-y,-z
x,-y,1/2+z
1/2+x,1/2+y,z
1/2-x,1/2+y,1/2-z
1/2-x,1/2-y,-z
1/2+x,1/2-y,1/2+z
loop_
_atom_site_type_symbol
_atom_site_label
_atom_site_fract_x
_atom_site_fract_y
_atom_site_fract_z
Si Si1 0.220282 0.215401 0.373149
Si Si2 0.365694 0.622819 0.742324
Si Si3 0.263033 0.663084 0.960787
Si Si4 0.500000 0.933405 0.250000
Si Si5 0.088443 0.907368 0.585242
Si Si6 0.298577 0.525338 0.812952
Si Si7 0.803133 0.173931 0.472449
Si Si8 0.918134 0.302161 0.508783
O O1 0.235221 0.284156 0.389220
O O2 0.288110 0.187650 0.488257
O O3 0.362518 0.197061 0.388826
O O4 0.000000 0.201130 0.250000
O O5 0.500000 0.607502 0.750000
O O6 0.289565 0.565747 0.737320
O O7 0.502637 0.656687 0.875900
O O8 0.199212 0.661589 0.617018
O O9 0.135912 0.609429 0.869611
O O10 0.471271 0.638705 0.065909
O O11 0.388579 0.970942 0.244921
O O12 0.224587 0.871690 0.608363
O O13 0.953181 0.942398 0.451764
O O14 0.160999 0.958845 0.676576
O O15 0.838658 0.237352 0.461508
O O16 0.641285 0.175929 0.443320
#
# Coordination Sequence:
#
# PCOD9258861 Si02
#       8
#     8   8   8   4   8   8   8   8
#     4  11  22  34  51  81 119 161 191 227 285 355
#     4   9  18  33  56  86 112 150 194 236 295 347
#     4  10  20  34  55  79 113 151 189 239 286 348
#     4  10  18  34  56  84 106 144 192 240 292 338
#     4   9  17  35  53  80 105 142 189 236 291 329
#     4   9  18  31  58  78 105 140 188 242 278 338
#     4   9  18  33  56  82 119 151 184 243 291 355
#     4  10  19  33  54  84 122 155 193 230 292 357
#
# _framework density 19.848478
#
# number of rings (size 3 to 8) (size 9 to 14) (size 15 to 20)
#    0.000    2.400    2.000    0.800    0.000    2.133 
#    0.000    2.000    4.400    0.000    0.000   11.200 
#    0.000    0.000    0.000    0.000    0.000    0.000 
#
# Total GULP energy -167274.248466 kJ/mol
# GULP energy per Si atom -5575.808282 kJ/mol
# Density = 1.980330 g / cm^3
# Si number density = 19.848478 Si / 1000 Ang^3
#
#
#
# Elastic Constant Matrix: (Units=GPa)
#
#
# Indices 1 2 3 4 5 6 
#
# 1 108.1371 44.4308 26.0884 0.0004 24.5497 0.0017
# 2 44.4308 75.7385 14.1201 0.0010 -1.6966 -0.0006
# 3 26.0884 14.1201 31.6950 0.0004 11.5088 0.0095
# 4 0.0004 0.0010 0.0004 -3.2374 -0.0003 19.9376
# 5 24.5497 -1.6966 11.5088 -0.0003 24.8838 0.0060
# 6 0.0017 -0.0006 0.0095 19.9376 0.0060 -54.4948
#
#
#
# Elastic Compliance Matrix: (Units=1/GPa)
#
#
# Indices 1 2 3 4 5 6 
#
# 1 0.018366 -0.010325 -0.004426 0.000009 -0.016777 0.000001
# 2 -0.010325 0.020686 -0.005922 -0.000002 0.014336 -0.000001
# 3 -0.004426 -0.005922 0.043739 -0.000031 -0.016266 -0.000006
# 4 0.000009 -0.000002 -0.000031 0.246488 -0.000013 0.090181
# 5 -0.016777 0.014336 -0.016266 -0.000013 0.065239 -0.000001
# 6 0.000001 -0.000001 -0.000006 0.090181 -0.000001 0.014643
#
#
# Mechanical properties :
#
#
# Convention : Reuss Voigt Hill
#
# Bulk Modulus (GPa) = 24.12893 42.76104 33.44498
# Shear Modulus (GPa) = 10.76841 2.15907 6.46374
#
# Velocity S-wave (km/s) = 2.33176 1.04410 1.80655
# Velocity P-wave (km/s) = 4.40822 4.80042 4.60849
#
# Compressibility (1/GPa) = 0.04144403
#
# Stress axis : x y z
#
# Youngs Moduli (GPa) = 54.44777 48.34295 22.86314
#
# Poissons Ratio (x) = 0.49914 0.10119
# Poissons Ratio (y) = 0.56217 0.13540
# Poissons Ratio (z) = 0.24098 0.28630
#
# Static dielectric constant tensor:
#      x y z
#    x 1.707050 0.000000 0.009360 
#    y 0.000000 1.666720 0.000000 
#    z 0.009360 0.000000 1.756770 
# 
# From -- ./inp_files/200938.got.cif
#   From: 2010.05.17/outbox.cif.g08.bks.cpg/sg15_101_cif.got.tgz:200938.got - 2010.06.03 18:47:42.
