data_PCOD9258656
_publ_section_title
;
Structure prediction by ZEFSAII (Michael W. Deem and Ramdas Pophale) SiO2 
 PCOD9258656
Probable space group: C 2/C
;
_chemical_formula_sum "Si O2"
_cell_formula_units_Z 56
_cell_length_a 9.169777
_cell_length_b 19.516131
_cell_length_c 17.414062
_cell_angle_alpha 90.000000
_cell_angle_beta 107.274372
_cell_angle_gamma 90.000000
_cell_volume 2975.826598
_symmetry_space_group_name_H-M "C 2/C"
_symmetry_group_IT_number 15
_symmetry_cell_setting 'monoclinic'
loop_
_space_group_symop_operation_xyz
x,y,z
-x,y,1/2-z
-x,-y,-z
x,-y,1/2+z
1/2+x,1/2+y,z
1/2-x,1/2+y,1/2-z
1/2-x,1/2-y,-z
1/2+x,1/2-y,1/2+z
loop_
_atom_site_type_symbol
_atom_site_label
_atom_site_fract_x
_atom_site_fract_y
_atom_site_fract_z
Si Si1 0.639373 0.809776 0.073780
Si Si2 0.278135 0.066957 0.147250
Si Si3 0.338071 0.112852 0.768338
Si Si4 0.109709 0.166476 0.009386
Si Si5 0.089226 0.427571 0.507504
Si Si6 0.328504 0.579042 0.906734
Si Si7 0.360356 0.042046 0.323240
O O1 0.663437 0.829979 0.166231
O O2 0.563509 0.736471 0.044889
O O3 0.799019 0.812680 0.053199
O O4 0.534072 0.868090 0.019662
O O5 0.222517 0.127665 0.085327
O O6 0.283143 0.079470 0.239106
O O7 0.454950 0.048335 0.155858
O O8 0.169777 0.001482 0.114237
O O9 0.500000 0.111901 0.750000
O O10 0.217899 0.116358 0.680039
O O11 0.322509 0.038602 0.807566
O O12 0.975864 0.114881 0.964887
O O13 0.196234 0.419508 0.450513
O O14 0.182334 0.427008 0.601518
O O15 0.000000 0.500000 0.500000
#
# Coordination Sequence:
#
# PCOD9258656 Si02
#       7
#     8   8   8   8   8   8   8
#     4  11  23  40  61  82 127 163 201 246 304 383
#     4  10  18  37  59  87 119 157 195 256 294 358
#     4  11  18  39  64  92 112 153 210 259 293 351
#     4  11  25  41  54  91 129 163 193 245 325 365
#     4  12  18  36  66  92 108 157 209 251 295 357
#     4  11  22  37  66  91 118 153 208 258 301 359
#     4  10  18  33  65  92 109 150 215 245 291 356
#
# _framework density 18.818301000000002
#
# number of rings (size 3 to 8) (size 9 to 14) (size 15 to 20)
#    0.000    1.143    8.571    0.429    0.000    1.143 
#    2.571    0.714    0.000    0.000    0.000    0.000 
#    0.000    0.000    0.000    0.000    0.000    0.000 
#
# Total GULP energy -156196.199935 kJ/mol
# GULP energy per Si atom -5578.435712 kJ/mol
# Density = 1.877547 g / cm^3
# Si number density = 18.818301 Si / 1000 Ang^3
#
#
#
# Elastic Constant Matrix: (Units=GPa)
#
#
# Indices 1 2 3 4 5 6 
#
# 1 27.7188 15.0851 23.1343 0.0000 2.2373 0.0000
# 2 15.0851 70.8302 47.0208 0.0000 6.8661 0.0000
# 3 23.1343 47.0208 155.5045 0.0000 -12.1744 0.0000
# 4 0.0000 0.0000 0.0000 10.8040 0.0000 -3.4494
# 5 2.2373 6.8661 -12.1744 0.0000 31.3745 0.0000
# 6 0.0000 0.0000 0.0000 -3.4494 0.0000 13.9416
#
#
#
# Elastic Compliance Matrix: (Units=1/GPa)
#
#
# Indices 1 2 3 4 5 6 
#
# 1 0.043679 -0.005515 -0.005136 0.000000 -0.003901 0.000000
# 2 -0.005515 0.019580 -0.005574 0.000000 -0.006055 0.000000
# 3 -0.005136 -0.005574 0.009287 0.000000 0.005190 0.000000
# 4 0.000000 0.000000 0.000000 0.100497 0.000000 0.024865
# 5 -0.003901 -0.006055 0.005190 0.000000 0.035490 0.000000
# 6 0.000000 0.000000 0.000000 0.024865 0.000000 0.077880
#
#
# Mechanical properties :
#
#
# Convention : Reuss Voigt Hill
#
# Bulk Modulus (GPa) = 24.94022 47.17044 36.05533
# Shear Modulus (GPa) = 15.04988 22.47823 18.76405
#
# Velocity S-wave (km/s) = 2.83105 3.45989 3.16114
# Velocity P-wave (km/s) = 4.89575 6.40950 5.70308
#
# Compressibility (1/GPa) = 0.04009588
#
# Stress axis : x y z
#
# Youngs Moduli (GPa) = 22.89418 51.07215 107.68285
#
# Poissons Ratio (x) = 0.28166 0.55305
# Poissons Ratio (y) = 0.12626 0.60024
# Poissons Ratio (z) = 0.11758 0.28468
#
# Static dielectric constant tensor:
#      x y z
#    x 1.661160 0.000000 -0.020780 
#    y 0.000000 1.646970 0.000000 
#    z -0.020780 0.000000 1.706750 
# 
# From -- ./inp_files/191058.got.cif
#   From: 2010.05.17/outbox.cif.g08.bks.cpg/sg15_96_cif.got.tgz:191058.got - 2010.06.03 18:47:42.
