data_PCOD9258235
_publ_section_title
;
Structure prediction by ZEFSAII (Michael W. Deem and Ramdas Pophale) SiO2 
 PCOD9258235
Probable space group: C 2/C
;
_chemical_formula_sum "Si O2"
_cell_formula_units_Z 64
_cell_length_a 29.678564
_cell_length_b 15.080568
_cell_length_c 9.328879
_cell_angle_alpha 90.000000
_cell_angle_beta 118.312944
_cell_angle_gamma 90.000000
_cell_volume 3675.829764
_symmetry_space_group_name_H-M "C 2/C"
_symmetry_group_IT_number 15
_symmetry_cell_setting 'monoclinic'
loop_
_space_group_symop_operation_xyz
x,y,z
-x,y,1/2-z
-x,-y,-z
x,-y,1/2+z
1/2+x,1/2+y,z
1/2-x,1/2+y,1/2-z
1/2-x,1/2-y,-z
1/2+x,1/2-y,1/2+z
loop_
_atom_site_type_symbol
_atom_site_label
_atom_site_fract_x
_atom_site_fract_y
_atom_site_fract_z
Si Si1 0.445642 0.409868 0.592317
Si Si2 0.811215 0.397447 0.425106
Si Si3 0.263285 0.594008 0.441148
Si Si4 0.238951 0.107975 0.565036
Si Si5 0.646804 0.722198 0.547917
Si Si6 0.353433 0.277082 0.107900
Si Si7 0.688620 0.098764 0.078273
Si Si8 0.053935 0.092631 0.754359
O O1 0.500000 0.389777 0.750000
O O2 0.403970 0.334056 0.558799
O O3 0.428167 0.501647 0.641438
O O4 0.451070 0.419868 0.426672
O O5 0.757334 0.392485 0.429811
O O6 0.791492 0.383487 0.234770
O O7 0.848234 0.320858 0.535563
O O8 0.829647 0.498400 0.475288
O O9 0.281070 0.492946 0.446789
O O10 0.306467 0.665074 0.474850
O O11 0.211695 0.603588 0.272113
O O12 0.195577 0.174923 0.548687
O O13 0.260145 0.116552 0.437197
O O14 0.652767 0.723109 0.729295
O O15 0.647948 0.823747 0.497674
O O16 0.405635 0.329421 0.157510
O O17 0.000000 0.112439 0.750000
#
# Coordination Sequence:
#
# PCOD9258235 Si02
#       8
#     8   8   8   8   8   8   8   8
#     4  10  21  39  59  79 107 136 166 214 266 314
#     4  10  19  34  52  71 107 143 176 206 250 308
#     4  10  18  33  52  73 108 142 175 205 252 311
#     4  10  20  32  47  80 109 137 173 215 254 294
#     4  11  20  34  54  77 104 136 179 212 256 309
#     4  11  20  33  57  76  98 144 179 207 253 316
#     4  10  21  33  49  76 110 140 172 219 251 295
#     4  10  21  39  58  81 107 132 170 214 264 313
#
# _framework density 17.411034000000001
#
# number of rings (size 3 to 8) (size 9 to 14) (size 15 to 20)
#    0.000    1.750    2.500    3.750    0.000    0.000 
#    9.000    0.000    0.000    0.750    0.000    3.500 
#    0.000    0.000    0.000    0.000    0.000    0.000 
#
# Total GULP energy -178403.613092 kJ/mol
# GULP energy per Si atom -5575.112909 kJ/mol
# Density = 1.737141 g / cm^3
# Si number density = 17.411034 Si / 1000 Ang^3
#
#
#
# Elastic Constant Matrix: (Units=GPa)
#
#
# Indices 1 2 3 4 5 6 
#
# 1 49.7861 63.4400 15.9188 0.0000 6.2956 0.0000
# 2 63.4400 156.7505 41.4720 0.0000 21.8849 0.0000
# 3 15.9188 41.4720 52.7619 0.0000 4.1046 0.0000
# 4 0.0000 0.0000 0.0000 22.9725 0.0000 -0.2616
# 5 6.2956 21.8849 4.1046 0.0000 17.5049 0.0000
# 6 0.0000 0.0000 0.0000 -0.2616 0.0000 25.7761
#
#
#
# Elastic Compliance Matrix: (Units=1/GPa)
#
#
# Indices 1 2 3 4 5 6 
#
# 1 0.042330 -0.018512 0.001185 0.000000 0.007643 0.000000
# 2 -0.018512 0.017721 -0.007271 0.000000 -0.013793 0.000000
# 3 0.001185 -0.007271 0.024076 0.000000 0.003019 0.000000
# 4 0.000000 0.000000 0.000000 0.043535 0.000000 0.000442
# 5 0.007643 -0.013793 0.003019 0.000000 0.070914 0.000000
# 6 0.000000 0.000000 0.000000 0.000442 0.000000 0.038800
#
#
# Mechanical properties :
#
#
# Convention : Reuss Voigt Hill
#
# Bulk Modulus (GPa) = 28.62811 55.66224 42.14517
# Shear Modulus (GPa) = 16.76636 22.48188 19.62412
#
# Velocity S-wave (km/s) = 3.10655 3.59729 3.36089
# Velocity P-wave (km/s) = 5.41717 7.02089 6.27051
#
# Compressibility (1/GPa) = 0.03493071
#
# Stress axis : x y z
#
# Youngs Moduli (GPa) = 23.62398 56.42950 41.53552
#
# Poissons Ratio (x) = 1.04464 -0.04923
# Poissons Ratio (y) = 0.43734 0.30200
# Poissons Ratio (z) = -0.02800 0.41029
#
# Static dielectric constant tensor:
#      x y z
#    x 1.567190 0.000000 -0.019000 
#    y 0.000000 1.621820 0.000000 
#    z -0.019000 0.000000 1.595420 
# 
# From -- ./inp_files/66226.got.cif
#   From: 2010.05.17/outbox.cif.g08.bks.cpg/sg15_34_cif.got.tgz:66226.got - 2010.06.03 18:47:42.
