data_PCOD9258099
_publ_section_title
;
Structure prediction by ZEFSAII (Michael W. Deem and Ramdas Pophale) SiO2 
 PCOD9258099
Probable space group: C 2/C
;
_chemical_formula_sum "Si O2"
_cell_formula_units_Z 60
_cell_length_a 20.425507
_cell_length_b 13.870745
_cell_length_c 14.785051
_cell_angle_alpha 90.000000
_cell_angle_beta 35.455724
_cell_angle_gamma 90.000000
_cell_volume 2429.845214
_symmetry_space_group_name_H-M "C 2/C"
_symmetry_group_IT_number 15
_symmetry_cell_setting 'monoclinic'
loop_
_space_group_symop_operation_xyz
x,y,z
-x,y,1/2-z
-x,-y,-z
x,-y,1/2+z
1/2+x,1/2+y,z
1/2-x,1/2+y,1/2-z
1/2-x,1/2-y,-z
1/2+x,1/2-y,1/2+z
loop_
_atom_site_type_symbol
_atom_site_label
_atom_site_fract_x
_atom_site_fract_y
_atom_site_fract_z
Si Si1 0.665020 0.615774 0.398924
Si Si2 0.726221 0.706049 0.928485
Si Si3 0.877985 0.396976 0.547923
Si Si4 0.941667 0.051008 0.720701
Si Si5 0.933062 0.292188 0.080746
Si Si6 0.730638 0.136091 0.024417
Si Si7 0.000000 0.522554 0.250000
Si Si8 0.009638 0.151918 0.144111
O O1 0.757205 0.571437 0.225841
O O2 0.540579 0.569958 0.538288
O O3 0.633853 0.731912 0.420639
O O4 0.723301 0.604117 0.429952
O O5 0.666442 0.796597 0.946202
O O6 0.838377 0.669992 0.755223
O O7 0.750000 0.750000 0.000000
O O8 0.638302 0.620918 0.008470
O O9 0.965359 0.369234 0.532086
O O10 0.946264 0.457798 0.394097
O O11 0.000000 0.084492 0.750000
O O12 0.819895 0.097278 0.849471
O O13 0.926973 0.937042 0.742974
O O14 0.983668 0.205667 0.083216
O O15 0.605955 0.092332 0.154332
O O16 0.750000 0.250000 0.000000
O O17 0.000000 0.210279 0.250000
#
# Coordination Sequence:
#
# PCOD9258099 Si02
#       8
#     8   8   8   8   8   8   4   8
#     4  10  24  45  71 104 144 190 251 312 367 434
#     4  10  18  32  59  93 143 188 223 276 349 451
#     4  10  24  41  66 112 146 189 239 294 382 447
#     4   9  22  42  68  94 132 181 254 310 350 429
#     4  10  21  36  63  96 148 184 221 292 353 450
#     4  11  28  50  77 101 134 198 256 319 377 439
#     4  12  28  48  78 110 152 194 242 310 382 466
#     4  10  19  33  58  97 129 185 233 279 360 426
#
# _framework density 24.69293
#
# number of rings (size 3 to 8) (size 9 to 14) (size 15 to 20)
#    0.000    1.867    1.333    0.800   10.267    5.333 
#    0.000    0.000    0.000    0.000    0.000    0.000 
#    0.000    0.000    0.000    0.000    0.000    0.000 
#
# Total GULP energy -167047.036512 kJ/mol
# GULP energy per Si atom -5568.234550 kJ/mol
# Density = 2.463673 g / cm^3
# Si number density = 24.692930 Si / 1000 Ang^3
#
#
#
# Elastic Constant Matrix: (Units=GPa)
#
#
# Indices 1 2 3 4 5 6 
#
# 1 70.5497 20.1678 43.4600 0.0000 -30.9238 0.0000
# 2 20.1678 78.9388 44.8688 0.0000 -8.5641 0.0000
# 3 43.4600 44.8688 192.6713 0.0000 -27.5944 0.0000
# 4 0.0000 0.0000 0.0000 29.4845 0.0000 -3.6167
# 5 -30.9238 -8.5641 -27.5944 0.0000 34.5135 0.0000
# 6 0.0000 0.0000 0.0000 -3.6167 0.0000 22.7351
#
#
#
# Elastic Compliance Matrix: (Units=1/GPa)
#
#
# Indices 1 2 3 4 5 6 
#
# 1 0.025143 -0.003061 -0.002079 0.000000 0.020106 0.000000
# 2 -0.003061 0.015005 -0.003008 0.000000 -0.001424 0.000000
# 3 -0.002079 -0.003008 0.006760 0.000000 0.002796 0.000000
# 4 0.000000 0.000000 0.000000 0.034591 0.000000 0.005503
# 5 0.020106 -0.001424 0.002796 0.000000 0.048871 0.000000
# 6 0.000000 0.000000 0.000000 0.005503 0.000000 0.044860
#
#
# Mechanical properties :
#
#
# Convention : Reuss Voigt Hill
#
# Bulk Modulus (GPa) = 32.66567 62.12811 47.39689
# Shear Modulus (GPa) = 24.78554 32.92417 28.85486
#
# Velocity S-wave (km/s) = 3.17164 3.65546 3.42211
# Velocity P-wave (km/s) = 5.16429 6.55983 5.90344
#
# Compressibility (1/GPa) = 0.03061318
#
# Stress axis : x y z
#
# Youngs Moduli (GPa) = 39.77215 66.64348 147.92877
#
# Poissons Ratio (x) = 0.20397 0.30755
# Poissons Ratio (y) = 0.12173 0.44496
# Poissons Ratio (z) = 0.08269 0.20046
#
# Static dielectric constant tensor:
#      x y z
#    x 1.964150 0.000000 0.068310 
#    y 0.000000 2.206050 0.000000 
#    z 0.068310 0.000000 2.123130 
# 
# From -- ./inp_files/219587.got.cif
#   From: 2010.05.17/outbox.cif.g08.bks.cpg/sg15_110_cif.got.tgz:219587.got - 2010.06.03 18:47:42.
