data_PCOD9258464
_publ_section_title
;
Structure prediction by ZEFSAII (Michael W. Deem and Ramdas Pophale) SiO2 
 PCOD9258464
Probable space group: C 2/C
;
_chemical_formula_sum "Si O2"
_cell_formula_units_Z 40
_cell_length_a 9.724386
_cell_length_b 18.548979
_cell_length_c 14.811808
_cell_angle_alpha 90.000000
_cell_angle_beta 44.559205
_cell_angle_gamma 90.000000
_cell_volume 1874.598517
_symmetry_space_group_name_H-M "C 2/C"
_symmetry_group_IT_number 15
_symmetry_cell_setting 'monoclinic'
loop_
_space_group_symop_operation_xyz
x,y,z
-x,y,1/2-z
-x,-y,-z
x,-y,1/2+z
1/2+x,1/2+y,z
1/2-x,1/2+y,1/2-z
1/2-x,1/2-y,-z
1/2+x,1/2-y,1/2+z
loop_
_atom_site_type_symbol
_atom_site_label
_atom_site_fract_x
_atom_site_fract_y
_atom_site_fract_z
Si Si1 0.501693 0.630321 0.638235
Si Si2 0.900258 0.431911 0.165242
Si Si3 0.629106 0.783908 0.779625
Si Si4 0.575238 0.920465 0.561582
Si Si5 0.964576 0.271742 0.369502
O O1 0.500000 0.631966 0.750000
O O2 0.321460 0.578932 0.696149
O O3 0.451944 0.711982 0.633446
O O4 0.712246 0.606178 0.504921
O O5 0.011336 0.358235 0.137174
O O6 0.003308 0.506399 0.141760
O O7 0.893151 0.433507 0.059535
O O8 0.500000 0.790658 0.750000
O O9 0.583450 0.857019 0.853585
O O10 0.856859 0.764983 0.658818
O O11 0.000000 0.248610 0.250000
O O12 0.750000 0.250000 0.500000
#
# Coordination Sequence:
#
# PCOD9258464 Si02
#       5
#     8   8   8   8   8
#     4   8  16  31  51  77 106 142 192 244 286 338
#     4   9  20  34  52  83 118 156 196 246 307 363
#     4  10  21  36  59  86 113 152 205 250 297 358
#     4  10  18  33  57  82 115 156 203 248 299 363
#     4  11  24  42  63  90 126 163 202 252 309 365
#
# _framework density 21.337900999999999
#
# number of rings (size 3 to 8) (size 9 to 14) (size 15 to 20)
#    0.000    2.400    0.000    3.000    0.000    5.600 
#    0.000    4.000    0.000    8.400    0.000    0.000 
#    0.000    0.000    0.000    0.000    0.000    0.000 
#
# Total GULP energy -111677.217712 kJ/mol
# GULP energy per Si atom -5583.860886 kJ/mol
# Density = 2.128934 g / cm^3
# Si number density = 21.337901 Si / 1000 Ang^3
#
#
#
# Elastic Constant Matrix: (Units=GPa)
#
#
# Indices 1 2 3 4 5 6 
#
# 1 62.7258 12.7111 43.7247 0.0001 -21.4609 0.0000
# 2 12.7111 132.8093 79.0778 0.0001 -47.7768 -0.0001
# 3 43.7247 79.0778 127.1415 0.0003 -42.1436 -0.0001
# 4 0.0001 0.0001 0.0003 11.9970 -0.0001 -6.0490
# 5 -21.4609 -47.7768 -42.1436 -0.0001 43.9514 0.0000
# 6 0.0000 -0.0001 -0.0001 -6.0490 0.0000 17.5036
#
#
#
# Elastic Compliance Matrix: (Units=1/GPa)
#
#
# Indices 1 2 3 4 5 6 
#
# 1 0.024698 0.007069 -0.009303 0.000000 0.010824 0.000000
# 2 0.007069 0.016704 -0.008294 0.000000 0.013657 0.000000
# 3 -0.009303 -0.008294 0.017194 0.000000 0.002929 0.000000
# 4 0.000000 0.000000 0.000000 0.100944 0.000000 0.034885
# 5 0.010824 0.013657 0.002929 0.000000 0.045692 0.000000
# 6 0.000000 0.000000 0.000000 0.034885 0.000000 0.069187
#
#
# Mechanical properties :
#
#
# Convention : Reuss Voigt Hill
#
# Bulk Modulus (GPa) = 26.63744 65.96709 46.30226
# Shear Modulus (GPa) = 16.23452 27.16793 21.70123
#
# Velocity S-wave (km/s) = 2.76131 3.57210 3.19255
# Velocity P-wave (km/s) = 4.76205 6.92790 5.94445
#
# Compressibility (1/GPa) = 0.03754115
#
# Stress axis : x y z
#
# Youngs Moduli (GPa) = 40.48954 59.86469 58.16144
#
# Poissons Ratio (x) = -0.42318 0.54105
# Poissons Ratio (y) = -0.28622 0.48237
# Poissons Ratio (z) = 0.37666 0.49649
#
# Static dielectric constant tensor:
#      x y z
#    x 1.855330 0.000000 0.027890 
#    y 0.000000 1.760560 0.000000 
#    z 0.027890 0.000000 1.755830 
# 
# From -- ./inp_files/77734.got.cif
#   From: 2010.05.17/outbox.cif.g08.bks.cpg/sg15_39_cif.got.tgz:77734.got - 2010.06.03 18:47:42.
