data_PCOD9258480
_publ_section_title
;
Structure prediction by ZEFSAII (Michael W. Deem and Ramdas Pophale) SiO2 
 PCOD9258480
Probable space group: C 2/C
;
_chemical_formula_sum "Si O2"
_cell_formula_units_Z 52
_cell_length_a 7.970699
_cell_length_b 19.478509
_cell_length_c 17.095678
_cell_angle_alpha 90.000000
_cell_angle_beta 71.638269
_cell_angle_gamma 90.000000
_cell_volume 2519.093593
_symmetry_space_group_name_H-M "C 2/C"
_symmetry_group_IT_number 15
_symmetry_cell_setting 'monoclinic'
loop_
_space_group_symop_operation_xyz
x,y,z
-x,y,1/2-z
-x,-y,-z
x,-y,1/2+z
1/2+x,1/2+y,z
1/2-x,1/2+y,1/2-z
1/2-x,1/2-y,-z
1/2+x,1/2-y,1/2+z
loop_
_atom_site_type_symbol
_atom_site_label
_atom_site_fract_x
_atom_site_fract_y
_atom_site_fract_z
Si Si1 0.008492 0.848570 0.970576
Si Si2 0.703582 0.818972 0.140988
Si Si3 0.880850 0.469871 0.628803
Si Si4 0.263335 0.171590 0.127983
Si Si5 0.760822 0.564545 0.517936
Si Si6 0.000000 0.432050 0.250000
Si Si7 0.573971 0.800471 0.455660
O O1 0.866613 0.836663 0.060582
O O2 0.111172 0.917805 0.976734
O O3 0.898209 0.846483 0.906604
O O4 0.129361 0.779336 0.950544
O O5 0.729277 0.743901 0.175170
O O6 0.659213 0.881551 0.202911
O O7 0.536296 0.811156 0.107517
O O8 0.806219 0.396984 0.668783
O O9 0.748791 0.506437 0.586051
O O10 0.060365 0.453566 0.554749
O O11 0.935350 0.521087 0.688665
O O12 0.428992 0.187186 0.045688
O O13 0.787674 0.638223 0.556842
#
# Coordination Sequence:
#
# PCOD9258480 Si02
#       7
#     8   8   8   8   8   4   8
#     4   9  17  30  60  89 110 133 188 245 280 316
#     4   9  18  35  59  79 108 150 188 221 284 343
#     4  10  22  36  56  79 116 151 186 228 291 342
#     4   8  17  35  56  83 109 141 179 238 276 325
#     4  10  18  33  57  88 111 142 185 239 283 334
#     4  12  22  40  60  74 110 168 194 216 282 372
#     4   8  14  31  56  86 109 136 182 231 272 332
#
# _framework density 20.642347000000001
#
# number of rings (size 3 to 8) (size 9 to 14) (size 15 to 20)
#    0.000    2.769    1.538    2.308    2.154    0.615 
#    0.000    3.846    6.769    0.000    0.000    0.000 
#    0.000    0.000    0.000    0.000    0.000    0.000 
#
# Total GULP energy -144916.637488 kJ/mol
# GULP energy per Si atom -5573.716826 kJ/mol
# Density = 2.059536 g / cm^3
# Si number density = 20.642347 Si / 1000 Ang^3
#
#
#
# Elastic Constant Matrix: (Units=GPa)
#
#
# Indices 1 2 3 4 5 6 
#
# 1 34.9517 23.0378 -4.0850 0.0000 8.6251 0.0000
# 2 23.0378 155.0501 39.3483 0.0000 9.9715 0.0000
# 3 -4.0850 39.3483 23.7984 0.0000 3.2718 0.0000
# 4 0.0000 0.0000 0.0000 12.6293 0.0000 9.2538
# 5 8.6251 9.9715 3.2718 0.0000 9.1690 0.0000
# 6 0.0000 0.0000 0.0000 9.2538 0.0000 37.7364
#
#
#
# Elastic Compliance Matrix: (Units=1/GPa)
#
#
# Indices 1 2 3 4 5 6 
#
# 1 0.057322 -0.016349 0.043997 0.000000 -0.051842 0.000000
# 2 -0.016349 0.016078 -0.030601 0.000000 0.008813 0.000000
# 3 0.043997 -0.030601 0.106507 0.000000 -0.046114 0.000000
# 4 0.000000 0.000000 0.000000 0.096525 0.000000 -0.023670
# 5 -0.051842 0.008813 -0.046114 0.000000 0.164699 0.000000
# 6 0.000000 0.000000 0.000000 -0.023670 0.000000 0.032304
#
#
# Mechanical properties :
#
#
# Convention : Reuss Voigt Hill
#
# Bulk Modulus (GPa) = 5.74705 36.71139 21.22922
# Shear Modulus (GPa) = 9.30511 22.27356 15.78934
#
# Velocity S-wave (km/s) = 2.12546 3.28841 2.76868
# Velocity P-wave (km/s) = 2.96877 5.67814 4.53072
#
# Compressibility (1/GPa) = 0.17400236
#
# Stress axis : x y z
#
# Youngs Moduli (GPa) = 17.44530 62.19830 9.38909
#
# Poissons Ratio (x) = 1.01685 -0.41309
# Poissons Ratio (y) = 0.28521 0.28731
# Poissons Ratio (z) = -0.76755 1.90331
#
# Static dielectric constant tensor:
#      x y z
#    x 1.774240 0.000000 0.010730 
#    y 0.000000 1.812640 0.000000 
#    z 0.010730 0.000000 1.714070 
# 
# From -- ./inp_files/190409.got.cif
#   From: 2010.05.17/outbox.cif.g08.bks.cpg/sg15_96_cif.got.tgz:190409.got - 2010.06.03 18:47:42.
