data_PCOD9258399
_publ_section_title
;
Structure prediction by ZEFSAII (Michael W. Deem and Ramdas Pophale) SiO2 
 PCOD9258399
Probable space group: C 2/C
;
_chemical_formula_sum "Si O2"
_cell_formula_units_Z 56
_cell_length_a 25.401628
_cell_length_b 14.457555
_cell_length_c 13.725644
_cell_angle_alpha 90.000000
_cell_angle_beta 146.246666
_cell_angle_gamma 90.000000
_cell_volume 2800.695687
_symmetry_space_group_name_H-M "C 2/C"
_symmetry_group_IT_number 15
_symmetry_cell_setting 'monoclinic'
loop_
_space_group_symop_operation_xyz
x,y,z
-x,y,1/2-z
-x,-y,-z
x,-y,1/2+z
1/2+x,1/2+y,z
1/2-x,1/2+y,1/2-z
1/2-x,1/2-y,-z
1/2+x,1/2-y,1/2+z
loop_
_atom_site_type_symbol
_atom_site_label
_atom_site_fract_x
_atom_site_fract_y
_atom_site_fract_z
Si Si1 0.345145 0.988166 0.239867
Si Si2 0.000000 0.387891 0.750000
Si Si3 0.518796 0.148825 0.059555
Si Si4 0.313284 0.596641 0.866152
Si Si5 0.592655 0.722182 0.235305
Si Si6 0.500000 0.412054 0.750000
Si Si7 0.306480 0.000204 0.956668
Si Si8 0.216073 0.298539 0.592517
O O1 0.386131 0.091558 0.314144
O O2 0.433795 0.919977 0.395694
O O3 0.265575 0.951144 0.188097
O O4 0.305320 0.982061 0.069693
O O5 0.012378 0.335122 0.666331
O O6 0.907581 0.451802 0.592901
O O7 0.496671 0.237507 0.960420
O O8 0.278026 0.567755 0.705520
O O9 0.304694 0.707291 0.874316
O O10 0.412190 0.551219 0.051492
O O11 0.556746 0.642538 0.251867
O O12 0.677832 0.704394 0.289958
O O13 0.641377 0.790354 0.388533
O O14 0.298251 0.901516 0.890163
#
# Coordination Sequence:
#
# PCOD9258399 Si02
#       8
#     8   4   8   8   8   4   8   8
#     4  10  19  33  55  85 115 147 177 232 302 346
#     4  10  20  31  56  95 118 146 178 231 306 359
#     4  10  18  33  55  90 121 146 174 232 296 356
#     4  11  22  40  54  85 119 148 197 245 278 338
#     4  10  18  36  55  85 117 141 192 240 286 338
#     4  10  24  35  58  81 108 160 206 239 268 325
#     4  11  20  33  59  84 115 154 189 230 294 343
#     4  10  19  33  57  81 115 152 185 240 290 330
#
# _framework density 19.995031000000001
#
# number of rings (size 3 to 8) (size 9 to 14) (size 15 to 20)
#    0.000    1.714    4.286    1.714    0.000    4.571 
#    0.000    2.857    0.000   14.571    0.000    0.000 
#    0.000    0.000    0.000    0.000    0.000    0.000 
#
# Total GULP energy -155966.353758 kJ/mol
# GULP energy per Si atom -5570.226920 kJ/mol
# Density = 1.994952 g / cm^3
# Si number density = 19.995031 Si / 1000 Ang^3
#
#
#
# Elastic Constant Matrix: (Units=GPa)
#
#
# Indices 1 2 3 4 5 6 
#
# 1 30.4920 -0.1861 7.3897 0.0000 -15.9719 0.0000
# 2 -0.1861 30.4672 38.9845 0.0000 -10.0010 0.0000
# 3 7.3897 38.9845 118.6060 0.0000 -10.7716 0.0000
# 4 0.0000 0.0000 0.0000 20.4467 0.0000 -3.5896
# 5 -15.9719 -10.0010 -10.7716 0.0000 36.2561 0.0000
# 6 0.0000 0.0000 0.0000 -3.5896 0.0000 5.1493
#
#
#
# Elastic Compliance Matrix: (Units=1/GPa)
#
#
# Indices 1 2 3 4 5 6 
#
# 1 0.046267 0.015217 -0.005809 0.000000 0.022854 0.000000
# 2 0.015217 0.065720 -0.020857 0.000000 0.018635 0.000000
# 3 -0.005809 -0.020857 0.015307 0.000000 -0.003765 0.000000
# 4 0.000000 0.000000 0.000000 0.055728 0.000000 0.038848
# 5 0.022854 0.018635 -0.003765 0.000000 0.041671 0.000000
# 6 0.000000 0.000000 0.000000 0.038848 0.000000 0.221283
#
#
# Mechanical properties :
#
#
# Convention : Reuss Voigt Hill
#
# Bulk Modulus (GPa) = 9.57887 30.21571 19.89729
# Shear Modulus (GPa) = 9.92709 21.26223 15.59466
#
# Velocity S-wave (km/s) = 2.23060 3.26448 2.79575
# Velocity P-wave (km/s) = 3.38158 5.41789 4.51601
#
# Compressibility (1/GPa) = 0.10439647
#
# Stress axis : x y z
#
# Youngs Moduli (GPa) = 21.61359 15.21605 65.33036
#
# Poissons Ratio (x) = -0.23155 0.37949
# Poissons Ratio (y) = -0.32890 1.36261
# Poissons Ratio (z) = 0.12555 0.31736
#
# Static dielectric constant tensor:
#      x y z
#    x 1.764490 0.000000 -0.027870 
#    y 0.000000 1.754430 0.000000 
#    z -0.027870 0.000000 1.745440 
# 
# From -- ./inp_files/182198.got.cif
#   From: 2010.05.17/outbox.cif.g08.bks.cpg/sg15_92_cif.got.tgz:182198.got - 2010.06.03 18:47:42.
