data_PCOD9258513
_publ_section_title
;
Structure prediction by ZEFSAII (Michael W. Deem and Ramdas Pophale) SiO2 
 PCOD9258513
Probable space group: C 2/C
;
_chemical_formula_sum "Si O2"
_cell_formula_units_Z 48
_cell_length_a 15.355039
_cell_length_b 13.219462
_cell_length_c 17.353447
_cell_angle_alpha 90.000000
_cell_angle_beta 145.446423
_cell_angle_gamma 90.000000
_cell_volume 1997.877163
_symmetry_space_group_name_H-M "C 2/C"
_symmetry_group_IT_number 15
_symmetry_cell_setting 'monoclinic'
loop_
_space_group_symop_operation_xyz
x,y,z
-x,y,1/2-z
-x,-y,-z
x,-y,1/2+z
1/2+x,1/2+y,z
1/2-x,1/2+y,1/2-z
1/2-x,1/2-y,-z
1/2+x,1/2-y,1/2+z
loop_
_atom_site_type_symbol
_atom_site_label
_atom_site_fract_x
_atom_site_fract_y
_atom_site_fract_z
Si Si1 0.680220 0.573323 0.361656
Si Si2 0.172673 0.104110 0.185851
Si Si3 0.183263 0.588918 0.884175
Si Si4 0.828648 0.631911 0.156051
Si Si5 0.336583 0.654733 0.675327
Si Si6 0.379692 0.369726 0.382828
O O1 0.500000 0.570710 0.250000
O O2 0.697963 0.628221 0.292751
O O3 0.761252 0.626463 0.492517
O O4 0.735877 0.456221 0.389828
O O5 0.322707 0.111657 0.243055
O O6 0.117073 0.987963 0.140258
O O7 0.036102 0.160429 0.040740
O O8 0.245730 0.471356 0.929525
O O9 0.251249 0.636940 0.856092
O O10 0.000000 0.589230 0.750000
O O11 0.757351 0.741900 0.088161
O O12 0.000000 0.634338 0.250000
O O13 0.500000 0.649691 0.750000
O O14 0.355358 0.676030 0.780655
#
# Coordination Sequence:
#
# PCOD9258513 Si02
#       6
#     8   8   8   8   8   8
#     4  10  18  33  58  86 103 139 196 229 263 328
#     4   9  17  31  57  79 105 143 190 229 261 321
#     4  10  20  35  56  80 114 143 176 234 285 318
#     4   9  19  35  48  80 119 147 168 219 290 329
#     4   9  19  32  52  82 113 143 178 221 276 336
#     4   9  17  33  55  80 104 144 189 227 268 320
#
# _framework density 24.025500999999998
#
# number of rings (size 3 to 8) (size 9 to 14) (size 15 to 20)
#    0.000    2.667    1.667    0.000    7.000    0.667 
#    6.000   13.333    0.000    2.000    0.000    0.000 
#    0.000    0.000    0.000    0.000    0.000    0.000 
#
# Total GULP energy -133819.241516 kJ/mol
# GULP energy per Si atom -5575.801730 kJ/mol
# Density = 2.397082 g / cm^3
# Si number density = 24.025501 Si / 1000 Ang^3
#
#
#
# Elastic Constant Matrix: (Units=GPa)
#
#
# Indices 1 2 3 4 5 6 
#
# 1 205.0734 7.3047 85.5064 0.0000 -44.3550 0.0001
# 2 7.3047 69.1460 14.3099 0.0000 -6.4677 0.0002
# 3 85.5064 14.3099 92.1815 0.0001 -32.4101 0.0001
# 4 0.0000 0.0000 0.0001 2.4114 0.0001 13.3177
# 5 -44.3550 -6.4677 -32.4101 0.0001 57.6162 0.0001
# 6 0.0001 0.0002 0.0001 13.3177 0.0001 44.2442
#
#
#
# Elastic Compliance Matrix: (Units=1/GPa)
#
#
# Indices 1 2 3 4 5 6 
#
# 1 0.008283 0.000794 -0.006898 0.000000 0.002586 0.000000
# 2 0.000794 0.015028 -0.002819 -0.000001 0.000713 0.000000
# 3 -0.006898 -0.002819 0.019578 0.000002 0.005386 -0.000001
# 4 0.000000 -0.000001 0.000002 -0.626064 0.000001 0.188449
# 5 0.002586 0.000713 0.005386 0.000001 0.022457 0.000000
# 6 0.000000 0.000000 -0.000001 0.188449 0.000000 -0.034122
#
#
# Mechanical properties :
#
#
# Convention : Reuss Voigt Hill
#
# Bulk Modulus (GPa) = 39.92908 64.51588 52.22248
# Shear Modulus (GPa) = -8.79280 38.13968 14.67344
#
# Velocity S-wave (km/s) = -1.91513 3.98862 2.47401
# Velocity P-wave (km/s) = 3.43005 6.93711 5.47215
#
# Compressibility (1/GPa) = 0.02504441
#
# Stress axis : x y z
#
# Youngs Moduli (GPa) = 120.72462 66.54103 51.07849
#
# Poissons Ratio (x) = -0.05285 0.35232
# Poissons Ratio (y) = -0.09589 0.14400
# Poissons Ratio (z) = 0.83271 0.18759
#
# Static dielectric constant tensor:
#      x y z
#    x 1.921230 0.000000 -0.041560 
#    y 0.000000 2.003700 0.000000 
#    z -0.041560 0.000000 1.923390 
# 
# From -- ./inp_files/205531.got.cif
#   From: 2010.05.17/outbox.cif.g08.bks.cpg/sg15_103_cif.got.tgz:205531.got - 2010.06.03 18:47:42.
