data_PCOD9258305
_publ_section_title
;
Structure prediction by ZEFSAII (Michael W. Deem and Ramdas Pophale) SiO2 
 PCOD9258305
Probable space group: C 2/C
;
_chemical_formula_sum "Si O2"
_cell_formula_units_Z 32
_cell_length_a 15.810553
_cell_length_b 8.228290
_cell_length_c 22.629112
_cell_angle_alpha 90.000000
_cell_angle_beta 37.835374
_cell_angle_gamma 90.000000
_cell_volume 1805.777480
_symmetry_space_group_name_H-M "C 2/C"
_symmetry_group_IT_number 15
_symmetry_cell_setting 'monoclinic'
loop_
_space_group_symop_operation_xyz
x,y,z
-x,y,1/2-z
-x,-y,-z
x,-y,1/2+z
1/2+x,1/2+y,z
1/2-x,1/2+y,1/2-z
1/2-x,1/2-y,-z
1/2+x,1/2-y,1/2+z
loop_
_atom_site_type_symbol
_atom_site_label
_atom_site_fract_x
_atom_site_fract_y
_atom_site_fract_z
Si Si1 0.863579 0.670451 0.120371
Si Si2 0.653336 0.694801 0.000876
Si Si3 0.114082 0.879240 0.966082
Si Si4 0.840088 0.296754 0.170776
O O1 0.824832 0.710620 0.073664
O O2 0.850859 0.482593 0.144189
O O3 0.765412 0.771331 0.218077
O O4 0.020773 0.732878 0.041927
O O5 0.681498 0.502703 0.974255
O O6 0.750000 0.750000 0.000000
O O7 0.492263 0.730788 0.104120
O O8 0.202507 0.809048 0.863431
O O9 0.000000 0.000000 0.000000
#
# Coordination Sequence:
#
# PCOD9258305 Si02
#       4
#     8   8   8   8
#     4  10  18  33  54  74  96 131 173 210 246 298
#     4  10  20  33  50  75 104 131 160 206 260 306
#     4   8  16  31  50  73  96 127 167 202 240 296
#     4  10  18  33  54  74  96 131 173 210 246 298
#
# _framework density 17.720897000000001
#
# number of rings (size 3 to 8) (size 9 to 14) (size 15 to 20)
#    0.000    3.000    0.000    7.500    0.000    1.000 
#    0.000    5.000    0.000    3.000    0.000    0.000 
#    0.000    0.000    0.000    0.000    0.000    0.000 
#
# Total GULP energy -89073.028409 kJ/mol
# GULP energy per Si atom -5567.064276 kJ/mol
# Density = 1.768056 g / cm^3
# Si number density = 17.720897 Si / 1000 Ang^3
#
#
#
# Elastic Constant Matrix: (Units=GPa)
#
#
# Indices 1 2 3 4 5 6 
#
# 1 91.9114 32.9370 29.9393 0.0000 14.1197 0.0000
# 2 32.9370 84.4486 -6.5458 0.0000 13.2031 0.0001
# 3 29.9393 -6.5458 93.0393 0.0000 20.2118 0.0000
# 4 0.0000 0.0000 0.0000 34.7829 0.0000 7.6055
# 5 14.1197 13.2031 20.2118 0.0000 12.9098 0.0000
# 6 0.0000 0.0001 0.0000 7.6055 0.0000 28.2986
#
#
#
# Elastic Compliance Matrix: (Units=1/GPa)
#
#
# Indices 1 2 3 4 5 6 
#
# 1 0.014865 -0.005546 -0.004355 0.000000 -0.003767 0.000000
# 2 -0.005546 0.019053 0.009154 0.000000 -0.027751 0.000000
# 3 -0.004355 0.009154 0.020902 0.000000 -0.037322 0.000000
# 4 0.000000 0.000000 0.000000 0.030545 0.000000 -0.008209
# 5 -0.003767 -0.027751 -0.037322 0.000000 0.168395 0.000000
# 6 0.000000 0.000000 0.000000 -0.008209 0.000000 0.037544
#
#
# Mechanical properties :
#
#
# Convention : Reuss Voigt Hill
#
# Bulk Modulus (GPa) = 18.75328 42.45116 30.60222
# Shear Modulus (GPa) = 16.09928 29.40284 22.75106
#
# Velocity S-wave (km/s) = 3.01739 4.07777 3.58698
# Velocity P-wave (km/s) = 4.76918 6.79547 5.87041
#
# Compressibility (1/GPa) = 0.05332399
#
# Stress axis : x y z
#
# Youngs Moduli (GPa) = 67.27204 52.48509 47.84344
#
# Poissons Ratio (x) = 0.29110 0.20837
# Poissons Ratio (y) = 0.37312 -0.43795
# Poissons Ratio (z) = 0.29299 -0.48044
#
# Static dielectric constant tensor:
#      x y z
#    x 1.612010 0.000000 0.006420 
#    y 0.000000 1.685450 0.000000 
#    z 0.006420 0.000000 1.616110 
# 
# From -- ./inp_files/132570.got.cif
#   From: 2010.05.17/outbox.cif.g08.bks.cpg/sg15_67_cif.got.tgz:132570.got - 2010.06.03 18:47:42.
