data_PCOD9258815
_publ_section_title
;
Structure prediction by ZEFSAII (Michael W. Deem and Ramdas Pophale) SiO2 
 PCOD9258815
Probable space group: C 2/C
;
_chemical_formula_sum "Si O2"
_cell_formula_units_Z 60
_cell_length_a 20.217394
_cell_length_b 24.114551
_cell_length_c 8.041105
_cell_angle_alpha 90.000000
_cell_angle_beta 42.939134
_cell_angle_gamma 90.000000
_cell_volume 2670.595710
_symmetry_space_group_name_H-M "C 2/C"
_symmetry_group_IT_number 15
_symmetry_cell_setting 'monoclinic'
loop_
_space_group_symop_operation_xyz
x,y,z
-x,y,1/2-z
-x,-y,-z
x,-y,1/2+z
1/2+x,1/2+y,z
1/2-x,1/2+y,1/2-z
1/2-x,1/2-y,-z
1/2+x,1/2-y,1/2+z
loop_
_atom_site_type_symbol
_atom_site_label
_atom_site_fract_x
_atom_site_fract_y
_atom_site_fract_z
Si Si1 0.021920 0.225841 0.021741
Si Si2 0.641413 0.483458 0.227573
Si Si3 0.110042 0.649444 0.395443
Si Si4 0.167201 0.737280 0.788711
Si Si5 0.720015 0.677442 0.657723
Si Si6 0.257932 0.570800 0.683484
Si Si7 0.589623 0.880288 0.315971
Si Si8 0.000000 0.037289 0.750000
O O1 0.000000 0.206106 0.250000
O O2 0.926154 0.224466 0.082275
O O3 0.061562 0.289011 0.976626
O O4 0.114474 0.192848 0.786738
O O5 0.733133 0.460938 0.158550
O O6 0.563171 0.500302 0.509100
O O7 0.586122 0.439568 0.208651
O O8 0.673716 0.538246 0.070360
O O9 0.120740 0.629947 0.566179
O O10 0.025660 0.612031 0.469240
O O11 0.207772 0.652539 0.111584
O O12 0.250000 0.750000 0.500000
O O13 0.225215 0.730064 0.855096
O O14 0.118349 0.677071 0.853343
O O15 0.707577 0.632371 0.829226
O O16 0.153332 0.574606 0.792022
#
# Coordination Sequence:
#
# PCOD9258815 Si02
#       8
#     8   8   8   8   8   8   8   4
#     4  11  19  36  59  88 127 173 210 252 313 374
#     4   9  18  38  60  85 119 163 211 266 336 383
#     4  10  19  38  62  85 125 170 211 252 325 389
#     4  10  18  34  55  82 126 167 199 250 319 367
#     4  11  23  36  62  97 122 169 224 268 309 389
#     4  10  22  37  62  92 122 165 209 275 329 386
#     4   9  19  36  60  84 116 164 206 258 314 387
#     4   8  16  34  60  82 108 162 208 242 322 408
#
# _framework density 22.466898
#
# number of rings (size 3 to 8) (size 9 to 14) (size 15 to 20)
#    0.000    2.133    4.000    0.400    0.000    6.933 
#    7.200    0.000    0.000   12.800    0.000    0.000 
#    0.000    0.000    0.000    0.000    0.000    0.000 
#
# Total GULP energy -167153.204285 kJ/mol
# GULP energy per Si atom -5571.773476 kJ/mol
# Density = 2.241576 g / cm^3
# Si number density = 22.466898 Si / 1000 Ang^3
#
#
#
# Elastic Constant Matrix: (Units=GPa)
#
#
# Indices 1 2 3 4 5 6 
#
# 1 148.2823 22.4538 53.2527 0.0000 -33.7566 0.0000
# 2 22.4538 35.3261 28.6838 0.0000 -6.8523 0.0000
# 3 53.2527 28.6838 130.6794 0.0000 -24.9982 0.0000
# 4 0.0000 0.0000 0.0000 3938.6749 0.0000 -99.4270
# 5 -33.7566 -6.8523 -24.9982 0.0000 31.1229 0.0000
# 6 0.0000 0.0000 0.0000 -99.4270 0.0000 37.9926
#
#
#
# Elastic Compliance Matrix: (Units=1/GPa)
#
#
# Indices 1 2 3 4 5 6 
#
# 1 0.009771 -0.003220 -0.001634 0.000000 0.008576 0.000000
# 2 -0.003220 0.035592 -0.006699 0.000000 -0.001036 0.000000
# 3 -0.001634 -0.006699 0.010832 0.000000 0.005453 0.000000
# 4 0.000000 0.000000 0.000000 0.000272 0.000000 0.000711
# 5 0.008576 -0.001036 0.005453 0.000000 0.045584 0.000000
# 6 0.000000 0.000000 0.000000 0.000711 0.000000 0.028183
#
#
# Mechanical properties :
#
#
# Convention : Reuss Voigt Hill
#
# Bulk Modulus (GPa) = 30.22141 58.11870 44.17005
# Shear Modulus (GPa) = 30.41945 815.55123 422.98534
#
# Velocity S-wave (km/s) = 3.68362 19.07326 13.73605
# Velocity P-wave (km/s) = 5.61897 22.60480 16.47043
#
# Compressibility (1/GPa) = 0.03308912
#
# Stress axis : x y z
#
# Youngs Moduli (GPa) = 102.34648 28.09597 92.32154
#
# Poissons Ratio (x) = 0.09047 0.15089
# Poissons Ratio (y) = 0.32955 0.61842
# Poissons Ratio (z) = 0.16727 0.18820
#
# Static dielectric constant tensor:
#      x y z
#    x 1.952270 0.000000 -0.010160 
#    y 0.000000 1.882890 0.000000 
#    z -0.010160 0.000000 1.830390 
# 
# From -- ./inp_files/59126.got.cif
#   From: 2010.05.17/outbox.cif.g08.bks.cpg/sg15_30_cif.got.tgz:59126.got - 2010.06.03 18:47:42.
