data_PCOD9258839
_publ_section_title
;
Structure prediction by ZEFSAII (Michael W. Deem and Ramdas Pophale) SiO2 
 PCOD9258839
Probable space group: C 2/C
;
_chemical_formula_sum "Si O2"
_cell_formula_units_Z 36
_cell_length_a 14.176830
_cell_length_b 9.833687
_cell_length_c 12.603729
_cell_angle_alpha 90.000000
_cell_angle_beta 130.595476
_cell_angle_gamma 90.000000
_cell_volume 1334.200030
_symmetry_space_group_name_H-M "C 2/C"
_symmetry_group_IT_number 15
_symmetry_cell_setting 'monoclinic'
loop_
_space_group_symop_operation_xyz
x,y,z
-x,y,1/2-z
-x,-y,-z
x,-y,1/2+z
1/2+x,1/2+y,z
1/2-x,1/2+y,1/2-z
1/2-x,1/2-y,-z
1/2+x,1/2-y,1/2+z
loop_
_atom_site_type_symbol
_atom_site_label
_atom_site_fract_x
_atom_site_fract_y
_atom_site_fract_z
Si Si1 0.387776 0.393686 0.006373
Si Si2 0.582467 0.318093 0.978365
Si Si3 0.500000 0.880339 0.250000
Si Si4 0.815388 0.408213 0.826237
Si Si5 0.399412 0.102051 0.050783
O O1 0.515394 0.367426 0.036155
O O2 0.284225 0.397103 0.838389
O O3 0.389396 0.541389 0.060659
O O4 0.375670 0.256667 0.065786
O O5 0.493505 0.220270 0.844924
O O6 0.692381 0.219841 0.098211
O O7 0.393894 0.986925 0.137094
O O8 0.957430 0.405492 0.885750
O O9 0.812716 0.547294 0.892563
#
# Coordination Sequence:
#
# PCOD9258839 Si02
#       5
#     8   8   4   8   8
#     4  10  18  34  56  78  99 136 184 218 248 305
#     4   9  20  33  53  79 106 135 172 220 264 301
#     4  10  20  38  50  74 116 140 162 214 270 312
#     4   9  17  34  55  76 100 136 178 213 250 308
#     4   9  19  33  53  75 104 139 170 208 260 311
#
# _framework density 26.982458999999999
#
# number of rings (size 3 to 8) (size 9 to 14) (size 15 to 20)
#    0.000    2.667    0.000    2.667    0.000    0.889 
#    0.000   11.111    0.000    0.000    0.000    0.000 
#    0.000    0.000    0.000    0.000    0.000    0.000 
#
# Total GULP energy -100549.235277 kJ/mol
# GULP energy per Si atom -5586.068626 kJ/mol
# Density = 2.692105 g / cm^3
# Si number density = 26.982459 Si / 1000 Ang^3
#
#
#
# Elastic Constant Matrix: (Units=GPa)
#
#
# Indices 1 2 3 4 5 6 
#
# 1 43.6403 19.8596 -20.5960 0.0000 8.5808 0.0000
# 2 19.8596 271.7639 56.3822 0.0000 -10.8497 0.0000
# 3 -20.5960 56.3822 108.4762 0.0000 7.1246 0.0000
# 4 0.0000 0.0000 0.0000 39.8177 0.0000 -8.2644
# 5 8.5808 -10.8497 7.1246 0.0000 25.0562 0.0000
# 6 0.0000 0.0000 0.0000 -8.2644 0.0000 1.5918
#
#
#
# Elastic Compliance Matrix: (Units=1/GPa)
#
#
# Indices 1 2 3 4 5 6 
#
# 1 0.033292 -0.005188 0.010103 0.000000 -0.016521 0.000000
# 2 -0.005188 0.005085 -0.003963 0.000000 0.005106 0.000000
# 3 0.010103 -0.003963 0.013794 0.000000 -0.009099 0.000000
# 4 0.000000 0.000000 0.000000 -0.323617 0.000000 -1.680173
# 5 -0.016521 0.005106 -0.009099 0.000000 0.050366 0.000000
# 6 0.000000 0.000000 0.000000 -1.680173 0.000000 -8.094992
#
#
# Mechanical properties :
#
#
# Convention : Reuss Voigt Hill
#
# Bulk Modulus (GPa) = 18.49328 59.46358 38.97843
# Shear Modulus (GPa) = -0.60241 37.84210 18.61984
#
# Velocity S-wave (km/s) = -0.47302 3.74902 2.62977
# Velocity P-wave (km/s) = 2.56327 6.38952 4.86807
#
# Compressibility (1/GPa) = 0.05407369
#
# Stress axis : x y z
#
# Youngs Moduli (GPa) = 30.03702 196.65892 72.49288
#
# Poissons Ratio (x) = 1.02036 -0.73239
# Poissons Ratio (y) = 0.15585 0.28732
# Poissons Ratio (z) = -0.30346 0.77945
#
# Static dielectric constant tensor:
#      x y z
#    x 2.206050 0.000000 -0.035880 
#    y 0.000000 2.188480 0.000000 
#    z -0.035880 0.000000 2.053680 
# 
# From -- ./inp_files/102909.got.cif
#   From: 2010.05.17/outbox.cif.g08.bks.cpg/sg15_52_cif.got.tgz:102909.got - 2010.06.03 18:47:42.
