data_PCOD9258101
_publ_section_title
;
Structure prediction by ZEFSAII (Michael W. Deem and Ramdas Pophale) SiO2 
 PCOD9258101
Probable space group: C 2/C
;
_chemical_formula_sum "Si O2"
_cell_formula_units_Z 28
_cell_length_a 12.720863
_cell_length_b 6.426729
_cell_length_c 20.483468
_cell_angle_alpha 90.000000
_cell_angle_beta 43.751391
_cell_angle_gamma 90.000000
_cell_volume 1158.034367
_symmetry_space_group_name_H-M "C 2/C"
_symmetry_group_IT_number 15
_symmetry_cell_setting 'monoclinic'
loop_
_space_group_symop_operation_xyz
x,y,z
-x,y,1/2-z
-x,-y,-z
x,-y,1/2+z
1/2+x,1/2+y,z
1/2-x,1/2+y,1/2-z
1/2-x,1/2-y,-z
1/2+x,1/2-y,1/2+z
loop_
_atom_site_type_symbol
_atom_site_label
_atom_site_fract_x
_atom_site_fract_y
_atom_site_fract_z
Si Si1 0.500000 0.598634 0.750000
Si Si2 0.929951 0.634150 0.121228
Si Si3 0.175569 0.278121 0.420341
Si Si4 0.606010 0.709029 0.314840
O O1 0.643899 0.734898 0.663236
O O2 0.463516 0.447302 0.705459
O O3 0.856475 0.516778 0.090525
O O4 0.784698 0.745017 0.217786
O O5 0.969394 0.437227 0.149655
O O6 0.080308 0.746859 0.028637
O O7 0.106805 0.146562 0.391019
#
# Coordination Sequence:
#
# PCOD9258101 Si02
#       4
#     4   8   8   8
#     4  10  18  32  60  76 102 150 170 206 272 306
#     4   8  16  33  53  74 112 136 167 226 259 297
#     4   8  17  33  52  78 109 138 170 218 263 306
#     4   9  17  33  55  77 107 139 174 216 257 314
#
# _framework density 24.178901
#
# number of rings (size 3 to 8) (size 9 to 14) (size 15 to 20)
#    1.714    1.714    0.000    0.000    0.000    1.143 
#    0.000    4.286    0.000    0.000    0.000    2.000 
#    0.000    0.000    0.000    0.000    0.000    0.000 
#
# Total GULP energy -77972.953374 kJ/mol
# GULP energy per Si atom -5569.496670 kJ/mol
# Density = 2.412387 g / cm^3
# Si number density = 24.178901 Si / 1000 Ang^3
#
#
#
# Elastic Constant Matrix: (Units=GPa)
#
#
# Indices 1 2 3 4 5 6 
#
# 1 92.9673 40.4813 33.5718 0.0001 8.1703 0.0010
# 2 40.4813 52.5236 37.4999 0.0002 4.6210 0.0017
# 3 33.5718 37.4999 157.7022 0.0000 -0.8408 0.0001
# 4 0.0001 0.0002 0.0000 29.9864 -0.0001 6.5668
# 5 8.1703 4.6210 -0.8408 -0.0001 35.9952 0.0001
# 6 0.0010 0.0017 0.0001 6.5668 0.0001 31.6008
#
#
#
# Elastic Compliance Matrix: (Units=1/GPa)
#
#
# Indices 1 2 3 4 5 6 
#
# 1 0.016403 -0.011982 -0.000655 0.000000 -0.002200 0.000000
# 2 -0.011982 0.032029 -0.005074 0.000000 -0.001511 -0.000001
# 3 -0.000655 -0.005074 0.007692 0.000000 0.000980 0.000000
# 4 0.000000 0.000000 0.000000 0.034938 0.000000 -0.007260
# 5 -0.002200 -0.001511 0.000980 0.000000 0.028498 0.000000
# 6 0.000000 -0.000001 0.000000 -0.007260 0.000000 0.033154
#
#
# Mechanical properties :
#
#
# Convention : Reuss Voigt Hill
#
# Bulk Modulus (GPa) = 48.29781 58.47769 53.38775
# Shear Modulus (GPa) = 25.63639 32.29247 28.96443
#
# Velocity S-wave (km/s) = 3.25973 3.65850 3.46486
# Velocity P-wave (km/s) = 5.84691 6.48723 6.17537
#
# Compressibility (1/GPa) = 0.02070487
#
# Stress axis : x y z
#
# Youngs Moduli (GPa) = 60.96271 31.22185 130.00398
#
# Poissons Ratio (x) = 0.37409 0.08510
# Poissons Ratio (y) = 0.73043 0.65958
# Poissons Ratio (z) = 0.03991 0.15840
#
# Static dielectric constant tensor:
#      x y z
#    x 1.979850 0.000000 0.012230 
#    y 0.000000 1.971880 0.000000 
#    z 0.012230 0.000000 1.973090 
# 
# From -- ./inp_files/83595.got.cif
#   From: 2010.05.17/outbox.cif.g08.bks.cpg/sg15_42_cif.got.tgz:83595.got - 2010.06.03 18:47:42.
