data_PCOD9258020
_publ_section_title
;
Structure prediction by ZEFSAII (Michael W. Deem and Ramdas Pophale) SiO2 
 PCOD9258020
Probable space group: C 2/C
;
_chemical_formula_sum "Si O2"
_cell_formula_units_Z 56
_cell_length_a 26.908390
_cell_length_b 12.021475
_cell_length_c 20.643167
_cell_angle_alpha 90.000000
_cell_angle_beta 149.434069
_cell_angle_gamma 90.000000
_cell_volume 3395.767607
_symmetry_space_group_name_H-M "C 2/C"
_symmetry_group_IT_number 15
_symmetry_cell_setting 'monoclinic'
loop_
_space_group_symop_operation_xyz
x,y,z
-x,y,1/2-z
-x,-y,-z
x,-y,1/2+z
1/2+x,1/2+y,z
1/2-x,1/2+y,1/2-z
1/2-x,1/2-y,-z
1/2+x,1/2-y,1/2+z
loop_
_atom_site_type_symbol
_atom_site_label
_atom_site_fract_x
_atom_site_fract_y
_atom_site_fract_z
Si Si1 0.778100 0.383505 0.645720
Si Si2 0.946567 0.154893 0.624925
Si Si3 0.970236 0.595864 0.287371
Si Si4 0.268446 0.467360 0.292879
Si Si5 0.069396 0.476639 0.516457
Si Si6 0.451896 0.403105 0.987734
Si Si7 0.113016 0.247353 0.618482
O O1 0.671106 0.346437 0.502272
O O2 0.855377 0.395784 0.674657
O O3 0.763829 0.498338 0.670634
O O4 0.826661 0.298193 0.752680
O O5 0.970515 0.088683 0.585716
O O6 0.000000 0.113546 0.750000
O O7 0.984377 0.280353 0.656696
O O8 0.000000 0.554900 0.250000
O O9 0.016296 0.518547 0.393628
O O10 0.171329 0.460195 0.141688
O O11 0.336683 0.573837 0.350104
O O12 0.330896 0.356494 0.350910
O O13 0.095964 0.346991 0.549602
O O14 0.000000 0.500000 0.500000
O O15 0.506997 0.293352 0.025352
O O16 0.500000 0.500000 0.000000
#
# Coordination Sequence:
#
# PCOD9258020 Si02
#       7
#     8   8   8   8   8   8   8
#     4  10  19  36  52  80 112 142 180 223 266 325
#     4  10  20  33  53  76 111 145 177 214 277 325
#     4  11  22  36  52  80 113 143 178 228 268 323
#     4   9  19  32  54  81 108 137 174 228 265 315
#     4  11  19  34  54  79 104 140 183 218 268 322
#     4   9  17  33  51  79 109 131 177 221 265 312
#     4  10  18  32  58  78 106 140 178 223 274 315
#
# _framework density 16.491116999999999
#
# number of rings (size 3 to 8) (size 9 to 14) (size 15 to 20)
#    0.000    2.000    4.286    0.857    0.000    4.571 
#    5.143    0.000    0.000    8.571    0.000    0.000 
#    0.000    0.000    0.000    0.000    0.000    0.000 
#
# Total GULP energy -155929.562737 kJ/mol
# GULP energy per Si atom -5568.912955 kJ/mol
# Density = 1.645358 g / cm^3
# Si number density = 16.491117 Si / 1000 Ang^3
#
#
#
# Elastic Constant Matrix: (Units=GPa)
#
#
# Indices 1 2 3 4 5 6 
#
# 1 128.4829 35.2992 53.6519 0.0000 4.5446 0.0000
# 2 35.2992 59.1044 22.5259 0.0000 1.6226 0.0000
# 3 53.6519 22.5259 90.9107 0.0000 6.4139 0.0000
# 4 0.0000 0.0000 0.0000 24.1302 0.0000 4.3208
# 5 4.5446 1.6226 6.4139 0.0000 30.6871 0.0000
# 6 0.0000 0.0000 0.0000 4.3208 0.0000 21.9399
#
#
#
# Elastic Compliance Matrix: (Units=1/GPa)
#
#
# Indices 1 2 3 4 5 6 
#
# 1 0.011395 -0.004685 -0.005545 0.000000 -0.000281 0.000000
# 2 -0.004685 0.020610 -0.002348 0.000000 0.000095 0.000000
# 3 -0.005545 -0.002348 0.015008 0.000000 -0.002192 0.000000
# 4 0.000000 0.000000 0.000000 0.042957 0.000000 -0.008460
# 5 -0.000281 0.000095 -0.002192 0.000000 0.033082 0.000000
# 6 0.000000 0.000000 0.000000 -0.008460 0.000000 0.047245
#
#
# Mechanical properties :
#
#
# Convention : Reuss Voigt Hill
#
# Bulk Modulus (GPa) = 45.75035 55.71690 50.73362
# Shear Modulus (GPa) = 24.66225 26.48616 25.57420
#
# Velocity S-wave (km/s) = 3.87135 4.01195 3.94228
# Velocity P-wave (km/s) = 6.91272 7.43776 7.18004
#
# Compressibility (1/GPa) = 0.02185776
#
# Stress axis : x y z
#
# Youngs Moduli (GPa) = 87.75395 48.52088 66.62896
#
# Poissons Ratio (x) = 0.22732 0.36943
# Poissons Ratio (y) = 0.41112 0.15648
# Poissons Ratio (z) = 0.48655 0.11395
#
# Static dielectric constant tensor:
#      x y z
#    x 1.583600 0.000000 0.027990 
#    y 0.000000 1.559420 0.000000 
#    z 0.027990 0.000000 1.564050 
# 
# From -- ./inp_files/122712.got.cif
#   From: 2010.05.17/outbox.cif.g08.bks.cpg/sg15_62_cif.got.tgz:122712.got - 2010.06.03 18:47:42.
