data_PCOD9258969
_publ_section_title
;
Structure prediction by ZEFSAII (Michael W. Deem and Ramdas Pophale) SiO2 
 PCOD9258969
Probable space group: C 2/C
;
_chemical_formula_sum "Si O2"
_cell_formula_units_Z 52
_cell_length_a 15.374713
_cell_length_b 18.625923
_cell_length_c 22.350303
_cell_angle_alpha 90.000000
_cell_angle_beta 27.284996
_cell_angle_gamma 90.000000
_cell_volume 2934.058688
_symmetry_space_group_name_H-M "C 2/C"
_symmetry_group_IT_number 15
_symmetry_cell_setting 'monoclinic'
loop_
_space_group_symop_operation_xyz
x,y,z
-x,y,1/2-z
-x,-y,-z
x,-y,1/2+z
1/2+x,1/2+y,z
1/2-x,1/2+y,1/2-z
1/2-x,1/2-y,-z
1/2+x,1/2-y,1/2+z
loop_
_atom_site_type_symbol
_atom_site_label
_atom_site_fract_x
_atom_site_fract_y
_atom_site_fract_z
Si Si1 0.714785 0.981818 0.144639
Si Si2 0.500000 0.489443 0.750000
Si Si3 0.647585 0.699400 0.251002
Si Si4 0.863797 0.642418 0.712577
Si Si5 0.810941 0.534882 0.643585
Si Si6 0.278408 0.646580 0.422805
Si Si7 0.888018 0.069370 0.140919
O O1 0.500000 0.992420 0.250000
O O2 0.701336 0.915150 0.198963
O O3 0.794501 0.050451 0.133590
O O4 0.892489 0.957536 0.994422
O O5 0.649017 0.537308 0.693255
O O6 0.624531 0.432155 0.635890
O O7 0.714859 0.778716 0.226299
O O8 0.433519 0.699547 0.355625
O O9 0.754971 0.666110 0.127109
O O10 0.636599 0.648457 0.315977
O O11 0.829606 0.608740 0.668031
O O12 0.090652 0.647199 0.575486
O O13 0.731362 0.478783 0.740358
O O14 0.000000 0.500000 0.500000
#
# Coordination Sequence:
#
# PCOD9258969 Si02
#       7
#     8   4   8   8   8   8   8
#     4  10  23  34  54  80 107 148 184 216 263 325
#     4  10  18  34  58  78 108 136 184 226 268 314
#     4  10  20  32  54  76 113 140 171 224 278 318
#     4  11  22  32  54  81 109 141 180 216 272 332
#     4  11  20  36  57  82 106 144 184 223 269 317
#     4  10  19  34  53  81 107 140 170 225 278 321
#     4  10  20  38  52  78 112 144 178 222 271 313
#
# _framework density 17.72289
#
# number of rings (size 3 to 8) (size 9 to 14) (size 15 to 20)
#    0.000    1.846    4.615    1.385    4.308    0.000 
#    0.000    0.000    1.692    0.000    0.000    5.385 
#    0.000    0.000    0.000    0.000    0.000    0.000 
#
# Total GULP energy -144764.146361 kJ/mol
# GULP energy per Si atom -5567.851783 kJ/mol
# Density = 1.768255 g / cm^3
# Si number density = 17.722890 Si / 1000 Ang^3
#
#
#
# Elastic Constant Matrix: (Units=GPa)
#
#
# Indices 1 2 3 4 5 6 
#
# 1 95.4796 48.3946 15.3301 0.0104 -6.9620 -0.0026
# 2 48.3946 87.2050 15.4547 0.0194 6.4191 -0.0036
# 3 15.3301 15.4547 99.0239 0.0434 7.3035 -0.0099
# 4 0.0104 0.0194 0.0434 10.8784 0.0058 4.1453
# 5 -6.9620 6.4191 7.3035 0.0058 24.8606 0.0103
# 6 -0.0026 -0.0036 -0.0099 4.1453 0.0103 21.6672
#
#
#
# Elastic Compliance Matrix: (Units=1/GPa)
#
#
# Indices 1 2 3 4 5 6 
#
# 1 0.015836 -0.009042 -0.001574 0.000005 0.007232 -0.000005
# 2 -0.009042 0.017117 -0.000776 -0.000018 -0.006724 0.000008
# 3 -0.001574 -0.000776 0.010713 -0.000044 -0.003388 0.000015
# 4 0.000005 -0.000018 -0.000044 0.099155 0.000004 -0.018970
# 5 0.007232 -0.006724 -0.003388 0.000004 0.044981 -0.000024
# 6 -0.000005 0.000008 0.000015 -0.018970 -0.000024 0.049782
#
#
# Mechanical properties :
#
#
# Convention : Reuss Voigt Hill
#
# Bulk Modulus (GPa) = 47.88364 48.89637 48.39000
# Shear Modulus (GPa) = 18.70355 24.98317 21.84336
#
# Velocity S-wave (km/s) = 3.25211 3.75861 3.51450
# Velocity P-wave (km/s) = 6.41703 6.81803 6.62057
#
# Compressibility (1/GPa) = 0.02088396
#
# Stress axis : x y z
#
# Youngs Moduli (GPa) = 63.14566 58.41986 93.34286
#
# Poissons Ratio (x) = 0.52822 0.14691
# Poissons Ratio (y) = 0.57095 0.07242
# Poissons Ratio (z) = 0.09938 0.04532
#
# Static dielectric constant tensor:
#      x y z
#    x 1.689160 0.000000 0.033650 
#    y 0.000000 1.628560 0.000000 
#    z 0.033650 0.000000 1.656360 
# 
# From -- ./inp_files/245010.got.cif
#   From: 2010.05.17/outbox.cif.g08.bks.cpg/sg15_123_cif.got.tgz:245010.got - 2010.06.03 18:47:42.
