data_PCOD9258270
_publ_section_title
;
Structure prediction by ZEFSAII (Michael W. Deem and Ramdas Pophale) SiO2 
 PCOD9258270
Probable space group: C 2/C
;
_chemical_formula_sum "Si O2"
_cell_formula_units_Z 48
_cell_length_a 14.111178
_cell_length_b 16.982465
_cell_length_c 21.762596
_cell_angle_alpha 90.000000
_cell_angle_beta 32.724999
_cell_angle_gamma 90.000000
_cell_volume 2819.400099
_symmetry_space_group_name_H-M "C 2/C"
_symmetry_group_IT_number 15
_symmetry_cell_setting 'monoclinic'
loop_
_space_group_symop_operation_xyz
x,y,z
-x,y,1/2-z
-x,-y,-z
x,-y,1/2+z
1/2+x,1/2+y,z
1/2-x,1/2+y,1/2-z
1/2-x,1/2-y,-z
1/2+x,1/2-y,1/2+z
loop_
_atom_site_type_symbol
_atom_site_label
_atom_site_fract_x
_atom_site_fract_y
_atom_site_fract_z
Si Si1 0.910228 0.353894 0.908137
Si Si2 0.627703 0.827467 0.239440
Si Si3 0.572415 0.579878 0.992842
Si Si4 0.303107 0.270005 0.371263
Si Si5 0.919208 0.473729 0.362277
Si Si6 0.806668 0.205022 0.191253
O O1 0.827930 0.315456 0.890966
O O2 0.923874 0.446753 0.896736
O O3 0.104829 0.319957 0.808538
O O4 0.791651 0.324499 0.028269
O O5 0.500000 0.812157 0.250000
O O6 0.815856 0.861568 0.113467
O O7 0.638478 0.753538 0.278523
O O8 0.533674 0.901297 0.324206
O O9 0.720753 0.552641 0.959770
O O10 0.500000 0.500000 0.000000
O O11 0.424288 0.630360 0.107977
O O12 0.500000 0.298001 0.250000
O O13 0.195768 0.260766 0.367505
O O14 0.000000 0.490336 0.250000
#
# Coordination Sequence:
#
# PCOD9258270 Si02
#       6
#     8   8   8   8   8   8
#     4  10  18  33  53  77 105 131 169 220 268 313
#     4   9  21  36  51  76 108 140 177 219 261 312
#     4  10  19  32  55  81 102 136 181 221 260 311
#     4   9  19  31  50  77 105 135 168 214 267 318
#     4   9  18  33  51  73 104 135 171 220 264 305
#     4  11  19  32  55  79 104 136 175 216 263 315
#
# _framework density 17.024896999999999
#
# number of rings (size 3 to 8) (size 9 to 14) (size 15 to 20)
#    0.000    2.667    0.000    5.500    0.000    5.333 
#    0.000    0.833    0.000    5.000    0.000    0.000 
#    0.000    0.000    0.000    0.000    0.000    0.000 
#
# Total GULP energy -133732.134091 kJ/mol
# GULP energy per Si atom -5572.172254 kJ/mol
# Density = 1.698615 g / cm^3
# Si number density = 17.024897 Si / 1000 Ang^3
#
#
#
# Elastic Constant Matrix: (Units=GPa)
#
#
# Indices 1 2 3 4 5 6 
#
# 1 64.0961 37.7810 24.3184 -0.0001 7.1978 0.0009
# 2 37.7810 99.0771 31.1996 -0.0012 7.8012 0.0009
# 3 24.3184 31.1996 86.2027 -0.0022 4.9561 0.0025
# 4 -0.0001 -0.0012 -0.0022 22.4881 0.0010 8.3744
# 5 7.1978 7.8012 4.9561 0.0010 15.4864 -0.0011
# 6 0.0009 0.0009 0.0025 8.3744 -0.0011 -1.0673
#
#
#
# Elastic Compliance Matrix: (Units=1/GPa)
#
#
# Indices 1 2 3 4 5 6 
#
# 1 0.021421 -0.006693 -0.003303 -0.000001 -0.005527 0.000002
# 2 -0.006693 0.013799 -0.002940 0.000000 -0.002900 0.000002
# 3 -0.003303 -0.002940 0.013674 -0.000002 -0.001360 0.000009
# 4 -0.000001 0.000000 -0.000002 0.011338 0.000007 0.088964
# 5 -0.005527 -0.002900 -0.001360 0.000007 0.069038 -0.000027
# 6 0.000002 0.000002 0.000009 0.088964 -0.000027 -0.238898
#
#
# Mechanical properties :
#
#
# Convention : Reuss Voigt Hill
#
# Bulk Modulus (GPa) = 43.43345 48.44156 45.93750
# Shear Modulus (GPa) = -65.71807 17.78658 -23.96574
#
# Velocity S-wave (km/s) = -6.21972 3.23575 -3.75599
# Velocity P-wave (km/s) = 5.10028 6.51730 2.86901
#
# Compressibility (1/GPa) = 0.02302373
#
# Stress axis : x y z
#
# Youngs Moduli (GPa) = 46.68423 72.46689 73.12931
#
# Poissons Ratio (x) = 0.48502 0.24152
# Poissons Ratio (y) = 0.31246 0.21497
# Poissons Ratio (z) = 0.15418 0.21302
#
# Static dielectric constant tensor:
#      x y z
#    x 1.583600 0.000000 -0.003900 
#    y 0.000000 1.581570 0.000000 
#    z -0.003900 0.000000 1.588320 
# 
# From -- ./inp_files/173722.got.cif
#   From: 2010.05.17/outbox.cif.g08.bks.cpg/sg15_87_cif.got.tgz:173722.got - 2010.06.03 18:47:42.
