data_PCOD9258272
_publ_section_title
;
Structure prediction by ZEFSAII (Michael W. Deem and Ramdas Pophale) SiO2 
 PCOD9258272
Probable space group: C 2/C
;
_chemical_formula_sum "Si O2"
_cell_formula_units_Z 52
_cell_length_a 12.697845
_cell_length_b 19.219790
_cell_length_c 15.527913
_cell_angle_alpha 90.000000
_cell_angle_beta 129.095312
_cell_angle_gamma 90.000000
_cell_volume 2941.090016
_symmetry_space_group_name_H-M "C 2/C"
_symmetry_group_IT_number 15
_symmetry_cell_setting 'monoclinic'
loop_
_space_group_symop_operation_xyz
x,y,z
-x,y,1/2-z
-x,-y,-z
x,-y,1/2+z
1/2+x,1/2+y,z
1/2-x,1/2+y,1/2-z
1/2-x,1/2-y,-z
1/2+x,1/2-y,1/2+z
loop_
_atom_site_type_symbol
_atom_site_label
_atom_site_fract_x
_atom_site_fract_y
_atom_site_fract_z
Si Si1 0.985877 0.102833 0.552170
Si Si2 0.281029 0.549588 0.166304
Si Si3 0.000000 0.930374 0.250000
Si Si4 0.228733 0.008394 0.146328
Si Si5 0.103500 0.790332 0.983901
Si Si6 0.364457 0.859275 0.037189
Si Si7 0.500000 0.331992 0.750000
Si Si8 0.000000 0.428361 0.250000
O O1 0.846145 0.066485 0.449889
O O2 0.990507 0.112494 0.657065
O O3 0.016155 0.169156 0.508784
O O4 0.109746 0.049117 0.596792
O O5 0.370526 0.482730 0.185596
O O6 0.235529 0.536870 0.240206
O O7 0.381274 0.615767 0.216696
O O8 0.173338 0.573941 0.039919
O O9 0.364029 0.974297 0.178682
O O10 0.121583 0.709403 0.014409
O O11 0.038815 0.790230 0.854817
O O12 0.241993 0.834304 0.038130
O O13 0.491298 0.880021 0.161174
#
# Coordination Sequence:
#
# PCOD9258272 Si02
#       8
#     8   8   4   8   8   8   4   4
#     4  10  18  35  53  82 103 148 184 228 260 327
#     4   9  17  32  48  79 102 144 170 222 269 326
#     4   9  18  28  57  79 110 130 189 230 260 303
#     4  10  20  32  55  75 112 141 183 224 281 317
#     4  10  18  33  53  78 110 144 177 219 264 332
#     4  10  21  31  49  78 115 140 174 213 280 329
#     4   9  15  28  52  78 104 127 181 218 260 311
#     4  12  21  34  49  85 114 145 172 234 276 334
#
# _framework density 17.680520000000001
#
# number of rings (size 3 to 8) (size 9 to 14) (size 15 to 20)
#    0.000    2.154    3.077    1.385    4.308    0.615 
#    0.000    0.000    0.000    0.923    0.000    6.462 
#    0.000    0.000    0.000    0.000    0.000    0.000 
#
# Total GULP energy -144839.126446 kJ/mol
# GULP energy per Si atom -5570.735633 kJ/mol
# Density = 1.764028 g / cm^3
# Si number density = 17.680520 Si / 1000 Ang^3
#
#
#
# Elastic Constant Matrix: (Units=GPa)
#
#
# Indices 1 2 3 4 5 6 
#
# 1 52.3689 28.6037 28.8163 0.0000 -9.2175 0.0000
# 2 28.6037 62.5556 39.9648 0.0000 -12.4691 0.0000
# 3 28.8163 39.9648 98.2016 0.0000 -11.0118 0.0000
# 4 0.0000 0.0000 0.0000 10.9584 0.0000 -5.2844
# 5 -9.2175 -12.4691 -11.0118 0.0000 29.2737 0.0000
# 6 0.0000 0.0000 0.0000 -5.2844 0.0000 19.7155
#
#
#
# Elastic Compliance Matrix: (Units=1/GPa)
#
#
# Indices 1 2 3 4 5 6 
#
# 1 0.026734 -0.009214 -0.003749 0.000000 0.003083 0.000000
# 2 -0.009214 0.025895 -0.007228 0.000000 0.005410 0.000000
# 3 -0.003749 -0.007228 0.014353 0.000000 0.001140 0.000000
# 4 0.000000 0.000000 0.000000 0.104800 0.000000 0.028090
# 5 0.003083 0.005410 0.001140 0.000000 0.037864 0.000000
# 6 0.000000 0.000000 0.000000 0.028090 0.000000 0.058251
#
#
# Mechanical properties :
#
#
# Convention : Reuss Voigt Hill
#
# Bulk Modulus (GPa) = 37.59620 45.32176 41.45898
# Shear Modulus (GPa) = 15.76567 19.70560 17.73564
#
# Velocity S-wave (km/s) = 2.98937 3.34209 3.17064
# Velocity P-wave (km/s) = 5.76415 6.37041 6.07485
#
# Compressibility (1/GPa) = 0.02659843
#
# Stress axis : x y z
#
# Youngs Moduli (GPa) = 37.40590 38.61733 69.67366
#
# Poissons Ratio (x) = 0.35584 0.26121
# Poissons Ratio (y) = 0.34467 0.50360
# Poissons Ratio (z) = 0.14024 0.27912
#
# Static dielectric constant tensor:
#      x y z
#    x 1.609510 0.000000 0.021180 
#    y 0.000000 1.617110 0.000000 
#    z 0.021180 0.000000 1.663930 
# 
# From -- ./inp_files/97843.got.cif
#   From: 2010.05.17/outbox.cif.g08.bks.cpg/sg15_49_cif.got.tgz:97843.got - 2010.06.03 18:47:42.
