data_PCOD9258583
_publ_section_title
;
Structure prediction by ZEFSAII (Michael W. Deem and Ramdas Pophale) SiO2 
 PCOD9258583
Probable space group: C 2/C
;
_chemical_formula_sum "Si O2"
_cell_formula_units_Z 48
_cell_length_a 7.569559
_cell_length_b 14.068359
_cell_length_c 25.304449
_cell_angle_alpha 90.000000
_cell_angle_beta 131.766803
_cell_angle_gamma 90.000000
_cell_volume 2009.876734
_symmetry_space_group_name_H-M "C 2/C"
_symmetry_group_IT_number 15
_symmetry_cell_setting 'monoclinic'
loop_
_space_group_symop_operation_xyz
x,y,z
-x,y,1/2-z
-x,-y,-z
x,-y,1/2+z
1/2+x,1/2+y,z
1/2-x,1/2+y,1/2-z
1/2-x,1/2-y,-z
1/2+x,1/2-y,1/2+z
loop_
_atom_site_type_symbol
_atom_site_label
_atom_site_fract_x
_atom_site_fract_y
_atom_site_fract_z
Si Si1 0.422573 0.308894 0.180922
Si Si2 0.364321 0.523851 0.172440
Si Si3 0.739400 0.564355 0.678043
Si Si4 0.389610 0.210979 0.975907
Si Si5 0.644872 0.954238 0.964629
Si Si6 0.853321 0.878852 0.460538
O O1 0.500000 0.258098 0.250000
O O2 0.314319 0.411989 0.176665
O O3 0.647411 0.341189 0.190534
O O4 0.237199 0.263784 0.104016
O O5 0.500000 0.565479 0.250000
O O6 0.548023 0.513902 0.160192
O O7 0.111143 0.568721 0.110328
O O8 0.726065 0.587129 0.613454
O O9 0.000000 0.539626 0.750000
O O10 0.250000 0.250000 0.000000
O O11 0.354252 0.098518 0.979130
O O12 0.636357 0.265757 0.031174
O O13 0.698803 0.065658 0.972068
O O14 0.872966 0.913149 0.978860
#
# Coordination Sequence:
#
# PCOD9258583 Si02
#       6
#     8   8   8   8   8   8
#     4   9  19  34  59  86 115 165 203 246 319 387
#     4   9  18  33  55  85 120 159 202 256 316 384
#     4  10  18  33  60  86 116 165 210 252 318 391
#     4  10  18  38  61  88 127 161 207 265 322 382
#     4  10  19  35  61  87 125 158 206 261 320 383
#     4  10  21  34  61  96 116 164 212 261 319 392
#
# _framework density 23.882061
#
# number of rings (size 3 to 8) (size 9 to 14) (size 15 to 20)
#    1.000    1.333    3.333    1.000    0.000    2.667 
#    0.000    1.667    0.000   33.000    0.000    2.333 
#    0.000    0.000    0.000    0.000    0.000    0.000 
#
# Total GULP energy -133758.281128 kJ/mol
# GULP energy per Si atom -5573.261714 kJ/mol
# Density = 2.382770 g / cm^3
# Si number density = 23.882061 Si / 1000 Ang^3
#
#
#
# Elastic Constant Matrix: (Units=GPa)
#
#
# Indices 1 2 3 4 5 6 
#
# 1 123.8351 24.8179 50.6232 0.0000 1.1535 0.0000
# 2 24.8179 51.6877 21.3060 0.0000 -9.1749 0.0000
# 3 50.6232 21.3060 184.3224 0.0000 -1.0162 0.0000
# 4 0.0000 0.0000 0.0000 14.5357 0.0000 4.5354
# 5 1.1535 -9.1749 -1.0162 0.0000 51.1072 0.0000
# 6 0.0000 0.0000 0.0000 4.5354 0.0000 23.4204
#
#
#
# Elastic Compliance Matrix: (Units=1/GPa)
#
#
# Indices 1 2 3 4 5 6 
#
# 1 0.009791 -0.003952 -0.002238 0.000000 -0.000975 0.000000
# 2 -0.003952 0.022595 -0.001504 0.000000 0.004116 0.000000
# 3 -0.002238 -0.001504 0.006213 0.000000 -0.000096 0.000000
# 4 0.000000 0.000000 0.000000 0.073220 0.000000 -0.014179
# 5 -0.000975 0.004116 -0.000096 0.000000 0.020326 0.000000
# 6 0.000000 0.000000 0.000000 -0.014179 0.000000 0.045444
#
#
# Mechanical properties :
#
#
# Convention : Reuss Voigt Hill
#
# Bulk Modulus (GPa) = 43.08006 61.48215 52.28111
# Shear Modulus (GPa) = 24.91122 35.35253 30.13187
#
# Velocity S-wave (km/s) = 3.23320 3.85164 3.55589
# Velocity P-wave (km/s) = 5.65826 6.75130 6.22881
#
# Compressibility (1/GPa) = 0.02321259
#
# Stress axis : x y z
#
# Youngs Moduli (GPa) = 102.13384 44.25782 160.94977
#
# Poissons Ratio (x) = 0.17490 0.36015
# Poissons Ratio (y) = 0.40362 0.24202
# Poissons Ratio (z) = 0.22854 0.06655
#
# Static dielectric constant tensor:
#      x y z
#    x 1.954790 0.000000 0.014320 
#    y 0.000000 2.096900 0.000000 
#    z 0.014320 0.000000 1.920030 
# 
# From -- ./inp_files/289076.got.cif
#   From: 2010.05.17/outbox.cif.g08.bks.cpg/sg15_145_cif.got.tgz:289076.got - 2010.06.03 18:47:42.
