data_PCOD9258549
_publ_section_title
;
Structure prediction by ZEFSAII (Michael W. Deem and Ramdas Pophale) SiO2 
 PCOD9258549
Probable space group: C 2/C
;
_chemical_formula_sum "Si O2"
_cell_formula_units_Z 64
_cell_length_a 31.244269
_cell_length_b 18.898843
_cell_length_c 10.030064
_cell_angle_alpha 90.000000
_cell_angle_beta 38.346027
_cell_angle_gamma 90.000000
_cell_volume 3674.409550
_symmetry_space_group_name_H-M "C 2/C"
_symmetry_group_IT_number 15
_symmetry_cell_setting 'monoclinic'
loop_
_space_group_symop_operation_xyz
x,y,z
-x,y,1/2-z
-x,-y,-z
x,-y,1/2+z
1/2+x,1/2+y,z
1/2-x,1/2+y,1/2-z
1/2-x,1/2-y,-z
1/2+x,1/2-y,1/2+z
loop_
_atom_site_type_symbol
_atom_site_label
_atom_site_fract_x
_atom_site_fract_y
_atom_site_fract_z
Si Si1 0.716096 0.728925 0.222858
Si Si2 0.079066 0.306596 0.569490
Si Si3 0.576039 0.756509 0.080343
Si Si4 0.923054 0.617660 0.139758
Si Si5 0.775405 0.425284 0.641729
Si Si6 0.718964 0.951722 0.567926
Si Si7 0.720910 0.695002 0.680736
Si Si8 0.421879 0.127866 0.709190
O O1 0.634733 0.744607 0.419721
O O2 0.738038 0.649851 0.210421
O O3 0.746164 0.781511 0.260649
O O4 0.750000 0.750000 0.000000
O O5 0.088191 0.346621 0.687930
O O6 0.088942 0.360206 0.421394
O O7 0.000000 0.281780 0.750000
O O8 0.500000 0.724816 0.250000
O O9 0.579340 0.794961 0.215937
O O10 0.582484 0.821067 0.958548
O O11 0.639203 0.705337 0.896858
O O12 0.863309 0.561601 0.254580
O O13 0.003290 0.594391 0.943518
O O14 0.764387 0.454653 0.816598
O O15 0.756833 0.480560 0.572803
O O16 0.857345 0.412112 0.427563
O O17 0.755300 0.881935 0.420866
O O18 0.750000 0.750000 0.500000
#
# Coordination Sequence:
#
# PCOD9258549 Si02
#       8
#     8   8   8   8   8   8   8   8
#     4  12  21  36  64  86 115 153 195 246 288 335
#     4  10  20  33  57  91 115 145 191 240 293 342
#     4  10  18  33  59  87 111 143 191 244 289 338
#     4  10  19  34  58  81 114 153 187 234 282 345
#     4  12  26  40  55  86 120 157 195 238 291 346
#     4  12  26  39  57  84 120 156 197 238 291 348
#     4  12  19  38  62  86 108 154 199 242 287 340
#     4  10  19  36  54  83 119 148 191 230 282 347
#
# _framework density 17.417763999999998
#
# number of rings (size 3 to 8) (size 9 to 14) (size 15 to 20)
#    0.000    1.000    7.500    0.000    3.500    0.500 
#    0.000    0.000    0.000    0.750    0.000    1.750 
#    0.000    0.000    0.000    0.000    0.000    0.000 
#
# Total GULP energy -178709.666929 kJ/mol
# GULP energy per Si atom -5584.677092 kJ/mol
# Density = 1.737812 g / cm^3
# Si number density = 17.417764 Si / 1000 Ang^3
#
#
#
# Elastic Constant Matrix: (Units=GPa)
#
#
# Indices 1 2 3 4 5 6 
#
# 1 75.8217 12.2541 36.4913 0.0000 18.3278 0.0000
# 2 12.2541 41.1442 16.0502 0.0000 3.1518 0.0000
# 3 36.4913 16.0502 86.7647 0.0000 8.8876 0.0000
# 4 0.0000 0.0000 0.0000 20.7779 0.0000 7.8962
# 5 18.3278 3.1518 8.8876 0.0000 41.9663 0.0000
# 6 0.0000 0.0000 0.0000 7.8962 0.0000 17.2648
#
#
#
# Elastic Compliance Matrix: (Units=1/GPa)
#
#
# Indices 1 2 3 4 5 6 
#
# 1 0.018301 -0.002385 -0.006599 0.000000 -0.006416 0.000000
# 2 -0.002385 0.026544 -0.003894 0.000000 -0.000127 0.000000
# 3 -0.006599 -0.003894 0.015022 0.000000 -0.000007 0.000000
# 4 0.000000 0.000000 0.000000 0.058253 0.000000 -0.026642
# 5 -0.006416 -0.000127 -0.000007 0.000000 0.026642 0.000000
# 6 0.000000 0.000000 0.000000 -0.026642 0.000000 0.070106
#
#
# Mechanical properties :
#
#
# Convention : Reuss Voigt Hill
#
# Bulk Modulus (GPa) = 29.31592 37.03575 33.17583
# Shear Modulus (GPa) = 19.84183 25.26414 22.55298
#
# Velocity S-wave (km/s) = 3.37882 3.81265 3.60227
# Velocity P-wave (km/s) = 5.66476 6.37896 6.03244
#
# Compressibility (1/GPa) = 0.03411116
#
# Stress axis : x y z
#
# Youngs Moduli (GPa) = 54.64208 37.67335 66.57037
#
# Poissons Ratio (x) = 0.08985 0.43927
# Poissons Ratio (y) = 0.13032 0.25923
# Poissons Ratio (z) = 0.36056 0.14670
#
# Static dielectric constant tensor:
#      x y z
#    x 1.619620 0.000000 -0.005380 
#    y 0.000000 1.567560 0.000000 
#    z -0.005380 0.000000 1.610150 
# 
# From -- ./inp_files/70581.got.cif
#   From: 2010.05.17/outbox.cif.g08.bks.cpg/sg15_36_cif.got.tgz:70581.got - 2010.06.03 18:47:42.
