data_PCOD9258159
_publ_section_title
;
Structure prediction by ZEFSAII (Michael W. Deem and Ramdas Pophale) SiO2 
 PCOD9258159
Probable space group: C 2/C
;
_chemical_formula_sum "Si O2"
_cell_formula_units_Z 60
_cell_length_a 21.667890
_cell_length_b 15.497828
_cell_length_c 10.444760
_cell_angle_alpha 90.000000
_cell_angle_beta 59.405868
_cell_angle_gamma 90.000000
_cell_volume 3019.153779
_symmetry_space_group_name_H-M "C 2/C"
_symmetry_group_IT_number 15
_symmetry_cell_setting 'monoclinic'
loop_
_space_group_symop_operation_xyz
x,y,z
-x,y,1/2-z
-x,-y,-z
x,-y,1/2+z
1/2+x,1/2+y,z
1/2-x,1/2+y,1/2-z
1/2-x,1/2-y,-z
1/2+x,1/2-y,1/2+z
loop_
_atom_site_type_symbol
_atom_site_label
_atom_site_fract_x
_atom_site_fract_y
_atom_site_fract_z
Si Si1 0.233839 0.250945 0.864936
Si Si2 0.432746 0.744162 0.520348
Si Si3 0.002065 0.372787 0.896249
Si Si4 0.987164 0.070385 0.121039
Si Si5 0.679709 0.420710 0.717871
Si Si6 0.762395 0.053050 0.636171
Si Si7 0.099166 0.529903 0.826578
Si Si8 0.500000 0.125754 0.750000
O O1 0.150660 0.259677 0.915623
O O2 0.278387 0.335235 0.776635
O O3 0.249609 0.152596 0.807031
O O4 0.250000 0.250000 0.000000
O O5 0.465603 0.777447 0.618705
O O6 0.457793 0.648731 0.459710
O O7 0.474115 0.810053 0.385481
O O8 0.058685 0.440743 0.897388
O O9 0.000000 0.390540 0.750000
O O10 0.926483 0.400486 0.039717
O O11 0.904583 0.100436 0.201104
O O12 0.000000 0.035305 0.250000
O O13 0.000000 0.000000 0.000000
O O14 0.693093 0.497953 0.806136
O O15 0.706102 0.444243 0.543549
O O16 0.682430 0.015170 0.721905
O O17 0.065013 0.568867 0.733297
#
# Coordination Sequence:
#
# PCOD9258159 Si02
#       8
#     8   8   8   8   8   8   8   4
#     4  10  21  39  63  91 125 164 214 261 323 385
#     4  11  22  37  63  92 122 167 212 266 312 383
#     4  10  22  37  59  92 132 164 212 252 321 379
#     4  12  25  44  70  93 126 168 227 277 324 378
#     4  11  24  42  65  98 126 171 215 269 326 388
#     4  11  24  40  66  91 134 165 215 264 330 384
#     4  10  21  36  61  92 126 171 202 260 309 393
#     4  10  18  32  62  90 120 154 216 246 310 368
#
# _framework density 19.873118999999999
#
# number of rings (size 3 to 8) (size 9 to 14) (size 15 to 20)
#    0.000    1.333    1.333    5.600    5.600    0.533 
#    0.000    2.000    0.000    0.000    0.000    0.000 
#    0.000    0.000    0.000    0.000    0.000    0.000 
#
# Total GULP energy -167300.813155 kJ/mol
# GULP energy per Si atom -5576.693772 kJ/mol
# Density = 1.982789 g / cm^3
# Si number density = 19.873119 Si / 1000 Ang^3
#
#
#
# Elastic Constant Matrix: (Units=GPa)
#
#
# Indices 1 2 3 4 5 6 
#
# 1 93.5593 18.9586 35.0090 0.0000 -7.9706 0.0000
# 2 18.9586 98.8510 28.1382 0.0000 15.0684 0.0000
# 3 35.0090 28.1382 59.5714 0.0000 -0.6375 0.0000
# 4 0.0000 0.0000 0.0000 17.6954 0.0000 -3.1221
# 5 -7.9706 15.0684 -0.6375 0.0000 39.7763 0.0000
# 6 0.0000 0.0000 0.0000 -3.1221 0.0000 33.4041
#
#
#
# Elastic Compliance Matrix: (Units=1/GPa)
#
#
# Indices 1 2 3 4 5 6 
#
# 1 0.014050 -0.000945 -0.007778 0.000000 0.003049 0.000000
# 2 -0.000945 0.012623 -0.005461 0.000000 -0.005059 0.000000
# 3 -0.007778 -0.005461 0.023946 0.000000 0.000894 0.000000
# 4 0.000000 0.000000 0.000000 0.057459 0.000000 0.005370
# 5 0.003049 -0.005059 0.000894 0.000000 0.027682 0.000000
# 6 0.000000 0.000000 0.000000 0.005370 0.000000 0.030438
#
#
# Mechanical properties :
#
#
# Convention : Reuss Voigt Hill
#
# Bulk Modulus (GPa) = 44.94118 46.24370 45.59244
# Shear Modulus (GPa) = 24.75425 29.50022 27.12723
#
# Velocity S-wave (km/s) = 3.53316 3.85701 3.69863
# Velocity P-wave (km/s) = 6.26956 6.56927 6.42117
#
# Compressibility (1/GPa) = 0.02225131
#
# Stress axis : x y z
#
# Youngs Moduli (GPa) = 71.17381 79.21907 41.75980
#
# Poissons Ratio (x) = 0.07490 0.32480
# Poissons Ratio (y) = 0.06729 0.22805
# Poissons Ratio (z) = 0.55357 0.43262
#
# Static dielectric constant tensor:
#      x y z
#    x 1.802780 0.000000 0.095770 
#    y 0.000000 1.765550 0.000000 
#    z 0.095770 0.000000 1.806590 
# 
# From -- ./inp_files/112689.got.cif
#   From: 2010.05.17/outbox.cif.g08.bks.cpg/sg15_57_cif.got.tgz:112689.got - 2010.06.03 18:47:42.
