data_PCOD9258759
_publ_section_title
;
Structure prediction by ZEFSAII (Michael W. Deem and Ramdas Pophale) SiO2 
 PCOD9258759
Probable space group: C 2/C
;
_chemical_formula_sum "Si O2"
_cell_formula_units_Z 44
_cell_length_a 10.384055
_cell_length_b 15.020114
_cell_length_c 12.798038
_cell_angle_alpha 90.000000
_cell_angle_beta 72.192546
_cell_angle_gamma 90.000000
_cell_volume 1900.471810
_symmetry_space_group_name_H-M "C 2/C"
_symmetry_group_IT_number 15
_symmetry_cell_setting 'monoclinic'
loop_
_space_group_symop_operation_xyz
x,y,z
-x,y,1/2-z
-x,-y,-z
x,-y,1/2+z
1/2+x,1/2+y,z
1/2-x,1/2+y,1/2-z
1/2-x,1/2-y,-z
1/2+x,1/2-y,1/2+z
loop_
_atom_site_type_symbol
_atom_site_label
_atom_site_fract_x
_atom_site_fract_y
_atom_site_fract_z
Si Si1 0.463169 0.333152 0.984241
Si Si2 0.489123 0.878895 0.488636
Si Si3 0.000000 0.786767 0.750000
Si Si4 0.249299 0.646273 0.714043
Si Si5 0.288685 0.344484 0.441020
Si Si6 0.585700 0.984824 0.815269
O O1 0.474337 0.225055 0.981517
O O2 0.332397 0.350306 0.086778
O O3 0.587009 0.375827 0.019097
O O4 0.471745 0.348204 0.858445
O O5 0.646311 0.896589 0.483085
O O6 0.485229 0.937850 0.385936
O O7 0.387564 0.917066 0.598809
O O8 0.871579 0.719953 0.763075
O O9 0.320203 0.666418 0.809404
O O10 0.205076 0.543804 0.742070
O O11 0.250000 0.250000 0.500000
O O12 0.500000 0.934203 0.750000
#
# Coordination Sequence:
#
# PCOD9258759 Si02
#       6
#     8   8   4   8   8   8
#     4  11  21  35  59  91 120 157 198 246 302 348
#     4   9  19  33  57  83 113 157 188 242 294 347
#     4  12  20  36  52  86 128 160 194 248 292 356
#     4  11  20  34  58  84 120 160 199 247 295 350
#     4   9  17  35  54  82 123 146 195 245 292 352
#     4  10  18  34  54  82 116 149 196 238 286 352
#
# _framework density 23.152145999999998
#
# number of rings (size 3 to 8) (size 9 to 14) (size 15 to 20)
#    0.000    1.818    6.364    1.091    0.000    2.909 
#    0.000    0.000    0.000    1.091   14.182    0.000 
#    0.000    0.000    0.000    0.000    0.000    0.000 
#
# Total GULP energy -122630.455933 kJ/mol
# GULP energy per Si atom -5574.111633 kJ/mol
# Density = 2.309945 g / cm^3
# Si number density = 23.152146 Si / 1000 Ang^3
#
#
#
# Elastic Constant Matrix: (Units=GPa)
#
#
# Indices 1 2 3 4 5 6 
#
# 1 62.9786 -4.9477 54.9228 0.0000 1.6392 0.0000
# 2 -4.9477 12.4443 11.2063 0.0000 0.2096 0.0000
# 3 54.9228 11.2063 202.5065 0.0000 -0.0766 0.0000
# 4 0.0000 0.0000 0.0000 30.1247 0.0000 -3.9846
# 5 1.6392 0.2096 -0.0766 0.0000 41.0741 0.0000
# 6 0.0000 0.0000 0.0000 -3.9846 0.0000 5.4258
#
#
#
# Elastic Compliance Matrix: (Units=1/GPa)
#
#
# Indices 1 2 3 4 5 6 
#
# 1 0.023470 0.015872 -0.007244 0.000000 -0.001031 0.000000
# 2 0.015872 0.095314 -0.009580 0.000000 -0.001138 0.000000
# 3 -0.007244 -0.009580 0.007433 0.000000 0.000352 0.000000
# 4 0.000000 0.000000 0.000000 0.036767 0.000000 0.027001
# 5 -0.001031 -0.001138 0.000352 0.000000 0.024394 0.000000
# 6 0.000000 0.000000 0.000000 0.027001 0.000000 0.204132
#
#
# Mechanical properties :
#
#
# Convention : Reuss Voigt Hill
#
# Bulk Modulus (GPa) = 8.04419 44.47692 26.26056
# Shear Modulus (GPa) = 11.49819 29.77480 20.63650
#
# Velocity S-wave (km/s) = 2.23095 3.59004 2.98878
# Velocity P-wave (km/s) = 3.18092 6.03630 4.82469
#
# Compressibility (1/GPa) = 0.12431325
#
# Stress axis : x y z
#
# Youngs Moduli (GPa) = 42.60837 10.49162 134.53444
#
# Poissons Ratio (x) = -0.16652 0.97457
# Poissons Ratio (y) = -0.67627 1.28878
# Poissons Ratio (z) = 0.30866 0.10051
#
# Static dielectric constant tensor:
#      x y z
#    x 2.026800 0.000000 0.082830 
#    y 0.000000 1.827610 0.000000 
#    z 0.082830 0.000000 1.973950 
# 
# From -- ./inp_files/87180.got.cif
#   From: 2010.05.17/outbox.cif.g08.bks.cpg/sg15_44_cif.got.tgz:87180.got - 2010.06.03 18:47:42.
