data_PCOD9258479
_publ_section_title
;
Structure prediction by ZEFSAII (Michael W. Deem and Ramdas Pophale) SiO2 
 PCOD9258479
Probable space group: C 2/C
;
_chemical_formula_sum "Si O2"
_cell_formula_units_Z 44
_cell_length_a 7.728736
_cell_length_b 17.969119
_cell_length_c 15.296539
_cell_angle_alpha 90.000000
_cell_angle_beta 63.657895
_cell_angle_gamma 90.000000
_cell_volume 1903.769112
_symmetry_space_group_name_H-M "C 2/C"
_symmetry_group_IT_number 15
_symmetry_cell_setting 'monoclinic'
loop_
_space_group_symop_operation_xyz
x,y,z
-x,y,1/2-z
-x,-y,-z
x,-y,1/2+z
1/2+x,1/2+y,z
1/2-x,1/2+y,1/2-z
1/2-x,1/2-y,-z
1/2+x,1/2-y,1/2+z
loop_
_atom_site_type_symbol
_atom_site_label
_atom_site_fract_x
_atom_site_fract_y
_atom_site_fract_z
Si Si1 0.500000 0.235640 0.750000
Si Si2 0.881069 0.160801 0.963126
Si Si3 0.066725 0.362473 0.392597
Si Si4 0.765271 0.860041 0.904535
Si Si5 0.457063 0.196887 0.359363
Si Si6 0.631845 0.524569 0.637584
O O1 0.397218 0.177691 0.706912
O O2 0.395220 0.292445 0.840846
O O3 0.707999 0.175454 0.931324
O O4 0.010704 0.229828 0.906034
O O5 0.940645 0.078133 0.924741
O O6 0.763230 0.169070 0.078381
O O7 0.152264 0.446159 0.383737
O O8 0.850065 0.352930 0.477800
O O9 0.597735 0.865195 0.868059
O O10 0.873738 0.938275 0.882407
O O11 0.500000 0.212258 0.250000
O O12 0.500000 0.541674 0.750000
#
# Coordination Sequence:
#
# PCOD9258479 Si02
#       6
#     4   8   8   8   8   8
#     4  12  22  36  60  88 114 146 194 234 276 334
#     4   8  19  34  58  83 108 148 187 226 280 334
#     4   9  22  38  61  80 116 154 183 229 287 338
#     4  11  22  38  59  85 116 149 190 230 284 338
#     4  10  18  33  57  88 110 142 189 237 272 330
#     4  10  20  40  61  81 111 156 190 225 286 349
#
# _framework density 23.112045999999999
#
# number of rings (size 3 to 8) (size 9 to 14) (size 15 to 20)
#    1.091    1.091    0.909    2.727    2.545    0.000 
#    1.636    0.000    0.000    2.182    0.000    0.000 
#    0.000    0.000    0.000    0.000    0.000    0.000 
#
# Total GULP energy -122468.772852 kJ/mol
# GULP energy per Si atom -5566.762402 kJ/mol
# Density = 2.305944 g / cm^3
# Si number density = 23.112046 Si / 1000 Ang^3
#
#
#
# Elastic Constant Matrix: (Units=GPa)
#
#
# Indices 1 2 3 4 5 6 
#
# 1 13.1572 9.1637 13.1151 0.0000 5.4401 0.0000
# 2 9.1637 88.3361 4.2880 0.0000 4.1495 0.0000
# 3 13.1151 4.2880 95.7006 0.0000 -3.8131 0.0000
# 4 0.0000 0.0000 0.0000 29.5116 0.0000 -4.5867
# 5 5.4401 4.1495 -3.8131 0.0000 14.5807 0.0000
# 6 0.0000 0.0000 0.0000 -4.5867 0.0000 23.3668
#
#
#
# Elastic Compliance Matrix: (Units=1/GPa)
#
#
# Indices 1 2 3 4 5 6 
#
# 1 0.119548 -0.009347 -0.017821 0.000000 -0.046604 0.000000
# 2 -0.009347 0.012245 0.000740 0.000000 0.000196 0.000000
# 3 -0.017821 0.000740 0.013253 0.000000 0.009904 0.000000
# 4 0.000000 0.000000 0.000000 0.034951 0.000000 0.006861
# 5 -0.046604 0.000196 0.009904 0.000000 0.088507 0.000000
# 6 0.000000 0.000000 0.000000 0.006861 0.000000 0.044142
#
#
# Mechanical properties :
#
#
# Convention : Reuss Voigt Hill
#
# Bulk Modulus (GPa) = 10.84725 27.81416 19.33070
# Shear Modulus (GPa) = 12.61884 24.86694 18.74289
#
# Velocity S-wave (km/s) = 2.33917 3.28370 2.85082
# Velocity P-wave (km/s) = 3.46398 5.14174 4.38387
#
# Compressibility (1/GPa) = 0.09218926
#
# Stress axis : x y z
#
# Youngs Moduli (GPa) = 8.36483 81.66662 75.45446
#
# Poissons Ratio (x) = 0.76335 1.34470
# Poissons Ratio (y) = 0.07819 -0.05585
# Poissons Ratio (z) = 0.14907 -0.06044
#
# Static dielectric constant tensor:
#      x y z
#    x 1.917820 0.000000 -0.086440 
#    y 0.000000 1.867150 0.000000 
#    z -0.086440 0.000000 1.969650 
# 
# From -- ./inp_files/198646.got.cif
#   From: 2010.05.17/outbox.cif.g08.bks.cpg/sg15_100_cif.got.tgz:198646.got - 2010.06.03 18:47:42.
