data_PCOD9258557
_publ_section_title
;
Structure prediction by ZEFSAII (Michael W. Deem and Ramdas Pophale) SiO2 
 PCOD9258557
Probable space group: C 2/C
;
_chemical_formula_sum "Si O2"
_cell_formula_units_Z 52
_cell_length_a 8.651178
_cell_length_b 19.333920
_cell_length_c 27.919565
_cell_angle_alpha 90.000000
_cell_angle_beta 146.517999
_cell_angle_gamma 90.000000
_cell_volume 2576.244728
_symmetry_space_group_name_H-M "C 2/C"
_symmetry_group_IT_number 15
_symmetry_cell_setting 'monoclinic'
loop_
_space_group_symop_operation_xyz
x,y,z
-x,y,1/2-z
-x,-y,-z
x,-y,1/2+z
1/2+x,1/2+y,z
1/2-x,1/2+y,1/2-z
1/2-x,1/2-y,-z
1/2+x,1/2-y,1/2+z
loop_
_atom_site_type_symbol
_atom_site_label
_atom_site_fract_x
_atom_site_fract_y
_atom_site_fract_z
Si Si1 0.298239 0.549488 0.509263
Si Si2 0.500000 0.162809 0.750000
Si Si3 0.170274 0.173577 0.496975
Si Si4 0.861174 0.557103 0.894159
Si Si5 0.732379 0.061375 0.376894
Si Si6 0.497460 0.695269 0.563111
Si Si7 0.773956 0.542892 0.757633
O O1 0.259241 0.558909 0.441729
O O2 0.559744 0.499510 0.585929
O O3 0.358659 0.624069 0.544651
O O4 0.024911 0.509989 0.454597
O O5 0.420433 0.108699 0.771173
O O6 0.751205 0.208999 0.835174
O O7 0.250000 0.250000 0.500000
O O8 0.427257 0.122487 0.548683
O O9 0.884933 0.134488 0.403937
O O10 0.121146 0.182051 0.541716
O O11 0.817189 0.549359 0.825651
O O12 0.553779 0.553322 0.836835
O O13 0.425271 0.030778 0.283991
O O14 0.250000 0.750000 0.500000
#
# Coordination Sequence:
#
# PCOD9258557 Si02
#       7
#     8   4   8   8   8   8   8
#     4   8  14  33  57  81 107 148 194 249 296 357
#     4  12  22  38  58  86 126 160 200 260 318 378
#     4  10  20  37  60  90 119 162 207 254 309 373
#     4   9  18  34  62  88 110 151 213 252 300 365
#     4   8  14  31  58  83 112 144 195 249 298 354
#     4  11  23  39  59  87 124 168 207 246 320 384
#     4  10  18  33  59  88 112 150 204 254 303 361
#
# _framework density 20.184418999999998
#
# number of rings (size 3 to 8) (size 9 to 14) (size 15 to 20)
#    0.000    2.462    3.077    1.846    2.154    0.000 
#    0.000    6.923    0.000    1.846    0.000    0.000 
#    0.000    0.000    0.000    0.000    0.000    0.000 
#
# Total GULP energy -144833.576729 kJ/mol
# GULP energy per Si atom -5570.522182 kJ/mol
# Density = 2.013848 g / cm^3
# Si number density = 20.184419 Si / 1000 Ang^3
#
#
#
# Elastic Constant Matrix: (Units=GPa)
#
#
# Indices 1 2 3 4 5 6 
#
# 1 73.7387 29.9065 41.4963 0.0001 3.3468 -0.0002
# 2 29.9065 125.8532 60.5898 0.0000 18.8345 -0.0002
# 3 41.4963 60.5898 119.9057 0.0008 28.0803 -0.0006
# 4 0.0001 0.0000 0.0008 30.5747 0.0000 6.0209
# 5 3.3468 18.8345 28.0803 0.0000 32.0219 -0.0003
# 6 -0.0002 -0.0002 -0.0006 6.0209 -0.0003 8.9127
#
#
#
# Elastic Compliance Matrix: (Units=1/GPa)
#
#
# Indices 1 2 3 4 5 6 
#
# 1 0.017636 -0.001887 -0.006265 0.000000 0.004760 0.000000
# 2 -0.001887 0.010796 -0.004230 0.000000 -0.002443 0.000000
# 3 -0.006265 -0.004230 0.014987 -0.000001 -0.010000 0.000001
# 4 0.000000 0.000000 -0.000001 0.037725 0.000000 -0.025485
# 5 0.004760 -0.002443 -0.010000 0.000000 0.040937 0.000001
# 6 0.000000 0.000000 0.000001 -0.025485 0.000001 0.129415
#
#
# Mechanical properties :
#
#
# Convention : Reuss Voigt Hill
#
# Bulk Modulus (GPa) = 53.60281 64.83143 59.21712
# Shear Modulus (GPa) = 17.70038 26.80219 22.25129
#
# Velocity S-wave (km/s) = 2.96452 3.64794 3.32384
# Velocity P-wave (km/s) = 6.19128 7.06630 6.64321
#
# Compressibility (1/GPa) = 0.01865574
#
# Stress axis : x y z
#
# Youngs Moduli (GPa) = 56.70171 92.62275 66.72349
#
# Poissons Ratio (x) = 0.17481 0.41799
# Poissons Ratio (y) = 0.10702 0.28225
# Poissons Ratio (z) = 0.35521 0.39181
#
# Static dielectric constant tensor:
#      x y z
#    x 1.788860 0.000000 -0.003230 
#    y 0.000000 1.687210 0.000000 
#    z -0.003230 0.000000 1.774110 
# 
# From -- ./inp_files/308975.got.cif
#   From: 2010.05.17/outbox.cif.g08.bks.cpg/sg15_155_cif.got.tgz:308975.got - 2010.06.03 18:47:42.
