data_PCOD9258610
_publ_section_title
;
Structure prediction by ZEFSAII (Michael W. Deem and Ramdas Pophale) SiO2 
 PCOD9258610
Probable space group: C 2/C
;
_chemical_formula_sum "Si O2"
_cell_formula_units_Z 44
_cell_length_a 9.315439
_cell_length_b 18.522559
_cell_length_c 13.427419
_cell_angle_alpha 90.000000
_cell_angle_beta 96.655580
_cell_angle_gamma 90.000000
_cell_volume 2301.230660
_symmetry_space_group_name_H-M "C 2/C"
_symmetry_group_IT_number 15
_symmetry_cell_setting 'monoclinic'
loop_
_space_group_symop_operation_xyz
x,y,z
-x,y,1/2-z
-x,-y,-z
x,-y,1/2+z
1/2+x,1/2+y,z
1/2-x,1/2+y,1/2-z
1/2-x,1/2-y,-z
1/2+x,1/2-y,1/2+z
loop_
_atom_site_type_symbol
_atom_site_label
_atom_site_fract_x
_atom_site_fract_y
_atom_site_fract_z
Si Si1 0.275732 0.735987 0.283189
Si Si2 0.500000 0.135766 0.250000
Si Si3 0.065862 0.235479 0.417841
Si Si4 0.610583 0.973887 0.593976
Si Si5 0.830103 0.605516 0.758725
Si Si6 0.746093 0.872341 0.461933
O O1 0.402591 0.721839 0.372662
O O2 0.340254 0.724713 0.176378
O O3 0.252355 0.822033 0.289310
O O4 0.136798 0.686655 0.283239
O O5 0.465603 0.082868 0.338839
O O6 0.121376 0.180879 0.506114
O O7 0.108039 0.316851 0.454829
O O8 0.735079 0.930854 0.546867
O O9 0.500000 0.000000 0.500000
O O10 0.666604 0.040325 0.664310
O O11 0.761202 0.589920 0.645571
O O12 0.000000 0.623589 0.750000
#
# Coordination Sequence:
#
# PCOD9258610 Si02
#       6
#     8   4   8   8   8   8
#     4  10  19  37  60  92 121 152 201 252 299 353
#     4  12  24  36  64  98 120 152 206 266 296 350
#     4   9  17  34  63  85 114 157 202 242 294 369
#     4  12  21  36  59  90 122 161 205 250 299 363
#     4  11  19  36  61  85 119 159 202 245 295 366
#     4  10  18  33  61  86 109 159 208 237 290 365
#
# _framework density 19.120204999999999
#
# number of rings (size 3 to 8) (size 9 to 14) (size 15 to 20)
#    0.000    1.455    8.182    0.000    0.000    0.000 
#    0.000    3.636    4.000    2.182    0.000    0.000 
#    0.000    0.000    0.000    0.000    0.000    0.000 
#
# Total GULP energy -122761.246543 kJ/mol
# GULP energy per Si atom -5580.056661 kJ/mol
# Density = 1.907669 g / cm^3
# Si number density = 19.120205 Si / 1000 Ang^3
#
#
#
# Elastic Constant Matrix: (Units=GPa)
#
#
# Indices 1 2 3 4 5 6 
#
# 1 54.9671 42.9456 35.0434 0.0000 20.4670 0.0000
# 2 42.9456 136.9698 77.9388 0.0000 6.6593 0.0000
# 3 35.0434 77.9388 131.0324 0.0000 17.7532 0.0000
# 4 0.0000 0.0000 0.0000 32.4367 0.0000 -1.9125
# 5 20.4670 6.6593 17.7532 0.0000 17.5967 0.0000
# 6 0.0000 0.0000 0.0000 -1.9125 0.0000 18.9766
#
#
#
# Elastic Compliance Matrix: (Units=1/GPa)
#
#
# Indices 1 2 3 4 5 6 
#
# 1 0.046070 -0.013438 0.002598 0.000000 -0.051120 0.000000
# 2 -0.013438 0.015079 -0.007784 0.000000 0.017776 0.000000
# 3 0.002598 -0.007784 0.013410 0.000000 -0.013605 0.000000
# 4 0.000000 0.000000 0.000000 0.031014 0.000000 0.003126
# 5 -0.051120 0.017776 -0.013605 0.000000 0.123287 0.000000
# 6 0.000000 0.000000 0.000000 0.003126 0.000000 0.053011
#
#
# Mechanical properties :
#
#
# Convention : Reuss Voigt Hill
#
# Bulk Modulus (GPa) = 26.80093 70.53608 48.66851
# Shear Modulus (GPa) = 15.08045 24.93811 20.00928
#
# Velocity S-wave (km/s) = 2.81146 3.61540 3.23847
# Velocity P-wave (km/s) = 4.95849 7.37557 6.28433
#
# Compressibility (1/GPa) = 0.03731213
#
# Stress axis : x y z
#
# Youngs Moduli (GPa) = 21.70617 66.31741 74.57096
#
# Poissons Ratio (x) = 0.89115 -0.19374
# Poissons Ratio (y) = 0.29168 0.58044
# Poissons Ratio (z) = -0.05639 0.51620
#
# Static dielectric constant tensor:
#      x y z
#    x 1.656830 0.000000 -0.006430 
#    y 0.000000 1.692300 0.000000 
#    z -0.006430 0.000000 1.699130 
# 
# From -- ./inp_files/134297.got.cif
#   From: 2010.05.17/outbox.cif.g08.bks.cpg/sg15_68_cif.got.tgz:134297.got - 2010.06.03 18:47:42.
