data_PCOD9258028
_publ_section_title
;
Structure prediction by ZEFSAII (Michael W. Deem and Ramdas Pophale) SiO2 
 PCOD9258028
Probable space group: C 2/C
;
_chemical_formula_sum "Si O2"
_cell_formula_units_Z 60
_cell_length_a 7.476046
_cell_length_b 26.563925
_cell_length_c 20.556299
_cell_angle_alpha 90.000000
_cell_angle_beta 130.105696
_cell_angle_gamma 90.000000
_cell_volume 3122.407546
_symmetry_space_group_name_H-M "C 2/C"
_symmetry_group_IT_number 15
_symmetry_cell_setting 'monoclinic'
loop_
_space_group_symop_operation_xyz
x,y,z
-x,y,1/2-z
-x,-y,-z
x,-y,1/2+z
1/2+x,1/2+y,z
1/2-x,1/2+y,1/2-z
1/2-x,1/2-y,-z
1/2+x,1/2-y,1/2+z
loop_
_atom_site_type_symbol
_atom_site_label
_atom_site_fract_x
_atom_site_fract_y
_atom_site_fract_z
Si Si1 0.333726 0.127212 0.411008
Si Si2 0.100966 0.542737 0.963837
Si Si3 0.595164 0.513320 0.879987
Si Si4 0.901641 0.873236 0.331906
Si Si5 0.985555 0.372429 0.148979
Si Si6 0.206529 0.809713 0.494754
Si Si7 0.000000 0.060977 0.250000
Si Si8 0.310508 0.308300 0.510211
O O1 0.408006 0.084499 0.480669
O O2 0.554049 0.159703 0.439762
O O3 0.169502 0.164764 0.415124
O O4 0.203412 0.097820 0.323141
O O5 0.090041 0.572995 0.894900
O O6 0.855173 0.514143 0.909063
O O7 0.331952 0.510314 0.033288
O O8 0.499371 0.569827 0.859638
O O9 0.448306 0.475960 0.799436
O O10 0.757573 0.869048 0.230938
O O11 0.691435 0.864115 0.333564
O O12 0.092021 0.833399 0.402094
O O13 0.913492 0.333415 0.076927
O O14 0.250000 0.750000 0.500000
O O15 0.029633 0.817875 0.513901
O O16 0.250000 0.250000 0.500000
#
# Coordination Sequence:
#
# PCOD9258028 Si02
#       8
#     8   8   8   8   8   8   4   8
#     4  10  20  40  59  83 120 155 200 240 300 354
#     4   9  18  33  56  82 108 150 189 237 288 353
#     4  10  18  32  58  82 111 148 198 229 292 355
#     4  10  20  36  55  85 114 146 193 246 285 353
#     4   9  20  35  54  79 117 144 186 246 295 336
#     4  11  21  38  63  87 116 157 197 242 305 356
#     4  10  22  36  60  86 120 164 190 250 300 348
#     4  10  20  38  61  85 114 153 196 246 298 357
#
# _framework density 19.215942999999999
#
# number of rings (size 3 to 8) (size 9 to 14) (size 15 to 20)
#    0.000    2.133    2.667    0.800    0.000    0.533 
#    2.400    0.667   11.733    0.000    0.000    0.000 
#    0.000    0.000    0.000    0.000    0.000    0.000 
#
# Total GULP energy -167067.365441 kJ/mol
# GULP energy per Si atom -5568.912181 kJ/mol
# Density = 1.917221 g / cm^3
# Si number density = 19.215943 Si / 1000 Ang^3
#
#
#
# Elastic Constant Matrix: (Units=GPa)
#
#
# Indices 1 2 3 4 5 6 
#
# 1 55.2991 15.4141 19.8333 0.0000 12.0860 0.0000
# 2 15.4141 134.8775 60.7149 0.0000 12.0544 0.0000
# 3 19.8333 60.7149 124.5043 0.0000 11.1361 0.0000
# 4 0.0000 0.0000 0.0000 28.3372 0.0000 3.2652
# 5 12.0860 12.0544 11.1361 0.0000 16.0023 0.0000
# 6 0.0000 0.0000 0.0000 3.2652 0.0000 28.7731
#
#
#
# Elastic Compliance Matrix: (Units=1/GPa)
#
#
# Indices 1 2 3 4 5 6 
#
# 1 0.022203 -0.000258 -0.002056 0.000000 -0.015143 0.000000
# 2 -0.000258 0.009774 -0.004355 0.000000 -0.004137 0.000000
# 3 -0.002056 -0.004355 0.010718 0.000000 -0.002625 0.000000
# 4 0.000000 0.000000 0.000000 0.035757 0.000000 -0.004058
# 5 -0.015143 -0.004137 -0.002625 0.000000 0.078871 0.000000
# 6 0.000000 0.000000 0.000000 -0.004058 0.000000 0.035215
#
#
# Mechanical properties :
#
#
# Convention : Reuss Voigt Hill
#
# Bulk Modulus (GPa) = 34.06586 56.28949 45.17767
# Shear Modulus (GPa) = 23.18442 29.20377 26.19410
#
# Velocity S-wave (km/s) = 3.47727 3.90265 3.69608
# Velocity P-wave (km/s) = 5.82136 7.04729 6.46346
#
# Compressibility (1/GPa) = 0.02935491
#
# Stress axis : x y z
#
# Youngs Moduli (GPa) = 45.03959 102.31444 93.30120
#
# Poissons Ratio (x) = 0.02643 0.19187
# Poissons Ratio (y) = 0.01163 0.40633
# Poissons Ratio (z) = 0.09262 0.44559
#
# Static dielectric constant tensor:
#      x y z
#    x 1.718950 0.000000 -0.033590 
#    y 0.000000 1.700820 0.000000 
#    z -0.033590 0.000000 1.760330 
# 
# From -- ./inp_files/266613.got.cif
#   From: 2010.05.17/outbox.cif.g08.bks.cpg/sg15_134_cif.got.tgz:266613.got - 2010.06.03 18:47:42.
