data_PCOD9258229
_publ_section_title
;
Structure prediction by ZEFSAII (Michael W. Deem and Ramdas Pophale) SiO2 
 PCOD9258229
Probable space group: C 2/C
;
_chemical_formula_sum "Si O2"
_cell_formula_units_Z 64
_cell_length_a 11.204937
_cell_length_b 26.111440
_cell_length_c 21.983321
_cell_angle_alpha 90.000000
_cell_angle_beta 148.133663
_cell_angle_gamma 90.000000
_cell_volume 3395.608850
_symmetry_space_group_name_H-M "C 2/C"
_symmetry_group_IT_number 15
_symmetry_cell_setting 'monoclinic'
loop_
_space_group_symop_operation_xyz
x,y,z
-x,y,1/2-z
-x,-y,-z
x,-y,1/2+z
1/2+x,1/2+y,z
1/2-x,1/2+y,1/2-z
1/2-x,1/2-y,-z
1/2+x,1/2-y,1/2+z
loop_
_atom_site_type_symbol
_atom_site_label
_atom_site_fract_x
_atom_site_fract_y
_atom_site_fract_z
Si Si1 0.389591 0.818501 0.543742
Si Si2 0.052249 0.586376 0.518472
Si Si3 0.057669 0.885951 0.463915
Si Si4 0.845372 0.986208 0.623948
Si Si5 0.782813 0.639877 0.791543
Si Si6 0.486419 0.256871 0.311786
Si Si7 0.156132 0.401077 0.376534
Si Si8 0.854023 0.002264 0.498073
O O1 0.469151 0.867522 0.539421
O O2 0.562903 0.783047 0.655395
O O3 0.223371 0.839242 0.524869
O O4 0.228428 0.783343 0.432142
O O5 0.184451 0.536279 0.552089
O O6 0.196319 0.608830 0.637077
O O7 0.812736 0.563780 0.437185
O O8 0.891584 0.885054 0.332716
O O9 0.899875 0.884833 0.455330
O O10 0.202069 0.937934 0.524974
O O11 0.970458 0.987793 0.612807
O O12 0.000000 0.989742 0.750000
O O13 0.691344 0.696494 0.763962
O O14 0.029612 0.636726 0.867463
O O15 0.500000 0.234737 0.250000
O O16 0.169118 0.457950 0.410590
O O17 0.000000 0.404665 0.250000
O O18 0.000000 0.000000 0.500000
#
# Coordination Sequence:
#
# PCOD9258229 Si02
#       8
#     8   8   8   8   8   8   8   8
#     4  10  20  35  56  86 113 140 201 245 301 351
#     4  11  21  35  59  85 120 157 196 238 299 364
#     4   9  18  31  53  79 115 151 185 244 290 339
#     4  11  23  36  57  89 126 158 198 237 297 366
#     4  10  18  33  58  82 107 150 199 241 292 356
#     4  10  20  34  58  86 109 146 191 263 302 343
#     4   9  18  32  52  81 109 151 198 233 281 356
#     4  10  18  33  51  79 117 156 195 228 284 348
#
# _framework density 18.847873
#
# number of rings (size 3 to 8) (size 9 to 14) (size 15 to 20)
#    0.000    2.000    3.750    0.750    1.750    0.000 
#    0.000    3.125    0.000    6.000    0.000    0.000 
#    0.000    0.000    0.000    0.000    0.000    0.000 
#
# Total GULP energy -178196.807949 kJ/mol
# GULP energy per Si atom -5568.650248 kJ/mol
# Density = 1.880497 g / cm^3
# Si number density = 18.847873 Si / 1000 Ang^3
#
#
#
# Elastic Constant Matrix: (Units=GPa)
#
#
# Indices 1 2 3 4 5 6 
#
# 1 87.2382 30.3088 24.1014 0.0011 -17.1691 0.0008
# 2 30.3088 82.3868 20.4889 0.0016 -9.4816 0.0005
# 3 24.1014 20.4889 23.6066 -0.0025 -7.6826 0.0001
# 4 0.0011 0.0016 -0.0025 33.2093 0.0001 -5.9085
# 5 -17.1691 -9.4816 -7.6826 0.0001 21.2897 0.0005
# 6 0.0008 0.0005 0.0001 -5.9085 0.0005 27.7317
#
#
#
# Elastic Compliance Matrix: (Units=1/GPa)
#
#
# Indices 1 2 3 4 5 6 
#
# 1 0.017542 -0.002185 -0.013286 -0.000002 0.008379 -0.000001
# 2 -0.002185 0.015853 -0.011109 -0.000002 0.001290 -0.000001
# 3 -0.013286 -0.011109 0.068517 0.000006 0.009063 0.000002
# 4 -0.000002 -0.000002 0.000006 0.031298 0.000000 0.006668
# 5 0.008379 0.001290 0.009063 0.000000 0.057573 -0.000001
# 6 -0.000001 -0.000001 0.000002 0.006668 -0.000001 0.037481
#
#
# Mechanical properties :
#
#
# Convention : Reuss Voigt Hill
#
# Bulk Modulus (GPa) = 20.51214 38.11442 29.31328
# Shear Modulus (GPa) = 16.79693 24.33497 20.56595
#
# Velocity S-wave (km/s) = 2.98851 3.59712 3.30685
# Velocity P-wave (km/s) = 4.77649 6.12523 5.49242
#
# Compressibility (1/GPa) = 0.04875162
#
# Stress axis : x y z
#
# Youngs Moduli (GPa) = 57.00750 63.08068 14.59493
#
# Poissons Ratio (x) = 0.13782 0.19391
# Poissons Ratio (y) = 0.12455 0.16213
# Poissons Ratio (z) = 0.75741 0.70075
#
# Static dielectric constant tensor:
#      x y z
#    x 1.700080 0.000000 -0.002530 
#    y 0.000000 1.666440 0.000000 
#    z -0.002530 0.000000 1.657320 
# 
# From -- ./inp_files/271217.got.cif
#   From: 2010.05.17/outbox.cif.g08.bks.cpg/sg15_136_cif.got.tgz:271217.got - 2010.06.03 18:47:42.
