data_PCOD9258728
_publ_section_title
;
Structure prediction by ZEFSAII (Michael W. Deem and Ramdas Pophale) SiO2 
 PCOD9258728
Probable space group: C 2/C
;
_chemical_formula_sum "Si O2"
_cell_formula_units_Z 60
_cell_length_a 19.336799
_cell_length_b 26.651681
_cell_length_c 5.373072
_cell_angle_alpha 90.000000
_cell_angle_beta 118.173318
_cell_angle_gamma 90.000000
_cell_volume 2440.988333
_symmetry_space_group_name_H-M "C 2/C"
_symmetry_group_IT_number 15
_symmetry_cell_setting 'monoclinic'
loop_
_space_group_symop_operation_xyz
x,y,z
-x,y,1/2-z
-x,-y,-z
x,-y,1/2+z
1/2+x,1/2+y,z
1/2-x,1/2+y,1/2-z
1/2-x,1/2-y,-z
1/2+x,1/2-y,1/2+z
loop_
_atom_site_type_symbol
_atom_site_label
_atom_site_fract_x
_atom_site_fract_y
_atom_site_fract_z
Si Si1 0.279973 0.053121 0.738068
Si Si2 0.897605 0.674084 0.731094
Si Si3 0.912178 0.774857 0.489186
Si Si4 0.768011 0.808402 0.519595
Si Si5 0.873516 0.982222 0.019992
Si Si6 0.048019 0.437307 0.093350
Si Si7 0.500000 0.240718 0.250000
Si Si8 0.275503 0.394925 0.868564
O O1 0.212527 0.010661 0.652487
O O2 0.369176 0.036370 0.837213
O O3 0.253908 0.082782 0.446289
O O4 0.275191 0.086127 0.983446
O O5 0.887806 0.715837 0.495928
O O6 0.814544 0.672215 0.729058
O O7 0.924997 0.617272 0.750479
O O8 0.963069 0.702926 0.993510
O O9 0.847002 0.811100 0.491406
O O10 0.000000 0.784555 0.750000
O O11 0.929847 0.775234 0.228067
O O12 0.750000 0.750000 0.500000
O O13 0.777601 0.836754 0.799921
O O14 0.911586 0.991531 0.819950
O O15 0.857549 0.923870 0.045512
O O16 0.000000 0.459798 0.250000
O O17 0.000000 0.430305 0.750000
#
# Coordination Sequence:
#
# PCOD9258728 Si02
#       8
#     8   8   8   8   8   8   4   8
#     4  10  20  36  56  80 109 144 190 240 288 336
#     4  10  20  34  50  76 103 151 196 239 279 334
#     4   9  20  37  52  73 109 146 192 229 292 337
#     4  10  21  37  54  84 113 144 195 240 283 340
#     4   8  16  31  57  76 100 140 180 230 286 337
#     4  12  23  33  52  78 112 150 194 239 288 340
#     4  10  18  34  54  68 106 154 186 236 282 338
#     4  10  19  37  56  81 108 144 182 240 289 331
#
# _framework density 24.580206
#
# number of rings (size 3 to 8) (size 9 to 14) (size 15 to 20)
#    0.000    2.133    2.000    2.000    0.000    1.600 
#    7.200    0.000    0.000   21.600    0.000    0.000 
#    0.000    9.600    0.000    0.000    0.000    0.000 
#
# Total GULP energy -167105.515911 kJ/mol
# GULP energy per Si atom -5570.183864 kJ/mol
# Density = 2.452426 g / cm^3
# Si number density = 24.580206 Si / 1000 Ang^3
#
#
#
# Elastic Constant Matrix: (Units=GPa)
#
#
# Indices 1 2 3 4 5 6 
#
# 1 135.0567 41.6111 15.5322 0.0000 -1.6478 0.0000
# 2 41.6111 78.3718 20.5809 0.0000 -12.0599 0.0000
# 3 15.5322 20.5809 56.2882 0.0000 -38.7007 0.0000
# 4 0.0000 0.0000 0.0000 13.3241 0.0000 -9.3016
# 5 -1.6478 -12.0599 -38.7007 0.0000 39.2651 0.0000
# 6 0.0000 0.0000 0.0000 -9.3016 0.0000 22.3583
#
#
#
# Elastic Compliance Matrix: (Units=1/GPa)
#
#
# Indices 1 2 3 4 5 6 
#
# 1 0.009302 -0.004544 -0.004953 0.000000 -0.005887 0.000000
# 2 -0.004544 0.016404 -0.004377 0.000000 0.000533 0.000000
# 3 -0.004953 -0.004377 0.061010 0.000000 0.058581 0.000000
# 4 0.000000 0.000000 0.000000 0.105771 0.000000 0.044004
# 5 -0.005887 0.000533 0.058581 0.000000 0.083124 0.000000
# 6 0.000000 0.000000 0.000000 0.044004 0.000000 0.063033
#
#
# Mechanical properties :
#
#
# Convention : Reuss Voigt Hill
#
# Bulk Modulus (GPa) = 16.95862 47.24060 32.09961
# Shear Modulus (GPa) = 12.95172 27.78897 20.37034
#
# Velocity S-wave (km/s) = 2.29796 3.36600 2.88189
# Velocity P-wave (km/s) = 3.73565 5.86236 4.91540
#
# Compressibility (1/GPa) = 0.05896706
#
# Stress axis : x y z
#
# Youngs Moduli (GPa) = 107.50190 60.96093 16.39072
#
# Poissons Ratio (x) = 0.27702 0.08118
# Poissons Ratio (y) = 0.48851 0.07175
# Poissons Ratio (z) = 0.53247 0.26685
#
# Static dielectric constant tensor:
#      x y z
#    x 2.048810 0.000000 -0.082090 
#    y 0.000000 2.102900 0.000000 
#    z -0.082090 0.000000 2.104110 
# 
# From -- ./inp_files/12048.got.cif
#   From: 2010.05.17/outbox.cif.g08.bks.cpg/sg15_7_cif.got.tgz:12048.got - 2010.06.03 18:47:42.
