data_PCOD9258079
_publ_section_title
;
Structure prediction by ZEFSAII (Michael W. Deem and Ramdas Pophale) SiO2 
 PCOD9258079
Probable space group: C 2/C
;
_chemical_formula_sum "Si O2"
_cell_formula_units_Z 60
_cell_length_a 27.172873
_cell_length_b 21.974521
_cell_length_c 14.866250
_cell_angle_alpha 90.000000
_cell_angle_beta 162.178563
_cell_angle_gamma 90.000000
_cell_volume 2716.757956
_symmetry_space_group_name_H-M "C 2/C"
_symmetry_group_IT_number 15
_symmetry_cell_setting 'monoclinic'
loop_
_space_group_symop_operation_xyz
x,y,z
-x,y,1/2-z
-x,-y,-z
x,-y,1/2+z
1/2+x,1/2+y,z
1/2-x,1/2+y,1/2-z
1/2-x,1/2-y,-z
1/2+x,1/2-y,1/2+z
loop_
_atom_site_type_symbol
_atom_site_label
_atom_site_fract_x
_atom_site_fract_y
_atom_site_fract_z
Si Si1 0.500000 0.137201 0.750000
Si Si2 0.551471 0.387917 0.696399
Si Si3 0.215141 0.306657 0.875355
Si Si4 0.781833 0.225334 0.306357
Si Si5 0.554912 0.083214 0.178129
Si Si6 0.088413 0.235575 0.164103
Si Si7 0.852261 0.449342 0.145455
Si Si8 0.739926 0.635296 0.710153
O O1 0.362167 0.181875 0.475130
O O2 0.581237 0.094210 0.816586
O O3 0.532039 0.329896 0.599028
O O4 0.376112 0.405326 0.428928
O O5 0.667047 0.435498 0.848262
O O6 0.653285 0.365650 0.961572
O O7 0.326455 0.302612 0.981102
O O8 0.193635 0.369268 0.891167
O O9 0.034553 0.289442 0.528462
O O10 0.250000 0.250000 0.000000
O O11 0.888804 0.231168 0.403130
O O12 0.735768 0.296146 0.240690
O O13 0.621088 0.019903 0.330307
O O14 0.457410 0.066523 0.917148
O O15 0.421533 0.113351 0.011042
O O16 0.250000 0.250000 0.500000
#
# Coordination Sequence:
#
# PCOD9258079 Si02
#       8
#     4   8   8   8   8   8   8   8
#     4  12  20  34  64 104 122 156 224 296 340 378
#     4  10  18  32  58  98 127 157 208 283 340 375
#     4  12  26  42  62  93 140 184 218 268 343 408
#     4  12  21  34  63  96 131 167 216 276 331 399
#     4  10  21  43  61  86 130 185 220 260 335 412
#     4  12  20  36  64  97 133 165 215 286 336 384
#     4  10  21  37  65  92 128 165 224 284 331 392
#     4  10  19  32  61  96 126 162 216 273 336 398
#
# _framework density 22.085146999999999
#
# number of rings (size 3 to 8) (size 9 to 14) (size 15 to 20)
#    0.000    1.067    6.667    2.400    0.000    0.533 
#    2.400    0.000    2.933    3.200    0.000    0.000 
#    0.000    0.000    0.000    0.000    0.000    0.000 
#
# Total GULP energy -167664.594769 kJ/mol
# GULP energy per Si atom -5588.819826 kJ/mol
# Density = 2.203488 g / cm^3
# Si number density = 22.085147 Si / 1000 Ang^3
#
#
#
# Elastic Constant Matrix: (Units=GPa)
#
#
# Indices 1 2 3 4 5 6 
#
# 1 136.2424 46.0661 43.7499 0.0000 39.6370 0.0000
# 2 46.0661 148.9872 33.9787 0.0000 22.4844 0.0000
# 3 43.7499 33.9787 44.5982 0.0000 11.2285 0.0000
# 4 0.0000 0.0000 0.0000 21.2866 0.0000 3.2284
# 5 39.6370 22.4844 11.2285 0.0000 34.5482 0.0000
# 6 0.0000 0.0000 0.0000 3.2284 0.0000 10.6782
#
#
#
# Elastic Compliance Matrix: (Units=1/GPa)
#
#
# Indices 1 2 3 4 5 6 
#
# 1 0.014815 -0.000021 -0.011154 0.000000 -0.013359 0.000000
# 2 -0.000021 0.008548 -0.005552 0.000000 -0.003735 0.000000
# 3 -0.011154 -0.005552 0.036445 0.000000 0.004565 0.000000
# 4 0.000000 0.000000 0.000000 0.049235 0.000000 -0.014885
# 5 -0.013359 -0.003735 0.004565 0.000000 0.045218 0.000000
# 6 0.000000 0.000000 0.000000 -0.014885 0.000000 0.098149
#
#
# Mechanical properties :
#
#
# Convention : Reuss Voigt Hill
#
# Bulk Modulus (GPa) = 37.94446 64.15748 51.05097
# Shear Modulus (GPa) = 16.96930 27.03815 22.00373
#
# Velocity S-wave (km/s) = 2.77493 3.50275 3.15987
# Velocity P-wave (km/s) = 5.24264 6.74330 6.03976
#
# Compressibility (1/GPa) = 0.02635431
#
# Stress axis : x y z
#
# Youngs Moduli (GPa) = 67.49861 116.98209 27.43864
#
# Poissons Ratio (x) = 0.00244 0.30605
# Poissons Ratio (y) = 0.00141 0.15234
# Poissons Ratio (z) = 0.75289 0.64949
#
# Static dielectric constant tensor:
#      x y z
#    x 1.797000 0.000000 0.001490 
#    y 0.000000 1.751760 0.000000 
#    z 0.001490 0.000000 1.884880 
# 
# From -- ./inp_files/179150.got.cif
#   From: 2010.05.17/outbox.cif.g08.bks.cpg/sg15_90_cif.got.tgz:179150.got - 2010.06.03 18:47:42.
