data_PCOD9258237
_publ_section_title
;
Structure prediction by ZEFSAII (Michael W. Deem and Ramdas Pophale) SiO2 
 PCOD9258237
Probable space group: C 2/C
;
_chemical_formula_sum "Si O2"
_cell_formula_units_Z 40
_cell_length_a 10.986157
_cell_length_b 23.002878
_cell_length_c 13.338756
_cell_angle_alpha 90.000000
_cell_angle_beta 145.743081
_cell_angle_gamma 90.000000
_cell_volume 1897.484394
_symmetry_space_group_name_H-M "C 2/C"
_symmetry_group_IT_number 15
_symmetry_cell_setting 'monoclinic'
loop_
_space_group_symop_operation_xyz
x,y,z
-x,y,1/2-z
-x,-y,-z
x,-y,1/2+z
1/2+x,1/2+y,z
1/2-x,1/2+y,1/2-z
1/2-x,1/2-y,-z
1/2+x,1/2-y,1/2+z
loop_
_atom_site_type_symbol
_atom_site_label
_atom_site_fract_x
_atom_site_fract_y
_atom_site_fract_z
Si Si1 0.751612 0.307813 0.931870
Si Si2 0.000000 0.959417 0.750000
Si Si3 0.000000 0.607031 0.750000
Si Si4 0.906941 0.936298 0.407890
Si Si5 0.261015 0.118695 0.262815
Si Si6 0.844766 0.457635 0.458146
O O1 0.500000 0.319526 0.750000
O O2 0.816137 0.321328 0.859383
O O3 0.750000 0.250000 0.000000
O O4 0.887925 0.353188 0.089405
O O5 0.130127 0.921762 0.756425
O O6 0.192154 0.001476 0.921322
O O7 0.191174 0.573163 0.826366
O O8 0.820138 0.931533 0.235751
O O9 0.084925 0.886871 0.554973
O O10 0.000000 0.000000 0.500000
O O11 0.485441 0.088406 0.383858
O O12 0.000000 0.500000 0.500000
#
# Coordination Sequence:
#
# PCOD9258237 Si02
#       6
#     8   4   4   8   8   8
#     4  12  23  38  57  81 110 151 194 240 299 345
#     4  10  18  33  52  74 114 155 184 222 270 338
#     4  12  24  35  56  80 120 155 188 242 286 340
#     4  12  22  32  53  79 108 160 194 218 286 347
#     4  11  21  36  51  76 117 151 190 238 281 342
#     4  10  21  32  48  77 110 153 190 228 275 338
#
# _framework density 21.080542000000001
#
# number of rings (size 3 to 8) (size 9 to 14) (size 15 to 20)
#    0.000    0.800   10.000    0.000    2.800    0.000 
#    0.000    0.000    0.000    0.000    0.000    0.000 
#    0.000    8.000    0.000    0.000    0.000    0.000 
#
# Total GULP energy -111347.429542 kJ/mol
# GULP energy per Si atom -5567.371477 kJ/mol
# Density = 2.103256 g / cm^3
# Si number density = 21.080542 Si / 1000 Ang^3
#
#
#
# Elastic Constant Matrix: (Units=GPa)
#
#
# Indices 1 2 3 4 5 6 
#
# 1 42.6465 26.1272 27.4243 0.0000 8.1315 0.0000
# 2 26.1272 78.5061 39.2919 0.0000 6.6454 0.0000
# 3 27.4243 39.2919 163.4761 0.0000 -3.0985 0.0000
# 4 0.0000 0.0000 0.0000 21.4308 0.0000 -6.8789
# 5 8.1315 6.6454 -3.0985 0.0000 42.5122 0.0000
# 6 0.0000 0.0000 0.0000 -6.8789 0.0000 19.0298
#
#
#
# Elastic Compliance Matrix: (Units=1/GPa)
#
#
# Indices 1 2 3 4 5 6 
#
# 1 0.031759 -0.008449 -0.003392 0.000000 -0.005001 0.000000
# 2 -0.008449 0.017002 -0.002693 0.000000 -0.001238 0.000000
# 3 -0.003392 -0.002693 0.007364 0.000000 0.001606 0.000000
# 4 0.000000 0.000000 0.000000 0.052786 0.000000 0.019081
# 5 -0.005001 -0.001238 0.001606 0.000000 0.024790 0.000000
# 6 0.000000 0.000000 0.000000 0.019081 0.000000 0.059447
#
#
# Mechanical properties :
#
#
# Convention : Reuss Voigt Hill
#
# Bulk Modulus (GPa) = 36.95672 52.25729 44.60701
# Shear Modulus (GPa) = 21.62308 29.38026 25.50167
#
# Velocity S-wave (km/s) = 3.20619 3.73730 3.48188
# Velocity P-wave (km/s) = 5.59244 6.59290 6.11317
#
# Compressibility (1/GPa) = 0.02705868
#
# Stress axis : x y z
#
# Youngs Moduli (GPa) = 31.48665 58.81645 135.80011
#
# Poissons Ratio (x) = 0.49692 0.46064
# Poissons Ratio (y) = 0.26602 0.36566
# Poissons Ratio (z) = 0.10680 0.15837
#
# Static dielectric constant tensor:
#      x y z
#    x 1.761970 0.000000 -0.058690 
#    y 0.000000 1.935200 0.000000 
#    z -0.058690 0.000000 1.833790 
# 
# From -- ./inp_files/148451.got.cif
#   From: 2010.05.17/outbox.cif.g08.bks.cpg/sg15_75_cif.got.tgz:148451.got - 2010.06.03 18:47:42.
