data_PCOD9258059
_publ_section_title
;
Structure prediction by ZEFSAII (Michael W. Deem and Ramdas Pophale) SiO2 
 PCOD9258059
Probable space group: C 2/C
;
_chemical_formula_sum "Si O2"
_cell_formula_units_Z 60
_cell_length_a 9.830616
_cell_length_b 16.263921
_cell_length_c 21.043043
_cell_angle_alpha 90.000000
_cell_angle_beta 120.302161
_cell_angle_gamma 90.000000
_cell_volume 2904.790162
_symmetry_space_group_name_H-M "C 2/C"
_symmetry_group_IT_number 15
_symmetry_cell_setting 'monoclinic'
loop_
_space_group_symop_operation_xyz
x,y,z
-x,y,1/2-z
-x,-y,-z
x,-y,1/2+z
1/2+x,1/2+y,z
1/2-x,1/2+y,1/2-z
1/2-x,1/2-y,-z
1/2+x,1/2-y,1/2+z
loop_
_atom_site_type_symbol
_atom_site_label
_atom_site_fract_x
_atom_site_fract_y
_atom_site_fract_z
Si Si1 0.719413 0.145614 0.732692
Si Si2 0.027665 0.497108 0.828733
Si Si3 0.050315 0.036064 0.380362
Si Si4 0.641096 0.413298 0.101016
Si Si5 0.500000 0.569429 0.750000
Si Si6 0.415749 0.931172 0.936413
Si Si7 0.823770 0.746954 0.447963
Si Si8 0.505946 0.698428 0.180565
O O1 0.582356 0.078081 0.696475
O O2 0.808258 0.131344 0.820512
O O3 0.639266 0.233445 0.708228
O O4 0.846307 0.125641 0.708231
O O5 0.970764 0.443780 0.876113
O O6 0.000000 0.462095 0.750000
O O7 0.205894 0.530908 0.879543
O O8 0.231226 0.049402 0.404869
O O9 0.975363 0.125993 0.365614
O O10 0.006029 0.974558 0.425806
O O11 0.973635 0.989700 0.302723
O O12 0.604411 0.336334 0.047748
O O13 0.427987 0.835011 0.960648
O O14 0.500000 0.000000 0.000000
O O15 0.750000 0.750000 0.500000
O O16 0.665593 0.738339 0.368473
O O17 0.500000 0.662091 0.250000
#
# Coordination Sequence:
#
# PCOD9258059 Si02
#       8
#     8   8   8   8   4   8   8   8
#     4  10  18  33  60  90 124 160 197 258 308 377
#     4  10  19  37  64  89 126 166 211 264 323 379
#     4  10  22  37  64  90 125 164 206 268 310 382
#     4  10  20  38  62  93 121 160 207 261 318 369
#     4  10  18  32  58  88 124 156 196 250 330 358
#     4  11  24  42  65  93 127 175 222 261 319 392
#     4  11  23  39  64  93 122 169 215 260 311 393
#     4  11  19  36  62  89 118 159 212 251 304 382
#
# _framework density 20.655536000000001
#
# number of rings (size 3 to 8) (size 9 to 14) (size 15 to 20)
#    0.000    1.600    4.667    1.200    0.000    0.000 
#    0.000    9.333    1.467    0.000    0.000    0.000 
#    0.000    0.000    0.000    0.000    0.000    0.000 
#
# Total GULP energy -167263.600660 kJ/mol
# GULP energy per Si atom -5575.453355 kJ/mol
# Density = 2.060852 g / cm^3
# Si number density = 20.655536 Si / 1000 Ang^3
#
#
#
# Elastic Constant Matrix: (Units=GPa)
#
#
# Indices 1 2 3 4 5 6 
#
# 1 59.5244 47.5628 7.6258 0.0000 -11.3498 0.0000
# 2 47.5628 112.7647 17.3510 0.0000 -24.5024 0.0000
# 3 7.6258 17.3510 54.8985 0.0000 -20.2758 0.0000
# 4 0.0000 0.0000 0.0000 19.6896 0.0000 -8.8554
# 5 -11.3498 -24.5024 -20.2758 0.0000 31.4509 0.0000
# 6 0.0000 0.0000 0.0000 -8.8554 0.0000 37.2257
#
#
#
# Elastic Compliance Matrix: (Units=1/GPa)
#
#
# Indices 1 2 3 4 5 6 
#
# 1 0.025367 -0.010489 0.000203 0.000000 0.001114 0.000000
# 2 -0.010489 0.015019 -0.000481 0.000000 0.007605 0.000000
# 3 0.000203 -0.000481 0.023924 0.000000 0.015122 0.000000
# 4 0.000000 0.000000 0.000000 0.056873 0.000000 0.013529
# 5 0.001114 0.007605 0.015122 0.000000 0.047871 0.000000
# 6 0.000000 0.000000 0.000000 0.013529 0.000000 0.030082
#
#
# Mechanical properties :
#
#
# Convention : Reuss Voigt Hill
#
# Bulk Modulus (GPa) = 23.37752 41.36297 32.37024
# Shear Modulus (GPa) = 21.28304 27.98312 24.63308
#
# Velocity S-wave (km/s) = 3.21343 3.68469 3.45710
# Velocity P-wave (km/s) = 5.01105 6.17828 5.62502
#
# Compressibility (1/GPa) = 0.04277614
#
# Stress axis : x y z
#
# Youngs Moduli (GPa) = 39.42084 66.58394 41.79849
#
# Poissons Ratio (x) = 0.69839 -0.00847
# Poissons Ratio (y) = 0.41348 0.02010
# Poissons Ratio (z) = -0.00799 0.03202
#
# Static dielectric constant tensor:
#      x y z
#    x 0.191970 0.000000 3.773730 
#    y 0.000000 1.771440 0.000000 
#    z 3.773730 0.000000 -7.329110 
# 
# From -- ./inp_files/232763.got.cif
#   From: 2010.05.17/outbox.cif.g08.bks.cpg/sg15_117_cif.got.tgz:232763.got - 2010.06.03 18:47:42.
