data_PCOD9258599
_publ_section_title
;
Structure prediction by ZEFSAII (Michael W. Deem and Ramdas Pophale) SiO2 
 PCOD9258599
Probable space group: C 2/C
;
_chemical_formula_sum "Si O2"
_cell_formula_units_Z 36
_cell_length_a 14.884304
_cell_length_b 22.559929
_cell_length_c 8.322926
_cell_angle_alpha 90.000000
_cell_angle_beta 150.682261
_cell_angle_gamma 90.000000
_cell_volume 1368.453997
_symmetry_space_group_name_H-M "C 2/C"
_symmetry_group_IT_number 15
_symmetry_cell_setting 'monoclinic'
loop_
_space_group_symop_operation_xyz
x,y,z
-x,y,1/2-z
-x,-y,-z
x,-y,1/2+z
1/2+x,1/2+y,z
1/2-x,1/2+y,1/2-z
1/2-x,1/2-y,-z
1/2+x,1/2-y,1/2+z
loop_
_atom_site_type_symbol
_atom_site_label
_atom_site_fract_x
_atom_site_fract_y
_atom_site_fract_z
Si Si1 0.720119 0.911024 0.019270
Si Si2 0.500000 0.717275 0.250000
Si Si3 0.220963 0.970307 0.061617
Si Si4 0.360124 0.632301 0.270763
Si Si5 0.664211 0.800510 0.754626
O O1 0.684968 0.942326 0.135331
O O2 0.928355 0.884712 0.362954
O O3 0.608624 0.855226 0.778446
O O4 0.722365 0.963642 0.893359
O O5 0.353754 0.671652 0.097622
O O6 0.525833 0.761406 0.437298
O O7 0.243146 0.927655 0.941357
O O8 0.000000 0.971356 0.750000
O O9 0.287248 0.668723 0.307903
O O10 0.750000 0.750000 0.000000
#
# Coordination Sequence:
#
# PCOD9258599 Si02
#       5
#     8   4   8   8   8
#     4  11  20  35  60  92 120 155 194 254 314 356
#     4  12  24  40  58  86 124 164 206 240 290 370
#     4  10  18  33  60  93 122 145 194 260 320 352
#     4  11  20  39  59  89 120 152 202 256 307 355
#     4  12  24  38  58  84 125 167 200 243 296 363
#
# _framework density 26.307057
#
# number of rings (size 3 to 8) (size 9 to 14) (size 15 to 20)
#    0.000    0.889    5.556    6.667    0.000    0.000 
#    0.000    0.000    0.000    5.333    0.000    0.000 
#    0.000    0.000    0.000    0.000    0.000    0.000 
#
# Total GULP energy -100793.593539 kJ/mol
# GULP energy per Si atom -5599.644086 kJ/mol
# Density = 2.624718 g / cm^3
# Si number density = 26.307057 Si / 1000 Ang^3
#
#
#
# Elastic Constant Matrix: (Units=GPa)
#
#
# Indices 1 2 3 4 5 6 
#
# 1 137.8056 63.2790 13.4045 0.0000 -24.4406 0.0000
# 2 63.2790 239.4216 43.9095 0.0000 -26.4067 0.0000
# 3 13.4045 43.9095 51.6739 0.0000 -31.1743 0.0000
# 4 0.0000 0.0000 0.0000 45.9027 0.0000 -26.3568
# 5 -24.4406 -26.4067 -31.1743 0.0000 42.7047 0.0000
# 6 0.0000 0.0000 0.0000 -26.3568 0.0000 57.0405
#
#
#
# Elastic Compliance Matrix: (Units=1/GPa)
#
#
# Indices 1 2 3 4 5 6 
#
# 1 0.009109 -0.002341 0.003392 0.000000 0.006241 0.000000
# 2 -0.002341 0.005550 -0.005087 0.000000 -0.001621 0.000000
# 3 0.003392 -0.005087 0.039436 0.000000 0.027584 0.000000
# 4 0.000000 0.000000 0.000000 0.029653 0.000000 0.013702
# 5 0.006241 -0.001621 0.027584 0.000000 0.046122 0.000000
# 6 0.000000 0.000000 0.000000 0.013702 0.000000 0.023863
#
#
# Mechanical properties :
#
#
# Convention : Reuss Voigt Hill
#
# Bulk Modulus (GPa) = 21.72863 74.45412 48.09137
# Shear Modulus (GPa) = 28.22574 49.68345 38.95460
#
# Velocity S-wave (km/s) = 3.27912 4.35051 3.85225
# Velocity P-wave (km/s) = 4.75546 7.32116 6.17308
#
# Compressibility (1/GPa) = 0.04602223
#
# Stress axis : x y z
#
# Youngs Moduli (GPa) = 109.78604 180.19608 25.35781
#
# Poissons Ratio (x) = 0.42185 -0.08601
# Poissons Ratio (y) = 0.25702 0.12898
# Poissons Ratio (z) = -0.37238 0.91658
#
# Static dielectric constant tensor:
#      x y z
#    x 2.040680 0.000000 0.062540 
#    y 0.000000 1.961490 0.000000 
#    z 0.062540 0.000000 2.116660 
# 
# From -- ./inp_files/28684.got.cif
#   From: 2010.05.17/outbox.cif.g08.bks.cpg/sg15_15_cif.got.tgz:28684.got - 2010.06.03 18:47:42.
