data_PCOD9258452
_publ_section_title
;
Structure prediction by ZEFSAII (Michael W. Deem and Ramdas Pophale) SiO2 
 PCOD9258452
Probable space group: C 2/C
;
_chemical_formula_sum "Si O2"
_cell_formula_units_Z 56
_cell_length_a 9.706292
_cell_length_b 23.101422
_cell_length_c 17.552850
_cell_angle_alpha 90.000000
_cell_angle_beta 121.131138
_cell_angle_gamma 90.000000
_cell_volume 3369.042520
_symmetry_space_group_name_H-M "C 2/C"
_symmetry_group_IT_number 15
_symmetry_cell_setting 'monoclinic'
loop_
_space_group_symop_operation_xyz
x,y,z
-x,y,1/2-z
-x,-y,-z
x,-y,1/2+z
1/2+x,1/2+y,z
1/2-x,1/2+y,1/2-z
1/2-x,1/2-y,-z
1/2+x,1/2-y,1/2+z
loop_
_atom_site_type_symbol
_atom_site_label
_atom_site_fract_x
_atom_site_fract_y
_atom_site_fract_z
Si Si1 0.387460 0.718531 0.492874
Si Si2 0.300233 0.411494 0.015854
Si Si3 0.760397 0.212327 0.855530
Si Si4 0.655436 0.913799 0.143841
Si Si5 0.839651 0.079025 0.847420
Si Si6 0.913811 0.506072 0.148385
Si Si7 0.941145 0.717935 0.852133
O O1 0.250000 0.750000 0.500000
O O2 0.344357 0.651084 0.492635
O O3 0.562139 0.735195 0.577156
O O4 0.393047 0.742182 0.408800
O O5 0.179907 0.446411 0.927215
O O6 0.217689 0.410761 0.075492
O O7 0.478286 0.437435 0.080763
O O8 0.790714 0.143298 0.860867
O O9 0.625028 0.227809 0.878740
O O10 0.679770 0.229689 0.752576
O O11 0.801108 0.920621 0.246198
O O12 0.534522 0.966384 0.131617
O O13 0.576119 0.850846 0.136456
O O14 0.718667 0.036880 0.855117
O O15 0.000000 0.529511 0.250000
#
# Coordination Sequence:
#
# PCOD9258452 Si02
#       7
#     8   8   8   8   8   8   8
#     4  11  22  35  50  82 114 141 176 219 268 326
#     4  11  21  34  51  81 113 140 171 214 279 321
#     4   9  19  34  59  78  99 141 184 227 264 305
#     4  10  18  33  57  80 104 133 182 226 265 309
#     4   9  18  33  57  81 101 131 178 233 262 304
#     4  10  20  36  55  77 104 142 179 216 266 322
#     4  10  18  36  56  79 104 139 186 226 266 309
#
# _framework density 16.621934
#
# number of rings (size 3 to 8) (size 9 to 14) (size 15 to 20)
#    0.000    2.000    2.857    1.714    0.000    0.571 
#    2.571    0.000    0.000    0.000    3.714    0.000 
#    0.000    0.000    0.000    0.000    0.000    0.000 
#
# Total GULP energy -155968.338024 kJ/mol
# GULP energy per Si atom -5570.297787 kJ/mol
# Density = 1.658410 g / cm^3
# Si number density = 16.621934 Si / 1000 Ang^3
#
#
#
# Elastic Constant Matrix: (Units=GPa)
#
#
# Indices 1 2 3 4 5 6 
#
# 1 117.5235 26.8392 71.1067 0.0000 -1.5738 0.0000
# 2 26.8392 37.0143 38.8945 0.0000 3.6654 0.0000
# 3 71.1067 38.8945 98.3951 0.0000 -0.4844 0.0000
# 4 0.0000 0.0000 0.0000 27.6676 0.0000 3.0995
# 5 -1.5738 3.6654 -0.4844 0.0000 31.5213 0.0000
# 6 0.0000 0.0000 0.0000 3.0995 0.0000 22.2589
#
#
#
# Elastic Compliance Matrix: (Units=1/GPa)
#
#
# Indices 1 2 3 4 5 6 
#
# 1 0.015145 0.000800 -0.011258 0.000000 0.000490 0.000000
# 2 0.000800 0.047284 -0.019298 0.000000 -0.005755 0.000000
# 3 -0.011258 -0.019298 0.025938 0.000000 0.002080 0.000000
# 4 0.000000 0.000000 0.000000 0.036716 0.000000 -0.005113
# 5 0.000490 -0.005755 0.002080 0.000000 0.032450 0.000000
# 6 0.000000 0.000000 0.000000 -0.005113 0.000000 0.045638
#
#
# Mechanical properties :
#
#
# Convention : Reuss Voigt Hill
#
# Bulk Modulus (GPa) = 34.65623 58.51262 46.58443
# Shear Modulus (GPa) = 18.36214 24.02907 21.19561
#
# Velocity S-wave (km/s) = 3.32730 3.80626 3.57481
# Velocity P-wave (km/s) = 5.97128 7.38886 6.71757
#
# Compressibility (1/GPa) = 0.02885484
#
# Stress axis : x y z
#
# Youngs Moduli (GPa) = 66.03051 21.14883 38.55414
#
# Poissons Ratio (x) = -0.01693 0.43406
# Poissons Ratio (y) = -0.05285 0.74400
# Poissons Ratio (z) = 0.74340 0.40812
#
# Static dielectric constant tensor:
#      x y z
#    x 1.550210 0.000000 0.008050 
#    y 0.000000 1.548160 0.000000 
#    z 0.008050 0.000000 1.581910 
# 
# From -- ./inp_files/136476.got.cif
#   From: 2010.05.17/outbox.cif.g08.bks.cpg/sg15_69_cif.got.tgz:136476.got - 2010.06.03 18:47:42.
