data_PCOD9258344
_publ_section_title
;
Structure prediction by ZEFSAII (Michael W. Deem and Ramdas Pophale) SiO2 
 PCOD9258344
Probable space group: C 2/C
;
_chemical_formula_sum "Si O2"
_cell_formula_units_Z 64
_cell_length_a 13.702832
_cell_length_b 14.343731
_cell_length_c 12.592115
_cell_angle_alpha 90.000000
_cell_angle_beta 80.635158
_cell_angle_gamma 90.000000
_cell_volume 2441.990875
_symmetry_space_group_name_H-M "C 2/C"
_symmetry_group_IT_number 15
_symmetry_cell_setting 'monoclinic'
loop_
_space_group_symop_operation_xyz
x,y,z
-x,y,1/2-z
-x,-y,-z
x,-y,1/2+z
1/2+x,1/2+y,z
1/2-x,1/2+y,1/2-z
1/2-x,1/2-y,-z
1/2+x,1/2-y,1/2+z
loop_
_atom_site_type_symbol
_atom_site_label
_atom_site_fract_x
_atom_site_fract_y
_atom_site_fract_z
Si Si1 0.577939 0.414705 0.569907
Si Si2 0.439748 0.127138 0.570893
Si Si3 0.848863 0.644910 0.888234
Si Si4 0.204562 0.991667 0.351204
Si Si5 0.907081 0.100586 0.822081
Si Si6 0.626458 0.321674 0.950263
Si Si7 0.258410 0.183267 0.137730
Si Si8 0.936974 0.428707 0.656979
O O1 0.639404 0.442269 0.455253
O O2 0.543132 0.510721 0.628352
O O3 0.487738 0.348912 0.556722
O O4 0.655395 0.369703 0.637078
O O5 0.533750 0.150934 0.630050
O O6 0.365931 0.213568 0.578794
O O7 0.399256 0.027681 0.616223
O O8 0.490547 0.112140 0.447014
O O9 0.781268 0.714130 0.830268
O O10 0.813992 0.542084 0.863084
O O11 0.813262 0.674255 0.012879
O O12 0.187024 0.101253 0.373736
O O13 0.342604 0.137216 0.193204
O O14 0.167921 0.945783 0.248201
O O15 0.000000 0.151346 0.750000
O O16 0.860813 0.158685 0.926540
O O17 0.000000 0.440827 0.750000
#
# Coordination Sequence:
#
# PCOD9258344 Si02
#       8
#     8   8   8   8   8   8   8   8
#     4  10  18  33  54  83 123 153 190 241 296 347
#     4  10  22  42  65  87 118 161 208 245 293 361
#     4   9  18  34  61  88 117 158 199 240 292 357
#     4  10  20  33  53  91 128 153 189 245 305 354
#     4  11  19  30  52  87 128 157 186 241 307 349
#     4  11  20  35  59  90 124 157 195 246 298 357
#     4   9  18  34  60  87 113 153 205 247 286 353
#     4  10  23  42  64  87 118 159 204 253 300 350
#
# _framework density 26.208124999999999
#
# number of rings (size 3 to 8) (size 9 to 14) (size 15 to 20)
#    0.000    2.000    3.750    0.750    1.750    2.500 
#    2.250    0.000    0.000   18.750    0.000    0.000 
#    0.000    0.000    0.000    0.000    0.000    0.000 
#
# Total GULP energy -179210.930293 kJ/mol
# GULP energy per Si atom -5600.341572 kJ/mol
# Density = 2.614847 g / cm^3
# Si number density = 26.208125 Si / 1000 Ang^3
#
#
#
# Elastic Constant Matrix: (Units=GPa)
#
#
# Indices 1 2 3 4 5 6 
#
# 1 83.9396 41.3533 39.4167 0.0000 7.1441 0.0000
# 2 41.3533 130.5435 22.2067 0.0000 19.4313 0.0000
# 3 39.4167 22.2067 140.3703 0.0000 10.2517 0.0000
# 4 0.0000 0.0000 0.0000 -4.6601 0.0000 17.2680
# 5 7.1441 19.4313 10.2517 0.0000 30.0614 0.0000
# 6 0.0000 0.0000 0.0000 17.2680 0.0000 37.9123
#
#
#
# Elastic Compliance Matrix: (Units=1/GPa)
#
#
# Indices 1 2 3 4 5 6 
#
# 1 0.015836 -0.004432 -0.003774 0.000000 0.000389 0.000000
# 2 -0.004432 0.009846 0.000077 0.000000 -0.005337 0.000000
# 3 -0.003774 0.000077 0.008317 0.000000 -0.001989 0.000000
# 4 0.000000 0.000000 0.000000 -0.079839 0.000000 0.036364
# 5 0.000389 -0.005337 -0.001989 0.000000 0.037301 0.000000
# 6 0.000000 0.000000 0.000000 0.036364 0.000000 0.009814
#
#
# Mechanical properties :
#
#
# Convention : Reuss Voigt Hill
#
# Bulk Modulus (GPa) = 56.37136 62.31185 59.34160
# Shear Modulus (GPa) = 213.24715 29.45449 121.35082
#
# Velocity S-wave (km/s) = 9.03014 3.35605 6.81199
# Velocity P-wave (km/s) = 11.41404 6.23256 9.19579
#
# Compressibility (1/GPa) = 0.01773950
#
# Stress axis : x y z
#
# Youngs Moduli (GPa) = 63.14683 101.56721 120.23713
#
# Poissons Ratio (x) = 0.45018 0.45378
# Poissons Ratio (y) = 0.27989 -0.00924
# Poissons Ratio (z) = 0.23832 -0.00780
#
# Static dielectric constant tensor:
#      x y z
#    x 2.061620 0.000000 -0.032970 
#    y 0.000000 2.114980 0.000000 
#    z -0.032970 0.000000 2.094780 
# 
# From -- ./inp_files/112730.got.cif
#   From: 2010.05.17/outbox.cif.g08.bks.cpg/sg15_57_cif.got.tgz:112730.got - 2010.06.03 18:47:42.
