data_PCOD9258346
_publ_section_title
;
Structure prediction by ZEFSAII (Michael W. Deem and Ramdas Pophale) SiO2 
 PCOD9258346
Probable space group: C 2/C
;
_chemical_formula_sum "Si O2"
_cell_formula_units_Z 44
_cell_length_a 24.475991
_cell_length_b 5.306943
_cell_length_c 14.213291
_cell_angle_alpha 90.000000
_cell_angle_beta 113.599304
_cell_angle_gamma 90.000000
_cell_volume 1691.800222
_symmetry_space_group_name_H-M "C 2/C"
_symmetry_group_IT_number 15
_symmetry_cell_setting 'monoclinic'
loop_
_space_group_symop_operation_xyz
x,y,z
-x,y,1/2-z
-x,-y,-z
x,-y,1/2+z
1/2+x,1/2+y,z
1/2-x,1/2+y,1/2-z
1/2-x,1/2-y,-z
1/2+x,1/2-y,1/2+z
loop_
_atom_site_type_symbol
_atom_site_label
_atom_site_fract_x
_atom_site_fract_y
_atom_site_fract_z
Si Si1 0.019207 0.037119 0.123220
Si Si2 0.029643 0.464642 0.916857
Si Si3 0.246698 0.252485 0.135634
Si Si4 0.151560 0.991738 0.187710
Si Si5 0.348089 0.861655 0.989709
Si Si6 0.250000 0.250000 0.500000
O O1 0.088707 0.096730 0.177080
O O2 0.003735 0.765337 0.152286
O O3 0.979765 0.262966 0.134839
O O4 0.000000 0.000000 0.000000
O O5 0.100815 0.431469 0.970534
O O6 0.000000 0.500000 0.000000
O O7 0.311781 0.312266 0.217830
O O8 0.219396 0.514578 0.072029
O O9 0.199722 0.197778 0.186988
O O10 0.245087 0.007237 0.070555
O O11 0.136418 0.818864 0.085472
O O12 0.326086 0.728633 0.068134
#
# Coordination Sequence:
#
# PCOD9258346 Si02
#       6
#     8   8   8   8   8   4
#     4  10  20  31  53  89 116 148 187 261 297 347
#     4  10  18  33  54  84 117 148 196 247 297 351
#     4  10  21  36  52  87 115 162 195 260 310 370
#     4  12  20  33  62  83 121 148 213 262 305 359
#     4  10  20  36  55  84 118 157 202 247 308 371
#     4   8  22  38  52  80 122 158 194 234 320 380
#
# _framework density 26.007798000000001
#
# number of rings (size 3 to 8) (size 9 to 14) (size 15 to 20)
#    1.091    0.727    5.455    2.182    0.000    0.727 
#    0.000    0.000    0.000    1.091    0.000    2.545 
#    0.000    0.000    0.000    0.000    0.000    0.182 
#
# Total GULP energy -122625.402749 kJ/mol
# GULP energy per Si atom -5573.881943 kJ/mol
# Density = 2.594860 g / cm^3
# Si number density = 26.007798 Si / 1000 Ang^3
#
#
#
# Elastic Constant Matrix: (Units=GPa)
#
#
# Indices 1 2 3 4 5 6 
#
# 1 121.4471 4.5061 31.8533 0.0000 27.1253 0.0000
# 2 4.5061 150.8434 10.0010 0.0000 -3.0095 0.0000
# 3 31.8533 10.0010 59.3292 0.0000 10.0314 0.0000
# 4 0.0000 0.0000 0.0000 16.4845 0.0000 12.4854
# 5 27.1253 -3.0095 10.0314 0.0000 37.2855 0.0000
# 6 0.0000 0.0000 0.0000 12.4854 0.0000 40.4162
#
#
#
# Elastic Compliance Matrix: (Units=1/GPa)
#
#
# Indices 1 2 3 4 5 6 
#
# 1 0.010984 -0.000148 -0.004735 0.000000 -0.006729 0.000000
# 2 -0.000148 0.006734 -0.001221 0.000000 0.000980 0.000000
# 3 -0.004735 -0.001221 0.019944 0.000000 -0.002020 0.000000
# 4 0.000000 0.000000 0.000000 0.079192 0.000000 -0.024464
# 5 -0.006729 0.000980 -0.002020 0.000000 0.032338 0.000000
# 6 0.000000 0.000000 0.000000 -0.024464 0.000000 0.032300
#
#
# Mechanical properties :
#
#
# Convention : Reuss Voigt Hill
#
# Bulk Modulus (GPa) = 39.28554 47.14893 43.21724
# Shear Modulus (GPa) = 24.72955 37.85452 31.29204
#
# Velocity S-wave (km/s) = 3.08693 3.81925 3.47245
# Velocity P-wave (km/s) = 5.27671 6.13327 5.72104
#
# Compressibility (1/GPa) = 0.02545466
#
# Stress axis : x y z
#
# Youngs Moduli (GPa) = 91.03877 148.49242 50.13920
#
# Poissons Ratio (x) = 0.02205 0.23739
# Poissons Ratio (y) = 0.01352 0.06123
# Poissons Ratio (z) = 0.43103 0.18134
#
# Static dielectric constant tensor:
#      x y z
#    x 2.109320 0.000000 -0.128130 
#    y 0.000000 2.216660 0.000000 
#    z -0.128130 0.000000 2.298280 
# 
# From -- ./inp_files/217849.got.cif
#   From: 2010.05.17/outbox.cif.g08.bks.cpg/sg15_109_cif.got.tgz:217849.got - 2010.06.03 18:47:42.
