data_PCOD9258824
_publ_section_title
;
Structure prediction by ZEFSAII (Michael W. Deem and Ramdas Pophale) SiO2 
 PCOD9258824
Probable space group: C 2/C
;
_chemical_formula_sum "Si O2"
_cell_formula_units_Z 52
_cell_length_a 8.302248
_cell_length_b 15.028449
_cell_length_c 28.734647
_cell_angle_alpha 90.000000
_cell_angle_beta 134.928937
_cell_angle_gamma 90.000000
_cell_volume 2538.275239
_symmetry_space_group_name_H-M "C 2/C"
_symmetry_group_IT_number 15
_symmetry_cell_setting 'monoclinic'
loop_
_space_group_symop_operation_xyz
x,y,z
-x,y,1/2-z
-x,-y,-z
x,-y,1/2+z
1/2+x,1/2+y,z
1/2-x,1/2+y,1/2-z
1/2-x,1/2-y,-z
1/2+x,1/2-y,1/2+z
loop_
_atom_site_type_symbol
_atom_site_label
_atom_site_fract_x
_atom_site_fract_y
_atom_site_fract_z
Si Si1 0.554805 0.605717 0.465624
Si Si2 0.259830 0.920765 0.467412
Si Si3 0.072344 0.470370 0.853987
Si Si4 0.305594 0.035914 0.391972
Si Si5 0.000000 0.350274 0.750000
Si Si6 0.996242 0.185876 0.142621
Si Si7 0.305758 0.652763 0.903116
O O1 0.670364 0.513566 0.472288
O O2 0.291982 0.580124 0.420507
O O3 0.560246 0.673230 0.423674
O O4 0.663938 0.638776 0.535203
O O5 0.500125 0.905089 0.541491
O O6 0.059829 0.850327 0.433990
O O7 0.294083 0.946393 0.420470
O O8 0.999206 0.412651 0.795258
O O9 0.168243 0.566057 0.858031
O O10 0.886561 0.479280 0.856341
O O11 0.073149 0.090728 0.349355
O O12 0.236041 0.296946 0.798430
O O13 0.841007 0.260024 0.134294
#
# Coordination Sequence:
#
# PCOD9258824 Si02
#       7
#     8   8   8   8   4   8   8
#     4   9  16  34  57  88 117 151 174 235 293 369
#     4   9  17  30  56  89 129 135 185 219 301 364
#     4  10  19  37  64  78 111 154 204 226 282 346
#     4  10  18  34  55  88 113 158 172 237 288 364
#     4  10  24  46  54  74 108 170 210 244 270 352
#     4  10  23  35  56  82 122 148 193 238 306 330
#     4  11  18  35  59  91 111 148 182 248 293 351
#
# _framework density 20.486352
#
# number of rings (size 3 to 8) (size 9 to 14) (size 15 to 20)
#    0.000    2.154    3.077    2.308    0.000    1.231 
#    0.000    4.615    0.000    0.000    0.000    0.000 
#    0.000    0.000    0.000    0.000    0.000    0.000 
#
# Total GULP energy -145166.102737 kJ/mol
# GULP energy per Si atom -5583.311644 kJ/mol
# Density = 2.043972 g / cm^3
# Si number density = 20.486352 Si / 1000 Ang^3
#
#
#
# Elastic Constant Matrix: (Units=GPa)
#
#
# Indices 1 2 3 4 5 6 
#
# 1 101.8004 -0.2624 16.8285 0.0000 7.6255 0.0000
# 2 -0.2624 35.7319 12.3553 0.0000 11.7864 0.0000
# 3 16.8285 12.3553 54.3725 0.0000 12.5537 0.0000
# 4 0.0000 0.0000 0.0000 9.4813 0.0000 8.2826
# 5 7.6255 11.7864 12.5537 0.0000 34.0379 0.0000
# 6 0.0000 0.0000 0.0000 8.2826 0.0000 31.8797
#
#
#
# Elastic Compliance Matrix: (Units=1/GPa)
#
#
# Indices 1 2 3 4 5 6 
#
# 1 0.010497 0.001784 -0.003245 0.000000 -0.001773 0.000000
# 2 0.001784 0.033240 -0.005854 0.000000 -0.009751 0.000000
# 3 -0.003245 -0.005854 0.021960 0.000000 -0.005345 0.000000
# 4 0.000000 0.000000 0.000000 0.136436 0.000000 -0.035447
# 5 -0.001773 -0.009751 -0.005345 0.000000 0.035124 0.000000
# 6 0.000000 0.000000 0.000000 -0.035447 0.000000 0.040577
#
#
# Mechanical properties :
#
#
# Convention : Reuss Voigt Hill
#
# Bulk Modulus (GPa) = 19.58228 27.74975 23.66601
# Shear Modulus (GPa) = 16.15575 25.94534 21.05055
#
# Velocity S-wave (km/s) = 2.81127 3.56261 3.20900
# Velocity P-wave (km/s) = 4.48521 5.52248 5.03065
#
# Compressibility (1/GPa) = 0.05106658
#
# Stress axis : x y z
#
# Youngs Moduli (GPa) = 95.26594 30.08445 45.53667
#
# Poissons Ratio (x) = -0.05366 0.14776
# Poissons Ratio (y) = -0.16993 0.26657
# Poissons Ratio (z) = 0.30913 0.17612
#
# Static dielectric constant tensor:
#      x y z
#    x 1.764780 0.000000 0.020250 
#    y 0.000000 1.728670 0.000000 
#    z 0.020250 0.000000 1.737410 
# 
# From -- ./inp_files/231139.got.cif
#   From: 2010.05.17/outbox.cif.g08.bks.cpg/sg15_116_cif.got.tgz:231139.got - 2010.06.03 18:47:42.
