data_PCOD9258049
_publ_section_title
;
Structure prediction by ZEFSAII (Michael W. Deem and Ramdas Pophale) SiO2 
 PCOD9258049
Probable space group: C 2/C
;
_chemical_formula_sum "Si O2"
_cell_formula_units_Z 64
_cell_length_a 14.977735
_cell_length_b 9.251728
_cell_length_c 21.804626
_cell_angle_alpha 90.000000
_cell_angle_beta 76.755979
_cell_angle_gamma 90.000000
_cell_volume 2941.104103
_symmetry_space_group_name_H-M "C 2/C"
_symmetry_group_IT_number 15
_symmetry_cell_setting 'monoclinic'
loop_
_space_group_symop_operation_xyz
x,y,z
-x,y,1/2-z
-x,-y,-z
x,-y,1/2+z
1/2+x,1/2+y,z
1/2-x,1/2+y,1/2-z
1/2-x,1/2-y,-z
1/2+x,1/2-y,1/2+z
loop_
_atom_site_type_symbol
_atom_site_label
_atom_site_fract_x
_atom_site_fract_y
_atom_site_fract_z
Si Si1 0.732392 0.082256 0.489175
Si Si2 0.737921 0.561052 0.391534
Si Si3 0.909553 0.963385 0.882001
Si Si4 0.160914 0.184962 0.681189
Si Si5 0.921995 0.783502 0.620770
Si Si6 0.102860 0.238645 0.236916
Si Si7 0.844546 0.505105 0.121821
Si Si8 0.691242 0.312398 0.312249
O O1 0.750000 0.250000 0.500000
O O2 0.825697 0.031043 0.441843
O O3 0.657600 0.051283 0.448934
O O4 0.716759 0.999359 0.554697
O O5 0.809445 0.651683 0.339110
O O6 0.655903 0.674758 0.415623
O O7 0.684341 0.431018 0.366138
O O8 0.893743 0.866921 0.822548
O O9 0.989111 0.878108 0.903880
O O10 0.917157 0.122510 0.851387
O O11 0.141594 0.163071 0.755636
O O12 0.252068 0.086554 0.653325
O O13 0.892732 0.826936 0.695255
O O14 0.925558 0.609382 0.621865
O O15 0.198425 0.322029 0.217622
O O16 0.000000 0.306540 0.250000
O O17 0.836789 0.653381 0.160542
#
# Coordination Sequence:
#
# PCOD9258049 Si02
#       8
#     8   8   8   8   8   8   8   8
#     4  11  21  39  59  85 117 158 207 254 306 364
#     4  11  22  34  62  89 117 158 208 253 305 371
#     4  10  21  39  59  83 127 160 196 255 308 372
#     4  10  20  33  60  93 112 157 199 256 304 365
#     4  10  22  37  59  90 115 162 205 249 317 365
#     4  10  18  32  58  87 121 156 195 246 314 364
#     4  10  20  35  60  87 118 156 209 251 298 378
#     4  12  18  36  62  91 122 154 210 256 308 375
#
# _framework density 21.760535000000001
#
# number of rings (size 3 to 8) (size 9 to 14) (size 15 to 20)
#    0.000    1.500    6.250    1.500    0.000    5.000 
#    0.000    0.625    8.250    0.750    0.000    0.000 
#    0.000    0.000    0.000    0.000    0.000    0.000 
#
# Total GULP energy -178277.025426 kJ/mol
# GULP energy per Si atom -5571.157045 kJ/mol
# Density = 2.171101 g / cm^3
# Si number density = 21.760535 Si / 1000 Ang^3
#
#
#
# Elastic Constant Matrix: (Units=GPa)
#
#
# Indices 1 2 3 4 5 6 
#
# 1 41.9172 11.8466 -11.3981 0.0000 6.8474 0.0000
# 2 11.8466 110.3330 30.2715 0.0000 5.0350 0.0000
# 3 -11.3981 30.2715 84.7457 0.0000 16.2767 0.0000
# 4 0.0000 0.0000 0.0000 31.7252 0.0000 2.8423
# 5 6.8474 5.0350 16.2767 0.0000 17.8180 0.0000
# 6 0.0000 0.0000 0.0000 2.8423 0.0000 21.4293
#
#
#
# Elastic Compliance Matrix: (Units=1/GPa)
#
#
# Indices 1 2 3 4 5 6 
#
# 1 0.031130 -0.005131 0.009750 0.000000 -0.019420 0.000000
# 2 -0.005131 0.010898 -0.005300 0.000000 0.003734 0.000000
# 3 0.009750 -0.005300 0.018721 0.000000 -0.019351 0.000000
# 4 0.000000 0.000000 0.000000 0.031900 0.000000 -0.004231
# 5 -0.019420 0.003734 -0.019351 0.000000 0.080208 0.000000
# 6 0.000000 0.000000 0.000000 -0.004231 0.000000 0.047226
#
#
# Mechanical properties :
#
#
# Convention : Reuss Voigt Hill
#
# Bulk Modulus (GPa) = 16.83901 33.15957 24.99929
# Shear Modulus (GPa) = 20.72605 27.94621 24.33613
#
# Velocity S-wave (km/s) = 3.08954 3.58755 3.34782
# Velocity P-wave (km/s) = 4.52572 5.69492 5.14365
#
# Compressibility (1/GPa) = 0.05938590
#
# Stress axis : x y z
#
# Youngs Moduli (GPa) = 32.12322 91.75822 53.41543
#
# Poissons Ratio (x) = 0.47083 -0.52078
# Poissons Ratio (y) = 0.16483 0.28311
# Poissons Ratio (z) = -0.31319 0.48634
#
# Static dielectric constant tensor:
#      x y z
#    x 1.890430 0.000000 0.006970 
#    y 0.000000 1.850580 0.000000 
#    z 0.006970 0.000000 1.808580 
# 
# From -- ./inp_files/247462.got.cif
#   From: 2010.05.17/outbox.cif.g08.bks.cpg/sg15_124_cif.got.tgz:247462.got - 2010.06.03 18:47:42.
