data_PCOD9258431
_publ_section_title
;
Structure prediction by ZEFSAII (Michael W. Deem and Ramdas Pophale) SiO2 
 PCOD9258431
Probable space group: C 2/C
;
_chemical_formula_sum "Si O2"
_cell_formula_units_Z 48
_cell_length_a 10.728590
_cell_length_b 18.415721
_cell_length_c 22.580165
_cell_angle_alpha 90.000000
_cell_angle_beta 29.739402
_cell_angle_gamma 90.000000
_cell_volume 2213.039216
_symmetry_space_group_name_H-M "C 2/C"
_symmetry_group_IT_number 15
_symmetry_cell_setting 'monoclinic'
loop_
_space_group_symop_operation_xyz
x,y,z
-x,y,1/2-z
-x,-y,-z
x,-y,1/2+z
1/2+x,1/2+y,z
1/2-x,1/2+y,1/2-z
1/2-x,1/2-y,-z
1/2+x,1/2-y,1/2+z
loop_
_atom_site_type_symbol
_atom_site_label
_atom_site_fract_x
_atom_site_fract_y
_atom_site_fract_z
Si Si1 0.692038 0.319570 0.565816
Si Si2 0.993045 0.810265 0.163984
Si Si3 0.406929 0.973279 0.473340
Si Si4 0.964963 0.243524 0.548386
Si Si5 0.753481 0.328133 0.825816
Si Si6 0.911372 0.023635 0.721104
O O1 0.750000 0.250000 0.500000
O O2 0.883624 0.386220 0.479794
O O3 0.421387 0.350393 0.657262
O O4 0.742941 0.288725 0.609955
O O5 0.900646 0.796045 0.135432
O O6 0.861541 0.748605 0.257271
O O7 0.928359 0.889300 0.213160
O O8 0.293876 0.796018 0.039870
O O9 0.618660 0.997912 0.339394
O O10 0.500000 0.000000 0.500000
O O11 0.121719 0.001105 0.587015
O O12 0.070708 0.186219 0.456679
O O13 0.000000 0.368239 0.750000
O O14 0.000000 0.997535 0.750000
#
# Coordination Sequence:
#
# PCOD9258431 Si02
#       6
#     8   8   8   8   8   8
#     4  10  19  36  62  91 130 166 214 278 332 387
#     4  10  18  33  56  85 127 172 207 264 332 395
#     4  10  21  38  60  91 128 174 209 267 334 396
#     4   9  18  31  52  88 117 164 216 258 319 396
#     4   9  18  34  53  84 121 164 204 272 326 382
#     4  10  19  36  58  85 125 173 212 263 325 395
#
# _framework density 21.689630000000001
#
# number of rings (size 3 to 8) (size 9 to 14) (size 15 to 20)
#    0.000    2.333    0.000    5.500    0.000    0.667 
#   18.000    0.000    0.000    4.000    4.333    0.000 
#    0.000    0.000    0.000    0.000    0.000    0.000 
#
# Total GULP energy -133700.327085 kJ/mol
# GULP energy per Si atom -5570.846962 kJ/mol
# Density = 2.164026 g / cm^3
# Si number density = 21.689630 Si / 1000 Ang^3
#
#
#
# Elastic Constant Matrix: (Units=GPa)
#
#
# Indices 1 2 3 4 5 6 
#
# 1 125.0300 3.9076 18.4000 -0.0222 -14.1515 -0.0047
# 2 3.9076 50.7576 20.1011 -0.0596 -13.4547 -0.0162
# 3 18.4000 20.1011 123.6470 0.1528 -15.0402 -0.1171
# 4 -0.0222 -0.0596 0.1528 13.0553 -0.0607 0.4569
# 5 -14.1515 -13.4547 -15.0402 -0.0607 36.4632 0.0075
# 6 -0.0047 -0.0162 -0.1171 0.4569 0.0075 15.7836
#
#
#
# Elastic Compliance Matrix: (Units=1/GPa)
#
#
# Indices 1 2 3 4 5 6 
#
# 1 0.008474 0.000553 -0.000975 0.000043 0.003091 -0.000007
# 2 0.000553 0.022769 -0.002880 0.000173 0.007428 -0.000006
# 3 -0.000975 -0.002880 0.008976 -0.000112 0.002261 0.000066
# 4 0.000043 0.000173 -0.000112 0.076678 0.000163 -0.002220
# 5 0.003091 0.007428 0.002261 0.000163 0.032298 0.000005
# 6 -0.000007 -0.000006 0.000066 -0.002220 0.000005 0.063422
#
#
# Mechanical properties :
#
#
# Convention : Reuss Voigt Hill
#
# Bulk Modulus (GPa) = 29.74919 42.69468 36.22194
# Shear Modulus (GPa) = 21.69888 30.19547 25.94717
#
# Velocity S-wave (km/s) = 3.16638 3.73522 3.46250
# Velocity P-wave (km/s) = 5.20707 6.19109 5.72028
#
# Compressibility (1/GPa) = 0.03361436
#
# Stress axis : x y z
#
# Youngs Moduli (GPa) = 118.00616 43.91952 111.40656
#
# Poissons Ratio (x) = -0.02429 0.10863
# Poissons Ratio (y) = -0.06527 0.32090
# Poissons Ratio (z) = 0.11506 0.12651
#
# Static dielectric constant tensor:
#      x y z
#    x 1.816450 -0.000140 -0.150380 
#    y -0.000140 1.853100 0.000290 
#    z -0.150380 0.000290 1.843470 
# 
# From -- ./inp_files/270522.got.cif
#   From: 2010.05.17/outbox.cif.g08.bks.cpg/sg15_136_cif.got.tgz:270522.got - 2010.06.03 18:47:42.
