data_PCOD9258030
_publ_section_title
;
Structure prediction by ZEFSAII (Michael W. Deem and Ramdas Pophale) SiO2 
 PCOD9258030
Probable space group: C 2/C
;
_chemical_formula_sum "Si O2"
_cell_formula_units_Z 60
_cell_length_a 7.359064
_cell_length_b 24.372925
_cell_length_c 19.028153
_cell_angle_alpha 90.000000
_cell_angle_beta 122.644692
_cell_angle_gamma 90.000000
_cell_volume 2873.792488
_symmetry_space_group_name_H-M "C 2/C"
_symmetry_group_IT_number 15
_symmetry_cell_setting 'monoclinic'
loop_
_space_group_symop_operation_xyz
x,y,z
-x,y,1/2-z
-x,-y,-z
x,-y,1/2+z
1/2+x,1/2+y,z
1/2-x,1/2+y,1/2-z
1/2-x,1/2-y,-z
1/2+x,1/2-y,1/2+z
loop_
_atom_site_type_symbol
_atom_site_label
_atom_site_fract_x
_atom_site_fract_y
_atom_site_fract_z
Si Si1 0.711437 0.574090 0.087211
Si Si2 0.662224 0.718479 0.187879
Si Si3 0.309117 0.956089 0.457266
Si Si4 0.327611 0.761052 0.861965
Si Si5 0.535664 0.686940 0.486105
Si Si6 0.000000 0.378063 0.750000
Si Si7 0.098264 0.641088 0.036371
Si Si8 0.420887 0.454356 0.656057
O O1 0.714879 0.540620 0.016396
O O2 0.587656 0.629571 0.039669
O O3 0.946399 0.587685 0.169005
O O4 0.594477 0.548621 0.129814
O O5 0.418384 0.722523 0.166773
O O6 0.809751 0.750824 0.275150
O O7 0.612480 0.726480 0.094752
O O8 0.788167 0.660069 0.216901
O O9 0.398735 0.894603 0.466183
O O10 0.500000 0.000000 0.500000
O O11 0.164160 0.983245 0.367441
O O12 0.458027 0.814921 0.914777
O O13 0.413180 0.712482 0.928280
O O14 0.763003 0.673681 0.493588
O O15 0.254537 0.594018 0.100269
O O16 0.500000 0.442485 0.750000
#
# Coordination Sequence:
#
# PCOD9258030 Si02
#       8
#     8   8   8   8   8   4   8   8
#     4  10  21  36  59  84 122 146 185 241 294 344
#     4   9  18  30  50  79 114 139 187 235 266 328
#     4  10  21  37  56  84 113 148 186 234 296 349
#     4  10  18  32  58  82 112 152 190 225 282 340
#     4   9  19  35  55  86 113 151 194 228 283 343
#     4  10  20  32  52  92 112 134 184 244 296 324
#     4   9  18  31  55  82 110 142 185 233 283 332
#     4  10  22  35  59  83 111 147 193 237 297 339
#
# _framework density 20.878336000000001
#
# number of rings (size 3 to 8) (size 9 to 14) (size 15 to 20)
#    0.000    2.400    0.000    3.600   11.200    0.000 
#    0.000    7.333    8.800    0.000    0.000    0.000 
#    0.000    0.000    0.000    0.000    0.000    0.000 
#
# Total GULP energy -167069.496699 kJ/mol
# GULP energy per Si atom -5568.983223 kJ/mol
# Density = 2.083082 g / cm^3
# Si number density = 20.878336 Si / 1000 Ang^3
#
#
#
# Elastic Constant Matrix: (Units=GPa)
#
#
# Indices 1 2 3 4 5 6 
#
# 1 45.4854 12.3557 8.6862 0.0000 -8.4293 0.0000
# 2 12.3557 59.0549 48.4223 0.0000 4.7891 0.0000
# 3 8.6862 48.4223 115.3092 0.0000 -8.6478 0.0000
# 4 0.0000 0.0000 0.0000 31.0766 0.0000 -7.0073
# 5 -8.4293 4.7891 -8.6478 0.0000 27.2910 0.0000
# 6 0.0000 0.0000 0.0000 -7.0073 0.0000 19.4732
#
#
#
# Elastic Compliance Matrix: (Units=1/GPa)
#
#
# Indices 1 2 3 4 5 6 
#
# 1 0.025574 -0.007919 0.002147 0.000000 0.009969 0.000000
# 2 -0.007919 0.030184 -0.012968 0.000000 -0.011852 0.000000
# 3 0.002147 -0.012968 0.014522 0.000000 0.007540 0.000000
# 4 0.000000 0.000000 0.000000 0.035020 0.000000 0.012602
# 5 0.009969 -0.011852 0.007540 0.000000 0.044190 0.000000
# 6 0.000000 0.000000 0.000000 0.012602 0.000000 0.055887
#
#
# Mechanical properties :
#
#
# Convention : Reuss Voigt Hill
#
# Bulk Modulus (GPa) = 30.48853 39.86422 35.17638
# Shear Modulus (GPa) = 19.70125 25.59386 22.64755
#
# Velocity S-wave (km/s) = 3.07517 3.50502 3.29711
# Velocity P-wave (km/s) = 5.21954 5.95947 5.60173
#
# Compressibility (1/GPa) = 0.03279922
#
# Stress axis : x y z
#
# Youngs Moduli (GPa) = 39.10263 33.12972 68.86240
#
# Poissons Ratio (x) = 0.26236 -0.14783
# Poissons Ratio (y) = 0.30967 0.89299
# Poissons Ratio (z) = -0.08394 0.42962
#
# Static dielectric constant tensor:
#      x y z
#    x 1.893490 0.000000 0.022100 
#    y 0.000000 1.753120 0.000000 
#    z 0.022100 0.000000 1.781340 
# 
# From -- ./inp_files/193279.got.cif
#   From: 2010.05.17/outbox.cif.g08.bks.cpg/sg15_97_cif.got.tgz:193279.got - 2010.06.03 18:47:42.
