data_PCOD9258362
_publ_section_title
;
Structure prediction by ZEFSAII (Michael W. Deem and Ramdas Pophale) SiO2 
 PCOD9258362
Probable space group: C 2/C
;
_chemical_formula_sum "Si O2"
_cell_formula_units_Z 48
_cell_length_a 16.482434
_cell_length_b 7.701836
_cell_length_c 18.744074
_cell_angle_alpha 90.000000
_cell_angle_beta 51.518436
_cell_angle_gamma 90.000000
_cell_volume 1862.666448
_symmetry_space_group_name_H-M "C 2/C"
_symmetry_group_IT_number 15
_symmetry_cell_setting 'monoclinic'
loop_
_space_group_symop_operation_xyz
x,y,z
-x,y,1/2-z
-x,-y,-z
x,-y,1/2+z
1/2+x,1/2+y,z
1/2-x,1/2+y,1/2-z
1/2-x,1/2-y,-z
1/2+x,1/2-y,1/2+z
loop_
_atom_site_type_symbol
_atom_site_label
_atom_site_fract_x
_atom_site_fract_y
_atom_site_fract_z
Si Si1 0.349600 0.929864 0.630123
Si Si2 0.467310 0.814257 0.695109
Si Si3 0.732783 0.149298 0.113205
Si Si4 0.783742 0.519948 0.018340
Si Si5 0.352120 0.668073 0.171296
Si Si6 0.548077 0.434641 0.649041
O O1 0.351769 0.896208 0.543958
O O2 0.350151 0.132283 0.650138
O O3 0.446941 0.866751 0.624795
O O4 0.236051 0.865556 0.720316
O O5 0.500000 0.917853 0.750000
O O6 0.350019 0.779375 0.784464
O O7 0.538108 0.644720 0.655096
O O8 0.773996 0.321352 0.052475
O O9 0.818807 0.064802 0.117726
O O10 0.687863 0.016845 0.079169
O O11 0.669169 0.604408 0.077502
O O12 0.466245 0.624005 0.135310
O O13 0.500000 0.372727 0.750000
#
# Coordination Sequence:
#
# PCOD9258362 Si02
#       6
#     8   8   8   8   8   8
#     4  10  20  34  56  80 106 139 182 215 266 311
#     4  10  19  36  57  81 104 142 181 219 258 319
#     4   9  18  32  54  77 107 139 181 212 266 312
#     4  10  18  33  55  78 104 143 178 217 259 321
#     4  10  19  33  55  81 105 140 178 221 260 315
#     4  11  18  33  57  82 103 137 185 215 260 313
#
# _framework density 25.769508999999999
#
# number of rings (size 3 to 8) (size 9 to 14) (size 15 to 20)
#    0.000    2.000    5.000    2.000    0.000    1.333 
#    0.000    0.833    0.000    9.000    0.000    0.000 
#    0.000    0.000    0.000    0.000    0.000    0.000 
#
# Total GULP energy -133852.068197 kJ/mol
# GULP energy per Si atom -5577.169508 kJ/mol
# Density = 2.571086 g / cm^3
# Si number density = 25.769509 Si / 1000 Ang^3
#
#
#
# Elastic Constant Matrix: (Units=GPa)
#
#
# Indices 1 2 3 4 5 6 
#
# 1 193.2840 16.1288 30.3365 0.0000 42.4426 0.0002
# 2 16.1288 44.1290 2.3043 0.0000 1.7355 0.0003
# 3 30.3365 2.3043 46.4622 0.0000 -7.5274 0.0001
# 4 0.0000 0.0000 0.0000 10.1135 0.0000 3.9358
# 5 42.4426 1.7355 -7.5274 0.0000 45.2899 0.0000
# 6 0.0002 0.0003 0.0001 3.9358 0.0000 35.3294
#
#
#
# Elastic Compliance Matrix: (Units=1/GPa)
#
#
# Indices 1 2 3 4 5 6 
#
# 1 0.008396 -0.002363 -0.006808 0.000000 -0.008909 0.000000
# 2 -0.002363 0.023437 0.000610 0.000000 0.001417 0.000000
# 3 -0.006808 0.000610 0.027714 0.000000 0.010963 0.000000
# 4 0.000000 0.000000 0.000000 0.103359 0.000000 -0.011515
# 5 -0.008909 0.001417 0.010963 0.000000 0.032196 0.000000
# 6 0.000000 0.000000 0.000000 -0.011515 0.000000 0.029588
#
#
# Mechanical properties :
#
#
# Convention : Reuss Voigt Hill
#
# Bulk Modulus (GPa) = 23.57102 42.37938 32.97520
# Shear Modulus (GPa) = 19.53485 33.82026 26.67756
#
# Velocity S-wave (km/s) = 2.75628 3.62666 3.22100
# Velocity P-wave (km/s) = 4.39274 5.83250 5.16305
#
# Compressibility (1/GPa) = 0.04242497
#
# Stress axis : x y z
#
# Youngs Moduli (GPa) = 119.10887 42.66794 36.08307
#
# Poissons Ratio (x) = 0.10081 0.24565
# Poissons Ratio (y) = 0.28142 -0.02201
# Poissons Ratio (z) = 0.81089 -0.02603
#
# Static dielectric constant tensor:
#      x y z
#    x 2.278790 0.000000 0.030410 
#    y 0.000000 2.081000 0.000000 
#    z 0.030410 0.000000 2.056980 
# 
# From -- ./inp_files/246835.got.cif
#   From: 2010.05.17/outbox.cif.g08.bks.cpg/sg15_124_cif.got.tgz:246835.got - 2010.06.03 18:47:42.
