data_PCOD9258758
_publ_section_title
;
Structure prediction by ZEFSAII (Michael W. Deem and Ramdas Pophale) SiO2 
 PCOD9258758
Probable space group: C 2/C
;
_chemical_formula_sum "Si O2"
_cell_formula_units_Z 60
_cell_length_a 22.275331
_cell_length_b 8.224297
_cell_length_c 28.084723
_cell_angle_alpha 90.000000
_cell_angle_beta 144.842231
_cell_angle_gamma 90.000000
_cell_volume 2962.697309
_symmetry_space_group_name_H-M "C 2/C"
_symmetry_group_IT_number 15
_symmetry_cell_setting 'monoclinic'
loop_
_space_group_symop_operation_xyz
x,y,z
-x,y,1/2-z
-x,-y,-z
x,-y,1/2+z
1/2+x,1/2+y,z
1/2-x,1/2+y,1/2-z
1/2-x,1/2-y,-z
1/2+x,1/2-y,1/2+z
loop_
_atom_site_type_symbol
_atom_site_label
_atom_site_fract_x
_atom_site_fract_y
_atom_site_fract_z
Si Si1 0.445265 0.461217 0.793633
Si Si2 0.933029 0.880876 0.989168
Si Si3 0.943962 0.399356 0.265613
Si Si4 0.380921 0.104019 0.093620
Si Si5 0.500000 0.309237 0.250000
Si Si6 0.345812 0.551817 0.528487
Si Si7 0.759004 0.575316 0.190463
Si Si8 0.867567 0.176671 0.830804
O O1 0.411593 0.280418 0.760213
O O2 0.429902 0.579089 0.738734
O O3 0.570489 0.465654 0.883507
O O4 0.397927 0.543458 0.809902
O O5 0.835161 0.821424 0.894556
O O6 0.877955 0.982598 0.995595
O O7 0.023696 0.774232 0.072810
O O8 0.000000 0.000000 0.000000
O O9 0.845347 0.518481 0.208058
O O10 0.000000 0.389042 0.250000
O O11 0.030165 0.472378 0.357970
O O12 0.427986 0.201031 0.169443
O O13 0.360205 0.251321 0.043769
O O14 0.272429 0.018884 0.035021
O O15 0.814078 0.678075 0.267621
O O16 0.707101 0.415433 0.180510
#
# Coordination Sequence:
#
# PCOD9258758 Si02
#       8
#     8   8   8   8   4   8   8   8
#     4  10  21  36  55  84 124 151 193 251 298 346
#     4   9  19  35  58  85 114 152 195 239 292 353
#     4  12  22  34  56  91 117 156 201 242 292 370
#     4  10  20  33  57  82 112 151 198 241 296 357
#     4  10  18  34  54  82 114 150 190 246 292 344
#     4   9  19  36  55  81 115 153 195 244 301 355
#     4  11  22  40  66  87 119 161 200 245 305 355
#     4  10  22  41  63  89 116 159 202 251 295 363
#
# _framework density 20.251816000000002
#
# number of rings (size 3 to 8) (size 9 to 14) (size 15 to 20)
#    0.000    1.867    1.333    4.000    1.867    0.533 
#    0.000    0.667    0.000    3.200    0.000    0.000 
#    0.000    0.000    0.000    0.000    0.000    0.000 
#
# Total GULP energy -167239.282173 kJ/mol
# GULP energy per Si atom -5574.642739 kJ/mol
# Density = 2.020572 g / cm^3
# Si number density = 20.251816 Si / 1000 Ang^3
#
#
#
# Elastic Constant Matrix: (Units=GPa)
#
#
# Indices 1 2 3 4 5 6 
#
# 1 94.5740 1.8843 11.3492 0.0000 12.1701 0.0000
# 2 1.8843 46.5763 8.7280 0.0000 6.3984 0.0000
# 3 11.3492 8.7280 99.8770 0.0000 18.9064 0.0000
# 4 0.0000 0.0000 0.0000 17.8588 0.0000 3.6440
# 5 12.1701 6.3984 18.9064 0.0000 30.9754 0.0000
# 6 0.0000 0.0000 0.0000 3.6440 0.0000 21.5321
#
#
#
# Elastic Compliance Matrix: (Units=1/GPa)
#
#
# Indices 1 2 3 4 5 6 
#
# 1 0.011160 0.000209 -0.000507 0.000000 -0.004119 0.000000
# 2 0.000209 0.022230 -0.001223 0.000000 -0.003928 0.000000
# 3 -0.000507 -0.001223 0.011410 0.000000 -0.006512 0.000000
# 4 0.000000 0.000000 0.000000 0.057998 0.000000 -0.009815
# 5 -0.004119 -0.003928 -0.006512 0.000000 0.038688 0.000000
# 6 0.000000 0.000000 0.000000 -0.009815 0.000000 0.048103
#
#
# Mechanical properties :
#
#
# Convention : Reuss Voigt Hill
#
# Bulk Modulus (GPa) = 23.94669 31.66115 27.80392
# Shear Modulus (GPa) = 24.20717 28.67763 26.44240
#
# Velocity S-wave (km/s) = 3.46107 3.76713 3.61734
# Velocity P-wave (km/s) = 5.27467 5.88127 5.58621
#
# Compressibility (1/GPa) = 0.04175943
#
# Stress axis : x y z
#
# Youngs Moduli (GPa) = 89.60250 44.98338 87.64611
#
# Poissons Ratio (x) = -0.00941 0.04442
# Poissons Ratio (y) = -0.01875 0.10719
# Poissons Ratio (z) = 0.04541 0.05501
#
# Static dielectric constant tensor:
#      x y z
#    x 1.735470 0.000000 -0.008410 
#    y 0.000000 1.727340 0.000000 
#    z -0.008410 0.000000 1.760630 
# 
# From -- ./inp_files/318512.got.cif
#   From: 2010.05.17/outbox.cif.g08.bks.cpg/sg15_160_cif.got.tgz:318512.got - 2010.06.03 18:47:42.
