data_PCOD9258348
_publ_section_title
;
Structure prediction by ZEFSAII (Michael W. Deem and Ramdas Pophale) SiO2 
 PCOD9258348
Probable space group: C 2/C
;
_chemical_formula_sum "Si O2"
_cell_formula_units_Z 56
_cell_length_a 17.334234
_cell_length_b 13.948285
_cell_length_c 15.582174
_cell_angle_alpha 90.000000
_cell_angle_beta 131.635460
_cell_angle_gamma 90.000000
_cell_volume 2815.782362
_symmetry_space_group_name_H-M "C 2/C"
_symmetry_group_IT_number 15
_symmetry_cell_setting 'monoclinic'
loop_
_space_group_symop_operation_xyz
x,y,z
-x,y,1/2-z
-x,-y,-z
x,-y,1/2+z
1/2+x,1/2+y,z
1/2-x,1/2+y,1/2-z
1/2-x,1/2-y,-z
1/2+x,1/2-y,1/2+z
loop_
_atom_site_type_symbol
_atom_site_label
_atom_site_fract_x
_atom_site_fract_y
_atom_site_fract_z
Si Si1 0.812199 0.656291 0.808497
Si Si2 0.905865 0.764897 0.410569
Si Si3 0.612576 0.053349 0.156689
Si Si4 0.611270 0.739721 0.962660
Si Si5 0.428536 0.033603 0.614430
Si Si6 0.994914 0.742326 0.650891
Si Si7 0.297340 0.109607 0.092572
O O1 0.699169 0.684860 0.693784
O O2 0.672076 0.042276 0.672800
O O3 0.838261 0.705081 0.918508
O O4 0.895766 0.699051 0.802151
O O5 0.890276 0.648832 0.402239
O O6 0.994479 0.778660 0.404274
O O7 0.948587 0.797889 0.535017
O O8 0.495871 0.016993 0.090432
O O9 0.667902 0.088251 0.285214
O O10 0.681067 0.646243 0.001777
O O11 0.630009 0.807557 0.894770
O O12 0.500000 0.011837 0.750000
O O13 0.321086 0.983164 0.552749
O O14 0.424770 0.147254 0.609589
O O15 0.000000 0.786810 0.750000
#
# Coordination Sequence:
#
# PCOD9258348 Si02
#       7
#     8   8   8   8   8   8   8
#     4  10  22  37  54  89 116 145 200 235 284 349
#     4  11  21  36  59  83 120 156 184 238 298 332
#     4  10  19  33  55  81 116 152 185 230 284 340
#     4  10  21  33  57  88 119 147 183 239 293 350
#     4   8  15  28  52  82 108 137 180 230 279 329
#     4   9  20  36  56  83 110 146 201 244 275 333
#     4  10  18  33  54  84 119 148 178 234 288 345
#
# _framework density 19.887899000000001
#
# number of rings (size 3 to 8) (size 9 to 14) (size 15 to 20)
#    0.000    2.286    2.857    0.857    2.000    2.286 
#    0.000    0.714    0.000    0.000    0.000    0.000 
#    0.000    0.000    0.000    0.000    0.000    0.000 
#
# Total GULP energy -156240.018686 kJ/mol
# GULP energy per Si atom -5580.000667 kJ/mol
# Density = 1.984263 g / cm^3
# Si number density = 19.887899 Si / 1000 Ang^3
#
#
#
# Elastic Constant Matrix: (Units=GPa)
#
#
# Indices 1 2 3 4 5 6 
#
# 1 82.0566 29.7913 41.4745 0.0000 10.7297 0.0000
# 2 29.7913 36.6790 12.8104 0.0000 11.9942 0.0000
# 3 41.4745 12.8104 68.6162 0.0000 2.5346 0.0000
# 4 0.0000 0.0000 0.0000 17.9823 0.0000 5.4864
# 5 10.7297 11.9942 2.5346 0.0000 32.4658 0.0000
# 6 0.0000 0.0000 0.0000 5.4864 0.0000 28.5089
#
#
#
# Elastic Compliance Matrix: (Units=1/GPa)
#
#
# Indices 1 2 3 4 5 6 
#
# 1 0.023421 -0.014566 -0.011383 0.000000 -0.001470 0.000000
# 2 -0.014566 0.042186 0.001330 0.000000 -0.010875 0.000000
# 3 -0.011383 0.001330 0.021146 0.000000 0.001620 0.000000
# 4 0.000000 0.000000 0.000000 0.059079 0.000000 -0.011369
# 5 -0.001470 -0.010875 0.001620 0.000000 0.035179 0.000000
# 6 0.000000 0.000000 0.000000 -0.011369 0.000000 0.037265
#
#
# Mechanical properties :
#
#
# Convention : Reuss Voigt Hill
#
# Bulk Modulus (GPa) = 26.65592 39.50046 33.07819
# Shear Modulus (GPa) = 17.85603 22.67645 20.26624
#
# Velocity S-wave (km/s) = 2.99964 3.38037 3.19568
# Velocity P-wave (km/s) = 5.04275 5.92794 5.50317
#
# Compressibility (1/GPa) = 0.03751512
#
# Stress axis : x y z
#
# Youngs Moduli (GPa) = 42.69756 23.70443 47.29077
#
# Poissons Ratio (x) = 0.34529 0.53829
# Poissons Ratio (y) = 0.62195 -0.06291
# Poissons Ratio (z) = 0.48601 -0.03153
#
# Static dielectric constant tensor:
#      x y z
#    x 1.749750 0.000000 -0.056780 
#    y 0.000000 1.702640 0.000000 
#    z -0.056780 0.000000 1.737850 
# 
# From -- ./inp_files/211495.got.cif
#   From: 2010.05.17/outbox.cif.g08.bks.cpg/sg15_106_cif.got.tgz:211495.got - 2010.06.03 18:47:42.
