data_PCOD9258847
_publ_section_title
;
Structure prediction by ZEFSAII (Michael W. Deem and Ramdas Pophale) SiO2 
 PCOD9258847
Probable space group: C 2/C
;
_chemical_formula_sum "Si O2"
_cell_formula_units_Z 60
_cell_length_a 10.741329
_cell_length_b 11.889833
_cell_length_c 24.657931
_cell_angle_alpha 90.000000
_cell_angle_beta 134.200604
_cell_angle_gamma 90.000000
_cell_volume 2257.620609
_symmetry_space_group_name_H-M "C 2/C"
_symmetry_group_IT_number 15
_symmetry_cell_setting 'monoclinic'
loop_
_space_group_symop_operation_xyz
x,y,z
-x,y,1/2-z
-x,-y,-z
x,-y,1/2+z
1/2+x,1/2+y,z
1/2-x,1/2+y,1/2-z
1/2-x,1/2-y,-z
1/2+x,1/2-y,1/2+z
loop_
_atom_site_type_symbol
_atom_site_label
_atom_site_fract_x
_atom_site_fract_y
_atom_site_fract_z
Si Si1 0.500000 0.603898 0.250000
Si Si2 0.495659 0.168051 0.016849
Si Si3 0.374892 0.413791 0.607625
Si Si4 0.219487 0.199720 0.665399
Si Si5 0.140746 0.561414 0.420422
Si Si6 0.067468 0.695353 0.923741
Si Si7 0.890086 0.293284 0.765712
Si Si8 0.667671 0.459434 0.623619
O O1 0.534799 0.531723 0.313434
O O2 0.661442 0.689355 0.296963
O O3 0.667864 0.090218 0.055537
O O4 0.574882 0.269372 0.076296
O O5 0.364125 0.113677 0.020257
O O6 0.443545 0.199011 0.939288
O O7 0.449096 0.283736 0.629822
O O8 0.466374 0.463484 0.581923
O O9 0.171425 0.194588 0.713898
O O10 0.271674 0.075710 0.663969
O O11 0.086931 0.431427 0.411027
O O12 0.306228 0.570513 0.431269
O O13 0.998710 0.628245 0.340814
O O14 0.250000 0.750000 0.000000
O O15 0.758076 0.373159 0.692771
O O16 0.000000 0.245048 0.750000
#
# Coordination Sequence:
#
# PCOD9258847 Si02
#       8
#     4   8   8   8   8   8   8   8
#     4  10  18  34  56  80 108 150 188 232 272 340
#     4   9  20  40  59  82 117 152 191 235 283 345
#     4  10  21  36  57  86 116 145 194 240 281 335
#     4  10  20  35  56  80 112 150 187 232 284 331
#     4  10  20  36  60  84 112 155 189 233 291 342
#     4  10  20  38  61  87 112 152 199 239 276 334
#     4   9  20  35  52  81 118 149 183 231 293 350
#     4  11  21  35  57  87 114 149 193 237 288 338
#
# _framework density 26.576654000000001
#
# number of rings (size 3 to 8) (size 9 to 14) (size 15 to 20)
#    0.000    2.133    1.333    2.800    4.667    0.000 
#    1.200   10.667    0.000    0.000    0.000    0.000 
#    0.000    0.000    0.000    0.000    0.000    0.000 
#
# Total GULP energy -167374.225748 kJ/mol
# GULP energy per Si atom -5579.140858 kJ/mol
# Density = 2.651616 g / cm^3
# Si number density = 26.576654 Si / 1000 Ang^3
#
#
#
# Elastic Constant Matrix: (Units=GPa)
#
#
# Indices 1 2 3 4 5 6 
#
# 1 179.8794 12.8549 37.3614 0.0000 -50.0740 0.0000
# 2 12.8549 45.5471 5.1087 0.0000 -4.6743 0.0000
# 3 37.3614 5.1087 90.5591 0.0000 -38.8432 0.0000
# 4 0.0000 0.0000 0.0000 19.6399 0.0000 -5.0235
# 5 -50.0740 -4.6743 -38.8432 0.0000 49.8530 0.0000
# 6 0.0000 0.0000 0.0000 -5.0235 0.0000 30.5384
#
#
#
# Elastic Compliance Matrix: (Units=1/GPa)
#
#
# Indices 1 2 3 4 5 6 
#
# 1 0.007810 -0.001421 0.000249 0.000000 0.007905 0.000000
# 2 -0.001421 0.022445 -0.000585 0.000000 0.000222 0.000000
# 3 0.000249 -0.000585 0.016606 0.000000 0.013134 0.000000
# 4 0.000000 0.000000 0.000000 0.053153 0.000000 0.008744
# 5 0.007905 0.000222 0.013134 0.000000 0.038253 0.000000
# 6 0.000000 0.000000 0.000000 0.008744 0.000000 0.034184
#
#
# Mechanical properties :
#
#
# Convention : Reuss Voigt Hill
#
# Bulk Modulus (GPa) = 23.06976 47.40398 35.23687
# Shear Modulus (GPa) = 26.25856 37.38362 31.82109
#
# Velocity S-wave (km/s) = 3.14671 3.75458 3.46400
# Velocity P-wave (km/s) = 4.67992 6.05568 5.41170
#
# Compressibility (1/GPa) = 0.04334680
#
# Stress axis : x y z
#
# Youngs Moduli (GPa) = 128.04620 44.55403 60.21773
#
# Poissons Ratio (x) = 0.06330 -0.01498
# Poissons Ratio (y) = 0.18193 0.03523
# Poissons Ratio (z) = -0.03186 0.02606
#
# Static dielectric constant tensor:
#      x y z
#    x 2.261430 0.000000 0.027860 
#    y 0.000000 2.072690 0.000000 
#    z 0.027860 0.000000 2.168230 
# 
# From -- ./inp_files/292277.got.cif
#   From: 2010.05.17/outbox.cif.g08.bks.cpg/sg15_147_cif.got.tgz:292277.got - 2010.06.03 18:47:42.
