data_PCOD9258690
_publ_section_title
;
Structure prediction by ZEFSAII (Michael W. Deem and Ramdas Pophale) SiO2 
 PCOD9258690
Probable space group: C 2/C
;
_chemical_formula_sum "Si O2"
_cell_formula_units_Z 60
_cell_length_a 16.351636
_cell_length_b 17.688696
_cell_length_c 15.660619
_cell_angle_alpha 90.000000
_cell_angle_beta 144.736842
_cell_angle_gamma 90.000000
_cell_volume 2615.123011
_symmetry_space_group_name_H-M "C 2/C"
_symmetry_group_IT_number 15
_symmetry_cell_setting 'monoclinic'
loop_
_space_group_symop_operation_xyz
x,y,z
-x,y,1/2-z
-x,-y,-z
x,-y,1/2+z
1/2+x,1/2+y,z
1/2-x,1/2+y,1/2-z
1/2-x,1/2-y,-z
1/2+x,1/2-y,1/2+z
loop_
_atom_site_type_symbol
_atom_site_label
_atom_site_fract_x
_atom_site_fract_y
_atom_site_fract_z
Si Si1 0.782972 0.430985 0.521425
Si Si2 0.579671 0.915646 0.392940
Si Si3 0.532743 0.432542 0.960701
Si Si4 0.500000 0.493409 0.250000
Si Si5 0.817886 0.433895 0.290027
Si Si6 0.733277 0.104917 0.189694
Si Si7 0.878989 0.199240 0.573386
Si Si8 0.035708 0.664897 0.448664
O O1 0.847629 0.512688 0.591235
O O2 0.642151 0.447911 0.344273
O O3 0.699649 0.378997 0.518707
O O4 0.907990 0.382048 0.585688
O O5 0.500000 0.870218 0.250000
O O6 0.457568 0.945298 0.352335
O O7 0.690947 0.880461 0.554489
O O8 0.539431 0.461543 0.868858
O O9 0.396748 0.378470 0.846913
O O10 0.500000 0.500000 0.000000
O O11 0.685869 0.406665 0.121698
O O12 0.788553 0.514502 0.310582
O O13 0.859608 0.368558 0.391194
O O14 0.621130 0.145847 0.154608
O O15 0.750000 0.250000 0.500000
O O16 0.945986 0.247467 0.555352
O O17 0.000000 0.192404 0.750000
#
# Coordination Sequence:
#
# PCOD9258690 Si02
#       8
#     8   8   8   4   8   8   8   8
#     4  11  19  34  54  77 116 159 204 246 300 361
#     4  11  19  30  53  83 113 154 202 246 307 372
#     4  10  21  34  53  85 116 157 205 250 320 380
#     4  12  20  34  56  84 122 164 196 254 308 378
#     4  10  18  34  51  80 103 149 207 252 305 369
#     4  10  18  36  52  77 108 148 208 254 303 376
#     4  10  23  40  53  78 113 160 218 256 295 359
#     4  10  19  37  55  70 108 155 212 259 296 356
#
# _framework density 22.943470000000001
#
# number of rings (size 3 to 8) (size 9 to 14) (size 15 to 20)
#    0.000    1.600    4.667    2.400    0.000    2.133 
#    9.600    0.000    0.000    0.000    0.000    0.000 
#    0.000    0.000    9.067   79.733    1.333    3.467 
#
# Total GULP energy -167369.659186 kJ/mol
# GULP energy per Si atom -5578.988640 kJ/mol
# Density = 2.289125 g / cm^3
# Si number density = 22.943470 Si / 1000 Ang^3
#
#
#
# Elastic Constant Matrix: (Units=GPa)
#
#
# Indices 1 2 3 4 5 6 
#
# 1 94.1177 39.7463 45.0013 0.0001 4.7321 0.0000
# 2 39.7463 43.0599 23.4006 0.0001 2.3617 0.0001
# 3 45.0013 23.4006 164.6234 0.0001 9.2839 0.0001
# 4 0.0001 0.0001 0.0001 6.5924 0.0001 1.4257
# 5 4.7321 2.3617 9.2839 0.0001 45.9975 0.0000
# 6 0.0000 0.0001 0.0001 1.4257 0.0000 29.6302
#
#
#
# Elastic Compliance Matrix: (Units=1/GPa)
#
#
# Indices 1 2 3 4 5 6 
#
# 1 0.018592 -0.015591 -0.002836 0.000000 -0.000540 0.000000
# 2 -0.015591 0.038256 -0.001169 0.000000 -0.000124 0.000000
# 3 -0.002836 -0.001169 0.007077 0.000000 -0.001077 0.000000
# 4 0.000000 0.000000 0.000000 0.153286 0.000000 -0.007375
# 5 -0.000540 -0.000124 -0.001077 0.000000 0.022020 0.000000
# 6 0.000000 0.000000 0.000000 -0.007375 0.000000 0.034104
#
#
# Mechanical properties :
#
#
# Convention : Reuss Voigt Hill
#
# Bulk Modulus (GPa) = 40.43006 57.56638 48.99822
# Shear Modulus (GPa) = 15.58749 29.35420 22.47084
#
# Velocity S-wave (km/s) = 2.60933 3.58077 3.13293
# Velocity P-wave (km/s) = 5.17088 6.49930 5.87277
#
# Compressibility (1/GPa) = 0.02473407
#
# Stress axis : x y z
#
# Youngs Moduli (GPa) = 53.78670 26.13936 141.31209
#
# Poissons Ratio (x) = 0.40753 0.40072
# Poissons Ratio (y) = 0.83857 0.16522
# Poissons Ratio (z) = 0.15252 0.03056
#
# Static dielectric constant tensor:
#      x y z
#    x 1.907650 0.000000 -0.032070 
#    y 0.000000 1.880530 0.000000 
#    z -0.032070 0.000000 1.941850 
# 
# From -- ./inp_files/156384.got.cif
#   From: 2010.05.17/outbox.cif.g08.bks.cpg/sg15_79_cif.got.tgz:156384.got - 2010.06.03 18:47:42.
