data_PCOD9258598
_publ_section_title
;
Structure prediction by ZEFSAII (Michael W. Deem and Ramdas Pophale) SiO2 
 PCOD9258598
Probable space group: C 2/C
;
_chemical_formula_sum "Si O2"
_cell_formula_units_Z 56
_cell_length_a 14.101013
_cell_length_b 15.415210
_cell_length_c 20.552636
_cell_angle_alpha 90.000000
_cell_angle_beta 145.245935
_cell_angle_gamma 90.000000
_cell_volume 2546.736955
_symmetry_space_group_name_H-M "C 2/C"
_symmetry_group_IT_number 15
_symmetry_cell_setting 'monoclinic'
loop_
_space_group_symop_operation_xyz
x,y,z
-x,y,1/2-z
-x,-y,-z
x,-y,1/2+z
1/2+x,1/2+y,z
1/2-x,1/2+y,1/2-z
1/2-x,1/2-y,-z
1/2+x,1/2-y,1/2+z
loop_
_atom_site_type_symbol
_atom_site_label
_atom_site_fract_x
_atom_site_fract_y
_atom_site_fract_z
Si Si1 0.394923 0.282127 0.995465
Si Si2 0.212606 0.333453 0.629244
Si Si3 0.134176 0.861946 0.383363
Si Si4 0.096172 0.191660 0.143349
Si Si5 0.728234 0.836136 0.402947
Si Si6 0.095410 0.489289 0.486506
Si Si7 0.895905 0.619296 0.791360
O O1 0.543121 0.213790 0.059913
O O2 0.432346 0.340868 0.080585
O O3 0.232911 0.225227 0.919644
O O4 0.361102 0.328419 0.907380
O O5 0.308141 0.361206 0.747695
O O6 0.311336 0.256416 0.650779
O O7 0.192270 0.402213 0.560963
O O8 0.000000 0.879520 0.250000
O O9 0.274530 0.937885 0.462033
O O10 0.132985 0.294925 0.179921
O O11 0.899777 0.173692 0.037019
O O12 0.737910 0.891234 0.341390
O O13 0.574509 0.864818 0.358154
O O14 0.939992 0.468488 0.352636
O O15 0.000000 0.500000 0.500000
#
# Coordination Sequence:
#
# PCOD9258598 Si02
#       7
#     8   8   8   8   8   8   8
#     4  10  20  41  65  88 118 167 220 254 310 379
#     4  10  20  36  64  93 120 164 214 256 311 377
#     4  11  24  40  63  94 125 163 212 270 313 377
#     4  10  18  33  60  93 117 154 220 263 295 370
#     4   9  19  34  58  91 114 165 210 264 299 362
#     4  12  23  40  60  90 128 167 199 260 331 377
#     4  10  19  35  58  87 125 161 205 258 313 383
#
# _framework density 21.988923
#
# number of rings (size 3 to 8) (size 9 to 14) (size 15 to 20)
#    0.000    1.714    4.286    1.286    0.000    3.429 
#    2.571    2.857    3.143    5.143    0.000    0.000 
#    0.000    0.000    0.000    0.000    0.000    0.000 
#
# Total GULP energy -155974.123569 kJ/mol
# GULP energy per Si atom -5570.504413 kJ/mol
# Density = 2.193887 g / cm^3
# Si number density = 21.988923 Si / 1000 Ang^3
#
#
#
# Elastic Constant Matrix: (Units=GPa)
#
#
# Indices 1 2 3 4 5 6 
#
# 1 72.9314 3.2561 -7.8151 0.0002 -18.6214 0.0001
# 2 3.2561 37.3493 8.1627 0.0003 -9.5980 0.0001
# 3 -7.8151 8.1627 105.9327 0.0008 -23.9922 0.0003
# 4 0.0002 0.0003 0.0008 26.2404 0.0003 0.9675
# 5 -18.6214 -9.5980 -23.9922 0.0003 35.8282 0.0001
# 6 0.0001 0.0001 0.0003 0.9675 0.0001 31.2045
#
#
#
# Elastic Compliance Matrix: (Units=1/GPa)
#
#
# Indices 1 2 3 4 5 6 
#
# 1 0.017058 0.000658 0.003838 0.000000 0.011612 0.000000
# 2 0.000658 0.028807 -0.000408 0.000000 0.007786 0.000000
# 3 0.003838 -0.000408 0.012002 0.000000 0.009922 0.000000
# 4 0.000000 0.000000 0.000000 0.038153 -0.000001 -0.001183
# 5 0.011612 0.007786 0.009922 -0.000001 0.042676 0.000000
# 6 0.000000 0.000000 0.000000 -0.001183 0.000000 0.032083
#
#
# Mechanical properties :
#
#
# Convention : Reuss Voigt Hill
#
# Bulk Modulus (GPa) = 15.14158 24.82451 19.98304
# Shear Modulus (GPa) = 27.08304 32.82863 29.95583
#
# Velocity S-wave (km/s) = 3.51332 3.86808 3.69496
# Velocity P-wave (km/s) = 4.83310 5.59137 5.22601
#
# Compressibility (1/GPa) = 0.06604332
#
# Stress axis : x y z
#
# Youngs Moduli (GPa) = 58.62266 34.71392 83.32121
#
# Poissons Ratio (x) = -0.02285 -0.31976
# Poissons Ratio (y) = -0.03859 0.03397
# Poissons Ratio (z) = -0.22498 0.01415
#
# Static dielectric constant tensor:
#      x y z
#    x 1.821340 0.000000 -0.173110 
#    y 0.000000 0.491960 0.000000 
#    z -0.173110 0.000000 1.743650 
# 
# From -- ./inp_files/244573.got.cif
#   From: 2010.05.17/outbox.cif.g08.bks.cpg/sg15_123_cif.got.tgz:244573.got - 2010.06.03 18:47:42.
