data_PCOD9258162
_publ_section_title
;
Structure prediction by ZEFSAII (Michael W. Deem and Ramdas Pophale) SiO2 
 PCOD9258162
Probable space group: C 2/C
;
_chemical_formula_sum "Si O2"
_cell_formula_units_Z 44
_cell_length_a 22.089947
_cell_length_b 11.236101
_cell_length_c 18.575185
_cell_angle_alpha 90.000000
_cell_angle_beta 33.377952
_cell_angle_gamma 90.000000
_cell_volume 2536.483412
_symmetry_space_group_name_H-M "C 2/C"
_symmetry_group_IT_number 15
_symmetry_cell_setting 'monoclinic'
loop_
_space_group_symop_operation_xyz
x,y,z
-x,y,1/2-z
-x,-y,-z
x,-y,1/2+z
1/2+x,1/2+y,z
1/2-x,1/2+y,1/2-z
1/2-x,1/2-y,-z
1/2+x,1/2-y,1/2+z
loop_
_atom_site_type_symbol
_atom_site_label
_atom_site_fract_x
_atom_site_fract_y
_atom_site_fract_z
Si Si1 0.598079 0.830938 0.097045
Si Si2 0.822694 0.922684 0.943402
Si Si3 0.359698 0.204452 0.472050
Si Si4 0.320793 0.893622 0.853211
Si Si5 0.500000 0.390887 0.250000
Si Si6 0.525463 0.016546 0.057762
O O1 0.500000 0.865754 0.250000
O O2 0.610272 0.688523 0.091634
O O3 0.563155 0.893447 0.057778
O O4 0.720022 0.876216 0.998183
O O5 0.901315 0.019433 0.826781
O O6 0.764762 0.997897 0.063658
O O7 0.354277 0.126861 0.403738
O O8 0.246055 0.273930 0.597281
O O9 0.451668 0.304330 0.360003
O O10 0.385287 0.117569 0.511901
O O11 0.420884 0.930016 0.704376
O O12 0.500000 0.000000 0.000000
#
# Coordination Sequence:
#
# PCOD9258162 Si02
#       6
#     8   8   8   8   4   8
#     4  11  20  37  58  84 115 148 196 236 286 342
#     4  10  20  33  62  87 109 140 186 255 291 328
#     4  10  19  35  63  86 110 144 199 248 285 335
#     4  10  19  37  61  84 107 145 199 251 281 333
#     4  10  18  32  62  96 106 130 190 260 298 326
#     4  12  23  38  55  84 125 159 189 230 295 363
#
# _framework density 17.346851000000001
#
# number of rings (size 3 to 8) (size 9 to 14) (size 15 to 20)
#    0.000    1.455    6.364    0.000    0.000    0.000 
#    3.273    0.000    0.000    2.182    0.000    0.000 
#    0.000    0.000    0.000    0.000    0.000    0.000 
#
# Total GULP energy -122532.089421 kJ/mol
# GULP energy per Si atom -5569.640428 kJ/mol
# Density = 1.730737 g / cm^3
# Si number density = 17.346851 Si / 1000 Ang^3
#
#
#
# Elastic Constant Matrix: (Units=GPa)
#
#
# Indices 1 2 3 4 5 6 
#
# 1 115.6973 60.5085 25.6907 0.0000 7.9195 0.0000
# 2 60.5085 121.7451 27.2929 0.0000 2.1490 0.0000
# 3 25.6907 27.2929 49.0601 0.0000 -11.5304 0.0000
# 4 0.0000 0.0000 0.0000 31.4132 0.0000 -11.6379
# 5 7.9195 2.1490 -11.5304 0.0000 16.3198 0.0000
# 6 0.0000 0.0000 0.0000 -11.6379 0.0000 25.2509
#
#
#
# Elastic Compliance Matrix: (Units=1/GPa)
#
#
# Indices 1 2 3 4 5 6 
#
# 1 0.013499 -0.004995 -0.006805 0.000000 -0.010701 0.000000
# 2 -0.004995 0.011732 -0.004442 0.000000 -0.002260 0.000000
# 3 -0.006805 -0.004442 0.032774 0.000000 0.027043 0.000000
# 4 0.000000 0.000000 0.000000 0.038389 0.000000 0.017693
# 5 -0.010701 -0.002260 0.027043 0.000000 0.085873 0.000000
# 6 0.000000 0.000000 0.000000 0.017693 0.000000 0.047757
#
#
# Mechanical properties :
#
#
# Convention : Reuss Voigt Hill
#
# Bulk Modulus (GPa) = 39.18419 57.05407 48.11913
# Shear Modulus (GPa) = 18.44918 26.13080 22.28999
#
# Velocity S-wave (km/s) = 3.26474 3.88541 3.58852
# Velocity P-wave (km/s) = 6.07034 7.28630 6.70594
#
# Compressibility (1/GPa) = 0.02552050
#
# Stress axis : x y z
#
# Youngs Moduli (GPa) = 74.07955 85.23667 30.51193
#
# Poissons Ratio (x) = 0.42572 0.20764
# Poissons Ratio (y) = 0.37000 0.13555
# Poissons Ratio (z) = 0.50414 0.37865
#
# Static dielectric constant tensor:
#      x y z
#    x 1.583470 0.000000 -0.069870 
#    y 0.000000 1.650050 0.000000 
#    z -0.069870 0.000000 1.627520 
# 
# From -- ./inp_files/110489.got.cif
#   From: 2010.05.17/outbox.cif.g08.bks.cpg/sg15_56_cif.got.tgz:110489.got - 2010.06.03 18:47:42.
