data_PCOD9258699
_publ_section_title
;
Structure prediction by ZEFSAII (Michael W. Deem and Ramdas Pophale) SiO2 
 PCOD9258699
Probable space group: C 2/C
;
_chemical_formula_sum "Si O2"
_cell_formula_units_Z 48
_cell_length_a 21.517652
_cell_length_b 20.994329
_cell_length_c 14.956049
_cell_angle_alpha 90.000000
_cell_angle_beta 23.620148
_cell_angle_gamma 90.000000
_cell_volume 2707.085258
_symmetry_space_group_name_H-M "C 2/C"
_symmetry_group_IT_number 15
_symmetry_cell_setting 'monoclinic'
loop_
_space_group_symop_operation_xyz
x,y,z
-x,y,1/2-z
-x,-y,-z
x,-y,1/2+z
1/2+x,1/2+y,z
1/2-x,1/2+y,1/2-z
1/2-x,1/2-y,-z
1/2+x,1/2-y,1/2+z
loop_
_atom_site_type_symbol
_atom_site_label
_atom_site_fract_x
_atom_site_fract_y
_atom_site_fract_z
Si Si1 0.180472 0.509936 0.533636
Si Si2 0.685874 0.370019 0.182298
Si Si3 0.110591 0.057183 0.383384
Si Si4 0.161813 0.470912 0.754595
Si Si5 0.694549 0.825929 0.665243
Si Si6 0.404936 0.772178 0.967801
O O1 0.230287 0.438812 0.436088
O O2 0.273437 0.562068 0.353498
O O3 0.211101 0.507939 0.599479
O O4 0.000000 0.517196 0.750000
O O5 0.506921 0.385683 0.438556
O O6 0.776824 0.328193 0.135254
O O7 0.713459 0.334379 0.050600
O O8 0.209170 0.032879 0.338349
O O9 0.000000 0.000000 0.500000
O O10 0.140104 0.396753 0.758840
O O11 0.000000 0.500000 0.000000
O O12 0.811105 0.793140 0.580917
O O13 0.540610 0.782702 0.859918
O O14 0.500000 0.781123 0.750000
#
# Coordination Sequence:
#
# PCOD9258699 Si02
#       6
#     8   8   8   8   8   8
#     4  10  18  34  52  77 109 148 187 233 279 330
#     4   9  18  31  50  74 112 143 182 223 277 334
#     4  10  22  33  54  79 109 149 195 235 278 338
#     4  11  22  36  57  80 115 153 196 228 290 344
#     4  10  22  32  55  77 117 149 185 227 280 347
#     4  10  19  33  50  78 111 150 181 222 278 349
#
# _framework density 17.731248000000001
#
# number of rings (size 3 to 8) (size 9 to 14) (size 15 to 20)
#    0.000    2.000    1.667    4.500    7.000    5.333 
#    0.000    0.000    0.000    0.000    0.000    1.167 
#    0.000    0.000    0.000    0.000    0.000    0.000 
#
# Total GULP energy -133747.159533 kJ/mol
# GULP energy per Si atom -5572.798314 kJ/mol
# Density = 1.769089 g / cm^3
# Si number density = 17.731248 Si / 1000 Ang^3
#
#
#
# Elastic Constant Matrix: (Units=GPa)
#
#
# Indices 1 2 3 4 5 6 
#
# 1 82.1162 25.7930 50.6195 0.0010 -14.8315 -0.0015
# 2 25.7930 60.9772 50.4396 -0.0002 -8.2129 0.0005
# 3 50.6195 50.4396 133.3215 -0.0014 -14.1049 0.0021
# 4 0.0010 -0.0002 -0.0014 38.6069 0.0031 -10.0848
# 5 -14.8315 -8.2129 -14.1049 0.0031 29.1979 0.0009
# 6 -0.0015 0.0005 0.0021 -10.0848 0.0009 22.6768
#
#
#
# Elastic Compliance Matrix: (Units=1/GPa)
#
#
# Indices 1 2 3 4 5 6 
#
# 1 0.016982 -0.002310 -0.004985 -0.000001 0.005568 0.000001
# 2 -0.002310 0.024355 -0.008153 0.000000 0.001739 0.000000
# 3 -0.004985 -0.008153 0.012612 0.000000 0.001267 -0.000001
# 4 -0.000001 0.000000 0.000000 0.029307 -0.000004 0.013033
# 5 0.005568 0.001739 0.001267 -0.000004 0.038179 -0.000003
# 6 0.000001 0.000000 -0.000001 0.013033 -0.000003 0.049894
#
#
# Mechanical properties :
#
#
# Convention : Reuss Voigt Hill
#
# Bulk Modulus (GPa) = 43.37803 58.90212 51.14007
# Shear Modulus (GPa) = 23.81987 28.06717 25.94352
#
# Velocity S-wave (km/s) = 3.66920 3.98291 3.82927
# Velocity P-wave (km/s) = 6.51674 7.37855 6.96099
#
# Compressibility (1/GPa) = 0.02305314
#
# Stress axis : x y z
#
# Youngs Moduli (GPa) = 58.88612 41.05901 79.28999
#
# Poissons Ratio (x) = 0.09485 0.39523
# Poissons Ratio (y) = 0.13603 0.64647
# Poissons Ratio (z) = 0.29352 0.33477
#
# Static dielectric constant tensor:
#      x y z
#    x 1.641320 0.000000 -0.009540 
#    y 0.000000 1.634890 0.000000 
#    z -0.009540 0.000000 1.612120 
# 
# From -- ./inp_files/57683.got.cif
#   From: 2010.05.17/outbox.cif.g08.bks.cpg/sg15_29_cif.got.tgz:57683.got - 2010.06.03 18:47:42.
