data_PCOD9258727
_publ_section_title
;
Structure prediction by ZEFSAII (Michael W. Deem and Ramdas Pophale) SiO2 
 PCOD9258727
Probable space group: C 2/C
;
_chemical_formula_sum "Si O2"
_cell_formula_units_Z 40
_cell_length_a 12.913163
_cell_length_b 13.422055
_cell_length_c 11.518842
_cell_angle_alpha 90.000000
_cell_angle_beta 74.449246
_cell_angle_gamma 90.000000
_cell_volume 1923.375644
_symmetry_space_group_name_H-M "C 2/C"
_symmetry_group_IT_number 15
_symmetry_cell_setting 'monoclinic'
loop_
_space_group_symop_operation_xyz
x,y,z
-x,y,1/2-z
-x,-y,-z
x,-y,1/2+z
1/2+x,1/2+y,z
1/2-x,1/2+y,1/2-z
1/2-x,1/2-y,-z
1/2+x,1/2-y,1/2+z
loop_
_atom_site_type_symbol
_atom_site_label
_atom_site_fract_x
_atom_site_fract_y
_atom_site_fract_z
Si Si1 0.500000 0.405340 0.750000
Si Si2 0.704112 0.416158 0.553584
Si Si3 0.897912 0.566073 0.489218
Si Si4 0.349325 0.746052 0.600500
Si Si5 0.465388 0.212145 0.638059
Si Si6 0.000000 0.686976 0.250000
O O1 0.595388 0.454807 0.648449
O O2 0.444531 0.326867 0.676482
O O3 0.793902 0.498556 0.511774
O O4 0.682492 0.362346 0.436654
O O5 0.752605 0.325102 0.617774
O O6 0.879246 0.649547 0.594282
O O7 0.933647 0.619036 0.360084
O O8 0.000000 0.500000 0.500000
O O9 0.432619 0.784565 0.477225
O O10 0.414321 0.751060 0.700072
O O11 0.500000 0.164059 0.750000
#
# Coordination Sequence:
#
# PCOD9258727 Si02
#       6
#     4   8   8   8   8   4
#     4   8  18  33  58  78 127 166 196 228 287 384
#     4  10  18  34  53  93 118 163 207 236 307 357
#     4  11  20  30  56  98 124 146 193 265 308 343
#     4   9  18  33  54  84 123 161 195 248 294 363
#     4   8  16  31  52  88 117 154 191 240 297 349
#     4  10  20  35  54  96 125 154 198 258 307 338
#
# _framework density 20.796769999999999
#
# number of rings (size 3 to 8) (size 9 to 14) (size 15 to 20)
#    0.600    2.000    4.000    0.000    1.400    0.000 
#    0.000    0.000    0.000   12.000   31.200    1.400 
#    0.000    0.200    0.000    0.000    0.000    0.000 
#
# Total GULP energy -111441.606150 kJ/mol
# GULP energy per Si atom -5572.080307 kJ/mol
# Density = 2.074944 g / cm^3
# Si number density = 20.796770 Si / 1000 Ang^3
#
#
#
# Elastic Constant Matrix: (Units=GPa)
#
#
# Indices 1 2 3 4 5 6 
#
# 1 117.8036 47.4967 61.3649 0.0000 4.0315 0.0000
# 2 47.4967 49.0512 25.6708 0.0000 5.1081 0.0000
# 3 61.3649 25.6708 112.7290 0.0000 15.3351 0.0000
# 4 0.0000 0.0000 0.0000 -34.5988 0.0000 -22.4969
# 5 4.0315 5.1081 15.3351 0.0000 40.1998 0.0000
# 6 0.0000 0.0000 0.0000 -22.4969 0.0000 26.5927
#
#
#
# Elastic Compliance Matrix: (Units=1/GPa)
#
#
# Indices 1 2 3 4 5 6 
#
# 1 0.017369 -0.013572 -0.006710 0.000000 0.002542 0.000000
# 2 -0.013572 0.033786 0.000098 0.000000 -0.002969 0.000000
# 3 -0.006710 0.000098 0.013091 0.000000 -0.004333 0.000000
# 4 0.000000 0.000000 0.000000 -0.018646 0.000000 -0.015774
# 5 0.002542 -0.002969 -0.004333 0.000000 0.026651 0.000000
# 6 0.000000 0.000000 0.000000 -0.015774 0.000000 0.024260
#
#
# Mechanical properties :
#
#
# Convention : Reuss Voigt Hill
#
# Bulk Modulus (GPa) = 41.87914 60.96095 51.42005
# Shear Modulus (GPa) = 34.52128 16.10882 25.31505
#
# Velocity S-wave (km/s) = 4.07865 2.78615 3.49271
# Velocity P-wave (km/s) = 6.50858 6.30290 6.40656
#
# Compressibility (1/GPa) = 0.02387823
#
# Stress axis : x y z
#
# Youngs Moduli (GPa) = 57.57392 29.59777 76.38951
#
# Poissons Ratio (x) = 0.40169 0.51259
# Poissons Ratio (y) = 0.78137 -0.00747
# Poissons Ratio (z) = 0.38634 -0.00290
#
# Static dielectric constant tensor:
#      x y z
#    x 1.778870 0.000000 -0.003070 
#    y 0.000000 1.803380 0.000000 
#    z -0.003070 0.000000 1.771450 
# 
# From -- ./inp_files/85579.got.cif
#   From: 2010.05.17/outbox.cif.g08.bks.cpg/sg15_43_cif.got.tgz:85579.got - 2010.06.03 18:47:42.
