data_PCOD9258313
_publ_section_title
;
Structure prediction by ZEFSAII (Michael W. Deem and Ramdas Pophale) SiO2 
 PCOD9258313
Probable space group: C 2/C
;
_chemical_formula_sum "Si O2"
_cell_formula_units_Z 56
_cell_length_a 15.775331
_cell_length_b 8.864278
_cell_length_c 18.661285
_cell_angle_alpha 90.000000
_cell_angle_beta 56.751936
_cell_angle_gamma 90.000000
_cell_volume 2182.367684
_symmetry_space_group_name_H-M "C 2/C"
_symmetry_group_IT_number 15
_symmetry_cell_setting 'monoclinic'
loop_
_space_group_symop_operation_xyz
x,y,z
-x,y,1/2-z
-x,-y,-z
x,-y,1/2+z
1/2+x,1/2+y,z
1/2-x,1/2+y,1/2-z
1/2-x,1/2-y,-z
1/2+x,1/2-y,1/2+z
loop_
_atom_site_type_symbol
_atom_site_label
_atom_site_fract_x
_atom_site_fract_y
_atom_site_fract_z
Si Si1 0.624649 0.884031 0.941666
Si Si2 0.756268 0.122771 0.937891
Si Si3 0.182193 0.120312 0.994084
Si Si4 0.743196 0.103869 0.164677
Si Si5 0.153639 0.894179 0.735695
Si Si6 0.978241 0.592985 0.158624
Si Si7 0.000000 0.142776 0.750000
Si Si8 0.000000 0.651299 0.750000
O O1 0.599766 0.728307 0.994198
O O2 0.736005 0.872254 0.851434
O O3 0.547900 0.910177 0.912527
O O4 0.653686 0.023544 0.979348
O O5 0.756748 0.226687 0.866897
O O6 0.750000 0.250000 0.000000
O O7 0.836527 0.999893 0.933598
O O8 0.230834 0.018870 0.908344
O O9 0.250000 0.250000 0.000000
O O10 0.825329 0.093109 0.189900
O O11 0.633322 0.081278 0.251410
O O12 0.087182 0.753871 0.742186
O O13 0.088777 0.036850 0.738878
O O14 0.025640 0.743726 0.171873
O O15 0.035328 0.452648 0.167604
#
# Coordination Sequence:
#
# PCOD9258313 Si02
#       8
#     8   8   8   8   8   8   4   4
#     4  10  18  33  54  77 100 128 168 208 244 294
#     4   9  18  30  48  78 102 125 164 214 248 277
#     4   9  18  30  48  78 102 125 164 214 248 277
#     4  10  18  33  54  77 100 128 168 208 244 294
#     4  10  20  32  52  78 104 130 160 204 256 298
#     4  10  20  32  52  78 104 130 160 204 256 298
#     4  10  20  32  44  78 112 132 156 190 260 314
#     4  10  20  32  44  78 112 132 156 190 260 314
#
# _framework density 25.660204
#
# number of rings (size 3 to 8) (size 9 to 14) (size 15 to 20)
#    0.000    2.286    0.000    3.429    0.000    4.571 
#    0.000    0.000    0.000    0.000    0.000  504.000 
#    0.000    0.000    0.000    0.000    0.000    0.000 
#
# Total GULP energy -156545.560749 kJ/mol
# GULP energy per Si atom -5590.912884 kJ/mol
# Density = 2.560180 g / cm^3
# Si number density = 25.660204 Si / 1000 Ang^3
#
#
#
# Elastic Constant Matrix: (Units=GPa)
#
#
# Indices 1 2 3 4 5 6 
#
# 1 130.1937 59.2658 65.3421 0.0000 43.9431 0.0000
# 2 59.2658 202.3087 58.5991 0.0000 33.3069 0.0000
# 3 65.3421 58.5991 126.1490 0.0000 46.3371 0.0000
# 4 0.0000 0.0000 0.0000 28.4250 0.0000 11.1366
# 5 43.9431 33.3069 46.3371 0.0000 58.3453 0.0000
# 6 0.0000 0.0000 0.0000 11.1366 0.0000 29.4783
#
#
#
# Elastic Compliance Matrix: (Units=1/GPa)
#
#
# Indices 1 2 3 4 5 6 
#
# 1 0.011964 -0.001618 -0.003494 0.000000 -0.005312 0.000000
# 2 -0.001618 0.006042 -0.001623 0.000000 -0.000942 0.000000
# 3 -0.003494 -0.001623 0.012966 0.000000 -0.006740 0.000000
# 4 0.000000 0.000000 0.000000 0.041292 0.000000 -0.015600
# 5 -0.005312 -0.000942 -0.006740 0.000000 0.027030 0.000000
# 6 0.000000 0.000000 0.000000 -0.015600 0.000000 0.039817
#
#
# Mechanical properties :
#
#
# Convention : Reuss Voigt Hill
#
# Bulk Modulus (GPa) = 57.13421 91.67395 74.40408
# Shear Modulus (GPa) = 31.56251 41.61268 36.58760
#
# Velocity S-wave (km/s) = 3.51097 4.03138 3.78014
# Velocity P-wave (km/s) = 6.22494 7.58110 6.93624
#
# Compressibility (1/GPa) = 0.01750265
#
# Stress axis : x y z
#
# Youngs Moduli (GPa) = 83.58345 165.50787 77.12214
#
# Poissons Ratio (x) = 0.26783 0.26948
# Poissons Ratio (y) = 0.13526 0.12513
# Poissons Ratio (z) = 0.29206 0.26854
#
# Static dielectric constant tensor:
#      x y z
#    x 2.058650 0.000000 -0.086340 
#    y 0.000000 2.027650 0.000000 
#    z -0.086340 0.000000 2.151890 
# 
# From -- ./inp_files/246967.got.cif
#   From: 2010.05.17/outbox.cif.g08.bks.cpg/sg15_124_cif.got.tgz:246967.got - 2010.06.03 18:47:42.
