data_PCOD9258936
_publ_section_title
;
Structure prediction by ZEFSAII (Michael W. Deem and Ramdas Pophale) SiO2 
 PCOD9258936
Probable space group: C 2/C
;
_chemical_formula_sum "Si O2"
_cell_formula_units_Z 64
_cell_length_a 21.182292
_cell_length_b 17.331404
_cell_length_c 17.352851
_cell_angle_alpha 90.000000
_cell_angle_beta 154.321483
_cell_angle_gamma 90.000000
_cell_volume 2760.498195
_symmetry_space_group_name_H-M "C 2/C"
_symmetry_group_IT_number 15
_symmetry_cell_setting 'monoclinic'
loop_
_space_group_symop_operation_xyz
x,y,z
-x,y,1/2-z
-x,-y,-z
x,-y,1/2+z
1/2+x,1/2+y,z
1/2-x,1/2+y,1/2-z
1/2-x,1/2-y,-z
1/2+x,1/2-y,1/2+z
loop_
_atom_site_type_symbol
_atom_site_label
_atom_site_fract_x
_atom_site_fract_y
_atom_site_fract_z
Si Si1 0.826586 0.626409 0.065702
Si Si2 0.293788 0.219106 0.891829
Si Si3 0.736316 0.389111 0.645016
Si Si4 0.659827 0.796137 0.463379
Si Si5 0.538579 0.856973 0.044767
Si Si6 0.678679 0.958389 0.449011
Si Si7 0.569281 0.706601 0.509584
Si Si8 0.192764 0.059104 0.582078
O O1 0.786794 0.618119 0.111329
O O2 0.778305 0.543562 0.977126
O O3 0.000000 0.635807 0.250000
O O4 0.759716 0.694677 0.941058
O O5 0.342271 0.307188 0.931719
O O6 0.158360 0.204020 0.686767
O O7 0.415025 0.162752 0.991079
O O8 0.874621 0.387567 0.855472
O O9 0.657655 0.470916 0.565441
O O10 0.500000 0.801631 0.250000
O O11 0.750000 0.750000 0.500000
O O12 0.713252 0.882938 0.536457
O O13 0.653676 0.749048 0.533893
O O14 0.545801 0.774822 0.097904
O O15 0.656271 0.913946 0.210724
O O16 0.500000 0.962556 0.250000
O O17 0.758948 0.941161 0.455190
O O18 0.569076 0.619654 0.474438
#
# Coordination Sequence:
#
# PCOD9258936 Si02
#       8
#     8   8   8   8   8   8   8   8
#     4  10  18  34  57  85 114 150 198 253 291 346
#     4  10  21  36  54  84 116 152 196 240 301 355
#     4  10  20  34  57  83 111 152 198 248 293 343
#     4  11  21  37  61  87 119 158 195 248 306 369
#     4  10  19  35  56  80 116 156 192 237 299 358
#     4   9  18  31  55  86 115 142 192 245 305 348
#     4  10  22  36  55  82 120 153 188 237 303 361
#     4  10  19  35  55  83 117 144 190 249 293 351
#
# _framework density 23.184221000000001
#
# number of rings (size 3 to 8) (size 9 to 14) (size 15 to 20)
#    0.000    2.000    2.500    2.250    1.750    0.000 
#    9.000    0.625    0.000    3.750    0.000    0.000 
#    0.000    0.000    0.000    0.000    0.000    0.000 
#
# Total GULP energy -178363.318924 kJ/mol
# GULP energy per Si atom -5573.853716 kJ/mol
# Density = 2.313145 g / cm^3
# Si number density = 23.184221 Si / 1000 Ang^3
#
#
#
# Elastic Constant Matrix: (Units=GPa)
#
#
# Indices 1 2 3 4 5 6 
#
# 1 70.1732 11.4307 11.2221 0.0015 -12.8296 0.0008
# 2 11.4307 141.4118 17.7543 0.0026 -13.2824 0.0017
# 3 11.2221 17.7543 49.1486 0.0030 -10.9728 0.0020
# 4 0.0015 0.0026 0.0030 20.9704 0.0020 -6.7182
# 5 -12.8296 -13.2824 -10.9728 0.0020 12.7708 0.0010
# 6 0.0008 0.0017 0.0020 -6.7182 0.0010 32.0908
#
#
#
# Elastic Compliance Matrix: (Units=1/GPa)
#
#
# Indices 1 2 3 4 5 6 
#
# 1 0.017466 0.000268 -0.000130 -0.000003 0.017714 -0.000002
# 2 0.000268 0.007904 -0.001263 -0.000002 0.007405 -0.000001
# 3 -0.000130 -0.001263 0.025378 -0.000006 0.020361 -0.000004
# 4 -0.000003 -0.000002 -0.000006 0.051114 -0.000020 0.010701
# 5 0.017714 0.007405 0.020361 -0.000020 0.121295 -0.000010
# 6 -0.000002 -0.000001 -0.000004 0.010701 -0.000010 0.033402
#
#
# Mechanical properties :
#
#
# Convention : Reuss Voigt Hill
#
# Bulk Modulus (GPa) = 20.61946 37.94974 29.28460
# Shear Modulus (GPa) = 18.18344 27.85485 23.01914
#
# Velocity S-wave (km/s) = 2.80358 3.46996 3.15442
# Velocity P-wave (km/s) = 4.40376 5.69724 5.09174
#
# Compressibility (1/GPa) = 0.04849789
#
# Stress axis : x y z
#
# Youngs Moduli (GPa) = 57.25373 126.51869 39.40388
#
# Poissons Ratio (x) = -0.03395 0.00513
# Poissons Ratio (y) = -0.01536 0.04978
# Poissons Ratio (z) = 0.00746 0.15983
#
# Static dielectric constant tensor:
#      x y z
#    x 1.933820 0.000000 0.028780 
#    y 0.000000 1.924560 0.000000 
#    z 0.028780 0.000000 1.893610 
# 
# From -- ./inp_files/216194.got.cif
#   From: 2010.05.17/outbox.cif.g08.bks.cpg/sg15_109_cif.got.tgz:216194.got - 2010.06.03 18:47:42.
