data_PCOD9258147
_publ_section_title
;
Structure prediction by ZEFSAII (Michael W. Deem and Ramdas Pophale) SiO2 
 PCOD9258147
Probable space group: C 2/C
;
_chemical_formula_sum "Si O2"
_cell_formula_units_Z 56
_cell_length_a 22.204537
_cell_length_b 8.459750
_cell_length_c 20.539118
_cell_angle_alpha 90.000000
_cell_angle_beta 127.028459
_cell_angle_gamma 90.000000
_cell_volume 3080.115627
_symmetry_space_group_name_H-M "C 2/C"
_symmetry_group_IT_number 15
_symmetry_cell_setting 'monoclinic'
loop_
_space_group_symop_operation_xyz
x,y,z
-x,y,1/2-z
-x,-y,-z
x,-y,1/2+z
1/2+x,1/2+y,z
1/2-x,1/2+y,1/2-z
1/2-x,1/2-y,-z
1/2+x,1/2-y,1/2+z
loop_
_atom_site_type_symbol
_atom_site_label
_atom_site_fract_x
_atom_site_fract_y
_atom_site_fract_z
Si Si1 0.060951 0.237307 0.062696
Si Si2 0.184261 0.104762 0.911929
Si Si3 0.442416 0.623362 0.153781
Si Si4 0.150924 0.665412 0.504112
Si Si5 0.489558 0.948965 0.128314
Si Si6 0.965474 0.068933 0.889148
Si Si7 0.572987 0.209925 0.252027
O O1 0.129711 0.298161 0.064357
O O2 0.025962 0.369991 0.087370
O O3 0.082359 0.079026 0.116164
O O4 0.998933 0.171935 0.970167
O O5 0.271008 0.073006 0.952837
O O6 0.146088 0.239182 0.840655
O O7 0.136782 0.945282 0.875477
O O8 0.170259 0.179024 0.974310
O O9 0.500000 0.596280 0.250000
O O10 0.449477 0.805138 0.139257
O O11 0.468912 0.520512 0.108751
O O12 0.076085 0.576904 0.428769
O O13 0.554167 0.034259 0.213482
O O14 0.927024 0.181940 0.812121
O O15 0.500000 0.247016 0.250000
#
# Coordination Sequence:
#
# PCOD9258147 Si02
#       7
#     8   8   8   8   8   8   8
#     4  10  20  36  56  88 113 147 194 243 275 348
#     4  11  22  37  62  79 122 152 193 229 302 354
#     4  11  19  35  59  91 110 146 195 251 283 341
#     4  11  22  39  56  88 115 158 184 241 291 353
#     4  11  23  33  63  88 116 144 202 245 289 334
#     4  10  18  32  62  82 108 144 200 234 280 329
#     4  12  18  37  59  87 108 150 196 243 282 346
#
# _framework density 18.181135999999999
#
# number of rings (size 3 to 8) (size 9 to 14) (size 15 to 20)
#    0.000    1.143    7.143    0.857    0.000    0.571 
#    0.000    1.429    0.000    0.000    0.000    0.000 
#    0.000    0.000    0.000    0.000    0.000    0.000 
#
# Total GULP energy -156052.885760 kJ/mol
# GULP energy per Si atom -5573.317349 kJ/mol
# Density = 1.813976 g / cm^3
# Si number density = 18.181136 Si / 1000 Ang^3
#
#
#
# Elastic Constant Matrix: (Units=GPa)
#
#
# Indices 1 2 3 4 5 6 
#
# 1 95.1576 32.9117 20.2853 0.0000 -8.6259 0.0000
# 2 32.9117 61.1594 3.7523 0.0000 -7.7148 0.0000
# 3 20.2853 3.7523 39.8100 0.0000 -12.7643 0.0000
# 4 0.0000 0.0000 0.0000 23.9984 0.0000 -19.8248
# 5 -8.6259 -7.7148 -12.7643 0.0000 24.9025 0.0000
# 6 0.0000 0.0000 0.0000 -19.8248 0.0000 21.9060
#
#
#
# Elastic Compliance Matrix: (Units=1/GPa)
#
#
# Indices 1 2 3 4 5 6 
#
# 1 0.014504 -0.007487 -0.006962 0.000000 -0.000864 0.000000
# 2 -0.007487 0.020881 0.003697 0.000000 0.005770 0.000000
# 3 -0.006962 0.003697 0.033402 0.000000 0.015855 0.000000
# 4 0.000000 0.000000 0.000000 0.165098 0.000000 0.149413
# 5 -0.000864 0.005770 0.015855 0.000000 0.049772 0.000000
# 6 0.000000 0.000000 0.000000 0.149413 0.000000 0.180868
#
#
# Mechanical properties :
#
#
# Convention : Reuss Voigt Hill
#
# Bulk Modulus (GPa) = 21.14924 34.44730 27.79827
# Shear Modulus (GPa) = 9.96435 23.43989 16.70212
#
# Velocity S-wave (km/s) = 2.34361 3.59450 3.03421
# Velocity P-wave (km/s) = 4.35673 6.01790 5.25339
#
# Compressibility (1/GPa) = 0.04728303
#
# Stress axis : x y z
#
# Youngs Moduli (GPa) = 68.94567 47.89104 29.93852
#
# Poissons Ratio (x) = 0.35856 0.20843
# Poissons Ratio (y) = 0.51619 -0.11068
# Poissons Ratio (z) = 0.48000 -0.17706
#
# Static dielectric constant tensor:
#      x y z
#    x 1.640330 0.000000 -0.028010 
#    y 0.000000 1.675540 0.000000 
#    z -0.028010 0.000000 1.650030 
# 
# From -- ./inp_files/251501.got.cif
#   From: 2010.05.17/outbox.cif.g08.bks.cpg/sg15_126_cif.got.tgz:251501.got - 2010.06.03 18:47:42.
