data_PCOD9258941
_publ_section_title
;
Structure prediction by ZEFSAII (Michael W. Deem and Ramdas Pophale) SiO2 
 PCOD9258941
Probable space group: C 2/C
;
_chemical_formula_sum "Si O2"
_cell_formula_units_Z 48
_cell_length_a 21.749295
_cell_length_b 8.692125
_cell_length_c 19.461140
_cell_angle_alpha 90.000000
_cell_angle_beta 140.506805
_cell_angle_gamma 90.000000
_cell_volume 2339.846508
_symmetry_space_group_name_H-M "C 2/C"
_symmetry_group_IT_number 15
_symmetry_cell_setting 'monoclinic'
loop_
_space_group_symop_operation_xyz
x,y,z
-x,y,1/2-z
-x,-y,-z
x,-y,1/2+z
1/2+x,1/2+y,z
1/2-x,1/2+y,1/2-z
1/2-x,1/2-y,-z
1/2+x,1/2-y,1/2+z
loop_
_atom_site_type_symbol
_atom_site_label
_atom_site_fract_x
_atom_site_fract_y
_atom_site_fract_z
Si Si1 0.401203 0.751618 0.084912
Si Si2 0.344952 0.192305 0.831676
Si Si3 0.449833 0.962766 0.772052
Si Si4 0.334396 0.161437 0.291358
Si Si5 0.961546 0.155507 0.997858
Si Si6 0.317919 0.240513 0.650238
O O1 0.442353 0.640595 0.062159
O O2 0.387836 0.690516 0.151255
O O3 0.471148 0.902485 0.141713
O O4 0.290902 0.781878 0.964790
O O5 0.271860 0.278415 0.819359
O O6 0.456037 0.218055 0.944575
O O7 0.333562 0.266148 0.744749
O O8 0.325170 0.011652 0.811131
O O9 0.500000 0.885521 0.750000
O O10 0.415180 0.851074 0.801995
O O11 0.351497 0.060618 0.670933
O O12 0.368450 0.281323 0.378404
O O13 0.000000 0.000000 0.000000
#
# Coordination Sequence:
#
# PCOD9258941 Si02
#       6
#     8   8   8   8   8   8
#     4  10  18  34  57  87 115 148 199 246 289 342
#     4  11  22  36  61  88 115 155 195 246 298 351
#     4   9  19  36  62  84 114 162 198 240 302 350
#     4  11  22  40  61  87 119 151 196 245 299 353
#     4  12  24  36  57  87 123 158 197 241 292 350
#     4   9  18  32  57  87 111 149 201 247 279 348
#
# _framework density 20.514167
#
# number of rings (size 3 to 8) (size 9 to 14) (size 15 to 20)
#    0.000    1.667    5.000    1.500    2.333    0.000 
#    0.000    0.000    7.333    1.000    0.000    0.000 
#    0.000    0.000    0.000    0.000    0.000    0.000 
#
# Total GULP energy -133636.611118 kJ/mol
# GULP energy per Si atom -5568.192130 kJ/mol
# Density = 2.046748 g / cm^3
# Si number density = 20.514167 Si / 1000 Ang^3
#
#
#
# Elastic Constant Matrix: (Units=GPa)
#
#
# Indices 1 2 3 4 5 6 
#
# 1 151.8759 28.6417 4.8059 0.0000 -2.5455 0.0000
# 2 28.6417 38.8874 -12.6947 0.0000 -3.2070 0.0000
# 3 4.8059 -12.6947 49.3877 0.0000 12.9006 0.0000
# 4 0.0000 0.0000 0.0000 18.0271 0.0000 7.9742
# 5 -2.5455 -3.2070 12.9006 0.0000 38.6737 0.0000
# 6 0.0000 0.0000 0.0000 7.9742 0.0000 28.0897
#
#
#
# Elastic Compliance Matrix: (Units=1/GPa)
#
#
# Indices 1 2 3 4 5 6 
#
# 1 0.007941 -0.006663 -0.002714 0.000000 0.000876 0.000000
# 2 -0.006663 0.033661 0.009515 0.000000 -0.000821 0.000000
# 3 -0.002714 0.009515 0.024975 0.000000 -0.007720 0.000000
# 4 0.000000 0.000000 0.000000 0.063438 0.000000 -0.018009
# 5 0.000876 -0.000821 -0.007720 0.000000 0.028422 0.000000
# 6 0.000000 0.000000 0.000000 -0.018009 0.000000 0.040713
#
#
# Mechanical properties :
#
#
# Convention : Reuss Voigt Hill
#
# Bulk Modulus (GPa) = 14.95805 31.29520 23.12662
# Shear Modulus (GPa) = 22.60819 31.58464 27.09641
#
# Velocity S-wave (km/s) = 3.32336 3.92809 3.63831
# Velocity P-wave (km/s) = 4.69400 5.98847 5.38031
#
# Compressibility (1/GPa) = 0.06685364
#
# Stress axis : x y z
#
# Youngs Moduli (GPa) = 125.92212 29.70777 40.04072
#
# Poissons Ratio (x) = 0.19794 0.10868
# Poissons Ratio (y) = 0.83901 -0.38100
# Poissons Ratio (z) = 0.34177 -0.28268
#
# Static dielectric constant tensor:
#      x y z
#    x 1.820840 0.000000 -0.022150 
#    y 0.000000 1.708840 0.000000 
#    z -0.022150 0.000000 1.798420 
# 
# From -- ./inp_files/252026.got.cif
#   From: 2010.05.17/outbox.cif.g08.bks.cpg/sg15_127_cif.got.tgz:252026.got - 2010.06.03 18:47:42.
