data_PCOD9258897
_publ_section_title
;
Structure prediction by ZEFSAII (Michael W. Deem and Ramdas Pophale) SiO2 
 PCOD9258897
Probable space group: C 2/C
;
_chemical_formula_sum "Si O2"
_cell_formula_units_Z 48
_cell_length_a 5.046488
_cell_length_b 26.382605
_cell_length_c 15.902866
_cell_angle_alpha 90.000000
_cell_angle_beta 66.053980
_cell_angle_gamma 90.000000
_cell_volume 1935.059938
_symmetry_space_group_name_H-M "C 2/C"
_symmetry_group_IT_number 15
_symmetry_cell_setting 'monoclinic'
loop_
_space_group_symop_operation_xyz
x,y,z
-x,y,1/2-z
-x,-y,-z
x,-y,1/2+z
1/2+x,1/2+y,z
1/2-x,1/2+y,1/2-z
1/2-x,1/2-y,-z
1/2+x,1/2-y,1/2+z
loop_
_atom_site_type_symbol
_atom_site_label
_atom_site_fract_x
_atom_site_fract_y
_atom_site_fract_z
Si Si1 0.000000 0.909916 0.250000
Si Si2 0.491184 0.150422 0.582611
Si Si3 0.663120 0.635264 0.314910
Si Si4 0.840340 0.937589 0.100077
Si Si5 0.157854 0.249649 0.316592
Si Si6 0.000000 0.500000 0.000000
Si Si7 0.616479 0.085194 0.055321
O O1 0.770743 0.875434 0.330161
O O2 0.833472 0.941464 0.200579
O O3 0.771423 0.121599 0.585241
O O4 0.451635 0.209493 0.602391
O O5 0.464976 0.133836 0.488812
O O6 0.500000 0.621265 0.250000
O O7 0.569039 0.692266 0.351828
O O8 0.695596 0.598252 0.389342
O O9 0.000000 0.641420 0.250000
O O10 0.633534 0.968490 0.067419
O O11 0.176517 0.950711 0.032097
O O12 0.500000 0.252812 0.250000
O O13 0.000000 0.262748 0.250000
O O14 0.861786 0.545404 0.085271
#
# Coordination Sequence:
#
# PCOD9258897 Si02
#       7
#     4   8   8   8   8   4   8
#     4  10  18  34  56  92 120 158 200 248 310 378
#     4  10  20  34  62  91 127 162 204 256 314 376
#     4  10  24  44  66  91 128 174 217 261 310 388
#     4  10  21  37  61  88 125 158 204 265 323 385
#     4  10  20  37  61  94 132 170 210 253 312 375
#     4  10  22  42  62  84 122 164 202 274 326 380
#     4  10  23  41  63  87 120 164 212 266 329 372
#
# _framework density 24.805432
#
# number of rings (size 3 to 8) (size 9 to 14) (size 15 to 20)
#    0.000    2.000    0.833    2.000    7.000    0.667 
#    1.500    4.167    0.000    0.000    0.000    0.000 
#    0.000    0.000    0.000    0.000    0.000    0.000 
#
# Total GULP energy -133723.785737 kJ/mol
# GULP energy per Si atom -5571.824406 kJ/mol
# Density = 2.474897 g / cm^3
# Si number density = 24.805432 Si / 1000 Ang^3
#
#
#
# Elastic Constant Matrix: (Units=GPa)
#
#
# Indices 1 2 3 4 5 6 
#
# 1 132.9641 32.0145 48.6499 0.0000 41.0372 0.0000
# 2 32.0145 119.7829 80.7903 0.0000 33.5950 0.0000
# 3 48.6499 80.7903 104.0700 0.0000 63.5536 0.0000
# 4 0.0000 0.0000 0.0000 38.9660 0.0000 18.5888
# 5 41.0372 33.5950 63.5536 0.0000 66.9059 0.0000
# 6 0.0000 0.0000 0.0000 18.5888 0.0000 59.4192
#
#
#
# Elastic Compliance Matrix: (Units=1/GPa)
#
#
# Indices 1 2 3 4 5 6 
#
# 1 0.009465 -0.000117 -0.001964 0.000000 -0.003882 0.000000
# 2 -0.000117 0.020729 -0.023160 0.000000 0.011662 0.000000
# 3 -0.001964 -0.023160 0.049221 0.000000 -0.033921 0.000000
# 4 0.000000 0.000000 0.000000 0.030165 0.000000 -0.009437
# 5 -0.003882 0.011662 -0.033921 0.000000 0.043693 0.000000
# 6 0.000000 0.000000 0.000000 -0.009437 0.000000 0.019782
#
#
# Mechanical properties :
#
#
# Convention : Reuss Voigt Hill
#
# Bulk Modulus (GPa) = 34.55933 75.52515 55.04224
# Shear Modulus (GPa) = 21.44255 46.08238 33.76246
#
# Velocity S-wave (km/s) = 2.94331 4.31484 3.69330
# Velocity P-wave (km/s) = 5.05106 7.43888 6.35807
#
# Compressibility (1/GPa) = 0.02893575
#
# Stress axis : x y z
#
# Youngs Moduli (GPa) = 105.64705 48.24091 20.31656
#
# Poissons Ratio (x) = 0.00563 0.03990
# Poissons Ratio (y) = 0.01232 0.47052
# Poissons Ratio (z) = 0.20747 1.11724
#
# Static dielectric constant tensor:
#      x y z
#    x 2.266470 0.000000 -0.089970 
#    y 0.000000 2.262380 0.000000 
#    z -0.089970 0.000000 1.940940 
# 
# From -- ./inp_files/130077.got.cif
#   From: 2010.05.17/outbox.cif.g08.bks.cpg/sg15_66_cif.got.tgz:130077.got - 2010.06.03 18:47:42.
