data_PCOD9258491
_publ_section_title
;
Structure prediction by ZEFSAII (Michael W. Deem and Ramdas Pophale) SiO2 
 PCOD9258491
Probable space group: C 2/C
;
_chemical_formula_sum "Si O2"
_cell_formula_units_Z 64
_cell_length_a 8.745082
_cell_length_b 20.515742
_cell_length_c 21.986756
_cell_angle_alpha 90.000000
_cell_angle_beta 125.650099
_cell_angle_gamma 90.000000
_cell_volume 3205.416870
_symmetry_space_group_name_H-M "C 2/C"
_symmetry_group_IT_number 15
_symmetry_cell_setting 'monoclinic'
loop_
_space_group_symop_operation_xyz
x,y,z
-x,y,1/2-z
-x,-y,-z
x,-y,1/2+z
1/2+x,1/2+y,z
1/2-x,1/2+y,1/2-z
1/2-x,1/2-y,-z
1/2+x,1/2-y,1/2+z
loop_
_atom_site_type_symbol
_atom_site_label
_atom_site_fract_x
_atom_site_fract_y
_atom_site_fract_z
Si Si1 0.925007 0.781735 0.088102
Si Si2 0.099874 0.353281 0.969564
Si Si3 0.009713 0.427122 0.322304
Si Si4 0.014505 0.210657 0.180603
Si Si5 0.795993 0.120495 0.058071
Si Si6 0.368849 0.997921 0.530209
Si Si7 0.783108 0.818243 0.427119
Si Si8 0.187173 0.181807 0.755043
O O1 0.907384 0.703962 0.082169
O O2 0.002596 0.803589 0.040193
O O3 0.095206 0.804433 0.168760
O O4 0.731382 0.820477 0.052327
O O5 0.185963 0.423041 0.972291
O O6 0.889389 0.369125 0.943291
O O7 0.832139 0.378136 0.289956
O O8 0.000000 0.452356 0.250000
O O9 0.028988 0.475481 0.384748
O O10 0.191552 0.380403 0.372062
O O11 0.196955 0.252218 0.203371
O O12 0.000000 0.203662 0.250000
O O13 0.976813 0.142812 0.137988
O O14 0.841796 0.256908 0.120972
O O15 0.768199 0.167501 0.994401
O O16 0.793334 0.048551 0.027736
O O17 0.500000 0.000000 0.500000
O O18 0.000000 0.170287 0.750000
#
# Coordination Sequence:
#
# PCOD9258491 Si02
#       8
#     8   8   8   8   8   8   8   8
#     4  11  21  36  59  87 123 158 192 265 310 359
#     4  10  22  37  60  87 125 157 204 256 312 350
#     4  10  19  39  66  91 119 168 206 255 310 376
#     4  11  19  34  55  85 124 155 200 256 309 375
#     4  10  20  35  63  85 116 161 208 250 299 372
#     4   9  21  39  62  91 124 164 214 253 301 365
#     4  10  18  33  57  91 114 150 208 247 304 368
#     4  11  23  34  59  92 128 154 202 261 323 374
#
# _framework density 19.966201000000002
#
# number of rings (size 3 to 8) (size 9 to 14) (size 15 to 20)
#    0.000    1.750    3.750    1.125    7.000    1.000 
#    0.000    3.125    8.250    0.000    0.000    0.000 
#    0.000    0.000    0.000    0.000    0.000    0.000 
#
# Total GULP energy -178244.831074 kJ/mol
# GULP energy per Si atom -5570.150971 kJ/mol
# Density = 1.992076 g / cm^3
# Si number density = 19.966201 Si / 1000 Ang^3
#
#
#
# Elastic Constant Matrix: (Units=GPa)
#
#
# Indices 1 2 3 4 5 6 
#
# 1 53.0548 18.4047 12.5493 0.0000 5.2989 0.0000
# 2 18.4047 139.4431 56.4834 0.0000 -2.3128 0.0000
# 3 12.5493 56.4834 94.3936 0.0000 -13.1308 0.0000
# 4 0.0000 0.0000 0.0000 13.3587 0.0000 4.2580
# 5 5.2989 -2.3128 -13.1308 0.0000 28.4220 0.0000
# 6 0.0000 0.0000 0.0000 4.2580 0.0000 11.2554
#
#
#
# Elastic Compliance Matrix: (Units=1/GPa)
#
#
# Indices 1 2 3 4 5 6 
#
# 1 0.020547 -0.001854 -0.002326 0.000000 -0.005056 0.000000
# 2 -0.001854 0.009738 -0.005794 0.000000 -0.001539 0.000000
# 3 -0.002326 -0.005794 0.015352 0.000000 0.007055 0.000000
# 4 0.000000 0.000000 0.000000 0.085122 0.000000 -0.032203
# 5 -0.005056 -0.001539 0.007055 0.000000 0.039261 0.000000
# 6 0.000000 0.000000 0.000000 -0.032203 0.000000 0.101029
#
#
# Mechanical properties :
#
#
# Convention : Reuss Voigt Hill
#
# Bulk Modulus (GPa) = 38.92831 51.30737 45.11784
# Shear Modulus (GPa) = 16.69128 23.90417 20.29772
#
# Velocity S-wave (km/s) = 2.89446 3.46386 3.19188
# Velocity P-wave (km/s) = 5.54166 6.46147 6.01916
#
# Compressibility (1/GPa) = 0.02568825
#
# Stress axis : x y z
#
# Youngs Moduli (GPa) = 48.66998 102.69409 65.13897
#
# Poissons Ratio (x) = 0.19036 0.15149
# Poissons Ratio (y) = 0.09022 0.37745
# Poissons Ratio (z) = 0.11319 0.59506
#
# Static dielectric constant tensor:
#      x y z
#    x 1.762770 0.000000 -0.063760 
#    y 0.000000 1.738500 0.000000 
#    z -0.063760 0.000000 1.789410 
# 
# From -- ./inp_files/233897.got.cif
#   From: 2010.05.17/outbox.cif.g08.bks.cpg/sg15_117_cif.got.tgz:233897.got - 2010.06.03 18:47:42.
