data_PCOD9258717
_publ_section_title
;
Structure prediction by ZEFSAII (Michael W. Deem and Ramdas Pophale) SiO2 
 PCOD9258717
Probable space group: C 2/C
;
_chemical_formula_sum "Si O2"
_cell_formula_units_Z 48
_cell_length_a 18.915529
_cell_length_b 25.403695
_cell_length_c 8.491446
_cell_angle_alpha 90.000000
_cell_angle_beta 33.486573
_cell_angle_gamma 90.000000
_cell_volume 2251.296657
_symmetry_space_group_name_H-M "C 2/C"
_symmetry_group_IT_number 15
_symmetry_cell_setting 'monoclinic'
loop_
_space_group_symop_operation_xyz
x,y,z
-x,y,1/2-z
-x,-y,-z
x,-y,1/2+z
1/2+x,1/2+y,z
1/2-x,1/2+y,1/2-z
1/2-x,1/2-y,-z
1/2+x,1/2-y,1/2+z
loop_
_atom_site_type_symbol
_atom_site_label
_atom_site_fract_x
_atom_site_fract_y
_atom_site_fract_z
Si Si1 0.500000 0.861350 0.250000
Si Si2 0.985826 0.247019 0.962911
Si Si3 0.225039 0.168642 0.195737
Si Si4 0.000000 0.997717 0.250000
Si Si5 0.441353 0.867673 0.692409
Si Si6 0.352136 0.652506 0.802647
Si Si7 0.408125 0.423069 0.690420
O O1 0.372713 0.826156 0.463638
O O2 0.473164 0.893670 0.462610
O O3 0.000000 0.240668 0.750000
O O4 0.004144 0.308822 0.944547
O O5 0.096377 0.211011 0.836273
O O6 0.851378 0.217102 0.238628
O O7 0.159965 0.152510 0.483972
O O8 0.204531 0.118563 0.120908
O O9 0.097133 0.036814 0.156909
O O10 0.925434 0.960703 0.508469
O O11 0.500000 0.886296 0.750000
O O12 0.288338 0.861396 0.997485
O O13 0.461515 0.611922 0.546331
#
# Coordination Sequence:
#
# PCOD9258717 Si02
#       7
#     4   8   8   4   8   8   8
#     4  10  22  34  51  74 102 150 176 209 258 312
#     4   8  15  29  51  74 101 137 178 214 252 302
#     4   9  17  33  52  73 105 140 174 210 258 313
#     4  10  20  30  55  86 102 124 166 219 272 310
#     4  10  20  33  50  75 104 140 177 216 252 301
#     4   9  16  31  53  74 102 138 170 206 265 313
#     4  10  18  34  53  81 102 131 165 218 264 314
#
# _framework density 21.321045000000002
#
# number of rings (size 3 to 8) (size 9 to 14) (size 15 to 20)
#    0.000    2.667    1.667    1.500    0.000    3.333 
#    0.000    3.333    0.000    1.000    8.667    0.000 
#    0.000    0.000    0.000    0.000    0.000    0.000 
#
# Total GULP energy -133681.041951 kJ/mol
# GULP energy per Si atom -5570.043415 kJ/mol
# Density = 2.127252 g / cm^3
# Si number density = 21.321045 Si / 1000 Ang^3
#
#
#
# Elastic Constant Matrix: (Units=GPa)
#
#
# Indices 1 2 3 4 5 6 
#
# 1 92.6220 4.6371 30.4549 0.0000 -9.7692 0.0000
# 2 4.6371 55.5390 0.0303 0.0000 1.8773 0.0000
# 3 30.4549 0.0303 41.0443 0.0000 -11.7333 0.0000
# 4 0.0000 0.0000 0.0000 -0.9795 0.0000 8.2733
# 5 -9.7692 1.8773 -11.7333 0.0000 36.8836 0.0000
# 6 0.0000 0.0000 0.0000 8.2733 0.0000 13.6511
#
#
#
# Elastic Compliance Matrix: (Units=1/GPa)
#
#
# Indices 1 2 3 4 5 6 
#
# 1 0.014369 -0.001212 -0.010511 0.000000 0.000524 0.000000
# 2 -0.001212 0.018142 0.000583 0.000000 -0.001059 0.000000
# 3 -0.010511 0.000583 0.034495 0.000000 0.008160 0.000000
# 4 0.000000 0.000000 0.000000 -0.166844 0.000000 0.101117
# 5 0.000524 -0.001059 0.008160 0.000000 0.029901 0.000000
# 6 0.000000 0.000000 0.000000 0.101117 0.000000 0.011972
#
#
# Mechanical properties :
#
#
# Convention : Reuss Voigt Hill
#
# Bulk Modulus (GPa) = 22.35804 28.82776 25.59290
# Shear Modulus (GPa) = -240.63828 20.18325 -110.22752
#
# Velocity S-wave (km/s) = -10.63528 3.08008 -7.19800
# Velocity P-wave (km/s) = 11.84496 5.11853 7.55327
#
# Compressibility (1/GPa) = 0.04472664
#
# Stress axis : x y z
#
# Youngs Moduli (GPa) = 69.59653 55.12075 28.98951
#
# Poissons Ratio (x) = 0.06679 0.30470
# Poissons Ratio (y) = 0.08432 -0.01690
# Poissons Ratio (z) = 0.73152 -0.03213
#
# Static dielectric constant tensor:
#      x y z
#    x 1.848520 0.000000 0.019870 
#    y 0.000000 1.768120 0.000000 
#    z 0.019870 0.000000 1.832390 
# 
# From -- ./inp_files/59091.got.cif
#   From: 2010.05.17/outbox.cif.g08.bks.cpg/sg15_30_cif.got.tgz:59091.got - 2010.06.03 18:47:42.
