data_PCOD9258381
_publ_section_title
;
Structure prediction by ZEFSAII (Michael W. Deem and Ramdas Pophale) SiO2 
 PCOD9258381
Probable space group: C 2/C
;
_chemical_formula_sum "Si O2"
_cell_formula_units_Z 48
_cell_length_a 10.182600
_cell_length_b 29.794330
_cell_length_c 17.824550
_cell_angle_alpha 90.000000
_cell_angle_beta 150.276544
_cell_angle_gamma 90.000000
_cell_volume 2681.204070
_symmetry_space_group_name_H-M "C 2/C"
_symmetry_group_IT_number 15
_symmetry_cell_setting 'monoclinic'
loop_
_space_group_symop_operation_xyz
x,y,z
-x,y,1/2-z
-x,-y,-z
x,-y,1/2+z
1/2+x,1/2+y,z
1/2-x,1/2+y,1/2-z
1/2-x,1/2-y,-z
1/2+x,1/2-y,1/2+z
loop_
_atom_site_type_symbol
_atom_site_label
_atom_site_fract_x
_atom_site_fract_y
_atom_site_fract_z
Si Si1 0.749501 0.781672 0.073455
Si Si2 0.776791 0.462117 0.573008
Si Si3 0.716863 0.737249 0.569470
Si Si4 0.357233 0.869010 0.563528
Si Si5 0.588800 0.355639 0.593431
Si Si6 0.274929 0.559486 0.925283
O O1 0.000000 0.770396 0.250000
O O2 0.750000 0.750000 0.000000
O O3 0.483075 0.770474 0.986668
O O4 0.761901 0.833562 0.053605
O O5 0.837533 0.422953 0.543256
O O6 0.776251 0.514637 0.551375
O O7 0.489540 0.453893 0.467786
O O8 0.000000 0.457411 0.750000
O O9 0.750000 0.750000 0.500000
O O10 0.578535 0.688911 0.498322
O O11 0.000000 0.735945 0.750000
O O12 0.209557 0.863678 0.570310
O O13 0.659444 0.853787 0.727214
O O14 0.406631 0.397309 0.527668
O O15 0.000000 0.572035 0.750000
#
# Coordination Sequence:
#
# PCOD9258381 Si02
#       6
#     8   8   8   8   8   8
#     4  12  24  41  64  86 112 159 204 239 286 362
#     4   9  15  28  47  77 115 145 185 240 289 334
#     4  12  25  39  56  85 119 148 187 245 298 342
#     4  10  18  33  57  80 110 149 196 233 281 340
#     4  10  18  33  55  82 114 152 186 241 291 343
#     4   9  16  25  45  79 117 144 182 234 302 333
#
# _framework density 17.902405000000002
#
# number of rings (size 3 to 8) (size 9 to 14) (size 15 to 20)
#    0.000    1.667    5.000    3.500    0.000    0.000 
#    0.000    0.000    0.000    0.000    0.000    5.833 
#    0.000    0.000    0.000    0.000    0.000    0.000 
#
# Total GULP energy -133752.818529 kJ/mol
# GULP energy per Si atom -5573.034105 kJ/mol
# Density = 1.786166 g / cm^3
# Si number density = 17.902405 Si / 1000 Ang^3
#
#
#
# Elastic Constant Matrix: (Units=GPa)
#
#
# Indices 1 2 3 4 5 6 
#
# 1 55.4497 22.3881 29.6624 0.0000 -0.2435 0.0000
# 2 22.3881 112.6073 28.1120 0.0000 -4.8630 0.0000
# 3 29.6624 28.1120 127.1257 0.0000 9.2059 0.0000
# 4 0.0000 0.0000 0.0000 30.5367 0.0000 7.8398
# 5 -0.2435 -4.8630 9.2059 0.0000 23.7925 0.0000
# 6 0.0000 0.0000 0.0000 7.8398 0.0000 11.3265
#
#
#
# Elastic Compliance Matrix: (Units=1/GPa)
#
#
# Indices 1 2 3 4 5 6 
#
# 1 0.021696 -0.003143 -0.004462 0.000000 0.001306 0.000000
# 2 -0.003143 0.010040 -0.001680 0.000000 0.002670 0.000000
# 3 -0.004462 -0.001680 0.009575 0.000000 -0.004094 0.000000
# 4 0.000000 0.000000 0.000000 0.039825 0.000000 -0.027565
# 5 0.001306 0.002670 -0.004094 0.000000 0.044173 0.000000
# 6 0.000000 0.000000 0.000000 -0.027565 0.000000 0.107369
#
#
# Mechanical properties :
#
#
# Convention : Reuss Voigt Hill
#
# Bulk Modulus (GPa) = 43.97348 50.61194 47.29271
# Shear Modulus (GPa) = 19.31781 27.46581 23.39181
#
# Velocity S-wave (km/s) = 3.28847 3.92113 3.61865
# Velocity P-wave (km/s) = 6.24779 6.98804 6.62826
#
# Compressibility (1/GPa) = 0.02274098
#
# Stress axis : x y z
#
# Youngs Moduli (GPa) = 46.09141 99.60068 104.43504
#
# Poissons Ratio (x) = 0.31307 0.46597
# Poissons Ratio (y) = 0.14488 0.17547
# Poissons Ratio (z) = 0.20565 0.16735
#
# Static dielectric constant tensor:
#      x y z
#    x 1.574020 0.000000 0.002600 
#    y 0.000000 1.668930 0.000000 
#    z 0.002600 0.000000 1.600210 
# 
# From -- ./inp_files/194300.got.cif
#   From: 2010.05.17/outbox.cif.g08.bks.cpg/sg15_98_cif.got.tgz:194300.got - 2010.06.03 18:47:42.
