data_PCOD9258279
_publ_section_title
;
Structure prediction by ZEFSAII (Michael W. Deem and Ramdas Pophale) SiO2 
 PCOD9258279
Probable space group: C 2/C
;
_chemical_formula_sum "Si O2"
_cell_formula_units_Z 56
_cell_length_a 23.850262
_cell_length_b 15.934582
_cell_length_c 16.835647
_cell_angle_alpha 90.000000
_cell_angle_beta 21.355195
_cell_angle_gamma 90.000000
_cell_volume 2329.926795
_symmetry_space_group_name_H-M "C 2/C"
_symmetry_group_IT_number 15
_symmetry_cell_setting 'monoclinic'
loop_
_space_group_symop_operation_xyz
x,y,z
-x,y,1/2-z
-x,-y,-z
x,-y,1/2+z
1/2+x,1/2+y,z
1/2-x,1/2+y,1/2-z
1/2-x,1/2-y,-z
1/2+x,1/2-y,1/2+z
loop_
_atom_site_type_symbol
_atom_site_label
_atom_site_fract_x
_atom_site_fract_y
_atom_site_fract_z
Si Si1 0.183637 0.655098 0.356421
Si Si2 0.475358 0.549545 0.950964
Si Si3 0.424807 0.147344 0.467717
Si Si4 0.150195 0.778949 0.256512
Si Si5 0.167630 0.262322 0.025793
Si Si6 0.174812 0.913209 0.436142
Si Si7 0.943034 0.482816 0.165513
O O1 0.307811 0.591491 0.156633
O O2 0.139709 0.731947 0.356885
O O3 0.260671 0.685968 0.336734
O O4 0.033498 0.600271 0.569236
O O5 0.467525 0.471001 0.901370
O O6 0.500000 0.500000 0.000000
O O7 0.581378 0.631450 0.819681
O O8 0.331906 0.196393 0.521715
O O9 0.553017 0.210742 0.334061
O O10 0.291207 0.113580 0.708037
O O11 0.514258 0.060387 0.335223
O O12 0.000000 0.303001 0.250000
O O13 0.250000 0.250000 0.000000
O O14 0.135705 0.174816 0.025169
O O15 0.267245 0.962418 0.382698
O O16 0.000000 0.500000 0.000000
#
# Coordination Sequence:
#
# PCOD9258279 Si02
#       7
#     8   8   8   8   8   8   8
#     4  12  21  37  57  81 123 162 203 250 301 368
#     4  12  21  31  57  84 110 158 202 264 316 344
#     4  11  20  32  52  83 115 153 187 240 317 369
#     4  12  20  30  53  81 117 152 185 243 311 374
#     4  12  28  41  59  85 126 182 214 233 280 367
#     4  11  20  37  55  78 115 158 210 253 293 352
#     4  10  18  33  53  80 110 156 187 243 320 358
#
# _framework density 24.03509
#
# number of rings (size 3 to 8) (size 9 to 14) (size 15 to 20)
#    0.000    0.571   10.000    0.857    4.000    0.000 
#    0.000    0.000    0.000    0.000    0.000    0.000 
#    0.000   11.429    0.000    0.000    0.000    0.000 
#
# Total GULP energy -155963.913981 kJ/mol
# GULP energy per Si atom -5570.139785 kJ/mol
# Density = 2.398038 g / cm^3
# Si number density = 24.035090 Si / 1000 Ang^3
#
#
#
# Elastic Constant Matrix: (Units=GPa)
#
#
# Indices 1 2 3 4 5 6 
#
# 1 94.7555 37.8609 21.7887 0.0000 -32.3421 0.0000
# 2 37.8609 135.9126 2.7972 0.0000 -11.0903 0.0000
# 3 21.7887 2.7972 39.5160 -0.0003 -22.9817 0.0002
# 4 0.0000 0.0000 -0.0003 32.5836 0.0002 -28.3157
# 5 -32.3421 -11.0903 -22.9817 0.0002 37.1726 -0.0001
# 6 0.0000 0.0000 0.0002 -28.3157 -0.0001 47.4101
#
#
#
# Elastic Compliance Matrix: (Units=1/GPa)
#
#
# Indices 1 2 3 4 5 6 
#
# 1 0.016574 -0.003580 -0.001749 0.000000 0.012271 0.000000
# 2 -0.003580 0.008352 0.001593 0.000000 0.000362 0.000000
# 3 -0.001749 0.001593 0.039893 0.000000 0.023618 0.000000
# 4 0.000000 0.000000 0.000000 0.063808 0.000000 0.038109
# 5 0.012271 0.000362 0.023618 0.000000 0.052288 0.000000
# 6 0.000000 0.000000 0.000000 0.038109 0.000000 0.043853
#
#
# Mechanical properties :
#
#
# Convention : Reuss Voigt Hill
#
# Bulk Modulus (GPa) = 17.43716 43.89752 30.66734
# Shear Modulus (GPa) = 19.89215 37.28240 28.58727
#
# Velocity S-wave (km/s) = 2.87998 3.94276 3.45251
# Velocity P-wave (km/s) = 4.28131 6.24745 5.35539
#
# Compressibility (1/GPa) = 0.05734877
#
# Stress axis : x y z
#
# Youngs Moduli (GPa) = 60.33372 119.73690 25.06694
#
# Poissons Ratio (x) = 0.42863 0.04384
# Poissons Ratio (y) = 0.21598 -0.03994
# Poissons Ratio (z) = 0.10551 -0.19078
#
# Static dielectric constant tensor:
#      x y z
#    x 1.959140 0.000000 0.021890 
#    y 0.000000 1.884130 0.000000 
#    z 0.021890 0.000000 1.892390 
# 
# From -- ./inp_files/215705.got.cif
#   From: 2010.05.17/outbox.cif.g08.bks.cpg/sg15_108_cif.got.tgz:215705.got - 2010.06.03 18:47:42.
