data_PCOD9258364
_publ_section_title
;
Structure prediction by ZEFSAII (Michael W. Deem and Ramdas Pophale) SiO2 
 PCOD9258364
Probable space group: C 2/C
;
_chemical_formula_sum "Si O2"
_cell_formula_units_Z 60
_cell_length_a 28.544571
_cell_length_b 23.527581
_cell_length_c 13.783302
_cell_angle_alpha 90.000000
_cell_angle_beta 158.243199
_cell_angle_gamma 90.000000
_cell_volume 3431.142810
_symmetry_space_group_name_H-M "C 2/C"
_symmetry_group_IT_number 15
_symmetry_cell_setting 'monoclinic'
loop_
_space_group_symop_operation_xyz
x,y,z
-x,y,1/2-z
-x,-y,-z
x,-y,1/2+z
1/2+x,1/2+y,z
1/2-x,1/2+y,1/2-z
1/2-x,1/2-y,-z
1/2+x,1/2-y,1/2+z
loop_
_atom_site_type_symbol
_atom_site_label
_atom_site_fract_x
_atom_site_fract_y
_atom_site_fract_z
Si Si1 0.336766 0.583179 0.767165
Si Si2 0.858085 0.208351 0.747951
Si Si3 0.500000 0.458369 0.750000
Si Si4 0.587670 0.196026 0.012914
Si Si5 0.069824 0.469743 0.783539
Si Si6 0.834593 0.048064 0.547083
Si Si7 0.617014 0.325917 0.412776
Si Si8 0.955016 0.426028 0.975261
O O1 0.304987 0.649468 0.688433
O O2 0.214490 0.548820 0.566778
O O3 0.378286 0.556346 0.743342
O O4 0.438393 0.578160 0.046539
O O5 0.750000 0.250000 0.500000
O O6 0.935871 0.246159 0.972495
O O7 0.922797 0.189372 0.773404
O O8 0.397771 0.497740 0.609079
O O9 0.740529 0.195499 0.288362
O O10 0.556945 0.139588 0.017420
O O11 0.500000 0.193619 0.750000
O O12 0.020102 0.436707 0.591124
O O13 0.000000 0.457305 0.750000
O O14 0.052919 0.536470 0.725241
O O15 0.868718 0.106123 0.557391
O O16 0.682416 0.046437 0.264433
O O17 0.500000 0.305265 0.250000
#
# Coordination Sequence:
#
# PCOD9258364 Si02
#       8
#     8   8   4   8   8   8   8   8
#     4  10  22  34  52  79 111 145 181 223 271 338
#     4   9  19  38  58  76 105 149 192 226 274 338
#     4  12  20  30  52  78 112 138 174 220 272 328
#     4  10  20  35  59  81 109 146 188 235 287 326
#     4  10  18  33  55  78 111 141 176 220 281 337
#     4   9  18  34  52  77 108 144 179 210 275 334
#     4   9  17  35  59  80 102 146 194 225 265 338
#     4   9  19  34  54  81 110 137 181 233 271 335
#
# _framework density 17.486885000000001
#
# number of rings (size 3 to 8) (size 9 to 14) (size 15 to 20)
#    0.000    2.400    0.667    4.000    0.933    1.067 
#    0.000    6.667    2.933    0.000    0.000    0.000 
#    0.000    0.000    0.000    0.000    0.000    0.000 
#
# Total GULP energy -167024.164230 kJ/mol
# GULP energy per Si atom -5567.472141 kJ/mol
# Density = 1.744708 g / cm^3
# Si number density = 17.486885 Si / 1000 Ang^3
#
#
#
# Elastic Constant Matrix: (Units=GPa)
#
#
# Indices 1 2 3 4 5 6 
#
# 1 78.9667 21.0120 32.5557 0.0000 4.5208 0.0000
# 2 21.0120 69.5388 24.5773 0.0000 1.3691 0.0000
# 3 32.5557 24.5773 62.9961 0.0000 -11.3683 0.0000
# 4 0.0000 0.0000 0.0000 18.8273 0.0000 -8.1731
# 5 4.5208 1.3691 -11.3683 0.0000 25.1691 0.0000
# 6 0.0000 0.0000 0.0000 -8.1731 0.0000 7.6510
#
#
#
# Elastic Compliance Matrix: (Units=1/GPa)
#
#
# Indices 1 2 3 4 5 6 
#
# 1 0.017571 -0.001712 -0.009761 0.000000 -0.007472 0.000000
# 2 -0.001712 0.017263 -0.006493 0.000000 -0.003564 0.000000
# 3 -0.009761 -0.006493 0.025947 0.000000 0.013826 0.000000
# 4 0.000000 0.000000 0.000000 0.099045 0.000000 0.105805
# 5 -0.007472 -0.003564 0.013826 0.000000 0.047512 0.000000
# 6 0.000000 0.000000 0.000000 0.105805 0.000000 0.243728
#
#
# Mechanical properties :
#
#
# Convention : Reuss Voigt Hill
#
# Bulk Modulus (GPa) = 40.24514 40.86574 40.55544
# Shear Modulus (GPa) = 10.09527 19.21992 14.65759
#
# Velocity S-wave (km/s) = 2.40532 3.31887 2.89832
# Velocity P-wave (km/s) = 5.54784 6.17306 5.86878
#
# Compressibility (1/GPa) = 0.02484772
#
# Stress axis : x y z
#
# Youngs Moduli (GPa) = 56.91180 57.92741 38.54069
#
# Poissons Ratio (x) = 0.09920 0.37619
# Poissons Ratio (y) = 0.09746 0.25025
# Poissons Ratio (z) = 0.55550 0.37614
#
# Static dielectric constant tensor:
#      x y z
#    x 1.614850 0.000000 -0.015490 
#    y 0.000000 1.605870 0.000000 
#    z -0.015490 0.000000 1.614800 
# 
# From -- ./inp_files/183206.got.cif
#   From: 2010.05.17/outbox.cif.g08.bks.cpg/sg15_92_cif.got.tgz:183206.got - 2010.06.03 18:47:42.
