data_PCOD9258338
_publ_section_title
;
Structure prediction by ZEFSAII (Michael W. Deem and Ramdas Pophale) SiO2 
 PCOD9258338
Probable space group: C 2/C
;
_chemical_formula_sum "Si O2"
_cell_formula_units_Z 56
_cell_length_a 26.681404
_cell_length_b 5.241998
_cell_length_c 21.909632
_cell_angle_alpha 90.000000
_cell_angle_beta 119.604365
_cell_angle_gamma 90.000000
_cell_volume 2664.335242
_symmetry_space_group_name_H-M "C 2/C"
_symmetry_group_IT_number 15
_symmetry_cell_setting 'monoclinic'
loop_
_space_group_symop_operation_xyz
x,y,z
-x,y,1/2-z
-x,-y,-z
x,-y,1/2+z
1/2+x,1/2+y,z
1/2-x,1/2+y,1/2-z
1/2-x,1/2-y,-z
1/2+x,1/2-y,1/2+z
loop_
_atom_site_type_symbol
_atom_site_label
_atom_site_fract_x
_atom_site_fract_y
_atom_site_fract_z
Si Si1 0.742862 0.574627 0.908689
Si Si2 0.173960 0.803286 0.072422
Si Si3 0.543100 0.205935 0.588677
Si Si4 0.659631 0.697357 0.955249
Si Si5 0.427313 0.936266 0.523276
Si Si6 0.730741 0.787082 0.775261
Si Si7 0.887833 0.182919 0.841879
O O1 0.761587 0.307031 0.890986
O O2 0.680982 0.601336 0.902766
O O3 0.751895 0.768695 0.857973
O O4 0.789440 0.610811 0.991463
O O5 0.150829 0.903762 0.122671
O O6 0.130215 0.563869 0.038253
O O7 0.163268 0.976936 0.007916
O O8 0.549318 0.239143 0.518410
O O9 0.568062 0.450257 0.638115
O O10 0.476801 0.143686 0.562524
O O11 0.578117 0.947025 0.626605
O O12 0.596389 0.810977 0.929031
O O13 0.760269 0.552130 0.755603
O O14 0.662293 0.728193 0.737052
#
# Coordination Sequence:
#
# PCOD9258338 Si02
#       7
#     8   8   8   8   8   8   8
#     4  10  22  35  54  88 115 157 190 241 293 363
#     4  10  18  33  54  82 117 148 185 236 296 351
#     4  10  21  35  55  85 116 146 191 242 291 335
#     4  10  19  36  57  82 121 148 195 237 303 354
#     4   9  20  31  54  84 111 148 188 238 295 345
#     4  12  24  39  61  85 117 159 194 237 291 356
#     4  11  21  35  57  82 117 149 190 239 283 346
#
# _framework density 21.018377000000001
#
# number of rings (size 3 to 8) (size 9 to 14) (size 15 to 20)
#    0.000    1.714    2.857    2.143    4.000    1.714 
#    0.000    0.000    0.000    0.857    0.000    0.000 
#    0.000    0.000    0.000    0.000    0.000    0.000 
#
# Total GULP energy -156060.613557 kJ/mol
# GULP energy per Si atom -5573.593341 kJ/mol
# Density = 2.097054 g / cm^3
# Si number density = 21.018377 Si / 1000 Ang^3
#
#
#
# Elastic Constant Matrix: (Units=GPa)
#
#
# Indices 1 2 3 4 5 6 
#
# 1 124.6312 18.6620 14.9393 -0.0006 -0.5944 0.0005
# 2 18.6620 80.5898 2.1538 -0.0016 0.6462 0.0050
# 3 14.9393 2.1538 43.0591 0.0001 3.3315 -0.0001
# 4 -0.0006 -0.0016 0.0001 15.0666 0.0006 7.7530
# 5 -0.5944 0.6462 3.3315 0.0006 26.0599 0.0003
# 6 0.0005 0.0050 -0.0001 7.7530 0.0003 27.9293
#
#
#
# Elastic Compliance Matrix: (Units=1/GPa)
#
#
# Indices 1 2 3 4 5 6 
#
# 1 0.008671 -0.001934 -0.002960 0.000000 0.000624 0.000000
# 2 -0.001934 0.012858 0.000056 0.000003 -0.000370 -0.000003
# 3 -0.002960 0.000056 0.024496 0.000000 -0.003200 0.000000
# 4 0.000000 0.000003 0.000000 0.077433 -0.000002 -0.021495
# 5 0.000624 -0.000370 -0.003200 -0.000002 0.038806 0.000000
# 6 0.000000 -0.000003 0.000000 -0.021495 0.000000 0.041772
#
#
# Mechanical properties :
#
#
# Convention : Reuss Voigt Hill
#
# Bulk Modulus (GPa) = 27.51049 35.53227 31.52138
# Shear Modulus (GPa) = 22.14092 27.97947 25.06020
#
# Velocity S-wave (km/s) = 3.24915 3.65251 3.45671
# Velocity P-wave (km/s) = 5.21470 5.89320 5.56430
#
# Compressibility (1/GPa) = 0.03634977
#
# Stress axis : x y z
#
# Youngs Moduli (GPa) = 115.32661 77.77382 40.82354
#
# Poissons Ratio (x) = 0.15040 0.12084
# Poissons Ratio (y) = 0.22302 -0.00230
# Poissons Ratio (z) = 0.34136 -0.00439
#
# Static dielectric constant tensor:
#      x y z
#    x 1.813030 0.000000 0.020850 
#    y 0.000000 1.874370 0.000000 
#    z 0.020850 0.000000 1.814870 
# 
# From -- ./inp_files/256617.got.cif
#   From: 2010.05.17/outbox.cif.g08.bks.cpg/sg15_129_cif.got.tgz:256617.got - 2010.06.03 18:47:42.
