data_PCOD9258259
_publ_section_title
;
Structure prediction by ZEFSAII (Michael W. Deem and Ramdas Pophale) SiO2 
 PCOD9258259
Probable space group: C 2/C
;
_chemical_formula_sum "Si O2"
_cell_formula_units_Z 60
_cell_length_a 16.933665
_cell_length_b 28.025597
_cell_length_c 5.464705
_cell_angle_alpha 90.000000
_cell_angle_beta 86.129529
_cell_angle_gamma 90.000000
_cell_volume 2587.503160
_symmetry_space_group_name_H-M "C 2/C"
_symmetry_group_IT_number 15
_symmetry_cell_setting 'monoclinic'
loop_
_space_group_symop_operation_xyz
x,y,z
-x,y,1/2-z
-x,-y,-z
x,-y,1/2+z
1/2+x,1/2+y,z
1/2-x,1/2+y,1/2-z
1/2-x,1/2-y,-z
1/2+x,1/2-y,1/2+z
loop_
_atom_site_type_symbol
_atom_site_label
_atom_site_fract_x
_atom_site_fract_y
_atom_site_fract_z
Si Si1 0.876712 0.516459 0.423690
Si Si2 0.254049 0.801829 0.735225
Si Si3 0.118520 0.832555 0.434862
Si Si4 0.282114 0.450928 0.034289
Si Si5 0.124469 0.755468 0.068484
Si Si6 0.549487 0.439545 0.487852
Si Si7 0.000000 0.764624 0.750000
Si Si8 0.267839 0.097695 0.456083
O O1 0.915649 0.501056 0.163726
O O2 0.791030 0.487962 0.443835
O O3 0.853505 0.571950 0.434504
O O4 0.208331 0.823522 0.511729
O O5 0.338582 0.775450 0.718789
O O6 0.193362 0.762588 0.854416
O O7 0.266574 0.846081 0.916717
O O8 0.108544 0.808903 0.171254
O O9 0.085014 0.885615 0.463527
O O10 0.063255 0.799549 0.613871
O O11 0.370618 0.471223 0.025292
O O12 0.274502 0.423513 0.777462
O O13 0.270121 0.418809 0.280411
O O14 0.046877 0.736616 0.950471
O O15 0.500000 0.443496 0.750000
O O16 0.500000 0.447639 0.250000
#
# Coordination Sequence:
#
# PCOD9258259 Si02
#       8
#     8   8   8   8   8   8   4   8
#     4   8  16  29  50  70  90 127 167 204 255 316
#     4  10  21  33  51  78  98 130 171 224 267 310
#     4  11  20  34  51  70  98 136 176 218 261 306
#     4  10  19  33  51  71  98 131 171 215 267 302
#     4  10  21  35  51  74 104 129 173 215 269 313
#     4  12  23  32  49  74  96 131 180 224 256 307
#     4  10  20  34  50  70  96 138 170 204 260 320
#     4  10  18  33  53  73  96 131 168 209 267 314
#
# _framework density 23.188379000000001
#
# number of rings (size 3 to 8) (size 9 to 14) (size 15 to 20)
#    0.000    1.867    2.000    3.200    1.867    0.000 
#    0.000    0.000    0.000   21.600    0.000    0.000 
#    0.000    0.000    0.000   10.800    0.000    0.800 
#
# Total GULP energy -167469.759719 kJ/mol
# GULP energy per Si atom -5582.325324 kJ/mol
# Density = 2.313560 g / cm^3
# Si number density = 23.188379 Si / 1000 Ang^3
#
#
#
# Elastic Constant Matrix: (Units=GPa)
#
#
# Indices 1 2 3 4 5 6 
#
# 1 85.9379 30.0082 38.7943 0.0000 26.0652 0.0000
# 2 30.0082 75.7810 23.9264 0.0000 6.4238 0.0000
# 3 38.7943 23.9264 156.3602 0.0000 14.7887 0.0000
# 4 0.0000 0.0000 0.0000 25.1036 0.0000 -1.5279
# 5 26.0652 6.4238 14.7887 0.0000 30.9154 0.0000
# 6 0.0000 0.0000 0.0000 -1.5279 0.0000 2.7170
#
#
#
# Elastic Compliance Matrix: (Units=1/GPa)
#
#
# Indices 1 2 3 4 5 6 
#
# 1 0.018795 -0.005495 -0.002547 0.000000 -0.013487 0.000000
# 2 -0.005495 0.015586 -0.001208 0.000000 0.001973 0.000000
# 3 -0.002547 -0.001208 0.007316 0.000000 -0.001102 0.000000
# 4 0.000000 0.000000 0.000000 0.041247 0.000000 0.023195
# 5 -0.013487 0.001973 -0.001102 0.000000 0.043834 0.000000
# 6 0.000000 0.000000 0.000000 0.023195 0.000000 0.381094
#
#
# Mechanical properties :
#
#
# Convention : Reuss Voigt Hill
#
# Bulk Modulus (GPa) = 43.10827 55.94857 49.52842
# Shear Modulus (GPa) = 9.36144 26.77056 18.06600
#
# Velocity S-wave (km/s) = 2.01144 3.40145 2.79426
# Velocity P-wave (km/s) = 4.90157 6.29339 5.64057
#
# Compressibility (1/GPa) = 0.02319741
#
# Stress axis : x y z
#
# Youngs Moduli (GPa) = 53.20450 64.15912 136.67851
#
# Poissons Ratio (x) = 0.35258 0.34810
# Poissons Ratio (y) = 0.29238 0.16513
# Poissons Ratio (z) = 0.13550 0.07751
#
# Static dielectric constant tensor:
#      x y z
#    x 1.914990 0.000000 0.016720 
#    y 0.000000 1.916450 0.000000 
#    z 0.016720 0.000000 1.949410 
# 
# From -- ./inp_files/12021.got.cif
#   From: 2010.05.17/outbox.cif.g08.bks.cpg/sg15_7_cif.got.tgz:12021.got - 2010.06.03 18:47:42.
