data_PCOD9258854
_publ_section_title
;
Structure prediction by ZEFSAII (Michael W. Deem and Ramdas Pophale) SiO2 
 PCOD9258854
Probable space group: C 2/C
;
_chemical_formula_sum "Si O2"
_cell_formula_units_Z 40
_cell_length_a 7.196903
_cell_length_b 14.378655
_cell_length_c 18.021643
_cell_angle_alpha 90.000000
_cell_angle_beta 81.675738
_cell_angle_gamma 90.000000
_cell_volume 1845.264149
_symmetry_space_group_name_H-M "C 2/C"
_symmetry_group_IT_number 15
_symmetry_cell_setting 'monoclinic'
loop_
_space_group_symop_operation_xyz
x,y,z
-x,y,1/2-z
-x,-y,-z
x,-y,1/2+z
1/2+x,1/2+y,z
1/2-x,1/2+y,1/2-z
1/2-x,1/2-y,-z
1/2+x,1/2-y,1/2+z
loop_
_atom_site_type_symbol
_atom_site_label
_atom_site_fract_x
_atom_site_fract_y
_atom_site_fract_z
Si Si1 0.199328 0.361297 0.703120
Si Si2 0.203976 0.560013 0.899239
Si Si3 0.090221 0.592177 0.058840
Si Si4 0.858039 0.966994 0.126049
Si Si5 0.225704 0.834330 0.251274
O O1 0.145303 0.335786 0.620164
O O2 0.333825 0.449558 0.687819
O O3 0.279097 0.272764 0.740098
O O4 0.000000 0.389371 0.750000
O O5 0.426242 0.552706 0.900287
O O6 0.182486 0.605850 0.819775
O O7 0.104100 0.459203 0.910241
O O8 0.111555 0.618239 0.972325
O O9 0.242980 0.509129 0.064377
O O10 0.755434 0.879780 0.169505
O O11 0.000000 0.836384 0.250000
#
# Coordination Sequence:
#
# PCOD9258854 Si02
#       5
#     8   8   8   8   8
#     4   9  18  33  54  79 105 140 179 217 266 309
#     4  10  18  34  56  81 105 146 176 212 274 319
#     4   9  20  32  58  78 109 140 177 221 265 316
#     4   9  19  34  58  75 110 144 176 221 260 322
#     4   9  18  32  56  77 104 142 180 215 265 317
#
# _framework density 21.677111
#
# number of rings (size 3 to 8) (size 9 to 14) (size 15 to 20)
#    1.200    1.600    0.000    1.800    0.000    0.800 
#    0.000    0.000   39.600    2.400    0.000    0.000 
#    0.000    0.000    0.000    0.000    0.000    0.000 
#
# Total GULP energy -111403.659889 kJ/mol
# GULP energy per Si atom -5570.182994 kJ/mol
# Density = 2.162777 g / cm^3
# Si number density = 21.677111 Si / 1000 Ang^3
#
#
#
# Elastic Constant Matrix: (Units=GPa)
#
#
# Indices 1 2 3 4 5 6 
#
# 1 67.1291 -8.8410 6.6621 0.0000 -13.2352 0.0000
# 2 -8.8410 58.4815 19.0752 0.0000 -11.9760 0.0000
# 3 6.6621 19.0752 78.3883 0.0000 -28.4742 0.0000
# 4 0.0000 0.0000 0.0000 15.4154 0.0000 6.4158
# 5 -13.2352 -11.9760 -28.4742 0.0000 19.9320 0.0000
# 6 0.0000 0.0000 0.0000 6.4158 0.0000 9.6297
#
#
#
# Elastic Compliance Matrix: (Units=1/GPa)
#
#
# Indices 1 2 3 4 5 6 
#
# 1 0.020298 0.006407 0.006257 0.000000 0.026266 0.000000
# 2 0.006407 0.021560 0.000956 0.000000 0.018574 0.000000
# 3 0.006257 0.000956 0.028499 0.000000 0.045442 0.000000
# 4 0.000000 0.000000 0.000000 0.089760 0.000000 -0.059803
# 5 0.026266 0.018574 0.045442 0.000000 0.143688 0.000000
# 6 0.000000 0.000000 0.000000 -0.059803 0.000000 0.143690
#
#
# Mechanical properties :
#
#
# Convention : Reuss Voigt Hill
#
# Bulk Modulus (GPa) = 10.24637 26.42128 18.33382
# Shear Modulus (GPa) = 11.04269 21.46894 16.25582
#
# Velocity S-wave (km/s) = 2.25948 3.15047 2.74141
# Velocity P-wave (km/s) = 3.39765 5.04470 4.30076
#
# Compressibility (1/GPa) = 0.09759556
#
# Stress axis : x y z
#
# Youngs Moduli (GPa) = 49.26574 46.38286 35.08881
#
# Poissons Ratio (x) = -0.29715 -0.21955
# Poissons Ratio (y) = -0.31562 -0.03354
# Poissons Ratio (z) = -0.30825 -0.04434
#
# Static dielectric constant tensor:
#      x y z
#    x 1.802360 0.000000 0.023030 
#    y 0.000000 1.801050 0.000000 
#    z 0.023030 0.000000 1.814610 
# 
# From -- ./inp_files/189403.got.cif
#   From: 2010.05.17/outbox.cif.g08.bks.cpg/sg15_95_cif.got.tgz:189403.got - 2010.06.03 18:47:42.
