data_PCOD9258932
_publ_section_title
;
Structure prediction by ZEFSAII (Michael W. Deem and Ramdas Pophale) SiO2 
 PCOD9258932
Probable space group: C 2/C
;
_chemical_formula_sum "Si O2"
_cell_formula_units_Z 64
_cell_length_a 25.272094
_cell_length_b 11.481807
_cell_length_c 10.873311
_cell_angle_alpha 90.000000
_cell_angle_beta 92.550240
_cell_angle_gamma 90.000000
_cell_volume 3151.976260
_symmetry_space_group_name_H-M "C 2/C"
_symmetry_group_IT_number 15
_symmetry_cell_setting 'monoclinic'
loop_
_space_group_symop_operation_xyz
x,y,z
-x,y,1/2-z
-x,-y,-z
x,-y,1/2+z
1/2+x,1/2+y,z
1/2-x,1/2+y,1/2-z
1/2-x,1/2-y,-z
1/2+x,1/2-y,1/2+z
loop_
_atom_site_type_symbol
_atom_site_label
_atom_site_fract_x
_atom_site_fract_y
_atom_site_fract_z
Si Si1 0.543684 0.079830 0.360878
Si Si2 0.083729 0.322748 0.333793
Si Si3 0.485822 0.721706 0.972074
Si Si4 0.105905 0.256228 0.710093
Si Si5 0.285467 0.566078 0.009066
Si Si6 0.449913 0.627602 0.329780
Si Si7 0.823939 0.669101 0.499897
Si Si8 0.658202 0.487936 0.232211
O O1 0.500000 0.077201 0.250000
O O2 0.514785 0.153379 0.462819
O O3 0.591639 0.161106 0.320898
O O4 0.562349 0.948401 0.369279
O O5 0.058776 0.231272 0.427732
O O6 0.064674 0.262917 0.206691
O O7 0.145716 0.332384 0.366723
O O8 0.528773 0.630782 0.027491
O O9 0.450184 0.704700 0.847679
O O10 0.133253 0.334795 0.606446
O O11 0.142398 0.147499 0.744839
O O12 0.221875 0.573652 0.013753
O O13 0.312677 0.527195 0.139631
O O14 0.301562 0.700479 0.988365
O O15 0.306692 0.500646 0.889056
O O16 0.500000 0.590778 0.250000
O O17 0.396881 0.556563 0.297128
#
# Coordination Sequence:
#
# PCOD9258932 Si02
#       8
#     8   8   8   8   8   8   8   8
#     4  10  19  32  52  82 120 158 193 249 300 354
#     4  10  18  34  57  84 113 156 209 248 298 372
#     4   9  19  33  51  84 122 161 196 243 304 363
#     4   9  21  36  56  83 119 156 203 242 304 375
#     4  10  22  41  66  86 118 159 202 257 308 362
#     4  10  21  34  56  87 124 161 203 245 300 371
#     4   9  19  40  63  81 109 161 207 243 307 374
#     4  11  23  40  62  91 124 157 205 254 303 370
#
# _framework density 20.304721000000001
#
# number of rings (size 3 to 8) (size 9 to 14) (size 15 to 20)
#    0.000    2.250    1.250    1.500    3.500    5.000 
#    0.000    0.000    0.000    7.500    0.000    0.000 
#    0.000    0.000    0.000    0.000    0.000    0.000 
#
# Total GULP energy -178166.363401 kJ/mol
# GULP energy per Si atom -5567.698856 kJ/mol
# Density = 2.025851 g / cm^3
# Si number density = 20.304721 Si / 1000 Ang^3
#
#
#
# Elastic Constant Matrix: (Units=GPa)
#
#
# Indices 1 2 3 4 5 6 
#
# 1 110.6583 21.4622 40.3562 0.0000 -0.0253 0.0000
# 2 21.4622 45.8986 15.0549 0.0000 -4.5040 0.0000
# 3 40.3562 15.0549 66.8207 0.0000 -2.2799 0.0000
# 4 0.0000 0.0000 0.0000 14.1679 0.0000 -0.5043
# 5 -0.0253 -4.5040 -2.2799 0.0000 18.8938 0.0000
# 6 0.0000 0.0000 0.0000 -0.5043 0.0000 24.2338
#
#
#
# Elastic Compliance Matrix: (Units=1/GPa)
#
#
# Indices 1 2 3 4 5 6 
#
# 1 0.012144 -0.003689 -0.006560 0.000000 -0.001655 0.000000
# 2 -0.003689 0.025124 -0.003242 0.000000 0.005593 0.000000
# 3 -0.006560 -0.003242 0.019712 0.000000 0.001597 0.000000
# 4 0.000000 0.000000 0.000000 0.070635 0.000000 0.001470
# 5 -0.001655 0.005593 0.001597 0.000000 0.054451 0.000000
# 6 0.000000 0.000000 0.000000 0.001470 0.000000 0.041295
#
#
# Mechanical properties :
#
#
# Convention : Reuss Voigt Hill
#
# Bulk Modulus (GPa) = 33.33411 41.90267 37.61839
# Shear Modulus (GPa) = 19.20542 21.22604 20.21573
#
# Velocity S-wave (km/s) = 3.07882 3.23673 3.15876
# Velocity P-wave (km/s) = 5.39365 5.88645 5.64543
#
# Compressibility (1/GPa) = 0.02999930
#
# Stress axis : x y z
#
# Youngs Moduli (GPa) = 82.34312 39.80184 50.73057
#
# Poissons Ratio (x) = 0.14685 0.33278
# Poissons Ratio (y) = 0.30380 0.16444
# Poissons Ratio (z) = 0.54015 0.12902
#
# Static dielectric constant tensor:
#      x y z
#    x 1.781990 0.000000 -0.011740 
#    y 0.000000 1.757720 0.000000 
#    z -0.011740 0.000000 1.772920 
# 
# From -- ./inp_files/122462.got.cif
#   From: 2010.05.17/outbox.cif.g08.bks.cpg/sg15_62_cif.got.tgz:122462.got - 2010.06.03 18:47:42.
