data_PCOD9258185
_publ_section_title
;
Structure prediction by ZEFSAII (Michael W. Deem and Ramdas Pophale) SiO2 
 PCOD9258185
Probable space group: C 2/C
;
_chemical_formula_sum "Si O2"
_cell_formula_units_Z 52
_cell_length_a 24.905289
_cell_length_b 27.638496
_cell_length_c 5.204927
_cell_angle_alpha 90.000000
_cell_angle_beta 78.730795
_cell_angle_gamma 90.000000
_cell_volume 3513.707397
_symmetry_space_group_name_H-M "C 2/C"
_symmetry_group_IT_number 15
_symmetry_cell_setting 'monoclinic'
loop_
_space_group_symop_operation_xyz
x,y,z
-x,y,1/2-z
-x,-y,-z
x,-y,1/2+z
1/2+x,1/2+y,z
1/2-x,1/2+y,1/2-z
1/2-x,1/2-y,-z
1/2+x,1/2-y,1/2+z
loop_
_atom_site_type_symbol
_atom_site_label
_atom_site_fract_x
_atom_site_fract_y
_atom_site_fract_z
Si Si1 0.793266 0.370803 0.960698
Si Si2 0.032905 0.434319 0.963254
Si Si3 0.388371 0.210966 0.389813
Si Si4 0.247034 0.170235 0.004316
Si Si5 0.842393 0.530523 0.193461
Si Si6 0.500000 0.839037 0.750000
Si Si7 0.841148 0.752802 0.929179
O O1 0.846398 0.335083 0.925564
O O2 0.751501 0.350381 0.786468
O O3 0.812151 0.422311 0.833240
O O4 0.765552 0.367337 0.266744
O O5 0.093780 0.454039 0.885924
O O6 0.028069 0.376103 0.926774
O O7 0.000000 0.453591 0.750000
O O8 0.000000 0.444784 0.250000
O O9 0.449193 0.192374 0.390713
O O10 0.369982 0.247523 0.629084
O O11 0.380470 0.236875 0.123551
O O12 0.293092 0.212374 0.960754
O O13 0.189780 0.196553 0.001559
O O14 0.831000 0.489043 0.417256
#
# Coordination Sequence:
#
# PCOD9258185 Si02
#       7
#     8   8   8   8   8   4   8
#     4  10  18  33  47  64  80 117 135 188 224 286
#     4  10  22  35  47  58  79 109 162 188 236 269
#     4  10  19  29  47  60  92 107 151 176 227 257
#     4   9  17  29  50  63  88 100 139 166 240 271
#     4  12  24  35  47  64  86 110 151 201 240 271
#     4  10  22  32  48  64  84 126 154 190 218 292
#     4   9  18  29  43  72  82 108 127 189 217 271
#
# _framework density 14.799182
#
# number of rings (size 3 to 8) (size 9 to 14) (size 15 to 20)
#    0.462    1.538    1.538    2.769    2.154    6.769 
#    0.000    0.000    0.000    0.000    0.000    0.000 
#    0.000    0.000    0.000    0.000    0.000    0.000 
#
# Total GULP energy -144826.176558 kJ/mol
# GULP energy per Si atom -5570.237560 kJ/mol
# Density = 1.476550 g / cm^3
# Si number density = 14.799182 Si / 1000 Ang^3
#
#
#
# Elastic Constant Matrix: (Units=GPa)
#
#
# Indices 1 2 3 4 5 6 
#
# 1 23.0124 15.0193 6.7399 0.0000 -4.5118 0.0000
# 2 15.0193 37.7577 13.1124 0.0000 -11.8893 0.0000
# 3 6.7399 13.1124 85.9494 0.0000 4.7867 0.0000
# 4 0.0000 0.0000 0.0000 3.0607 0.0000 -11.3287
# 5 -4.5118 -11.8893 4.7867 0.0000 14.5822 0.0000
# 6 0.0000 0.0000 0.0000 -11.3287 0.0000 19.6036
#
#
#
# Elastic Compliance Matrix: (Units=1/GPa)
#
#
# Indices 1 2 3 4 5 6 
#
# 1 0.058792 -0.023110 -0.001068 0.000000 -0.000302 0.000000
# 2 -0.023110 0.049681 -0.007767 0.000000 0.035905 0.000000
# 3 -0.001068 -0.007767 0.013522 0.000000 -0.011101 0.000000
# 4 0.000000 0.000000 0.000000 -0.286853 0.000000 -0.165769
# 5 -0.000302 0.035905 -0.011101 0.000000 0.101402 0.000000
# 6 0.000000 0.000000 0.000000 -0.165769 0.000000 -0.044786
#
#
# Mechanical properties :
#
#
# Convention : Reuss Voigt Hill
#
# Bulk Modulus (GPa) = 17.21042 24.05142 20.63092
# Shear Modulus (GPa) = -200.11824 14.90581 -92.60622
#
# Velocity S-wave (km/s) = -11.64114 3.17709 -7.91903
# Velocity P-wave (km/s) = 13.00129 5.45396 8.34529
#
# Compressibility (1/GPa) = 0.05810432
#
# Stress axis : x y z
#
# Youngs Moduli (GPa) = 17.00925 20.12860 73.95568
#
# Poissons Ratio (x) = 0.46518 0.07897
# Poissons Ratio (y) = 0.39309 0.57439
# Poissons Ratio (z) = 0.01816 0.15633
#
# Static dielectric constant tensor:
#      x y z
#    x 1.474400 0.000000 0.019510 
#    y 0.000000 1.519620 0.000000 
#    z 0.019510 0.000000 1.497950 
# 
# From -- ./inp_files/16015.got.cif
#   From: 2010.05.17/outbox.cif.g08.bks.cpg/sg15_9_cif.got.tgz:16015.got - 2010.06.03 18:47:42.
