data_PCOD9258352
_publ_section_title
;
Structure prediction by ZEFSAII (Michael W. Deem and Ramdas Pophale) SiO2 
 PCOD9258352
Probable space group: C 2/C
;
_chemical_formula_sum "Si O2"
_cell_formula_units_Z 56
_cell_length_a 10.005809
_cell_length_b 18.528085
_cell_length_c 18.521758
_cell_angle_alpha 90.000000
_cell_angle_beta 121.065784
_cell_angle_gamma 90.000000
_cell_volume 2941.240546
_symmetry_space_group_name_H-M "C 2/C"
_symmetry_group_IT_number 15
_symmetry_cell_setting 'monoclinic'
loop_
_space_group_symop_operation_xyz
x,y,z
-x,y,1/2-z
-x,-y,-z
x,-y,1/2+z
1/2+x,1/2+y,z
1/2-x,1/2+y,1/2-z
1/2-x,1/2-y,-z
1/2+x,1/2-y,1/2+z
loop_
_atom_site_type_symbol
_atom_site_label
_atom_site_fract_x
_atom_site_fract_y
_atom_site_fract_z
Si Si1 0.178037 0.136880 0.065467
Si Si2 0.479881 0.674358 0.624272
Si Si3 0.070844 0.487189 0.598110
Si Si4 0.647237 0.790349 0.106666
Si Si5 0.644913 0.988675 0.830726
Si Si6 0.262872 0.096299 0.767028
Si Si7 0.512309 0.171115 0.083226
O O1 0.139459 0.203977 0.106513
O O2 0.346096 0.153668 0.075152
O O3 0.207736 0.062624 0.115159
O O4 0.061274 0.139302 0.964987
O O5 0.317694 0.690234 0.620169
O O6 0.592194 0.624801 0.701700
O O7 0.559956 0.752374 0.630586
O O8 0.212534 0.538145 0.661790
O O9 0.000000 0.500000 0.500000
O O10 0.930769 0.508024 0.613985
O O11 0.108365 0.402370 0.618220
O O12 0.637904 0.835060 0.177424
O O13 0.525368 0.815864 0.011670
O O14 0.500000 0.948035 0.750000
O O15 0.680942 0.055663 0.789417
#
# Coordination Sequence:
#
# PCOD9258352 Si02
#       7
#     8   8   8   8   8   8   8
#     4   8  16  31  51  70 103 130 161 206 264 306
#     4   9  18  30  49  77 105 128 161 209 262 314
#     4  10  18  33  55  73  96 134 178 215 252 302
#     4   9  16  29  49  76  99 129 161 207 256 312
#     4   9  20  33  47  74 101 131 173 217 254 295
#     4  11  20  28  46  78 105 131 164 209 262 296
#     4   8  15  31  51  74  96 126 170 210 250 297
#
# _framework density 19.039586
#
# number of rings (size 3 to 8) (size 9 to 14) (size 15 to 20)
#    0.000    2.857    1.429    2.143    0.000    5.143 
#    0.000    0.000    0.000    0.857    0.000   12.000 
#    0.000    0.000    0.000    0.000    0.000    0.000 
#
# Total GULP energy -155875.920720 kJ/mol
# GULP energy per Si atom -5566.997169 kJ/mol
# Density = 1.899625 g / cm^3
# Si number density = 19.039586 Si / 1000 Ang^3
#
#
#
# Elastic Constant Matrix: (Units=GPa)
#
#
# Indices 1 2 3 4 5 6 
#
# 1 10.2321 22.6337 26.4888 0.0000 -3.0314 0.0000
# 2 22.6337 104.1425 66.6238 0.0000 4.2427 0.0000
# 3 26.4888 66.6238 113.8268 0.0000 -8.4549 0.0000
# 4 0.0000 0.0000 0.0000 40.6958 0.0000 2.2913
# 5 -3.0314 4.2427 -8.4549 0.0000 31.4526 0.0000
# 6 0.0000 0.0000 0.0000 2.2913 0.0000 24.7833
#
#
#
# Elastic Compliance Matrix: (Units=1/GPa)
#
#
# Indices 1 2 3 4 5 6 
#
# 1 0.318213 -0.037972 -0.050170 0.000000 0.022305 0.000000
# 2 -0.037972 0.020555 -0.003747 0.000000 -0.007440 0.000000
# 3 -0.050170 -0.003747 0.022787 0.000000 0.001796 0.000000
# 4 0.000000 0.000000 0.000000 0.024701 0.000000 -0.002284
# 5 0.022305 -0.007440 0.001796 0.000000 0.035430 0.000000
# 6 0.000000 0.000000 0.000000 -0.002284 0.000000 0.040561
#
#
# Mechanical properties :
#
#
# Convention : Reuss Voigt Hill
#
# Bulk Modulus (GPa) = 5.62500 51.07710 28.35105
# Shear Modulus (GPa) = 7.08934 26.88334 16.98634
#
# Velocity S-wave (km/s) = 1.93172 3.76170 2.99014
# Velocity P-wave (km/s) = 2.81713 6.76404 5.18114
#
# Compressibility (1/GPa) = 0.17777767
#
# Stress axis : x y z
#
# Youngs Moduli (GPa) = 3.14255 48.64978 43.88455
#
# Poissons Ratio (x) = 1.84731 2.20169
# Poissons Ratio (y) = 0.11933 0.16445
# Poissons Ratio (z) = 0.15766 0.18230
#
# Static dielectric constant tensor:
#      x y z
#    x 1.673080 0.000000 -0.005880 
#    y 0.000000 1.733790 0.000000 
#    z -0.005880 0.000000 1.704580 
# 
# From -- ./inp_files/199291.got.cif
#   From: 2010.05.17/outbox.cif.g08.bks.cpg/sg15_100_cif.got.tgz:199291.got - 2010.06.03 18:47:42.
