data_PCOD9258680
_publ_section_title
;
Structure prediction by ZEFSAII (Michael W. Deem and Ramdas Pophale) SiO2 
 PCOD9258680
Probable space group: C 2/C
;
_chemical_formula_sum "Si O2"
_cell_formula_units_Z 64
_cell_length_a 13.596574
_cell_length_b 13.808511
_cell_length_c 24.555607
_cell_angle_alpha 90.000000
_cell_angle_beta 127.437582
_cell_angle_gamma 90.000000
_cell_volume 3660.633909
_symmetry_space_group_name_H-M "C 2/C"
_symmetry_group_IT_number 15
_symmetry_cell_setting 'monoclinic'
loop_
_space_group_symop_operation_xyz
x,y,z
-x,y,1/2-z
-x,-y,-z
x,-y,1/2+z
1/2+x,1/2+y,z
1/2-x,1/2+y,1/2-z
1/2-x,1/2-y,-z
1/2+x,1/2-y,1/2+z
loop_
_atom_site_type_symbol
_atom_site_label
_atom_site_fract_x
_atom_site_fract_y
_atom_site_fract_z
Si Si1 0.857980 0.817858 0.220292
Si Si2 0.235244 0.797166 0.583105
Si Si3 0.521545 0.539811 0.916356
Si Si4 0.352706 0.105973 0.698530
Si Si5 0.560281 0.240687 0.430191
Si Si6 0.321662 0.483319 0.438323
Si Si7 0.808459 0.992530 0.765641
Si Si8 0.793093 0.290201 0.809968
O O1 0.774220 0.767470 0.146674
O O2 0.838376 0.758469 0.269020
O O3 0.000000 0.813036 0.250000
O O4 0.821911 0.927135 0.223249
O O5 0.355222 0.814138 0.585064
O O6 0.133171 0.744708 0.511472
O O7 0.188122 0.903850 0.581994
O O8 0.560422 0.646538 0.910270
O O9 0.428326 0.560744 0.935633
O O10 0.439462 0.489222 0.842573
O O11 0.633549 0.483930 0.983927
O O12 0.500000 0.102751 0.750000
O O13 0.298928 0.212690 0.693447
O O14 0.301395 0.070130 0.622764
O O15 0.289815 0.034735 0.722804
O O16 0.421139 0.202293 0.386651
O O17 0.768125 0.891429 0.726528
#
# Coordination Sequence:
#
# PCOD9258680 Si02
#       8
#     8   8   8   8   8   8   8   8
#     4  11  19  34  55  80 108 137 179 214 257 325
#     4  10  20  29  53  84 106 137 169 218 269 314
#     4   9  15  33  49  74 105 134 170 214 257 311
#     4  10  21  36  52  77 108 138 179 221 265 311
#     4  10  18  34  50  78 114 133 169 220 270 310
#     4   9  17  28  53  78 100 131 174 215 260 308
#     4  10  21  33  54  79 106 137 175 218 263 315
#     4  11  21  36  52  79 111 141 173 223 267 311
#
# _framework density 17.483311
#
# number of rings (size 3 to 8) (size 9 to 14) (size 15 to 20)
#    0.000    2.000    5.000    1.500    1.750    1.500 
#    0.000    0.625    0.000    0.750    0.000    0.000 
#    0.000    0.000    0.000    0.000    0.000    0.000 
#
# Total GULP energy -178370.408090 kJ/mol
# GULP energy per Si atom -5574.075253 kJ/mol
# Density = 1.744352 g / cm^3
# Si number density = 17.483311 Si / 1000 Ang^3
#
#
#
# Elastic Constant Matrix: (Units=GPa)
#
#
# Indices 1 2 3 4 5 6 
#
# 1 34.9645 17.9744 36.7644 0.0000 8.8245 0.0000
# 2 17.9744 89.4426 44.0103 0.0000 2.8405 0.0000
# 3 36.7644 44.0103 142.3482 0.0000 22.6366 0.0000
# 4 0.0000 0.0000 0.0000 21.7092 0.0000 -2.4889
# 5 8.8245 2.8405 22.6366 0.0000 23.0472 0.0000
# 6 0.0000 0.0000 0.0000 -2.4889 0.0000 12.4941
#
#
#
# Elastic Compliance Matrix: (Units=1/GPa)
#
#
# Indices 1 2 3 4 5 6 
#
# 1 0.041130 -0.003976 -0.008257 0.000000 -0.007149 0.000000
# 2 -0.003976 0.013727 -0.003781 0.000000 0.003544 0.000000
# 3 -0.008257 -0.003781 0.011554 0.000000 -0.007721 0.000000
# 4 0.000000 0.000000 0.000000 0.047140 0.000000 0.009391
# 5 -0.007149 0.003544 -0.007721 0.000000 0.053273 0.000000
# 6 0.000000 0.000000 0.000000 0.009391 0.000000 0.081908
#
#
# Mechanical properties :
#
#
# Convention : Reuss Voigt Hill
#
# Bulk Modulus (GPa) = 29.08248 51.58374 40.33311
# Shear Modulus (GPa) = 17.11033 22.65053 19.88043
#
# Velocity S-wave (km/s) = 3.13176 3.60328 3.37576
# Velocity P-wave (km/s) = 5.45415 6.84691 6.18983
#
# Compressibility (1/GPa) = 0.03438497
#
# Stress axis : x y z
#
# Youngs Moduli (GPa) = 24.31302 72.84839 86.54836
#
# Poissons Ratio (x) = 0.28963 0.71461
# Poissons Ratio (y) = 0.09666 0.32722
# Poissons Ratio (z) = 0.20075 0.27542
#
# Static dielectric constant tensor:
#      x y z
#    x 1.584160 0.000000 0.009880 
#    y 0.000000 1.576910 0.000000 
#    z 0.009880 0.000000 1.666550 
# 
# From -- ./inp_files/296422.got.cif
#   From: 2010.05.17/outbox.cif.g08.bks.cpg/sg15_149_cif.got.tgz:296422.got - 2010.06.03 18:47:42.
