data_PCOD9258732
_publ_section_title
;
Structure prediction by ZEFSAII (Michael W. Deem and Ramdas Pophale) SiO2 
 PCOD9258732
Probable space group: C 2/C
;
_chemical_formula_sum "Si O2"
_cell_formula_units_Z 64
_cell_length_a 25.541033
_cell_length_b 9.687662
_cell_length_c 14.800530
_cell_angle_alpha 90.000000
_cell_angle_beta 118.067968
_cell_angle_gamma 90.000000
_cell_volume 3231.434132
_symmetry_space_group_name_H-M "C 2/C"
_symmetry_group_IT_number 15
_symmetry_cell_setting 'monoclinic'
loop_
_space_group_symop_operation_xyz
x,y,z
-x,y,1/2-z
-x,-y,-z
x,-y,1/2+z
1/2+x,1/2+y,z
1/2-x,1/2+y,1/2-z
1/2-x,1/2-y,-z
1/2+x,1/2-y,1/2+z
loop_
_atom_site_type_symbol
_atom_site_label
_atom_site_fract_x
_atom_site_fract_y
_atom_site_fract_z
Si Si1 0.076663 0.310953 0.866424
Si Si2 0.565304 0.838071 0.056492
Si Si3 0.475399 0.512461 0.636524
Si Si4 0.594813 0.102398 0.187173
Si Si5 0.729216 0.997579 0.832585
Si Si6 0.714064 0.882975 0.000586
Si Si7 0.203471 0.724881 0.679174
Si Si8 0.952147 0.154604 0.958515
O O1 0.058847 0.150984 0.861150
O O2 0.061715 0.361226 0.754028
O O3 0.146310 0.341747 0.928356
O O4 0.055337 0.375840 0.943129
O O5 0.631329 0.772850 0.122023
O O6 0.564533 0.973110 0.115533
O O7 0.512620 0.734146 0.035649
O O8 0.500000 0.448754 0.750000
O O9 0.528104 0.559036 0.610348
O O10 0.434259 0.424690 0.534965
O O11 0.662735 0.059200 0.258633
O O12 0.591779 0.233113 0.118284
O O13 0.733818 0.999351 0.945764
O O14 0.771933 0.876866 0.826631
O O15 0.730650 0.148913 0.788833
O O16 0.750000 0.750000 0.000000
O O17 0.720273 0.885794 0.113186
#
# Coordination Sequence:
#
# PCOD9258732 Si02
#       8
#     8   8   8   8   8   8   8   8
#     4   9  17  32  54  71  96 142 165 202 265 298
#     4   9  19  33  53  76 102 133 171 219 255 303
#     4  10  19  35  51  70 106 133 169 209 253 309
#     4  10  18  34  54  76 105 132 178 211 253 313
#     4   9  18  32  53  77 101 135 172 216 251 307
#     4   8  15  30  50  73  95 129 175 203 239 309
#     4   9  17  34  51  75 103 132 174 210 259 303
#     4  10  20  34  51  77 100 135 171 214 257 303
#
# _framework density 19.805447999999998
#
# number of rings (size 3 to 8) (size 9 to 14) (size 15 to 20)
#    0.000    2.750    1.250    0.375    0.000    0.000 
#   13.500    0.625    0.000    0.000    0.000    0.000 
#    0.000    0.000    0.000    0.000    0.000    0.000 
#
# Total GULP energy -178136.793964 kJ/mol
# GULP energy per Si atom -5566.774811 kJ/mol
# Density = 1.976037 g / cm^3
# Si number density = 19.805448 Si / 1000 Ang^3
#
#
#
# Elastic Constant Matrix: (Units=GPa)
#
#
# Indices 1 2 3 4 5 6 
#
# 1 36.1327 9.9788 0.1096 0.0000 -7.4328 0.0000
# 2 9.9788 33.3120 19.2097 0.0000 -8.9727 0.0000
# 3 0.1096 19.2097 85.6467 0.0000 -20.9826 0.0000
# 4 0.0000 0.0000 0.0000 39.9313 0.0000 -0.7443
# 5 -7.4328 -8.9727 -20.9826 0.0000 19.2073 0.0000
# 6 0.0000 0.0000 0.0000 -0.7443 0.0000 16.7942
#
#
#
# Elastic Compliance Matrix: (Units=1/GPa)
#
#
# Indices 1 2 3 4 5 6 
#
# 1 0.033234 -0.009245 0.005631 0.000000 0.014693 0.000000
# 2 -0.009245 0.038660 -0.006979 0.000000 0.006859 0.000000
# 3 0.005631 -0.006979 0.017708 0.000000 0.018264 0.000000
# 4 0.000000 0.000000 0.000000 0.025064 0.000000 0.001111
# 5 0.014693 0.006859 0.018264 0.000000 0.080906 0.000000
# 6 0.000000 0.000000 0.000000 0.001111 0.000000 0.059593
#
#
# Mechanical properties :
#
#
# Convention : Reuss Voigt Hill
#
# Bulk Modulus (GPa) = 14.61621 23.74306 19.17964
# Shear Modulus (GPa) = 16.71357 23.57279 20.14318
#
# Velocity S-wave (km/s) = 2.90813 3.45370 3.19259
# Velocity P-wave (km/s) = 4.32113 5.28377 4.82651
#
# Compressibility (1/GPa) = 0.06841718
#
# Stress axis : x y z
#
# Youngs Moduli (GPa) = 30.08926 25.86623 56.47010
#
# Poissons Ratio (x) = 0.23913 -0.31797
# Poissons Ratio (y) = 0.27817 0.39411
# Poissons Ratio (z) = -0.16943 0.18052
#
# Static dielectric constant tensor:
#      x y z
#    x 1.713390 0.000000 -0.010420 
#    y 0.000000 1.707740 0.000000 
#    z -0.010420 0.000000 1.779070 
# 
# From -- ./inp_files/176636.got.cif
#   From: 2010.05.17/outbox.cif.g08.bks.cpg/sg15_89_cif.got.tgz:176636.got - 2010.06.03 18:47:42.
