data_PCOD9258924
_publ_section_title
;
Structure prediction by ZEFSAII (Michael W. Deem and Ramdas Pophale) SiO2 
 PCOD9258924
Probable space group: C 2/C
;
_chemical_formula_sum "Si O2"
_cell_formula_units_Z 48
_cell_length_a 21.402221
_cell_length_b 10.910116
_cell_length_c 8.935734
_cell_angle_alpha 90.000000
_cell_angle_beta 80.045763
_cell_angle_gamma 90.000000
_cell_volume 2055.090372
_symmetry_space_group_name_H-M "C 2/C"
_symmetry_group_IT_number 15
_symmetry_cell_setting 'monoclinic'
loop_
_space_group_symop_operation_xyz
x,y,z
-x,y,1/2-z
-x,-y,-z
x,-y,1/2+z
1/2+x,1/2+y,z
1/2-x,1/2+y,1/2-z
1/2-x,1/2-y,-z
1/2+x,1/2-y,1/2+z
loop_
_atom_site_type_symbol
_atom_site_label
_atom_site_fract_x
_atom_site_fract_y
_atom_site_fract_z
Si Si1 0.542133 0.231385 0.087863
Si Si2 0.425057 0.020768 0.009151
Si Si3 0.240517 0.616276 0.933574
Si Si4 0.619198 0.448143 0.208628
Si Si5 0.658535 0.036246 0.703303
Si Si6 0.549931 0.604748 0.030502
O O1 0.500000 0.195340 0.250000
O O2 0.587825 0.123576 0.019824
O O3 0.584262 0.344778 0.123597
O O4 0.490532 0.273012 0.984825
O O5 0.396296 0.092892 0.880356
O O6 0.382902 0.051988 0.170062
O O7 0.500000 0.000000 0.000000
O O8 0.307681 0.554803 0.862824
O O9 0.200134 0.618615 0.796496
O O10 0.250000 0.750000 0.000000
O O11 0.206006 0.532437 0.071838
O O12 0.605382 0.410006 0.384324
O O13 0.580930 0.571297 0.176267
O O14 0.500000 0.500000 0.000000
#
# Coordination Sequence:
#
# PCOD9258924 Si02
#       6
#     8   8   8   8   8   8
#     4   9  18  33  57  85 113 151 195 240 308 381
#     4  11  21  39  61  83 117 156 201 265 321 369
#     4  11  23  42  65  89 128 178 219 267 323 380
#     4  10  18  34  57  82 116 156 193 243 308 367
#     4  10  23  40  60  91 121 160 220 265 311 390
#     4   9  18  32  54  86 116 147 192 248 311 377
#
# _framework density 23.356638
#
# number of rings (size 3 to 8) (size 9 to 14) (size 15 to 20)
#    0.000    2.000    0.000    6.000    0.000    1.333 
#    0.000   13.333    0.000    0.000    0.000    0.000 
#    0.000    0.000    0.000    0.000    0.000    0.000 
#
# Total GULP energy -133929.704788 kJ/mol
# GULP energy per Si atom -5580.404366 kJ/mol
# Density = 2.330348 g / cm^3
# Si number density = 23.356638 Si / 1000 Ang^3
#
#
#
# Elastic Constant Matrix: (Units=GPa)
#
#
# Indices 1 2 3 4 5 6 
#
# 1 142.2003 13.4684 59.4992 0.0000 -3.7053 0.0000
# 2 13.4684 43.5550 7.3313 0.0000 3.6902 0.0000
# 3 59.4992 7.3313 99.3907 0.0000 1.3659 0.0000
# 4 0.0000 0.0000 0.0000 18.8393 0.0000 -0.6932
# 5 -3.7053 3.6902 1.3659 0.0000 50.5337 0.0000
# 6 0.0000 0.0000 0.0000 -0.6932 0.0000 32.6857
#
#
#
# Elastic Compliance Matrix: (Units=1/GPa)
#
#
# Indices 1 2 3 4 5 6 
#
# 1 0.009605 -0.002112 -0.005608 0.000000 0.001010 0.000000
# 2 -0.002112 0.023851 -0.000469 0.000000 -0.001884 0.000000
# 3 -0.005608 -0.000469 0.013463 0.000000 -0.000741 0.000000
# 4 0.000000 0.000000 0.000000 0.053122 0.000000 0.001127
# 5 0.001010 -0.001884 -0.000741 0.000000 0.020020 0.000000
# 6 0.000000 0.000000 0.000000 0.001127 0.000000 0.030618
#
#
# Mechanical properties :
#
#
# Convention : Reuss Voigt Hill
#
# Bulk Modulus (GPa) = 32.74254 49.52710 41.13482
# Shear Modulus (GPa) = 28.21044 34.06821 31.13933
#
# Velocity S-wave (km/s) = 3.47913 3.82332 3.65528
# Velocity P-wave (km/s) = 5.49437 6.38288 5.95522
#
# Compressibility (1/GPa) = 0.03054131
#
# Stress axis : x y z
#
# Youngs Moduli (GPa) = 104.10977 41.92677 74.27552
#
# Poissons Ratio (x) = 0.08854 0.41655
# Poissons Ratio (y) = 0.21986 0.03485
# Poissons Ratio (z) = 0.58387 0.01967
#
# Static dielectric constant tensor:
#      x y z
#    x 1.938980 0.000000 0.059200 
#    y 0.000000 1.973410 0.000000 
#    z 0.059200 0.000000 1.933620 
# 
# From -- ./inp_files/60833.got.cif
#   From: 2010.05.17/outbox.cif.g08.bks.cpg/sg15_31_cif.got.tgz:60833.got - 2010.06.03 18:47:42.
