data_PCOD9258517
_publ_section_title
;
Structure prediction by ZEFSAII (Michael W. Deem and Ramdas Pophale) SiO2 
 PCOD9258517
Probable space group: C 2/C
;
_chemical_formula_sum "Si O2"
_cell_formula_units_Z 64
_cell_length_a 17.357522
_cell_length_b 11.931957
_cell_length_c 32.923478
_cell_angle_alpha 90.000000
_cell_angle_beta 150.684299
_cell_angle_gamma 90.000000
_cell_volume 3338.608630
_symmetry_space_group_name_H-M "C 2/C"
_symmetry_group_IT_number 15
_symmetry_cell_setting 'monoclinic'
loop_
_space_group_symop_operation_xyz
x,y,z
-x,y,1/2-z
-x,-y,-z
x,-y,1/2+z
1/2+x,1/2+y,z
1/2-x,1/2+y,1/2-z
1/2-x,1/2-y,-z
1/2+x,1/2-y,1/2+z
loop_
_atom_site_type_symbol
_atom_site_label
_atom_site_fract_x
_atom_site_fract_y
_atom_site_fract_z
Si Si1 0.760121 0.993242 0.773374
Si Si2 0.468639 0.658165 0.589672
Si Si3 0.174155 0.513872 0.328083
Si Si4 0.321879 0.864134 0.482471
Si Si5 0.679862 0.273957 0.335956
Si Si6 0.938101 0.560543 0.586287
Si Si7 0.349622 0.452773 0.483494
Si Si8 0.406647 0.284342 0.869056
O O1 0.597594 0.002316 0.675236
O O2 0.872154 0.102036 0.819490
O O3 0.720746 0.987797 0.802996
O O4 0.845374 0.872966 0.807073
O O5 0.453022 0.778855 0.561138
O O6 0.338321 0.658501 0.565461
O O7 0.417195 0.569730 0.531330
O O8 0.166065 0.641689 0.341061
O O9 0.297730 0.453848 0.413378
O O10 0.000000 0.464243 0.250000
O O11 0.279013 0.837333 0.416218
O O12 0.373486 0.989291 0.518455
O O13 0.500000 0.316520 0.250000
O O14 0.769386 0.268932 0.333895
O O15 0.988144 0.685901 0.599775
O O16 0.805205 0.562522 0.559856
O O17 0.479761 0.359351 0.550731
#
# Coordination Sequence:
#
# PCOD9258517 Si02
#       8
#     8   8   8   8   8   8   8   8
#     4  10  22  35  58  86 113 150 189 243 285 339
#     4   9  20  33  58  86 114 142 192 232 289 340
#     4  10  18  33  58  87 114 138 185 242 298 326
#     4  10  21  36  58  85 114 153 187 243 283 341
#     4  10  22  36  60  86 118 149 191 249 290 337
#     4  11  23  38  58  82 121 157 194 232 284 353
#     4  10  19  38  59  85 115 149 186 241 287 345
#     4  10  24  38  58  84 115 156 191 234 293 350
#
# _framework density 19.169663
#
# number of rings (size 3 to 8) (size 9 to 14) (size 15 to 20)
#    0.000    2.000    2.500    0.375    5.250    2.000 
#    0.000    0.000    0.000    0.750    0.000    0.000 
#    0.000    0.000    0.000    0.000    0.000    0.000 
#
# Total GULP energy -178499.948978 kJ/mol
# GULP energy per Si atom -5578.123406 kJ/mol
# Density = 1.912603 g / cm^3
# Si number density = 19.169663 Si / 1000 Ang^3
#
#
#
# Elastic Constant Matrix: (Units=GPa)
#
#
# Indices 1 2 3 4 5 6 
#
# 1 20.1125 7.3593 4.2813 0.0000 9.1693 0.0000
# 2 7.3593 52.4898 1.2912 0.0000 0.0375 0.0000
# 3 4.2813 1.2912 77.5427 0.0000 3.6827 0.0000
# 4 0.0000 0.0000 0.0000 23.7861 0.0000 6.6625
# 5 9.1693 0.0375 3.6827 0.0000 29.3806 0.0000
# 6 0.0000 0.0000 0.0000 6.6625 0.0000 20.0700
#
#
#
# Elastic Compliance Matrix: (Units=1/GPa)
#
#
# Indices 1 2 3 4 5 6 
#
# 1 0.062076 -0.008631 -0.002378 0.000000 -0.019064 0.000000
# 2 -0.008631 0.020259 0.000013 0.000000 0.002666 0.000000
# 3 -0.002378 0.000013 0.013070 0.000000 -0.000896 0.000000
# 4 0.000000 0.000000 0.000000 0.046351 0.000000 -0.015387
# 5 -0.019064 0.002666 -0.000896 0.000000 0.040095 0.000000
# 6 0.000000 0.000000 0.000000 -0.015387 0.000000 0.054933
#
#
# Mechanical properties :
#
#
# Convention : Reuss Voigt Hill
#
# Bulk Modulus (GPa) = 13.62187 19.55651 16.58919
# Shear Modulus (GPa) = 17.65235 23.79488 20.72362
#
# Velocity S-wave (km/s) = 3.03784 3.52700 3.29152
# Velocity P-wave (km/s) = 4.40750 5.17786 4.80813
#
# Compressibility (1/GPa) = 0.07341135
#
# Stress axis : x y z
#
# Youngs Moduli (GPa) = 16.10929 49.36021 76.51240
#
# Poissons Ratio (x) = 0.42604 0.18196
# Poissons Ratio (y) = 0.13904 -0.00096
# Poissons Ratio (z) = 0.03831 -0.00062
#
# Static dielectric constant tensor:
#      x y z
#    x 1.666960 0.000000 0.028550 
#    y 0.000000 1.696100 0.000000 
#    z 0.028550 0.000000 1.687000 
# 
# From -- ./inp_files/316216.got.cif
#   From: 2010.05.17/outbox.cif.g08.bks.cpg/sg15_159_cif.got.tgz:316216.got - 2010.06.03 18:47:42.
