data_PCOD9258833
_publ_section_title
;
Structure prediction by ZEFSAII (Michael W. Deem and Ramdas Pophale) SiO2 
 PCOD9258833
Probable space group: C 2/C
;
_chemical_formula_sum "Si O2"
_cell_formula_units_Z 20
_cell_length_a 17.727968
_cell_length_b 7.421634
_cell_length_c 15.087690
_cell_angle_alpha 90.000000
_cell_angle_beta 21.641186
_cell_angle_gamma 90.000000
_cell_volume 732.088677
_symmetry_space_group_name_H-M "C 2/C"
_symmetry_group_IT_number 15
_symmetry_cell_setting 'monoclinic'
loop_
_space_group_symop_operation_xyz
x,y,z
-x,y,1/2-z
-x,-y,-z
x,-y,1/2+z
1/2+x,1/2+y,z
1/2-x,1/2+y,1/2-z
1/2-x,1/2-y,-z
1/2+x,1/2-y,1/2+z
loop_
_atom_site_type_symbol
_atom_site_label
_atom_site_fract_x
_atom_site_fract_y
_atom_site_fract_z
Si Si1 0.085035 0.907578 0.757628
Si Si2 0.000000 0.410516 0.750000
Si Si3 0.342289 0.996103 0.251840
O O1 0.307116 0.994468 0.508918
O O2 0.124200 0.704115 0.744845
O O3 0.000000 0.911780 0.750000
O O4 0.896116 0.999150 0.015948
O O5 0.115191 0.356291 0.716749
O O6 0.500000 0.000000 0.000000
#
# Coordination Sequence:
#
# PCOD9258833 Si02
#       3
#     8   4   8
#     4  10  18  34  56  76 102 127 171 221 248 286
#     4  10  18  36  54  76 104 126 170 224 246 284
#     4  11  20  30  54  81 101 132 168 207 257 297
#
# _framework density 27.319094
#
# number of rings (size 3 to 8) (size 9 to 14) (size 15 to 20)
#    0.000    1.600    6.000    2.400    0.000    1.600 
#    0.000    0.000    0.000    2.400    0.000    0.000 
#    0.000    0.000    0.000    0.000    0.000    0.000 
#
# Total GULP energy -55815.584154 kJ/mol
# GULP energy per Si atom -5581.558415 kJ/mol
# Density = 2.725691 g / cm^3
# Si number density = 27.319094 Si / 1000 Ang^3
#
#
#
# Elastic Constant Matrix: (Units=GPa)
#
#
# Indices 1 2 3 4 5 6 
#
# 1 90.1182 8.6006 27.3421 -0.0004 -3.5899 0.0003
# 2 8.6006 77.4667 52.2367 -0.0010 -15.3590 0.0002
# 3 27.3421 52.2367 280.8793 -0.0011 -4.8497 0.0011
# 4 -0.0004 -0.0010 -0.0011 -2.0478 0.0004 6.9348
# 5 -3.5899 -15.3590 -4.8497 0.0004 60.4451 -0.0003
# 6 0.0003 0.0002 0.0011 6.9348 -0.0003 11.9649
#
#
#
# Elastic Compliance Matrix: (Units=1/GPa)
#
#
# Indices 1 2 3 4 5 6 
#
# 1 0.011471 -0.000494 -0.001017 -0.000001 0.000474 0.000000
# 2 -0.000494 0.015576 -0.002785 -0.000002 0.003705 0.000001
# 3 -0.001017 -0.002785 0.004170 -0.000001 -0.000433 0.000000
# 4 -0.000001 -0.000002 -0.000001 -0.164823 0.000001 0.095530
# 5 0.000474 0.003705 -0.000433 0.000001 0.017479 0.000000
# 6 0.000000 0.000001 0.000000 0.095530 0.000000 0.028209
#
#
# Mechanical properties :
#
#
# Convention : Reuss Voigt Hill
#
# Bulk Modulus (GPa) = 44.19704 69.42478 56.81091
# Shear Modulus (GPa) = -69.65171 38.09142 -15.78015
#
# Velocity S-wave (km/s) = -5.05480 3.73810 -2.40599
# Velocity P-wave (km/s) = 4.22549 6.64070 3.62244
#
# Compressibility (1/GPa) = 0.02262595
#
# Stress axis : x y z
#
# Youngs Moduli (GPa) = 87.17632 64.20148 239.83075
#
# Poissons Ratio (x) = 0.03172 0.24380
# Poissons Ratio (y) = 0.04307 0.66785
# Poissons Ratio (z) = 0.08862 0.17878
#
# Static dielectric constant tensor:
#      x y z
#    x 2.170510 0.000000 -0.016440 
#    y 0.000000 2.249580 0.000000 
#    z -0.016440 0.000000 2.204110 
# 
# From -- ./inp_files/3049.got.cif
#   From: 2010.05.17/outbox.cif.g08.bks.cpg/sg15_2_cif.got.tgz:3049.got - 2010.06.03 18:47:42.
