data_PCOD9258864
_publ_section_title
;
Structure prediction by ZEFSAII (Michael W. Deem and Ramdas Pophale) SiO2 
 PCOD9258864
Probable space group: C 2/C
;
_chemical_formula_sum "Si O2"
_cell_formula_units_Z 60
_cell_length_a 20.181984
_cell_length_b 8.750784
_cell_length_c 19.473463
_cell_angle_alpha 90.000000
_cell_angle_beta 67.414649
_cell_angle_gamma 90.000000
_cell_volume 3175.417379
_symmetry_space_group_name_H-M "C 2/C"
_symmetry_group_IT_number 15
_symmetry_cell_setting 'monoclinic'
loop_
_space_group_symop_operation_xyz
x,y,z
-x,y,1/2-z
-x,-y,-z
x,-y,1/2+z
1/2+x,1/2+y,z
1/2-x,1/2+y,1/2-z
1/2-x,1/2-y,-z
1/2+x,1/2-y,1/2+z
loop_
_atom_site_type_symbol
_atom_site_label
_atom_site_fract_x
_atom_site_fract_y
_atom_site_fract_z
Si Si1 0.000000 0.487460 0.750000
Si Si2 0.412905 0.206071 0.876252
Si Si3 0.717752 0.825744 0.180968
Si Si4 0.774880 0.147637 0.927353
Si Si5 0.302453 0.826345 0.534531
Si Si6 0.564853 0.553566 0.644636
Si Si7 0.074955 0.207549 0.783778
Si Si8 0.275104 0.819483 0.781749
O O1 0.029222 0.588248 0.676093
O O2 0.059276 0.370263 0.753892
O O3 0.349688 0.199982 0.843394
O O4 0.444636 0.375879 0.865697
O O5 0.377964 0.168963 0.964278
O O6 0.786723 0.775697 0.107622
O O7 0.714690 0.719298 0.249686
O O8 0.719615 0.000447 0.205845
O O9 0.857086 0.103610 0.912404
O O10 0.768674 0.239096 0.858441
O O11 0.727541 0.995231 0.939710
O O12 0.750000 0.250000 0.000000
O O13 0.250000 0.750000 0.500000
O O14 0.575054 0.584184 0.722208
O O15 0.496664 0.655122 0.647431
O O16 0.154064 0.237032 0.779161
#
# Coordination Sequence:
#
# PCOD9258864 Si02
#       8
#     4   8   8   8   8   8   8   8
#     4  10  18  34  56  84 112 144 190 242 278 342
#     4  11  20  35  60  88 115 145 191 239 288 332
#     4  11  22  38  57  85 117 152 189 241 290 345
#     4  11  20  32  57  87 117 148 187 236 290 334
#     4  10  20  34  55  86 117 145 191 240 287 330
#     4   9  18  32  52  79 115 142 183 230 283 323
#     4   9  20  34  53  82 113 149 188 237 279 335
#     4  11  23  38  59  82 119 152 193 233 292 348
#
# _framework density 18.895153000000001
#
# number of rings (size 3 to 8) (size 9 to 14) (size 15 to 20)
#    0.000    1.867    4.000    3.200    5.600    0.000 
#    0.000    0.000    0.000    3.200    0.000    0.000 
#    0.000    0.000    0.000    0.000    0.000    0.000 
#
# Total GULP energy -167066.021236 kJ/mol
# GULP energy per Si atom -5568.867375 kJ/mol
# Density = 1.885215 g / cm^3
# Si number density = 18.895153 Si / 1000 Ang^3
#
#
#
# Elastic Constant Matrix: (Units=GPa)
#
#
# Indices 1 2 3 4 5 6 
#
# 1 28.9299 11.2195 20.9761 0.0000 2.6678 0.0000
# 2 11.2195 110.7830 40.2008 0.0000 -9.5606 0.0001
# 3 20.9761 40.2008 80.6197 0.0000 -3.2434 0.0000
# 4 0.0000 0.0000 0.0000 26.8642 0.0000 -4.0395
# 5 2.6678 -9.5606 -3.2434 0.0000 33.4282 0.0000
# 6 0.0000 0.0001 0.0000 -4.0395 0.0000 12.1331
#
#
#
# Elastic Compliance Matrix: (Units=1/GPa)
#
#
# Indices 1 2 3 4 5 6 
#
# 1 0.043340 -0.000779 -0.011079 0.000000 -0.004757 0.000000
# 2 -0.000779 0.011270 -0.005305 0.000000 0.002771 0.000000
# 3 -0.011079 -0.005305 0.017977 0.000000 0.001111 0.000000
# 4 0.000000 0.000000 0.000000 0.039186 0.000000 0.013046
# 5 -0.004757 0.002771 0.001111 0.000000 0.031195 0.000000
# 6 0.000000 0.000000 0.000000 0.013046 0.000000 0.086762
#
#
# Mechanical properties :
#
#
# Convention : Reuss Voigt Hill
#
# Bulk Modulus (GPa) = 26.13769 40.56947 33.35358
# Shear Modulus (GPa) = 18.06284 24.34752 21.20518
#
# Velocity S-wave (km/s) = 3.09520 3.59354 3.35364
# Velocity P-wave (km/s) = 5.16108 6.22379 5.71718
#
# Compressibility (1/GPa) = 0.03825893
#
# Stress axis : x y z
#
# Youngs Moduli (GPa) = 23.07320 88.73161 55.62716
#
# Poissons Ratio (x) = 0.06915 0.61631
# Poissons Ratio (y) = 0.01798 0.29513
# Poissons Ratio (z) = 0.25563 0.47076
#
# Static dielectric constant tensor:
#      x y z
#    x 1.769570 0.000000 -0.039870 
#    y 0.000000 1.639260 0.000000 
#    z -0.039870 0.000000 1.717890 
# 
# From -- ./inp_files/218570.got.cif
#   From: 2010.05.17/outbox.cif.g08.bks.cpg/sg15_110_cif.got.tgz:218570.got - 2010.06.03 18:47:42.
