data_PCOD9258057
_publ_section_title
;
Structure prediction by ZEFSAII (Michael W. Deem and Ramdas Pophale) SiO2 
 PCOD9258057
Probable space group: C 2/C
;
_chemical_formula_sum "Si O2"
_cell_formula_units_Z 52
_cell_length_a 17.756297
_cell_length_b 9.945659
_cell_length_c 21.840527
_cell_angle_alpha 90.000000
_cell_angle_beta 37.260139
_cell_angle_gamma 90.000000
_cell_volume 2335.159160
_symmetry_space_group_name_H-M "C 2/C"
_symmetry_group_IT_number 15
_symmetry_cell_setting 'monoclinic'
loop_
_space_group_symop_operation_xyz
x,y,z
-x,y,1/2-z
-x,-y,-z
x,-y,1/2+z
1/2+x,1/2+y,z
1/2-x,1/2+y,1/2-z
1/2-x,1/2-y,-z
1/2+x,1/2-y,1/2+z
loop_
_atom_site_type_symbol
_atom_site_label
_atom_site_fract_x
_atom_site_fract_y
_atom_site_fract_z
Si Si1 0.948962 0.165110 0.473681
Si Si2 0.159117 0.047454 0.540481
Si Si3 0.683156 0.532069 0.843678
Si Si4 0.854853 0.661139 0.266010
Si Si5 0.852737 0.363735 0.135123
Si Si6 0.500000 0.641950 0.750000
Si Si7 0.387656 0.848206 0.970949
O O1 0.874543 0.163422 0.586468
O O2 0.020449 0.305044 0.417680
O O3 0.862628 0.093977 0.479210
O O4 0.062243 0.057327 0.407849
O O5 0.049193 0.056666 0.662200
O O6 0.286486 0.074142 0.494971
O O7 0.136793 0.185796 0.516005
O O8 0.778978 0.471179 0.831953
O O9 0.774375 0.533850 0.726450
O O10 0.750695 0.745369 0.298044
O O11 0.893113 0.756847 0.297005
O O12 0.978681 0.635582 0.147372
O O13 0.880452 0.394294 0.046190
#
# Coordination Sequence:
#
# PCOD9258057 Si02
#       7
#     8   8   8   8   8   4   8
#     4  10  21  35  58  84 119 154 197 238 302 356
#     4  10  19  33  55  89 121 149 182 247 298 358
#     4  10  21  36  56  81 115 153 196 238 295 352
#     4  10  20  32  54  86 110 149 187 240 295 345
#     4  11  20  37  55  82 119 157 191 239 292 360
#     4  10  18  32  58  88 120 142 186 240 306 344
#     4  10  20  31  54  87 120 145 190 247 297 344
#
# _framework density 22.268291000000001
#
# number of rings (size 3 to 8) (size 9 to 14) (size 15 to 20)
#    0.000    1.846    1.538    5.538    4.308    0.615 
#    0.000    0.000    0.000    1.846    0.000    0.000 
#    0.000    0.000    0.000    0.000    0.000    0.000 
#
# Total GULP energy -144923.544376 kJ/mol
# GULP energy per Si atom -5573.982476 kJ/mol
# Density = 2.221761 g / cm^3
# Si number density = 22.268291 Si / 1000 Ang^3
#
#
#
# Elastic Constant Matrix: (Units=GPa)
#
#
# Indices 1 2 3 4 5 6 
#
# 1 77.6458 21.4602 19.2900 0.0000 -5.0713 0.0000
# 2 21.4602 20.5757 12.7982 0.0000 -3.0858 0.0000
# 3 19.2900 12.7982 107.4892 0.0000 11.0237 0.0000
# 4 0.0000 0.0000 0.0000 30.3040 0.0000 -3.8330
# 5 -5.0713 -3.0858 11.0237 0.0000 36.6337 0.0000
# 6 0.0000 0.0000 0.0000 -3.8330 0.0000 27.7840
#
#
#
# Elastic Compliance Matrix: (Units=1/GPa)
#
#
# Indices 1 2 3 4 5 6 
#
# 1 0.018279 -0.018064 -0.001272 0.000000 0.001392 0.000000
# 2 -0.018064 0.071886 -0.005863 0.000000 0.005319 0.000000
# 3 -0.001272 -0.005863 0.010626 0.000000 -0.003868 0.000000
# 4 0.000000 0.000000 0.000000 0.033585 0.000000 0.004633
# 5 0.001392 0.005319 -0.003868 0.000000 0.029102 0.000000
# 6 0.000000 0.000000 0.000000 0.004633 0.000000 0.036631
#
#
# Mechanical properties :
#
#
# Convention : Reuss Voigt Hill
#
# Bulk Modulus (GPa) = 19.84425 34.75638 27.30031
# Shear Modulus (GPa) = 18.70522 29.08849 23.89686
#
# Velocity S-wave (km/s) = 2.90141 3.61816 3.27943
# Velocity P-wave (km/s) = 4.48943 5.75297 5.16002
#
# Compressibility (1/GPa) = 0.05039244
#
# Stress axis : x y z
#
# Youngs Moduli (GPa) = 54.70859 13.91089 94.10643
#
# Poissons Ratio (x) = 0.25129 0.11972
# Poissons Ratio (y) = 0.98828 0.55173
# Poissons Ratio (z) = 0.06960 0.08156
#
# Static dielectric constant tensor:
#      x y z
#    x 1.870360 0.000000 0.031590 
#    y 0.000000 2.002390 0.000000 
#    z 0.031590 0.000000 1.859380 
# 
# From -- ./inp_files/248565.got.cif
#   From: 2010.05.17/outbox.cif.g08.bks.cpg/sg15_125_cif.got.tgz:248565.got - 2010.06.03 18:47:42.
