data_PCOD9258635
_publ_section_title
;
Structure prediction by ZEFSAII (Michael W. Deem and Ramdas Pophale) SiO2 
 PCOD9258635
Probable space group: C 2/C
;
_chemical_formula_sum "Si O2"
_cell_formula_units_Z 64
_cell_length_a 18.493787
_cell_length_b 13.884823
_cell_length_c 13.328964
_cell_angle_alpha 90.000000
_cell_angle_beta 49.771225
_cell_angle_gamma 90.000000
_cell_volume 2613.097283
_symmetry_space_group_name_H-M "C 2/C"
_symmetry_group_IT_number 15
_symmetry_cell_setting 'monoclinic'
loop_
_space_group_symop_operation_xyz
x,y,z
-x,y,1/2-z
-x,-y,-z
x,-y,1/2+z
1/2+x,1/2+y,z
1/2-x,1/2+y,1/2-z
1/2-x,1/2-y,-z
1/2+x,1/2-y,1/2+z
loop_
_atom_site_type_symbol
_atom_site_label
_atom_site_fract_x
_atom_site_fract_y
_atom_site_fract_z
Si Si1 0.911662 0.201887 0.117581
Si Si2 0.121996 0.604467 0.307057
Si Si3 0.782879 0.904061 0.299453
Si Si4 0.176907 0.964580 0.907366
Si Si5 0.102701 0.774850 0.168029
Si Si6 0.419782 0.117241 0.486531
Si Si7 0.218613 0.264420 0.869659
Si Si8 0.922323 0.865907 0.906647
O O1 0.866465 0.141355 0.065647
O O2 0.933268 0.311090 0.068285
O O3 0.828033 0.202379 0.275495
O O4 0.009712 0.153614 0.058632
O O5 0.209934 0.545936 0.182006
O O6 0.105551 0.703108 0.260197
O O7 0.158932 0.646535 0.379334
O O8 0.017593 0.559617 0.389293
O O9 0.823615 0.856930 0.364600
O O10 0.676350 0.940439 0.412983
O O11 0.775846 0.818702 0.222326
O O12 0.839161 0.985726 0.188351
O O13 0.128085 0.031758 0.032524
O O14 0.000000 0.822167 0.250000
O O15 0.105942 0.693764 0.078360
O O16 0.160808 0.213804 0.010108
O O17 0.000000 0.861068 0.750000
#
# Coordination Sequence:
#
# PCOD9258635 Si02
#       8
#     8   8   8   8   8   8   8   8
#     4  10  20  38  61  85 117 161 204 255 309 371
#     4   9  17  35  58  83 120 161 201 248 306 372
#     4   9  18  32  52  87 121 158 203 244 309 377
#     4  10  22  38  55  82 127 164 194 252 317 383
#     4   9  18  32  56  90 119 158 205 257 304 360
#     4  10  18  33  62  90 114 161 211 258 302 367
#     4   8  17  35  59  80 114 154 208 249 289 365
#     4  11  22  39  58  89 120 160 205 254 311 365
#
# _framework density 24.492007000000001
#
# number of rings (size 3 to 8) (size 9 to 14) (size 15 to 20)
#    0.000    2.500    1.250    1.500    1.750    1.000 
#    4.500    0.000    0.000    0.000    0.000    0.000 
#    0.000    0.000    0.000    0.000    0.000    0.000 
#
# Total GULP energy -178506.381440 kJ/mol
# GULP energy per Si atom -5578.324420 kJ/mol
# Density = 2.443626 g / cm^3
# Si number density = 24.492007 Si / 1000 Ang^3
#
#
#
# Elastic Constant Matrix: (Units=GPa)
#
#
# Indices 1 2 3 4 5 6 
#
# 1 70.8090 16.3804 29.4847 0.0000 -30.4418 0.0000
# 2 16.3804 78.4722 29.6820 0.0000 -11.6585 0.0000
# 3 29.4847 29.6820 119.9602 0.0000 -33.7075 0.0000
# 4 0.0000 0.0000 0.0000 42.5807 0.0000 -2.7027
# 5 -30.4418 -11.6585 -33.7075 0.0000 38.6040 0.0000
# 6 0.0000 0.0000 0.0000 -2.7027 0.0000 9.6387
#
#
#
# Elastic Compliance Matrix: (Units=1/GPa)
#
#
# Indices 1 2 3 4 5 6 
#
# 1 0.021691 -0.002012 -0.000262 0.000000 0.016268 0.000000
# 2 -0.002012 0.014321 -0.003021 0.000000 0.000101 0.000000
# 3 -0.000262 -0.003021 0.011705 0.000000 0.009102 0.000000
# 4 0.000000 0.000000 0.000000 0.023910 0.000000 0.006704
# 5 0.016268 0.000101 0.009102 0.000000 0.046710 0.000000
# 6 0.000000 0.000000 0.000000 0.006704 0.000000 0.105629
#
#
# Mechanical properties :
#
#
# Convention : Reuss Voigt Hill
#
# Bulk Modulus (GPa) = 26.93388 46.70398 36.81893
# Shear Modulus (GPa) = 20.24849 31.07761 25.66305
#
# Velocity S-wave (km/s) = 2.87843 3.56601 3.24051
# Velocity P-wave (km/s) = 4.69766 6.00547 5.39137
#
# Compressibility (1/GPa) = 0.03712796
#
# Stress axis : x y z
#
# Youngs Moduli (GPa) = 46.10199 69.82838 85.43038
#
# Poissons Ratio (x) = 0.14047 0.02242
# Poissons Ratio (y) = 0.09274 0.25805
# Poissons Ratio (z) = 0.01210 0.21092
#
# Static dielectric constant tensor:
#      x y z
#    x 1.977480 0.000000 0.028490 
#    y 0.000000 1.923170 0.000000 
#    z 0.028490 0.000000 2.041460 
# 
# From -- ./inp_files/162556.got.cif
#   From: 2010.05.17/outbox.cif.g08.bks.cpg/sg15_82_cif.got.tgz:162556.got - 2010.06.03 18:47:42.
