data_PCOD9258077
_publ_section_title
;
Structure prediction by ZEFSAII (Michael W. Deem and Ramdas Pophale) SiO2 
 PCOD9258077
Probable space group: C 2/C
;
_chemical_formula_sum "Si O2"
_cell_formula_units_Z 44
_cell_length_a 18.191888
_cell_length_b 6.354737
_cell_length_c 17.861023
_cell_angle_alpha 90.000000
_cell_angle_beta 73.011999
_cell_angle_gamma 90.000000
_cell_volume 1974.721235
_symmetry_space_group_name_H-M "C 2/C"
_symmetry_group_IT_number 15
_symmetry_cell_setting 'monoclinic'
loop_
_space_group_symop_operation_xyz
x,y,z
-x,y,1/2-z
-x,-y,-z
x,-y,1/2+z
1/2+x,1/2+y,z
1/2-x,1/2+y,1/2-z
1/2-x,1/2-y,-z
1/2+x,1/2-y,1/2+z
loop_
_atom_site_type_symbol
_atom_site_label
_atom_site_fract_x
_atom_site_fract_y
_atom_site_fract_z
Si Si1 0.500000 0.962269 0.250000
Si Si2 0.499891 0.438838 0.661903
Si Si3 0.245233 0.964045 0.683718
Si Si4 0.661473 0.657457 0.358386
Si Si5 0.240563 0.409387 0.070410
Si Si6 0.620146 0.763193 0.643538
O O1 0.488633 0.811250 0.325846
O O2 0.425415 0.106794 0.278638
O O3 0.500000 0.501815 0.750000
O O4 0.420091 0.437085 0.641895
O O5 0.563068 0.605797 0.615333
O O6 0.325275 0.089754 0.648700
O O7 0.220730 0.916046 0.775460
O O8 0.181726 0.115156 0.665475
O O9 0.236357 0.748416 0.641756
O O10 0.689227 0.563125 0.428802
O O11 0.167664 0.562436 0.083694
O O12 0.250000 0.250000 0.000000
#
# Coordination Sequence:
#
# PCOD9258077 Si02
#       6
#     4   8   8   8   8   8
#     4  10  18  32  58  94 124 154 202 274 322 372
#     4  10  20  33  57  96 129 159 211 272 339 379
#     4  11  21  37  63  95 119 164 217 270 325 384
#     4  11  21  35  65  96 128 159 221 278 322 399
#     4  11  26  43  62  91 134 178 218 272 339 393
#     4  11  20  37  63  88 132 167 216 264 330 391
#
# _framework density 22.281625999999999
#
# number of rings (size 3 to 8) (size 9 to 14) (size 15 to 20)
#    0.545    0.727    4.545    2.182    2.545    4.364 
#    0.000    0.909    0.000    5.455    0.000    0.000 
#    0.000    0.000    0.000    0.000    0.000    0.000 
#
# Total GULP energy -122526.570692 kJ/mol
# GULP energy per Si atom -5569.389577 kJ/mol
# Density = 2.223091 g / cm^3
# Si number density = 22.281626 Si / 1000 Ang^3
#
#
#
# Elastic Constant Matrix: (Units=GPa)
#
#
# Indices 1 2 3 4 5 6 
#
# 1 132.4164 42.1456 7.6982 0.0001 3.3277 0.0000
# 2 42.1456 109.1829 5.7484 0.0003 -10.1873 0.0000
# 3 7.6982 5.7484 32.2626 0.0002 1.2574 0.0000
# 4 0.0001 0.0003 0.0002 -13.8422 0.0001 5.1874
# 5 3.3277 -10.1873 1.2574 0.0001 12.6699 0.0000
# 6 0.0000 0.0000 0.0000 5.1874 0.0000 25.3778
#
#
#
# Elastic Compliance Matrix: (Units=1/GPa)
#
#
# Indices 1 2 3 4 5 6 
#
# 1 0.009005 -0.003913 -0.001241 0.000000 -0.005389 0.000000
# 2 -0.003913 0.011744 -0.001573 0.000000 0.010627 0.000000
# 3 -0.001241 -0.001573 0.031731 0.000000 -0.004088 0.000000
# 4 0.000000 0.000000 0.000000 -0.067103 0.000001 0.013716
# 5 -0.005389 0.010627 -0.004088 0.000001 0.089293 0.000000
# 6 0.000000 0.000000 0.000000 0.013716 0.000000 0.036601
#
#
# Mechanical properties :
#
#
# Convention : Reuss Voigt Hill
#
# Bulk Modulus (GPa) = 25.62464 42.78294 34.20379
# Shear Modulus (GPa) = 36.30148 19.39240 27.84694
#
# Velocity S-wave (km/s) = 4.04073 2.95334 3.53905
# Velocity P-wave (km/s) = 5.77021 5.55628 5.66426
#
# Compressibility (1/GPa) = 0.03902494
#
# Stress axis : x y z
#
# Youngs Moduli (GPa) = 111.04796 85.15041 31.51453
#
# Poissons Ratio (x) = 0.33324 0.03912
# Poissons Ratio (y) = 0.43458 0.04957
# Poissons Ratio (z) = 0.13786 0.13393
#
# Static dielectric constant tensor:
#      x y z
#    x 1.878100 0.000000 0.002780 
#    y 0.000000 1.925400 0.000000 
#    z 0.002780 0.000000 1.967020 
# 
# From -- ./inp_files/246488.got.cif
#   From: 2010.05.17/outbox.cif.g08.bks.cpg/sg15_124_cif.got.tgz:246488.got - 2010.06.03 18:47:42.
