data_PCOD9258604
_publ_section_title
;
Structure prediction by ZEFSAII (Michael W. Deem and Ramdas Pophale) SiO2 
 PCOD9258604
Probable space group: C 2/C
;
_chemical_formula_sum "Si O2"
_cell_formula_units_Z 60
_cell_length_a 9.918982
_cell_length_b 24.809669
_cell_length_c 15.405706
_cell_angle_alpha 90.000000
_cell_angle_beta 65.046562
_cell_angle_gamma 90.000000
_cell_volume 3437.239473
_symmetry_space_group_name_H-M "C 2/C"
_symmetry_group_IT_number 15
_symmetry_cell_setting 'monoclinic'
loop_
_space_group_symop_operation_xyz
x,y,z
-x,y,1/2-z
-x,-y,-z
x,-y,1/2+z
1/2+x,1/2+y,z
1/2-x,1/2+y,1/2-z
1/2-x,1/2-y,-z
1/2+x,1/2-y,1/2+z
loop_
_atom_site_type_symbol
_atom_site_label
_atom_site_fract_x
_atom_site_fract_y
_atom_site_fract_z
Si Si1 0.161819 0.341220 0.440129
Si Si2 0.000000 0.298329 0.250000
Si Si3 0.429876 0.754498 0.450722
Si Si4 0.867866 0.038752 0.067525
Si Si5 0.850057 0.468605 0.029586
Si Si6 0.284112 0.361983 0.219979
Si Si7 0.838370 0.018183 0.753577
Si Si8 0.561774 0.657249 0.521755
O O1 0.128491 0.404608 0.461387
O O2 0.254992 0.338965 0.324474
O O3 0.278857 0.325498 0.482706
O O4 0.012659 0.305425 0.475254
O O5 0.011703 0.261557 0.162656
O O6 0.145560 0.336290 0.206545
O O7 0.250000 0.750000 0.500000
O O8 0.495909 0.701440 0.476099
O O9 0.840460 0.025775 0.176336
O O10 0.729085 0.025522 0.042109
O O11 0.914975 0.099791 0.031761
O O12 0.000000 0.000000 0.000000
O O13 0.751992 0.492446 0.134617
O O14 0.000000 0.500000 0.000000
O O15 0.277553 0.426546 0.228243
O O16 0.440633 0.349065 0.132100
O O17 0.000000 0.029805 0.750000
#
# Coordination Sequence:
#
# PCOD9258604 Si02
#       8
#     8   4   8   8   8   8   8   8
#     4   9  21  37  59  87 112 147 201 246 286 342
#     4  10  22  38  52  92 116 144 194 246 294 354
#     4  11  22  39  59  83 117 150 191 244 298 347
#     4  11  21  36  59  88 122 155 196 237 292 364
#     4  10  22  38  60  89 122 154 199 249 293 343
#     4  10  18  33  61  83 114 143 197 247 290 327
#     4  11  20  37  58  88 119 157 198 241 290 355
#     4  11  20  37  60  85 112 160 190 238 294 348
#
# _framework density 17.455867000000001
#
# number of rings (size 3 to 8) (size 9 to 14) (size 15 to 20)
#    0.000    1.600    4.000    2.400    0.000    4.800 
#    1.200    0.000    0.000    1.600    0.000    0.000 
#    0.000    0.000    0.000    0.000    0.000    0.000 
#
# Total GULP energy -167187.602533 kJ/mol
# GULP energy per Si atom -5572.920084 kJ/mol
# Density = 1.741614 g / cm^3
# Si number density = 17.455867 Si / 1000 Ang^3
#
#
#
# Elastic Constant Matrix: (Units=GPa)
#
#
# Indices 1 2 3 4 5 6 
#
# 1 101.4499 50.1764 20.7898 0.0000 1.1296 0.0000
# 2 50.1764 66.2161 24.3403 0.0000 12.5848 0.0000
# 3 20.7898 24.3403 48.9960 0.0000 3.3494 0.0000
# 4 0.0000 0.0000 0.0000 23.1745 0.0000 3.6969
# 5 1.1296 12.5848 3.3494 0.0000 31.8255 0.0000
# 6 0.0000 0.0000 0.0000 3.6969 0.0000 35.3068
#
#
#
# Elastic Compliance Matrix: (Units=1/GPa)
#
#
# Indices 1 2 3 4 5 6 
#
# 1 0.016413 -0.013022 -0.000813 0.000000 0.004652 0.000000
# 2 -0.013022 0.030193 -0.008752 0.000000 -0.010556 0.000000
# 3 -0.000813 -0.008752 0.025044 0.000000 0.000854 0.000000
# 4 0.000000 0.000000 0.000000 0.043884 0.000000 -0.004595
# 5 0.004652 -0.010556 0.000854 0.000000 0.035340 0.000000
# 6 0.000000 0.000000 0.000000 -0.004595 0.000000 0.028804
#
#
# Mechanical properties :
#
#
# Convention : Reuss Voigt Hill
#
# Bulk Modulus (GPa) = 37.77111 45.25279 41.51195
# Shear Modulus (GPa) = 21.39683 26.15173 23.77428
#
# Velocity S-wave (km/s) = 3.50489 3.87481 3.69448
# Velocity P-wave (km/s) = 6.16961 6.78228 6.48318
#
# Compressibility (1/GPa) = 0.02647526
#
# Stress axis : x y z
#
# Youngs Moduli (GPa) = 60.92864 33.11975 39.92913
#
# Poissons Ratio (x) = 0.43130 0.03246
# Poissons Ratio (y) = 0.79343 0.34947
# Poissons Ratio (z) = 0.04953 0.28987
#
# Static dielectric constant tensor:
#      x y z
#    x 1.582590 0.000000 0.034710 
#    y 0.000000 1.538610 0.000000 
#    z 0.034710 0.000000 1.589630 
# 
# From -- ./inp_files/137789.got.cif
#   From: 2010.05.17/outbox.cif.g08.bks.cpg/sg15_69_cif.got.tgz:137789.got - 2010.06.03 18:47:42.
