data_PCOD9258321
_publ_section_title
;
Structure prediction by ZEFSAII (Michael W. Deem and Ramdas Pophale) SiO2 
 PCOD9258321
Probable space group: C 2/C
;
_chemical_formula_sum "Si O2"
_cell_formula_units_Z 56
_cell_length_a 9.484775
_cell_length_b 23.886721
_cell_length_c 15.205627
_cell_angle_alpha 90.000000
_cell_angle_beta 61.659679
_cell_angle_gamma 90.000000
_cell_volume 3032.085129
_symmetry_space_group_name_H-M "C 2/C"
_symmetry_group_IT_number 15
_symmetry_cell_setting 'monoclinic'
loop_
_space_group_symop_operation_xyz
x,y,z
-x,y,1/2-z
-x,-y,-z
x,-y,1/2+z
1/2+x,1/2+y,z
1/2-x,1/2+y,1/2-z
1/2-x,1/2-y,-z
1/2+x,1/2-y,1/2+z
loop_
_atom_site_type_symbol
_atom_site_label
_atom_site_fract_x
_atom_site_fract_y
_atom_site_fract_z
Si Si1 0.090598 0.310463 0.983638
Si Si2 0.173621 0.972908 0.712849
Si Si3 0.594580 0.386893 0.888890
Si Si4 0.754153 0.918784 0.991170
Si Si5 0.073882 0.367088 0.631890
Si Si6 0.045006 0.225939 0.143297
Si Si7 0.006306 0.497933 0.645070
O O1 0.138168 0.365565 0.025402
O O2 0.265025 0.285594 0.908692
O O3 0.993773 0.328612 0.925845
O O4 0.008436 0.265763 0.071840
O O5 0.164099 0.936218 0.805229
O O6 0.197657 0.930754 0.624264
O O7 0.328196 0.012253 0.663991
O O8 0.000000 0.000119 0.750000
O O9 0.427933 0.407161 0.982293
O O10 0.734930 0.368706 0.912628
O O11 0.544699 0.333140 0.845332
O O12 0.653377 0.970128 0.058248
O O13 0.023501 0.431259 0.626719
O O14 0.000000 0.352694 0.750000
O O15 0.000000 0.251216 0.250000
O O16 0.000000 0.509438 0.750000
#
# Coordination Sequence:
#
# PCOD9258321 Si02
#       7
#     8   8   8   8   8   8   8
#     4  10  21  35  55  83 106 144 187 226 279 332
#     4  10  18  33  54  79 105 139 187 230 271 321
#     4  10  19  35  56  81 111 139 184 236 276 321
#     4  10  20  34  54  76 111 146 181 227 269 333
#     4  11  19  33  54  82 114 142 185 235 274 329
#     4  10  20  36  58  80 107 145 188 229 276 334
#     4  11  21  34  51  81 111 145 182 223 281 330
#
# _framework density 18.469139999999999
#
# number of rings (size 3 to 8) (size 9 to 14) (size 15 to 20)
#    0.000    1.714    4.286    3.429    0.000    1.714 
#    0.000    0.000    0.000    0.000    0.000    7.000 
#    0.000    0.000    0.000    0.000    0.000    0.000 
#
# Total GULP energy -156135.807393 kJ/mol
# GULP energy per Si atom -5576.278835 kJ/mol
# Density = 1.842710 g / cm^3
# Si number density = 18.469140 Si / 1000 Ang^3
#
#
#
# Elastic Constant Matrix: (Units=GPa)
#
#
# Indices 1 2 3 4 5 6 
#
# 1 154.8891 27.8064 40.0566 0.0000 -8.6152 0.0000
# 2 27.8064 42.1301 39.6715 0.0000 2.8475 0.0000
# 3 40.0566 39.6715 69.4990 0.0000 4.6905 0.0000
# 4 0.0000 0.0000 0.0000 6.4917 0.0000 -11.0142
# 5 -8.6152 2.8475 4.6905 0.0000 20.7696 0.0000
# 6 0.0000 0.0000 0.0000 -11.0142 0.0000 9.3240
#
#
#
# Elastic Compliance Matrix: (Units=1/GPa)
#
#
# Indices 1 2 3 4 5 6 
#
# 1 0.008049 -0.002080 -0.003754 0.000000 0.004472 0.000000
# 2 -0.002080 0.051863 -0.028299 0.000000 -0.001583 0.000000
# 3 -0.003754 -0.028299 0.033053 0.000000 -0.005142 0.000000
# 4 0.000000 0.000000 0.000000 -0.153396 0.000000 -0.181203
# 5 0.004472 -0.001583 -0.005142 0.000000 0.051380 0.000000
# 6 0.000000 0.000000 0.000000 -0.181203 0.000000 -0.106800
#
#
# Mechanical properties :
#
#
# Convention : Reuss Voigt Hill
#
# Bulk Modulus (GPa) = 40.48617 53.50968 46.99792
# Shear Modulus (GPa) = -127.05810 17.91598 -54.57106
#
# Velocity S-wave (km/s) = -8.30326 3.11794 -5.44163
# Velocity P-wave (km/s) = 8.36403 6.48054 3.73895
#
# Compressibility (1/GPa) = 0.02469980
#
# Stress axis : x y z
#
# Youngs Moduli (GPa) = 124.23697 19.28140 30.25472
#
# Poissons Ratio (x) = 0.04011 0.11356
# Poissons Ratio (y) = 0.25845 0.85618
# Poissons Ratio (z) = 0.46633 0.54564
#
# Static dielectric constant tensor:
#      x y z
#    x 1.707600 0.000000 -0.006850 
#    y 0.000000 1.644360 0.000000 
#    z -0.006850 0.000000 1.632440 
# 
# From -- ./inp_files/137694.got.cif
#   From: 2010.05.17/outbox.cif.g08.bks.cpg/sg15_69_cif.got.tgz:137694.got - 2010.06.03 18:47:42.
