data_PCOD9258329
_publ_section_title
;
Structure prediction by ZEFSAII (Michael W. Deem and Ramdas Pophale) SiO2 
 PCOD9258329
Probable space group: C 2/C
;
_chemical_formula_sum "Si O2"
_cell_formula_units_Z 44
_cell_length_a 24.001466
_cell_length_b 12.661563
_cell_length_c 17.851460
_cell_angle_alpha 90.000000
_cell_angle_beta 152.061229
_cell_angle_gamma 90.000000
_cell_volume 2541.757624
_symmetry_space_group_name_H-M "C 2/C"
_symmetry_group_IT_number 15
_symmetry_cell_setting 'monoclinic'
loop_
_space_group_symop_operation_xyz
x,y,z
-x,y,1/2-z
-x,-y,-z
x,-y,1/2+z
1/2+x,1/2+y,z
1/2-x,1/2+y,1/2-z
1/2-x,1/2-y,-z
1/2+x,1/2-y,1/2+z
loop_
_atom_site_type_symbol
_atom_site_label
_atom_site_fract_x
_atom_site_fract_y
_atom_site_fract_z
Si Si1 0.431415 0.080961 0.819384
Si Si2 0.370198 0.125090 0.316857
Si Si3 0.701141 0.718114 0.580747
Si Si4 0.399525 0.645837 0.878855
Si Si5 0.824635 0.083555 0.297570
Si Si6 0.000000 0.696819 0.750000
O O1 0.310359 0.141189 0.695690
O O2 0.473359 0.124664 0.789979
O O3 0.406634 0.956308 0.795853
O O4 0.529450 0.109511 0.999001
O O5 0.367268 0.248816 0.294878
O O6 0.246167 0.091520 0.208141
O O7 0.632049 0.676727 0.572578
O O8 0.756071 0.833642 0.663632
O O9 0.888711 0.769068 0.594538
O O10 0.328881 0.538252 0.777013
O O11 0.539024 0.621366 0.035382
#
# Coordination Sequence:
#
# PCOD9258329 Si02
#       6
#     8   8   8   8   8   4
#     4  11  21  34  54  81 112 140 182 223 274 320
#     4  10  20  34  54  82 110 138 175 232 264 319
#     4  11  20  36  51  85 112 142 177 227 269 332
#     4  10  19  32  56  84 108 139 173 225 277 318
#     4  10  18  33  54  81 112 135 179 220 270 324
#     4  12  22  34  54  78 114 154 176 218 280 322
#
# _framework density 17.310856000000001
#
# number of rings (size 3 to 8) (size 9 to 14) (size 15 to 20)
#    0.000    1.455    7.273    0.545    0.000    0.000 
#    0.000    0.000    0.000    1.091    0.000    1.273 
#    0.000    0.000    0.000    0.000    0.000    0.000 
#
# Total GULP energy -122681.387919 kJ/mol
# GULP energy per Si atom -5576.426724 kJ/mol
# Density = 1.727146 g / cm^3
# Si number density = 17.310856 Si / 1000 Ang^3
#
#
#
# Elastic Constant Matrix: (Units=GPa)
#
#
# Indices 1 2 3 4 5 6 
#
# 1 69.1539 18.5501 26.6755 0.0000 18.8343 0.0000
# 2 18.5501 136.5399 20.3500 0.0000 12.8660 0.0000
# 3 26.6755 20.3500 56.7802 0.0000 12.1839 0.0000
# 4 0.0000 0.0000 0.0000 5.2222 0.0000 8.9991
# 5 18.8343 12.8660 12.1839 0.0000 26.9228 0.0000
# 6 0.0000 0.0000 0.0000 8.9991 0.0000 25.5039
#
#
#
# Elastic Compliance Matrix: (Units=1/GPa)
#
#
# Indices 1 2 3 4 5 6 
#
# 1 0.020244 -0.000706 -0.006968 0.000000 -0.010671 0.000000
# 2 -0.000706 0.007944 -0.002001 0.000000 -0.002397 0.000000
# 3 -0.006968 -0.002001 0.022540 0.000000 -0.004370 0.000000
# 4 0.000000 0.000000 0.000000 0.488560 0.000000 -0.172389
# 5 -0.010671 -0.002397 -0.004370 0.000000 0.047731 0.000000
# 6 0.000000 0.000000 0.000000 -0.172389 0.000000 0.100038
#
#
# Mechanical properties :
#
#
# Convention : Reuss Voigt Hill
#
# Bulk Modulus (GPa) = 31.86955 43.73615 37.80285
# Shear Modulus (GPa) = 6.97480 24.65634 15.81557
#
# Velocity S-wave (km/s) = 2.00945 3.77812 3.02590
# Velocity P-wave (km/s) = 4.88201 6.65975 5.83893
#
# Compressibility (1/GPa) = 0.03137791
#
# Stress axis : x y z
#
# Youngs Moduli (GPa) = 49.39721 125.88296 44.36539
#
# Poissons Ratio (x) = 0.08891 0.30913
# Poissons Ratio (y) = 0.03489 0.08878
# Poissons Ratio (z) = 0.34419 0.25189
#
# Static dielectric constant tensor:
#      x y z
#    x 1.590030 0.000000 0.023530 
#    y 0.000000 1.618600 0.000000 
#    z 0.023530 0.000000 1.571530 
# 
# From -- ./inp_files/168161.got.cif
#   From: 2010.05.17/outbox.cif.g08.bks.cpg/sg15_85_cif.got.tgz:168161.got - 2010.06.03 18:47:42.
