data_PCOD9258122
_publ_section_title
;
Structure prediction by ZEFSAII (Michael W. Deem and Ramdas Pophale) SiO2 
 PCOD9258122
Probable space group: C 2/C
;
_chemical_formula_sum "Si O2"
_cell_formula_units_Z 52
_cell_length_a 11.482589
_cell_length_b 15.786157
_cell_length_c 24.503623
_cell_angle_alpha 90.000000
_cell_angle_beta 144.264134
_cell_angle_gamma 90.000000
_cell_volume 2594.156398
_symmetry_space_group_name_H-M "C 2/C"
_symmetry_group_IT_number 15
_symmetry_cell_setting 'monoclinic'
loop_
_space_group_symop_operation_xyz
x,y,z
-x,y,1/2-z
-x,-y,-z
x,-y,1/2+z
1/2+x,1/2+y,z
1/2-x,1/2+y,1/2-z
1/2-x,1/2-y,-z
1/2+x,1/2-y,1/2+z
loop_
_atom_site_type_symbol
_atom_site_label
_atom_site_fract_x
_atom_site_fract_y
_atom_site_fract_z
Si Si1 0.292294 0.823289 0.701087
Si Si2 0.613452 0.918914 0.238990
Si Si3 0.500000 0.392137 0.750000
Si Si4 0.210742 0.250442 0.680769
Si Si5 0.031584 0.023636 0.149298
Si Si6 0.759513 0.514587 0.553778
Si Si7 0.036200 0.151760 0.004618
O O1 0.500000 0.837618 0.750000
O O2 0.342319 0.772932 0.776361
O O3 0.180632 0.906661 0.680398
O O4 0.133738 0.796204 0.592591
O O5 0.500000 0.951848 0.250000
O O6 0.613489 0.818412 0.242745
O O7 0.489443 0.963238 0.144519
O O8 0.843572 0.940169 0.316711
O O9 0.310831 0.331207 0.689547
O O10 0.513881 0.451780 0.807224
O O11 0.047626 0.209698 0.576825
O O12 0.829146 0.022605 0.039385
O O13 0.645374 0.589219 0.544826
O O14 0.699504 0.420665 0.550978
#
# Coordination Sequence:
#
# PCOD9258122 Si02
#       7
#     8   8   4   8   8   8   8
#     4  10  22  37  56  87 119 160 201 248 300 360
#     4  12  19  35  62  87 113 153 205 251 288 352
#     4  10  22  40  56  82 130 160 184 250 310 358
#     4  11  21  37  59  86 123 163 198 246 308 355
#     4  10  21  37  59  87 117 154 203 245 301 356
#     4  10  18  32  60  90 113 146 203 261 288 342
#     4  10  18  35  58  88 119 151 204 248 299 352
#
# _framework density 20.045052999999999
#
# number of rings (size 3 to 8) (size 9 to 14) (size 15 to 20)
#    0.000    1.538    3.846    3.231    0.000    1.846 
#    1.385    5.385    0.000    0.000    0.000    0.000 
#    0.000    0.000    0.000    0.000    0.000    0.000 
#
# Total GULP energy -144773.317568 kJ/mol
# GULP energy per Si atom -5568.204522 kJ/mol
# Density = 1.999943 g / cm^3
# Si number density = 20.045053 Si / 1000 Ang^3
#
#
#
# Elastic Constant Matrix: (Units=GPa)
#
#
# Indices 1 2 3 4 5 6 
#
# 1 80.7776 14.9085 51.1302 0.0001 -34.8764 0.0000
# 2 14.9085 28.8546 17.2218 0.0000 -23.1862 -0.0001
# 3 51.1302 17.2218 130.3404 0.0001 -22.5933 -0.0001
# 4 0.0001 0.0000 0.0001 31.4790 0.0001 -3.7274
# 5 -34.8764 -23.1862 -22.5933 0.0001 31.7589 0.0000
# 6 0.0000 -0.0001 -0.0001 -3.7274 0.0000 7.9213
#
#
#
# Elastic Compliance Matrix: (Units=1/GPa)
#
#
# Indices 1 2 3 4 5 6 
#
# 1 0.037349 0.033586 -0.008816 0.000000 0.059264 0.000000
# 2 0.033586 0.114079 -0.008462 0.000000 0.114149 0.000001
# 3 -0.008816 -0.008462 0.010836 0.000000 -0.008151 0.000000
# 4 0.000000 0.000000 0.000000 0.033642 -0.000001 0.015830
# 5 0.059264 0.114149 -0.008151 -0.000001 0.174106 0.000001
# 6 0.000000 0.000001 0.000000 0.015830 0.000001 0.133691
#
#
# Mechanical properties :
#
#
# Convention : Reuss Voigt Hill
#
# Bulk Modulus (GPa) = 5.13137 45.16594 25.14865
# Shear Modulus (GPa) = 9.32756 24.67930 17.00343
#
# Velocity S-wave (km/s) = 2.15949 3.51264 2.91565
# Velocity P-wave (km/s) = 2.96367 6.24761 4.88958
#
# Compressibility (1/GPa) = 0.19487972
#
# Stress axis : x y z
#
# Youngs Moduli (GPa) = 26.77452 8.76589 92.28609
#
# Poissons Ratio (x) = -0.29441 0.81362
# Poissons Ratio (y) = -0.89925 0.78090
# Poissons Ratio (z) = 0.23605 0.07417
#
# Static dielectric constant tensor:
#      x y z
#    x 1.722340 0.000000 -0.002320 
#    y 0.000000 1.739040 0.000000 
#    z -0.002320 0.000000 1.784900 
# 
# From -- ./inp_files/144143.got.cif
#   From: 2010.05.17/outbox.cif.g08.bks.cpg/sg15_73_cif.got.tgz:144143.got - 2010.06.03 18:47:42.
