data_PCOD9258620
_publ_section_title
;
Structure prediction by ZEFSAII (Michael W. Deem and Ramdas Pophale) SiO2 
 PCOD9258620
Probable space group: C 2/C
;
_chemical_formula_sum "Si O2"
_cell_formula_units_Z 64
_cell_length_a 25.194067
_cell_length_b 13.938654
_cell_length_c 14.357190
_cell_angle_alpha 90.000000
_cell_angle_beta 140.089515
_cell_angle_gamma 90.000000
_cell_volume 3234.790498
_symmetry_space_group_name_H-M "C 2/C"
_symmetry_group_IT_number 15
_symmetry_cell_setting 'monoclinic'
loop_
_space_group_symop_operation_xyz
x,y,z
-x,y,1/2-z
-x,-y,-z
x,-y,1/2+z
1/2+x,1/2+y,z
1/2-x,1/2+y,1/2-z
1/2-x,1/2-y,-z
1/2+x,1/2-y,1/2+z
loop_
_atom_site_type_symbol
_atom_site_label
_atom_site_fract_x
_atom_site_fract_y
_atom_site_fract_z
Si Si1 0.286663 0.670220 0.656094
Si Si2 0.917341 0.962709 0.677590
Si Si3 0.180455 0.378325 0.855572
Si Si4 0.137394 0.875421 0.713115
Si Si5 0.536121 0.372592 0.115998
Si Si6 0.672463 0.172801 0.669358
Si Si7 0.282826 0.512336 0.346126
Si Si8 0.997374 0.657656 0.357442
O O1 0.238240 0.597715 0.522236
O O2 0.317977 0.762723 0.641863
O O3 0.373829 0.631164 0.813219
O O4 0.219069 0.706455 0.638158
O O5 0.863865 0.900908 0.679371
O O6 0.863630 0.997870 0.518305
O O7 0.000000 0.911902 0.750000
O O8 0.948797 0.054534 0.779102
O O9 0.223744 0.415695 0.822309
O O10 0.084050 0.403520 0.727120
O O11 0.159260 0.764493 0.718298
O O12 0.042439 0.896861 0.553180
O O13 0.194184 0.941560 0.722566
O O14 0.513534 0.267778 0.124929
O O15 0.733326 0.087665 0.780752
O O16 0.583843 0.129086 0.520675
O O17 0.000000 0.655933 0.250000
#
# Coordination Sequence:
#
# PCOD9258620 Si02
#       8
#     8   8   8   8   8   8   8   8
#     4  10  18  33  61  94 122 155 198 259 323 376
#     4  12  24  38  63  95 130 167 207 263 331 393
#     4  10  20  34  59  90 122 155 205 257 319 372
#     4  11  25  43  62  95 134 168 209 267 323 388
#     4  10  20  34  63  98 129 150 198 269 337 384
#     4  11  24  40  61  89 133 169 214 258 322 385
#     4  12  25  40  65  92 128 175 214 263 319 386
#     4  10  20  34  60  92 126 159 206 270 327 369
#
# _framework density 19.784898999999999
#
# number of rings (size 3 to 8) (size 9 to 14) (size 15 to 20)
#    0.000    1.250    5.000    1.500    3.500    1.000 
#    0.000    0.000    0.000    0.750    0.000    0.000 
#    0.000    0.000    0.000    0.000    0.000    0.000 
#
# Total GULP energy -178406.662120 kJ/mol
# GULP energy per Si atom -5575.208191 kJ/mol
# Density = 1.973987 g / cm^3
# Si number density = 19.784899 Si / 1000 Ang^3
#
#
#
# Elastic Constant Matrix: (Units=GPa)
#
#
# Indices 1 2 3 4 5 6 
#
# 1 109.8114 8.0809 15.4709 0.0000 15.6611 0.0000
# 2 8.0809 49.5394 14.3772 0.0000 4.0419 0.0000
# 3 15.4709 14.3772 62.4822 0.0000 23.0405 0.0000
# 4 0.0000 0.0000 0.0000 19.8471 0.0000 0.5763
# 5 15.6611 4.0419 23.0405 0.0000 35.6744 0.0000
# 6 0.0000 0.0000 0.0000 0.5763 0.0000 30.0853
#
#
#
# Elastic Compliance Matrix: (Units=1/GPa)
#
#
# Indices 1 2 3 4 5 6 
#
# 1 0.009824 -0.001060 -0.000843 0.000000 -0.003648 0.000000
# 2 -0.001060 0.021772 -0.005263 0.000000 0.001397 0.000000
# 3 -0.000843 -0.005263 0.022404 0.000000 -0.013503 0.000000
# 4 0.000000 0.000000 0.000000 0.050413 0.000000 -0.000966
# 5 -0.003648 0.001397 -0.013503 0.000000 0.038195 0.000000
# 6 0.000000 0.000000 0.000000 -0.000966 0.000000 0.033257
#
#
# Mechanical properties :
#
#
# Convention : Reuss Voigt Hill
#
# Bulk Modulus (GPa) = 25.20968 33.07678 29.14323
# Shear Modulus (GPa) = 24.57973 29.38162 26.98068
#
# Velocity S-wave (km/s) = 3.52852 3.85782 3.69684
# Velocity P-wave (km/s) = 5.41942 6.04964 5.74318
#
# Compressibility (1/GPa) = 0.03966730
#
# Stress axis : x y z
#
# Youngs Moduli (GPa) = 101.79577 45.93020 44.63576
#
# Poissons Ratio (x) = 0.04869 0.03764
# Poissons Ratio (y) = 0.10791 0.23490
# Poissons Ratio (z) = 0.08585 0.24171
#
# Static dielectric constant tensor:
#      x y z
#    x 1.733450 0.000000 0.016970 
#    y 0.000000 1.738210 0.000000 
#    z 0.016970 0.000000 1.753460 
# 
# From -- ./inp_files/173690.got.cif
#   From: 2010.05.17/outbox.cif.g08.bks.cpg/sg15_87_cif.got.tgz:173690.got - 2010.06.03 18:47:42.
