data_PCOD9258140
_publ_section_title
;
Structure prediction by ZEFSAII (Michael W. Deem and Ramdas Pophale) SiO2 
 PCOD9258140
Probable space group: C 2/C
;
_chemical_formula_sum "Si O2"
_cell_formula_units_Z 48
_cell_length_a 16.703364
_cell_length_b 21.330516
_cell_length_c 9.639623
_cell_angle_alpha 90.000000
_cell_angle_beta 35.050296
_cell_angle_gamma 90.000000
_cell_volume 1972.425516
_symmetry_space_group_name_H-M "C 2/C"
_symmetry_group_IT_number 15
_symmetry_cell_setting 'monoclinic'
loop_
_space_group_symop_operation_xyz
x,y,z
-x,y,1/2-z
-x,-y,-z
x,-y,1/2+z
1/2+x,1/2+y,z
1/2-x,1/2+y,1/2-z
1/2-x,1/2-y,-z
1/2+x,1/2-y,1/2+z
loop_
_atom_site_type_symbol
_atom_site_label
_atom_site_fract_x
_atom_site_fract_y
_atom_site_fract_z
Si Si1 0.318631 0.209772 0.777096
Si Si2 0.409081 0.369922 0.500098
Si Si3 0.652615 0.874690 0.035933
Si Si4 0.903851 0.486890 0.000304
Si Si5 0.403338 0.487176 0.004583
Si Si6 0.948349 0.201128 0.483726
O O1 0.310723 0.140987 0.858318
O O2 0.468824 0.242798 0.554237
O O3 0.250000 0.250000 0.000000
O O4 0.216767 0.209737 0.791582
O O5 0.375096 0.440174 0.496498
O O6 0.506298 0.361085 0.497741
O O7 0.261220 0.347257 0.771244
O O8 0.500000 0.339155 0.250000
O O9 0.500000 0.844646 0.250000
O O10 0.635985 0.947119 0.020323
O O11 0.750011 0.460580 0.249183
O O12 0.000000 0.451957 0.750000
O O13 0.000000 0.500000 0.000000
O O14 0.500000 0.457035 0.750000
O O15 0.500000 0.500000 0.000000
O O16 0.000000 0.197930 0.250000
#
# Coordination Sequence:
#
# PCOD9258140 Si02
#       6
#     8   8   8   8   8   8
#     4  10  18  32  61  86 112 146 208 248 286 339
#     4  10  21  37  56  86 125 155 186 251 315 351
#     4  10  19  35  61  85 113 157 201 243 290 355
#     4  10  21  38  60  87 118 158 198 244 303 358
#     4  10  21  38  59  83 118 155 198 247 298 357
#     4  10  19  34  59  88 111 157 203 244 288 360
#
# _framework density 24.335521
#
# number of rings (size 3 to 8) (size 9 to 14) (size 15 to 20)
#    0.000    2.000    3.333    2.500    0.000    0.667 
#    6.000    0.833    0.000    0.000    0.000    0.000 
#    0.000    0.000    0.000    0.000    0.000    0.000 
#
# Total GULP energy -133697.624585 kJ/mol
# GULP energy per Si atom -5570.734358 kJ/mol
# Density = 2.428013 g / cm^3
# Si number density = 24.335521 Si / 1000 Ang^3
#
#
#
# Elastic Constant Matrix: (Units=GPa)
#
#
# Indices 1 2 3 4 5 6 
#
# 1 118.9231 12.9288 77.3080 -0.0001 -25.7908 -0.0001
# 2 12.9288 75.5926 -1.5992 -0.0002 -0.8072 0.0001
# 3 77.3080 -1.5992 219.7865 -0.0014 -24.3491 0.0002
# 4 -0.0001 -0.0002 -0.0014 6.4902 0.0004 8.6002
# 5 -25.7908 -0.8072 -24.3491 0.0004 42.3112 0.0000
# 6 -0.0001 0.0001 0.0002 8.6002 0.0000 32.7940
#
#
#
# Elastic Compliance Matrix: (Units=1/GPa)
#
#
# Indices 1 2 3 4 5 6 
#
# 1 0.012198 -0.002109 -0.003724 -0.000002 0.005252 0.000000
# 2 -0.002109 0.013600 0.000777 0.000001 -0.000579 0.000000
# 3 -0.003724 0.000777 0.005998 0.000002 0.001197 -0.000001
# 4 -0.000002 0.000001 0.000002 0.236140 -0.000002 -0.061927
# 5 0.005252 -0.000579 0.001197 -0.000002 0.027513 0.000000
# 6 0.000000 0.000000 -0.000001 -0.061927 0.000000 0.046734
#
#
# Mechanical properties :
#
#
# Convention : Reuss Voigt Hill
#
# Bulk Modulus (GPa) = 46.11930 65.73083 55.92507
# Shear Modulus (GPa) = 13.90730 38.03006 25.96868
#
# Velocity S-wave (km/s) = 2.39316 3.95744 3.27021
# Velocity P-wave (km/s) = 5.16032 6.92464 6.10653
#
# Compressibility (1/GPa) = 0.02168290
#
# Stress axis : x y z
#
# Youngs Moduli (GPa) = 81.98127 73.53073 166.72308
#
# Poissons Ratio (x) = 0.15507 0.62088
# Poissons Ratio (y) = 0.17289 -0.12948
# Poissons Ratio (z) = 0.30530 -0.05710
#
# Static dielectric constant tensor:
#      x y z
#    x 1.985440 0.000000 -0.063790 
#    y 0.000000 2.091230 0.000000 
#    z -0.063790 0.000000 2.012920 
# 
# From -- ./inp_files/44439.got.cif
#   From: 2010.05.17/outbox.cif.g08.bks.cpg/sg15_23_cif.got.tgz:44439.got - 2010.06.03 18:47:42.
