data_PCOD9258914
_publ_section_title
;
Structure prediction by ZEFSAII (Michael W. Deem and Ramdas Pophale) SiO2 
 PCOD9258914
Probable space group: C 2/C
;
_chemical_formula_sum "Si O2"
_cell_formula_units_Z 40
_cell_length_a 18.183100
_cell_length_b 7.649736
_cell_length_c 13.902591
_cell_angle_alpha 90.000000
_cell_angle_beta 54.399527
_cell_angle_gamma 90.000000
_cell_volume 1572.359764
_symmetry_space_group_name_H-M "C 2/C"
_symmetry_group_IT_number 15
_symmetry_cell_setting 'monoclinic'
loop_
_space_group_symop_operation_xyz
x,y,z
-x,y,1/2-z
-x,-y,-z
x,-y,1/2+z
1/2+x,1/2+y,z
1/2-x,1/2+y,1/2-z
1/2-x,1/2-y,-z
1/2+x,1/2-y,1/2+z
loop_
_atom_site_type_symbol
_atom_site_label
_atom_site_fract_x
_atom_site_fract_y
_atom_site_fract_z
Si Si1 0.234493 0.496386 0.945308
Si Si2 0.170699 0.795955 0.367063
Si Si3 0.344482 0.634077 0.034019
Si Si4 0.975381 0.291098 0.657143
Si Si5 0.553135 0.841725 0.119893
O O1 0.200117 0.674871 0.923545
O O2 0.148945 0.432716 0.076741
O O3 0.240268 0.338258 0.864726
O O4 0.315222 0.547422 0.953982
O O5 0.085640 0.775070 0.507468
O O6 0.124815 0.751729 0.301211
O O7 0.192902 0.997757 0.360572
O O8 0.450308 0.675264 0.954184
O O9 0.993609 0.496948 0.626437
O O10 0.000000 0.265214 0.750000
O O11 0.500000 0.761531 0.250000
#
# Coordination Sequence:
#
# PCOD9258914 Si02
#       5
#     8   8   8   8   8
#     4   8  19  33  58  80 113 145 182 229 290 334
#     4  10  19  33  60  80 106 153 188 222 279 343
#     4  10  18  34  57  81 108 147 183 233 287 333
#     4  10  20  35  55  79 118 146 189 236 275 320
#     4   8  17  32  55  80 109 141 183 227 277 325
#
# _framework density 25.43947
#
# number of rings (size 3 to 8) (size 9 to 14) (size 15 to 20)
#    1.200    1.600    0.000    1.800    0.000    0.800 
#    0.000    0.000   17.600    2.400    0.000    0.000 
#    0.000    0.000    0.000    0.000    0.000    0.000 
#
# Total GULP energy -111649.571440 kJ/mol
# GULP energy per Si atom -5582.478572 kJ/mol
# Density = 2.538157 g / cm^3
# Si number density = 25.439470 Si / 1000 Ang^3
#
#
#
# Elastic Constant Matrix: (Units=GPa)
#
#
# Indices 1 2 3 4 5 6 
#
# 1 82.7818 23.4419 -3.8400 0.0000 4.3582 0.0000
# 2 23.4419 97.8488 17.0468 -0.0001 12.7904 0.0001
# 3 -3.8400 17.0468 78.6680 0.0000 -12.9082 0.0000
# 4 0.0000 -0.0001 0.0000 4.0256 0.0000 12.2644
# 5 4.3582 12.7904 -12.9082 0.0000 27.9945 0.0000
# 6 0.0000 0.0001 0.0000 12.2644 0.0000 18.9118
#
#
#
# Elastic Compliance Matrix: (Units=1/GPa)
#
#
# Indices 1 2 3 4 5 6 
#
# 1 0.013101 -0.003404 0.001404 0.000000 0.000163 0.000000
# 2 -0.003404 0.012682 -0.004087 0.000000 -0.007149 0.000000
# 3 0.001404 -0.004087 0.015077 0.000000 0.008601 0.000000
# 4 0.000000 0.000000 0.000000 -0.254584 0.000000 0.165099
# 5 0.000163 -0.007149 0.008601 0.000000 0.042928 0.000000
# 6 0.000000 0.000000 0.000000 0.165099 0.000000 -0.054191
#
#
# Mechanical properties :
#
#
# Convention : Reuss Voigt Hill
#
# Bulk Modulus (GPa) = 34.86246 36.95510 35.90878
# Shear Modulus (GPa) = -24.60022 25.02971 0.21475
#
# Velocity S-wave (km/s) = -3.11305 3.14011 0.29086
# Velocity P-wave (km/s) = 0.90132 5.26358 3.77609
#
# Compressibility (1/GPa) = 0.02868415
#
# Stress axis : x y z
#
# Youngs Moduli (GPa) = 76.33272 78.85180 66.32547
#
# Poissons Ratio (x) = 0.26845 -0.09312
# Poissons Ratio (y) = 0.25987 0.27109
# Poissons Ratio (z) = -0.10717 0.32229
#
# Static dielectric constant tensor:
#      x y z
#    x 1.954960 0.000000 -0.005910 
#    y 0.000000 2.057560 0.000000 
#    z -0.005910 0.000000 2.086870 
# 
# From -- ./inp_files/208266.got.cif
#   From: 2010.05.17/outbox.cif.g08.bks.cpg/sg15_105_cif.got.tgz:208266.got - 2010.06.03 18:47:42.
