data_PCOD9258503
_publ_section_title
;
Structure prediction by ZEFSAII (Michael W. Deem and Ramdas Pophale) SiO2 
 PCOD9258503
Probable space group: C 2/C
;
_chemical_formula_sum "Si O2"
_cell_formula_units_Z 40
_cell_length_a 29.364991
_cell_length_b 7.009707
_cell_length_c 16.481426
_cell_angle_alpha 90.000000
_cell_angle_beta 152.630805
_cell_angle_gamma 90.000000
_cell_volume 1559.624948
_symmetry_space_group_name_H-M "C 2/C"
_symmetry_group_IT_number 15
_symmetry_cell_setting 'monoclinic'
loop_
_space_group_symop_operation_xyz
x,y,z
-x,y,1/2-z
-x,-y,-z
x,-y,1/2+z
1/2+x,1/2+y,z
1/2-x,1/2+y,1/2-z
1/2-x,1/2-y,-z
1/2+x,1/2-y,1/2+z
loop_
_atom_site_type_symbol
_atom_site_label
_atom_site_fract_x
_atom_site_fract_y
_atom_site_fract_z
Si Si1 0.407890 0.215798 0.221320
Si Si2 0.147993 0.172456 0.375288
Si Si3 0.179954 0.104396 0.604372
Si Si4 0.536407 0.295428 0.019886
Si Si5 0.371669 0.168227 0.995753
O O1 0.373163 0.441476 0.164537
O O2 0.418672 0.178213 0.333892
O O3 0.516472 0.157144 0.359041
O O4 0.345631 0.122306 0.048992
O O5 0.250000 0.250000 0.500000
O O6 0.152186 0.212515 0.478234
O O7 0.058871 0.266666 0.183416
O O8 0.122223 0.179706 0.590540
O O9 0.294466 0.089261 0.808971
O O10 0.142300 0.893892 0.531004
O O11 0.500000 0.500000 0.000000
#
# Coordination Sequence:
#
# PCOD9258503 Si02
#       5
#     8   8   8   8   8
#     4   9  19  36  59  80 118 162 193 235 300 365
#     4  10  19  31  58  91 110 149 204 248 282 350
#     4  11  21  34  60  88 117 154 203 246 295 356
#     4  10  18  33  58  83 114 154 197 243 298 349
#     4  10  20  37  59  87 118 155 204 239 295 359
#
# _framework density 25.647192
#
# number of rings (size 3 to 8) (size 9 to 14) (size 15 to 20)
#    0.000    2.000    4.000    1.800    2.800    0.800 
#    0.000    0.000    8.800    6.000    0.000    0.000 
#    0.000    0.000    0.000    0.000    0.000    0.000 
#
# Total GULP energy -111659.788666 kJ/mol
# GULP energy per Si atom -5582.989433 kJ/mol
# Density = 2.558882 g / cm^3
# Si number density = 25.647192 Si / 1000 Ang^3
#
#
#
# Elastic Constant Matrix: (Units=GPa)
#
#
# Indices 1 2 3 4 5 6 
#
# 1 161.8419 25.3629 59.2982 0.0000 -38.3711 0.0000
# 2 25.3629 87.7143 13.6698 0.0000 -5.3755 0.0000
# 3 59.2982 13.6698 145.2467 0.0000 -36.9889 0.0000
# 4 0.0000 0.0000 0.0000 50.1661 0.0000 -0.3924
# 5 -38.3711 -5.3755 -36.9889 0.0000 68.0406 0.0000
# 6 0.0000 0.0000 0.0000 -0.3924 0.0000 22.3360
#
#
#
# Elastic Compliance Matrix: (Units=1/GPa)
#
#
# Indices 1 2 3 4 5 6 
#
# 1 0.008051 -0.001774 -0.002321 0.000000 0.003139 0.000000
# 2 -0.001774 0.011969 -0.000483 0.000000 -0.000317 0.000000
# 3 -0.002321 -0.000483 0.008745 0.000000 0.003407 0.000000
# 4 0.000000 0.000000 0.000000 0.019937 0.000000 0.000350
# 5 0.003139 -0.000317 0.003407 0.000000 0.018294 0.000000
# 6 0.000000 0.000000 0.000000 0.000350 0.000000 0.044777
#
#
# Mechanical properties :
#
#
# Convention : Reuss Voigt Hill
#
# Bulk Modulus (GPa) = 50.99292 65.71829 58.35560
# Shear Modulus (GPa) = 39.22594 47.87337 43.54965
#
# Velocity S-wave (km/s) = 3.91505 4.32512 4.12518
# Velocity P-wave (km/s) = 6.35315 7.11490 6.74479
#
# Compressibility (1/GPa) = 0.01961057
#
# Stress axis : x y z
#
# Youngs Moduli (GPa) = 124.20264 83.54607 114.34454
#
# Poissons Ratio (x) = 0.14821 0.26537
# Poissons Ratio (y) = 0.22034 0.05524
# Poissons Ratio (z) = 0.28824 0.04036
#
# Static dielectric constant tensor:
#      x y z
#    x 1.966380 0.000000 -0.047120 
#    y 0.000000 2.148500 0.000000 
#    z -0.047120 0.000000 2.089270 
# 
# From -- ./inp_files/181278.got.cif
#   From: 2010.05.17/outbox.cif.g08.bks.cpg/sg15_91_cif.got.tgz:181278.got - 2010.06.03 18:47:42.
