data_PCOD9258715
_publ_section_title
;
Structure prediction by ZEFSAII (Michael W. Deem and Ramdas Pophale) SiO2 
 PCOD9258715
Probable space group: C 2/C
;
_chemical_formula_sum "Si O2"
_cell_formula_units_Z 60
_cell_length_a 12.506585
_cell_length_b 25.351602
_cell_length_c 9.673297
_cell_angle_alpha 90.000000
_cell_angle_beta 74.871076
_cell_angle_gamma 90.000000
_cell_volume 2960.734208
_symmetry_space_group_name_H-M "C 2/C"
_symmetry_group_IT_number 15
_symmetry_cell_setting 'monoclinic'
loop_
_space_group_symop_operation_xyz
x,y,z
-x,y,1/2-z
-x,-y,-z
x,-y,1/2+z
1/2+x,1/2+y,z
1/2-x,1/2+y,1/2-z
1/2-x,1/2-y,-z
1/2+x,1/2-y,1/2+z
loop_
_atom_site_type_symbol
_atom_site_label
_atom_site_fract_x
_atom_site_fract_y
_atom_site_fract_z
Si Si1 0.565036 0.362535 0.605697
Si Si2 0.550790 0.774902 0.590922
Si Si3 0.588980 0.656534 0.600855
Si Si4 0.952390 0.568146 0.019709
Si Si5 0.500000 0.006288 0.250000
Si Si6 0.902212 0.743997 0.884324
Si Si7 0.171499 0.626811 0.917009
Si Si8 0.705050 0.860365 0.085496
O O1 0.500000 0.391368 0.750000
O O2 0.473312 0.353079 0.520805
O O3 0.607841 0.305459 0.649957
O O4 0.676280 0.383297 0.497808
O O5 0.500000 0.796615 0.750000
O O6 0.611594 0.719615 0.603848
O O7 0.451060 0.759550 0.521638
O O8 0.625633 0.817431 0.488964
O O9 0.500000 0.644133 0.750000
O O10 0.701918 0.624374 0.577171
O O11 0.944269 0.529984 0.888111
O O12 0.882950 0.619055 0.997087
O O13 0.080829 0.584472 0.994615
O O14 0.921815 0.541763 0.176373
O O15 0.801203 0.703570 0.905700
O O16 0.000000 0.723053 0.750000
O O17 0.172850 0.623458 0.750629
#
# Coordination Sequence:
#
# PCOD9258715 Si02
#       8
#     8   8   8   8   4   8   8   8
#     4  10  23  36  53  82 120 164 203 244 280 325
#     4  10  21  33  51  81 120 157 203 247 284 327
#     4  10  21  38  53  80 120 169 205 239 283 330
#     4  11  23  41  67  97 116 152 182 245 317 363
#     4  10  24  44  62  94 132 132 182 248 324 384
#     4  10  18  34  53  78 117 157 202 242 287 334
#     4  12  21  36  61  84 116 157 206 242 288 359
#     4  12  20  37  61  84 115 158 207 241 289 360
#
# _framework density 20.265243000000002
#
# number of rings (size 3 to 8) (size 9 to 14) (size 15 to 20)
#    0.000    1.333    5.333    0.800    0.933    2.133 
#    0.000    0.000    0.000    0.000    0.000   18.667 
#    0.000    0.000    0.000    0.000    0.000    0.000 
#
# Total GULP energy -167292.233425 kJ/mol
# GULP energy per Si atom -5576.407781 kJ/mol
# Density = 2.021912 g / cm^3
# Si number density = 20.265243 Si / 1000 Ang^3
#
#
#
# Elastic Constant Matrix: (Units=GPa)
#
#
# Indices 1 2 3 4 5 6 
#
# 1 84.6286 16.7489 23.3331 0.0000 -6.4304 0.0000
# 2 16.7489 35.5799 5.7945 0.0000 4.4132 0.0000
# 3 23.3331 5.7945 117.0367 0.0000 1.3559 0.0000
# 4 0.0000 0.0000 0.0000 22.8303 0.0000 9.1233
# 5 -6.4304 4.4132 1.3559 0.0000 29.2972 0.0000
# 6 0.0000 0.0000 0.0000 9.1233 0.0000 8.3031
#
#
#
# Elastic Compliance Matrix: (Units=1/GPa)
#
#
# Indices 1 2 3 4 5 6 
#
# 1 0.014184 -0.006791 -0.002541 0.000000 0.004254 0.000000
# 2 -0.006791 0.032113 -0.000163 0.000000 -0.006320 0.000000
# 3 -0.002541 -0.000163 0.009070 0.000000 -0.000953 0.000000
# 4 0.000000 0.000000 0.000000 0.078090 0.000000 -0.085804
# 5 0.004254 -0.006320 -0.000953 0.000000 0.036063 0.000000
# 6 0.000000 0.000000 0.000000 -0.085804 0.000000 0.214718
#
#
# Mechanical properties :
#
#
# Convention : Reuss Voigt Hill
#
# Bulk Modulus (GPa) = 27.48920 36.55535 32.02228
# Shear Modulus (GPa) = 12.03796 24.84404 18.44100
#
# Velocity S-wave (km/s) = 2.43990 3.50515 3.01986
# Velocity P-wave (km/s) = 4.64022 5.87018 5.29106
#
# Compressibility (1/GPa) = 0.03637792
#
# Stress axis : x y z
#
# Youngs Moduli (GPa) = 70.50152 31.14010 110.25360
#
# Poissons Ratio (x) = 0.21147 0.28014
# Poissons Ratio (y) = 0.47876 0.01795
# Poissons Ratio (z) = 0.17914 0.00507
#
# Static dielectric constant tensor:
#      x y z
#    x 1.744650 0.000000 -0.047830 
#    y 0.000000 1.776360 0.000000 
#    z -0.047830 0.000000 1.763070 
# 
# From -- ./inp_files/35197.got.cif
#   From: 2010.05.17/outbox.cif.g08.bks.cpg/sg15_18_cif.got.tgz:35197.got - 2010.06.03 18:47:42.
