data_PCOD9258213
_publ_section_title
;
Structure prediction by ZEFSAII (Michael W. Deem and Ramdas Pophale) SiO2 
 PCOD9258213
Probable space group: C 2/C
;
_chemical_formula_sum "Si O2"
_cell_formula_units_Z 64
_cell_length_a 24.262811
_cell_length_b 11.112236
_cell_length_c 20.279394
_cell_angle_alpha 90.000000
_cell_angle_beta 149.317434
_cell_angle_gamma 90.000000
_cell_volume 2790.019007
_symmetry_space_group_name_H-M "C 2/C"
_symmetry_group_IT_number 15
_symmetry_cell_setting 'monoclinic'
loop_
_space_group_symop_operation_xyz
x,y,z
-x,y,1/2-z
-x,-y,-z
x,-y,1/2+z
1/2+x,1/2+y,z
1/2-x,1/2+y,1/2-z
1/2-x,1/2-y,-z
1/2+x,1/2-y,1/2+z
loop_
_atom_site_type_symbol
_atom_site_label
_atom_site_fract_x
_atom_site_fract_y
_atom_site_fract_z
Si Si1 0.349968 0.845270 0.903084
Si Si2 0.493540 0.827391 0.636979
Si Si3 0.688932 0.420556 0.131009
Si Si4 0.056330 0.052660 0.741123
Si Si5 0.220209 0.652794 0.524787
Si Si6 0.375740 0.434066 0.814684
Si Si7 0.925241 0.665406 0.913764
Si Si8 0.216831 0.357984 0.818913
O O1 0.348054 0.710150 0.929637
O O2 0.253062 0.920747 0.835479
O O3 0.313361 0.836545 0.788462
O O4 0.473383 0.887302 0.023598
O O5 0.515651 0.688437 0.681724
O O6 0.404402 0.880834 0.594758
O O7 0.453403 0.833372 0.519917
O O8 0.611430 0.887212 0.753675
O O9 0.623118 0.465940 0.126870
O O10 0.814285 0.401614 0.282931
O O11 0.698131 0.533501 0.091242
O O12 0.185424 0.057900 0.886131
O O13 0.000000 0.012414 0.750000
O O14 0.050036 0.972493 0.669424
O O15 0.250000 0.750000 0.500000
O O16 0.240710 0.731292 0.611805
O O17 0.408800 0.303919 0.875606
#
# Coordination Sequence:
#
# PCOD9258213 Si02
#       8
#     8   8   8   8   8   8   8   8
#     4   9  19  34  50  80 111 133 166 214 261 314
#     4  10  19  33  52  78 111 134 168 213 262 316
#     4  10  18  33  50  79 112 133 168 208 265 317
#     4  11  22  36  50  76 104 139 179 215 257 301
#     4  11  20  34  52  73 106 141 171 212 252 304
#     4  10  20  33  54  77 107 137 170 215 257 315
#     4  10  20  33  54  83 106 138 167 212 270 311
#     4   9  20  31  51  79 107 139 164 210 264 309
#
# _framework density 22.938911999999998
#
# number of rings (size 3 to 8) (size 9 to 14) (size 15 to 20)
#    0.000    2.000    1.250    5.250    0.000    8.500 
#    0.000    0.000    0.000    0.750   13.000    0.000 
#    0.000    0.000    0.000    0.000    0.000    0.000 
#
# Total GULP energy -178897.088762 kJ/mol
# GULP energy per Si atom -5590.534024 kJ/mol
# Density = 2.288670 g / cm^3
# Si number density = 22.938912 Si / 1000 Ang^3
#
#
#
# Elastic Constant Matrix: (Units=GPa)
#
#
# Indices 1 2 3 4 5 6 
#
# 1 158.0557 36.2418 33.1001 0.0000 38.5077 0.0000
# 2 36.2418 63.2090 -3.0883 0.0000 7.2141 0.0000
# 3 33.1001 -3.0883 65.8066 0.0000 32.7738 0.0000
# 4 0.0000 0.0000 0.0000 23.1905 0.0000 8.2058
# 5 38.5077 7.2141 32.7738 0.0000 43.6073 0.0000
# 6 0.0000 0.0000 0.0000 8.2058 0.0000 29.6812
#
#
#
# Elastic Compliance Matrix: (Units=1/GPa)
#
#
# Indices 1 2 3 4 5 6 
#
# 1 0.009263 -0.004724 -0.001912 0.000000 -0.005961 0.000000
# 2 -0.004724 0.019005 0.004405 0.000000 -0.002283 0.000000
# 3 -0.001912 0.004405 0.025390 0.000000 -0.018123 0.000000
# 4 0.000000 0.000000 0.000000 0.047797 0.000000 -0.013214
# 5 -0.005961 -0.002283 -0.018123 0.000000 0.042194 0.000000
# 6 0.000000 0.000000 0.000000 -0.013214 0.000000 0.037345
#
#
# Mechanical properties :
#
#
# Convention : Reuss Voigt Hill
#
# Bulk Modulus (GPa) = 20.32674 46.61982 33.47328
# Shear Modulus (GPa) = 24.77037 34.01698 29.39367
#
# Velocity S-wave (km/s) = 3.28966 3.85507 3.58353
# Velocity P-wave (km/s) = 4.82800 6.33901 5.63439
#
# Compressibility (1/GPa) = 0.04919629
#
# Stress axis : x y z
#
# Youngs Moduli (GPa) = 107.95832 52.61781 39.38521
#
# Poissons Ratio (x) = 0.24857 0.07531
# Poissons Ratio (y) = 0.51000 -0.17350
# Poissons Ratio (z) = 0.20642 -0.23179
#
# Static dielectric constant tensor:
#      x y z
#    x 1.866550 0.000000 0.038670 
#    y 0.000000 1.871100 0.000000 
#    z 0.038670 0.000000 2.026660 
# 
# From -- ./inp_files/283511.got.cif
#   From: 2010.05.17/outbox.cif.g08.bks.cpg/sg15_142_cif.got.tgz:283511.got - 2010.06.03 18:47:42.
