data_PCOD9258315
_publ_section_title
;
Structure prediction by ZEFSAII (Michael W. Deem and Ramdas Pophale) SiO2 
 PCOD9258315
Probable space group: C 2/C
;
_chemical_formula_sum "Si O2"
_cell_formula_units_Z 32
_cell_length_a 24.886068
_cell_length_b 9.473682
_cell_length_c 11.045670
_cell_angle_alpha 90.000000
_cell_angle_beta 144.257421
_cell_angle_gamma 90.000000
_cell_volume 1521.204060
_symmetry_space_group_name_H-M "C 2/C"
_symmetry_group_IT_number 15
_symmetry_cell_setting 'monoclinic'
loop_
_space_group_symop_operation_xyz
x,y,z
-x,y,1/2-z
-x,-y,-z
x,-y,1/2+z
1/2+x,1/2+y,z
1/2-x,1/2+y,1/2-z
1/2-x,1/2-y,-z
1/2+x,1/2-y,1/2+z
loop_
_atom_site_type_symbol
_atom_site_label
_atom_site_fract_x
_atom_site_fract_y
_atom_site_fract_z
Si Si1 0.730585 0.526549 0.080152
Si Si2 0.641746 0.709547 0.301175
Si Si3 0.086687 0.504286 0.746786
Si Si4 0.157603 0.306119 0.069026
O O1 0.820385 0.534382 0.158530
O O2 0.764365 0.419314 0.247252
O O3 0.701940 0.676760 0.078287
O O4 0.645869 0.448988 0.856569
O O5 0.750000 0.750000 0.500000
O O6 0.613977 0.739850 0.111853
O O7 0.595800 0.830201 0.299022
O O8 0.000000 0.500000 0.500000
O O9 0.089877 0.397143 0.862835
#
# Coordination Sequence:
#
# PCOD9258315 Si02
#       4
#     8   8   8   8
#     4  10  19  34  57  79 101 139 181 215 255 310
#     4   8  18  33  51  76 102 134 176 213 252 307
#     4  10  20  33  52  78 105 135 172 215 266 313
#     4  10  18  33  54  77 106 137 174 220 256 302
#
# _framework density 21.035968
#
# number of rings (size 3 to 8) (size 9 to 14) (size 15 to 20)
#    0.000    3.000    0.000    5.250    0.000    4.000 
#    0.000    1.250    0.000    6.000    0.000    0.000 
#    0.000    0.000    0.000    0.000    0.000    0.000 
#
# Total GULP energy -89159.867558 kJ/mol
# GULP energy per Si atom -5572.491722 kJ/mol
# Density = 2.098809 g / cm^3
# Si number density = 21.035968 Si / 1000 Ang^3
#
#
#
# Elastic Constant Matrix: (Units=GPa)
#
#
# Indices 1 2 3 4 5 6 
#
# 1 65.8229 64.4457 35.8407 0.0000 -12.5398 0.0000
# 2 64.4457 120.8443 71.6982 0.0000 -9.9195 0.0000
# 3 35.8407 71.6982 121.3964 0.0000 -27.6861 0.0000
# 4 0.0000 0.0000 0.0000 31.9077 0.0000 -22.8332
# 5 -12.5398 -9.9195 -27.6861 0.0000 24.4484 0.0000
# 6 0.0000 0.0000 0.0000 -22.8332 0.0000 30.5701
#
#
#
# Elastic Compliance Matrix: (Units=1/GPa)
#
#
# Indices 1 2 3 4 5 6 
#
# 1 0.035937 -0.021136 0.005556 0.000000 0.016149 0.000000
# 2 -0.021136 0.025552 -0.012078 0.000000 -0.014152 0.000000
# 3 0.005556 -0.012078 0.017881 0.000000 0.018198 0.000000
# 4 0.000000 0.000000 0.000000 0.067325 0.000000 0.050286
# 5 0.016149 -0.014152 0.018198 0.000000 0.064052 0.000000
# 6 0.000000 0.000000 0.000000 0.050286 0.000000 0.070271
#
#
# Mechanical properties :
#
#
# Convention : Reuss Voigt Hill
#
# Bulk Modulus (GPa) = 41.57430 72.44809 57.01120
# Shear Modulus (GPa) = 14.52003 26.45717 20.48860
#
# Velocity S-wave (km/s) = 2.63011 3.55027 3.12425
# Velocity P-wave (km/s) = 5.38791 7.16385 6.33839
#
# Compressibility (1/GPa) = 0.02405332
#
# Stress axis : x y z
#
# Youngs Moduli (GPa) = 27.82618 39.13662 55.92524
#
# Poissons Ratio (x) = 0.82720 -0.31073
# Poissons Ratio (y) = 0.58814 0.67548
# Poissons Ratio (z) = -0.15461 0.47270
#
# Static dielectric constant tensor:
#      x y z
#    x 1.811590 0.000000 -0.057890 
#    y 0.000000 1.767800 0.000000 
#    z -0.057890 0.000000 1.806630 
# 
# From -- ./inp_files/93420.got.cif
#   From: 2010.05.17/outbox.cif.g08.bks.cpg/sg15_47_cif.got.tgz:93420.got - 2010.06.03 18:47:42.
