data_PCOD9258400
_publ_section_title
;
Structure prediction by ZEFSAII (Michael W. Deem and Ramdas Pophale) SiO2 
 PCOD9258400
Probable space group: C 2/C
;
_chemical_formula_sum "Si O2"
_cell_formula_units_Z 48
_cell_length_a 30.936201
_cell_length_b 14.386212
_cell_length_c 10.817216
_cell_angle_alpha 90.000000
_cell_angle_beta 24.642390
_cell_angle_gamma 90.000000
_cell_volume 2007.319156
_symmetry_space_group_name_H-M "C 2/C"
_symmetry_group_IT_number 15
_symmetry_cell_setting 'monoclinic'
loop_
_space_group_symop_operation_xyz
x,y,z
-x,y,1/2-z
-x,-y,-z
x,-y,1/2+z
1/2+x,1/2+y,z
1/2-x,1/2+y,1/2-z
1/2-x,1/2-y,-z
1/2+x,1/2-y,1/2+z
loop_
_atom_site_type_symbol
_atom_site_label
_atom_site_fract_x
_atom_site_fract_y
_atom_site_fract_z
Si Si1 0.337413 0.550270 0.601178
Si Si2 0.971030 0.618976 0.012452
Si Si3 0.914680 0.147583 0.863691
Si Si4 0.369389 0.289903 0.203887
Si Si5 0.682043 0.168738 0.857777
Si Si6 0.356404 0.063354 0.789835
O O1 0.407041 0.464031 0.380642
O O2 0.381285 0.625197 0.581060
O O3 0.285322 0.614359 0.631168
O O4 0.245952 0.492249 0.907551
O O5 0.932858 0.696905 0.020690
O O6 0.903652 0.639392 0.314699
O O7 0.938219 0.518676 0.049470
O O8 0.091077 0.618281 0.734033
O O9 0.914920 0.173686 0.717336
O O10 0.000000 0.169556 0.750000
O O11 0.820365 0.219072 0.144697
O O12 0.250000 0.250000 0.500000
O O13 0.653629 0.128475 0.800106
#
# Coordination Sequence:
#
# PCOD9258400 Si02
#       6
#     8   8   8   8   8   8
#     4  11  23  36  62  91 115 159 201 246 300 348
#     4   9  19  32  58  86 114 156 199 237 298 358
#     4  11  24  41  62  88 119 159 204 245 294 363
#     4  11  19  42  64  84 115 169 199 235 297 375
#     4  10  19  36  59  81 115 159 197 238 292 361
#     4  10  18  33  55  91 118 145 200 255 293 341
#
# _framework density 23.912489999999998
#
# number of rings (size 3 to 8) (size 9 to 14) (size 15 to 20)
#    0.000    1.667    5.000    3.500    0.000    1.333 
#    0.000    1.667    0.000    0.000    0.000    0.000 
#    0.000    0.000    0.000    0.000    0.000    0.000 
#
# Total GULP energy -133844.673368 kJ/mol
# GULP energy per Si atom -5576.861390 kJ/mol
# Density = 2.385806 g / cm^3
# Si number density = 23.912490 Si / 1000 Ang^3
#
#
#
# Elastic Constant Matrix: (Units=GPa)
#
#
# Indices 1 2 3 4 5 6 
#
# 1 84.9927 34.1531 18.7438 0.0000 -26.9863 0.0000
# 2 34.1531 146.3346 1.2208 0.0000 -28.8358 0.0000
# 3 18.7438 1.2208 41.9005 0.0000 -13.1738 0.0000
# 4 0.0000 0.0000 0.0000 10.9812 0.0000 -14.7656
# 5 -26.9863 -28.8358 -13.1738 0.0000 19.0927 0.0000
# 6 0.0000 0.0000 0.0000 -14.7656 0.0000 55.1881
#
#
#
# Elastic Compliance Matrix: (Units=1/GPa)
#
#
# Indices 1 2 3 4 5 6 
#
# 1 0.021558 0.001529 0.000789 0.000000 0.033325 0.000000
# 2 0.001529 0.010960 0.006232 0.000000 0.023014 0.000000
# 3 0.000789 0.006232 0.034022 0.000000 0.034003 0.000000
# 4 0.000000 0.000000 0.000000 0.142234 0.000000 0.038055
# 5 0.033325 0.023014 0.034003 0.000000 0.157697 0.000000
# 6 0.000000 0.000000 0.000000 0.038055 0.000000 0.028301
#
#
# Mechanical properties :
#
#
# Convention : Reuss Voigt Hill
#
# Bulk Modulus (GPa) = 11.95591 42.38478 27.17035
# Shear Modulus (GPa) = 12.32884 31.65975 21.99429
#
# Velocity S-wave (km/s) = 2.27311 3.64261 3.03608
# Velocity P-wave (km/s) = 3.44965 5.95440 4.86595
#
# Compressibility (1/GPa) = 0.08364065
#
# Stress axis : x y z
#
# Youngs Moduli (GPa) = 46.38545 91.24253 29.39242
#
# Poissons Ratio (x) = -0.13947 -0.02319
# Poissons Ratio (y) = -0.07090 -0.18319
# Poissons Ratio (z) = -0.03659 -0.56867
#
# Static dielectric constant tensor:
#      x y z
#    x 1.941590 0.000000 -0.003630 
#    y 0.000000 1.926210 0.000000 
#    z -0.003630 0.000000 1.942610 
# 
# From -- ./inp_files/126835.got.cif
#   From: 2010.05.17/outbox.cif.g08.bks.cpg/sg15_64_cif.got.tgz:126835.got - 2010.06.03 18:47:42.
