data_PCOD9258691
_publ_section_title
;
Structure prediction by ZEFSAII (Michael W. Deem and Ramdas Pophale) SiO2 
 PCOD9258691
Probable space group: C 2/C
;
_chemical_formula_sum "Si O2"
_cell_formula_units_Z 64
_cell_length_a 20.752357
_cell_length_b 18.018600
_cell_length_c 8.572516
_cell_angle_alpha 90.000000
_cell_angle_beta 119.782520
_cell_angle_gamma 90.000000
_cell_volume 2782.114434
_symmetry_space_group_name_H-M "C 2/C"
_symmetry_group_IT_number 15
_symmetry_cell_setting 'monoclinic'
loop_
_space_group_symop_operation_xyz
x,y,z
-x,y,1/2-z
-x,-y,-z
x,-y,1/2+z
1/2+x,1/2+y,z
1/2-x,1/2+y,1/2-z
1/2-x,1/2-y,-z
1/2+x,1/2-y,1/2+z
loop_
_atom_site_type_symbol
_atom_site_label
_atom_site_fract_x
_atom_site_fract_y
_atom_site_fract_z
Si Si1 0.338584 0.087807 0.075019
Si Si2 0.917148 0.475498 0.369882
Si Si3 0.627659 0.841668 0.364501
Si Si4 0.144620 0.887652 0.583004
Si Si5 0.711468 0.349202 0.098158
Si Si6 0.702837 0.792367 0.768692
Si Si7 0.067534 0.196337 0.224413
Si Si8 0.687330 0.501228 0.412654
O O1 0.328374 0.173804 0.108404
O O2 0.372015 0.048206 0.267944
O O3 0.386177 0.070367 0.979746
O O4 0.261453 0.044048 0.961882
O O5 0.904087 0.422776 0.204233
O O6 0.000000 0.500000 0.500000
O O7 0.706920 0.833837 0.371930
O O8 0.649033 0.821155 0.565755
O O9 0.568896 0.784805 0.220405
O O10 0.217000 0.833553 0.656619
O O11 0.076012 0.840993 0.566935
O O12 0.161514 0.948467 0.738641
O O13 0.134135 0.937219 0.416493
O O14 0.705231 0.296360 0.242627
O O15 0.644893 0.320728 0.907236
O O16 0.703312 0.437805 0.068902
O O17 0.000000 0.169528 0.250000
#
# Coordination Sequence:
#
# PCOD9258691 Si02
#       8
#     8   8   8   8   8   8   8   8
#     4  11  22  36  56  83 115 156 198 242 290 356
#     4  12  25  39  54  82 124 162 196 238 297 358
#     4  11  19  38  60  85 120 157 203 244 294 357
#     4  10  18  34  51  85 110 146 182 245 292 342
#     4  10  18  36  59  86 115 156 200 251 297 352
#     4  10  18  34  62  84 112 150 204 252 287 342
#     4  10  20  34  59  89 114 148 201 250 298 355
#     4  10  19  31  58  80 112 143 194 238 290 341
#
# _framework density 23.004086000000001
#
# number of rings (size 3 to 8) (size 9 to 14) (size 15 to 20)
#    0.000    1.500    5.000    3.375    0.000    3.000 
#    0.000    4.375    0.000    0.000    0.000    8.750 
#    0.000    0.000    0.000    0.000    0.000    0.000 
#
# Total GULP energy -178644.098487 kJ/mol
# GULP energy per Si atom -5582.628078 kJ/mol
# Density = 2.295173 g / cm^3
# Si number density = 23.004086 Si / 1000 Ang^3
#
#
#
# Elastic Constant Matrix: (Units=GPa)
#
#
# Indices 1 2 3 4 5 6 
#
# 1 70.2143 5.5113 4.9167 0.0000 -7.2312 0.0000
# 2 5.5113 78.4196 9.6466 0.0000 -14.7669 0.0000
# 3 4.9167 9.6466 53.3361 0.0000 -6.7355 0.0000
# 4 0.0000 0.0000 0.0000 26.3368 0.0000 -22.8629
# 5 -7.2312 -14.7669 -6.7355 0.0000 20.2881 0.0000
# 6 0.0000 0.0000 0.0000 -22.8629 0.0000 16.3823
#
#
#
# Elastic Compliance Matrix: (Units=1/GPa)
#
#
# Indices 1 2 3 4 5 6 
#
# 1 0.014812 -0.000003 -0.000729 0.000000 0.005035 0.000000
# 2 -0.000003 0.014874 -0.001381 0.000000 0.010367 0.000000
# 3 -0.000729 -0.001381 0.019734 0.000000 0.005287 0.000000
# 4 0.000000 0.000000 0.000000 -0.179516 0.000000 -0.250531
# 5 0.005035 0.010367 0.005287 0.000000 0.060385 0.000000
# 6 0.000000 0.000000 0.000000 -0.250531 0.000000 -0.288598
#
#
# Mechanical properties :
#
#
# Convention : Reuss Voigt Hill
#
# Bulk Modulus (GPa) = 22.12691 26.90213 24.51452
# Shear Modulus (GPa) = -14.74847 24.72779 4.98966
#
# Velocity S-wave (km/s) = -2.53479 3.28217 1.47436
# Velocity P-wave (km/s) = 1.03571 5.10719 3.68484
#
# Compressibility (1/GPa) = 0.04519384
#
# Stress axis : x y z
#
# Youngs Moduli (GPa) = 67.51300 67.23090 50.67501
#
# Poissons Ratio (x) = 0.00021 0.03694
# Poissons Ratio (y) = 0.00021 0.06997
# Poissons Ratio (z) = 0.04922 0.09283
#
# Static dielectric constant tensor:
#      x y z
#    x 1.876430 0.000000 0.013900 
#    y 0.000000 1.926270 0.000000 
#    z 0.013900 0.000000 2.753100 
# 
# From -- ./inp_files/57874.got.cif
#   From: 2010.05.17/outbox.cif.g08.bks.cpg/sg15_29_cif.got.tgz:57874.got - 2010.06.03 18:47:42.
