data_PCOD9258566
_publ_section_title
;
Structure prediction by ZEFSAII (Michael W. Deem and Ramdas Pophale) SiO2 
 PCOD9258566
Probable space group: C 2/C
;
_chemical_formula_sum "Si O2"
_cell_formula_units_Z 48
_cell_length_a 8.479727
_cell_length_b 26.714017
_cell_length_c 11.016869
_cell_angle_alpha 90.000000
_cell_angle_beta 79.478616
_cell_angle_gamma 90.000000
_cell_volume 2453.665204
_symmetry_space_group_name_H-M "C 2/C"
_symmetry_group_IT_number 15
_symmetry_cell_setting 'monoclinic'
loop_
_space_group_symop_operation_xyz
x,y,z
-x,y,1/2-z
-x,-y,-z
x,-y,1/2+z
1/2+x,1/2+y,z
1/2-x,1/2+y,1/2-z
1/2-x,1/2-y,-z
1/2+x,1/2-y,1/2+z
loop_
_atom_site_type_symbol
_atom_site_label
_atom_site_fract_x
_atom_site_fract_y
_atom_site_fract_z
Si Si1 0.322282 0.474472 0.532665
Si Si2 0.000000 0.692052 0.750000
Si Si3 0.500000 0.280347 0.250000
Si Si4 0.684326 0.468683 0.237952
Si Si5 0.535309 0.376200 0.884434
Si Si6 0.310717 0.266991 0.622303
Si Si7 0.676282 0.637719 0.868293
O O1 0.500000 0.500000 0.500000
O O2 0.247865 0.475621 0.407709
O O3 0.239635 0.502166 0.658357
O O4 0.354090 0.417458 0.566638
O O5 0.057207 0.728176 0.849572
O O6 0.149017 0.660174 0.680528
O O7 0.346681 0.244783 0.276850
O O8 0.455118 0.320100 0.150694
O O9 0.500000 0.486893 0.250000
O O10 0.669690 0.411170 0.283723
O O11 0.500000 0.389153 0.750000
O O12 0.621799 0.322441 0.875940
O O13 0.372581 0.375608 0.987738
O O14 0.250000 0.250000 0.500000
#
# Coordination Sequence:
#
# PCOD9258566 Si02
#       7
#     8   4   4   8   8   8   8
#     4  10  19  32  57  93 119 149 204 255 308 354
#     4  10  26  40  60  90 118 170 208 246 304 372
#     4  10  20  38  62  82 116 158 202 246 294 366
#     4  10  18  33  59  91 115 156 199 265 303 359
#     4  12  22  35  58  93 125 154 198 257 305 363
#     4  11  23  39  60  88 121 161 201 252 306 359
#     4  11  20  38  62  87 121 157 210 245 304 366
#
# _framework density 19.562570999999998
#
# number of rings (size 3 to 8) (size 9 to 14) (size 15 to 20)
#    0.000    1.333    6.667    1.500    2.333    2.000 
#    0.000    0.000    0.000    2.000    0.000    0.000 
#    0.000    0.000    0.000    0.000    0.000    0.000 
#
# Total GULP energy -133734.922027 kJ/mol
# GULP energy per Si atom -5572.288418 kJ/mol
# Density = 1.951805 g / cm^3
# Si number density = 19.562571 Si / 1000 Ang^3
#
#
#
# Elastic Constant Matrix: (Units=GPa)
#
#
# Indices 1 2 3 4 5 6 
#
# 1 38.9433 25.5572 31.1997 0.0000 7.6217 0.0000
# 2 25.5572 113.0541 54.7722 0.0000 -1.3276 0.0000
# 3 31.1997 54.7722 149.4004 0.0000 32.4560 0.0000
# 4 0.0000 0.0000 0.0000 29.2140 0.0000 1.5550
# 5 7.6217 -1.3276 32.4560 0.0000 23.1485 0.0000
# 6 0.0000 0.0000 0.0000 1.5550 0.0000 -23.0545
#
#
#
# Elastic Compliance Matrix: (Units=1/GPa)
#
#
# Indices 1 2 3 4 5 6 
#
# 1 0.033657 -0.006072 -0.003336 0.000000 -0.006753 0.000000
# 2 -0.006072 0.013275 -0.006037 0.000000 0.011225 0.000000
# 3 -0.003336 -0.006037 0.013575 0.000000 -0.018281 0.000000
# 4 0.000000 0.000000 0.000000 0.034108 0.000000 0.002301
# 5 -0.006753 0.011225 -0.018281 0.000000 0.071698 0.000000
# 6 0.000000 0.000000 0.000000 0.002301 0.000000 -0.043220
#
#
# Mechanical properties :
#
#
# Convention : Reuss Voigt Hill
#
# Bulk Modulus (GPa) = 33.76437 58.27289 46.01863
# Shear Modulus (GPa) = 30.51510 18.51951 24.51730
#
# Velocity S-wave (km/s) = 3.95381 3.08016 3.54400
# Velocity P-wave (km/s) = 6.17581 6.51939 6.34992
#
# Compressibility (1/GPa) = 0.02961702
#
# Stress axis : x y z
#
# Youngs Moduli (GPa) = 29.71137 75.33154 73.66661
#
# Poissons Ratio (x) = 0.45740 0.24573
# Poissons Ratio (y) = 0.18040 0.44474
# Poissons Ratio (z) = 0.09911 0.45479
#
# Static dielectric constant tensor:
#      x y z
#    x 1.663370 0.000000 -0.004280 
#    y 0.000000 1.695930 0.000000 
#    z -0.004280 0.000000 1.800170 
# 
# From -- ./inp_files/79831.got.cif
#   From: 2010.05.17/outbox.cif.g08.bks.cpg/sg15_40_cif.got.tgz:79831.got - 2010.06.03 18:47:42.
