data_PCOD9258954
_publ_section_title
;
Structure prediction by ZEFSAII (Michael W. Deem and Ramdas Pophale) SiO2 
 PCOD9258954
Probable space group: C 2/C
;
_chemical_formula_sum "Si O2"
_cell_formula_units_Z 56
_cell_length_a 16.678608
_cell_length_b 8.243397
_cell_length_c 29.923171
_cell_angle_alpha 90.000000
_cell_angle_beta 37.243491
_cell_angle_gamma 90.000000
_cell_volume 2489.861000
_symmetry_space_group_name_H-M "C 2/C"
_symmetry_group_IT_number 15
_symmetry_cell_setting 'monoclinic'
loop_
_space_group_symop_operation_xyz
x,y,z
-x,y,1/2-z
-x,-y,-z
x,-y,1/2+z
1/2+x,1/2+y,z
1/2-x,1/2+y,1/2-z
1/2-x,1/2-y,-z
1/2+x,1/2-y,1/2+z
loop_
_atom_site_type_symbol
_atom_site_label
_atom_site_fract_x
_atom_site_fract_y
_atom_site_fract_z
Si Si1 0.747736 0.297298 0.217322
Si Si2 0.147958 0.352072 0.603258
Si Si3 0.001925 0.975131 0.195470
Si Si4 0.112524 0.236108 0.932089
Si Si5 0.431285 0.923746 0.637758
Si Si6 0.360876 0.636851 0.082116
Si Si7 0.591910 0.802448 0.166001
O O1 0.645484 0.442823 0.254868
O O2 0.668445 0.184759 0.287206
O O3 0.884601 0.390853 0.166919
O O4 0.764854 0.203648 0.162881
O O5 0.090966 0.177281 0.641900
O O6 0.291788 0.359907 0.563467
O O7 0.083919 0.514003 0.653104
O O8 0.085317 0.380268 0.581592
O O9 0.000000 0.975828 0.250000
O O10 0.047114 0.148442 0.157017
O O11 0.094423 0.364752 0.901088
O O12 0.257742 0.242643 0.888227
O O13 0.103910 0.047519 0.919826
O O14 0.992748 0.244181 0.020265
O O15 0.500000 0.801132 0.250000
#
# Coordination Sequence:
#
# PCOD9258954 Si02
#       7
#     8   8   8   8   8   8   8
#     4  11  23  37  63  92 127 166 203 268 310 384
#     4  10  22  37  61  90 120 168 201 262 309 377
#     4  10  18  34  57  90 119 154 214 254 303 359
#     4  10  23  42  64  95 122 172 205 268 308 385
#     4  11  24  37  59  97 130 154 211 261 334 345
#     4  10  22  44  68  84 129 169 221 240 321 387
#     4  10  21  35  65  88 122 161 218 253 307 378
#
# _framework density 22.491216999999999
#
# number of rings (size 3 to 8) (size 9 to 14) (size 15 to 20)
#    0.000    1.714    1.429    3.000   10.000    1.143 
#    0.000    0.000    0.000    2.571    0.000    0.000 
#    0.000    0.000    0.000    0.000    0.000    0.000 
#
# Total GULP energy -156050.620643 kJ/mol
# GULP energy per Si atom -5573.236452 kJ/mol
# Density = 2.244003 g / cm^3
# Si number density = 22.491217 Si / 1000 Ang^3
#
#
#
# Elastic Constant Matrix: (Units=GPa)
#
#
# Indices 1 2 3 4 5 6 
#
# 1 29.7133 13.8792 -1.5098 -0.0016 -9.7164 -0.0026
# 2 13.8792 111.1033 8.4877 0.0057 -0.2973 0.0026
# 3 -1.5098 8.4877 36.2459 -0.0005 -12.9614 -0.0004
# 4 -0.0016 0.0057 -0.0005 -33.8135 -0.0011 -36.1097
# 5 -9.7164 -0.2973 -12.9614 -0.0011 21.7383 -0.0009
# 6 -0.0026 0.0026 -0.0004 -36.1097 -0.0009 23.8279
#
#
#
# Elastic Compliance Matrix: (Units=1/GPa)
#
#
# Indices 1 2 3 4 5 6 
#
# 1 0.047212 -0.006896 0.014100 -0.000005 0.029415 0.000000
# 2 -0.006896 0.010209 -0.004741 0.000002 -0.005770 0.000001
# 3 0.014100 -0.004741 0.040058 -0.000003 0.030122 0.000000
# 4 -0.000005 0.000002 -0.000003 -0.011295 -0.000005 -0.017117
# 5 0.029415 -0.005770 0.030122 -0.000005 0.077031 0.000000
# 6 0.000000 0.000001 0.000000 -0.017117 0.000000 0.016028
#
#
# Mechanical properties :
#
#
# Convention : Reuss Voigt Hill
#
# Bulk Modulus (GPa) = 9.76519 24.30853 17.03686
# Shear Modulus (GPa) = 23.98630 12.76423 18.37526
#
# Velocity S-wave (km/s) = 3.26923 2.38485 2.86142
# Velocity P-wave (km/s) = 4.31297 4.29125 4.30213
#
# Compressibility (1/GPa) = 0.10240460
#
# Stress axis : x y z
#
# Youngs Moduli (GPa) = 21.18121 97.95402 24.96356
#
# Poissons Ratio (x) = 0.67551 -0.35199
# Poissons Ratio (y) = 0.14607 0.11835
# Poissons Ratio (z) = -0.29866 0.46441
#
# Static dielectric constant tensor:
#      x y z
#    x 1.885340 0.000000 -0.040490 
#    y 0.000000 1.855790 0.000000 
#    z -0.040490 0.000000 1.809830 
# 
# From -- ./inp_files/298506.got.cif
#   From: 2010.05.17/outbox.cif.g08.bks.cpg/sg15_150_cif.got.tgz:298506.got - 2010.06.03 18:47:42.
