data_PCOD9258952
_publ_section_title
;
Structure prediction by ZEFSAII (Michael W. Deem and Ramdas Pophale) SiO2 
 PCOD9258952
Probable space group: C 2/C
;
_chemical_formula_sum "Si O2"
_cell_formula_units_Z 48
_cell_length_a 26.332733
_cell_length_b 10.950952
_cell_length_c 25.149259
_cell_angle_alpha 90.000000
_cell_angle_beta 19.874248
_cell_angle_gamma 90.000000
_cell_volume 2465.453753
_symmetry_space_group_name_H-M "C 2/C"
_symmetry_group_IT_number 15
_symmetry_cell_setting 'monoclinic'
loop_
_space_group_symop_operation_xyz
x,y,z
-x,y,1/2-z
-x,-y,-z
x,-y,1/2+z
1/2+x,1/2+y,z
1/2-x,1/2+y,1/2-z
1/2-x,1/2-y,-z
1/2+x,1/2-y,1/2+z
loop_
_atom_site_type_symbol
_atom_site_label
_atom_site_fract_x
_atom_site_fract_y
_atom_site_fract_z
Si Si1 0.280283 0.578357 0.235992
Si Si2 0.733020 0.921352 0.176330
Si Si3 0.094704 0.349889 0.781064
Si Si4 0.261567 0.112748 0.633013
Si Si5 0.523384 0.749370 0.032094
Si Si6 0.633164 0.678366 0.652016
O O1 0.253548 0.493850 0.211770
O O2 0.299175 0.490057 0.268333
O O3 0.424869 0.664456 0.090413
O O4 0.138273 0.663881 0.388087
O O5 0.592708 0.831920 0.321371
O O6 0.694024 0.030094 0.174767
O O7 0.878390 0.838601 0.027133
O O8 0.192158 0.245850 0.714614
O O9 0.055480 0.283413 0.764698
O O10 0.940491 0.383099 0.961261
O O11 0.213289 0.097193 0.618629
O O12 0.500000 0.617661 0.750000
O O13 0.750000 0.750000 0.500000
#
# Coordination Sequence:
#
# PCOD9258952 Si02
#       6
#     8   8   8   8   8   8
#     4  11  23  38  57  80 120 154 201 242 280 341
#     4  11  23  38  57  80 120 155 201 240 282 341
#     4  10  22  34  57  86 119 148 186 234 303 343
#     4  10  22  34  57  86 119 147 187 234 303 343
#     4  10  24  36  53  80 106 163 195 230 282 339
#     4  10  18  34  57  90 116 141 184 243 306 351
#
# _framework density 19.469031999999999
#
# number of rings (size 3 to 8) (size 9 to 14) (size 15 to 20)
#    1.000    0.667    3.333    1.000    7.000    0.000 
#    0.000    0.000    0.000    0.000    0.000   23.333 
#    0.000    0.000    0.000    0.000    0.000    0.000 
#
# Total GULP energy -133885.250036 kJ/mol
# GULP energy per Si atom -5578.552085 kJ/mol
# Density = 1.942472 g / cm^3
# Si number density = 19.469032 Si / 1000 Ang^3
#
#
#
# Elastic Constant Matrix: (Units=GPa)
#
#
# Indices 1 2 3 4 5 6 
#
# 1 44.6653 13.1307 -2.1924 0.0005 -9.3380 -0.0001
# 2 13.1307 96.1682 28.0432 0.0006 -15.5582 -0.0001
# 3 -2.1924 28.0432 61.0637 0.0028 -25.0969 0.0000
# 4 0.0005 0.0006 0.0028 34.7362 -0.0001 -11.1778
# 5 -9.3380 -15.5582 -25.0969 -0.0001 26.2619 -0.0001
# 6 -0.0001 -0.0001 0.0000 -11.1778 -0.0001 17.6680
#
#
#
# Elastic Compliance Matrix: (Units=1/GPa)
#
#
# Indices 1 2 3 4 5 6 
#
# 1 0.027479 -0.003857 0.009608 -0.000001 0.016668 -0.000001
# 2 -0.003857 0.012697 -0.005668 0.000000 0.000734 0.000000
# 3 0.009608 -0.005668 0.031863 -0.000003 0.030508 -0.000002
# 4 -0.000001 0.000000 -0.000003 0.036148 -0.000003 0.022869
# 5 0.016668 0.000734 0.030508 -0.000003 0.073594 -0.000002
# 6 -0.000001 0.000000 -0.000002 0.022869 -0.000002 0.071068
#
#
# Mechanical properties :
#
#
# Convention : Reuss Voigt Hill
#
# Bulk Modulus (GPa) = 13.84939 31.09558 22.47249
# Shear Modulus (GPa) = 18.06687 26.59427 22.33057
#
# Velocity S-wave (km/s) = 3.04958 3.69992 3.39038
# Velocity P-wave (km/s) = 4.41915 5.85312 5.18594
#
# Compressibility (1/GPa) = 0.07220533
#
# Stress axis : x y z
#
# Youngs Moduli (GPa) = 36.39140 78.76128 31.38449
#
# Poissons Ratio (x) = 0.30381 -0.30155
# Poissons Ratio (y) = 0.14037 0.17788
# Poissons Ratio (z) = -0.34966 0.44639
#
# Static dielectric constant tensor:
#      x y z
#    x 1.691170 0.000000 -0.019240 
#    y 0.000000 1.683450 0.000000 
#    z -0.019240 0.000000 1.706500 
# 
# From -- ./inp_files/303218.got.cif
#   From: 2010.05.17/outbox.cif.g08.bks.cpg/sg15_152_cif.got.tgz:303218.got - 2010.06.03 18:47:42.
