data_PCOD9258625
_publ_section_title
;
Structure prediction by ZEFSAII (Michael W. Deem and Ramdas Pophale) SiO2 
 PCOD9258625
Probable space group: C 2/C
;
_chemical_formula_sum "Si O2"
_cell_formula_units_Z 40
_cell_length_a 16.393695
_cell_length_b 9.273400
_cell_length_c 13.117612
_cell_angle_alpha 90.000000
_cell_angle_beta 76.407707
_cell_angle_gamma 90.000000
_cell_volume 1938.356224
_symmetry_space_group_name_H-M "C 2/C"
_symmetry_group_IT_number 15
_symmetry_cell_setting 'monoclinic'
loop_
_space_group_symop_operation_xyz
x,y,z
-x,y,1/2-z
-x,-y,-z
x,-y,1/2+z
1/2+x,1/2+y,z
1/2-x,1/2+y,1/2-z
1/2-x,1/2-y,-z
1/2+x,1/2-y,1/2+z
loop_
_atom_site_type_symbol
_atom_site_label
_atom_site_fract_x
_atom_site_fract_y
_atom_site_fract_z
Si Si1 0.321232 0.042682 0.531257
Si Si2 0.677698 0.205133 0.601700
Si Si3 0.775197 0.960521 0.247162
Si Si4 0.847403 0.134238 0.044112
Si Si5 0.416639 0.495954 0.339400
O O1 0.289877 0.979781 0.649081
O O2 0.238290 0.088979 0.490776
O O3 0.363072 0.195692 0.541773
O O4 0.366590 0.926773 0.446219
O O5 0.750000 0.250000 0.500000
O O6 0.723896 0.143844 0.688158
O O7 0.620407 0.342105 0.641368
O O8 0.848742 0.897388 0.297334
O O9 0.826504 0.070664 0.160680
O O10 0.918968 0.061872 0.954079
O O11 0.500000 0.494329 0.250000
#
# Coordination Sequence:
#
# PCOD9258625 Si02
#       5
#     8   8   8   8   8
#     4   9  18  30  56  83 112 147 200 249 282 338
#     4  11  19  38  57  89 118 153 208 249 283 362
#     4  10  18  33  62  81 113 154 205 237 293 348
#     4   9  18  33  51  84 114 149 196 242 286 357
#     4  11  23  38  58  89 124 157 193 253 310 350
#
# _framework density 20.636040999999999
#
# number of rings (size 3 to 8) (size 9 to 14) (size 15 to 20)
#    0.000    2.000    6.000    1.200    0.000    2.400 
#    0.000    1.000    0.000    4.800    0.000    0.000 
#    0.000    0.000    0.000    0.000    0.000    0.000 
#
# Total GULP energy -111390.079602 kJ/mol
# GULP energy per Si atom -5569.503980 kJ/mol
# Density = 2.058907 g / cm^3
# Si number density = 20.636041 Si / 1000 Ang^3
#
#
#
# Elastic Constant Matrix: (Units=GPa)
#
#
# Indices 1 2 3 4 5 6 
#
# 1 19.9681 3.8353 28.9488 0.0000 -2.3465 0.0000
# 2 3.8353 93.8071 50.8998 0.0000 -3.6099 0.0000
# 3 28.9488 50.8998 154.2478 0.0000 2.4095 0.0000
# 4 0.0000 0.0000 0.0000 -26.1771 0.0000 -45.6250
# 5 -2.3465 -3.6099 2.4095 0.0000 31.4638 0.0000
# 6 0.0000 0.0000 0.0000 -45.6250 0.0000 -23.9305
#
#
#
# Elastic Compliance Matrix: (Units=1/GPa)
#
#
# Indices 1 2 3 4 5 6 
#
# 1 0.072478 0.005797 -0.015629 0.000000 0.007267 0.000000
# 2 0.005797 0.013554 -0.005598 0.000000 0.002416 0.000000
# 3 -0.015629 -0.005598 0.011305 0.000000 -0.002674 0.000000
# 4 0.000000 0.000000 0.000000 0.016445 0.000000 -0.031353
# 5 0.007267 0.002416 -0.002674 0.000000 0.032806 0.000000
# 6 0.000000 0.000000 0.000000 -0.031353 0.000000 0.017989
#
#
# Mechanical properties :
#
#
# Convention : Reuss Voigt Hill
#
# Bulk Modulus (GPa) = 15.04289 48.37675 31.70982
# Shear Modulus (GPa) = 22.97826 8.56053 15.76940
#
# Velocity S-wave (km/s) = 3.34054 2.03896 2.76736
# Velocity P-wave (km/s) = 4.71003 5.38859 5.06069
#
# Compressibility (1/GPa) = 0.06647661
#
# Stress axis : x y z
#
# Youngs Moduli (GPa) = 13.79720 73.78044 88.45374
#
# Poissons Ratio (x) = -0.42767 1.38243
# Poissons Ratio (y) = -0.07998 0.49518
# Poissons Ratio (z) = 0.21563 0.41304
#
# Static dielectric constant tensor:
#      x y z
#    x 1.768610 0.000000 0.033450 
#    y 0.000000 1.834540 0.000000 
#    z 0.033450 0.000000 1.778780 
# 
# From -- ./inp_files/165641.got.cif
#   From: 2010.05.17/outbox.cif.g08.bks.cpg/sg15_83_cif.got.tgz:165641.got - 2010.06.03 18:47:42.
