data_PCOD9258767
_publ_section_title
;
Structure prediction by ZEFSAII (Michael W. Deem and Ramdas Pophale) SiO2 
 PCOD9258767
Probable space group: C 2/C
;
_chemical_formula_sum "Si O2"
_cell_formula_units_Z 52
_cell_length_a 10.103498
_cell_length_b 13.761547
_cell_length_c 26.526586
_cell_angle_alpha 90.000000
_cell_angle_beta 45.220044
_cell_angle_gamma 90.000000
_cell_volume 2617.983436
_symmetry_space_group_name_H-M "C 2/C"
_symmetry_group_IT_number 15
_symmetry_cell_setting 'monoclinic'
loop_
_space_group_symop_operation_xyz
x,y,z
-x,y,1/2-z
-x,-y,-z
x,-y,1/2+z
1/2+x,1/2+y,z
1/2-x,1/2+y,1/2-z
1/2-x,1/2-y,-z
1/2+x,1/2-y,1/2+z
loop_
_atom_site_type_symbol
_atom_site_label
_atom_site_fract_x
_atom_site_fract_y
_atom_site_fract_z
Si Si1 0.927388 0.434165 0.128996
Si Si2 0.845985 0.369626 0.529209
Si Si3 0.845188 0.297668 0.369115
Si Si4 0.007167 0.148605 0.590520
Si Si5 0.901411 0.368627 0.940494
Si Si6 0.923740 0.986544 0.340592
Si Si7 0.500000 0.354086 0.750000
O O1 0.979010 0.362044 0.160916
O O2 0.998940 0.545059 0.116729
O O3 0.718227 0.439320 0.162432
O O4 0.058766 0.395261 0.048407
O O5 0.733563 0.269342 0.564582
O O6 0.708721 0.453344 0.585675
O O7 0.006738 0.367170 0.528463
O O8 0.676233 0.361840 0.394028
O O9 0.876106 0.219942 0.315540
O O10 0.055435 0.260913 0.590977
O O11 0.183196 0.116287 0.509059
O O12 0.982299 0.091804 0.649268
O O13 0.053564 0.067766 0.279179
#
# Coordination Sequence:
#
# PCOD9258767 Si02
#       7
#     8   8   8   8   8   8   4
#     4  11  18  34  57  88 108 146 174 227 277 334
#     4   9  16  34  54  84 114 146 173 215 271 346
#     4  10  23  34  55  79 119 142 176 231 284 307
#     4  10  18  34  54  84 108 147 166 227 276 324
#     4   9  17  30  55  84 122 134 172 212 279 343
#     4  10  19  36  62  75 104 150 198 214 257 331
#     4  10  24  44  54  74 102 158 198 222 256 338
#
# _framework density 19.862615999999999
#
# number of rings (size 3 to 8) (size 9 to 14) (size 15 to 20)
#    0.000    2.154    3.077    2.308    0.000    1.846 
#    0.000    1.538    0.000    2.769    0.000    0.000 
#    0.000    0.000    0.000    0.000    0.000    0.000 
#
# Total GULP energy -144787.785295 kJ/mol
# GULP energy per Si atom -5568.760973 kJ/mol
# Density = 1.981741 g / cm^3
# Si number density = 19.862616 Si / 1000 Ang^3
#
#
#
# Elastic Constant Matrix: (Units=GPa)
#
#
# Indices 1 2 3 4 5 6 
#
# 1 56.2040 36.7073 5.7109 0.0000 -3.6533 0.0001
# 2 36.7073 76.0942 4.2464 0.0000 4.4610 0.0001
# 3 5.7109 4.2464 50.7454 -0.0001 6.4355 0.0001
# 4 0.0000 0.0000 -0.0001 32.4068 0.0001 5.3110
# 5 -3.6533 4.4610 6.4355 0.0001 13.0982 -0.0001
# 6 0.0001 0.0001 0.0001 5.3110 -0.0001 28.3890
#
#
#
# Elastic Compliance Matrix: (Units=1/GPa)
#
#
# Indices 1 2 3 4 5 6 
#
# 1 0.028577 -0.014436 -0.003884 0.000000 0.014796 0.000000
# 2 -0.014436 0.020718 0.001383 0.000000 -0.011762 0.000000
# 3 -0.003884 0.001383 0.021569 0.000000 -0.012152 0.000000
# 4 0.000000 0.000000 0.000000 0.031834 0.000000 -0.005955
# 5 0.014796 -0.011762 -0.012152 0.000000 0.090450 0.000000
# 6 0.000000 0.000000 0.000000 -0.005955 0.000000 0.036339
#
#
# Mechanical properties :
#
#
# Convention : Reuss Voigt Hill
#
# Bulk Modulus (GPa) = 27.03588 30.70809 28.87199
# Shear Modulus (GPa) = 18.13622 23.87073 21.00348
#
# Velocity S-wave (km/s) = 3.02501 3.47045 3.25535
# Velocity P-wave (km/s) = 5.08349 5.61716 5.35697
#
# Compressibility (1/GPa) = 0.03698788
#
# Stress axis : x y z
#
# Youngs Moduli (GPa) = 34.99309 48.26759 46.36339
#
# Poissons Ratio (x) = 0.69679 0.18010
# Poissons Ratio (y) = 0.50516 -0.06410
# Poissons Ratio (z) = 0.13593 -0.06674
#
# Static dielectric constant tensor:
#      x y z
#    x 1.705900 0.000000 -0.019410 
#    y 0.000000 1.762070 0.000000 
#    z -0.019410 0.000000 1.775420 
# 
# From -- ./inp_files/231291.got.cif
#   From: 2010.05.17/outbox.cif.g08.bks.cpg/sg15_116_cif.got.tgz:231291.got - 2010.06.03 18:47:42.
