data_PCOD9258478
_publ_section_title
;
Structure prediction by ZEFSAII (Michael W. Deem and Ramdas Pophale) SiO2 
 PCOD9258478
Probable space group: C 2/C
;
_chemical_formula_sum "Si O2"
_cell_formula_units_Z 52
_cell_length_a 19.753637
_cell_length_b 7.554753
_cell_length_c 21.123544
_cell_angle_alpha 90.000000
_cell_angle_beta 41.094151
_cell_angle_gamma 90.000000
_cell_volume 2072.032874
_symmetry_space_group_name_H-M "C 2/C"
_symmetry_group_IT_number 15
_symmetry_cell_setting 'monoclinic'
loop_
_space_group_symop_operation_xyz
x,y,z
-x,y,1/2-z
-x,-y,-z
x,-y,1/2+z
1/2+x,1/2+y,z
1/2-x,1/2+y,1/2-z
1/2-x,1/2-y,-z
1/2+x,1/2-y,1/2+z
loop_
_atom_site_type_symbol
_atom_site_label
_atom_site_fract_x
_atom_site_fract_y
_atom_site_fract_z
Si Si1 0.557304 0.918836 0.842748
Si Si2 0.503341 0.299470 0.935249
Si Si3 0.180651 0.214039 0.127694
Si Si4 0.138292 0.746828 0.948231
Si Si5 0.150567 0.022388 0.034698
Si Si6 0.000000 0.487007 0.250000
Si Si7 0.307178 0.870842 0.645918
O O1 0.540604 0.123813 0.873284
O O2 0.540118 0.900801 0.780668
O O3 0.460949 0.825260 0.943856
O O4 0.665391 0.864720 0.799105
O O5 0.591627 0.358258 0.922175
O O6 0.462901 0.441261 0.913336
O O7 0.405878 0.230643 0.045915
O O8 0.286209 0.302787 0.029554
O O9 0.093045 0.352109 0.170031
O O10 0.203077 0.197786 0.186693
O O11 0.158846 0.032867 0.104497
O O12 0.187925 0.572682 0.883089
O O13 0.195480 0.863570 0.960733
#
# Coordination Sequence:
#
# PCOD9258478 Si02
#       7
#     8   8   8   8   8   4   8
#     4   9  18  35  58  80 111 149 179 225 286 338
#     4   8  14  31  56  86 109 138 179 223 281 337
#     4  10  22  36  57  78 111 153 188 226 273 347
#     4   9  17  30  60  88 112 132 176 246 285 320
#     4  10  18  33  57  88 110 137 191 230 275 332
#     4  12  22  40  60  74 110 164 198 216 282 350
#     4   8  17  35  56  83 110 140 179 230 286 326
#
# _framework density 25.096129000000001
#
# number of rings (size 3 to 8) (size 9 to 14) (size 15 to 20)
#    0.000    2.769    1.538    2.308    2.154    0.615 
#    0.000    3.846    6.769    0.000    0.000    0.000 
#    0.000    0.000    0.000    0.000    0.000    0.000 
#
# Total GULP energy -145039.154178 kJ/mol
# GULP energy per Si atom -5578.429007 kJ/mol
# Density = 2.503901 g / cm^3
# Si number density = 25.096129 Si / 1000 Ang^3
#
#
#
# Elastic Constant Matrix: (Units=GPa)
#
#
# Indices 1 2 3 4 5 6 
#
# 1 179.5873 19.7682 37.7776 -0.0006 43.6669 0.0007
# 2 19.7682 54.1293 1.6243 -0.0011 5.6764 0.0004
# 3 37.7776 1.6243 35.2537 -0.0003 1.6683 0.0002
# 4 -0.0006 -0.0011 -0.0003 16.7060 0.0003 10.6788
# 5 43.6669 5.6764 1.6683 0.0003 32.0421 -0.0002
# 6 0.0007 0.0004 0.0002 10.6788 -0.0002 35.7028
#
#
#
# Elastic Compliance Matrix: (Units=1/GPa)
#
#
# Indices 1 2 3 4 5 6 
#
# 1 0.012183 -0.002454 -0.012207 0.000001 -0.015533 0.000000
# 2 -0.002454 0.019336 0.001747 0.000002 -0.000172 -0.000001
# 3 -0.012207 0.001747 0.040694 0.000000 0.014208 0.000000
# 4 0.000001 0.000002 0.000000 0.074008 -0.000002 -0.022136
# 5 -0.015533 -0.000172 0.014208 -0.000002 0.051668 0.000001
# 6 0.000000 -0.000001 0.000000 -0.022136 0.000001 0.034630
#
#
# Mechanical properties :
#
#
# Convention : Reuss Voigt Hill
#
# Bulk Modulus (GPa) = 21.55878 43.03450 32.29664
# Shear Modulus (GPa) = 18.26079 30.87685 24.56882
#
# Velocity S-wave (km/s) = 2.70040 3.51143 3.13227
# Velocity P-wave (km/s) = 4.28159 5.79873 5.09692
#
# Compressibility (1/GPa) = 0.04638482
#
# Stress axis : x y z
#
# Youngs Moduli (GPa) = 82.08000 51.71664 24.57346
#
# Poissons Ratio (x) = 0.12692 0.29998
# Poissons Ratio (y) = 0.20143 -0.04293
# Poissons Ratio (z) = 1.00198 -0.09035
#
# Static dielectric constant tensor:
#      x y z
#    x 2.682590 0.000010 -0.112700 
#    y 0.000010 2.003570 0.000000 
#    z -0.112700 0.000000 2.092130 
# 
# From -- ./inp_files/209086.got.cif
#   From: 2010.05.17/outbox.cif.g08.bks.cpg/sg15_105_cif.got.tgz:209086.got - 2010.06.03 18:47:42.
