data_PCOD9258609
_publ_section_title
;
Structure prediction by ZEFSAII (Michael W. Deem and Ramdas Pophale) SiO2 
 PCOD9258609
Probable space group: C 2/C
;
_chemical_formula_sum "Si O2"
_cell_formula_units_Z 64
_cell_length_a 9.504108
_cell_length_b 21.080686
_cell_length_c 23.306477
_cell_angle_alpha 90.000000
_cell_angle_beta 44.448734
_cell_angle_gamma 90.000000
_cell_volume 3269.932197
_symmetry_space_group_name_H-M "C 2/C"
_symmetry_group_IT_number 15
_symmetry_cell_setting 'monoclinic'
loop_
_space_group_symop_operation_xyz
x,y,z
-x,y,1/2-z
-x,-y,-z
x,-y,1/2+z
1/2+x,1/2+y,z
1/2-x,1/2+y,1/2-z
1/2-x,1/2-y,-z
1/2+x,1/2-y,1/2+z
loop_
_atom_site_type_symbol
_atom_site_label
_atom_site_fract_x
_atom_site_fract_y
_atom_site_fract_z
Si Si1 0.701407 0.349738 0.224675
Si Si2 0.323628 0.468858 0.589653
Si Si3 0.264154 0.157557 0.453508
Si Si4 0.603465 0.911523 0.122297
Si Si5 0.868002 0.318165 0.573232
Si Si6 0.099994 0.885935 0.571380
Si Si7 0.326955 0.686814 0.635350
Si Si8 0.386464 0.743109 0.091979
O O1 0.500000 0.368115 0.250000
O O2 0.667060 0.332048 0.300552
O O3 0.790659 0.287928 0.166889
O O4 0.872924 0.403166 0.173122
O O5 0.500000 0.500000 0.500000
O O6 0.244240 0.407656 0.578770
O O7 0.158936 0.523658 0.638834
O O8 0.430882 0.440676 0.615164
O O9 0.440267 0.156811 0.448015
O O10 0.279651 0.215987 0.404217
O O11 0.047071 0.170094 0.545382
O O12 0.669515 0.854841 0.145299
O O13 0.738773 0.903055 0.025468
O O14 0.714752 0.371743 0.596907
O O15 0.781011 0.260427 0.636218
O O16 0.953797 0.284072 0.490826
O O17 0.995067 0.819163 0.585093
#
# Coordination Sequence:
#
# PCOD9258609 Si02
#       8
#     8   8   8   8   8   8   8   8
#     4  12  24  35  53  88 125 155 184 234 300 358
#     4   9  18  37  57  79 108 144 198 241 278 337
#     4  10  19  34  59  87 115 147 192 248 278 331
#     4  11  20  38  58  81 114 153 198 240 282 344
#     4  11  18  31  56  89 120 143 185 243 293 328
#     4  10  18  33  61  86 107 150 196 242 276 334
#     4  11  21  35  55  86 121 153 187 232 294 351
#     4  10  18  35  56  81 122 155 184 226 288 355
#
# _framework density 19.572271000000001
#
# number of rings (size 3 to 8) (size 9 to 14) (size 15 to 20)
#    0.000    1.500    6.250    4.500    0.000    0.000 
#    0.000    3.750    0.000   12.000    0.000    5.250 
#    0.000    0.000    0.000    0.000    0.000    0.000 
#
# Total GULP energy -178674.604154 kJ/mol
# GULP energy per Si atom -5583.581380 kJ/mol
# Density = 1.952772 g / cm^3
# Si number density = 19.572271 Si / 1000 Ang^3
#
#
#
# Elastic Constant Matrix: (Units=GPa)
#
#
# Indices 1 2 3 4 5 6 
#
# 1 139.7610 44.4336 22.2456 -0.0006 -18.3889 0.0012
# 2 44.4336 79.3248 8.8237 0.0001 -23.3183 0.0001
# 3 22.2456 8.8237 35.4574 -0.0010 -3.3861 0.0009
# 4 -0.0006 0.0001 -0.0010 1.2189 0.0005 3.3455
# 5 -18.3889 -23.3183 -3.3861 0.0005 17.4795 -0.0006
# 6 0.0012 0.0001 0.0009 3.3455 -0.0006 27.6907
#
#
#
# Elastic Compliance Matrix: (Units=1/GPa)
#
#
# Indices 1 2 3 4 5 6 
#
# 1 0.009625 -0.003551 -0.004728 -0.000001 0.004473 0.000000
# 2 -0.003551 0.022281 -0.000851 -0.000023 0.025823 0.000003
# 3 -0.004728 -0.000851 0.031378 0.000040 -0.000031 -0.000006
# 4 -0.000001 -0.000023 0.000040 1.227395 -0.000062 -0.148289
# 5 0.004473 0.025823 -0.000031 -0.000062 0.096360 0.000009
# 6 0.000000 0.000003 -0.000006 -0.148289 0.000009 0.054029
#
#
# Mechanical properties :
#
#
# Convention : Reuss Voigt Hill
#
# Bulk Modulus (GPa) = 22.20994 45.06100 33.63547
# Shear Modulus (GPa) = 3.39136 21.21385 12.30260
#
# Velocity S-wave (km/s) = 1.31776 3.29579 2.50986
# Velocity P-wave (km/s) = 3.69968 6.12828 5.06179
#
# Compressibility (1/GPa) = 0.04502488
#
# Stress axis : x y z
#
# Youngs Moduli (GPa) = 103.89635 44.88145 31.86957
#
# Poissons Ratio (x) = 0.15935 0.15068
# Poissons Ratio (y) = 0.36888 0.02712
# Poissons Ratio (z) = 0.49121 0.03820
#
# Static dielectric constant tensor:
#      x y z
#    x 1.722640 0.000000 -0.017290 
#    y 0.000000 1.912680 0.000000 
#    z -0.017290 0.000000 1.699060 
# 
# From -- ./inp_files/266102.got.cif
#   From: 2010.05.17/outbox.cif.g08.bks.cpg/sg15_134_cif.got.tgz:266102.got - 2010.06.03 18:47:42.
