data_PCOD9258406
_publ_section_title
;
Structure prediction by ZEFSAII (Michael W. Deem and Ramdas Pophale) SiO2 
 PCOD9258406
Probable space group: C 2/C
;
_chemical_formula_sum "Si O2"
_cell_formula_units_Z 64
_cell_length_a 18.685103
_cell_length_b 8.891768
_cell_length_c 28.371932
_cell_angle_alpha 90.000000
_cell_angle_beta 40.914587
_cell_angle_gamma 90.000000
_cell_volume 3087.234031
_symmetry_space_group_name_H-M "C 2/C"
_symmetry_group_IT_number 15
_symmetry_cell_setting 'monoclinic'
loop_
_space_group_symop_operation_xyz
x,y,z
-x,y,1/2-z
-x,-y,-z
x,-y,1/2+z
1/2+x,1/2+y,z
1/2-x,1/2+y,1/2-z
1/2-x,1/2-y,-z
1/2+x,1/2-y,1/2+z
loop_
_atom_site_type_symbol
_atom_site_label
_atom_site_fract_x
_atom_site_fract_y
_atom_site_fract_z
Si Si1 0.260736 0.457245 0.077392
Si Si2 0.276301 0.857403 0.712511
Si Si3 0.993945 0.497677 0.571538
Si Si4 0.546295 0.540872 0.350675
Si Si5 0.085121 0.187040 0.529142
Si Si6 0.007878 0.190505 0.026554
Si Si7 0.539945 0.170497 0.646307
Si Si8 0.683451 0.955067 0.219885
O O1 0.299050 0.604197 0.029526
O O2 0.156031 0.378744 0.107491
O O3 0.235088 0.493436 0.144310
O O4 0.366986 0.350624 0.024756
O O5 0.374791 0.918974 0.631661
O O6 0.247503 0.685432 0.713338
O O7 0.161874 0.948712 0.766758
O O8 0.315521 0.901744 0.745784
O O9 0.081889 0.365035 0.529968
O O10 0.998227 0.629539 0.531592
O O11 0.012616 0.589988 0.610479
O O12 0.490170 0.383706 0.392088
O O13 0.559643 0.621040 0.395776
O O14 0.468259 0.651918 0.359965
O O15 0.031436 0.140352 0.505340
O O16 0.437873 0.111664 0.727860
#
# Coordination Sequence:
#
# PCOD9258406 Si02
#       8
#     8   8   8   8   8   8   8   8
#     4  11  21  36  56  75 108 146 176 216 262 315
#     4  10  18  33  56  78 105 133 166 220 267 304
#     4  10  21  34  51  79 111 140 175 218 268 320
#     4   9  18  33  53  78 103 135 180 217 261 318
#     4  11  21  33  54  80 107 137 179 224 266 318
#     4  10  20  33  52  80 109 138 177 222 268 317
#     4   9  21  37  54  77 104 141 181 219 259 318
#     4  10  20  35  58  83 103 132 176 218 269 319
#
# _framework density 20.730530000000002
#
# number of rings (size 3 to 8) (size 9 to 14) (size 15 to 20)
#    0.000    2.000    0.000    6.000    0.000    5.000 
#    0.000    0.000    0.000    0.000    0.000    8.750 
#    0.000    0.000    0.000    0.000    0.000    0.000 
#
# Total GULP energy -178544.486703 kJ/mol
# GULP energy per Si atom -5579.515209 kJ/mol
# Density = 2.068335 g / cm^3
# Si number density = 20.730530 Si / 1000 Ang^3
#
#
#
# Elastic Constant Matrix: (Units=GPa)
#
#
# Indices 1 2 3 4 5 6 
#
# 1 52.5547 2.8004 16.0004 0.0000 -23.8116 0.0006
# 2 2.8004 76.0334 9.0328 0.0000 -7.5636 0.0013
# 3 16.0004 9.0328 79.1286 0.0000 -12.6206 0.0000
# 4 0.0000 0.0000 0.0000 16.1421 0.0000 1.3210
# 5 -23.8116 -7.5636 -12.6206 0.0000 28.7834 0.0000
# 6 0.0006 0.0013 0.0000 1.3210 0.0000 24.3681
#
#
#
# Elastic Compliance Matrix: (Units=1/GPa)
#
#
# Indices 1 2 3 4 5 6 
#
# 1 0.031026 0.001639 -0.002471 0.000000 0.025014 -0.000001
# 2 0.001639 0.013673 -0.001186 0.000000 0.004429 -0.000001
# 3 -0.002471 -0.001186 0.013867 0.000000 0.003724 0.000000
# 4 0.000000 0.000000 0.000000 0.062226 0.000000 -0.003373
# 5 0.025014 0.004429 0.003724 0.000000 0.058233 -0.000001
# 6 -0.000001 -0.000001 0.000000 -0.003373 -0.000001 0.041220
#
#
# Mechanical properties :
#
#
# Convention : Reuss Voigt Hill
#
# Bulk Modulus (GPa) = 18.33838 29.26488 23.80163
# Shear Modulus (GPa) = 20.62216 25.85091 23.23653
#
# Velocity S-wave (km/s) = 3.15742 3.53512 3.35159
# Velocity P-wave (km/s) = 4.70720 5.55069 5.14625
#
# Compressibility (1/GPa) = 0.05453044
#
# Stress axis : x y z
#
# Youngs Moduli (GPa) = 32.23066 73.13561 72.11514
#
# Poissons Ratio (x) = -0.11989 0.17821
# Poissons Ratio (y) = -0.05283 0.08552
# Poissons Ratio (z) = 0.07965 0.08673
#
# Static dielectric constant tensor:
#      x y z
#    x 1.729800 0.000000 0.011880 
#    y 0.000000 1.789820 0.000000 
#    z 0.011880 0.000000 1.810450 
# 
# From -- ./inp_files/315701.got.cif
#   From: 2010.05.17/outbox.cif.g08.bks.cpg/sg15_158_cif.got.tgz:315701.got - 2010.06.03 18:47:42.
