data_PCOD9258592
_publ_section_title
;
Structure prediction by ZEFSAII (Michael W. Deem and Ramdas Pophale) SiO2 
 PCOD9258592
Probable space group: C 2/C
;
_chemical_formula_sum "Si O2"
_cell_formula_units_Z 44
_cell_length_a 9.394526
_cell_length_b 18.285225
_cell_length_c 12.160616
_cell_angle_alpha 90.000000
_cell_angle_beta 120.239208
_cell_angle_gamma 90.000000
_cell_volume 1804.718631
_symmetry_space_group_name_H-M "C 2/C"
_symmetry_group_IT_number 15
_symmetry_cell_setting 'monoclinic'
loop_
_space_group_symop_operation_xyz
x,y,z
-x,y,1/2-z
-x,-y,-z
x,-y,1/2+z
1/2+x,1/2+y,z
1/2-x,1/2+y,1/2-z
1/2-x,1/2-y,-z
1/2+x,1/2-y,1/2+z
loop_
_atom_site_type_symbol
_atom_site_label
_atom_site_fract_x
_atom_site_fract_y
_atom_site_fract_z
Si Si1 0.703978 0.669232 0.208491
Si Si2 0.742248 0.805834 0.099599
Si Si3 0.048786 0.409389 0.435797
Si Si4 0.000000 0.071100 0.750000
Si Si5 0.294791 0.979786 0.786766
Si Si6 0.664189 0.673307 0.454946
O O1 0.781757 0.747966 0.213207
O O2 0.795692 0.593812 0.214232
O O3 0.672374 0.661141 0.326273
O O4 0.523620 0.669538 0.083232
O O5 0.564781 0.844669 0.054111
O O6 0.870630 0.872916 0.142790
O O7 0.750000 0.750000 0.000000
O O8 0.138826 0.455464 0.566637
O O9 0.207717 0.378994 0.434616
O O10 0.923677 0.456663 0.317933
O O11 0.885908 0.016163 0.776967
O O12 0.750000 0.750000 0.500000
#
# Coordination Sequence:
#
# PCOD9258592 Si02
#       6
#     8   8   8   4   8   8
#     4  10  21  36  63  92 119 161 205 258 304 362
#     4  11  24  38  60  93 128 166 207 253 308 374
#     4   9  18  35  61  87 117 159 199 252 308 362
#     4  10  22  38  62  88 124 168 200 252 320 370
#     4   9  18  36  59  85 122 160 204 242 313 371
#     4  10  18  33  60  89 120 146 203 261 306 347
#
# _framework density 24.380531999999999
#
# number of rings (size 3 to 8) (size 9 to 14) (size 15 to 20)
#    0.000    2.182    1.818    2.182    5.091    0.000 
#    0.000    0.909    0.000   32.727    0.000    0.000 
#    0.000    0.000    0.000    0.000    0.000    0.000 
#
# Total GULP energy -122642.398811 kJ/mol
# GULP energy per Si atom -5574.654491 kJ/mol
# Density = 2.432504 g / cm^3
# Si number density = 24.380532 Si / 1000 Ang^3
#
#
#
# Elastic Constant Matrix: (Units=GPa)
#
#
# Indices 1 2 3 4 5 6 
#
# 1 70.0114 39.2983 34.3527 0.0000 21.7327 0.0000
# 2 39.2983 139.7110 35.1527 0.0000 16.5164 0.0000
# 3 34.3527 35.1527 46.2568 0.0000 22.6230 0.0000
# 4 0.0000 0.0000 0.0000 43.7482 0.0000 20.9501
# 5 21.7327 16.5164 22.6230 0.0000 41.7679 0.0000
# 6 0.0000 0.0000 0.0000 20.9501 0.0000 9.1840
#
#
#
# Elastic Compliance Matrix: (Units=1/GPa)
#
#
# Indices 1 2 3 4 5 6 
#
# 1 0.023730 -0.002794 -0.013606 0.000000 -0.003873 0.000000
# 2 -0.002794 0.009180 -0.005220 0.000000 0.000651 0.000000
# 3 -0.013606 -0.005220 0.042467 0.000000 -0.013858 0.000000
# 4 0.000000 0.000000 0.000000 -0.247399 0.000000 0.564354
# 5 -0.003873 0.000651 -0.013858 0.000000 0.033206 0.000000
# 6 0.000000 0.000000 0.000000 0.564354 0.000000 -1.178492
#
#
# Mechanical properties :
#
#
# Convention : Reuss Voigt Hill
#
# Bulk Modulus (GPa) = 31.11520 52.62072 41.86796
# Shear Modulus (GPa) = -3.95771 28.75172 12.39701
#
# Velocity S-wave (km/s) = -1.27547 3.43781 2.25740
# Velocity P-wave (km/s) = 3.25897 6.11457 4.89943
#
# Compressibility (1/GPa) = 0.03213864
#
# Stress axis : x y z
#
# Youngs Moduli (GPa) = 42.14138 108.93435 23.54745
#
# Poissons Ratio (x) = 0.30431 0.32038
# Poissons Ratio (y) = 0.11772 0.12291
# Poissons Ratio (z) = 0.57337 0.56862
#
# Static dielectric constant tensor:
#      x y z
#    x 2.039910 0.000000 -0.014520 
#    y 0.000000 2.059310 0.000000 
#    z -0.014520 0.000000 1.969270 
# 
# From -- ./inp_files/134960.got.cif
#   From: 2010.05.17/outbox.cif.g08.bks.cpg/sg15_68_cif.got.tgz:134960.got - 2010.06.03 18:47:42.
