data_PCOD9258626
_publ_section_title
;
Structure prediction by ZEFSAII (Michael W. Deem and Ramdas Pophale) SiO2 
 PCOD9258626
Probable space group: C 2/C
;
_chemical_formula_sum "Si O2"
_cell_formula_units_Z 48
_cell_length_a 19.101893
_cell_length_b 17.434110
_cell_length_c 14.750679
_cell_angle_alpha 90.000000
_cell_angle_beta 27.812147
_cell_angle_gamma 90.000000
_cell_volume 2291.969795
_symmetry_space_group_name_H-M "C 2/C"
_symmetry_group_IT_number 15
_symmetry_cell_setting 'monoclinic'
loop_
_space_group_symop_operation_xyz
x,y,z
-x,y,1/2-z
-x,-y,-z
x,-y,1/2+z
1/2+x,1/2+y,z
1/2-x,1/2+y,1/2-z
1/2-x,1/2-y,-z
1/2+x,1/2-y,1/2+z
loop_
_atom_site_type_symbol
_atom_site_label
_atom_site_fract_x
_atom_site_fract_y
_atom_site_fract_z
Si Si1 0.172744 0.364821 0.530417
Si Si2 0.921649 0.923629 0.519864
Si Si3 0.240975 0.853302 0.428636
Si Si4 0.151663 0.803515 0.019249
Si Si5 0.500000 0.519309 0.250000
Si Si6 0.000000 0.725365 0.750000
Si Si7 0.725381 0.562565 0.764497
O O1 0.222840 0.280269 0.436869
O O2 0.254004 0.366760 0.533843
O O3 0.205339 0.421315 0.411976
O O4 0.000000 0.367116 0.750000
O O5 0.883349 0.837568 0.537344
O O6 0.046630 0.922479 0.454396
O O7 0.989197 0.965937 0.352184
O O8 0.776010 0.972780 0.711224
O O9 0.145696 0.924253 0.582616
O O10 0.120601 0.782890 0.563291
O O11 0.389634 0.825502 0.312251
O O12 0.280512 0.884912 0.283139
O O13 0.000000 0.795121 0.250000
#
# Coordination Sequence:
#
# PCOD9258626 Si02
#       7
#     8   8   8   8   4   4   8
#     4  10  21  35  56  85 122 152 187 242 301 343
#     4  10  18  33  62  83 113 148 207 239 274 354
#     4   9  19  33  59  81 112 146 192 239 290 349
#     4  10  18  35  59  80 109 163 194 230 289 353
#     4   9  16  32  58  80 106 155 188 236 290 345
#     4   9  18  38  54  82 112 151 184 234 304 351
#     4  10  20  34  57  90 111 145 198 245 278 336
#
# _framework density 20.942684
#
# number of rings (size 3 to 8) (size 9 to 14) (size 15 to 20)
#    0.000    2.333    2.500    0.000    0.000    1.333 
#    0.000    2.500   16.500    0.000    0.000    0.000 
#    0.000    0.000    0.000    0.000    0.000    0.000 
#
# Total GULP energy -133725.226452 kJ/mol
# GULP energy per Si atom -5571.884436 kJ/mol
# Density = 2.089502 g / cm^3
# Si number density = 20.942684 Si / 1000 Ang^3
#
#
#
# Elastic Constant Matrix: (Units=GPa)
#
#
# Indices 1 2 3 4 5 6 
#
# 1 68.6518 14.2746 13.9605 -0.0002 -18.7024 0.0001
# 2 14.2746 45.9495 1.9600 -0.0003 -0.8235 0.0002
# 3 13.9605 1.9600 54.0988 -0.0004 -11.1727 0.0003
# 4 -0.0002 -0.0003 -0.0004 9.3928 0.0003 -4.4199
# 5 -18.7024 -0.8235 -11.1727 0.0003 32.1926 -0.0002
# 6 0.0001 0.0002 0.0003 -4.4199 -0.0002 30.4518
#
#
#
# Elastic Compliance Matrix: (Units=1/GPa)
#
#
# Indices 1 2 3 4 5 6 
#
# 1 0.018984 -0.005607 -0.002637 0.000000 0.009971 0.000000
# 2 -0.005607 0.023455 0.000052 0.000001 -0.002639 0.000000
# 3 -0.002637 0.000052 0.020302 0.000001 0.005516 0.000000
# 4 0.000000 0.000001 0.000001 0.114269 -0.000001 0.016586
# 5 0.009971 -0.002639 0.005516 -0.000001 0.038702 0.000000
# 6 0.000000 0.000000 0.000000 0.016586 0.000000 0.035246
#
#
# Mechanical properties :
#
#
# Convention : Reuss Voigt Hill
#
# Bulk Modulus (GPa) = 21.57059 25.45448 23.51254
# Shear Modulus (GPa) = 17.68066 23.64111 20.66089
#
# Velocity S-wave (km/s) = 2.90873 3.36348 3.14434
# Velocity P-wave (km/s) = 4.64792 5.22156 4.94307
#
# Compressibility (1/GPa) = 0.04635941
#
# Stress axis : x y z
#
# Youngs Moduli (GPa) = 52.67483 42.63442 49.25534
#
# Poissons Ratio (x) = 0.23903 0.12987
# Poissons Ratio (y) = 0.29532 -0.00256
# Poissons Ratio (z) = 0.13889 -0.00221
#
# Static dielectric constant tensor:
#      x y z
#    x 1.793650 0.000000 -0.018050 
#    y 0.000000 1.847770 0.000000 
#    z -0.018050 0.000000 1.753540 
# 
# From -- ./inp_files/163524.got.cif
#   From: 2010.05.17/outbox.cif.g08.bks.cpg/sg15_82_cif.got.tgz:163524.got - 2010.06.03 18:47:42.
