data_PCOD9258299
_publ_section_title
;
Structure prediction by ZEFSAII (Michael W. Deem and Ramdas Pophale) SiO2 
 PCOD9258299
Probable space group: C 2/C
;
_chemical_formula_sum "Si O2"
_cell_formula_units_Z 56
_cell_length_a 15.220367
_cell_length_b 9.196575
_cell_length_c 28.974743
_cell_angle_alpha 90.000000
_cell_angle_beta 48.421739
_cell_angle_gamma 90.000000
_cell_volume 3033.901155
_symmetry_space_group_name_H-M "C 2/C"
_symmetry_group_IT_number 15
_symmetry_cell_setting 'monoclinic'
loop_
_space_group_symop_operation_xyz
x,y,z
-x,y,1/2-z
-x,-y,-z
x,-y,1/2+z
1/2+x,1/2+y,z
1/2-x,1/2+y,1/2-z
1/2-x,1/2-y,-z
1/2+x,1/2-y,1/2+z
loop_
_atom_site_type_symbol
_atom_site_label
_atom_site_fract_x
_atom_site_fract_y
_atom_site_fract_z
Si Si1 0.932026 0.156599 0.321560
Si Si2 0.705916 0.939456 0.104171
Si Si3 0.681131 0.995476 0.915183
Si Si4 0.997177 0.991786 0.611666
Si Si5 0.262957 0.925011 0.002285
Si Si6 0.145264 0.182915 0.412171
Si Si7 0.943053 0.789470 0.056696
O O1 0.893179 0.322358 0.348038
O O2 0.807725 0.073845 0.360926
O O3 0.000000 0.157071 0.250000
O O4 0.004711 0.068489 0.335582
O O5 0.737505 0.086264 0.121754
O O6 0.831739 0.856962 0.067579
O O7 0.682793 0.998296 0.061067
O O8 0.583286 0.880656 0.934458
O O9 0.674955 0.031172 0.971907
O O10 0.672195 0.150401 0.894659
O O11 0.947266 0.142928 0.606829
O O12 0.134102 0.006447 0.552694
O O13 0.931582 0.877612 0.602425
O O14 0.250000 0.750000 0.000000
O O15 0.061081 0.171824 0.487138
#
# Coordination Sequence:
#
# PCOD9258299 Si02
#       7
#     8   8   8   8   8   8   8
#     4  10  24  43  57  74 107 153 207 242 271 323
#     4  10  19  34  58  80 118 151 184 224 288 339
#     4  10  22  32  58  85 122 148 183 227 285 340
#     4  10  20  35  58  80 114 149 184 229 291 340
#     4  11  18  32  54  91 121 150 177 226 284 353
#     4  11  18  35  53  94 121 142 173 226 293 357
#     4  10  18  33  53  89 121 147 169 220 293 359
#
# _framework density 18.458083999999999
#
# number of rings (size 3 to 8) (size 9 to 14) (size 15 to 20)
#    0.000    1.714    4.286    1.286    2.000    1.714 
#    0.000    5.000    0.000    0.000    0.000    0.000 
#    0.000    0.000    0.000    0.000    0.000    0.000 
#
# Total GULP energy -156005.645078 kJ/mol
# GULP energy per Si atom -5571.630181 kJ/mol
# Density = 1.841607 g / cm^3
# Si number density = 18.458084 Si / 1000 Ang^3
#
#
#
# Elastic Constant Matrix: (Units=GPa)
#
#
# Indices 1 2 3 4 5 6 
#
# 1 83.8499 48.7021 44.5736 0.0000 16.4449 0.0000
# 2 48.7021 155.3004 55.5620 0.0000 15.8348 -0.0001
# 3 44.5736 55.5620 112.7713 0.0000 20.0871 0.0000
# 4 0.0000 0.0000 0.0000 15.0350 0.0000 3.8679
# 5 16.4449 15.8348 20.0871 0.0000 16.0847 0.0000
# 6 0.0000 -0.0001 0.0000 3.8679 0.0000 28.0336
#
#
#
# Elastic Compliance Matrix: (Units=1/GPa)
#
#
# Indices 1 2 3 4 5 6 
#
# 1 0.017753 -0.003222 -0.003552 0.000000 -0.010544 0.000000
# 2 -0.003222 0.008578 -0.002618 0.000000 -0.001882 0.000000
# 3 -0.003552 -0.002618 0.013446 0.000000 -0.010584 0.000000
# 4 0.000000 0.000000 0.000000 0.068959 0.000000 -0.009515
# 5 -0.010544 -0.001882 -0.010584 0.000000 0.088021 0.000000
# 6 0.000000 0.000000 0.000000 -0.009515 0.000000 0.036984
#
#
# Mechanical properties :
#
#
# Convention : Reuss Voigt Hill
#
# Bulk Modulus (GPa) = 47.62992 72.17746 59.90369
# Shear Modulus (GPa) = 19.26615 25.36956 22.31786
#
# Velocity S-wave (km/s) = 3.23426 3.71137 3.48100
# Velocity P-wave (km/s) = 6.30933 7.58644 6.97716
#
# Compressibility (1/GPa) = 0.02099520
#
# Stress axis : x y z
#
# Youngs Moduli (GPa) = 56.32792 116.57940 74.36966
#
# Poissons Ratio (x) = 0.37558 0.26414
# Poissons Ratio (y) = 0.18147 0.19468
# Poissons Ratio (z) = 0.20006 0.30517
#
# Static dielectric constant tensor:
#      x y z
#    x 1.671390 0.000000 0.015260 
#    y 0.000000 1.697940 0.000000 
#    z 0.015260 0.000000 1.608530 
# 
# From -- ./inp_files/273034.got.cif
#   From: 2010.05.17/outbox.cif.g08.bks.cpg/sg15_137_cif.got.tgz:273034.got - 2010.06.03 18:47:42.
