data_PCOD9258233
_publ_section_title
;
Structure prediction by ZEFSAII (Michael W. Deem and Ramdas Pophale) SiO2 
 PCOD9258233
Probable space group: C 2/C
;
_chemical_formula_sum "Si O2"
_cell_formula_units_Z 48
_cell_length_a 12.162022
_cell_length_b 25.441708
_cell_length_c 9.187538
_cell_angle_alpha 90.000000
_cell_angle_beta 83.920393
_cell_angle_gamma 90.000000
_cell_volume 2826.843079
_symmetry_space_group_name_H-M "C 2/C"
_symmetry_group_IT_number 15
_symmetry_cell_setting 'monoclinic'
loop_
_space_group_symop_operation_xyz
x,y,z
-x,y,1/2-z
-x,-y,-z
x,-y,1/2+z
1/2+x,1/2+y,z
1/2-x,1/2+y,1/2-z
1/2-x,1/2-y,-z
1/2+x,1/2-y,1/2+z
loop_
_atom_site_type_symbol
_atom_site_label
_atom_site_fract_x
_atom_site_fract_y
_atom_site_fract_z
Si Si1 0.632792 0.444005 0.090583
Si Si2 0.632233 0.249262 0.595466
Si Si3 0.132885 0.046906 0.919767
Si Si4 0.899107 0.273761 0.062152
Si Si5 0.786772 0.836506 0.553847
Si Si6 0.384312 0.632268 0.337084
O O1 0.500009 0.449221 0.088528
O O2 0.674373 0.450023 0.249496
O O3 0.671389 0.492331 0.985324
O O4 0.668522 0.386501 0.037448
O O5 0.750000 0.250000 0.500000
O O6 0.635757 0.227847 0.761136
O O7 0.530703 0.219578 0.533563
O O8 0.591524 0.309811 0.605399
O O9 0.156130 0.093197 0.032263
O O10 0.861197 0.215563 0.016291
O O11 0.832376 0.317250 0.982802
O O12 0.798973 0.854826 0.719567
O O13 0.500000 0.611478 0.250000
#
# Coordination Sequence:
#
# PCOD9258233 Si02
#       6
#     8   8   8   8   8   8
#     4  10  19  30  46  75 104 146 182 226 272 328
#     4  10  19  34  55  77 107 141 185 229 273 327
#     4  10  20  29  47  73 108 142 188 221 274 336
#     4   9  19  35  50  78 109 145 181 222 277 328
#     4  10  18  33  52  71 110 146 175 219 277 327
#     4  11  18  34  49  71 109 148 175 229 279 319
#
# _framework density 16.980073000000001
#
# number of rings (size 3 to 8) (size 9 to 14) (size 15 to 20)
#    0.000    2.000    5.000    1.000    4.667    0.000 
#    0.000    6.667    0.000    0.000    0.000    1.167 
#    0.000    0.000    0.000    0.000    0.000    0.000 
#
# Total GULP energy -133623.336632 kJ/mol
# GULP energy per Si atom -5567.639026 kJ/mol
# Density = 1.694143 g / cm^3
# Si number density = 16.980073 Si / 1000 Ang^3
#
#
#
# Elastic Constant Matrix: (Units=GPa)
#
#
# Indices 1 2 3 4 5 6 
#
# 1 95.9755 19.3881 38.7830 0.0000 7.7426 0.0000
# 2 19.3881 78.4835 43.3148 0.0000 18.5213 0.0000
# 3 38.7830 43.3148 79.8109 0.0000 16.0216 0.0000
# 4 0.0000 0.0000 0.0000 19.7517 0.0000 5.8309
# 5 7.7426 18.5213 16.0216 0.0000 23.3545 0.0000
# 6 0.0000 0.0000 0.0000 5.8309 0.0000 22.2330
#
#
#
# Elastic Compliance Matrix: (Units=1/GPa)
#
#
# Indices 1 2 3 4 5 6 
#
# 1 0.012974 0.000424 -0.006499 0.000000 -0.000179 0.000000
# 2 0.000424 0.019942 -0.009076 0.000000 -0.009729 0.000000
# 3 -0.006499 -0.009076 0.021728 0.000000 -0.005554 0.000000
# 4 0.000000 0.000000 0.000000 0.054878 0.000000 -0.014392
# 5 -0.000179 -0.009729 -0.005554 0.000000 0.054404 0.000000
# 6 0.000000 0.000000 0.000000 -0.014392 0.000000 0.048753
#
#
# Mechanical properties :
#
#
# Convention : Reuss Voigt Hill
#
# Bulk Modulus (GPa) = 41.07960 50.80463 45.94211
# Shear Modulus (GPa) = 19.91294 23.25342 21.58318
#
# Velocity S-wave (km/s) = 3.42822 3.70463 3.56910
# Velocity P-wave (km/s) = 6.31788 6.94868 6.64077
#
# Compressibility (1/GPa) = 0.02434298
#
# Stress axis : x y z
#
# Youngs Moduli (GPa) = 77.07578 50.14638 46.02366
#
# Poissons Ratio (x) = -0.02125 0.29909
# Poissons Ratio (y) = -0.03267 0.41769
# Poissons Ratio (z) = 0.50089 0.45510
#
# Static dielectric constant tensor:
#      x y z
#    x 1.602780 0.000000 0.015550 
#    y 0.000000 1.571860 0.000000 
#    z 0.015550 0.000000 1.625620 
# 
# From -- ./inp_files/31890.got.cif
#   From: 2010.05.17/outbox.cif.g08.bks.cpg/sg15_16_cif.got.tgz:31890.got - 2010.06.03 18:47:42.
