data_PCOD9258737
_publ_section_title
;
Structure prediction by ZEFSAII (Michael W. Deem and Ramdas Pophale) SiO2 
 PCOD9258737
Probable space group: C 2/C
;
_chemical_formula_sum "Si O2"
_cell_formula_units_Z 48
_cell_length_a 9.743837
_cell_length_b 11.814290
_cell_length_c 16.011870
_cell_angle_alpha 90.000000
_cell_angle_beta 76.663749
_cell_angle_gamma 90.000000
_cell_volume 1793.524519
_symmetry_space_group_name_H-M "C 2/C"
_symmetry_group_IT_number 15
_symmetry_cell_setting 'monoclinic'
loop_
_space_group_symop_operation_xyz
x,y,z
-x,y,1/2-z
-x,-y,-z
x,-y,1/2+z
1/2+x,1/2+y,z
1/2-x,1/2+y,1/2-z
1/2-x,1/2-y,-z
1/2+x,1/2-y,1/2+z
loop_
_atom_site_type_symbol
_atom_site_label
_atom_site_fract_x
_atom_site_fract_y
_atom_site_fract_z
Si Si1 0.702114 0.922765 0.985191
Si Si2 0.962012 0.227901 0.434992
Si Si3 0.815642 0.946382 0.183547
Si Si4 0.762325 0.656660 0.372631
Si Si5 0.364379 0.599634 0.872607
Si Si6 0.715370 0.307888 0.685715
O O1 0.841456 0.850142 0.993786
O O2 0.682863 0.874173 0.891913
O O3 0.752799 0.049230 0.954945
O O4 0.570522 0.860189 0.046612
O O5 0.932631 0.195074 0.342605
O O6 0.118242 0.195069 0.436516
O O7 0.822987 0.946948 0.285533
O O8 0.759442 0.821084 0.181118
O O9 0.980002 0.949618 0.133430
O O10 0.722359 0.020690 0.128661
O O11 0.866059 0.762757 0.370068
O O12 0.728066 0.652098 0.277773
#
# Coordination Sequence:
#
# PCOD9258737 Si02
#       6
#     8   8   8   8   8   8
#     4   9  17  34  52  79 103 136 181 212 265 313
#     4   9  18  32  54  79 100 139 181 215 257 319
#     4  10  18  34  54  77 107 134 175 224 260 318
#     4  11  19  32  57  80 102 139 181 213 264 323
#     4  10  20  32  55  78 103 142 173 217 269 313
#     4   9  18  31  56  79 101 136 178 220 264 309
#
# _framework density 26.762947
#
# number of rings (size 3 to 8) (size 9 to 14) (size 15 to 20)
#    1.000    1.333    3.333    0.500    2.333    0.667 
#    0.000    5.000   11.000    2.000    0.000    0.000 
#    0.000    0.000    0.000    0.000    0.000    0.000 
#
# Total GULP energy -133693.623184 kJ/mol
# GULP energy per Si atom -5570.567633 kJ/mol
# Density = 2.670203 g / cm^3
# Si number density = 26.762947 Si / 1000 Ang^3
#
#
#
# Elastic Constant Matrix: (Units=GPa)
#
#
# Indices 1 2 3 4 5 6 
#
# 1 34.1285 16.8509 7.8484 0.0000 8.6279 0.0000
# 2 16.8509 34.3669 -98.1291 0.0000 -11.0573 0.0000
# 3 7.8484 -98.1291 -6.6930 0.0000 13.4793 0.0000
# 4 0.0000 0.0000 0.0000 91.2948 0.0000 -100.0017
# 5 8.6279 -11.0573 13.4793 0.0000 28.1868 0.0000
# 6 0.0000 0.0000 0.0000 -100.0017 0.0000 121.8027
#
#
#
# Elastic Compliance Matrix: (Units=1/GPa)
#
#
# Indices 1 2 3 4 5 6 
#
# 1 0.030780 0.000272 0.006797 0.000000 -0.012565 0.000000
# 2 0.000272 0.001460 -0.010239 0.000000 0.005386 0.000000
# 3 0.006797 -0.010239 -0.001831 0.000000 -0.005222 0.000000
# 4 0.000000 0.000000 0.000000 0.108790 0.000000 0.089318
# 5 -0.012565 0.005386 -0.005222 0.000000 0.043934 0.000000
# 6 0.000000 0.000000 0.000000 0.089318 0.000000 0.081542
#
#
# Mechanical properties :
#
#
# Convention : Reuss Voigt Hill
#
# Bulk Modulus (GPa) = 41.54758 -9.45078 16.04840
# Shear Modulus (GPa) = 17.91863 57.27234 37.59549
#
# Velocity S-wave (km/s) = 2.59034 4.63102 3.75208
# Velocity P-wave (km/s) = 4.95020 5.00561 4.97798
#
# Compressibility (1/GPa) = 0.02406879
#
# Stress axis : x y z
#
# Youngs Moduli (GPa) = 32.48849 684.92362 -546.29352
#
# Poissons Ratio (x) = -0.18646 3.71306
# Poissons Ratio (y) = -0.00884 -5.59376
# Poissons Ratio (z) = -0.22082 7.01327
#
# Static dielectric constant tensor:
#      x y z
#    x 2.020360 0.000000 -0.206880 
#    y 0.000000 2.559950 0.000000 
#    z -0.206880 0.000000 1.109250 
# 
# From -- ./inp_files/236848.got.cif
#   From: 2010.05.17/outbox.cif.g08.bks.cpg/sg15_119_cif.got.tgz:236848.got - 2010.06.03 18:47:42.
