data_PCOD9258151
_publ_section_title
;
Structure prediction by ZEFSAII (Michael W. Deem and Ramdas Pophale) SiO2 
 PCOD9258151
Probable space group: C 2/C
;
_chemical_formula_sum "Si O2"
_cell_formula_units_Z 60
_cell_length_a 24.711216
_cell_length_b 17.605625
_cell_length_c 9.508832
_cell_angle_alpha 90.000000
_cell_angle_beta 39.384577
_cell_angle_gamma 90.000000
_cell_volume 2624.942257
_symmetry_space_group_name_H-M "C 2/C"
_symmetry_group_IT_number 15
_symmetry_cell_setting 'monoclinic'
loop_
_space_group_symop_operation_xyz
x,y,z
-x,y,1/2-z
-x,-y,-z
x,-y,1/2+z
1/2+x,1/2+y,z
1/2-x,1/2+y,1/2-z
1/2-x,1/2-y,-z
1/2+x,1/2-y,1/2+z
loop_
_atom_site_type_symbol
_atom_site_label
_atom_site_fract_x
_atom_site_fract_y
_atom_site_fract_z
Si Si1 0.865262 0.978098 0.198558
Si Si2 0.840100 0.250344 0.173210
Si Si3 0.033297 0.617903 0.022568
Si Si4 0.260255 0.520790 0.153699
Si Si5 0.000000 0.171775 0.750000
Si Si6 0.425760 0.052374 0.014205
Si Si7 0.476183 0.604963 0.107339
Si Si8 0.694030 0.654684 0.992347
O O1 0.822475 0.026736 0.162056
O O2 0.794348 0.942178 0.441023
O O3 0.918391 0.030596 0.198412
O O4 0.935553 0.920078 0.002044
O O5 0.896980 0.315895 0.138613
O O6 0.756526 0.290884 0.280345
O O7 0.803586 0.186045 0.351790
O O8 0.910738 0.216891 0.927825
O O9 0.073250 0.533603 0.924666
O O10 0.000000 0.623362 0.250000
O O11 0.952732 0.613168 0.078694
O O12 0.167511 0.554873 0.366630
O O13 0.265943 0.429154 0.112373
O O14 0.003761 0.129773 0.593143
O O15 0.500000 0.056379 0.750000
O O16 0.408593 0.660035 0.317191
#
# Coordination Sequence:
#
# PCOD9258151 Si02
#       8
#     8   8   8   8   4   8   8   8
#     4  10  22  36  62  89 124 152 204 250 324 372
#     4  10  18  34  57  89 114 165 211 250 298 375
#     4  10  20  36  62  88 119 159 209 251 304 379
#     4  11  22  37  58  94 120 163 199 261 313 377
#     4  10  18  32  62  86 118 158 210 254 302 372
#     4  10  23  36  57  90 128 161 197 257 323 376
#     4   9  19  37  56  90 116 157 194 258 309 365
#     4   9  20  33  55  83 120 155 210 250 296 370
#
# _framework density 22.857645000000002
#
# number of rings (size 3 to 8) (size 9 to 14) (size 15 to 20)
#    0.000    2.133    2.000    0.800    5.600    4.267 
#    0.000    1.333    5.867    0.800    0.000    0.000 
#    0.000    0.000    0.000    0.000    0.000    0.000 
#
# Total GULP energy -167071.875645 kJ/mol
# GULP energy per Si atom -5569.062521 kJ/mol
# Density = 2.280562 g / cm^3
# Si number density = 22.857645 Si / 1000 Ang^3
#
#
#
# Elastic Constant Matrix: (Units=GPa)
#
#
# Indices 1 2 3 4 5 6 
#
# 1 79.5787 12.4933 27.5684 0.0000 8.5691 0.0000
# 2 12.4933 47.8795 19.1783 0.0000 -1.1167 0.0000
# 3 27.5684 19.1783 119.8598 0.0000 -17.6286 0.0000
# 4 0.0000 0.0000 0.0000 13.2268 0.0000 -7.8216
# 5 8.5691 -1.1167 -17.6286 0.0000 22.2309 0.0000
# 6 0.0000 0.0000 0.0000 -7.8216 0.0000 23.2067
#
#
#
# Elastic Compliance Matrix: (Units=1/GPa)
#
#
# Indices 1 2 3 4 5 6 
#
# 1 0.015618 -0.002443 -0.004647 0.000000 -0.009827 0.000000
# 2 -0.002443 0.022772 -0.003141 0.000000 -0.000405 0.000000
# 3 -0.004647 -0.003141 0.011495 0.000000 0.010749 0.000000
# 4 0.000000 0.000000 0.000000 0.094423 0.000000 0.031824
# 5 -0.009827 -0.000405 0.010749 0.000000 0.057274 0.000000
# 6 0.000000 0.000000 0.000000 0.031824 0.000000 0.053817
#
#
# Mechanical properties :
#
#
# Convention : Reuss Voigt Hill
#
# Bulk Modulus (GPa) = 33.98713 40.64421 37.31567
# Shear Modulus (GPa) = 17.50277 24.27142 20.88709
#
# Velocity S-wave (km/s) = 2.77018 3.26214 3.02618
# Velocity P-wave (km/s) = 5.01330 5.65763 5.34519
#
# Compressibility (1/GPa) = 0.02942290
#
# Stress axis : x y z
#
# Youngs Moduli (GPa) = 64.02999 43.91343 86.99150
#
# Poissons Ratio (x) = 0.10729 0.40422
# Poissons Ratio (y) = 0.15643 0.27327
# Poissons Ratio (z) = 0.29752 0.13795
#
# Static dielectric constant tensor:
#      x y z
#    x 1.932060 0.000000 -0.014500 
#    y 0.000000 1.956140 0.000000 
#    z -0.014500 0.000000 1.935430 
# 
# From -- ./inp_files/67516.got.cif
#   From: 2010.05.17/outbox.cif.g08.bks.cpg/sg15_34_cif.got.tgz:67516.got - 2010.06.03 18:47:42.
