data_PCOD9258930
_publ_section_title
;
Structure prediction by ZEFSAII (Michael W. Deem and Ramdas Pophale) SiO2 
 PCOD9258930
Probable space group: C 2/C
;
_chemical_formula_sum "Si O2"
_cell_formula_units_Z 60
_cell_length_a 18.037592
_cell_length_b 20.395982
_cell_length_c 13.465826
_cell_angle_alpha 90.000000
_cell_angle_beta 148.556740
_cell_angle_gamma 90.000000
_cell_volume 2584.274659
_symmetry_space_group_name_H-M "C 2/C"
_symmetry_group_IT_number 15
_symmetry_cell_setting 'monoclinic'
loop_
_space_group_symop_operation_xyz
x,y,z
-x,y,1/2-z
-x,-y,-z
x,-y,1/2+z
1/2+x,1/2+y,z
1/2-x,1/2+y,1/2-z
1/2-x,1/2-y,-z
1/2+x,1/2-y,1/2+z
loop_
_atom_site_type_symbol
_atom_site_label
_atom_site_fract_x
_atom_site_fract_y
_atom_site_fract_z
Si Si1 0.505975 0.775686 0.467155
Si Si2 0.386778 0.914957 0.837535
Si Si3 0.315632 0.924138 0.414965
Si Si4 0.000000 0.339862 0.250000
Si Si5 0.982963 0.923598 0.506085
Si Si6 0.237298 0.439174 0.584880
Si Si7 0.880969 0.138962 0.533606
Si Si8 0.775358 0.721404 0.856233
O O1 0.567307 0.841408 0.585300
O O2 0.503216 0.792373 0.348697
O O3 0.612074 0.723358 0.636240
O O4 0.352455 0.767864 0.338304
O O5 0.323574 0.937401 0.870913
O O6 0.254986 0.908207 0.613477
O O7 0.530859 0.942557 0.955714
O O8 0.318937 0.848012 0.454761
O O9 0.274223 0.982289 0.443615
O O10 0.188425 0.917663 0.186938
O O11 0.135218 0.389973 0.407797
O O12 0.098966 0.914418 0.726505
O O13 0.048048 0.882580 0.489211
O O14 0.000000 0.000000 0.500000
O O15 0.827500 0.214659 0.475931
O O16 0.000000 0.128630 0.750000
#
# Coordination Sequence:
#
# PCOD9258930 Si02
#       8
#     8   8   8   4   8   8   8   8
#     4   9  19  35  57  80 114 154 197 239 291 355
#     4   8  17  34  56  80 108 154 192 233 295 352
#     4  10  18  34  57  84 109 144 198 243 283 351
#     4  10  20  36  56  84 114 152 200 242 290 354
#     4   9  19  37  62  82 112 157 196 240 305 352
#     4   9  18  35  58  80 111 154 191 234 303 352
#     4  10  20  38  58  82 119 161 192 238 293 359
#     4  10  20  36  57  85 114 159 198 234 299 357
#
# _framework density 23.217347
#
# number of rings (size 3 to 8) (size 9 to 14) (size 15 to 20)
#    0.000    2.667    0.000    2.000    0.000    0.533 
#    6.000    9.333    0.000    0.000    3.467    0.000 
#    0.000    0.000    0.000    0.000    0.000    0.000 
#
# Total GULP energy -167112.166229 kJ/mol
# GULP energy per Si atom -5570.405541 kJ/mol
# Density = 2.316450 g / cm^3
# Si number density = 23.217347 Si / 1000 Ang^3
#
#
#
# Elastic Constant Matrix: (Units=GPa)
#
#
# Indices 1 2 3 4 5 6 
#
# 1 38.7454 15.1928 25.9734 0.0000 17.2079 0.0000
# 2 15.1928 72.6126 2.6928 0.0000 4.5989 0.0000
# 3 25.9734 2.6928 126.3134 0.0000 31.2380 0.0000
# 4 0.0000 0.0000 0.0000 8.3760 0.0000 10.9389
# 5 17.2079 4.5989 31.2380 0.0000 34.4350 0.0000
# 6 0.0000 0.0000 0.0000 10.9389 0.0000 18.0828
#
#
#
# Elastic Compliance Matrix: (Units=1/GPa)
#
#
# Indices 1 2 3 4 5 6 
#
# 1 0.037476 -0.006795 -0.004067 0.000000 -0.014131 0.000000
# 2 -0.006795 0.015126 0.000947 0.000000 0.000517 0.000000
# 3 -0.004067 0.000947 0.010651 0.000000 -0.007757 0.000000
# 4 0.000000 0.000000 0.000000 0.568591 0.000000 -0.343959
# 5 -0.014131 0.000517 -0.007757 0.000000 0.043069 0.000000
# 6 0.000000 0.000000 0.000000 -0.343959 0.000000 0.263373
#
#
# Mechanical properties :
#
#
# Convention : Reuss Voigt Hill
#
# Bulk Modulus (GPa) = 23.02913 36.15438 29.59175
# Shear Modulus (GPa) = 5.14091 25.09959 15.12025
#
# Velocity S-wave (km/s) = 1.48965 3.29153 2.55472
# Velocity P-wave (km/s) = 3.59155 5.48193 4.63415
#
# Compressibility (1/GPa) = 0.04342327
#
# Stress axis : x y z
#
# Youngs Moduli (GPa) = 26.68368 66.11279 93.88738
#
# Poissons Ratio (x) = 0.44926 0.38180
# Poissons Ratio (y) = 0.18132 -0.08892
# Poissons Ratio (z) = 0.10851 -0.06262
#
# Static dielectric constant tensor:
#      x y z
#    x 1.926260 0.000000 0.049980 
#    y 0.000000 1.968170 0.000000 
#    z 0.049980 0.000000 1.947680 
# 
# From -- ./inp_files/169494.got.cif
#   From: 2010.05.17/outbox.cif.g08.bks.cpg/sg15_85_cif.got.tgz:169494.got - 2010.06.03 18:47:42.
