data_PCOD9258754
_publ_section_title
;
Structure prediction by ZEFSAII (Michael W. Deem and Ramdas Pophale) SiO2 
 PCOD9258754
Probable space group: C 2/C
;
_chemical_formula_sum "Si O2"
_cell_formula_units_Z 48
_cell_length_a 11.698077
_cell_length_b 19.964518
_cell_length_c 11.987820
_cell_angle_alpha 90.000000
_cell_angle_beta 130.117981
_cell_angle_gamma 90.000000
_cell_volume 2140.994363
_symmetry_space_group_name_H-M "C 2/C"
_symmetry_group_IT_number 15
_symmetry_cell_setting 'monoclinic'
loop_
_space_group_symop_operation_xyz
x,y,z
-x,y,1/2-z
-x,-y,-z
x,-y,1/2+z
1/2+x,1/2+y,z
1/2-x,1/2+y,1/2-z
1/2-x,1/2-y,-z
1/2+x,1/2-y,1/2+z
loop_
_atom_site_type_symbol
_atom_site_label
_atom_site_fract_x
_atom_site_fract_y
_atom_site_fract_z
Si Si1 0.917017 0.118205 0.960861
Si Si2 0.544022 0.268156 0.406226
Si Si3 0.167206 0.967093 0.304778
Si Si4 0.751669 0.403024 0.750363
Si Si5 0.324486 0.863086 0.568122
Si Si6 0.673633 0.311718 0.891072
O O1 0.853432 0.071423 0.825368
O O2 0.932463 0.192610 0.916700
O O3 0.829975 0.127941 0.020864
O O4 0.081337 0.091760 0.096390
O O5 0.500000 0.281518 0.250000
O O6 0.567013 0.188711 0.428056
O O7 0.697561 0.308235 0.523906
O O8 0.251846 0.917522 0.442109
O O9 0.000000 0.980936 0.250000
O O10 0.263607 0.032392 0.336222
O O11 0.855448 0.398077 0.706942
O O12 0.752124 0.337885 0.828901
O O13 0.500000 0.297567 0.750000
O O14 0.750000 0.250000 0.000000
#
# Coordination Sequence:
#
# PCOD9258754 Si02
#       6
#     8   8   8   8   8   8
#     4  10  19  34  56  86 111 150 189 253 298 356
#     4  10  18  34  54  82 110 139 191 241 283 334
#     4  12  19  33  55  86 114 149 189 245 308 355
#     4  10  22  34  53  83 122 152 184 243 302 365
#     4  10  21  33  56  85 110 150 194 237 293 351
#     4  10  23  39  58  87 122 163 200 244 309 362
#
# _framework density 22.419491000000001
#
# number of rings (size 3 to 8) (size 9 to 14) (size 15 to 20)
#    0.000    1.667    5.000    2.000    4.667    2.667 
#    0.000    0.000    0.000    2.000    0.000    0.000 
#    0.000    0.000    0.000    0.000    0.000    0.000 
#
# Total GULP energy -134000.836240 kJ/mol
# GULP energy per Si atom -5583.368177 kJ/mol
# Density = 2.236846 g / cm^3
# Si number density = 22.419491 Si / 1000 Ang^3
#
#
#
# Elastic Constant Matrix: (Units=GPa)
#
#
# Indices 1 2 3 4 5 6 
#
# 1 75.5430 30.1395 24.5384 0.0000 -17.4013 0.0000
# 2 30.1395 122.7742 38.7043 0.0000 -6.3510 0.0000
# 3 24.5384 38.7043 93.8308 0.0000 -27.5406 0.0000
# 4 0.0000 0.0000 0.0000 20.4664 0.0000 9.0342
# 5 -17.4013 -6.3510 -27.5406 0.0000 17.1303 0.0000
# 6 0.0000 0.0000 0.0000 9.0342 0.0000 14.5898
#
#
#
# Elastic Compliance Matrix: (Units=1/GPa)
#
#
# Indices 1 2 3 4 5 6 
#
# 1 0.019494 -0.004809 0.004118 0.000000 0.024640 0.000000
# 2 -0.004809 0.010799 -0.006543 0.000000 -0.011401 0.000000
# 3 0.004118 -0.006543 0.024228 0.000000 0.040709 0.000000
# 4 0.000000 0.000000 0.000000 0.067239 0.000000 -0.041636
# 5 0.024640 -0.011401 0.040709 0.000000 0.144628 0.000000
# 6 0.000000 0.000000 0.000000 -0.041636 0.000000 0.094323
#
#
# Mechanical properties :
#
#
# Convention : Reuss Voigt Hill
#
# Bulk Modulus (GPa) = 24.96712 53.21249 39.08980
# Shear Modulus (GPa) = 12.86898 23.68834 18.27866
#
# Velocity S-wave (km/s) = 2.39845 3.25406 2.85845
# Velocity P-wave (km/s) = 4.33942 6.15670 5.32614
#
# Compressibility (1/GPa) = 0.04005268
#
# Stress axis : x y z
#
# Youngs Moduli (GPa) = 51.29654 92.60531 41.27417
#
# Poissons Ratio (x) = 0.44536 -0.16996
# Poissons Ratio (y) = 0.24669 0.27005
# Poissons Ratio (z) = -0.21123 0.60591
#
# Static dielectric constant tensor:
#      x y z
#    x 1.939240 0.000000 0.004670 
#    y 0.000000 1.857270 0.000000 
#    z 0.004670 0.000000 1.843900 
# 
# From -- ./inp_files/87887.got.cif
#   From: 2010.05.17/outbox.cif.g08.bks.cpg/sg15_44_cif.got.tgz:87887.got - 2010.06.03 18:47:42.
