data_PCOD9258968
_publ_section_title
;
Structure prediction by ZEFSAII (Michael W. Deem and Ramdas Pophale) SiO2 
 PCOD9258968
Probable space group: C 2/C
;
_chemical_formula_sum "Si O2"
_cell_formula_units_Z 40
_cell_length_a 8.538000
_cell_length_b 16.546493
_cell_length_c 12.391596
_cell_angle_alpha 90.000000
_cell_angle_beta 116.526430
_cell_angle_gamma 90.000000
_cell_volume 1566.320378
_symmetry_space_group_name_H-M "C 2/C"
_symmetry_group_IT_number 15
_symmetry_cell_setting 'monoclinic'
loop_
_space_group_symop_operation_xyz
x,y,z
-x,y,1/2-z
-x,-y,-z
x,-y,1/2+z
1/2+x,1/2+y,z
1/2-x,1/2+y,1/2-z
1/2-x,1/2-y,-z
1/2+x,1/2-y,1/2+z
loop_
_atom_site_type_symbol
_atom_site_label
_atom_site_fract_x
_atom_site_fract_y
_atom_site_fract_z
Si Si1 0.871823 0.301959 0.416255
Si Si2 0.600060 0.079462 0.071332
Si Si3 0.500000 0.094071 0.750000
Si Si4 0.950101 0.145115 0.108407
Si Si5 0.174594 0.995413 0.170384
Si Si6 0.000000 0.853999 0.250000
O O1 0.927054 0.352347 0.325048
O O2 0.662051 0.302473 0.345148
O O3 0.945345 0.355129 0.538061
O O4 0.968360 0.217130 0.435178
O O5 0.742687 0.132146 0.047395
O O6 0.722792 0.043694 0.202533
O O7 0.500000 0.000000 0.000000
O O8 0.658179 0.037849 0.841176
O O9 0.000000 0.160167 0.250000
O O10 0.035540 0.061945 0.092237
O O11 0.073496 0.917321 0.184194
#
# Coordination Sequence:
#
# PCOD9258968 Si02
#       6
#     8   8   4   8   8   4
#     4  11  21  35  58  85 112 145 189 237 279 324
#     4  11  18  34  61  83 112 148 191 225 273 347
#     4  10  20  32  58  82 108 144 190 234 268 322
#     4  10  20  35  57  83 113 149 184 229 283 331
#     4  10  19  37  58  80 109 153 190 221 280 341
#     4  10  18  34  58  78 106 156 186 216 282 344
#
# _framework density 25.537562000000001
#
# number of rings (size 3 to 8) (size 9 to 14) (size 15 to 20)
#    0.000    1.600    8.000    0.600    0.000    0.800 
#    0.000    1.000    4.400    6.000    0.000    0.000 
#    0.000    0.000    0.000    0.000    0.000    0.000 
#
# Total GULP energy -111790.112571 kJ/mol
# GULP energy per Si atom -5589.505629 kJ/mol
# Density = 2.547944 g / cm^3
# Si number density = 25.537562 Si / 1000 Ang^3
#
#
#
# Elastic Constant Matrix: (Units=GPa)
#
#
# Indices 1 2 3 4 5 6 
#
# 1 112.8599 43.1252 24.8086 0.0000 35.4194 0.0000
# 2 43.1252 142.4935 13.7100 0.0000 15.7596 0.0000
# 3 24.8086 13.7100 78.7106 0.0000 28.1674 0.0000
# 4 0.0000 0.0000 0.0000 20.2354 0.0000 -5.7402
# 5 35.4194 15.7596 28.1674 0.0000 51.4471 0.0000
# 6 0.0000 0.0000 0.0000 -5.7402 0.0000 17.6517
#
#
#
# Elastic Compliance Matrix: (Units=1/GPa)
#
#
# Indices 1 2 3 4 5 6 
#
# 1 0.012403 -0.002877 -0.000830 0.000000 -0.007203 0.000000
# 2 -0.002877 0.007953 -0.000392 0.000000 -0.000241 0.000000
# 3 -0.000830 -0.000392 0.015903 0.000000 -0.008015 0.000000
# 4 0.000000 0.000000 0.000000 0.054440 0.000000 0.017704
# 5 -0.007203 -0.000241 -0.008015 0.000000 0.028858 0.000000
# 6 0.000000 0.000000 0.000000 0.017704 0.000000 0.062409
#
#
# Mechanical properties :
#
#
# Convention : Reuss Voigt Hill
#
# Bulk Modulus (GPa) = 35.63892 55.26129 45.45010
# Shear Modulus (GPa) = 25.06019 34.69487 29.87753
#
# Velocity S-wave (km/s) = 3.13598 3.68989 3.42416
# Velocity P-wave (km/s) = 5.20560 6.31189 5.78525
#
# Compressibility (1/GPa) = 0.02805921
#
# Stress axis : x y z
#
# Youngs Moduli (GPa) = 80.62528 125.73883 62.88064
#
# Poissons Ratio (x) = 0.36178 0.05222
# Poissons Ratio (y) = 0.23198 0.02467
# Poissons Ratio (z) = 0.06696 0.04933
#
# Static dielectric constant tensor:
#      x y z
#    x 2.126630 0.000000 -0.018060 
#    y 0.000000 1.973060 0.000000 
#    z -0.018060 0.000000 2.069710 
# 
# From -- ./inp_files/133850.got.cif
#   From: 2010.05.17/outbox.cif.g08.bks.cpg/sg15_67_cif.got.tgz:133850.got - 2010.06.03 18:47:42.
