data_PCOD9258581
_publ_section_title
;
Structure prediction by ZEFSAII (Michael W. Deem and Ramdas Pophale) SiO2 
 PCOD9258581
Probable space group: C 2/C
;
_chemical_formula_sum "Si O2"
_cell_formula_units_Z 48
_cell_length_a 13.857597
_cell_length_b 35.039426
_cell_length_c 5.342114
_cell_angle_alpha 90.000000
_cell_angle_beta 113.105949
_cell_angle_gamma 90.000000
_cell_volume 2385.845853
_symmetry_space_group_name_H-M "C 2/C"
_symmetry_group_IT_number 15
_symmetry_cell_setting 'monoclinic'
loop_
_space_group_symop_operation_xyz
x,y,z
-x,y,1/2-z
-x,-y,-z
x,-y,1/2+z
1/2+x,1/2+y,z
1/2-x,1/2+y,1/2-z
1/2-x,1/2-y,-z
1/2+x,1/2-y,1/2+z
loop_
_atom_site_type_symbol
_atom_site_label
_atom_site_fract_x
_atom_site_fract_y
_atom_site_fract_z
Si Si1 0.500000 0.216168 0.750000
Si Si2 0.321305 0.797917 0.741037
Si Si3 0.807850 0.583592 0.520550
Si Si4 0.375456 0.475238 0.624716
Si Si5 0.897535 0.774046 0.036274
Si Si6 0.374506 0.873251 0.587114
Si Si7 0.000000 0.525126 0.750000
O O1 0.408392 0.191679 0.533391
O O2 0.441423 0.244101 0.882004
O O3 0.198105 0.798131 0.670473
O O4 0.349855 0.754060 0.701153
O O5 0.345247 0.828497 0.552659
O O6 0.696986 0.561964 0.427035
O O7 0.821386 0.607324 0.277447
O O8 0.897697 0.551328 0.622644
O O9 0.831938 0.608447 0.790464
O O10 0.500000 0.466440 0.750000
O O11 0.352923 0.497984 0.343541
O O12 0.000000 0.794941 0.250000
O O13 0.500000 0.878019 0.750000
O O14 0.000000 0.500000 0.500000
#
# Coordination Sequence:
#
# PCOD9258581 Si02
#       7
#     4   8   8   8   8   8   4
#     4  10  18  33  60  86 112 146 204 278 310 366
#     4  10  22  35  59  84 115 164 205 253 319 374
#     4  12  24  41  60  93 130 159 203 252 302 372
#     4  10  21  41  69  95 119 159 208 257 304 355
#     4   9  19  38  57  87 115 145 210 275 312 358
#     4  12  24  41  59  88 129 173 202 243 314 386
#     4  12  22  37  62  88 120 158 196 246 306 346
#
# _framework density 20.118651
#
# number of rings (size 3 to 8) (size 9 to 14) (size 15 to 20)
#    0.000    1.333    1.667    5.000    4.667    0.000 
#    0.000    1.667    0.000    0.000    0.000    0.000 
#    0.000    0.000    0.000    0.000    0.000    0.000 
#
# Total GULP energy -133988.694055 kJ/mol
# GULP energy per Si atom -5582.862252 kJ/mol
# Density = 2.007286 g / cm^3
# Si number density = 20.118651 Si / 1000 Ang^3
#
#
#
# Elastic Constant Matrix: (Units=GPa)
#
#
# Indices 1 2 3 4 5 6 
#
# 1 107.4911 28.8845 54.3989 0.0000 21.4919 0.0000
# 2 28.8845 52.3071 32.5756 0.0000 11.8683 0.0000
# 3 54.3989 32.5756 101.9121 0.0000 -0.3708 0.0000
# 4 0.0000 0.0000 0.0000 15.4162 0.0000 -36.7753
# 5 21.4919 11.8683 -0.3708 0.0000 36.1789 0.0000
# 6 0.0000 0.0000 0.0000 -36.7753 0.0000 12.0320
#
#
#
# Elastic Compliance Matrix: (Units=1/GPa)
#
#
# Indices 1 2 3 4 5 6 
#
# 1 0.015394 -0.001749 -0.007689 0.000000 -0.008650 0.000000
# 2 -0.001749 0.026568 -0.007587 0.000000 -0.007754 0.000000
# 3 -0.007689 -0.007587 0.016368 0.000000 0.007224 0.000000
# 4 0.000000 0.000000 0.000000 -0.010311 0.000000 -0.031514
# 5 -0.008650 -0.007754 0.007224 0.000000 0.035397 0.000000
# 6 0.000000 0.000000 0.000000 -0.031514 0.000000 -0.013211
#
#
# Mechanical properties :
#
#
# Convention : Reuss Voigt Hill
#
# Bulk Modulus (GPa) = 41.18733 54.82536 48.00635
# Shear Modulus (GPa) = 44.50405 22.44885 33.47645
#
# Velocity S-wave (km/s) = 4.70838 3.34402 4.08358
# Velocity P-wave (km/s) = 7.07637 6.49770 6.79320
#
# Compressibility (1/GPa) = 0.02427931
#
# Stress axis : x y z
#
# Youngs Moduli (GPa) = 64.96021 37.63906 61.09415
#
# Poissons Ratio (x) = 0.06585 0.46977
# Poissons Ratio (y) = 0.11364 0.46351
# Poissons Ratio (z) = 0.49950 0.28556
#
# Static dielectric constant tensor:
#      x y z
#    x 1.733900 0.000000 -0.013110 
#    y 0.000000 1.678910 0.000000 
#    z -0.013110 0.000000 1.793520 
# 
# From -- ./inp_files/9185.got.cif
#   From: 2010.05.17/outbox.cif.g08.bks.cpg/sg15_5_cif.got.tgz:9185.got - 2010.06.03 18:47:42.
