data_PCOD9258927
_publ_section_title
;
Structure prediction by ZEFSAII (Michael W. Deem and Ramdas Pophale) SiO2 
 PCOD9258927
Probable space group: C 2/C
;
_chemical_formula_sum "Si O2"
_cell_formula_units_Z 52
_cell_length_a 10.900395
_cell_length_b 16.141756
_cell_length_c 13.838700
_cell_angle_alpha 90.000000
_cell_angle_beta 67.122611
_cell_angle_gamma 90.000000
_cell_volume 2243.405162
_symmetry_space_group_name_H-M "C 2/C"
_symmetry_group_IT_number 15
_symmetry_cell_setting 'monoclinic'
loop_
_space_group_symop_operation_xyz
x,y,z
-x,y,1/2-z
-x,-y,-z
x,-y,1/2+z
1/2+x,1/2+y,z
1/2-x,1/2+y,1/2-z
1/2-x,1/2-y,-z
1/2+x,1/2-y,1/2+z
loop_
_atom_site_type_symbol
_atom_site_label
_atom_site_fract_x
_atom_site_fract_y
_atom_site_fract_z
Si Si1 0.707550 0.979313 0.203081
Si Si2 0.496325 0.464699 0.608415
Si Si3 0.373079 0.138704 0.162469
Si Si4 0.906896 0.786270 0.692488
Si Si5 0.212299 0.356110 0.365941
Si Si6 0.500000 0.272347 0.250000
Si Si7 0.297670 0.981934 0.523025
O O1 0.862482 0.992327 0.185801
O O2 0.634826 0.062994 0.258396
O O3 0.668685 0.902520 0.280411
O O4 0.692090 0.966827 0.093965
O O5 0.500000 0.500000 0.500000
O O6 0.471170 0.368024 0.627726
O O7 0.643126 0.477291 0.603316
O O8 0.231514 0.185987 0.215364
O O9 0.474102 0.209455 0.167622
O O10 0.375291 0.087211 0.061317
O O11 0.873138 0.726671 0.614136
O O12 0.000000 0.754137 0.750000
O O13 0.367688 0.327044 0.312563
O O14 0.175499 0.421954 0.459734
#
# Coordination Sequence:
#
# PCOD9258927 Si02
#       7
#     8   8   8   8   8   4   8
#     4   9  19  35  56  87 110 147 198 230 278 344
#     4   9  17  31  59  86 108 145 196 241 272 336
#     4   9  19  35  60  77 111 158 179 234 281 350
#     4  10  18  34  57  83 115 143 185 237 293 326
#     4  10  21  35  59  84 112 151 186 242 286 337
#     4  10  20  38  54  80 118 148 186 228 302 334
#     4  10  18  36  60  83 111 149 199 232 279 344
#
# _framework density 23.179051000000001
#
# number of rings (size 3 to 8) (size 9 to 14) (size 15 to 20)
#    0.000    2.462    1.538    0.923    0.000    0.000 
#    5.538   19.231   10.154    0.000    0.000    0.000 
#    0.000    0.000    0.000    0.000    0.000    0.000 
#
# Total GULP energy -145125.401646 kJ/mol
# GULP energy per Si atom -5581.746217 kJ/mol
# Density = 2.312629 g / cm^3
# Si number density = 23.179051 Si / 1000 Ang^3
#
#
#
# Elastic Constant Matrix: (Units=GPa)
#
#
# Indices 1 2 3 4 5 6 
#
# 1 105.4758 29.8127 12.9247 0.0000 1.3676 0.0000
# 2 29.8127 53.4247 -10.7393 0.0000 -3.6584 0.0000
# 3 12.9247 -10.7393 76.4818 0.0000 27.1499 0.0000
# 4 0.0000 0.0000 0.0000 0.1499 0.0000 19.5579
# 5 1.3676 -3.6584 27.1499 0.0000 22.2477 0.0000
# 6 0.0000 0.0000 0.0000 19.5579 0.0000 11.9745
#
#
#
# Elastic Compliance Matrix: (Units=1/GPa)
#
#
# Indices 1 2 3 4 5 6 
#
# 1 0.012026 -0.007336 -0.004184 0.000000 0.003161 0.000000
# 2 -0.007336 0.023737 0.005341 0.000000 -0.002163 0.000000
# 3 -0.004184 0.005341 0.024928 0.000000 -0.029285 0.000000
# 4 0.000000 0.000000 0.000000 -0.031453 0.000000 0.051371
# 5 0.003161 -0.002163 -0.029285 0.000000 0.080136 0.000000
# 6 0.000000 0.000000 0.000000 0.051371 0.000000 -0.000394
#
#
# Mechanical properties :
#
#
# Convention : Reuss Voigt Hill
#
# Bulk Modulus (GPa) = 20.69029 33.26429 26.97729
# Shear Modulus (GPa) = 36.37680 20.43336 28.40508
#
# Velocity S-wave (km/s) = 3.96584 2.97230 3.50446
# Velocity P-wave (km/s) = 5.46957 5.11484 5.29518
#
# Compressibility (1/GPa) = 0.04833184
#
# Stress axis : x y z
#
# Youngs Moduli (GPa) = 83.15312 42.12862 40.11587
#
# Poissons Ratio (x) = 0.30904 0.16786
# Poissons Ratio (y) = 0.60998 -0.21424
# Poissons Ratio (z) = 0.34794 -0.22499
#
# Static dielectric constant tensor:
#      x y z
#    x 1.919390 0.000000 -0.025710 
#    y 0.000000 1.858790 0.000000 
#    z -0.025710 0.000000 1.861740 
# 
# From -- ./inp_files/144138.got.cif
#   From: 2010.05.17/outbox.cif.g08.bks.cpg/sg15_73_cif.got.tgz:144138.got - 2010.06.03 18:47:42.
