data_PCOD9258169
_publ_section_title
;
Structure prediction by ZEFSAII (Michael W. Deem and Ramdas Pophale) SiO2 
 PCOD9258169
Probable space group: C 2/C
;
_chemical_formula_sum "Si O2"
_cell_formula_units_Z 60
_cell_length_a 12.176033
_cell_length_b 24.877782
_cell_length_c 8.687547
_cell_angle_alpha 90.000000
_cell_angle_beta 93.506747
_cell_angle_gamma 90.000000
_cell_volume 2626.640930
_symmetry_space_group_name_H-M "C 2/C"
_symmetry_group_IT_number 15
_symmetry_cell_setting 'monoclinic'
loop_
_space_group_symop_operation_xyz
x,y,z
-x,y,1/2-z
-x,-y,-z
x,-y,1/2+z
1/2+x,1/2+y,z
1/2-x,1/2+y,1/2-z
1/2-x,1/2-y,-z
1/2+x,1/2-y,1/2+z
loop_
_atom_site_type_symbol
_atom_site_label
_atom_site_fract_x
_atom_site_fract_y
_atom_site_fract_z
Si Si1 0.222285 0.006778 0.772781
Si Si2 0.666552 0.573439 0.035790
Si Si3 0.117948 0.816458 0.678883
Si Si4 0.401613 0.105082 0.991467
Si Si5 0.500000 0.814429 0.750000
Si Si6 0.809121 0.313590 0.941508
Si Si7 0.364049 0.937036 0.023865
Si Si8 0.870536 0.702234 0.778541
O O1 0.142148 0.967364 0.671161
O O2 0.300480 0.042393 0.669244
O O3 0.305197 0.970869 0.883875
O O4 0.147452 0.045644 0.871425
O O5 0.627238 0.633720 0.063955
O O6 0.799807 0.573703 0.050438
O O7 0.205922 0.822496 0.823100
O O8 0.140728 0.755901 0.619202
O O9 0.000000 0.816871 0.750000
O O10 0.502316 0.065747 0.955885
O O11 0.352996 0.145171 0.857196
O O12 0.438363 0.146561 0.126149
O O13 0.407297 0.786785 0.847981
O O14 0.843170 0.374430 0.987750
O O15 0.804393 0.288805 0.112985
O O16 0.000000 0.699436 0.750000
#
# Coordination Sequence:
#
# PCOD9258169 Si02
#       8
#     8   8   8   8   4   8   8   8
#     4  10  22  36  62  94 132 171 209 262 322 400
#     4  11  22  40  60  91 124 163 215 274 318 382
#     4  11  25  44  66  89 127 173 231 281 322 373
#     4  11  21  36  60  97 139 173 202 258 320 415
#     4  10  18  32  64  90 134 164 204 244 332 388
#     4  11  20  41  63  94 128 174 209 273 328 395
#     4  10  20  35  61  94 139 168 207 247 332 399
#     4  11  22  38  66  96 130 177 218 256 335 398
#
# _framework density 22.842863000000001
#
# number of rings (size 3 to 8) (size 9 to 14) (size 15 to 20)
#    0.000    1.333    5.333    2.000    0.000    3.733 
#    0.000    0.667    0.000    2.400    0.000    0.000 
#    0.000    0.000    0.000    0.000    0.000    0.000 
#
# Total GULP energy -167423.160164 kJ/mol
# GULP energy per Si atom -5580.772005 kJ/mol
# Density = 2.279087 g / cm^3
# Si number density = 22.842863 Si / 1000 Ang^3
#
#
#
# Elastic Constant Matrix: (Units=GPa)
#
#
# Indices 1 2 3 4 5 6 
#
# 1 36.9764 -2.3941 3.1280 0.0000 -7.0660 0.0000
# 2 -2.3941 108.3060 32.5691 0.0000 -29.5777 0.0000
# 3 3.1280 32.5691 108.7321 0.0000 -11.6715 0.0000
# 4 0.0000 0.0000 0.0000 24.4690 0.0000 -21.0256
# 5 -7.0660 -29.5777 -11.6715 0.0000 20.4973 0.0000
# 6 0.0000 0.0000 0.0000 -21.0256 0.0000 4.2949
#
#
#
# Elastic Compliance Matrix: (Units=1/GPa)
#
#
# Indices 1 2 3 4 5 6 
#
# 1 0.031173 0.006142 -0.000673 0.000000 0.019226 0.000000
# 2 0.006142 0.017032 -0.002570 0.000000 0.025231 0.000000
# 3 -0.000673 -0.002570 0.010186 0.000000 0.001859 0.000000
# 4 0.000000 0.000000 0.000000 -0.012745 0.000000 -0.062393
# 5 0.019226 0.025231 0.001859 0.000000 0.092882 0.000000
# 6 0.000000 0.000000 0.000000 -0.062393 0.000000 -0.072611
#
#
# Mechanical properties :
#
#
# Convention : Reuss Voigt Hill
#
# Bulk Modulus (GPa) = 15.57904 35.62449 25.60176
# Shear Modulus (GPa) = 61.33825 24.56633 42.95229
#
# Velocity S-wave (km/s) = 5.18754 3.28296 4.34099
# Velocity P-wave (km/s) = 6.53572 5.47720 6.02973
#
# Compressibility (1/GPa) = 0.06418881
#
# Stress axis : x y z
#
# Youngs Moduli (GPa) = 32.07924 58.71207 98.17699
#
# Poissons Ratio (x) = -0.36060 0.06605
# Poissons Ratio (y) = -0.19702 0.25232
# Poissons Ratio (z) = 0.02158 0.15089
#
# Static dielectric constant tensor:
#      x y z
#    x 1.855030 0.000000 -0.005640 
#    y 0.000000 1.907620 0.000000 
#    z -0.005640 0.000000 1.950710 
# 
# From -- ./inp_files/42222.got.cif
#   From: 2010.05.17/outbox.cif.g08.bks.cpg/sg15_22_cif.got.tgz:42222.got - 2010.06.03 18:47:42.
