data_PCOD9258189
_publ_section_title
;
Structure prediction by ZEFSAII (Michael W. Deem and Ramdas Pophale) SiO2 
 PCOD9258189
Probable space group: C 2/C
;
_chemical_formula_sum "Si O2"
_cell_formula_units_Z 56
_cell_length_a 8.848166
_cell_length_b 25.009549
_cell_length_c 13.898307
_cell_angle_alpha 90.000000
_cell_angle_beta 43.310049
_cell_angle_gamma 90.000000
_cell_volume 2109.652580
_symmetry_space_group_name_H-M "C 2/C"
_symmetry_group_IT_number 15
_symmetry_cell_setting 'monoclinic'
loop_
_space_group_symop_operation_xyz
x,y,z
-x,y,1/2-z
-x,-y,-z
x,-y,1/2+z
1/2+x,1/2+y,z
1/2-x,1/2+y,1/2-z
1/2-x,1/2-y,-z
1/2+x,1/2-y,1/2+z
loop_
_atom_site_type_symbol
_atom_site_label
_atom_site_fract_x
_atom_site_fract_y
_atom_site_fract_z
Si Si1 0.079477 0.213662 0.836729
Si Si2 0.553111 0.512429 0.587021
Si Si3 0.338078 0.834058 0.727581
Si Si4 0.240488 0.872256 0.991729
Si Si5 0.118488 0.196262 0.046938
Si Si6 0.472851 0.138577 0.646959
Si Si7 0.058332 0.517463 0.837782
O O1 0.047123 0.275202 0.825310
O O2 0.309463 0.187059 0.698457
O O3 0.074627 0.202539 0.953340
O O4 0.877750 0.176408 0.900548
O O5 0.500000 0.500000 0.500000
O O6 0.592914 0.576231 0.575161
O O7 0.310066 0.494599 0.742607
O O8 0.807734 0.493876 0.494928
O O9 0.278467 0.860553 0.859054
O O10 0.503282 0.873546 0.596473
O O11 0.106603 0.814814 0.795152
O O12 0.250000 0.250000 0.000000
O O13 0.281272 0.149226 0.000003
O O14 0.500000 0.140140 0.750000
O O15 0.397732 0.079526 0.659082
O O16 0.000000 0.509321 0.750000
#
# Coordination Sequence:
#
# PCOD9258189 Si02
#       7
#     8   8   8   8   8   8   8
#     4  10  18  33  48  66 101 137 172 205 255 303
#     4  10  20  30  47  72 101 138 171 215 265 327
#     4  10  21  30  48  70  96 141 173 216 245 309
#     4  10  21  34  48  70 104 143 175 207 263 313
#     4  10  19  29  48  73  98 137 174 210 257 310
#     4   9  16  28  44  64  93 129 156 197 249 303
#     4   9  18  28  45  66  95 133 165 204 265 316
#
# _framework density 26.544656
#
# number of rings (size 3 to 8) (size 9 to 14) (size 15 to 20)
#    0.000    2.286    2.857    0.429   12.000    0.000 
#    0.000    0.000    0.000    0.000    0.000    0.000 
#    0.000    1.143   25.714    0.286    0.000    0.143 
#
# Total GULP energy -156017.129640 kJ/mol
# GULP energy per Si atom -5572.040344 kJ/mol
# Density = 2.648424 g / cm^3
# Si number density = 26.544656 Si / 1000 Ang^3
#
#
#
# Elastic Constant Matrix: (Units=GPa)
#
#
# Indices 1 2 3 4 5 6 
#
# 1 93.9452 15.1142 60.7532 0.0000 -6.4769 0.0000
# 2 15.1142 48.2042 34.7890 0.0000 -22.0405 0.0000
# 3 60.7532 34.7890 184.6048 0.0000 -58.1721 0.0000
# 4 0.0000 0.0000 0.0000 40.2770 0.0000 -22.9634
# 5 -6.4769 -22.0405 -58.1721 0.0000 55.3684 0.0000
# 6 0.0000 0.0000 0.0000 -22.9634 0.0000 15.8192
#
#
#
# Elastic Compliance Matrix: (Units=1/GPa)
#
#
# Indices 1 2 3 4 5 6 
#
# 1 0.014669 -0.002852 -0.006140 0.000000 -0.005870 0.000000
# 2 -0.002852 0.026641 -0.001263 0.000000 0.008944 0.000000
# 3 -0.006140 -0.001263 0.010899 0.000000 0.010230 0.000000
# 4 0.000000 0.000000 0.000000 0.144033 0.000000 0.209081
# 5 -0.005870 0.008944 0.010230 0.000000 0.031683 0.000000
# 6 0.000000 0.000000 0.000000 0.209081 0.000000 0.366721
#
#
# Mechanical properties :
#
#
# Convention : Reuss Voigt Hill
#
# Bulk Modulus (GPa) = 31.54788 60.89633 46.22210
# Shear Modulus (GPa) = 7.99075 36.69943 22.34509
#
# Velocity S-wave (km/s) = 1.73691 3.72231 2.90451
# Velocity P-wave (km/s) = 3.99163 6.43933 5.35715
#
# Compressibility (1/GPa) = 0.03169785
#
# Stress axis : x y z
#
# Youngs Moduli (GPa) = 68.16950 37.53668 91.74805
#
# Poissons Ratio (x) = 0.10707 0.56333
# Poissons Ratio (y) = 0.19445 0.11591
# Poissons Ratio (z) = 0.41856 0.04742
#
# Static dielectric constant tensor:
#      x y z
#    x 2.216070 0.000000 0.025530 
#    y 0.000000 2.039250 0.000000 
#    z 0.025530 0.000000 2.105260 
# 
# From -- ./inp_files/240924.got.cif
#   From: 2010.05.17/outbox.cif.g08.bks.cpg/sg15_121_cif.got.tgz:240924.got - 2010.06.03 18:47:42.
