data_PCOD9258143
_publ_section_title
;
Structure prediction by ZEFSAII (Michael W. Deem and Ramdas Pophale) SiO2 
 PCOD9258143
Probable space group: C 2/C
;
_chemical_formula_sum "Si O2"
_cell_formula_units_Z 40
_cell_length_a 13.415055
_cell_length_b 12.764087
_cell_length_c 11.310851
_cell_angle_alpha 90.000000
_cell_angle_beta 74.232382
_cell_angle_gamma 90.000000
_cell_volume 1863.890305
_symmetry_space_group_name_H-M "C 2/C"
_symmetry_group_IT_number 15
_symmetry_cell_setting 'monoclinic'
loop_
_space_group_symop_operation_xyz
x,y,z
-x,y,1/2-z
-x,-y,-z
x,-y,1/2+z
1/2+x,1/2+y,z
1/2-x,1/2+y,1/2-z
1/2-x,1/2-y,-z
1/2+x,1/2-y,1/2+z
loop_
_atom_site_type_symbol
_atom_site_label
_atom_site_fract_x
_atom_site_fract_y
_atom_site_fract_z
Si Si1 0.164714 0.765846 0.648614
Si Si2 0.206301 0.465875 0.909610
Si Si3 0.025508 0.847390 0.903955
Si Si4 0.878696 0.538884 0.808134
Si Si5 0.423895 0.572244 0.871974
O O1 0.254606 0.845927 0.586027
O O2 0.072335 0.771435 0.581408
O O3 0.185994 0.647314 0.676701
O O4 0.110254 0.817460 0.780783
O O5 0.153702 0.473622 0.797682
O O6 0.309286 0.538393 0.872253
O O7 0.143809 0.498569 0.049360
O O8 0.979849 0.962423 0.889554
O O9 0.075155 0.853317 0.015604
O O10 0.000000 0.562174 0.750000
O O11 0.500000 0.619178 0.750000
#
# Coordination Sequence:
#
# PCOD9258143 Si02
#       5
#     8   8   8   8   8
#     4  10  19  40  66  90 121 165 211 263 312 393
#     4  11  24  40  66 100 123 169 222 259 316 387
#     4   9  16  32  60  89 122 154 200 245 327 371
#     4  12  25  45  67  87 131 179 218 260 313 374
#     4  10  18  32  61  94 130 152 194 273 332 366
#
# _framework density 21.46049
#
# number of rings (size 3 to 8) (size 9 to 14) (size 15 to 20)
#    0.000    1.600    6.000    2.400    5.600    0.000 
#    0.000    4.000    0.000    0.000    0.000    0.000 
#    0.000    0.000    0.000    0.000    0.000    0.000 
#
# Total GULP energy -111553.064358 kJ/mol
# GULP energy per Si atom -5577.653218 kJ/mol
# Density = 2.141164 g / cm^3
# Si number density = 21.460490 Si / 1000 Ang^3
#
#
#
# Elastic Constant Matrix: (Units=GPa)
#
#
# Indices 1 2 3 4 5 6 
#
# 1 44.6271 10.2979 46.9883 0.0000 -0.8344 0.0000
# 2 10.2979 20.4855 7.2700 0.0000 0.2639 0.0000
# 3 46.9883 7.2700 125.0932 0.0000 -24.2881 0.0000
# 4 0.0000 0.0000 0.0000 13.9593 0.0000 -2.3596
# 5 -0.8344 0.2639 -24.2881 0.0000 31.3669 0.0000
# 6 0.0000 0.0000 0.0000 -2.3596 0.0000 10.7698
#
#
#
# Elastic Compliance Matrix: (Units=1/GPa)
#
#
# Indices 1 2 3 4 5 6 
#
# 1 0.045638 -0.016112 -0.018766 0.000000 -0.013181 0.000000
# 2 -0.016112 0.055794 0.003102 0.000000 0.001504 0.000000
# 3 -0.018766 0.003102 0.017373 0.000000 0.012927 0.000000
# 4 0.000000 0.000000 0.000000 0.074392 0.000000 0.016299
# 5 -0.013181 0.001504 0.012927 0.000000 0.041527 0.000000
# 6 0.000000 0.000000 0.000000 0.016299 0.000000 0.096423
#
#
# Mechanical properties :
#
#
# Convention : Reuss Voigt Hill
#
# Bulk Modulus (GPa) = 18.09890 35.47979 26.78934
# Shear Modulus (GPa) = 12.10311 19.59586 15.84948
#
# Velocity S-wave (km/s) = 2.37739 3.02505 2.72056
# Velocity P-wave (km/s) = 3.99848 5.36375 4.73062
#
# Compressibility (1/GPa) = 0.05525198
#
# Stress axis : x y z
#
# Youngs Moduli (GPa) = 21.91153 17.92293 57.56221
#
# Poissons Ratio (x) = 0.28878 1.08020
# Poissons Ratio (y) = 0.35305 -0.17854
# Poissons Ratio (z) = 0.41119 -0.05559
#
# Static dielectric constant tensor:
#      x y z
#    x 1.762520 0.000000 0.004490 
#    y 0.000000 1.796230 0.000000 
#    z 0.004490 0.000000 1.871960 
# 
# From -- ./inp_files/85552.got.cif
#   From: 2010.05.17/outbox.cif.g08.bks.cpg/sg15_43_cif.got.tgz:85552.got - 2010.06.03 18:47:42.
