data_PCOD9258456
_publ_section_title
;
Structure prediction by ZEFSAII (Michael W. Deem and Ramdas Pophale) SiO2 
 PCOD9258456
Probable space group: C 2/C
;
_chemical_formula_sum "Si O2"
_cell_formula_units_Z 48
_cell_length_a 19.060890
_cell_length_b 6.929198
_cell_length_c 24.039404
_cell_angle_alpha 90.000000
_cell_angle_beta 129.032578
_cell_angle_gamma 90.000000
_cell_volume 2466.336642
_symmetry_space_group_name_H-M "C 2/C"
_symmetry_group_IT_number 15
_symmetry_cell_setting 'monoclinic'
loop_
_space_group_symop_operation_xyz
x,y,z
-x,y,1/2-z
-x,-y,-z
x,-y,1/2+z
1/2+x,1/2+y,z
1/2-x,1/2+y,1/2-z
1/2-x,1/2-y,-z
1/2+x,1/2-y,1/2+z
loop_
_atom_site_type_symbol
_atom_site_label
_atom_site_fract_x
_atom_site_fract_y
_atom_site_fract_z
Si Si1 0.557202 0.363121 0.830512
Si Si2 0.183181 0.809961 0.339004
Si Si3 0.361570 0.967657 0.464774
Si Si4 0.622984 0.963549 0.903072
Si Si5 0.554014 0.696739 0.672461
Si Si6 0.038453 0.795514 0.038716
O O1 0.500000 0.282218 0.750000
O O2 0.626194 0.517759 0.839285
O O3 0.490989 0.489433 0.835929
O O4 0.605173 0.188076 0.884453
O O5 0.175786 0.631404 0.378065
O O6 0.133627 0.766908 0.256219
O O7 0.284278 0.887736 0.386064
O O8 0.391614 0.186539 0.466748
O O9 0.331886 0.940335 0.513993
O O10 0.450445 0.839507 0.500534
O O11 0.525882 0.853344 0.857575
O O12 0.580732 0.696378 0.621510
O O13 0.000000 0.000000 0.000000
#
# Coordination Sequence:
#
# PCOD9258456 Si02
#       6
#     8   8   8   8   8   8
#     4   9  17  30  53  81 106 139 176 215 277 335
#     4  10  20  34  51  84 115 131 175 235 276 318
#     4  10  22  36  54  80 108 140 188 225 266 328
#     4  10  18  33  57  80 109 146 171 219 283 333
#     4   9  19  35  54  77 110 142 180 227 266 325
#     4  10  21  40  57  72 103 153 190 219 266 322
#
# _framework density 19.462063000000001
#
# number of rings (size 3 to 8) (size 9 to 14) (size 15 to 20)
#    0.000    2.333    0.000    4.000    0.000    2.000 
#    3.000    0.000    0.000    0.000    0.000    0.000 
#    0.000    0.000    0.000    0.000    0.000    0.000 
#
# Total GULP energy -133918.627691 kJ/mol
# GULP energy per Si atom -5579.942820 kJ/mol
# Density = 1.941777 g / cm^3
# Si number density = 19.462063 Si / 1000 Ang^3
#
#
#
# Elastic Constant Matrix: (Units=GPa)
#
#
# Indices 1 2 3 4 5 6 
#
# 1 32.1245 11.1255 33.6963 0.0000 -9.7343 0.0000
# 2 11.1255 73.4735 23.0861 0.0000 -18.1414 0.0000
# 3 33.6963 23.0861 110.8970 0.0000 -6.9951 0.0000
# 4 0.0000 0.0000 0.0000 24.9147 0.0000 -5.3288
# 5 -9.7343 -18.1414 -6.9951 0.0000 21.2299 0.0000
# 6 0.0000 0.0000 0.0000 -5.3288 0.0000 12.0761
#
#
#
# Elastic Compliance Matrix: (Units=1/GPa)
#
#
# Indices 1 2 3 4 5 6 
#
# 1 0.052552 0.001898 -0.015054 0.000000 0.020757 0.000000
# 2 0.001898 0.018160 -0.003394 0.000000 0.015270 0.000000
# 3 -0.015054 -0.003394 0.013970 0.000000 -0.005199 0.000000
# 4 0.000000 0.000000 0.000000 0.044320 0.000000 0.019557
# 5 0.020757 0.015270 -0.005199 0.000000 0.067956 0.000000
# 6 0.000000 0.000000 0.000000 0.019557 0.000000 0.091438
#
#
# Mechanical properties :
#
#
# Convention : Reuss Voigt Hill
#
# Bulk Modulus (GPa) = 19.38672 39.14563 29.26617
# Shear Modulus (GPa) = 14.76283 21.54996 18.15640
#
# Velocity S-wave (km/s) = 2.75716 3.33119 3.05767
# Velocity P-wave (km/s) = 4.48540 5.91213 5.24748
#
# Compressibility (1/GPa) = 0.05158171
#
# Stress axis : x y z
#
# Youngs Moduli (GPa) = 19.02888 55.06731 71.58187
#
# Poissons Ratio (x) = -0.10450 1.07757
# Poissons Ratio (y) = -0.03611 0.24294
# Poissons Ratio (z) = 0.28645 0.18689
#
# Static dielectric constant tensor:
#      x y z
#    x 1.681090 0.000000 -0.011350 
#    y 0.000000 1.668350 0.000000 
#    z -0.011350 0.000000 1.685460 
# 
# From -- ./inp_files/279032.got.cif
#   From: 2010.05.17/outbox.cif.g08.bks.cpg/sg15_140_cif.got.tgz:279032.got - 2010.06.03 18:47:42.
