data_PCOD9258175
_publ_section_title
;
Structure prediction by ZEFSAII (Michael W. Deem and Ramdas Pophale) SiO2 
 PCOD9258175
Probable space group: C 2/C
;
_chemical_formula_sum "Si O2"
_cell_formula_units_Z 44
_cell_length_a 14.949131
_cell_length_b 12.292584
_cell_length_c 11.257947
_cell_angle_alpha 90.000000
_cell_angle_beta 58.244333
_cell_angle_gamma 90.000000
_cell_volume 1759.100290
_symmetry_space_group_name_H-M "C 2/C"
_symmetry_group_IT_number 15
_symmetry_cell_setting 'monoclinic'
loop_
_space_group_symop_operation_xyz
x,y,z
-x,y,1/2-z
-x,-y,-z
x,-y,1/2+z
1/2+x,1/2+y,z
1/2-x,1/2+y,1/2-z
1/2-x,1/2-y,-z
1/2+x,1/2-y,1/2+z
loop_
_atom_site_type_symbol
_atom_site_label
_atom_site_fract_x
_atom_site_fract_y
_atom_site_fract_z
Si Si1 0.843698 0.190085 0.500018
Si Si2 0.500000 0.833794 0.250000
Si Si3 0.111827 0.462483 0.365358
Si Si4 0.937445 0.965591 0.422291
Si Si5 0.117663 0.723061 0.034332
Si Si6 0.864710 0.692411 0.214061
O O1 0.750000 0.250000 0.500000
O O2 0.947351 0.255657 0.383850
O O3 0.833081 0.213453 0.646240
O O4 0.856847 0.064722 0.460310
O O5 0.583940 0.910067 0.257419
O O6 0.157570 0.368202 0.415787
O O7 0.172571 0.575474 0.308596
O O8 0.000000 0.500000 0.500000
O O9 0.886386 0.850481 0.490387
O O10 0.000000 0.953970 0.250000
O O11 0.000000 0.000000 0.500000
O O12 0.166738 0.707963 0.129276
O O13 0.991926 0.695508 0.128757
#
# Coordination Sequence:
#
# PCOD9258175 Si02
#       6
#     8   4   8   8   8   8
#     4  12  26  42  65 102 137 177 233 294 351 426
#     4  12  20  40  66  94 124 176 220 266 352 422
#     4  10  18  32  65  98 122 169 228 273 340 414
#     4  12  21  40  70 101 137 189 241 293 365 436
#     4  10  18  34  65  98 128 179 236 283 346 423
#     4  10  19  37  61  98 134 171 227 292 344 416
#
# _framework density 25.012785999999998
#
# number of rings (size 3 to 8) (size 9 to 14) (size 15 to 20)
#    0.000    1.091    8.182    2.182    0.000    0.000 
#    0.000    3.636    0.000    2.182    0.000    0.000 
#    0.000    0.000    0.000    0.000    0.000    0.000 
#
# Total GULP energy -123146.915690 kJ/mol
# GULP energy per Si atom -5597.587077 kJ/mol
# Density = 2.495586 g / cm^3
# Si number density = 25.012786 Si / 1000 Ang^3
#
#
#
# Elastic Constant Matrix: (Units=GPa)
#
#
# Indices 1 2 3 4 5 6 
#
# 1 58.1794 24.0362 36.2753 0.0000 9.4181 0.0000
# 2 24.0362 215.0098 46.8033 0.0000 2.3419 0.0000
# 3 36.2753 46.8033 135.7149 0.0000 16.2208 0.0000
# 4 0.0000 0.0000 0.0000 39.6479 0.0000 13.4392
# 5 9.4181 2.3419 16.2208 0.0000 41.6322 0.0000
# 6 0.0000 0.0000 0.0000 13.4392 0.0000 30.5513
#
#
#
# Elastic Compliance Matrix: (Units=1/GPa)
#
#
# Indices 1 2 3 4 5 6 
#
# 1 0.021225 -0.001276 -0.004896 0.000000 -0.002822 0.000000
# 2 -0.001276 0.005112 -0.001491 0.000000 0.000582 0.000000
# 3 -0.004896 -0.001491 0.009491 0.000000 -0.002506 0.000000
# 4 0.000000 0.000000 0.000000 0.029642 0.000000 -0.013039
# 5 -0.002822 0.000582 -0.002506 0.000000 0.025602 0.000000
# 6 0.000000 0.000000 0.000000 -0.013039 0.000000 0.038468
#
#
# Mechanical properties :
#
#
# Convention : Reuss Voigt Hill
#
# Bulk Modulus (GPa) = 48.77842 69.23707 59.00775
# Shear Modulus (GPa) = 32.95987 42.48557 37.72272
#
# Velocity S-wave (km/s) = 3.63398 4.12582 3.88769
# Velocity P-wave (km/s) = 6.09520 7.10192 6.61773
#
# Compressibility (1/GPa) = 0.02050087
#
# Stress axis : x y z
#
# Youngs Moduli (GPa) = 47.11445 195.62075 105.36447
#
# Poissons Ratio (x) = 0.24967 0.51584
# Poissons Ratio (y) = 0.06013 0.15714
# Poissons Ratio (z) = 0.23066 0.29174
#
# Static dielectric constant tensor:
#      x y z
#    x 2.024240 0.000000 -0.070650 
#    y 0.000000 1.936900 0.000000 
#    z -0.070650 0.000000 2.032040 
# 
# From -- ./inp_files/94968.got.cif
#   From: 2010.05.17/outbox.cif.g08.bks.cpg/sg15_48_cif.got.tgz:94968.got - 2010.06.03 18:47:42.
