data_PCOD9258314
_publ_section_title
;
Structure prediction by ZEFSAII (Michael W. Deem and Ramdas Pophale) SiO2 
 PCOD9258314
Probable space group: C 2/C
;
_chemical_formula_sum "Si O2"
_cell_formula_units_Z 64
_cell_length_a 15.601406
_cell_length_b 25.995266
_cell_length_c 7.152031
_cell_angle_alpha 90.000000
_cell_angle_beta 93.693517
_cell_angle_gamma 90.000000
_cell_volume 2894.572205
_symmetry_space_group_name_H-M "C 2/C"
_symmetry_group_IT_number 15
_symmetry_cell_setting 'monoclinic'
loop_
_space_group_symop_operation_xyz
x,y,z
-x,y,1/2-z
-x,-y,-z
x,-y,1/2+z
1/2+x,1/2+y,z
1/2-x,1/2+y,1/2-z
1/2-x,1/2-y,-z
1/2+x,1/2-y,1/2+z
loop_
_atom_site_type_symbol
_atom_site_label
_atom_site_fract_x
_atom_site_fract_y
_atom_site_fract_z
Si Si1 0.662191 0.431092 0.960906
Si Si2 0.627337 0.294836 0.533368
Si Si3 0.520867 0.395560 0.476989
Si Si4 0.880403 0.250374 0.885269
Si Si5 0.314686 0.547761 0.599923
Si Si6 0.209341 0.643407 0.546434
Si Si7 0.755314 0.831337 0.486885
Si Si8 0.046677 0.301784 0.079659
O O1 0.562634 0.415217 0.925499
O O2 0.670611 0.434732 0.186171
O O3 0.690888 0.486630 0.895327
O O4 0.723950 0.384896 0.910271
O O5 0.558670 0.340467 0.541338
O O6 0.620747 0.268462 0.328256
O O7 0.720818 0.320577 0.547528
O O8 0.605515 0.246344 0.659227
O O9 0.500000 0.390938 0.250000
O O10 0.599666 0.435861 0.500543
O O11 0.811191 0.294305 0.921746
O O12 0.845699 0.198948 0.982665
O O13 0.970897 0.274449 0.954866
O O14 0.237135 0.584215 0.521287
O O15 0.112063 0.659479 0.489225
O O16 0.222804 0.656629 0.770661
O O17 0.000000 0.327163 0.250000
#
# Coordination Sequence:
#
# PCOD9258314 Si02
#       8
#     8   8   8   8   8   8   8   8
#     4  10  18  33  54  77 103 138 180 220 264 318
#     4  10  20  35  54  77 111 148 178 215 265 330
#     4   9  16  31  52  75 105 143 174 207 264 332
#     4  10  19  34  55  79 106 143 186 216 263 328
#     4   9  19  33  53  74 102 138 178 218 268 318
#     4   9  19  37  52  75 110 149 178 213 278 331
#     4   9  18  34  55  78 107 144 182 219 266 330
#     4  12  21  32  52  79 107 139 182 222 269 315
#
# _framework density 22.110348999999999
#
# number of rings (size 3 to 8) (size 9 to 14) (size 15 to 20)
#    0.000    2.250    1.250    4.875    0.000    0.000 
#    2.250    3.750    0.000    1.500    0.000    0.000 
#    0.000    0.000    0.000    0.000    0.000    0.000 
#
# Total GULP energy -178954.386859 kJ/mol
# GULP energy per Si atom -5592.324589 kJ/mol
# Density = 2.206002 g / cm^3
# Si number density = 22.110349 Si / 1000 Ang^3
#
#
#
# Elastic Constant Matrix: (Units=GPa)
#
#
# Indices 1 2 3 4 5 6 
#
# 1 121.3004 71.3048 13.6532 0.0000 -9.6032 0.0000
# 2 71.3048 171.2233 11.1134 0.0000 -2.1563 0.0000
# 3 13.6532 11.1134 54.4740 0.0000 -0.7411 0.0000
# 4 0.0000 0.0000 0.0000 28.3765 0.0000 -4.3158
# 5 -9.6032 -2.1563 -0.7411 0.0000 22.1626 0.0000
# 6 0.0000 0.0000 0.0000 -4.3158 0.0000 27.7065
#
#
#
# Elastic Compliance Matrix: (Units=1/GPa)
#
#
# Indices 1 2 3 4 5 6 
#
# 1 0.011528 -0.004622 -0.001885 0.000000 0.004482 0.000000
# 2 -0.004622 0.007778 -0.000446 0.000000 -0.001261 0.000000
# 3 -0.001885 -0.000446 0.018918 0.000000 -0.000228 0.000000
# 4 0.000000 0.000000 0.000000 0.036096 0.000000 0.005623
# 5 0.004482 -0.001261 -0.000228 0.000000 0.046933 0.000000
# 6 0.000000 0.000000 0.000000 0.005623 0.000000 0.036968
#
#
# Mechanical properties :
#
#
# Convention : Reuss Voigt Hill
#
# Bulk Modulus (GPa) = 41.12173 59.90449 50.51311
# Shear Modulus (GPa) = 27.74187 32.37753 30.05970
#
# Velocity S-wave (km/s) = 3.54602 3.83085 3.69118
# Velocity P-wave (km/s) = 5.95016 6.83516 6.40796
#
# Compressibility (1/GPa) = 0.02431805
#
# Stress axis : x y z
#
# Youngs Moduli (GPa) = 86.74500 128.56524 52.86042
#
# Poissons Ratio (x) = 0.59422 0.09966
# Poissons Ratio (y) = 0.40093 0.02355
# Poissons Ratio (z) = 0.16355 0.05729
#
# Static dielectric constant tensor:
#      x y z
#    x 1.835210 0.000000 0.009860 
#    y 0.000000 1.816670 0.000000 
#    z 0.009860 0.000000 1.959250 
# 
# From -- ./inp_files/42625.got.cif
#   From: 2010.05.17/outbox.cif.g08.bks.cpg/sg15_22_cif.got.tgz:42625.got - 2010.06.03 18:47:42.
