data_PCOD9258275
_publ_section_title
;
Structure prediction by ZEFSAII (Michael W. Deem and Ramdas Pophale) SiO2 
 PCOD9258275
Probable space group: C 2/C
;
_chemical_formula_sum "Si O2"
_cell_formula_units_Z 60
_cell_length_a 20.511029
_cell_length_b 14.254689
_cell_length_c 11.653679
_cell_angle_alpha 90.000000
_cell_angle_beta 62.568201
_cell_angle_gamma 90.000000
_cell_volume 3024.167830
_symmetry_space_group_name_H-M "C 2/C"
_symmetry_group_IT_number 15
_symmetry_cell_setting 'monoclinic'
loop_
_space_group_symop_operation_xyz
x,y,z
-x,y,1/2-z
-x,-y,-z
x,-y,1/2+z
1/2+x,1/2+y,z
1/2-x,1/2+y,1/2-z
1/2-x,1/2-y,-z
1/2+x,1/2-y,1/2+z
loop_
_atom_site_type_symbol
_atom_site_label
_atom_site_fract_x
_atom_site_fract_y
_atom_site_fract_z
Si Si1 0.796055 0.861897 0.586273
Si Si2 0.000000 0.220382 0.750000
Si Si3 0.792496 0.336720 0.407035
Si Si4 0.386351 0.315670 0.737687
Si Si5 0.014257 0.888828 0.478927
Si Si6 0.342406 0.784790 0.861023
Si Si7 0.307627 0.474976 0.912074
Si Si8 0.181304 0.876677 0.298879
O O1 0.825188 0.841482 0.689009
O O2 0.709335 0.871578 0.626878
O O3 0.820509 0.770208 0.494388
O O4 0.827704 0.955072 0.500597
O O5 0.004413 0.154234 0.632968
O O6 0.070594 0.286538 0.706098
O O7 0.750000 0.250000 0.500000
O O8 0.868116 0.287177 0.304604
O O9 0.771609 0.423757 0.507112
O O10 0.747862 0.368713 0.331386
O O11 0.463590 0.334138 0.612180
O O12 0.369058 0.395011 0.845860
O O13 0.101371 0.877051 0.420771
O O14 0.000000 0.000000 0.500000
O O15 0.320085 0.715143 0.777567
O O16 0.309611 0.538105 0.796689
#
# Coordination Sequence:
#
# PCOD9258275 Si02
#       8
#     8   4   8   8   8   8   8   8
#     4  10  18  33  53  79 104 144 187 235 278 326
#     4  10  20  34  50  82 110 142 184 226 276 336
#     4  10  22  38  54  79 116 151 197 234 284 343
#     4  11  20  36  52  80 119 152 188 232 283 348
#     4  11  22  32  53  82 120 153 180 225 287 355
#     4   9  18  31  54  77 106 139 183 233 276 327
#     4  10  21  32  54  81 109 147 189 236 279 336
#     4  10  19  35  53  81 113 149 189 229 284 340
#
# _framework density 19.840168999999999
#
# number of rings (size 3 to 8) (size 9 to 14) (size 15 to 20)
#    0.000    1.867    4.000    0.800    0.000    0.000 
#    0.000    0.000    0.000    0.000    6.933    2.800 
#    0.000    0.000    0.000    0.000    0.000    0.000 
#
# Total GULP energy -167176.778279 kJ/mol
# GULP energy per Si atom -5572.559276 kJ/mol
# Density = 1.979501 g / cm^3
# Si number density = 19.840169 Si / 1000 Ang^3
#
#
#
# Elastic Constant Matrix: (Units=GPa)
#
#
# Indices 1 2 3 4 5 6 
#
# 1 56.9100 17.2607 28.8218 0.0000 -14.8864 0.0000
# 2 17.2607 50.9551 32.5948 0.0000 -14.7993 0.0000
# 3 28.8218 32.5948 107.9777 0.0000 -17.2302 0.0000
# 4 0.0000 0.0000 0.0000 26.8355 0.0000 -10.6602
# 5 -14.8864 -14.7993 -17.2302 0.0000 39.2372 0.0000
# 6 0.0000 0.0000 0.0000 -10.6602 0.0000 18.0827
#
#
#
# Elastic Compliance Matrix: (Units=1/GPa)
#
#
# Indices 1 2 3 4 5 6 
#
# 1 0.022013 -0.003339 -0.004018 0.000000 0.005328 0.000000
# 2 -0.003339 0.026419 -0.006125 0.000000 0.006008 0.000000
# 3 -0.004018 -0.006125 0.012442 0.000000 0.001629 0.000000
# 4 0.000000 0.000000 0.000000 0.048659 0.000000 0.028686
# 5 0.005328 0.006008 0.001629 0.000000 0.030489 0.000000
# 6 0.000000 0.000000 0.000000 0.028686 0.000000 0.072212
#
#
# Mechanical properties :
#
#
# Convention : Reuss Voigt Hill
#
# Bulk Modulus (GPa) = 29.48917 41.46639 35.47778
# Shear Modulus (GPa) = 19.95989 25.97546 22.96768
#
# Velocity S-wave (km/s) = 3.17525 3.62226 3.40609
# Velocity P-wave (km/s) = 5.32340 6.20000 5.77834
#
# Compressibility (1/GPa) = 0.03391075
#
# Stress axis : x y z
#
# Youngs Moduli (GPa) = 45.42836 37.85109 80.36979
#
# Poissons Ratio (x) = 0.12640 0.32289
# Poissons Ratio (y) = 0.15170 0.49227
# Poissons Ratio (z) = 0.18251 0.23184
#
# Static dielectric constant tensor:
#      x y z
#    x 1.728400 0.000000 -0.024400 
#    y 0.000000 1.721990 0.000000 
#    z -0.024400 0.000000 1.826610 
# 
# From -- ./inp_files/118536.got.cif
#   From: 2010.05.17/outbox.cif.g08.bks.cpg/sg15_60_cif.got.tgz:118536.got - 2010.06.03 18:47:42.
