data_PCOD9258267
_publ_section_title
;
Structure prediction by ZEFSAII (Michael W. Deem and Ramdas Pophale) SiO2 
 PCOD9258267
Probable space group: C 2/C
;
_chemical_formula_sum "Si O2"
_cell_formula_units_Z 60
_cell_length_a 17.776605
_cell_length_b 8.665750
_cell_length_c 23.296653
_cell_angle_alpha 90.000000
_cell_angle_beta 54.208656
_cell_angle_gamma 90.000000
_cell_volume 2911.057946
_symmetry_space_group_name_H-M "C 2/C"
_symmetry_group_IT_number 15
_symmetry_cell_setting 'monoclinic'
loop_
_space_group_symop_operation_xyz
x,y,z
-x,y,1/2-z
-x,-y,-z
x,-y,1/2+z
1/2+x,1/2+y,z
1/2-x,1/2+y,1/2-z
1/2-x,1/2-y,-z
1/2+x,1/2-y,1/2+z
loop_
_atom_site_type_symbol
_atom_site_label
_atom_site_fract_x
_atom_site_fract_y
_atom_site_fract_z
Si Si1 0.000000 0.657267 0.750000
Si Si2 0.814131 0.346399 0.797347
Si Si3 0.052719 0.360224 0.052662
Si Si4 0.248883 0.471296 0.275365
Si Si5 0.906906 0.360572 0.594502
Si Si6 0.051096 0.880003 0.820646
Si Si7 0.135905 0.542011 0.111255
Si Si8 0.509766 0.294042 0.336523
O O1 0.940493 0.767266 0.736445
O O2 0.935505 0.555114 0.818259
O O3 0.806503 0.493727 0.758648
O O4 0.755433 0.202187 0.797280
O O5 0.791572 0.399843 0.872350
O O6 0.918713 0.278719 0.742022
O O7 0.136372 0.433310 0.054306
O O8 0.977348 0.497572 0.077071
O O9 0.997916 0.221435 0.108335
O O10 0.085195 0.314296 0.974885
O O11 0.194665 0.576308 0.345292
O O12 0.349601 0.539692 0.216216
O O13 0.936800 0.230530 0.626589
O O14 0.988604 0.028764 0.834355
O O15 0.083533 0.697567 0.117042
#
# Coordination Sequence:
#
# PCOD9258267 Si02
#       8
#     4   8   8   8   8   8   8   8
#     4  10  20  30  54  76 110 134 176 236 266 336
#     4  10  19  31  50  77 107 139 174 228 277 328
#     4   9  19  35  57  80 106 150 195 221 260 334
#     4  10  21  32  52  81 112 142 176 228 282 327
#     4   9  18  36  56  76 112 153 184 218 271 337
#     4  10  21  32  52  87 106 134 184 234 278 318
#     4  10  18  33  53  76 105 142 180 229 273 322
#     4   9  18  31  52  79 105 137 176 228 279 313
#
# _framework density 20.611063999999999
#
# number of rings (size 3 to 8) (size 9 to 14) (size 15 to 20)
#    0.000    2.400    1.333    0.800    7.467    0.533 
#    0.000    0.667    0.000    3.200    0.000    0.000 
#    0.000    0.000    0.000    0.000    0.000    0.000 
#
# Total GULP energy -167072.160209 kJ/mol
# GULP energy per Si atom -5569.072007 kJ/mol
# Density = 2.056415 g / cm^3
# Si number density = 20.611064 Si / 1000 Ang^3
#
#
#
# Elastic Constant Matrix: (Units=GPa)
#
#
# Indices 1 2 3 4 5 6 
#
# 1 38.4291 32.6859 21.9096 0.0001 18.0215 0.0003
# 2 32.6859 94.8827 13.6331 0.0001 14.8445 0.0007
# 3 21.9096 13.6331 83.7075 0.0000 23.4795 0.0000
# 4 0.0001 0.0001 0.0000 15.9597 0.0000 3.1500
# 5 18.0215 14.8445 23.4795 0.0000 25.5621 0.0001
# 6 0.0003 0.0007 0.0000 3.1500 0.0001 5.6944
#
#
#
# Elastic Compliance Matrix: (Units=1/GPa)
#
#
# Indices 1 2 3 4 5 6 
#
# 1 0.051182 -0.013184 -0.004412 0.000000 -0.024375 -0.000001
# 2 -0.013184 0.014989 0.001137 0.000000 -0.000454 -0.000001
# 3 -0.004412 0.001137 0.016473 0.000000 -0.012680 0.000000
# 4 0.000000 0.000000 0.000000 0.070337 0.000000 -0.038908
# 5 -0.024375 -0.000454 -0.012680 0.000000 0.068216 0.000001
# 6 -0.000001 -0.000001 0.000000 -0.038908 0.000001 0.197133
#
#
# Mechanical properties :
#
#
# Convention : Reuss Voigt Hill
#
# Bulk Modulus (GPa) = 20.11068 39.27517 29.69293
# Shear Modulus (GPa) = 10.68780 19.36262 15.02521
#
# Velocity S-wave (km/s) = 2.27963 3.06834 2.70291
# Velocity P-wave (km/s) = 4.08747 5.62580 4.91717
#
# Compressibility (1/GPa) = 0.04972482
#
# Stress axis : x y z
#
# Youngs Moduli (GPa) = 19.53819 66.71694 60.70612
#
# Poissons Ratio (x) = 0.87960 0.26784
# Poissons Ratio (y) = 0.25759 -0.06902
# Poissons Ratio (z) = 0.08620 -0.07585
#
# Static dielectric constant tensor:
#      x y z
#    x 1.853350 0.000000 0.049110 
#    y 0.000000 1.761450 0.000000 
#    z 0.049110 0.000000 1.727330 
# 
# From -- ./inp_files/276259.got.cif
#   From: 2010.05.17/outbox.cif.g08.bks.cpg/sg15_139_cif.got.tgz:276259.got - 2010.06.03 18:47:42.
