data_PCOD9258589
_publ_section_title
;
Structure prediction by ZEFSAII (Michael W. Deem and Ramdas Pophale) SiO2 
 PCOD9258589
Probable space group: C 2/C
;
_chemical_formula_sum "Si O2"
_cell_formula_units_Z 56
_cell_length_a 8.336732
_cell_length_b 15.973367
_cell_length_c 20.281545
_cell_angle_alpha 90.000000
_cell_angle_beta 87.246334
_cell_angle_gamma 90.000000
_cell_volume 2697.687147
_symmetry_space_group_name_H-M "C 2/C"
_symmetry_group_IT_number 15
_symmetry_cell_setting 'monoclinic'
loop_
_space_group_symop_operation_xyz
x,y,z
-x,y,1/2-z
-x,-y,-z
x,-y,1/2+z
1/2+x,1/2+y,z
1/2-x,1/2+y,1/2-z
1/2-x,1/2-y,-z
1/2+x,1/2-y,1/2+z
loop_
_atom_site_type_symbol
_atom_site_label
_atom_site_fract_x
_atom_site_fract_y
_atom_site_fract_z
Si Si1 0.500000 0.659380 0.250000
Si Si2 0.276358 0.058044 0.174965
Si Si3 0.212935 0.445416 0.126668
Si Si4 0.942887 0.370095 0.892652
Si Si5 0.110723 0.316644 0.022075
Si Si6 0.611983 0.293536 0.884953
Si Si7 0.000000 0.432340 0.250000
Si Si8 0.479190 0.523369 0.422998
O O1 0.639927 0.598544 0.222190
O O2 0.440365 0.713170 0.189751
O O3 0.406103 0.130697 0.158922
O O4 0.195620 0.024891 0.108418
O O5 0.371168 0.986656 0.211196
O O6 0.132378 0.537075 0.116171
O O7 0.189607 0.389091 0.063275
O O8 0.402718 0.466108 0.124386
O O9 0.120296 0.400574 0.189330
O O10 0.803043 0.303073 0.884862
O O11 0.021542 0.355394 0.961505
O O12 0.972198 0.274722 0.068880
O O13 0.250000 0.250000 0.000000
O O14 0.541565 0.381877 0.912794
O O15 0.500000 0.500000 0.500000
#
# Coordination Sequence:
#
# PCOD9258589 Si02
#       8
#     4   8   8   8   8   8   4   8
#     4  10  18  35  56  84 116 153 194 230 294 353
#     4  10  18  33  60  88 117 152 196 250 288 353
#     4  10  22  38  60  85 118 156 196 245 294 361
#     4  10  21  39  60  87 114 152 199 242 293 354
#     4  12  23  39  59  87 120 153 194 248 304 353
#     4  10  22  35  58  83 115 154 189 239 290 355
#     4  10  20  35  56  86 116 153 198 238 298 355
#     4  10  19  35  58  88 116 150 197 245 296 347
#
# _framework density 20.758523
#
# number of rings (size 3 to 8) (size 9 to 14) (size 15 to 20)
#    0.000    1.714    0.000    7.714    0.000    4.000 
#    0.000    2.857    0.000    1.714    0.000    0.000 
#    0.000    0.000    0.000    0.000    0.000    0.000 
#
# Total GULP energy -156194.458934 kJ/mol
# GULP energy per Si atom -5578.373533 kJ/mol
# Density = 2.071128 g / cm^3
# Si number density = 20.758523 Si / 1000 Ang^3
#
#
#
# Elastic Constant Matrix: (Units=GPa)
#
#
# Indices 1 2 3 4 5 6 
#
# 1 128.8741 13.5156 29.6327 0.0000 -6.6622 0.0000
# 2 13.5156 16.9680 -1.0509 0.0000 -7.9701 0.0000
# 3 29.6327 -1.0509 96.2822 0.0000 -4.6090 0.0000
# 4 0.0000 0.0000 0.0000 4.0267 0.0000 -8.3987
# 5 -6.6622 -7.9701 -4.6090 0.0000 35.2883 0.0000
# 6 0.0000 0.0000 0.0000 -8.3987 0.0000 18.9380
#
#
#
# Elastic Compliance Matrix: (Units=1/GPa)
#
#
# Indices 1 2 3 4 5 6 
#
# 1 0.009225 -0.007710 -0.002942 0.000000 -0.000384 0.000000
# 2 -0.007710 0.072573 0.003904 0.000000 0.015445 0.000000
# 3 -0.002942 0.003904 0.011421 0.000000 0.001818 0.000000
# 4 0.000000 0.000000 0.000000 3.311233 0.000000 1.468479
# 5 -0.000384 0.015445 0.001818 0.000000 0.031991 0.000000
# 6 0.000000 0.000000 0.000000 1.468479 0.000000 0.704052
#
#
# Mechanical properties :
#
#
# Convention : Reuss Voigt Hill
#
# Bulk Modulus (GPa) = 12.54337 36.25770 24.40053
# Shear Modulus (GPa) = 1.19601 24.98571 13.09086
#
# Velocity S-wave (km/s) = 0.75987 3.47311 2.51395
# Velocity P-wave (km/s) = 2.61257 5.79549 4.49517
#
# Compressibility (1/GPa) = 0.07972337
#
# Stress axis : x y z
#
# Youngs Moduli (GPa) = 108.40521 13.77932 87.55706
#
# Poissons Ratio (x) = 0.10624 0.25756
# Poissons Ratio (y) = 0.83584 -0.34186
# Poissons Ratio (z) = 0.31889 -0.05380
#
# Static dielectric constant tensor:
#      x y z
#    x 1.794060 0.000000 -0.027720 
#    y 0.000000 1.726990 0.000000 
#    z -0.027720 0.000000 1.793770 
# 
# From -- ./inp_files/231611.got.cif
#   From: 2010.05.17/outbox.cif.g08.bks.cpg/sg15_116_cif.got.tgz:231611.got - 2010.06.03 18:47:42.
