data_PCOD9258433
_publ_section_title
;
Structure prediction by ZEFSAII (Michael W. Deem and Ramdas Pophale) SiO2 
 PCOD9258433
Probable space group: C 2/C
;
_chemical_formula_sum "Si O2"
_cell_formula_units_Z 64
_cell_length_a 18.650516
_cell_length_b 21.953905
_cell_length_c 16.518446
_cell_angle_alpha 90.000000
_cell_angle_beta 150.855328
_cell_angle_gamma 90.000000
_cell_volume 3293.938500
_symmetry_space_group_name_H-M "C 2/C"
_symmetry_group_IT_number 15
_symmetry_cell_setting 'monoclinic'
loop_
_space_group_symop_operation_xyz
x,y,z
-x,y,1/2-z
-x,-y,-z
x,-y,1/2+z
1/2+x,1/2+y,z
1/2-x,1/2+y,1/2-z
1/2-x,1/2-y,-z
1/2+x,1/2-y,1/2+z
loop_
_atom_site_type_symbol
_atom_site_label
_atom_site_fract_x
_atom_site_fract_y
_atom_site_fract_z
Si Si1 0.980302 0.249258 0.519352
Si Si2 0.666136 0.879401 0.145053
Si Si3 0.479948 0.077472 0.322850
Si Si4 0.766415 0.331524 0.698598
Si Si5 0.286392 0.371479 0.667632
Si Si6 0.500668 0.062582 0.627895
Si Si7 0.100612 0.163646 0.509127
Si Si8 0.850607 0.325087 0.127639
O O1 0.883301 0.308791 0.405677
O O2 0.892319 0.196145 0.478294
O O3 0.121111 0.275744 0.702896
O O4 0.030090 0.221691 0.483179
O O5 0.560622 0.919121 0.098916
O O6 0.822214 0.876563 0.343847
O O7 0.627031 0.904572 0.018326
O O8 0.500000 0.095604 0.250000
O O9 0.341573 0.112598 0.226806
O O10 0.458060 0.005197 0.307558
O O11 0.755609 0.346120 0.784474
O O12 0.463206 0.374493 0.838151
O O13 0.235230 0.331285 0.541300
O O14 0.176272 0.428746 0.547145
O O15 0.579986 0.112870 0.763225
O O16 0.225444 0.187124 0.570848
O O17 0.000000 0.288923 0.250000
#
# Coordination Sequence:
#
# PCOD9258433 Si02
#       8
#     8   8   8   8   8   8   8   8
#     4  10  18  36  59  82 117 152 197 242 295 345
#     4  10  20  36  61  87 112 155 198 239 293 358
#     4  11  22  38  61  89 115 149 204 250 294 350
#     4  10  21  34  61  83 113 155 196 244 297 353
#     4  10  18  33  56  86 114 152 193 234 293 346
#     4  10  19  37  62  85 112 155 197 240 284 353
#     4  10  20  33  58  82 120 155 194 243 289 350
#     4   9  19  33  56  83 116 155 194 235 287 340
#
# _framework density 19.429628999999998
#
# number of rings (size 3 to 8) (size 9 to 14) (size 15 to 20)
#    0.000    2.000    3.750    1.875    0.000    0.000 
#    0.000    3.750   13.750    2.250    0.000    0.000 
#    0.000    0.000    0.000    0.000    0.000    0.000 
#
# Total GULP energy -178138.111157 kJ/mol
# GULP energy per Si atom -5566.815974 kJ/mol
# Density = 1.938541 g / cm^3
# Si number density = 19.429629 Si / 1000 Ang^3
#
#
#
# Elastic Constant Matrix: (Units=GPa)
#
#
# Indices 1 2 3 4 5 6 
#
# 1 72.8395 27.8441 41.8220 0.0000 0.4258 0.0000
# 2 27.8441 64.8029 7.9783 0.0000 12.6099 0.0000
# 3 41.8220 7.9783 100.3412 0.0000 6.8155 0.0000
# 4 0.0000 0.0000 0.0000 5.0698 0.0000 -3.6625
# 5 0.4258 12.6099 6.8155 0.0000 41.2209 0.0000
# 6 0.0000 0.0000 0.0000 -3.6625 0.0000 3.3297
#
#
#
# Elastic Compliance Matrix: (Units=1/GPa)
#
#
# Indices 1 2 3 4 5 6 
#
# 1 0.022343 -0.009304 -0.008850 0.000000 0.004079 0.000000
# 2 -0.009304 0.020378 0.002705 0.000000 -0.006585 0.000000
# 3 -0.008850 0.002705 0.013643 0.000000 -0.002992 0.000000
# 4 0.000000 0.000000 0.000000 0.960426 0.000000 1.056427
# 5 0.004079 -0.006585 -0.002992 0.000000 0.026726 0.000000
# 6 0.000000 0.000000 0.000000 1.056427 0.000000 1.462351
#
#
# Mechanical properties :
#
#
# Convention : Reuss Voigt Hill
#
# Bulk Modulus (GPa) = 39.26940 43.69694 41.48317
# Shear Modulus (GPa) = 1.96444 20.61337 11.28890
#
# Velocity S-wave (km/s) = 1.00660 3.26072 2.41304
# Velocity P-wave (km/s) = 4.64822 6.05929 5.40005
#
# Compressibility (1/GPa) = 0.02546512
#
# Stress axis : x y z
#
# Youngs Moduli (GPa) = 44.75701 49.07371 73.29953
#
# Poissons Ratio (x) = 0.45660 0.64868
# Poissons Ratio (y) = 0.41643 -0.19828
# Poissons Ratio (z) = 0.39609 -0.13274
#
# Static dielectric constant tensor:
#      x y z
#    x 1.729140 0.000000 0.016640 
#    y 0.000000 1.708160 0.000000 
#    z 0.016640 0.000000 1.739000 
# 
# From -- ./inp_files/164263.got.cif
#   From: 2010.05.17/outbox.cif.g08.bks.cpg/sg15_83_cif.got.tgz:164263.got - 2010.06.03 18:47:42.
