data_PCOD9258862
_publ_section_title
;
Structure prediction by ZEFSAII (Michael W. Deem and Ramdas Pophale) SiO2 
 PCOD9258862
Probable space group: C 2/C
;
_chemical_formula_sum "Si O2"
_cell_formula_units_Z 52
_cell_length_a 18.818408
_cell_length_b 9.317808
_cell_length_c 18.853228
_cell_angle_alpha 90.000000
_cell_angle_beta 142.908376
_cell_angle_gamma 90.000000
_cell_volume 1993.726038
_symmetry_space_group_name_H-M "C 2/C"
_symmetry_group_IT_number 15
_symmetry_cell_setting 'monoclinic'
loop_
_space_group_symop_operation_xyz
x,y,z
-x,y,1/2-z
-x,-y,-z
x,-y,1/2+z
1/2+x,1/2+y,z
1/2-x,1/2+y,1/2-z
1/2-x,1/2-y,-z
1/2+x,1/2-y,1/2+z
loop_
_atom_site_type_symbol
_atom_site_label
_atom_site_fract_x
_atom_site_fract_y
_atom_site_fract_z
Si Si1 0.063895 0.346281 0.480508
Si Si2 0.563596 0.854405 0.648566
Si Si3 0.827095 0.893781 0.630278
Si Si4 0.313284 0.549078 0.366458
Si Si5 0.000000 0.660794 0.250000
Si Si6 0.303088 0.075228 0.607834
Si Si7 0.983975 0.972400 0.876037
O O1 0.044908 0.325109 0.549948
O O2 0.198912 0.385873 0.567180
O O3 0.986800 0.480448 0.390215
O O4 0.024207 0.194545 0.416649
O O5 0.705942 0.840883 0.771917
O O6 0.507429 0.779446 0.674538
O O7 0.800285 0.952233 0.531095
O O8 0.860294 0.728533 0.641564
O O9 0.923148 0.977636 0.751198
O O10 0.245843 0.419902 0.351667
O O11 0.418253 0.571185 0.506768
O O12 0.372365 0.512435 0.340266
O O13 0.112184 0.556583 0.336673
#
# Coordination Sequence:
#
# PCOD9258862 Si02
#       7
#     8   8   8   8   4   8   8
#     4  11  21  37  56  87 108 152 185 235 268 340
#     4  10  21  36  60  80 114 141 197 226 284 319
#     4  11  21  35  55  87 116 150 178 231 280 342
#     4  10  21  37  54  82 109 155 177 233 273 337
#     4  10  18  34  56  84 106 150 180 234 272 328
#     4  10  21  34  55  83 121 143 184 223 289 328
#     4  11  22  36  58  80 118 145 193 220 285 328
#
# _framework density 26.081817999999998
#
# number of rings (size 3 to 8) (size 9 to 14) (size 15 to 20)
#    0.000    1.538    4.615    1.846    0.000    0.615 
#    0.000    0.000    0.000    7.385    0.000    0.000 
#    0.000    0.000    0.000    0.000    0.000    0.000 
#
# Total GULP energy -145109.356697 kJ/mol
# GULP energy per Si atom -5581.129104 kJ/mol
# Density = 2.602245 g / cm^3
# Si number density = 26.081818 Si / 1000 Ang^3
#
#
#
# Elastic Constant Matrix: (Units=GPa)
#
#
# Indices 1 2 3 4 5 6 
#
# 1 165.5876 -0.5014 45.4068 0.0000 -28.7583 0.0000
# 2 -0.5014 55.9473 34.3546 0.0000 -3.6027 0.0000
# 3 45.4068 34.3546 165.4976 0.0000 -17.5068 0.0000
# 4 0.0000 0.0000 0.0000 16.7632 0.0000 -5.9243
# 5 -28.7583 -3.6027 -17.5068 0.0000 54.2990 0.0000
# 6 0.0000 0.0000 0.0000 -5.9243 0.0000 15.6672
#
#
#
# Elastic Compliance Matrix: (Units=1/GPa)
#
#
# Indices 1 2 3 4 5 6 
#
# 1 0.007134 0.001449 -0.001913 0.000000 0.003258 0.000000
# 2 0.001449 0.020779 -0.004642 0.000000 0.000649 0.000000
# 3 -0.001913 -0.004642 0.007652 0.000000 0.001146 0.000000
# 4 0.000000 0.000000 0.000000 0.068856 0.000000 0.026037
# 5 0.003258 0.000649 0.001146 0.000000 0.020554 0.000000
# 6 0.000000 0.000000 0.000000 0.026037 0.000000 0.073673
#
#
# Mechanical properties :
#
#
# Convention : Reuss Voigt Hill
#
# Bulk Modulus (GPa) = 39.44547 60.61695 50.03121
# Shear Modulus (GPa) = 23.00821 37.86403 30.43612
#
# Velocity S-wave (km/s) = 2.97333 3.81430 3.41977
# Velocity P-wave (km/s) = 5.19078 6.53377 5.90060
#
# Compressibility (1/GPa) = 0.02535145
#
# Stress axis : x y z
#
# Youngs Moduli (GPa) = 140.17527 48.12471 130.68101
#
# Poissons Ratio (x) = -0.06972 0.25005
# Poissons Ratio (y) = -0.20307 0.60665
# Poissons Ratio (z) = 0.26822 0.22341
#
# Static dielectric constant tensor:
#      x y z
#    x 2.123530 0.000000 0.021900 
#    y 0.000000 2.061240 0.000000 
#    z 0.021900 0.000000 2.087260 
# 
# From -- ./inp_files/112135.got.cif
#   From: 2010.05.17/outbox.cif.g08.bks.cpg/sg15_57_cif.got.tgz:112135.got - 2010.06.03 18:47:42.
