data_PCOD9258137
_publ_section_title
;
Structure prediction by ZEFSAII (Michael W. Deem and Ramdas Pophale) SiO2 
 PCOD9258137
Probable space group: C 2/C
;
_chemical_formula_sum "Si O2"
_cell_formula_units_Z 64
_cell_length_a 27.532052
_cell_length_b 8.246681
_cell_length_c 15.722439
_cell_angle_alpha 90.000000
_cell_angle_beta 126.783341
_cell_angle_gamma 90.000000
_cell_volume 2859.031723
_symmetry_space_group_name_H-M "C 2/C"
_symmetry_group_IT_number 15
_symmetry_cell_setting 'monoclinic'
loop_
_space_group_symop_operation_xyz
x,y,z
-x,y,1/2-z
-x,-y,-z
x,-y,1/2+z
1/2+x,1/2+y,z
1/2-x,1/2+y,1/2-z
1/2-x,1/2-y,-z
1/2+x,1/2-y,1/2+z
loop_
_atom_site_type_symbol
_atom_site_label
_atom_site_fract_x
_atom_site_fract_y
_atom_site_fract_z
Si Si1 0.717511 0.758723 0.648461
Si Si2 0.087154 0.290818 0.982025
Si Si3 0.041144 0.179184 0.663547
Si Si4 0.341564 0.777549 0.603635
Si Si5 0.672386 0.077226 0.805780
Si Si6 0.394624 0.617139 0.320174
Si Si7 0.102464 0.377017 0.583949
Si Si8 0.775687 0.092466 0.674138
O O1 0.759083 0.636830 0.638723
O O2 0.645113 0.753324 0.576718
O O3 0.739669 0.721746 0.768599
O O4 0.731575 0.940277 0.632315
O O5 0.144505 0.261267 0.980843
O O6 0.025086 0.227660 0.876021
O O7 0.094545 0.193939 0.077115
O O8 0.079814 0.479848 0.999559
O O9 0.095357 0.229359 0.783233
O O10 0.054106 0.280006 0.589549
O O11 0.049420 0.988250 0.654209
O O12 0.290758 0.672782 0.599695
O O13 0.331138 0.964028 0.616788
O O14 0.630063 0.236418 0.764140
O O15 0.646079 0.969526 0.699337
O O16 0.339476 0.490040 0.268001
#
# Coordination Sequence:
#
# PCOD9258137 Si02
#       8
#     8   8   8   8   8   8   8   8
#     4  11  16  32  60  81 102 145 193 229 268 322
#     4  11  22  35  56  80 118 147 178 234 291 313
#     4  10  19  38  59  80 105 150 194 229 270 335
#     4  10  20  38  54  83 113 148 184 227 279 346
#     4   9  18  32  58  81 109 141 189 226 270 341
#     4   9  19  34  58  86 107 138 192 237 269 326
#     4  10  19  33  54  85 106 140 192 228 268 331
#     4  10  18  32  61  82 105 143 192 226 270 337
#
# _framework density 22.385200000000001
#
# number of rings (size 3 to 8) (size 9 to 14) (size 15 to 20)
#    0.000    2.000    5.000    1.125    0.000    0.000 
#    0.000    5.000    0.000   12.000    0.000    0.000 
#    0.000    0.000    0.000    0.000    0.000    0.000 
#
# Total GULP energy -178725.979012 kJ/mol
# GULP energy per Si atom -5585.186844 kJ/mol
# Density = 2.233425 g / cm^3
# Si number density = 22.385200 Si / 1000 Ang^3
#
#
#
# Elastic Constant Matrix: (Units=GPa)
#
#
# Indices 1 2 3 4 5 6 
#
# 1 101.9612 37.9247 10.8972 0.0000 -19.1823 0.0000
# 2 37.9247 112.0198 21.1829 0.0000 -12.6191 0.0000
# 3 10.8972 21.1829 50.7853 0.0000 -0.5722 0.0000
# 4 0.0000 0.0000 0.0000 10.2151 0.0000 8.3802
# 5 -19.1823 -12.6191 -0.5722 0.0000 18.1419 0.0000
# 6 0.0000 0.0000 0.0000 8.3802 0.0000 22.6816
#
#
#
# Elastic Compliance Matrix: (Units=1/GPa)
#
#
# Indices 1 2 3 4 5 6 
#
# 1 0.013296 -0.002859 -0.001525 0.000000 0.012022 0.000000
# 2 -0.002859 0.011171 -0.003994 0.000000 0.004621 0.000000
# 3 -0.001525 -0.003994 0.021642 0.000000 -0.003708 0.000000
# 4 0.000000 0.000000 0.000000 0.140473 0.000000 -0.051901
# 5 0.012022 0.004621 -0.003708 0.000000 0.070929 0.000000
# 6 0.000000 0.000000 0.000000 -0.051901 0.000000 0.063265
#
#
# Mechanical properties :
#
#
# Convention : Reuss Voigt Hill
#
# Bulk Modulus (GPa) = 34.06799 44.97510 39.52155
# Shear Modulus (GPa) = 14.39616 23.19182 18.79399
#
# Velocity S-wave (km/s) = 2.53871 3.22224 2.90068
# Velocity P-wave (km/s) = 4.88318 5.82914 5.37700
#
# Compressibility (1/GPa) = 0.02935306
#
# Stress axis : x y z
#
# Youngs Moduli (GPa) = 75.21299 89.52028 46.20626
#
# Poissons Ratio (x) = 0.25591 0.07047
# Poissons Ratio (y) = 0.21501 0.18454
# Poissons Ratio (z) = 0.11471 0.35754
#
# Static dielectric constant tensor:
#      x y z
#    x 1.841350 0.000000 0.015670 
#    y 0.000000 1.829540 0.000000 
#    z 0.015670 0.000000 1.848770 
# 
# From -- ./inp_files/176655.got.cif
#   From: 2010.05.17/outbox.cif.g08.bks.cpg/sg15_89_cif.got.tgz:176655.got - 2010.06.03 18:47:42.
