data_PCOD9258306
_publ_section_title
;
Structure prediction by ZEFSAII (Michael W. Deem and Ramdas Pophale) SiO2 
 PCOD9258306
Probable space group: C 2/C
;
_chemical_formula_sum "Si O2"
_cell_formula_units_Z 48
_cell_length_a 7.755859
_cell_length_b 27.969995
_cell_length_c 16.563754
_cell_angle_alpha 90.000000
_cell_angle_beta 35.906221
_cell_angle_gamma 90.000000
_cell_volume 2107.267590
_symmetry_space_group_name_H-M "C 2/C"
_symmetry_group_IT_number 15
_symmetry_cell_setting 'monoclinic'
loop_
_space_group_symop_operation_xyz
x,y,z
-x,y,1/2-z
-x,-y,-z
x,-y,1/2+z
1/2+x,1/2+y,z
1/2-x,1/2+y,1/2-z
1/2-x,1/2-y,-z
1/2+x,1/2-y,1/2+z
loop_
_atom_site_type_symbol
_atom_site_label
_atom_site_fract_x
_atom_site_fract_y
_atom_site_fract_z
Si Si1 0.649726 0.193916 0.282981
Si Si2 0.103147 0.852465 0.037365
Si Si3 0.688733 0.643551 0.029266
Si Si4 0.224895 0.297332 0.295968
Si Si5 0.324005 0.054262 0.397064
Si Si6 0.146793 0.449020 0.106640
O O1 0.500000 0.190373 0.250000
O O2 0.365189 0.185789 0.445981
O O3 0.795211 0.245733 0.238162
O O4 0.905028 0.153901 0.192218
O O5 0.952960 0.850850 0.006414
O O6 0.836922 0.839838 0.196085
O O7 0.274626 0.902898 0.978573
O O8 0.858238 0.592689 0.958701
O O9 0.926217 0.685249 0.949198
O O10 0.500000 0.291671 0.250000
O O11 0.500000 0.069939 0.250000
O O12 0.993292 0.046865 0.491615
O O13 0.451703 0.003227 0.377482
O O14 0.000000 0.437312 0.250000
#
# Coordination Sequence:
#
# PCOD9258306 Si02
#       6
#     8   8   8   8   8   8
#     4   9  19  33  51  73  97 127 166 210 249 289
#     4  10  18  33  54  74  97 129 166 203 248 298
#     4  10  18  33  54  75  98 128 164 202 248 299
#     4  11  22  34  47  70 102 133 168 207 244 286
#     4   9  16  27  47  77 105 122 149 201 253 291
#     4   9  16  26  45  77 105 122 149 196 250 298
#
# _framework density 22.778313000000001
#
# number of rings (size 3 to 8) (size 9 to 14) (size 15 to 20)
#    0.000    2.333    0.000    6.000    0.000    0.000 
#    0.000    2.500    0.000    1.000    0.000    0.000 
#    0.000    0.000    0.000    0.000    0.000    0.000 
#
# Total GULP energy -133665.865664 kJ/mol
# GULP energy per Si atom -5569.411069 kJ/mol
# Density = 2.272647 g / cm^3
# Si number density = 22.778313 Si / 1000 Ang^3
#
#
#
# Elastic Constant Matrix: (Units=GPa)
#
#
# Indices 1 2 3 4 5 6 
#
# 1 32.1441 12.6353 6.3043 0.0000 -0.2131 0.0000
# 2 12.6353 108.6868 -6.8943 0.0000 -9.9956 0.0000
# 3 6.3043 -6.8943 95.6875 0.0001 -14.2152 0.0005
# 4 0.0000 0.0000 0.0001 27.6872 0.0000 -21.2697
# 5 -0.2131 -9.9956 -14.2152 0.0000 16.2472 -0.0001
# 6 0.0000 0.0000 0.0005 -21.2697 -0.0001 -38.4830
#
#
#
# Elastic Compliance Matrix: (Units=1/GPa)
#
#
# Indices 1 2 3 4 5 6 
#
# 1 0.033534 -0.004597 -0.003328 0.000000 -0.005300 0.000000
# 2 -0.004597 0.010670 0.002342 0.000000 0.008554 0.000000
# 3 -0.003328 0.002342 0.012697 0.000000 0.012506 0.000000
# 4 0.000000 0.000000 0.000000 0.025353 0.000000 -0.014013
# 5 -0.005300 0.008554 0.012506 0.000000 0.077684 0.000000
# 6 0.000000 0.000000 0.000000 -0.014013 0.000000 -0.018241
#
#
# Mechanical properties :
#
#
# Convention : Reuss Voigt Hill
#
# Bulk Modulus (GPa) = 21.86448 28.95654 25.41051
# Shear Modulus (GPa) = 29.74264 16.05514 22.89889
#
# Velocity S-wave (km/s) = 3.61743 2.65777 3.17408
# Velocity P-wave (km/s) = 5.20263 4.70725 4.96113
#
# Compressibility (1/GPa) = 0.04573629
#
# Stress axis : x y z
#
# Youngs Moduli (GPa) = 29.82004 93.71682 78.76111
#
# Poissons Ratio (x) = 0.43082 0.26212
# Poissons Ratio (y) = 0.13708 -0.18449
# Poissons Ratio (z) = 0.09924 -0.21953
#
# Static dielectric constant tensor:
#      x y z
#    x 1.862940 0.000000 0.030940 
#    y 0.000000 2.043910 0.000000 
#    z 0.030940 0.000000 1.817700 
# 
# From -- ./inp_files/234841.got.cif
#   From: 2010.05.17/outbox.cif.g08.bks.cpg/sg15_118_cif.got.tgz:234841.got - 2010.06.03 18:47:42.
