data_PCOD9258289
_publ_section_title
;
Structure prediction by ZEFSAII (Michael W. Deem and Ramdas Pophale) SiO2 
 PCOD9258289
Probable space group: C 2/C
;
_chemical_formula_sum "Si O2"
_cell_formula_units_Z 44
_cell_length_a 30.996210
_cell_length_b 9.376059
_cell_length_c 17.547882
_cell_angle_alpha 90.000000
_cell_angle_beta 19.523248
_cell_angle_gamma 90.000000
_cell_volume 1704.300566
_symmetry_space_group_name_H-M "C 2/C"
_symmetry_group_IT_number 15
_symmetry_cell_setting 'monoclinic'
loop_
_space_group_symop_operation_xyz
x,y,z
-x,y,1/2-z
-x,-y,-z
x,-y,1/2+z
1/2+x,1/2+y,z
1/2-x,1/2+y,1/2-z
1/2-x,1/2-y,-z
1/2+x,1/2-y,1/2+z
loop_
_atom_site_type_symbol
_atom_site_label
_atom_site_fract_x
_atom_site_fract_y
_atom_site_fract_z
Si Si1 0.886151 0.097430 0.886834
Si Si2 0.861813 0.950202 0.253277
Si Si3 0.600542 0.884925 0.233468
Si Si4 0.000000 0.633515 0.750000
Si Si5 0.308923 0.126144 0.591806
Si Si6 0.136781 0.594498 0.836720
O O1 0.891099 0.115395 0.787679
O O2 0.000000 0.029180 0.750000
O O3 0.882032 0.257724 0.921971
O O4 0.750825 0.019189 0.130529
O O5 0.819850 0.877757 0.243237
O O6 0.737675 0.049209 0.480323
O O7 0.000000 0.000000 0.000000
O O8 0.545830 0.795082 0.252811
O O9 0.496834 0.013128 0.420323
O O10 0.615992 0.821070 0.292337
O O11 0.118346 0.526077 0.531975
O O12 0.311728 0.175602 0.674666
#
# Coordination Sequence:
#
# PCOD9258289 Si02
#       6
#     8   8   8   4   8   8
#     4  11  21  34  56  92 114 146 199 243 294 352
#     4  10  20  34  55  87 117 154 196 245 295 349
#     4   8  16  31  54  81 110 152 195 230 291 354
#     4   8  14  28  52  80 106 138 190 238 280 334
#     4  10  18  33  53  82 118 150 187 248 291 343
#     4   9  18  33  54  84 118 153 190 239 301 352
#
# _framework density 25.817042000000001
#
# number of rings (size 3 to 8) (size 9 to 14) (size 15 to 20)
#    0.000    2.545    0.909    1.636    0.000    0.000 
#    3.273    0.000    0.000    1.091   80.364    0.000 
#    0.000    0.000    0.000    0.000    0.000    0.000 
#
# Total GULP energy -122707.617680 kJ/mol
# GULP energy per Si atom -5577.618985 kJ/mol
# Density = 2.575828 g / cm^3
# Si number density = 25.817042 Si / 1000 Ang^3
#
#
#
# Elastic Constant Matrix: (Units=GPa)
#
#
# Indices 1 2 3 4 5 6 
#
# 1 350.4699 25.0668 57.5821 0.0000 -17.2880 0.0000
# 2 25.0668 18.0979 32.9838 0.0000 -12.2605 0.0000
# 3 57.5821 32.9838 134.2974 0.0000 -22.7435 0.0000
# 4 0.0000 0.0000 0.0000 -3.6883 0.0000 39.4369
# 5 -17.2880 -12.2605 -22.7435 0.0000 46.6362 0.0000
# 6 0.0000 0.0000 0.0000 39.4369 0.0000 -49.1175
#
#
#
# Elastic Compliance Matrix: (Units=1/GPa)
#
#
# Indices 1 2 3 4 5 6 
#
# 1 0.003186 -0.003469 -0.000511 0.000000 0.000020 0.000000
# 2 -0.003469 0.115437 -0.023918 0.000000 0.017398 0.000000
# 3 -0.000511 -0.023918 0.013563 0.000000 0.000137 0.000000
# 4 0.000000 0.000000 0.000000 0.035745 0.000000 0.028700
# 5 0.000020 0.017398 0.000137 0.000000 0.026091 0.000000
# 6 0.000000 0.000000 0.000000 0.028700 0.000000 0.002684
#
#
# Mechanical properties :
#
#
# Convention : Reuss Voigt Hill
#
# Bulk Modulus (GPa) = 13.09056 81.57007 47.33032
# Shear Modulus (GPa) = 17.98792 24.58158 21.28475
#
# Velocity S-wave (km/s) = 2.64246 3.08903 2.87443
# Velocity P-wave (km/s) = 3.79363 6.66235 5.42119
#
# Compressibility (1/GPa) = 0.07639092
#
# Stress axis : x y z
#
# Youngs Moduli (GPa) = 313.84115 8.66274 73.73134
#
# Poissons Ratio (x) = 0.03005 0.03767
# Poissons Ratio (y) = 1.08856 1.76351
# Poissons Ratio (z) = 0.16034 0.20720
#
# Static dielectric constant tensor:
#      x y z
#    x 1.986240 0.000000 0.090450 
#    y 0.000000 2.046940 0.000000 
#    z 0.090450 0.000000 2.002190 
# 
# From -- ./inp_files/225097.got.cif
#   From: 2010.05.17/outbox.cif.g08.bks.cpg/sg15_113_cif.got.tgz:225097.got - 2010.06.03 18:47:42.
