data_PCOD9258365
_publ_section_title
;
Structure prediction by ZEFSAII (Michael W. Deem and Ramdas Pophale) SiO2 
 PCOD9258365
Probable space group: C 2/C
;
_chemical_formula_sum "Si O2"
_cell_formula_units_Z 56
_cell_length_a 20.655493
_cell_length_b 18.761230
_cell_length_c 8.790265
_cell_angle_alpha 90.000000
_cell_angle_beta 119.029854
_cell_angle_gamma 90.000000
_cell_volume 2978.465597
_symmetry_space_group_name_H-M "C 2/C"
_symmetry_group_IT_number 15
_symmetry_cell_setting 'monoclinic'
loop_
_space_group_symop_operation_xyz
x,y,z
-x,y,1/2-z
-x,-y,-z
x,-y,1/2+z
1/2+x,1/2+y,z
1/2-x,1/2+y,1/2-z
1/2-x,1/2-y,-z
1/2+x,1/2-y,1/2+z
loop_
_atom_site_type_symbol
_atom_site_label
_atom_site_fract_x
_atom_site_fract_y
_atom_site_fract_z
Si Si1 0.356620 0.843277 0.380027
Si Si2 0.080589 0.901892 0.372471
Si Si3 0.329450 0.899678 0.693776
Si Si4 0.749459 0.448295 0.103627
Si Si5 0.794683 0.795804 0.928284
Si Si6 0.857689 0.983179 0.778298
Si Si7 0.493092 0.920571 0.925399
O O1 0.338867 0.874341 0.529338
O O2 0.301280 0.882594 0.202465
O O3 0.337015 0.759638 0.367469
O O4 0.440911 0.868412 0.445242
O O5 0.143997 0.843942 0.419448
O O6 0.092167 0.968239 0.272641
O O7 0.000000 0.871482 0.250000
O O8 0.095901 0.931858 0.559179
O O9 0.267117 0.850971 0.701730
O O10 0.409659 0.894571 0.862102
O O11 0.300328 0.980623 0.654871
O O12 0.691131 0.464807 0.171374
O O13 0.700617 0.443258 0.896660
O O14 0.750000 0.750000 0.000000
O O15 0.500000 0.925450 0.750000
O O16 0.500000 0.000000 0.000000
#
# Coordination Sequence:
#
# PCOD9258365 Si02
#       7
#     8   8   8   8   8   8   8
#     4  10  20  33  54  86 116 150 195 236 288 341
#     4  11  22  38  60  87 116 148 189 246 294 338
#     4  10  18  33  55  78 112 153 195 236 281 341
#     4  11  17  33  58  83 113 152 196 238 282 339
#     4  10  20  36  56  84 115 152 193 230 290 355
#     4  10  20  34  58  87 111 146 197 239 279 343
#     4  10  20  32  52  84 114 144 188 241 285 329
#
# _framework density 18.801628000000001
#
# number of rings (size 3 to 8) (size 9 to 14) (size 15 to 20)
#    0.000    1.714    5.714    1.286    0.000    2.857 
#    0.000    0.714    0.000    0.000    0.000    2.000 
#    0.000    0.000    0.000    0.000    0.000    0.000 
#
# Total GULP energy -156171.397467 kJ/mol
# GULP energy per Si atom -5577.549910 kJ/mol
# Density = 1.875883 g / cm^3
# Si number density = 18.801628 Si / 1000 Ang^3
#
#
#
# Elastic Constant Matrix: (Units=GPa)
#
#
# Indices 1 2 3 4 5 6 
#
# 1 78.5912 28.6688 36.3293 0.0000 35.9514 0.0000
# 2 28.6688 63.7707 24.3743 0.0000 18.6537 0.0000
# 3 36.3293 24.3743 92.9244 0.0000 21.0515 0.0000
# 4 0.0000 0.0000 0.0000 13.1297 0.0000 -6.4507
# 5 35.9514 18.6537 21.0515 0.0000 36.7345 0.0000
# 6 0.0000 0.0000 0.0000 -6.4507 0.0000 30.6500
#
#
#
# Elastic Compliance Matrix: (Units=1/GPa)
#
#
# Indices 1 2 3 4 5 6 
#
# 1 0.025516 -0.003805 -0.004319 0.000000 -0.020565 0.000000
# 2 -0.003805 0.019805 -0.002612 0.000000 -0.004836 0.000000
# 3 -0.004319 -0.002612 0.013649 0.000000 -0.002269 0.000000
# 4 0.000000 0.000000 0.000000 0.084947 0.000000 0.017878
# 5 -0.020565 -0.004836 -0.002269 0.000000 0.051105 0.000000
# 6 0.000000 0.000000 0.000000 0.017878 0.000000 0.036389
#
#
# Mechanical properties :
#
#
# Convention : Reuss Voigt Hill
#
# Bulk Modulus (GPa) = 26.66733 46.00345 36.33539
# Shear Modulus (GPa) = 18.84091 25.83043 22.33567
#
# Velocity S-wave (km/s) = 3.16901 3.71056 3.45043
# Velocity P-wave (km/s) = 5.25400 6.54817 5.93646
#
# Compressibility (1/GPa) = 0.03749907
#
# Stress axis : x y z
#
# Youngs Moduli (GPa) = 39.19169 50.49343 73.26593
#
# Poissons Ratio (x) = 0.19211 0.31641
# Poissons Ratio (y) = 0.14911 0.19134
# Poissons Ratio (z) = 0.16925 0.13187
#
# Static dielectric constant tensor:
#      x y z
#    x 1.685730 0.000000 0.000150 
#    y 0.000000 1.668170 0.000000 
#    z 0.000150 0.000000 1.641990 
# 
# From -- ./inp_files/56709.got.cif
#   From: 2010.05.17/outbox.cif.g08.bks.cpg/sg15_29_cif.got.tgz:56709.got - 2010.06.03 18:47:42.
