data_PCOD9258110
_publ_section_title
;
Structure prediction by ZEFSAII (Michael W. Deem and Ramdas Pophale) SiO2 
 PCOD9258110
Probable space group: C 2/C
;
_chemical_formula_sum "Si O2"
_cell_formula_units_Z 56
_cell_length_a 25.884251
_cell_length_b 17.849501
_cell_length_c 9.133618
_cell_angle_alpha 90.000000
_cell_angle_beta 50.526857
_cell_angle_gamma 90.000000
_cell_volume 3257.454165
_symmetry_space_group_name_H-M "C 2/C"
_symmetry_group_IT_number 15
_symmetry_cell_setting 'monoclinic'
loop_
_space_group_symop_operation_xyz
x,y,z
-x,y,1/2-z
-x,-y,-z
x,-y,1/2+z
1/2+x,1/2+y,z
1/2-x,1/2+y,1/2-z
1/2-x,1/2-y,-z
1/2+x,1/2-y,1/2+z
loop_
_atom_site_type_symbol
_atom_site_label
_atom_site_fract_x
_atom_site_fract_y
_atom_site_fract_z
Si Si1 0.955581 0.550207 0.189313
Si Si2 0.537468 0.437564 0.029905
Si Si3 0.846158 0.952596 0.181548
Si Si4 0.436516 0.163610 0.966852
Si Si5 0.965412 0.162865 0.463738
Si Si6 0.254081 0.516359 0.590350
Si Si7 0.336489 0.060984 0.000331
O O1 0.893342 0.500570 0.357571
O O2 0.000000 0.571804 0.250000
O O3 0.934829 0.618902 0.122928
O O4 0.000000 0.500000 0.000000
O O5 0.500000 0.437897 0.250000
O O6 0.500000 0.500000 0.000000
O O7 0.612459 0.468916 0.906879
O O8 0.521261 0.358465 0.983535
O O9 0.796272 0.962315 0.407205
O O10 0.805403 0.941290 0.105092
O O11 0.899882 0.887346 0.108077
O O12 0.500000 0.141645 0.750000
O O13 0.444929 0.251053 0.985527
O O14 0.372992 0.136287 0.987240
O O15 0.000000 0.138669 0.250000
O O16 0.210233 0.566400 0.558517
O O17 0.206239 0.471088 0.787007
#
# Coordination Sequence:
#
# PCOD9258110 Si02
#       7
#     8   8   8   8   8   8   8
#     4  12  19  33  59  81 103 135 183 233 286 324
#     4  10  18  32  60  85 111 144 181 229 283 329
#     4  10  18  35  54  84 108 145 186 227 264 327
#     4  11  22  36  56  85 112 145 178 234 294 336
#     4  10  21  36  56  82 119 146 178 229 294 336
#     4  10  21  31  57  80 104 144 197 223 259 320
#     4  11  19  35  53  80 107 138 188 237 266 326
#
# _framework density 17.191338999999999
#
# number of rings (size 3 to 8) (size 9 to 14) (size 15 to 20)
#    0.000    1.429    4.286    4.286    0.000    0.571 
#    0.000    1.429    0.000    0.000    0.000    0.000 
#    0.000    0.000    0.000    0.000    0.000    0.000 
#
# Total GULP energy -156104.118529 kJ/mol
# GULP energy per Si atom -5575.147090 kJ/mol
# Density = 1.715221 g / cm^3
# Si number density = 17.191339 Si / 1000 Ang^3
#
#
#
# Elastic Constant Matrix: (Units=GPa)
#
#
# Indices 1 2 3 4 5 6 
#
# 1 116.6635 29.2736 29.6597 0.0000 9.1022 0.0000
# 2 29.2736 68.1570 25.1855 0.0000 -2.6581 0.0000
# 3 29.6597 25.1855 119.0570 0.0000 7.0637 0.0000
# 4 0.0000 0.0000 0.0000 17.8442 0.0000 0.7016
# 5 9.1022 -2.6581 7.0637 0.0000 32.7009 0.0000
# 6 0.0000 0.0000 0.0000 0.7016 0.0000 19.9099
#
#
#
# Elastic Compliance Matrix: (Units=1/GPa)
#
#
# Indices 1 2 3 4 5 6 
#
# 1 0.010162 -0.003906 -0.001538 0.000000 -0.002814 0.000000
# 2 -0.003906 0.017554 -0.002927 0.000000 0.003146 0.000000
# 3 -0.001538 -0.002927 0.009512 0.000000 -0.001864 0.000000
# 4 0.000000 0.000000 0.000000 0.056118 0.000000 -0.001977
# 5 -0.002814 0.003146 -0.001864 0.000000 0.032022 0.000000
# 6 0.000000 0.000000 0.000000 -0.001977 0.000000 0.050296
#
#
# Mechanical properties :
#
#
# Convention : Reuss Voigt Hill
#
# Bulk Modulus (GPa) = 48.81420 52.45723 50.63572
# Shear Modulus (GPa) = 25.09583 28.74160 26.91872
#
# Velocity S-wave (km/s) = 3.82487 4.09328 3.96135
# Velocity P-wave (km/s) = 6.92549 7.27461 7.10220
#
# Compressibility (1/GPa) = 0.02048584
#
# Stress axis : x y z
#
# Youngs Moduli (GPa) = 98.40152 56.96727 105.12597
#
# Poissons Ratio (x) = 0.22252 0.16173
# Poissons Ratio (y) = 0.38436 0.30770
# Poissons Ratio (z) = 0.15139 0.16674
#
# Static dielectric constant tensor:
#      x y z
#    x 1.628250 0.000000 -0.010010 
#    y 0.000000 1.576560 0.000000 
#    z -0.010010 0.000000 1.575620 
# 
# From -- ./inp_files/62689.got.cif
#   From: 2010.05.17/outbox.cif.g08.bks.cpg/sg15_32_cif.got.tgz:62689.got - 2010.06.03 18:47:42.
