data_PCOD9258580
_publ_section_title
;
Structure prediction by ZEFSAII (Michael W. Deem and Ramdas Pophale) SiO2 
 PCOD9258580
Probable space group: C 2/C
;
_chemical_formula_sum "Si O2"
_cell_formula_units_Z 56
_cell_length_a 8.578986
_cell_length_b 34.092696
_cell_length_c 20.206811
_cell_angle_alpha 90.000000
_cell_angle_beta 30.624520
_cell_angle_gamma 90.000000
_cell_volume 3010.664201
_symmetry_space_group_name_H-M "C 2/C"
_symmetry_group_IT_number 15
_symmetry_cell_setting 'monoclinic'
loop_
_space_group_symop_operation_xyz
x,y,z
-x,y,1/2-z
-x,-y,-z
x,-y,1/2+z
1/2+x,1/2+y,z
1/2-x,1/2+y,1/2-z
1/2-x,1/2-y,-z
1/2+x,1/2-y,1/2+z
loop_
_atom_site_type_symbol
_atom_site_label
_atom_site_fract_x
_atom_site_fract_y
_atom_site_fract_z
Si Si1 0.363733 0.450110 0.870820
Si Si2 0.133855 0.959141 0.129312
Si Si3 0.750908 0.845398 0.283989
Si Si4 0.646864 0.297114 0.862883
Si Si5 0.140251 0.899075 0.372762
Si Si6 0.411582 0.616874 0.458868
Si Si7 0.069571 0.269579 0.148004
O O1 0.500000 0.438273 0.750000
O O2 0.455738 0.495408 0.849675
O O3 0.458297 0.419419 0.892659
O O4 0.996614 0.452751 0.000297
O O5 0.000000 0.947688 0.250000
O O6 0.007492 0.933105 0.116322
O O7 0.878285 0.860644 0.167021
O O8 0.449602 0.871350 0.409818
O O9 0.630863 0.801371 0.318909
O O10 0.000000 0.848876 0.250000
O O11 0.589009 0.343431 0.875361
O O12 0.526212 0.272844 0.843830
O O13 0.000000 0.289594 0.750000
O O14 0.419447 0.280958 0.003349
O O15 0.500000 0.907465 0.250000
O O16 0.010231 0.893373 0.493565
O O17 0.000000 0.273786 0.250000
#
# Coordination Sequence:
#
# PCOD9258580 Si02
#       7
#     8   8   8   8   8   8   8
#     4  10  22  38  56  80 115 153 188 230 282 343
#     4  10  20  38  61  83 109 147 194 238 282 334
#     4  10  18  33  60  86 109 142 188 238 282 328
#     4  10  22  39  56  80 116 150 182 227 284 342
#     4  10  19  33  58  87 112 142 188 243 283 322
#     4  10  21  36  53  81 119 150 184 230 280 342
#     4  10  21  39  60  84 111 143 190 239 280 328
#
# _framework density 18.600548
#
# number of rings (size 3 to 8) (size 9 to 14) (size 15 to 20)
#    0.000    2.000    0.000    5.571    0.000    2.857 
#    0.000    6.429    0.000    0.000    0.000    0.000 
#    0.000    0.000    0.000    0.000    0.000    0.000 
#
# Total GULP energy -156305.265338 kJ/mol
# GULP energy per Si atom -5582.330905 kJ/mol
# Density = 1.855821 g / cm^3
# Si number density = 18.600548 Si / 1000 Ang^3
#
#
#
# Elastic Constant Matrix: (Units=GPa)
#
#
# Indices 1 2 3 4 5 6 
#
# 1 104.0913 55.3912 50.1941 0.0000 5.0532 0.0000
# 2 55.3912 115.1069 29.8649 0.0000 12.6873 0.0000
# 3 50.1941 29.8649 84.8187 -0.0001 7.6171 0.0000
# 4 0.0000 0.0000 -0.0001 22.8172 0.0000 10.8068
# 5 5.0532 12.6873 7.6171 0.0000 26.1675 0.0000
# 6 0.0000 0.0000 0.0000 10.8068 0.0000 5.2683
#
#
#
# Elastic Compliance Matrix: (Units=1/GPa)
#
#
# Indices 1 2 3 4 5 6 
#
# 1 0.016555 -0.006168 -0.007811 -0.000001 0.002067 0.000001
# 2 -0.006168 0.012232 -0.000237 0.000000 -0.004670 0.000000
# 3 -0.007811 -0.000237 0.016789 0.000003 -0.003264 -0.000006
# 4 -0.000001 0.000000 0.000003 1.539980 -0.000002 -3.158945
# 5 0.002067 -0.004670 -0.003264 -0.000002 0.041031 0.000004
# 6 0.000001 0.000000 -0.000006 -3.158945 0.000004 6.669729
#
#
# Mechanical properties :
#
#
# Convention : Reuss Voigt Hill
#
# Bulk Modulus (GPa) = 58.33101 63.87970 61.10536
# Shear Modulus (GPa) = 0.60021 22.08838 11.34429
#
# Velocity S-wave (km/s) = 0.56867 3.44977 2.47227
# Velocity P-wave (km/s) = 5.64439 7.09122 6.40876
#
# Compressibility (1/GPa) = 0.01714354
#
# Stress axis : x y z
#
# Youngs Moduli (GPa) = 60.40323 81.75218 59.56287
#
# Poissons Ratio (x) = 0.50424 0.46525
# Poissons Ratio (y) = 0.37256 0.01414
# Poissons Ratio (z) = 0.47181 0.01941
#
# Static dielectric constant tensor:
#      x y z
#    x 1.601430 0.000000 0.005880 
#    y 0.000000 1.659020 0.000000 
#    z 0.005880 0.000000 1.650270 
# 
# From -- ./inp_files/139453.got.cif
#   From: 2010.05.17/outbox.cif.g08.bks.cpg/sg15_70_cif.got.tgz:139453.got - 2010.06.03 18:47:42.
