data_PCOD9258624
_publ_section_title
;
Structure prediction by ZEFSAII (Michael W. Deem and Ramdas Pophale) SiO2 
 PCOD9258624
Probable space group: C 2/C
;
_chemical_formula_sum "Si O2"
_cell_formula_units_Z 56
_cell_length_a 9.346875
_cell_length_b 21.699873
_cell_length_c 13.048491
_cell_angle_alpha 90.000000
_cell_angle_beta 108.371618
_cell_angle_gamma 90.000000
_cell_volume 2511.683371
_symmetry_space_group_name_H-M "C 2/C"
_symmetry_group_IT_number 15
_symmetry_cell_setting 'monoclinic'
loop_
_space_group_symop_operation_xyz
x,y,z
-x,y,1/2-z
-x,-y,-z
x,-y,1/2+z
1/2+x,1/2+y,z
1/2-x,1/2+y,1/2-z
1/2-x,1/2-y,-z
1/2+x,1/2-y,1/2+z
loop_
_atom_site_type_symbol
_atom_site_label
_atom_site_fract_x
_atom_site_fract_y
_atom_site_fract_z
Si Si1 0.771411 0.895073 0.451138
Si Si2 0.983626 0.550217 0.356507
Si Si3 0.253756 0.979340 0.447588
Si Si4 0.929366 0.690377 0.340011
Si Si5 0.469206 0.177647 0.917888
Si Si6 0.610880 0.299711 0.857040
Si Si7 0.338683 0.379324 0.227236
O O1 0.593630 0.877062 0.428473
O O2 0.854340 0.842989 0.538036
O O3 0.810796 0.894150 0.340428
O O4 0.811368 0.961663 0.507643
O O5 0.145858 0.557938 0.446991
O O6 0.906992 0.616426 0.323821
O O7 0.000000 0.519715 0.250000
O O8 0.876674 0.508731 0.399644
O O9 0.154397 0.936701 0.351991
O O10 0.768386 0.716446 0.337230
O O11 0.965996 0.736840 0.625013
O O12 0.000000 0.711553 0.250000
O O13 0.034123 0.695633 0.463224
O O14 0.307653 0.158007 0.841563
O O15 0.500000 0.330956 0.750000
O O16 0.500000 0.347524 0.250000
#
# Coordination Sequence:
#
# PCOD9258624 Si02
#       7
#     8   8   8   8   8   8   8
#     4  11  23  44  71  99 138 187 231 278 345 426
#     4  10  18  33  62 100 133 179 225 272 326 411
#     4  11  20  39  62  98 142 185 227 266 348 422
#     4  10  20  39  68 101 134 168 229 285 337 398
#     4  11  22  47  72  98 135 185 238 283 346 419
#     4  11  24  44  69 101 133 183 230 287 348 414
#     4  12  27  43  65 103 141 183 230 291 346 407
#
# _framework density 22.295802999999999
#
# number of rings (size 3 to 8) (size 9 to 14) (size 15 to 20)
#    0.000    1.143    4.286    4.714    0.000    2.286 
#    0.000    7.857    0.000    0.000    0.000    0.000 
#    0.000    0.000    0.000    0.000    0.000    0.000 
#
# Total GULP energy -156567.328289 kJ/mol
# GULP energy per Si atom -5591.690296 kJ/mol
# Density = 2.224506 g / cm^3
# Si number density = 22.295803 Si / 1000 Ang^3
#
#
#
# Elastic Constant Matrix: (Units=GPa)
#
#
# Indices 1 2 3 4 5 6 
#
# 1 105.0825 50.7359 86.4181 0.0000 -1.4053 0.0000
# 2 50.7359 97.7690 39.1718 0.0000 7.9897 0.0000
# 3 86.4181 39.1718 197.9960 0.0000 -19.6035 0.0000
# 4 0.0000 0.0000 0.0000 15.7903 0.0000 3.2479
# 5 -1.4053 7.9897 -19.6035 0.0000 40.4605 0.0000
# 6 0.0000 0.0000 0.0000 3.2479 0.0000 17.8210
#
#
#
# Elastic Compliance Matrix: (Units=1/GPa)
#
#
# Indices 1 2 3 4 5 6 
#
# 1 0.018317 -0.006667 -0.006809 0.000000 -0.001346 0.000000
# 2 -0.006667 0.014006 -0.000166 0.000000 -0.003078 0.000000
# 3 -0.006809 -0.000166 0.008440 0.000000 0.003885 0.000000
# 4 0.000000 0.000000 0.000000 0.065797 0.000000 -0.011992
# 5 -0.001346 -0.003078 0.003885 0.000000 0.027159 0.000000
# 6 0.000000 0.000000 0.000000 -0.011992 0.000000 0.058299
#
#
# Mechanical properties :
#
#
# Convention : Reuss Voigt Hill
#
# Bulk Modulus (GPa) = 74.18862 83.72212 78.95537
# Shear Modulus (GPa) = 22.34196 29.78248 26.06222
#
# Velocity S-wave (km/s) = 3.16898 3.65881 3.42267
# Velocity P-wave (km/s) = 6.83644 7.44858 7.14906
#
# Compressibility (1/GPa) = 0.01347916
#
# Stress axis : x y z
#
# Youngs Moduli (GPa) = 54.59422 71.39827 118.48457
#
# Poissons Ratio (x) = 0.47603 0.80675
# Poissons Ratio (y) = 0.36400 0.01962
# Poissons Ratio (z) = 0.37173 0.01183
#
# Static dielectric constant tensor:
#      x y z
#    x 1.806340 0.000000 0.003800 
#    y 0.000000 1.856560 0.000000 
#    z 0.003800 0.000000 1.882450 
# 
# From -- ./inp_files/81410.got.cif
#   From: 2010.05.17/outbox.cif.g08.bks.cpg/sg15_41_cif.got.tgz:81410.got - 2010.06.03 18:47:42.
