data_PCOD9258382
_publ_section_title
;
Structure prediction by ZEFSAII (Michael W. Deem and Ramdas Pophale) SiO2 
 PCOD9258382
Probable space group: C 2/C
;
_chemical_formula_sum "Si O2"
_cell_formula_units_Z 48
_cell_length_a 22.621550
_cell_length_b 8.008292
_cell_length_c 16.609897
_cell_angle_alpha 90.000000
_cell_angle_beta 135.745969
_cell_angle_gamma 90.000000
_cell_volume 2099.837023
_symmetry_space_group_name_H-M "C 2/C"
_symmetry_group_IT_number 15
_symmetry_cell_setting 'monoclinic'
loop_
_space_group_symop_operation_xyz
x,y,z
-x,y,1/2-z
-x,-y,-z
x,-y,1/2+z
1/2+x,1/2+y,z
1/2-x,1/2+y,1/2-z
1/2-x,1/2-y,-z
1/2+x,1/2-y,1/2+z
loop_
_atom_site_type_symbol
_atom_site_label
_atom_site_fract_x
_atom_site_fract_y
_atom_site_fract_z
Si Si1 0.809273 0.688385 0.290797
Si Si2 0.814700 0.317581 0.456543
Si Si3 0.737962 0.660482 0.386076
Si Si4 0.346672 0.466352 0.556433
Si Si5 0.534871 0.373757 0.967519
Si Si6 0.418941 0.885418 0.404418
O O1 0.770485 0.778844 0.176998
O O2 0.737244 0.661375 0.288648
O O3 0.884509 0.785260 0.409585
O O4 0.845472 0.507770 0.302999
O O5 0.805602 0.510258 0.474253
O O6 0.887930 0.311814 0.459713
O O7 0.826250 0.163441 0.528376
O O8 0.656340 0.598761 0.355361
O O9 0.775004 0.839791 0.449352
O O10 0.428560 0.439102 0.580752
O O11 0.500000 0.500000 0.000000
O O12 0.457414 0.246769 0.881345
O O13 0.500000 0.000000 0.500000
#
# Coordination Sequence:
#
# PCOD9258382 Si02
#       6
#     8   8   8   8   8   8
#     4   9  21  34  56  89 109 143 191 250 286 320
#     4  11  20  35  62  87 113 148 196 247 295 330
#     4   9  21  35  53  88 119 139 193 245 281 349
#     4  10  20  36  57  86 111 157 189 231 294 347
#     4  10  18  33  55  83 109 152 192 228 279 358
#     4   9  19  34  52  85 116 146 187 240 279 345
#
# _framework density 22.858916000000001
#
# number of rings (size 3 to 8) (size 9 to 14) (size 15 to 20)
#    0.000    2.333    1.667    1.500    9.333    0.000 
#    0.000    0.000    0.000    4.000   13.000    0.000 
#    0.000    0.000    0.000    0.000    0.000    0.000 
#
# Total GULP energy -133886.716560 kJ/mol
# GULP energy per Si atom -5578.613190 kJ/mol
# Density = 2.280689 g / cm^3
# Si number density = 22.858916 Si / 1000 Ang^3
#
#
#
# Elastic Constant Matrix: (Units=GPa)
#
#
# Indices 1 2 3 4 5 6 
#
# 1 154.0412 34.7652 21.1989 0.0000 9.9316 0.0000
# 2 34.7652 109.2923 17.3187 0.0000 0.4765 0.0000
# 3 21.1989 17.3187 48.5212 0.0000 -2.4619 0.0000
# 4 0.0000 0.0000 0.0000 29.4427 0.0000 5.7336
# 5 9.9316 0.4765 -2.4619 0.0000 15.2302 0.0000
# 6 0.0000 0.0000 0.0000 5.7336 0.0000 53.0165
#
#
#
# Elastic Compliance Matrix: (Units=1/GPa)
#
#
# Indices 1 2 3 4 5 6 
#
# 1 0.007687 -0.001956 -0.002936 0.000000 -0.005426 0.000000
# 2 -0.001956 0.010208 -0.002763 0.000000 0.000510 0.000000
# 3 -0.002936 -0.002763 0.023170 0.000000 0.005746 0.000000
# 4 0.000000 0.000000 0.000000 0.034695 0.000000 -0.003752
# 5 -0.005426 0.000510 0.005746 0.000000 0.070110 0.000000
# 6 0.000000 0.000000 0.000000 -0.003752 0.000000 0.019268
#
#
# Mechanical properties :
#
#
# Convention : Reuss Voigt Hill
#
# Bulk Modulus (GPa) = 38.82727 50.93559 44.88143
# Shear Modulus (GPa) = 26.45057 35.44267 30.94662
#
# Velocity S-wave (km/s) = 3.40534 3.94191 3.68341
# Velocity P-wave (km/s) = 5.69950 6.56118 6.14546
#
# Compressibility (1/GPa) = 0.02575509
#
# Stress axis : x y z
#
# Youngs Moduli (GPa) = 130.08764 97.96547 43.15970
#
# Poissons Ratio (x) = 0.19166 0.12670
# Poissons Ratio (y) = 0.25450 0.11924
# Poissons Ratio (z) = 0.38187 0.27066
#
# Static dielectric constant tensor:
#      x y z
#    x 1.901940 0.000000 0.024110 
#    y 0.000000 1.939120 0.000000 
#    z 0.024110 0.000000 1.817080 
# 
# From -- ./inp_files/213562.got.cif
#   From: 2010.05.17/outbox.cif.g08.bks.cpg/sg15_107_cif.got.tgz:213562.got - 2010.06.03 18:47:42.
