data_PCOD9258801
_publ_section_title
;
Structure prediction by ZEFSAII (Michael W. Deem and Ramdas Pophale) SiO2 
 PCOD9258801
Probable space group: C 2/C
;
_chemical_formula_sum "Si O2"
_cell_formula_units_Z 56
_cell_length_a 25.601224
_cell_length_b 18.378369
_cell_length_c 22.469920
_cell_angle_alpha 90.000000
_cell_angle_beta 163.486594
_cell_angle_gamma 90.000000
_cell_volume 3005.065406
_symmetry_space_group_name_H-M "C 2/C"
_symmetry_group_IT_number 15
_symmetry_cell_setting 'monoclinic'
loop_
_space_group_symop_operation_xyz
x,y,z
-x,y,1/2-z
-x,-y,-z
x,-y,1/2+z
1/2+x,1/2+y,z
1/2-x,1/2+y,1/2-z
1/2-x,1/2-y,-z
1/2+x,1/2-y,1/2+z
loop_
_atom_site_type_symbol
_atom_site_label
_atom_site_fract_x
_atom_site_fract_y
_atom_site_fract_z
Si Si1 0.205451 0.823699 0.487347
Si Si2 0.522201 0.574147 0.487956
Si Si3 0.120570 0.277464 0.707641
Si Si4 0.234947 0.366755 0.146353
Si Si5 0.693659 0.975660 0.282728
Si Si6 0.155215 0.389696 0.646659
Si Si7 0.970608 0.542941 0.280811
O O1 0.250000 0.750000 0.500000
O O2 0.227786 0.806195 0.581005
O O3 0.352854 0.885646 0.634536
O O4 0.000000 0.847754 0.250000
O O5 0.500000 0.500000 0.500000
O O6 0.690305 0.608195 0.708740
O O7 0.607312 0.558253 0.516253
O O8 0.326211 0.611157 0.287092
O O9 0.113041 0.190789 0.708127
O O10 0.145030 0.311907 0.668881
O O11 0.936367 0.314659 0.529507
O O12 0.157583 0.429638 0.018918
O O13 0.682725 0.048783 0.229075
O O14 0.648245 0.000819 0.299702
O O15 0.530383 0.919539 0.086752
O O16 0.000000 0.503588 0.250000
#
# Coordination Sequence:
#
# PCOD9258801 Si02
#       7
#     8   8   8   8   8   8   8
#     4  11  21  35  46  67 104 147 189 221 250 299
#     4  10  20  32  57  76 100 139 177 221 282 319
#     4  11  20  32  52  74 109 144 182 228 266 315
#     4  11  20  34  49  78 108 141 181 220 267 322
#     4  10  18  38  53  74 105 132 182 227 270 321
#     4  10  18  34  55  78  99 136 177 227 279 315
#     4  11  22  36  52  72 104 146 186 224 265 307
#
# _framework density 18.635202
#
# number of rings (size 3 to 8) (size 9 to 14) (size 15 to 20)
#    0.000    1.429    4.286    5.571    0.000    1.143 
#    2.571    0.000    0.000    0.000    0.000    0.000 
#    0.000    1.143    0.286    0.000    0.000    0.000 
#
# Total GULP energy -156021.201850 kJ/mol
# GULP energy per Si atom -5572.185780 kJ/mol
# Density = 1.859279 g / cm^3
# Si number density = 18.635202 Si / 1000 Ang^3
#
#
#
# Elastic Constant Matrix: (Units=GPa)
#
#
# Indices 1 2 3 4 5 6 
#
# 1 140.2834 23.7303 34.0099 -0.0079 23.7565 -0.0048
# 2 23.7303 19.5464 16.7211 -0.0074 -2.1185 -0.0060
# 3 34.0099 16.7211 57.6213 -0.0182 15.7485 -0.0103
# 4 -0.0079 -0.0074 -0.0182 16.8883 -0.0053 -0.2861
# 5 23.7565 -2.1185 15.7485 -0.0053 19.0607 -0.0026
# 6 -0.0048 -0.0060 -0.0103 -0.2861 -0.0026 31.1307
#
#
#
# Elastic Compliance Matrix: (Units=1/GPa)
#
#
# Indices 1 2 3 4 5 6 
#
# 1 0.014225 -0.024901 0.005725 -0.000006 -0.025227 -0.000003
# 2 -0.024901 0.129336 -0.045526 0.000023 0.083027 0.000013
# 3 0.005725 -0.045526 0.039422 0.000011 -0.044767 0.000001
# 4 -0.000006 0.000023 0.000011 0.059222 0.000018 0.000544
# 5 -0.025227 0.083027 -0.044767 0.000018 0.130123 0.000008
# 6 -0.000003 0.000013 0.000001 0.000544 0.000008 0.032128
#
#
# Mechanical properties :
#
#
# Convention : Reuss Voigt Hill
#
# Bulk Modulus (GPa) = 18.66444 40.70818 29.68631
# Shear Modulus (GPa) = 9.06255 22.94860 16.00558
#
# Velocity S-wave (km/s) = 2.20764 3.51303 2.93386
# Velocity P-wave (km/s) = 4.06641 6.19253 5.23847
#
# Compressibility (1/GPa) = 0.05357781
#
# Stress axis : x y z
#
# Youngs Moduli (GPa) = 70.29905 7.73178 25.36632
#
# Poissons Ratio (x) = 0.19253 -0.14522
# Poissons Ratio (y) = 1.75055 1.15484
# Poissons Ratio (z) = -0.40246 0.35200
#
# Static dielectric constant tensor:
#      x y z
#    x 1.747890 0.000010 0.061720 
#    y 0.000010 1.699940 -0.000020 
#    z 0.061720 -0.000020 1.684970 
# 
# From -- ./inp_files/66827.got.cif
#   From: 2010.05.17/outbox.cif.g08.bks.cpg/sg15_34_cif.got.tgz:66827.got - 2010.06.03 18:47:42.
