data_PCOD9258106
_publ_section_title
;
Structure prediction by ZEFSAII (Michael W. Deem and Ramdas Pophale) SiO2 
 PCOD9258106
Probable space group: C 2/C
;
_chemical_formula_sum "Si O2"
_cell_formula_units_Z 36
_cell_length_a 12.939146
_cell_length_b 11.624046
_cell_length_c 18.048212
_cell_angle_alpha 90.000000
_cell_angle_beta 34.739155
_cell_angle_gamma 90.000000
_cell_volume 1546.859917
_symmetry_space_group_name_H-M "C 2/C"
_symmetry_group_IT_number 15
_symmetry_cell_setting 'monoclinic'
loop_
_space_group_symop_operation_xyz
x,y,z
-x,y,1/2-z
-x,-y,-z
x,-y,1/2+z
1/2+x,1/2+y,z
1/2-x,1/2+y,1/2-z
1/2-x,1/2-y,-z
1/2+x,1/2-y,1/2+z
loop_
_atom_site_type_symbol
_atom_site_label
_atom_site_fract_x
_atom_site_fract_y
_atom_site_fract_z
Si Si1 0.000000 0.306958 0.750000
Si Si2 0.185576 0.085548 0.676698
Si Si3 0.397996 0.994298 0.922314
Si Si4 0.035653 0.745570 0.642652
Si Si5 0.503765 0.474286 0.911398
O O1 0.167182 0.218932 0.663911
O O2 0.011579 0.387326 0.671855
O O3 0.349597 0.030286 0.535904
O O4 0.000000 0.033786 0.750000
O O5 0.144943 0.056679 0.785187
O O6 0.506123 0.112223 0.847820
O O7 0.201806 0.004170 0.996698
O O8 0.250000 0.750000 0.500000
O O9 0.950017 0.843473 0.641069
O O10 0.000000 0.769483 0.750000
O O11 0.500000 0.500000 0.000000
#
# Coordination Sequence:
#
# PCOD9258106 Si02
#       5
#     4   8   8   8   8
#     4  10  18  32  60  82 102 138 204 236 276 324
#     4   8  18  32  56  77 107 143 188 228 277 342
#     4  10  18  35  59  84 105 145 197 239 273 342
#     4  10  19  34  60  86 111 146 200 239 277 344
#     4  10  20  35  54  82 116 151 180 230 302 343
#
# _framework density 23.272956000000001
#
# number of rings (size 3 to 8) (size 9 to 14) (size 15 to 20)
#    0.667    1.778    1.111    4.000    0.000    0.000 
#    0.000    6.667    0.000    2.667    0.000    0.000 
#    0.000    0.000    0.000    0.000    0.000    0.000 
#
# Total GULP energy -100466.086774 kJ/mol
# GULP energy per Si atom -5581.449265 kJ/mol
# Density = 2.321999 g / cm^3
# Si number density = 23.272956 Si / 1000 Ang^3
#
#
#
# Elastic Constant Matrix: (Units=GPa)
#
#
# Indices 1 2 3 4 5 6 
#
# 1 91.2668 27.5669 40.2467 -0.0002 10.7673 0.0001
# 2 27.5669 167.9226 51.7921 -0.0001 25.5385 0.0001
# 3 40.2467 51.7921 161.8990 -0.0004 56.6583 0.0003
# 4 -0.0002 -0.0001 -0.0004 48.5126 0.0003 9.2515
# 5 10.7673 25.5385 56.6583 0.0003 29.2672 -0.0002
# 6 0.0001 0.0001 0.0003 9.2515 -0.0002 -18.2360
#
#
#
# Elastic Compliance Matrix: (Units=1/GPa)
#
#
# Indices 1 2 3 4 5 6 
#
# 1 0.012814 -0.001523 -0.004693 0.000000 0.005700 0.000000
# 2 -0.001523 0.007052 0.000248 0.000000 -0.006074 0.000000
# 3 -0.004693 0.000248 0.020884 0.000000 -0.038920 0.000001
# 4 0.000000 0.000000 0.000000 0.018795 -0.000001 0.009535
# 5 0.005700 -0.006074 -0.038920 -0.000001 0.112717 -0.000002
# 6 0.000000 0.000000 0.000001 0.009535 -0.000002 -0.049999
#
#
# Mechanical properties :
#
#
# Convention : Reuss Voigt Hill
#
# Bulk Modulus (GPa) = 34.70373 73.36666 54.03519
# Shear Modulus (GPa) = 34.76971 32.00761 33.38866
#
# Velocity S-wave (km/s) = 3.86942 3.71255 3.79179
# Velocity P-wave (km/s) = 5.90823 7.06896 6.51450
#
# Compressibility (1/GPa) = 0.02881535
#
# Stress axis : x y z
#
# Youngs Moduli (GPa) = 78.04003 141.79632 47.88257
#
# Poissons Ratio (x) = 0.21596 0.22471
# Poissons Ratio (y) = 0.11886 -0.01189
# Poissons Ratio (z) = 0.36623 -0.03520
#
# Static dielectric constant tensor:
#      x y z
#    x 1.934650 0.000000 -0.004600 
#    y 0.000000 1.931620 0.000000 
#    z -0.004600 0.000000 1.854820 
# 
# From -- ./inp_files/122206.got.cif
#   From: 2010.05.17/outbox.cif.g08.bks.cpg/sg15_62_cif.got.tgz:122206.got - 2010.06.03 18:47:42.
