data_PCOD9258614
_publ_section_title
;
Structure prediction by ZEFSAII (Michael W. Deem and Ramdas Pophale) SiO2 
 PCOD9258614
Probable space group: C 2/C
;
_chemical_formula_sum "Si O2"
_cell_formula_units_Z 64
_cell_length_a 11.638655
_cell_length_b 19.556741
_cell_length_c 14.977910
_cell_angle_alpha 90.000000
_cell_angle_beta 94.823454
_cell_angle_gamma 90.000000
_cell_volume 3397.110874
_symmetry_space_group_name_H-M "C 2/C"
_symmetry_group_IT_number 15
_symmetry_cell_setting 'monoclinic'
loop_
_space_group_symop_operation_xyz
x,y,z
-x,y,1/2-z
-x,-y,-z
x,-y,1/2+z
1/2+x,1/2+y,z
1/2-x,1/2+y,1/2-z
1/2-x,1/2-y,-z
1/2+x,1/2-y,1/2+z
loop_
_atom_site_type_symbol
_atom_site_label
_atom_site_fract_x
_atom_site_fract_y
_atom_site_fract_z
Si Si1 0.000859 0.661661 0.154277
Si Si2 0.883208 0.436097 0.055928
Si Si3 0.431919 0.770680 0.332611
Si Si4 0.217484 0.577077 0.414702
Si Si5 0.182929 0.449327 0.653064
Si Si6 0.346396 0.910621 0.396070
Si Si7 0.127480 0.122837 0.223064
Si Si8 0.126864 0.713473 0.980884
O O1 0.072432 0.592223 0.177965
O O2 0.000000 0.699754 0.250000
O O3 0.874125 0.636107 0.118421
O O4 0.066778 0.696107 0.073588
O O5 0.838987 0.502192 0.105687
O O6 0.850119 0.357661 0.071633
O O7 0.022688 0.432288 0.065174
O O8 0.830899 0.447045 0.954246
O O9 0.500000 0.795899 0.250000
O O10 0.356906 0.833873 0.362121
O O11 0.364014 0.703503 0.297420
O O12 0.527742 0.750963 0.414069
O O13 0.232262 0.586672 0.521327
O O14 0.331285 0.585423 0.364013
O O15 0.188659 0.529750 0.674748
O O16 0.287735 0.405426 0.696101
O O17 0.000000 0.110411 0.250000
O O18 0.250000 0.750000 0.000000
#
# Coordination Sequence:
#
# PCOD9258614 Si02
#       8
#     8   8   8   8   8   8   8   8
#     4  11  19  32  64 100 116 148 213 267 314 355
#     4   9  18  33  62  95 119 138 202 264 317 359
#     4  10  23  38  56  89 130 164 209 248 307 379
#     4  11  18  36  61  92 119 152 204 269 306 356
#     4  10  18  33  61  88 123 147 193 263 316 360
#     4  10  18  37  60  99 118 145 199 275 324 351
#     4  11  26  38  55  83 128 174 213 234 306 391
#     4  10  22  38  63  89 133 166 199 252 323 372
#
# _framework density 18.839537
#
# number of rings (size 3 to 8) (size 9 to 14) (size 15 to 20)
#    0.000    1.750    6.250    0.750    7.000    3.000 
#    0.000    2.500    0.000    0.750    0.000    0.000 
#    0.000    0.000    0.000    0.000    0.000    0.000 
#
# Total GULP energy -178185.793620 kJ/mol
# GULP energy per Si atom -5568.306051 kJ/mol
# Density = 1.879666 g / cm^3
# Si number density = 18.839537 Si / 1000 Ang^3
#
#
#
# Elastic Constant Matrix: (Units=GPa)
#
#
# Indices 1 2 3 4 5 6 
#
# 1 74.9030 55.7034 40.0276 0.0000 -10.5342 0.0000
# 2 55.7034 88.7485 29.6563 0.0000 6.5145 0.0000
# 3 40.0276 29.6563 92.2198 0.0000 -11.5516 0.0000
# 4 0.0000 0.0000 0.0000 23.0863 0.0000 5.8469
# 5 -10.5342 6.5145 -11.5516 0.0000 35.0752 0.0000
# 6 0.0000 0.0000 0.0000 5.8469 0.0000 26.6544
#
#
#
# Elastic Compliance Matrix: (Units=1/GPa)
#
#
# Indices 1 2 3 4 5 6 
#
# 1 0.032691 -0.019121 -0.006640 0.000000 0.011183 0.000000
# 2 -0.019121 0.024324 -0.000843 0.000000 -0.010538 0.000000
# 3 -0.006640 -0.000843 0.014359 0.000000 0.002891 0.000000
# 4 0.000000 0.000000 0.000000 0.045864 0.000000 -0.010061
# 5 0.011183 -0.010538 0.002891 0.000000 0.034778 0.000000
# 6 0.000000 0.000000 0.000000 -0.010061 0.000000 0.039724
#
#
# Mechanical properties :
#
#
# Convention : Reuss Voigt Hill
#
# Bulk Modulus (GPa) = 55.04420 56.29399 55.66909
# Shear Modulus (GPa) = 19.92003 25.66211 22.79107
#
# Velocity S-wave (km/s) = 3.25522 3.69472 3.48191
# Velocity P-wave (km/s) = 6.58858 6.93880 6.76596
#
# Compressibility (1/GPa) = 0.01816722
#
# Stress axis : x y z
#
# Youngs Moduli (GPa) = 30.58915 41.11107 69.64339
#
# Poissons Ratio (x) = 0.78608 0.46242
# Poissons Ratio (y) = 0.58489 0.05870
# Poissons Ratio (z) = 0.20310 0.03465
#
# Static dielectric constant tensor:
#      x y z
#    x 1.650340 0.000000 0.007730 
#    y 0.000000 1.723850 0.000000 
#    z 0.007730 0.000000 1.769580 
# 
# From -- ./inp_files/146079.got.cif
#   From: 2010.05.17/outbox.cif.g08.bks.cpg/sg15_74_cif.got.tgz:146079.got - 2010.06.03 18:47:42.
