data_PCOD9258281
_publ_section_title
;
Structure prediction by ZEFSAII (Michael W. Deem and Ramdas Pophale) SiO2 
 PCOD9258281
Probable space group: C 2/C
;
_chemical_formula_sum "Si O2"
_cell_formula_units_Z 60
_cell_length_a 14.011618
_cell_length_b 27.025532
_cell_length_c 9.367466
_cell_angle_alpha 90.000000
_cell_angle_beta 75.668205
_cell_angle_gamma 90.000000
_cell_volume 3436.797879
_symmetry_space_group_name_H-M "C 2/C"
_symmetry_group_IT_number 15
_symmetry_cell_setting 'monoclinic'
loop_
_space_group_symop_operation_xyz
x,y,z
-x,y,1/2-z
-x,-y,-z
x,-y,1/2+z
1/2+x,1/2+y,z
1/2-x,1/2+y,1/2-z
1/2-x,1/2-y,-z
1/2+x,1/2-y,1/2+z
loop_
_atom_site_type_symbol
_atom_site_label
_atom_site_fract_x
_atom_site_fract_y
_atom_site_fract_z
Si Si1 0.246755 0.546740 0.718716
Si Si2 0.900871 0.037001 0.193072
Si Si3 0.543626 0.384185 0.019673
Si Si4 0.306143 0.301252 0.989938
Si Si5 0.500000 0.675527 0.250000
Si Si6 0.728699 0.093777 0.417335
Si Si7 0.931155 0.473203 0.640556
Si Si8 0.654389 0.639687 0.748801
O O1 0.344776 0.514606 0.704689
O O2 0.235112 0.562329 0.559841
O O3 0.155697 0.512554 0.794965
O O4 0.259315 0.599159 0.793214
O O5 0.819970 0.073928 0.291215
O O6 0.000000 0.035386 0.250000
O O7 0.923171 0.060258 0.029277
O O8 0.436056 0.384836 0.129416
O O9 0.612272 0.354466 0.105246
O O10 0.536979 0.357383 0.869514
O O11 0.407523 0.297420 0.860088
O O12 0.247234 0.348793 0.947517
O O13 0.250000 0.250000 0.000000
O O14 0.321292 0.315418 0.152794
O O15 0.625852 0.076628 0.386176
O O16 0.000000 0.463613 0.750000
O O17 0.000000 0.500000 0.500000
#
# Coordination Sequence:
#
# PCOD9258281 Si02
#       8
#     8   8   8   8   4   8   8   8
#     4  10  22  33  51  81 117 150 199 229 281 346
#     4  11  20  29  51  82 120 156 183 220 277 349
#     4  10  18  33  53  80 118 157 175 220 287 350
#     4  10  20  40  64  84 113 149 196 246 300 354
#     4  10  18  38  60  82 116 156 180 232 308 350
#     4  10  21  37  57  86 109 153 199 234 293 358
#     4  11  22  39  58  77 111 161 194 244 293 340
#     4   9  21  34  53  83 116 148 186 235 283 347
#
# _framework density 17.458110999999999
#
# number of rings (size 3 to 8) (size 9 to 14) (size 15 to 20)
#    0.000    1.867    3.333    1.600    5.600    1.067 
#    0.000    3.333    5.867    0.000    0.000    0.000 
#    0.000    0.000    0.000    0.000    0.000    0.000 
#
# Total GULP energy -167173.123255 kJ/mol
# GULP energy per Si atom -5572.437442 kJ/mol
# Density = 1.741838 g / cm^3
# Si number density = 17.458111 Si / 1000 Ang^3
#
#
#
# Elastic Constant Matrix: (Units=GPa)
#
#
# Indices 1 2 3 4 5 6 
#
# 1 115.3581 53.3920 45.1063 0.0000 13.9748 0.0000
# 2 53.3920 99.8272 39.6657 0.0000 1.3427 0.0000
# 3 45.1063 39.6657 87.9977 0.0000 19.4800 0.0000
# 4 0.0000 0.0000 0.0000 11.1624 0.0000 -2.5694
# 5 13.9748 1.3427 19.4800 0.0000 32.5904 0.0000
# 6 0.0000 0.0000 0.0000 -2.5694 0.0000 23.9871
#
#
#
# Elastic Compliance Matrix: (Units=1/GPa)
#
#
# Indices 1 2 3 4 5 6 
#
# 1 0.012965 -0.005529 -0.003427 0.000000 -0.003283 0.000000
# 2 -0.005529 0.014859 -0.004902 0.000000 0.004688 0.000000
# 3 -0.003427 -0.004902 0.017241 0.000000 -0.008634 0.000000
# 4 0.000000 0.000000 0.000000 0.091851 0.000000 0.009839
# 5 -0.003283 0.004688 -0.008634 0.000000 0.037060 0.000000
# 6 0.000000 0.000000 0.000000 0.009839 0.000000 0.042743
#
#
# Mechanical properties :
#
#
# Convention : Reuss Voigt Hill
#
# Bulk Modulus (GPa) = 57.63355 64.39013 61.01184
# Shear Modulus (GPa) = 19.98264 24.54925 22.26594
#
# Velocity S-wave (km/s) = 3.38687 3.75397 3.57514
# Velocity P-wave (km/s) = 6.95548 7.46676 7.21565
#
# Compressibility (1/GPa) = 0.01735100
#
# Stress axis : x y z
#
# Youngs Moduli (GPa) = 77.12962 67.29993 58.00007
#
# Poissons Ratio (x) = 0.37207 0.19876
# Poissons Ratio (y) = 0.42641 0.28430
# Poissons Ratio (z) = 0.26431 0.32989
#
# Static dielectric constant tensor:
#      x y z
#    x 1.558140 0.000000 0.037940 
#    y 0.000000 1.590770 0.000000 
#    z 0.037940 0.000000 1.635090 
# 
# From -- ./inp_files/42179.got.cif
#   From: 2010.05.17/outbox.cif.g08.bks.cpg/sg15_22_cif.got.tgz:42179.got - 2010.06.03 18:47:42.
