data_PCOD9258526
_publ_section_title
;
Structure prediction by ZEFSAII (Michael W. Deem and Ramdas Pophale) SiO2 
 PCOD9258526
Probable space group: C 2/C
;
_chemical_formula_sum "Si O2"
_cell_formula_units_Z 60
_cell_length_a 14.184476
_cell_length_b 11.050251
_cell_length_c 18.760641
_cell_angle_alpha 90.000000
_cell_angle_beta 115.119981
_cell_angle_gamma 90.000000
_cell_volume 2662.463025
_symmetry_space_group_name_H-M "C 2/C"
_symmetry_group_IT_number 15
_symmetry_cell_setting 'monoclinic'
loop_
_space_group_symop_operation_xyz
x,y,z
-x,y,1/2-z
-x,-y,-z
x,-y,1/2+z
1/2+x,1/2+y,z
1/2-x,1/2+y,1/2-z
1/2-x,1/2-y,-z
1/2+x,1/2-y,1/2+z
loop_
_atom_site_type_symbol
_atom_site_label
_atom_site_fract_x
_atom_site_fract_y
_atom_site_fract_z
Si Si1 0.175211 0.395064 0.652394
Si Si2 0.677304 0.625201 0.977132
Si Si3 0.500000 0.891479 0.250000
Si Si4 0.502893 0.786675 0.978885
Si Si5 0.609934 0.171590 0.650612
Si Si6 0.381654 0.068980 0.103808
Si Si7 0.335673 0.241946 0.210385
Si Si8 0.614842 0.501276 0.806045
O O1 0.141378 0.534849 0.639206
O O2 0.141184 0.347253 0.718337
O O3 0.298188 0.402854 0.682942
O O4 0.116190 0.307174 0.579493
O O5 0.568651 0.669132 0.976065
O O6 0.646633 0.556641 0.894061
O O7 0.750000 0.750000 0.000000
O O8 0.760601 0.542903 0.046769
O O9 0.421441 0.823039 0.277424
O O10 0.435196 0.969774 0.170985
O O11 0.559283 0.895270 0.950574
O O12 0.518403 0.795501 0.067713
O O13 0.710963 0.250348 0.663580
O O14 0.385385 0.188454 0.155280
O O15 0.372832 0.377173 0.238177
O O16 0.500000 0.457266 0.750000
#
# Coordination Sequence:
#
# PCOD9258526 Si02
#       8
#     8   8   4   8   8   8   8   8
#     4  11  22  35  58  87 124 163 203 257 310 371
#     4  10  18  33  58  92 124 156 201 263 309 359
#     4  12  24  34  58  90 130 168 204 256 308 370
#     4  11  19  34  58  93 125 154 205 261 312 353
#     4  11  23  36  56  93 125 159 206 254 306 371
#     4  11  18  34  57  90 127 157 198 256 315 348
#     4  11  20  37  59  86 123 160 201 256 303 365
#     4  11  23  37  59  91 123 162 210 258 316 364
#
# _framework density 22.535523000000001
#
# number of rings (size 3 to 8) (size 9 to 14) (size 15 to 20)
#    0.000    1.067    6.667    3.600    2.800    0.000 
#    1.200    0.000    0.000    3.200    0.000    0.000 
#    0.000    0.000    0.000    0.000    0.000    0.000 
#
# Total GULP energy -167408.705416 kJ/mol
# GULP energy per Si atom -5580.290181 kJ/mol
# Density = 2.248423 g / cm^3
# Si number density = 22.535523 Si / 1000 Ang^3
#
#
#
# Elastic Constant Matrix: (Units=GPa)
#
#
# Indices 1 2 3 4 5 6 
#
# 1 117.6069 20.2937 31.2896 0.0000 17.9513 0.0000
# 2 20.2937 34.6966 18.4258 0.0000 6.6222 0.0000
# 3 31.2896 18.4258 98.1458 0.0000 2.7476 0.0000
# 4 0.0000 0.0000 0.0000 -4.2836 0.0000 -0.9267
# 5 17.9513 6.6222 2.7476 0.0000 40.4126 0.0000
# 6 0.0000 0.0000 0.0000 -0.9267 0.0000 28.0032
#
#
#
# Elastic Compliance Matrix: (Units=1/GPa)
#
#
# Indices 1 2 3 4 5 6 
#
# 1 0.010440 -0.004076 -0.002457 0.000000 -0.003803 0.000000
# 2 -0.004076 0.034581 -0.005094 0.000000 -0.003510 0.000000
# 3 -0.002457 -0.005094 0.011897 0.000000 0.001117 0.000000
# 4 0.000000 0.000000 0.000000 -0.231791 0.000000 -0.007670
# 5 -0.003803 -0.003510 0.001117 0.000000 0.026933 0.000000
# 6 0.000000 0.000000 0.000000 -0.007670 0.000000 0.035456
#
#
# Mechanical properties :
#
#
# Convention : Reuss Voigt Hill
#
# Bulk Modulus (GPa) = 29.70550 43.38528 36.54539
# Shear Modulus (GPa) = -64.09583 24.85581 -19.62001
#
# Velocity S-wave (km/s) = -5.33890 3.32469 -2.95384
# Velocity P-wave (km/s) = 4.97945 5.83368 2.14906
#
# Compressibility (1/GPa) = 0.03366380
#
# Stress axis : x y z
#
# Youngs Moduli (GPa) = 95.78278 28.91802 84.05268
#
# Poissons Ratio (x) = 0.11787 0.20650
# Poissons Ratio (y) = 0.39041 0.42820
# Poissons Ratio (z) = 0.23532 0.14732
#
# Static dielectric constant tensor:
#      x y z
#    x 1.904770 0.000000 0.045910 
#    y 0.000000 1.842590 0.000000 
#    z 0.045910 0.000000 1.883770 
# 
# From -- ./inp_files/204518.got.cif
#   From: 2010.05.17/outbox.cif.g08.bks.cpg/sg15_103_cif.got.tgz:204518.got - 2010.06.03 18:47:42.
