data_PCOD9258667
_publ_section_title
;
Structure prediction by ZEFSAII (Michael W. Deem and Ramdas Pophale) SiO2 
 PCOD9258667
Probable space group: C 2/C
;
_chemical_formula_sum "Si O2"
_cell_formula_units_Z 52
_cell_length_a 15.888498
_cell_length_b 27.184714
_cell_length_c 5.563817
_cell_angle_alpha 90.000000
_cell_angle_beta 70.711293
_cell_angle_gamma 90.000000
_cell_volume 2268.249517
_symmetry_space_group_name_H-M "C 2/C"
_symmetry_group_IT_number 15
_symmetry_cell_setting 'monoclinic'
loop_
_space_group_symop_operation_xyz
x,y,z
-x,y,1/2-z
-x,-y,-z
x,-y,1/2+z
1/2+x,1/2+y,z
1/2-x,1/2+y,1/2-z
1/2-x,1/2-y,-z
1/2+x,1/2-y,1/2+z
loop_
_atom_site_type_symbol
_atom_site_label
_atom_site_fract_x
_atom_site_fract_y
_atom_site_fract_z
Si Si1 0.500000 0.697149 0.250000
Si Si2 0.500000 0.760570 0.750000
Si Si3 0.911900 0.549781 0.223583
Si Si4 0.312099 0.780095 0.759378
Si Si5 0.811686 0.182561 0.487636
Si Si6 0.176435 0.618735 0.798454
Si Si7 0.000000 0.380546 0.250000
Si Si8 0.255613 0.482475 0.129227
O O1 0.513205 0.727966 0.491335
O O2 0.411222 0.664184 0.359972
O O3 0.409095 0.790777 0.779918
O O4 0.862604 0.588672 0.442809
O O5 0.838993 0.509801 0.230434
O O6 0.000000 0.525040 0.250000
O O7 0.953728 0.583679 0.982185
O O8 0.252932 0.820864 0.681913
O O9 0.330336 0.739643 0.532314
O O10 0.250000 0.750000 0.000000
O O11 0.754017 0.158159 0.752885
O O12 0.228831 0.574395 0.609490
O O13 0.087930 0.644951 0.771784
O O14 0.299214 0.492897 0.351055
#
# Coordination Sequence:
#
# PCOD9258667 Si02
#       8
#     4   4   8   8   8   8   4   8
#     4  10  20  40  65  90 110 155 204 251 296 361
#     4  10  20  38  68  90 117 147 202 241 303 362
#     4   9  19  31  52  75 110 161 205 237 287 354
#     4  10  20  40  62  87 117 155 196 247 305 375
#     4  10  22  39  61  87 121 154 202 256 308 359
#     4  10  21  34  50  80 117 155 195 250 295 356
#     4  10  18  34  49  76 119 158 196 244 285 363
#     4  10  19  33  51  76 109 154 199 239 286 351
#
# _framework density 22.925169
#
# number of rings (size 3 to 8) (size 9 to 14) (size 15 to 20)
#    0.000    2.154    3.077    0.000    1.077    3.077 
#    2.769    0.000    0.000    0.000    0.000    4.308 
#    0.000    0.000    0.000    0.000    0.000    0.000 
#
# Total GULP energy -144931.232857 kJ/mol
# GULP energy per Si atom -5574.278187 kJ/mol
# Density = 2.287299 g / cm^3
# Si number density = 22.925169 Si / 1000 Ang^3
#
#
#
# Elastic Constant Matrix: (Units=GPa)
#
#
# Indices 1 2 3 4 5 6 
#
# 1 143.5957 29.3935 34.5985 0.0000 -17.4841 0.0000
# 2 29.3935 63.6293 9.4367 0.0000 0.1034 0.0000
# 3 34.5985 9.4367 101.3062 0.0000 7.6209 0.0000
# 4 0.0000 0.0000 0.0000 22.5111 0.0000 1.1516
# 5 -17.4841 0.1034 7.6209 0.0000 35.2972 0.0000
# 6 0.0000 0.0000 0.0000 1.1516 0.0000 23.8879
#
#
#
# Elastic Compliance Matrix: (Units=1/GPa)
#
#
# Indices 1 2 3 4 5 6 
#
# 1 0.009130 -0.003757 -0.003160 0.000000 0.005216 0.000000
# 2 -0.003757 0.017485 -0.000205 0.000000 -0.001868 0.000000
# 3 -0.003160 -0.000205 0.011270 0.000000 -0.003998 0.000000
# 4 0.000000 0.000000 0.000000 0.044532 0.000000 -0.002147
# 5 0.005216 -0.001868 -0.003998 0.000000 0.031783 0.000000
# 6 0.000000 0.000000 0.000000 -0.002147 0.000000 0.041966
#
#
# Mechanical properties :
#
#
# Convention : Reuss Voigt Hill
#
# Bulk Modulus (GPa) = 42.30153 50.59874 46.45014
# Shear Modulus (GPa) = 28.04402 32.01274 30.02838
#
# Velocity S-wave (km/s) = 3.50134 3.74090 3.62310
# Velocity P-wave (km/s) = 5.90237 6.38579 6.14883
#
# Compressibility (1/GPa) = 0.02363981
#
# Stress axis : x y z
#
# Youngs Moduli (GPa) = 109.53393 57.19151 88.72911
#
# Poissons Ratio (x) = 0.21488 0.28041
# Poissons Ratio (y) = 0.41154 0.01819
# Poissons Ratio (z) = 0.34616 0.01173
#
# Static dielectric constant tensor:
#      x y z
#    x 1.960840 0.000000 0.114930 
#    y 0.000000 1.882540 0.000000 
#    z 0.114930 0.000000 2.023040 
# 
# From -- ./inp_files/9045.got.cif
#   From: 2010.05.17/outbox.cif.g08.bks.cpg/sg15_5_cif.got.tgz:9045.got - 2010.06.03 18:47:42.
