data_PCOD9258341
_publ_section_title
;
Structure prediction by ZEFSAII (Michael W. Deem and Ramdas Pophale) SiO2 
 PCOD9258341
Probable space group: C 2/C
;
_chemical_formula_sum "Si O2"
_cell_formula_units_Z 44
_cell_length_a 22.821714
_cell_length_b 5.351766
_cell_length_c 13.153263
_cell_angle_alpha 90.000000
_cell_angle_beta 98.258634
_cell_angle_gamma 90.000000
_cell_volume 1589.833420
_symmetry_space_group_name_H-M "C 2/C"
_symmetry_group_IT_number 15
_symmetry_cell_setting 'monoclinic'
loop_
_space_group_symop_operation_xyz
x,y,z
-x,y,1/2-z
-x,-y,-z
x,-y,1/2+z
1/2+x,1/2+y,z
1/2-x,1/2+y,1/2-z
1/2-x,1/2-y,-z
1/2+x,1/2-y,1/2+z
loop_
_atom_site_type_symbol
_atom_site_label
_atom_site_fract_x
_atom_site_fract_y
_atom_site_fract_z
Si Si1 0.236329 0.763648 0.355093
Si Si2 0.020756 0.387045 0.136742
Si Si3 0.147297 0.839465 0.907913
Si Si4 0.473898 0.379598 0.127595
Si Si5 0.149647 0.518021 0.710815
Si Si6 0.750000 0.250000 0.000000
O O1 0.186349 0.721869 0.257084
O O2 0.300988 0.810987 0.329004
O O3 0.237657 0.514534 0.422098
O O4 0.213019 0.027468 0.399521
O O5 0.086354 0.495554 0.143973
O O6 0.000000 0.355196 0.250000
O O7 0.013561 0.106687 0.095522
O O8 0.978124 0.602527 0.084816
O O9 0.093718 0.029193 0.898087
O O10 0.132517 0.656374 0.813374
O O11 0.175603 0.728946 0.016069
O O12 0.500000 0.349346 0.250000
#
# Coordination Sequence:
#
# PCOD9258341 Si02
#       6
#     8   8   8   8   8   4
#     4  10  21  36  54  84 113 152 189 242 294 342
#     4  10  20  31  53  88 110 144 184 255 287 330
#     4  10  20  37  54  84 111 151 191 235 290 350
#     4  10  18  33  54  83 110 146 193 241 285 338
#     4  12  20  34  62  85 117 144 205 250 284 339
#     4   8  22  38  52  80 120 156 184 230 302 366
#
# _framework density 27.675854000000001
#
# number of rings (size 3 to 8) (size 9 to 14) (size 15 to 20)
#    1.091    0.727    5.455    2.182    0.000    0.727 
#    0.000    0.000    0.000    2.182    0.000    0.000 
#    0.000    0.000    0.000    0.000    0.000    0.000 
#
# Total GULP energy -122704.273491 kJ/mol
# GULP energy per Si atom -5577.466977 kJ/mol
# Density = 2.761286 g / cm^3
# Si number density = 27.675854 Si / 1000 Ang^3
#
#
#
# Elastic Constant Matrix: (Units=GPa)
#
#
# Indices 1 2 3 4 5 6 
#
# 1 195.6312 11.8401 23.3283 0.0000 37.1198 0.0000
# 2 11.8401 152.0099 24.7363 0.0000 -3.7301 0.0000
# 3 23.3283 24.7363 74.8136 0.0000 22.9805 0.0000
# 4 0.0000 0.0000 0.0000 50.2771 0.0000 2.4810
# 5 37.1198 -3.7301 22.9805 0.0000 48.9245 0.0000
# 6 0.0000 0.0000 0.0000 2.4810 0.0000 54.7930
#
#
#
# Elastic Compliance Matrix: (Units=1/GPa)
#
#
# Indices 1 2 3 4 5 6 
#
# 1 0.006029 -0.000524 -0.000338 0.000000 -0.004455 0.000000
# 2 -0.000524 0.007150 -0.002910 0.000000 0.002309 0.000000
# 3 -0.000338 -0.002910 0.016855 0.000000 -0.007882 0.000000
# 4 0.000000 0.000000 0.000000 0.019934 0.000000 -0.000903
# 5 -0.004455 0.002309 -0.007882 0.000000 0.027699 0.000000
# 6 0.000000 0.000000 0.000000 -0.000903 0.000000 0.018291
#
#
# Mechanical properties :
#
#
# Convention : Reuss Voigt Hill
#
# Bulk Modulus (GPa) = 44.46424 60.25157 52.35790
# Shear Modulus (GPa) = 45.04543 54.96893 50.00718
#
# Velocity S-wave (km/s) = 4.03874 4.46148 4.25536
# Velocity P-wave (km/s) = 6.15219 6.95395 6.56532
#
# Compressibility (1/GPa) = 0.02248998
#
# Stress axis : x y z
#
# Youngs Moduli (GPa) = 165.86255 139.86949 59.32815
#
# Poissons Ratio (x) = 0.07328 0.02006
# Poissons Ratio (y) = 0.08690 0.17264
# Poissons Ratio (z) = 0.05609 0.40701
#
# Static dielectric constant tensor:
#      x y z
#    x 2.160250 0.000000 -0.110670 
#    y 0.000000 2.384770 0.000000 
#    z -0.110670 0.000000 2.546960 
# 
# From -- ./inp_files/212819.got.cif
#   From: 2010.05.17/outbox.cif.g08.bks.cpg/sg15_107_cif.got.tgz:212819.got - 2010.06.03 18:47:42.
