data_PCOD9258017
_publ_section_title
;
Structure prediction by ZEFSAII (Michael W. Deem and Ramdas Pophale) SiO2 
 PCOD9258017
Probable space group: C 2/C
;
_chemical_formula_sum "Si O2"
_cell_formula_units_Z 52
_cell_length_a 20.244660
_cell_length_b 16.629773
_cell_length_c 9.270046
_cell_angle_alpha 90.000000
_cell_angle_beta 60.523884
_cell_angle_gamma 90.000000
_cell_volume 2716.926250
_symmetry_space_group_name_H-M "C 2/C"
_symmetry_group_IT_number 15
_symmetry_cell_setting 'monoclinic'
loop_
_space_group_symop_operation_xyz
x,y,z
-x,y,1/2-z
-x,-y,-z
x,-y,1/2+z
1/2+x,1/2+y,z
1/2-x,1/2+y,1/2-z
1/2-x,1/2-y,-z
1/2+x,1/2-y,1/2+z
loop_
_atom_site_type_symbol
_atom_site_label
_atom_site_fract_x
_atom_site_fract_y
_atom_site_fract_z
Si Si1 0.427530 0.550505 0.643268
Si Si2 0.839207 0.738667 0.904193
Si Si3 0.000000 0.807079 0.250000
Si Si4 0.429440 0.826889 0.040748
Si Si5 0.591842 0.409769 0.640482
Si Si6 0.408278 0.042000 0.343283
Si Si7 0.094080 0.389114 0.965330
O O1 0.500000 0.500000 0.500000
O O2 0.451600 0.629561 0.706041
O O3 0.386651 0.486736 0.788642
O O4 0.383470 0.575912 0.549496
O O5 0.873153 0.693907 0.729345
O O6 0.875390 0.826162 0.848483
O O7 0.750000 0.750000 0.000000
O O8 0.866366 0.691807 0.019390
O O9 0.956818 0.747972 0.409541
O O10 0.388366 0.889722 0.979837
O O11 0.505469 0.865855 0.031841
O O12 0.500000 0.403037 0.750000
O O13 0.500000 0.044059 0.250000
O O14 0.382562 0.069443 0.211949
O O15 0.390231 0.954942 0.427151
#
# Coordination Sequence:
#
# PCOD9258017 Si02
#       7
#     8   8   4   8   8   8   8
#     4  10  18  32  57  93 121 145 188 253 304 358
#     4  12  26  41  58  85 128 169 210 248 304 364
#     4  12  18  32  64  98 124 144 200 248 308 350
#     4  11  21  37  65  97 124 157 198 259 305 368
#     4  10  20  37  61  87 115 154 198 254 305 350
#     4  10  19  34  65  99 124 147 201 257 318 358
#     4  11  20  40  64  96 120 160 201 260 306 364
#
# _framework density 19.139275000000001
#
# number of rings (size 3 to 8) (size 9 to 14) (size 15 to 20)
#    0.000    1.231    4.615    7.846    0.000    0.000 
#    0.000    3.846    0.000    0.000    0.000    0.000 
#    0.000    0.000    0.000    0.000    0.000    0.000 
#
# Total GULP energy -144946.665841 kJ/mol
# GULP energy per Si atom -5574.871763 kJ/mol
# Density = 1.909571 g / cm^3
# Si number density = 19.139275 Si / 1000 Ang^3
#
#
#
# Elastic Constant Matrix: (Units=GPa)
#
#
# Indices 1 2 3 4 5 6 
#
# 1 32.7970 12.2494 46.0490 0.0000 -0.1302 0.0000
# 2 12.2494 118.0102 54.8011 0.0000 3.0808 0.0000
# 3 46.0490 54.8011 106.3368 0.0000 25.3471 0.0000
# 4 0.0000 0.0000 0.0000 35.5642 0.0000 29.9893
# 5 -0.1302 3.0808 25.3471 0.0000 12.7298 0.0000
# 6 0.0000 0.0000 0.0000 29.9893 0.0000 0.2174
#
#
#
# Elastic Compliance Matrix: (Units=1/GPa)
#
#
# Indices 1 2 3 4 5 6 
#
# 1 -0.062091 -0.023270 0.071739 0.000000 -0.137847 0.000000
# 2 -0.023270 0.004635 0.015251 0.000000 -0.031726 0.000000
# 3 0.071739 0.015251 -0.054850 0.000000 0.106259 0.000000
# 4 0.000000 0.000000 0.000000 -0.000244 0.000000 0.033634
# 5 -0.137847 -0.031726 0.106259 0.000000 -0.126754 0.000000
# 6 0.000000 0.000000 0.000000 0.033634 0.000000 -0.039887
#
#
# Mechanical properties :
#
#
# Convention : Reuss Voigt Hill
#
# Bulk Modulus (GPa) = 66.08082 53.70477 59.89280
# Shear Modulus (GPa) = -12.45065 19.30526 3.42730
#
# Velocity S-wave (km/s) = -2.55331 3.17941 1.33963
# Velocity P-wave (km/s) = 5.09006 6.44973 5.80981
#
# Compressibility (1/GPa) = 0.01513298
#
# Stress axis : x y z
#
# Youngs Moduli (GPa) = -16.10536 215.72792 -18.23143
#
# Poissons Ratio (x) = 5.02002 1.30790
# Poissons Ratio (y) = -0.37477 0.27804
# Poissons Ratio (z) = 1.15538 -3.29000
#
# Static dielectric constant tensor:
#      x y z
#    x 1.644510 0.000000 0.025790 
#    y 0.000000 1.609990 0.000000 
#    z 0.025790 0.000000 1.703200 
# 
# From -- ./inp_files/61429.got.cif
#   From: 2010.05.17/outbox.cif.g08.bks.cpg/sg15_31_cif.got.tgz:61429.got - 2010.06.03 18:47:42.
