data_PCOD9258788
_publ_section_title
;
Structure prediction by ZEFSAII (Michael W. Deem and Ramdas Pophale) SiO2 
 PCOD9258788
Probable space group: C 2/C
;
_chemical_formula_sum "Si O2"
_cell_formula_units_Z 52
_cell_length_a 31.299728
_cell_length_b 19.396809
_cell_length_c 5.527649
_cell_angle_alpha 90.000000
_cell_angle_beta 119.963523
_cell_angle_gamma 90.000000
_cell_volume 2907.377715
_symmetry_space_group_name_H-M "C 2/C"
_symmetry_group_IT_number 15
_symmetry_cell_setting 'monoclinic'
loop_
_space_group_symop_operation_xyz
x,y,z
-x,y,1/2-z
-x,-y,-z
x,-y,1/2+z
1/2+x,1/2+y,z
1/2-x,1/2+y,1/2-z
1/2-x,1/2-y,-z
1/2+x,1/2-y,1/2+z
loop_
_atom_site_type_symbol
_atom_site_label
_atom_site_fract_x
_atom_site_fract_y
_atom_site_fract_z
Si Si1 0.125176 0.735315 0.704264
Si Si2 0.500000 0.040976 0.250000
Si Si3 0.711889 0.717632 0.201700
Si Si4 0.016761 0.232539 0.053879
Si Si5 0.061846 0.645004 0.193943
Si Si6 0.871923 0.543000 0.359188
Si Si7 0.199919 0.338966 0.775647
O O1 0.160601 0.794839 0.696311
O O2 0.075477 0.755804 0.706923
O O3 0.104633 0.692351 0.419288
O O4 0.160970 0.687829 0.964487
O O5 0.546403 0.091261 0.357277
O O6 0.500000 0.000000 0.500000
O O7 0.750000 0.750000 0.500000
O O8 0.744313 0.657897 0.170326
O O9 0.702046 0.777883 0.978726
O O10 0.000000 0.194839 0.250000
O O11 0.000000 0.201186 0.750000
O O12 0.984327 0.303920 0.973361
O O13 0.082450 0.597440 0.038181
O O14 0.873499 0.504234 0.621225
O O15 0.822629 0.589388 0.201045
#
# Coordination Sequence:
#
# PCOD9258788 Si02
#       7
#     8   4   8   8   8   8   8
#     4  10  18  34  55  72  98 128 173 229 277 311
#     4  12  26  36  46  62  92 136 190 230 254 282
#     4   9  19  34  57  77  90 121 163 236 278 331
#     4  10  21  32  51  68  96 135 171 212 256 300
#     4  11  21  39  48  69  98 139 184 221 258 301
#     4  12  25  37  54  73 104 143 179 225 270 310
#     4  10  20  35  56  74  98 122 174 225 285 326
#
# _framework density 17.885532999999999
#
# number of rings (size 3 to 8) (size 9 to 14) (size 15 to 20)
#    0.000    1.538    3.846    2.769    5.385    2.462 
#    0.000    0.000    0.000    0.000    0.000    0.000 
#    0.000    0.000    0.000    0.000    0.000   20.000 
#
# Total GULP energy -144892.156728 kJ/mol
# GULP energy per Si atom -5572.775259 kJ/mol
# Density = 1.784482 g / cm^3
# Si number density = 17.885533 Si / 1000 Ang^3
#
#
#
# Elastic Constant Matrix: (Units=GPa)
#
#
# Indices 1 2 3 4 5 6 
#
# 1 159.5892 28.3520 30.9837 0.0000 10.4689 0.0000
# 2 28.3520 14.2719 3.2415 0.0000 5.6291 0.0000
# 3 30.9837 3.2415 79.4443 0.0000 -3.9137 0.0000
# 4 0.0000 0.0000 0.0000 11.8328 0.0000 -0.6020
# 5 10.4689 5.6291 -3.9137 0.0000 32.2068 0.0000
# 6 0.0000 0.0000 0.0000 -0.6020 0.0000 43.4165
#
#
#
# Elastic Compliance Matrix: (Units=1/GPa)
#
#
# Indices 1 2 3 4 5 6 
#
# 1 0.010462 -0.019911 -0.003284 0.000000 -0.000320 0.000000
# 2 -0.019911 0.114274 0.002453 0.000000 -0.013202 0.000000
# 3 -0.003284 0.002453 0.013883 0.000000 0.002326 0.000000
# 4 0.000000 0.000000 0.000000 0.084571 0.000000 0.001173
# 5 -0.000320 -0.013202 0.002326 0.000000 0.033743 0.000000
# 6 0.000000 0.000000 0.000000 0.001173 0.000000 0.023049
#
#
# Mechanical properties :
#
#
# Convention : Reuss Voigt Hill
#
# Bulk Modulus (GPa) = 10.29515 42.05110 26.17313
# Shear Modulus (GPa) = 14.13054 30.20643 22.16849
#
# Velocity S-wave (km/s) = 2.81384 4.11405 3.52442
# Velocity P-wave (km/s) = 4.04049 6.79187 5.58816
#
# Compressibility (1/GPa) = 0.09713310
#
# Stress axis : x y z
#
# Youngs Moduli (GPa) = 95.58467 8.75093 72.03298
#
# Poissons Ratio (x) = 0.17424 0.23652
# Poissons Ratio (y) = 1.90323 -0.17666
# Poissons Ratio (z) = 0.31385 -0.02146
#
# Static dielectric constant tensor:
#      x y z
#    x 1.730920 0.000000 -0.038220 
#    y 0.000000 1.601970 0.000000 
#    z -0.038220 0.000000 1.687710 
# 
# From -- ./inp_files/18662.got.cif
#   From: 2010.05.17/outbox.cif.g08.bks.cpg/sg15_10_cif.got.tgz:18662.got - 2010.06.03 18:47:42.
