data_PCOD9258993
_publ_section_title
;
Structure prediction by ZEFSAII (Michael W. Deem and Ramdas Pophale) SiO2 
 PCOD9258993
Probable space group: C 2/C
;
_chemical_formula_sum "Si O2"
_cell_formula_units_Z 64
_cell_length_a 9.155827
_cell_length_b 18.174921
_cell_length_c 29.838275
_cell_angle_alpha 90.000000
_cell_angle_beta 136.584466
_cell_angle_gamma 90.000000
_cell_volume 3412.560467
_symmetry_space_group_name_H-M "C 2/C"
_symmetry_group_IT_number 15
_symmetry_cell_setting 'monoclinic'
loop_
_space_group_symop_operation_xyz
x,y,z
-x,y,1/2-z
-x,-y,-z
x,-y,1/2+z
1/2+x,1/2+y,z
1/2-x,1/2+y,1/2-z
1/2-x,1/2-y,-z
1/2+x,1/2-y,1/2+z
loop_
_atom_site_type_symbol
_atom_site_label
_atom_site_fract_x
_atom_site_fract_y
_atom_site_fract_z
Si Si1 0.222824 0.828904 0.316773
Si Si2 0.137636 0.413940 0.064727
Si Si3 0.540477 0.660948 0.928548
Si Si4 0.183242 0.586790 0.081568
Si Si5 0.935301 0.675081 0.685854
Si Si6 0.527644 0.828812 0.802610
Si Si7 0.132342 0.672672 0.422739
Si Si8 0.966584 0.841168 0.790789
O O1 0.321114 0.867684 0.381719
O O2 0.387517 0.835104 0.312629
O O3 0.154820 0.745649 0.316684
O O4 0.000000 0.862520 0.250000
O O5 0.325495 0.395312 0.071544
O O6 0.148689 0.499901 0.078285
O O7 0.920139 0.394123 0.989742
O O8 0.293780 0.643105 0.876794
O O9 0.572274 0.740681 0.911678
O O10 0.648612 0.665900 0.001278
O O11 0.423937 0.611912 0.145508
O O12 0.040647 0.628077 0.087004
O O13 0.000000 0.649794 0.750000
O O14 0.911496 0.763560 0.683183
O O15 0.500000 0.873630 0.750000
O O16 0.635815 0.854829 0.872463
O O17 0.280056 0.819404 0.760544
O O18 0.000000 0.879043 0.750000
#
# Coordination Sequence:
#
# PCOD9258993 Si02
#       8
#     8   8   8   8   8   8   8   8
#     4  11  21  36  57  86 120 152 187 245 304 351
#     4  10  22  39  60  85 120 154 205 244 305 359
#     4  10  19  33  60  87 108 153 196 247 290 361
#     4  10  21  38  62  85 115 162 199 247 294 378
#     4  11  20  34  58  86 117 151 192 242 301 361
#     4  11  20  34  54  87 119 150 188 253 301 343
#     4  10  18  34  58  82 118 148 200 239 301 354
#     4  11  19  33  59  85 114 150 199 241 293 357
#
# _framework density 18.754245999999998
#
# number of rings (size 3 to 8) (size 9 to 14) (size 15 to 20)
#    0.000    1.500    6.250    1.500    0.000    0.500 
#    2.250    1.250    2.750    2.250    0.000    0.000 
#    0.000    0.000    0.000    0.000    0.000    0.000 
#
# Total GULP energy -178277.257295 kJ/mol
# GULP energy per Si atom -5571.164290 kJ/mol
# Density = 1.871156 g / cm^3
# Si number density = 18.754246 Si / 1000 Ang^3
#
#
#
# Elastic Constant Matrix: (Units=GPa)
#
#
# Indices 1 2 3 4 5 6 
#
# 1 92.0758 3.9576 63.4327 0.0000 -5.5222 0.0000
# 2 3.9576 33.9453 12.4858 0.0000 -4.5979 0.0000
# 3 63.4327 12.4858 145.6399 0.0000 -11.3434 0.0000
# 4 0.0000 0.0000 0.0000 19.3487 0.0000 -3.3284
# 5 -5.5222 -4.5979 -11.3434 0.0000 42.3554 0.0000
# 6 0.0000 0.0000 0.0000 -3.3284 0.0000 13.2443
#
#
#
# Elastic Compliance Matrix: (Units=1/GPa)
#
#
# Indices 1 2 3 4 5 6 
#
# 1 0.015536 0.000731 -0.006807 0.000000 0.000282 0.000000
# 2 0.000731 0.030749 -0.002744 0.000000 0.002698 0.000000
# 3 -0.006807 -0.002744 0.010187 0.000000 0.001543 0.000000
# 4 0.000000 0.000000 0.000000 0.054018 0.000000 0.013575
# 5 0.000282 0.002698 0.001543 0.000000 0.024353 0.000000
# 6 0.000000 0.000000 0.000000 0.013575 0.000000 0.078916
#
#
# Mechanical properties :
#
#
# Convention : Reuss Voigt Hill
#
# Bulk Modulus (GPa) = 25.75351 47.93480 36.84416
# Shear Modulus (GPa) = 20.46312 27.77535 24.11924
#
# Velocity S-wave (km/s) = 3.30679 3.85257 3.59007
# Velocity P-wave (km/s) = 5.32370 6.73830 6.07233
#
# Compressibility (1/GPa) = 0.03882965
#
# Stress axis : x y z
#
# Youngs Moduli (GPa) = 64.36785 32.52157 98.16904
#
# Poissons Ratio (x) = -0.02376 0.66826
# Poissons Ratio (y) = -0.04703 0.26940
# Poissons Ratio (z) = 0.43816 0.08925
#
# Static dielectric constant tensor:
#      x y z
#    x 1.667620 0.000000 -0.008550 
#    y 0.000000 1.642800 0.000000 
#    z -0.008550 0.000000 1.701740 
# 
# From -- ./inp_files/308793.got.cif
#   From: 2010.05.17/outbox.cif.g08.bks.cpg/sg15_155_cif.got.tgz:308793.got - 2010.06.03 18:47:42.
