data_PCOD9258274
_publ_section_title
;
Structure prediction by ZEFSAII (Michael W. Deem and Ramdas Pophale) SiO2 
 PCOD9258274
Probable space group: C 2/C
;
_chemical_formula_sum "Si O2"
_cell_formula_units_Z 40
_cell_length_a 15.761657
_cell_length_b 14.112243
_cell_length_c 16.333237
_cell_angle_alpha 90.000000
_cell_angle_beta 151.359695
_cell_angle_gamma 90.000000
_cell_volume 1741.350091
_symmetry_space_group_name_H-M "C 2/C"
_symmetry_group_IT_number 15
_symmetry_cell_setting 'monoclinic'
loop_
_space_group_symop_operation_xyz
x,y,z
-x,y,1/2-z
-x,-y,-z
x,-y,1/2+z
1/2+x,1/2+y,z
1/2-x,1/2+y,1/2-z
1/2-x,1/2-y,-z
1/2+x,1/2-y,1/2+z
loop_
_atom_site_type_symbol
_atom_site_label
_atom_site_fract_x
_atom_site_fract_y
_atom_site_fract_z
Si Si1 0.827504 0.648745 0.049509
Si Si2 0.285874 0.058024 0.552777
Si Si3 0.044343 0.894883 0.002686
Si Si4 0.330934 0.118111 0.864358
Si Si5 0.292903 0.894486 0.875279
O O1 0.727294 0.551998 0.989293
O O2 0.000000 0.641960 0.250000
O O3 0.750000 0.750000 0.000000
O O4 0.859770 0.648977 0.980809
O O5 0.500000 0.062194 0.750000
O O6 0.178744 0.096018 0.539654
O O7 0.246187 0.106872 0.431897
O O8 0.861707 0.853298 0.812835
O O9 0.154753 0.847100 0.169309
O O10 0.000000 0.000000 0.000000
O O11 0.310112 0.003849 0.858553
O O12 0.508623 0.142561 0.966146
#
# Coordination Sequence:
#
# PCOD9258274 Si02
#       5
#     8   8   8   8   8
#     4  10  23  37  53  72 111 161 193 222 273 335
#     4  10  18  33  53  78 119 150 180 234 289 333
#     4  10  19  28  51  82 105 144 179 228 290 339
#     4   9  18  34  49  75 106 141 183 238 274 322
#     4   9  17  29  51  76 106 140 179 222 292 331
#
# _framework density 22.970683999999999
#
# number of rings (size 3 to 8) (size 9 to 14) (size 15 to 20)
#    0.000    2.400    2.000    0.600    8.400    4.800 
#    0.000    0.000    0.000    0.000    0.000    0.000 
#    0.000   14.400    0.000    0.000    0.000    0.000 
#
# Total GULP energy -111652.494799 kJ/mol
# GULP energy per Si atom -5582.624740 kJ/mol
# Density = 2.291840 g / cm^3
# Si number density = 22.970684 Si / 1000 Ang^3
#
#
#
# Elastic Constant Matrix: (Units=GPa)
#
#
# Indices 1 2 3 4 5 6 
#
# 1 78.0916 4.9213 49.3625 -0.0053 -14.6862 -0.0002
# 2 4.9213 30.2887 16.2258 -0.0086 -2.9522 -0.0004
# 3 49.3625 16.2258 187.6681 -0.0053 -29.3674 0.0009
# 4 -0.0053 -0.0086 -0.0053 -70.0495 -0.0038 73.4821
# 5 -14.6862 -2.9522 -29.3674 -0.0038 38.2252 0.0008
# 6 -0.0002 -0.0004 0.0009 73.4821 0.0008 -51.0248
#
#
#
# Elastic Compliance Matrix: (Units=1/GPa)
#
#
# Indices 1 2 3 4 5 6 
#
# 1 0.015710 -0.000309 -0.003597 0.000002 0.003248 0.000003
# 2 -0.000309 0.034631 -0.002856 0.000009 0.000361 0.000012
# 3 -0.003597 -0.002856 0.007128 0.000000 0.003873 0.000000
# 4 0.000002 0.000009 0.000000 0.027953 0.000003 0.040256
# 5 0.003248 0.000361 0.003873 0.000003 0.030413 0.000005
# 6 0.000003 0.000012 0.000000 0.040256 0.000005 0.038376
#
#
# Mechanical properties :
#
#
# Convention : Reuss Voigt Hill
#
# Bulk Modulus (GPa) = 22.75635 48.56307 35.65971
# Shear Modulus (GPa) = 27.41484 -1.53391 12.94047
#
# Velocity S-wave (km/s) = 3.45841 -0.81806 2.37607
# Velocity P-wave (km/s) = 5.08682 4.50499 4.80472
#
# Compressibility (1/GPa) = 0.04394378
#
# Stress axis : x y z
#
# Youngs Moduli (GPa) = 63.65542 28.87570 140.29540
#
# Poissons Ratio (x) = 0.00892 0.50466
# Poissons Ratio (y) = 0.01966 0.40074
# Poissons Ratio (z) = 0.22897 0.08248
#
# Static dielectric constant tensor:
#      x y z
#    x 2.137480 -0.000010 -0.074300 
#    y -0.000010 1.957570 0.000000 
#    z -0.074300 0.000000 1.879620 
# 
# From -- ./inp_files/155618.got.cif
#   From: 2010.05.17/outbox.cif.g08.bks.cpg/sg15_78_cif.got.tgz:155618.got - 2010.06.03 18:47:42.
