data_PCOD9258515
_publ_section_title
;
Structure prediction by ZEFSAII (Michael W. Deem and Ramdas Pophale) SiO2 
 PCOD9258515
Probable space group: C 2/C
;
_chemical_formula_sum "Si O2"
_cell_formula_units_Z 56
_cell_length_a 8.578372
_cell_length_b 22.738678
_cell_length_c 19.993188
_cell_angle_alpha 90.000000
_cell_angle_beta 41.719711
_cell_angle_gamma 90.000000
_cell_volume 2595.325461
_symmetry_space_group_name_H-M "C 2/C"
_symmetry_group_IT_number 15
_symmetry_cell_setting 'monoclinic'
loop_
_space_group_symop_operation_xyz
x,y,z
-x,y,1/2-z
-x,-y,-z
x,-y,1/2+z
1/2+x,1/2+y,z
1/2-x,1/2+y,1/2-z
1/2-x,1/2-y,-z
1/2+x,1/2-y,1/2+z
loop_
_atom_site_type_symbol
_atom_site_label
_atom_site_fract_x
_atom_site_fract_y
_atom_site_fract_z
Si Si1 0.980546 0.647432 0.401426
Si Si2 0.003380 0.507942 0.399736
Si Si3 0.311782 0.471515 0.111713
Si Si4 0.983570 0.848415 0.019794
Si Si5 0.322504 0.263043 0.866413
Si Si6 0.390041 0.526027 0.371740
Si Si7 0.627742 0.357441 0.827967
O O1 0.139189 0.688109 0.397871
O O2 0.118291 0.649099 0.286200
O O3 0.963890 0.577973 0.422856
O O4 0.715014 0.669838 0.486185
O O5 0.928809 0.491203 0.347873
O O6 0.825898 0.472990 0.505445
O O7 0.263822 0.499940 0.346305
O O8 0.341849 0.401609 0.098103
O O9 0.406662 0.491929 0.153311
O O10 0.500000 0.500000 0.000000
O O11 0.814694 0.793434 0.064648
O O12 0.097464 0.873322 0.914766
O O13 0.500000 0.246044 0.750000
O O14 0.489348 0.296741 0.864158
O O15 0.494335 0.591240 0.329815
#
# Coordination Sequence:
#
# PCOD9258515 Si02
#       7
#     8   8   8   8   8   8   8
#     4  11  21  37  61  89 120 160 209 256 303 367
#     4  10  18  33  58  86 120 156 192 249 303 361
#     4  10  18  34  57  86 122 145 194 244 299 374
#     4  12  21  39  61  88 121 162 200 258 313 367
#     4  10  24  41  59  86 120 161 210 256 312 369
#     4  10  18  33  58  86 120 156 192 249 303 361
#     4  11  21  37  61  89 120 160 209 256 303 367
#
# _framework density 21.577255999999998
#
# number of rings (size 3 to 8) (size 9 to 14) (size 15 to 20)
#    0.000    1.429    7.143    1.286    0.000    0.000 
#    0.000    1.429    0.000    0.000    0.000    0.000 
#    0.000    0.000    0.000    0.000    0.000    0.000 
#
# Total GULP energy -156260.966625 kJ/mol
# GULP energy per Si atom -5580.748808 kJ/mol
# Density = 2.152815 g / cm^3
# Si number density = 21.577256 Si / 1000 Ang^3
#
#
#
# Elastic Constant Matrix: (Units=GPa)
#
#
# Indices 1 2 3 4 5 6 
#
# 1 138.3448 15.9162 29.7185 0.0000 -10.1489 0.0000
# 2 15.9162 105.4729 26.3358 0.0000 -8.8181 0.0000
# 3 29.7185 26.3358 61.7939 -0.0004 -24.7729 0.0001
# 4 0.0000 0.0000 -0.0004 -0.5653 0.0001 5.3815
# 5 -10.1489 -8.8181 -24.7729 0.0001 40.9506 0.0000
# 6 0.0000 0.0000 0.0001 5.3815 0.0000 19.3876
#
#
#
# Elastic Compliance Matrix: (Units=1/GPa)
#
#
# Indices 1 2 3 4 5 6 
#
# 1 0.008075 -0.000270 -0.003946 0.000001 -0.000444 0.000000
# 2 -0.000270 0.010630 -0.004633 0.000001 -0.000581 0.000000
# 3 -0.003946 -0.004633 0.025431 -0.000004 0.013409 0.000001
# 4 0.000001 0.000001 -0.000004 -0.485650 -0.000001 0.134804
# 5 -0.000444 -0.000581 0.013409 -0.000001 0.032296 0.000000
# 6 0.000000 0.000000 0.000001 0.134804 0.000000 0.014161
#
#
# Mechanical properties :
#
#
# Convention : Reuss Voigt Hill
#
# Bulk Modulus (GPa) = 37.82743 49.95030 43.88886
# Shear Modulus (GPa) = -13.56682 27.53066 6.98192
#
# Velocity S-wave (km/s) = -2.51022 3.57586 1.80078
# Velocity P-wave (km/s) = 3.02781 6.34420 4.97074
#
# Compressibility (1/GPa) = 0.02643585
#
# Stress axis : x y z
#
# Youngs Moduli (GPa) = 123.84639 94.07111 39.32243
#
# Poissons Ratio (x) = 0.02543 0.15517
# Poissons Ratio (y) = 0.03347 0.18220
# Poissons Ratio (z) = 0.48872 0.43587
#
# Static dielectric constant tensor:
#      x y z
#    x 1.880920 0.000000 0.037610 
#    y 0.000000 1.727990 0.000000 
#    z 0.037610 0.000000 1.843600 
# 
# From -- ./inp_files/266374.got.cif
#   From: 2010.05.17/outbox.cif.g08.bks.cpg/sg15_134_cif.got.tgz:266374.got - 2010.06.03 18:47:42.
