data_PCOD9258033
_publ_section_title
;
Structure prediction by ZEFSAII (Michael W. Deem and Ramdas Pophale) SiO2 
 PCOD9258033
Probable space group: C 2/C
;
_chemical_formula_sum "Si O2"
_cell_formula_units_Z 60
_cell_length_a 19.026142
_cell_length_b 11.299873
_cell_length_c 14.623296
_cell_angle_alpha 90.000000
_cell_angle_beta 114.540931
_cell_angle_gamma 90.000000
_cell_volume 2859.900687
_symmetry_space_group_name_H-M "C 2/C"
_symmetry_group_IT_number 15
_symmetry_cell_setting 'monoclinic'
loop_
_space_group_symop_operation_xyz
x,y,z
-x,y,1/2-z
-x,-y,-z
x,-y,1/2+z
1/2+x,1/2+y,z
1/2-x,1/2+y,1/2-z
1/2-x,1/2-y,-z
1/2+x,1/2-y,1/2+z
loop_
_atom_site_type_symbol
_atom_site_label
_atom_site_fract_x
_atom_site_fract_y
_atom_site_fract_z
Si Si1 0.202822 0.907717 0.700813
Si Si2 0.339375 0.047945 0.138884
Si Si3 0.500000 0.473777 0.250000
Si Si4 0.838494 0.839002 0.377598
Si Si5 0.637164 0.288839 0.308193
Si Si6 0.760036 0.991299 0.081050
Si Si7 0.094408 0.141515 0.406172
Si Si8 0.157216 0.694407 0.786953
O O1 0.262863 0.902391 0.650049
O O2 0.160105 0.784525 0.702105
O O3 0.152656 0.022580 0.645480
O O4 0.242339 0.950544 0.818816
O O5 0.387518 0.168021 0.156915
O O6 0.368806 0.942194 0.220114
O O7 0.313177 0.001842 0.025163
O O8 0.572137 0.389125 0.276887
O O9 0.520802 0.561540 0.344358
O O10 0.850107 0.766078 0.292165
O O11 0.897456 0.808461 0.488808
O O12 0.749314 0.818310 0.359663
O O13 0.712185 0.356253 0.389145
O O14 0.829656 0.058728 0.066887
O O15 0.107464 0.239301 0.336275
#
# Coordination Sequence:
#
# PCOD9258033 Si02
#       8
#     8   8   4   8   8   8   8   8
#     4   9  18  29  48  85 119 137 170 221 290 347
#     4  11  19  31  53  81 114 147 175 231 297 322
#     4  10  24  42  54  74 110 160 196 226 262 334
#     4  10  18  32  58  83 112 142 182 239 285 325
#     4  10  21  36  52  77 110 151 192 225 264 341
#     4   9  18  31  52  80 113 140 180 231 284 327
#     4  10  19  35  58  81 113 147 189 231 277 340
#     4  10  19  31  54  90 118 140 174 237 297 330
#
# _framework density 20.979751
#
# number of rings (size 3 to 8) (size 9 to 14) (size 15 to 20)
#    0.000    2.133    4.000    1.600    1.867    0.533 
#    0.000    0.667    0.000    0.000    0.000    3.733 
#    0.000    0.000    0.000    0.000    0.000    0.000 
#
# Total GULP energy -167080.574336 kJ/mol
# GULP energy per Si atom -5569.352478 kJ/mol
# Density = 2.093200 g / cm^3
# Si number density = 20.979751 Si / 1000 Ang^3
#
#
#
# Elastic Constant Matrix: (Units=GPa)
#
#
# Indices 1 2 3 4 5 6 
#
# 1 15.7451 6.3266 6.5713 0.0000 -1.1002 0.0000
# 2 6.3266 102.9688 -19.9689 0.0000 3.7395 0.0000
# 3 6.5713 -19.9689 39.3229 0.0000 -11.8196 0.0000
# 4 0.0000 0.0000 0.0000 11.1230 0.0000 -1.5788
# 5 -1.1002 3.7395 -11.8196 0.0000 19.5086 0.0000
# 6 0.0000 0.0000 0.0000 -1.5788 0.0000 27.2318
#
#
#
# Elastic Compliance Matrix: (Units=1/GPa)
#
#
# Indices 1 2 3 4 5 6 
#
# 1 0.073728 -0.007801 -0.017830 0.000000 -0.005149 0.000000
# 2 -0.007801 0.011635 0.007837 0.000000 0.002078 0.000000
# 3 -0.017830 0.007837 0.038680 0.000000 0.020927 0.000000
# 4 0.000000 0.000000 0.000000 0.090650 0.000000 0.005256
# 5 -0.005149 0.002078 0.020927 0.000000 0.063250 0.000000
# 6 0.000000 0.000000 0.000000 0.005256 0.000000 0.037027
#
#
# Mechanical properties :
#
#
# Convention : Reuss Voigt Hill
#
# Bulk Modulus (GPa) = 11.30513 15.98831 13.64672
# Shear Modulus (GPa) = 13.15642 22.57985 17.86814
#
# Velocity S-wave (km/s) = 2.50691 3.28421 2.92153
# Velocity P-wave (km/s) = 3.71211 4.69242 4.23075
#
# Compressibility (1/GPa) = 0.08845540
#
# Stress axis : x y z
#
# Youngs Moduli (GPa) = 13.56339 85.94539 25.85316
#
# Poissons Ratio (x) = 0.67044 0.46096
# Poissons Ratio (y) = 0.10580 -0.20260
# Poissons Ratio (z) = 0.24183 -0.67353
#
# Static dielectric constant tensor:
#      x y z
#    x 1.796700 0.000000 0.019740 
#    y 0.000000 1.849020 0.000000 
#    z 0.019740 0.000000 1.802080 
# 
# From -- ./inp_files/172953.got.cif
#   From: 2010.05.17/outbox.cif.g08.bks.cpg/sg15_87_cif.got.tgz:172953.got - 2010.06.03 18:47:42.
