data_PCOD9258241
_publ_section_title
;
Structure prediction by ZEFSAII (Michael W. Deem and Ramdas Pophale) SiO2 
 PCOD9258241
Probable space group: C 2/C
;
_chemical_formula_sum "Si O2"
_cell_formula_units_Z 48
_cell_length_a 18.950273
_cell_length_b 18.556794
_cell_length_c 11.402084
_cell_angle_alpha 90.000000
_cell_angle_beta 142.848021
_cell_angle_gamma 90.000000
_cell_volume 2421.531931
_symmetry_space_group_name_H-M "C 2/C"
_symmetry_group_IT_number 15
_symmetry_cell_setting 'monoclinic'
loop_
_space_group_symop_operation_xyz
x,y,z
-x,y,1/2-z
-x,-y,-z
x,-y,1/2+z
1/2+x,1/2+y,z
1/2-x,1/2+y,1/2-z
1/2-x,1/2-y,-z
1/2+x,1/2-y,1/2+z
loop_
_atom_site_type_symbol
_atom_site_label
_atom_site_fract_x
_atom_site_fract_y
_atom_site_fract_z
Si Si1 0.834723 0.273308 0.717456
Si Si2 0.180753 0.865533 0.664131
Si Si3 0.500000 0.568803 0.750000
Si Si4 0.419042 0.219474 0.877084
Si Si5 0.797559 0.860036 0.343423
Si Si6 0.500000 0.709430 0.250000
Si Si7 0.132102 0.006173 0.721871
O O1 0.750000 0.250000 0.500000
O O2 0.784530 0.344898 0.713554
O O3 0.821934 0.204924 0.785511
O O4 0.973422 0.284390 0.888633
O O5 0.153854 0.791907 0.694624
O O6 0.067157 0.883832 0.434775
O O7 0.194933 0.931494 0.772605
O O8 0.603660 0.525415 0.819679
O O9 0.330565 0.153391 0.773352
O O10 0.468203 0.236828 0.813926
O O11 0.895640 0.843923 0.571488
O O12 0.811896 0.931422 0.284435
O O13 0.000000 0.000000 0.500000
#
# Coordination Sequence:
#
# PCOD9258241 Si02
#       7
#     8   8   4   8   8   4   8
#     4  10  19  35  56  79 108 145 186 229 274 328
#     4  10  20  32  51  79 105 138 181 227 274 326
#     4  10  18  33  52  76 108 137 172 228 282 329
#     4  10  21  35  53  79 109 142 183 229 278 328
#     4  10  21  34  53  80 107 141 180 228 278 327
#     4  10  18  35  54  76 106 141 180 220 272 335
#     4  10  20  33  51  79 107 137 179 226 278 329
#
# _framework density 19.822161999999999
#
# number of rings (size 3 to 8) (size 9 to 14) (size 15 to 20)
#    0.000    2.000    0.000    6.500    0.000    8.000 
#    0.000    0.833    0.000    0.000    0.000    9.333 
#    0.000    0.000    0.000    0.000    0.000    0.000 
#
# Total GULP energy -133729.140332 kJ/mol
# GULP energy per Si atom -5572.047514 kJ/mol
# Density = 1.977705 g / cm^3
# Si number density = 19.822162 Si / 1000 Ang^3
#
#
#
# Elastic Constant Matrix: (Units=GPa)
#
#
# Indices 1 2 3 4 5 6 
#
# 1 93.2591 49.9867 25.0828 0.0000 7.5566 0.0000
# 2 49.9867 100.9534 5.7798 0.0000 9.2356 0.0000
# 3 25.0828 5.7798 75.5436 0.0000 5.3916 0.0000
# 4 0.0000 0.0000 0.0000 11.5085 0.0000 7.6818
# 5 7.5566 9.2356 5.3916 0.0000 29.4757 0.0000
# 6 0.0000 0.0000 0.0000 7.6818 0.0000 33.4998
#
#
#
# Elastic Compliance Matrix: (Units=1/GPa)
#
#
# Indices 1 2 3 4 5 6 
#
# 1 0.016166 -0.007653 -0.004719 0.000000 -0.000883 0.000000
# 2 -0.007653 0.013845 0.001673 0.000000 -0.002682 0.000000
# 3 -0.004719 0.001673 0.014821 0.000000 -0.002025 0.000000
# 4 0.000000 0.000000 0.000000 0.102595 0.000000 -0.023526
# 5 -0.000883 -0.002682 -0.002025 0.000000 0.035363 0.000000
# 6 0.000000 0.000000 0.000000 -0.023526 0.000000 0.035246
#
#
# Mechanical properties :
#
#
# Convention : Reuss Voigt Hill
#
# Bulk Modulus (GPa) = 42.67466 47.93942 45.30704
# Shear Modulus (GPa) = 20.22287 27.49060 23.85674
#
# Velocity S-wave (km/s) = 3.19755 3.72810 3.47297
# Velocity P-wave (km/s) = 5.93362 6.53979 6.24407
#
# Compressibility (1/GPa) = 0.02343311
#
# Stress axis : x y z
#
# Youngs Moduli (GPa) = 61.85882 72.22981 67.47290
#
# Poissons Ratio (x) = 0.55281 0.31840
# Poissons Ratio (y) = 0.47344 -0.11291
# Poissons Ratio (z) = 0.29191 -0.12087
#
# Static dielectric constant tensor:
#      x y z
#    x 1.801470 0.000000 -0.044810 
#    y 0.000000 1.712960 0.000000 
#    z -0.044810 0.000000 1.749070 
# 
# From -- ./inp_files/113551.got.cif
#   From: 2010.05.17/outbox.cif.g08.bks.cpg/sg15_57_cif.got.tgz:113551.got - 2010.06.03 18:47:42.
