data_PCOD9258713
_publ_section_title
;
Structure prediction by ZEFSAII (Michael W. Deem and Ramdas Pophale) SiO2 
 PCOD9258713
Probable space group: C 2/C
;
_chemical_formula_sum "Si O2"
_cell_formula_units_Z 56
_cell_length_a 21.887612
_cell_length_b 17.766188
_cell_length_c 27.729003
_cell_angle_alpha 90.000000
_cell_angle_beta 161.325502
_cell_angle_gamma 90.000000
_cell_volume 3452.522362
_symmetry_space_group_name_H-M "C 2/C"
_symmetry_group_IT_number 15
_symmetry_cell_setting 'monoclinic'
loop_
_space_group_symop_operation_xyz
x,y,z
-x,y,1/2-z
-x,-y,-z
x,-y,1/2+z
1/2+x,1/2+y,z
1/2-x,1/2+y,1/2-z
1/2-x,1/2-y,-z
1/2+x,1/2-y,1/2+z
loop_
_atom_site_type_symbol
_atom_site_label
_atom_site_fract_x
_atom_site_fract_y
_atom_site_fract_z
Si Si1 0.883585 0.262811 0.931180
Si Si2 0.507165 0.477460 0.585158
Si Si3 0.633420 0.069936 0.085169
Si Si4 0.394418 0.900414 0.044919
Si Si5 0.447135 0.268914 0.586568
Si Si6 0.208099 0.419075 0.428375
Si Si7 0.352747 0.605640 0.874860
O O1 0.953198 0.346461 0.970514
O O2 0.653533 0.270614 0.766197
O O3 0.974803 0.234972 0.049394
O O4 0.903316 0.193617 0.909435
O O5 0.677747 0.438463 0.741848
O O6 0.327046 0.478382 0.485877
O O7 0.578964 0.557298 0.619259
O O8 0.449747 0.429611 0.495038
O O9 0.678122 0.071492 0.061159
O O10 0.500000 0.000000 0.000000
O O11 0.317375 0.940737 0.034824
O O12 0.625082 0.903261 0.212519
O O13 0.350595 0.812289 0.022592
O O14 0.321759 0.340391 0.506601
O O15 0.000000 0.408600 0.250000
#
# Coordination Sequence:
#
# PCOD9258713 Si02
#       7
#     8   8   8   8   8   8   8
#     4  10  18  34  53  76 104 143 178 213 264 312
#     4  11  21  35  54  73 108 139 181 223 261 300
#     4  11  21  35  52  78 111 138 174 223 270 316
#     4  10  21  32  52  74 108 145 179 209 264 314
#     4  10  19  32  48  73 109 145 173 209 247 323
#     4  12  20  34  50  78 109 146 181 216 254 317
#     4  10  19  36  55  75 100 144 184 222 254 312
#
# _framework density 16.220025
#
# number of rings (size 3 to 8) (size 9 to 14) (size 15 to 20)
#    0.000    1.429    5.714    1.286    0.000    0.571 
#    0.000    0.000    0.000    0.000    0.000    1.000 
#    0.000    0.000    0.000    0.000    0.000    0.000 
#
# Total GULP energy -156085.883516 kJ/mol
# GULP energy per Si atom -5574.495840 kJ/mol
# Density = 1.618311 g / cm^3
# Si number density = 16.220025 Si / 1000 Ang^3
#
#
#
# Elastic Constant Matrix: (Units=GPa)
#
#
# Indices 1 2 3 4 5 6 
#
# 1 95.6182 53.9748 22.9990 0.0051 -2.9240 -0.0061
# 2 53.9748 93.6243 9.8086 -0.0218 9.1107 0.0044
# 3 22.9990 9.8086 62.6704 0.0352 -12.8874 -0.0163
# 4 0.0051 -0.0218 0.0352 19.4720 -0.0098 -0.9311
# 5 -2.9240 9.1107 -12.8874 -0.0098 28.2866 -0.0018
# 6 -0.0061 0.0044 -0.0163 -0.9311 -0.0018 28.6572
#
#
#
# Elastic Compliance Matrix: (Units=1/GPa)
#
#
# Indices 1 2 3 4 5 6 
#
# 1 0.016988 -0.009654 -0.004107 -0.000006 0.002994 0.000003
# 2 -0.009654 0.016947 -0.000482 0.000019 -0.006676 -0.000005
# 3 -0.004107 -0.000482 0.019291 -0.000030 0.008520 0.000010
# 4 -0.000006 0.000019 -0.000030 0.051436 -0.000002 0.001671
# 5 0.002994 -0.006676 0.008520 -0.000002 0.041694 0.000009
# 6 0.000003 -0.000005 0.000010 0.001671 0.000009 0.034950
#
#
# Mechanical properties :
#
#
# Convention : Reuss Voigt Hill
#
# Bulk Modulus (GPa) = 40.42402 47.27530 43.84966
# Shear Modulus (GPa) = 22.93165 26.29186 24.61176
#
# Velocity S-wave (km/s) = 3.76411 4.03047 3.89957
# Velocity P-wave (km/s) = 6.62328 7.13226 6.88248
#
# Compressibility (1/GPa) = 0.02473777
#
# Stress axis : x y z
#
# Youngs Moduli (GPa) = 58.86663 59.00744 51.83667
#
# Poissons Ratio (x) = 0.56969 0.21291
# Poissons Ratio (y) = 0.56833 0.02500
# Poissons Ratio (z) = 0.24179 0.02845
#
# Static dielectric constant tensor:
#      x y z
#    x 1.556830 -0.000010 -0.023570 
#    y -0.000010 1.580450 -0.000040 
#    z -0.023570 -0.000040 1.567440 
# 
# From -- ./inp_files/61495.got.cif
#   From: 2010.05.17/outbox.cif.g08.bks.cpg/sg15_31_cif.got.tgz:61495.got - 2010.06.03 18:47:42.
