data_PCOD9258576
_publ_section_title
;
Structure prediction by ZEFSAII (Michael W. Deem and Ramdas Pophale) SiO2 
 PCOD9258576
Probable space group: C 2/C
;
_chemical_formula_sum "Si O2"
_cell_formula_units_Z 44
_cell_length_a 16.084737
_cell_length_b 11.901851
_cell_length_c 8.591120
_cell_angle_alpha 90.000000
_cell_angle_beta 89.407659
_cell_angle_gamma 90.000000
_cell_volume 1644.580170
_symmetry_space_group_name_H-M "C 2/C"
_symmetry_group_IT_number 15
_symmetry_cell_setting 'monoclinic'
loop_
_space_group_symop_operation_xyz
x,y,z
-x,y,1/2-z
-x,-y,-z
x,-y,1/2+z
1/2+x,1/2+y,z
1/2-x,1/2+y,1/2-z
1/2-x,1/2-y,-z
1/2+x,1/2-y,1/2+z
loop_
_atom_site_type_symbol
_atom_site_label
_atom_site_fract_x
_atom_site_fract_y
_atom_site_fract_z
Si Si1 0.901619 0.841478 0.748372
Si Si2 0.066154 0.460598 0.129569
Si Si3 0.630651 0.842618 0.851967
Si Si4 0.359741 0.467523 0.436225
Si Si5 0.000000 0.172332 0.750000
Si Si6 0.262958 0.197940 0.670503
O O1 0.869546 0.925989 0.612276
O O2 0.857347 0.724396 0.709919
O O3 0.000000 0.839256 0.750000
O O4 0.870812 0.901388 0.906461
O O5 0.109029 0.563372 0.221560
O O6 0.000000 0.406332 0.250000
O O7 0.134257 0.398638 0.020765
O O8 0.000000 0.500000 0.000000
O O9 0.552841 0.756645 0.855771
O O10 0.707932 0.770135 0.791004
O O11 0.436141 0.403223 0.348507
O O12 0.275520 0.424374 0.354651
O O13 0.250000 0.250000 0.500000
#
# Coordination Sequence:
#
# PCOD9258576 Si02
#       6
#     8   8   8   8   4   8
#     4  11  22  42  71  99 130 182 236 283 345 420
#     4   9  16  30  54  89 124 170 225 268 337 420
#     4  10  18  33  60  84 134 174 225 278 353 415
#     4  10  22  40  70  94 132 174 229 287 348 409
#     4  10  18  34  60  88 124 172 216 270 350 402
#     4   9  22  41  64  97 136 180 229 292 356 414
#
# _framework density 26.754549999999998
#
# number of rings (size 3 to 8) (size 9 to 14) (size 15 to 20)
#    0.000    2.182    3.636    0.545    0.000    2.909 
#    0.000    1.818    8.000    0.000    2.364    1.273 
#    0.000    0.000    0.000    0.000    0.000    0.000 
#
# Total GULP energy -123244.139991 kJ/mol
# GULP energy per Si atom -5602.006363 kJ/mol
# Density = 2.669366 g / cm^3
# Si number density = 26.754550 Si / 1000 Ang^3
#
#
#
# Elastic Constant Matrix: (Units=GPa)
#
#
# Indices 1 2 3 4 5 6 
#
# 1 155.6998 51.9846 27.2069 0.0000 20.6217 0.0000
# 2 51.9846 82.1924 43.6347 0.0000 16.2387 0.0000
# 3 27.2069 43.6347 150.1924 0.0000 -1.4775 0.0000
# 4 0.0000 0.0000 0.0000 45.2533 0.0000 4.0401
# 5 20.6217 16.2387 -1.4775 0.0000 42.1109 0.0000
# 6 0.0000 0.0000 0.0000 4.0401 0.0000 37.9047
#
#
#
# Elastic Compliance Matrix: (Units=1/GPa)
#
#
# Indices 1 2 3 4 5 6 
#
# 1 0.008332 -0.004742 -0.000154 0.000000 -0.002257 0.000000
# 2 -0.004742 0.018593 -0.004592 0.000000 -0.005009 0.000000
# 3 -0.000154 -0.004592 0.008041 0.000000 0.002128 0.000000
# 4 0.000000 0.000000 0.000000 0.022310 0.000000 -0.002378
# 5 -0.002257 -0.005009 0.002128 0.000000 0.026858 0.000000
# 6 0.000000 0.000000 0.000000 -0.002378 0.000000 0.026635
#
#
# Mechanical properties :
#
#
# Convention : Reuss Voigt Hill
#
# Bulk Modulus (GPa) = 62.53854 70.41525 66.47689
# Shear Modulus (GPa) = 37.01633 42.73766 39.87700
#
# Velocity S-wave (km/s) = 3.72365 4.00108 3.86486
# Velocity P-wave (km/s) = 6.47403 6.90804 6.69455
#
# Compressibility (1/GPa) = 0.01599014
#
# Stress axis : x y z
#
# Youngs Moduli (GPa) = 120.02422 53.78292 124.36215
#
# Poissons Ratio (x) = 0.25504 0.01912
# Poissons Ratio (y) = 0.56916 0.57108
# Poissons Ratio (z) = 0.01846 0.24698
#
# Static dielectric constant tensor:
#      x y z
#    x 2.139890 0.000000 0.022800 
#    y 0.000000 2.125770 0.000000 
#    z 0.022800 0.000000 2.071510 
# 
# From -- ./inp_files/47148.got.cif
#   From: 2010.05.17/outbox.cif.g08.bks.cpg/sg15_24_cif.got.tgz:47148.got - 2010.06.03 18:47:42.
