data_PCOD9258231
_publ_section_title
;
Structure prediction by ZEFSAII (Michael W. Deem and Ramdas Pophale) SiO2 
 PCOD9258231
Probable space group: C 2/C
;
_chemical_formula_sum "Si O2"
_cell_formula_units_Z 40
_cell_length_a 10.929763
_cell_length_b 20.594572
_cell_length_c 18.285594
_cell_angle_alpha 90.000000
_cell_angle_beta 155.246757
_cell_angle_gamma 90.000000
_cell_volume 1723.404024
_symmetry_space_group_name_H-M "C 2/C"
_symmetry_group_IT_number 15
_symmetry_cell_setting 'monoclinic'
loop_
_space_group_symop_operation_xyz
x,y,z
-x,y,1/2-z
-x,-y,-z
x,-y,1/2+z
1/2+x,1/2+y,z
1/2-x,1/2+y,1/2-z
1/2-x,1/2-y,-z
1/2+x,1/2-y,1/2+z
loop_
_atom_site_type_symbol
_atom_site_label
_atom_site_fract_x
_atom_site_fract_y
_atom_site_fract_z
Si Si1 0.448577 0.208069 0.837973
Si Si2 0.000000 0.907111 0.750000
Si Si3 0.490426 0.197297 0.470741
Si Si4 0.326288 0.591268 0.002349
Si Si5 0.061384 0.360251 0.703550
Si Si6 0.000000 0.512400 0.250000
O O1 0.210118 0.240858 0.657206
O O2 0.750000 0.250000 0.000000
O O3 0.333999 0.208373 0.859567
O O4 0.545955 0.136904 0.864597
O O5 0.267391 0.859776 0.874811
O O6 0.086874 0.941042 0.872526
O O7 0.604757 0.171881 0.454519
O O8 0.593493 0.637981 0.125563
O O9 0.262127 0.537023 0.908102
O O10 0.001260 0.437143 0.683297
O O11 0.000000 0.330578 0.750000
#
# Coordination Sequence:
#
# PCOD9258231 Si02
#       6
#     8   4   8   8   8   4
#     4  11  18  30  59  82 110 128 177 245 273 310
#     4   8  16  29  50  72 114 129 164 230 280 312
#     4  10  18  33  51  83 106 142 173 223 282 320
#     4  10  19  34  54  88  99 137 193 229 270 311
#     4   9  20  36  54  74 116 154 177 214 278 336
#     4  10  22  33  60  78 106 149 190 230 252 320
#
# _framework density 23.209879999999998
#
# number of rings (size 3 to 8) (size 9 to 14) (size 15 to 20)
#    0.600    1.600    6.000    0.600    2.800    0.000 
#    0.000   10.000    0.000    0.000    0.000    0.000 
#    0.000    0.000    0.000    0.000    0.000    0.000 
#
# Total GULP energy -111514.496829 kJ/mol
# GULP energy per Si atom -5575.724841 kJ/mol
# Density = 2.315705 g / cm^3
# Si number density = 23.209880 Si / 1000 Ang^3
#
#
#
# Elastic Constant Matrix: (Units=GPa)
#
#
# Indices 1 2 3 4 5 6 
#
# 1 143.8071 25.1391 29.1446 0.0091 -31.7022 -0.0074
# 2 25.1391 74.3895 21.7963 0.0393 -8.3628 0.0283
# 3 29.1446 21.7963 54.5852 0.0460 -16.3473 0.0778
# 4 0.0091 0.0393 0.0460 4.2149 0.0114 -4.2739
# 5 -31.7022 -8.3628 -16.3473 0.0114 24.9581 0.0074
# 6 -0.0074 0.0283 0.0778 -4.2739 0.0074 19.7015
#
#
#
# Elastic Compliance Matrix: (Units=1/GPa)
#
#
# Indices 1 2 3 4 5 6 
#
# 1 0.010005 -0.001741 -0.001263 -0.000019 0.011297 0.000003
# 2 -0.001741 0.015566 -0.005457 -0.000105 -0.000569 -0.000024
# 3 -0.001263 -0.005457 0.025062 -0.000452 0.012983 -0.000195
# 4 -0.000019 -0.000105 -0.000452 0.304167 -0.000515 0.065986
# 5 0.011297 -0.000569 0.012983 -0.000515 0.062730 -0.000182
# 6 0.000003 -0.000024 -0.000195 0.065986 -0.000182 0.065073
#
#
# Mechanical properties :
#
#
# Convention : Reuss Voigt Hill
#
# Bulk Modulus (GPa) = 29.66362 47.21573 38.43968
# Shear Modulus (GPa) = 9.78932 22.88836 16.33884
#
# Velocity S-wave (km/s) = 2.05594 3.14371 2.65610
# Velocity P-wave (km/s) = 4.29467 5.79347 5.09944
#
# Compressibility (1/GPa) = 0.03371132
#
# Stress axis : x y z
#
# Youngs Moduli (GPa) = 99.95451 64.24317 39.90101
#
# Poissons Ratio (x) = 0.11183 0.05041
# Poissons Ratio (y) = 0.17400 0.21772
# Poissons Ratio (z) = 0.12627 0.35054
#
# Static dielectric constant tensor:
#      x y z
#    x 1.981790 -0.000010 -0.007650 
#    y -0.000010 1.864270 -0.000010 
#    z -0.007650 -0.000010 1.958810 
# 
# From -- ./inp_files/240157.got.cif
#   From: 2010.05.17/outbox.cif.g08.bks.cpg/sg15_121_cif.got.tgz:240157.got - 2010.06.03 18:47:42.
