data_PCOD9258586
_publ_section_title
;
Structure prediction by ZEFSAII (Michael W. Deem and Ramdas Pophale) SiO2 
 PCOD9258586
Probable space group: C 2/C
;
_chemical_formula_sum "Si O2"
_cell_formula_units_Z 48
_cell_length_a 25.356888
_cell_length_b 15.003046
_cell_length_c 10.290869
_cell_angle_alpha 90.000000
_cell_angle_beta 143.420546
_cell_angle_gamma 90.000000
_cell_volume 2333.069934
_symmetry_space_group_name_H-M "C 2/C"
_symmetry_group_IT_number 15
_symmetry_cell_setting 'monoclinic'
loop_
_space_group_symop_operation_xyz
x,y,z
-x,y,1/2-z
-x,-y,-z
x,-y,1/2+z
1/2+x,1/2+y,z
1/2-x,1/2+y,1/2-z
1/2-x,1/2-y,-z
1/2+x,1/2-y,1/2+z
loop_
_atom_site_type_symbol
_atom_site_label
_atom_site_fract_x
_atom_site_fract_y
_atom_site_fract_z
Si Si1 0.077259 0.964443 0.501233
Si Si2 0.215241 0.825015 0.765028
Si Si3 0.341214 0.232996 0.103749
Si Si4 0.013127 0.414532 0.620338
Si Si5 0.477742 0.358153 0.521270
Si Si6 0.112287 0.280030 0.278415
O O1 0.169652 0.919785 0.647812
O O2 0.000000 0.936610 0.250000
O O3 0.044479 0.921975 0.572013
O O4 0.077559 0.071225 0.504837
O O5 0.184276 0.757456 0.593063
O O6 0.171254 0.786487 0.808397
O O7 0.320265 0.828198 0.991299
O O8 0.392859 0.138212 0.213163
O O9 0.411431 0.305384 0.296022
O O10 0.250000 0.250000 0.000000
O O11 0.000000 0.431730 0.750000
O O12 0.000000 0.500000 0.500000
O O13 0.938844 0.345793 0.419953
O O14 0.539794 0.282038 0.703110
#
# Coordination Sequence:
#
# PCOD9258586 Si02
#       6
#     8   8   8   8   8   8
#     4  10  18  33  60  87 118 155 199 251 308 380
#     4  10  19  37  64  90 119 163 212 259 317 390
#     4  11  23  40  64  94 130 172 219 273 334 399
#     4  11  24  45  70  95 132 183 232 281 339 409
#     4   9  20  35  55  89 119 154 200 250 315 379
#     4   9  20  38  64  89 118 164 213 260 322 390
#
# _framework density 20.573751999999999
#
# number of rings (size 3 to 8) (size 9 to 14) (size 15 to 20)
#    0.000    2.000    3.333    0.000    0.000    4.000 
#    0.000    3.333    0.000    0.000    0.000    0.000 
#    0.000    0.000    0.000    0.000    0.000    0.000 
#
# Total GULP energy -133704.591566 kJ/mol
# GULP energy per Si atom -5571.024649 kJ/mol
# Density = 2.052692 g / cm^3
# Si number density = 20.573752 Si / 1000 Ang^3
#
#
#
# Elastic Constant Matrix: (Units=GPa)
#
#
# Indices 1 2 3 4 5 6 
#
# 1 70.9664 45.3265 36.6517 0.0000 -0.7642 0.0000
# 2 45.3265 108.0941 57.2159 0.0000 -5.8948 0.0000
# 3 36.6517 57.2159 150.0527 0.0000 -1.6533 0.0000
# 4 0.0000 0.0000 0.0000 6.9331 0.0000 -8.1958
# 5 -0.7642 -5.8948 -1.6533 0.0000 10.7332 0.0000
# 6 0.0000 0.0000 0.0000 -8.1958 0.0000 23.4798
#
#
#
# Elastic Compliance Matrix: (Units=1/GPa)
#
#
# Indices 1 2 3 4 5 6 
#
# 1 0.019845 -0.007392 -0.002061 0.000000 -0.002964 0.000000
# 2 -0.007392 0.014702 -0.003724 0.000000 0.006975 0.000000
# 3 -0.002061 -0.003724 0.008578 0.000000 -0.000870 0.000000
# 4 0.000000 0.000000 0.000000 0.245561 0.000000 0.085715
# 5 -0.002964 0.006975 -0.000870 0.000000 0.096654 0.000000
# 6 0.000000 0.000000 0.000000 0.085715 0.000000 0.072509
#
#
# Mechanical properties :
#
#
# Convention : Reuss Voigt Hill
#
# Bulk Modulus (GPa) = 59.62557 67.50015 63.56286
# Shear Modulus (GPa) = 10.20836 20.89051 15.54943
#
# Velocity S-wave (km/s) = 2.22993 3.18998 2.75215
# Velocity P-wave (km/s) = 5.97281 6.81528 6.40791
#
# Compressibility (1/GPa) = 0.01677133
#
# Stress axis : x y z
#
# Youngs Moduli (GPa) = 50.38977 68.01694 116.57643
#
# Poissons Ratio (x) = 0.50279 0.24031
# Poissons Ratio (y) = 0.37249 0.43408
# Poissons Ratio (z) = 0.10387 0.25327
#
# Static dielectric constant tensor:
#      x y z
#    x 1.786840 0.000000 -0.000600 
#    y 0.000000 1.766100 0.000000 
#    z -0.000600 0.000000 1.764150 
# 
# From -- ./inp_files/123603.got.cif
#   From: 2010.05.17/outbox.cif.g08.bks.cpg/sg15_62_cif.got.tgz:123603.got - 2010.06.03 18:47:42.
