data_PCOD9258608
_publ_section_title
;
Structure prediction by ZEFSAII (Michael W. Deem and Ramdas Pophale) SiO2 
 PCOD9258608
Probable space group: C 2/C
;
_chemical_formula_sum "Si O2"
_cell_formula_units_Z 36
_cell_length_a 13.421563
_cell_length_b 14.230345
_cell_length_c 8.670682
_cell_angle_alpha 90.000000
_cell_angle_beta 108.115771
_cell_angle_gamma 90.000000
_cell_volume 1573.953873
_symmetry_space_group_name_H-M "C 2/C"
_symmetry_group_IT_number 15
_symmetry_cell_setting 'monoclinic'
loop_
_space_group_symop_operation_xyz
x,y,z
-x,y,1/2-z
-x,-y,-z
x,-y,1/2+z
1/2+x,1/2+y,z
1/2-x,1/2+y,1/2-z
1/2-x,1/2-y,-z
1/2+x,1/2-y,1/2+z
loop_
_atom_site_type_symbol
_atom_site_label
_atom_site_fract_x
_atom_site_fract_y
_atom_site_fract_z
Si Si1 0.592782 0.369650 0.581750
Si Si2 0.500000 0.518617 0.750000
Si Si3 0.710036 0.107539 0.484827
Si Si4 0.335867 0.930736 0.210272
Si Si5 0.000000 0.718736 0.750000
Si Si6 0.500000 0.924037 0.750000
O O1 0.585004 0.449015 0.711568
O O2 0.544145 0.417007 0.406945
O O3 0.708685 0.339425 0.584705
O O4 0.528691 0.283738 0.620128
O O5 0.726423 0.108536 0.674595
O O6 0.588467 0.130512 0.387464
O O7 0.723532 0.997998 0.436342
O O8 0.400630 0.846860 0.166266
O O9 0.426086 0.004868 0.313550
#
# Coordination Sequence:
#
# PCOD9258608 Si02
#       6
#     8   4   8   8   4   4
#     4  10  20  37  61  86 114 158 196 243 289 352
#     4   9  20  39  59  81 116 160 204 233 282 361
#     4  10  18  33  61  85 109 156 201 226 286 360
#     4   9  19  35  58  87 121 149 187 249 288 342
#     4  10  22  36  56  87 131 150 182 252 308 322
#     4   7  18  29  55  86 111 140 188 243 270 343
#
# _framework density 22.872333999999999
#
# number of rings (size 3 to 8) (size 9 to 14) (size 15 to 20)
#    1.333    1.333    0.000    2.000    0.000    0.889 
#    0.000    3.333    0.000   37.333    0.000    0.000 
#    0.000    0.000    0.000    0.000    0.000    0.000 
#
# Total GULP energy -100339.762770 kJ/mol
# GULP energy per Si atom -5574.431265 kJ/mol
# Density = 2.282028 g / cm^3
# Si number density = 22.872334 Si / 1000 Ang^3
#
#
#
# Elastic Constant Matrix: (Units=GPa)
#
#
# Indices 1 2 3 4 5 6 
#
# 1 89.8793 24.5487 32.5560 0.0000 -32.5341 0.0000
# 2 24.5487 68.8289 40.5355 0.0000 -15.9391 0.0000
# 3 32.5560 40.5355 78.9483 0.0000 -22.1842 0.0000
# 4 0.0000 0.0000 0.0000 15.8471 0.0000 -13.9747
# 5 -32.5341 -15.9391 -22.1842 0.0000 39.1019 0.0000
# 6 0.0000 0.0000 0.0000 -13.9747 0.0000 29.0779
#
#
#
# Elastic Compliance Matrix: (Units=1/GPa)
#
#
# Indices 1 2 3 4 5 6 
#
# 1 0.016844 -0.001634 -0.002803 0.000000 0.011758 0.000000
# 2 -0.001634 0.021261 -0.009743 0.000000 0.001780 0.000000
# 3 -0.002803 -0.009743 0.020288 0.000000 0.005207 0.000000
# 4 0.000000 0.000000 0.000000 0.109518 0.000000 0.052634
# 5 0.011758 0.001780 0.005207 0.000000 0.039037 0.000000
# 6 0.000000 0.000000 0.000000 0.052634 0.000000 0.059686
#
#
# Mechanical properties :
#
#
# Convention : Reuss Voigt Hill
#
# Bulk Modulus (GPa) = 33.29546 48.10408 40.69977
# Shear Modulus (GPa) = 16.39323 26.13980 21.26651
#
# Velocity S-wave (km/s) = 2.68008 3.38428 3.05256
# Velocity P-wave (km/s) = 4.91587 6.02896 5.50064
#
# Compressibility (1/GPa) = 0.03003413
#
# Stress axis : x y z
#
# Youngs Moduli (GPa) = 59.36894 47.03352 49.29101
#
# Poissons Ratio (x) = 0.07685 0.13816
# Poissons Ratio (y) = 0.09700 0.48022
# Poissons Ratio (z) = 0.16641 0.45823
#
# Static dielectric constant tensor:
#      x y z
#    x 1.926100 0.000000 0.003080 
#    y 0.000000 1.877490 0.000000 
#    z 0.003080 0.000000 1.830350 
# 
# From -- ./inp_files/37594.got.cif
#   From: 2010.05.17/outbox.cif.g08.bks.cpg/sg15_19_cif.got.tgz:37594.got - 2010.06.03 18:47:42.
