data_PCOD9258774
_publ_section_title
;
Structure prediction by ZEFSAII (Michael W. Deem and Ramdas Pophale) SiO2 
 PCOD9258774
Probable space group: C 2/C
;
_chemical_formula_sum "Si O2"
_cell_formula_units_Z 44
_cell_length_a 12.110018
_cell_length_b 22.703973
_cell_length_c 7.360358
_cell_angle_alpha 90.000000
_cell_angle_beta 126.667326
_cell_angle_gamma 90.000000
_cell_volume 1623.240769
_symmetry_space_group_name_H-M "C 2/C"
_symmetry_group_IT_number 15
_symmetry_cell_setting 'monoclinic'
loop_
_space_group_symop_operation_xyz
x,y,z
-x,y,1/2-z
-x,-y,-z
x,-y,1/2+z
1/2+x,1/2+y,z
1/2-x,1/2+y,1/2-z
1/2-x,1/2-y,-z
1/2+x,1/2-y,1/2+z
loop_
_atom_site_type_symbol
_atom_site_label
_atom_site_fract_x
_atom_site_fract_y
_atom_site_fract_z
Si Si1 0.489642 0.303773 0.954511
Si Si2 0.692522 0.916832 0.917386
Si Si3 0.547050 0.433107 0.544607
Si Si4 0.500000 0.863706 0.250000
Si Si5 0.683723 0.953741 0.514101
Si Si6 0.835797 0.299927 0.766269
O O1 0.500000 0.290566 0.750000
O O2 0.532044 0.372166 0.017446
O O3 0.326896 0.296688 0.845026
O O4 0.591668 0.263268 0.173925
O O5 0.630643 0.932852 0.658047
O O6 0.655402 0.847677 0.891366
O O7 0.855243 0.923458 0.036114
O O8 0.661250 0.976843 0.990393
O O9 0.500000 0.500000 0.500000
O O10 0.343058 0.435898 0.680143
O O11 0.614989 0.911373 0.299340
O O12 0.577806 0.825657 0.476663
#
# Coordination Sequence:
#
# PCOD9258774 Si02
#       6
#     8   8   8   4   8   8
#     4  11  21  34  55  84 118 156 197 247 307 354
#     4   8  19  36  53  85 121 150 197 243 301 349
#     4   9  21  34  53  86 115 151 194 249 299 355
#     4  10  18  34  54  84 124 146 198 246 306 348
#     4   9  19  34  55  82 121 154 189 248 298 355
#     4  10  21  35  53  85 120 157 192 253 298 360
#
# _framework density 27.106269000000001
#
# number of rings (size 3 to 8) (size 9 to 14) (size 15 to 20)
#    1.091    1.455    2.727    0.545    2.545    2.909 
#    0.000    0.000    0.000    1.091    0.000    5.091 
#    0.000    0.000    0.000    0.000    0.000    0.000 
#
# Total GULP energy -122626.441812 kJ/mol
# GULP energy per Si atom -5573.929173 kJ/mol
# Density = 2.704457 g / cm^3
# Si number density = 27.106269 Si / 1000 Ang^3
#
#
#
# Elastic Constant Matrix: (Units=GPa)
#
#
# Indices 1 2 3 4 5 6 
#
# 1 48.6525 34.4236 20.8936 0.0000 17.0400 0.0000
# 2 34.4236 274.6262 71.1787 0.0000 14.8192 0.0000
# 3 20.8936 71.1787 115.2908 0.0000 16.9777 0.0000
# 4 0.0000 0.0000 0.0000 40.3144 0.0000 24.4069
# 5 17.0400 14.8192 16.9777 0.0000 34.6752 0.0000
# 6 0.0000 0.0000 0.0000 24.4069 0.0000 14.2432
#
#
#
# Elastic Compliance Matrix: (Units=1/GPa)
#
#
# Indices 1 2 3 4 5 6 
#
# 1 0.026933 -0.002299 -0.001786 0.000000 -0.011378 0.000000
# 2 -0.002299 0.004542 -0.002444 0.000000 0.000385 0.000000
# 3 -0.001786 -0.002444 0.011018 0.000000 -0.003472 0.000000
# 4 0.000000 0.000000 0.000000 -0.662733 0.000000 1.135650
# 5 -0.011378 0.000385 -0.003472 0.000000 0.035966 0.000000
# 6 0.000000 0.000000 0.000000 1.135650 0.000000 -1.875824
#
#
# Mechanical properties :
#
#
# Convention : Reuss Voigt Hill
#
# Bulk Modulus (GPa) = 33.97440 76.84013 55.40727
# Shear Modulus (GPa) = -2.05151 38.65144 18.29996
#
# Velocity S-wave (km/s) = -0.87091 3.78024 2.60112
# Velocity P-wave (km/s) = 3.39848 6.88933 5.43197
#
# Compressibility (1/GPa) = 0.02943393
#
# Stress axis : x y z
#
# Youngs Moduli (GPa) = 37.12969 220.15509 90.76182
#
# Poissons Ratio (x) = 0.50615 0.16209
# Poissons Ratio (y) = 0.08536 0.22186
# Poissons Ratio (z) = 0.06631 0.53815
#
# Static dielectric constant tensor:
#      x y z
#    x 2.413000 0.000000 0.073560 
#    y 0.000000 2.193870 0.000000 
#    z 0.073560 0.000000 2.258600 
# 
# From -- ./inp_files/89220.got.cif
#   From: 2010.05.17/outbox.cif.g08.bks.cpg/sg15_45_cif.got.tgz:89220.got - 2010.06.03 18:47:42.
