data_PCOD9258843
_publ_section_title
;
Structure prediction by ZEFSAII (Michael W. Deem and Ramdas Pophale) SiO2 
 PCOD9258843
Probable space group: C 2/C
;
_chemical_formula_sum "Si O2"
_cell_formula_units_Z 48
_cell_length_a 9.082105
_cell_length_b 10.287722
_cell_length_c 24.731900
_cell_angle_alpha 90.000000
_cell_angle_beta 99.319728
_cell_angle_gamma 90.000000
_cell_volume 2280.301998
_symmetry_space_group_name_H-M "C 2/C"
_symmetry_group_IT_number 15
_symmetry_cell_setting 'monoclinic'
loop_
_space_group_symop_operation_xyz
x,y,z
-x,y,1/2-z
-x,-y,-z
x,-y,1/2+z
1/2+x,1/2+y,z
1/2-x,1/2+y,1/2-z
1/2-x,1/2-y,-z
1/2+x,1/2-y,1/2+z
loop_
_atom_site_type_symbol
_atom_site_label
_atom_site_fract_x
_atom_site_fract_y
_atom_site_fract_z
Si Si1 0.448467 0.401968 0.149310
Si Si2 0.616596 0.309769 0.827295
Si Si3 0.156697 0.182197 0.570000
Si Si4 0.073752 0.384203 0.472813
Si Si5 0.094955 0.650621 0.204565
Si Si6 0.098861 0.611310 0.644409
O O1 0.461026 0.553946 0.163320
O O2 0.519091 0.378061 0.094303
O O3 0.538122 0.295697 0.188974
O O4 0.275466 0.371059 0.150410
O O5 0.735873 0.262952 0.881480
O O6 0.725485 0.336534 0.782922
O O7 0.492551 0.198618 0.818664
O O8 0.101633 0.273701 0.518610
O O9 0.269936 0.082851 0.547613
O O10 0.000000 0.500000 0.500000
O O11 0.965346 0.348330 0.417443
O O12 0.067990 0.539920 0.157179
O O13 0.000000 0.605067 0.250000
#
# Coordination Sequence:
#
# PCOD9258843 Si02
#       6
#     8   8   8   8   8   8
#     4  10  20  37  58  81 109 145 187 230 277 327
#     4   9  20  38  56  82 116 145 182 227 270 326
#     4   9  20  35  53  80 115 150 184 222 266 321
#     4  10  18  34  56  79 113 153 184 219 269 321
#     4  10  22  40  59  80 109 143 181 230 285 336
#     4  10  22  38  58  85 115 145 184 230 274 326
#
# _framework density 21.049844
#
# number of rings (size 3 to 8) (size 9 to 14) (size 15 to 20)
#    0.000    2.333    0.000    3.000    0.000    8.667 
#    0.000   14.167    0.000    0.000    0.000    0.000 
#    0.000    0.000    0.000    0.000    0.000    0.000 
#
# Total GULP energy -133750.849589 kJ/mol
# GULP energy per Si atom -5572.952066 kJ/mol
# Density = 2.100193 g / cm^3
# Si number density = 21.049844 Si / 1000 Ang^3
#
#
#
# Elastic Constant Matrix: (Units=GPa)
#
#
# Indices 1 2 3 4 5 6 
#
# 1 105.8314 65.2601 25.0564 0.0000 -44.9978 0.0000
# 2 65.2601 105.6102 8.0656 0.0000 -10.7939 0.0000
# 3 25.0564 8.0656 52.9438 0.0000 -21.5302 0.0000
# 4 0.0000 0.0000 0.0000 13.1907 0.0000 -8.1296
# 5 -44.9978 -10.7939 -21.5302 0.0000 39.1524 0.0000
# 6 0.0000 0.0000 0.0000 -8.1296 0.0000 45.4391
#
#
#
# Elastic Compliance Matrix: (Units=1/GPa)
#
#
# Indices 1 2 3 4 5 6 
#
# 1 0.037201 -0.019172 0.000711 0.000000 0.037860 0.000000
# 2 -0.019172 0.019635 -0.000872 0.000000 -0.017101 0.000000
# 3 0.000711 -0.000872 0.024368 0.000000 0.013977 0.000000
# 4 0.000000 0.000000 0.000000 0.085206 0.000000 0.015244
# 5 0.037860 -0.017101 0.013977 0.000000 0.072025 0.000000
# 6 0.000000 0.000000 0.000000 0.015244 0.000000 0.024735
#
#
# Mechanical properties :
#
#
# Convention : Reuss Voigt Hill
#
# Bulk Modulus (GPa) = 23.50866 51.23884 37.37375
# Shear Modulus (GPa) = 15.82201 30.62335 23.22268
#
# Velocity S-wave (km/s) = 2.74459 3.81832 3.32508
# Velocity P-wave (km/s) = 4.60826 6.62072 5.70395
#
# Compressibility (1/GPa) = 0.04253752
#
# Stress axis : x y z
#
# Youngs Moduli (GPa) = 26.88129 50.92998 41.03706
#
# Poissons Ratio (x) = 0.97645 -0.02919
# Poissons Ratio (y) = 0.51538 0.03579
# Poissons Ratio (z) = -0.01912 0.04441
#
# Static dielectric constant tensor:
#      x y z
#    x 1.755370 0.000000 -0.086750 
#    y 0.000000 1.715460 0.000000 
#    z -0.086750 0.000000 1.682670 
# 
# From -- ./inp_files/287387.got.cif
#   From: 2010.05.17/outbox.cif.g08.bks.cpg/sg15_144_cif.got.tgz:287387.got - 2010.06.03 18:47:42.
