data_PCOD9258545
_publ_section_title
;
Structure prediction by ZEFSAII (Michael W. Deem and Ramdas Pophale) SiO2 
 PCOD9258545
Probable space group: C 2/C
;
_chemical_formula_sum "Si O2"
_cell_formula_units_Z 56
_cell_length_a 24.590110
_cell_length_b 15.337869
_cell_length_c 14.992610
_cell_angle_alpha 90.000000
_cell_angle_beta 25.906731
_cell_angle_gamma 90.000000
_cell_volume 2470.541784
_symmetry_space_group_name_H-M "C 2/C"
_symmetry_group_IT_number 15
_symmetry_cell_setting 'monoclinic'
loop_
_space_group_symop_operation_xyz
x,y,z
-x,y,1/2-z
-x,-y,-z
x,-y,1/2+z
1/2+x,1/2+y,z
1/2-x,1/2+y,1/2-z
1/2-x,1/2-y,-z
1/2+x,1/2-y,1/2+z
loop_
_atom_site_type_symbol
_atom_site_label
_atom_site_fract_x
_atom_site_fract_y
_atom_site_fract_z
Si Si1 0.604875 0.612946 0.840808
Si Si2 0.674448 0.407998 0.730938
Si Si3 0.700091 0.142592 0.093653
Si Si4 0.186083 0.636033 0.838216
Si Si5 0.000000 0.628842 0.250000
Si Si6 0.687710 0.331755 0.883307
Si Si7 0.745319 0.051772 0.566791
Si Si8 0.000000 0.962638 0.250000
O O1 0.634959 0.509645 0.788586
O O2 0.675764 0.651690 0.650080
O O3 0.674631 0.635814 0.829069
O O4 0.461364 0.636214 0.061833
O O5 0.748896 0.380116 0.708837
O O6 0.746051 0.390399 0.534224
O O7 0.591264 0.174318 0.188115
O O8 0.728213 0.175406 0.151778
O O9 0.677840 0.039063 0.142075
O O10 0.148679 0.736534 0.907969
O O11 0.186608 0.597631 0.739191
O O12 0.099931 0.584031 0.036551
O O13 0.574212 0.396903 0.075697
O O14 0.888683 0.021675 0.375998
#
# Coordination Sequence:
#
# PCOD9258545 Si02
#       8
#     8   8   8   8   4   8   8   4
#     4   9  18  34  59  88 113 148 206 262 300 349
#     4  10  18  33  59  86 116 156 202 250 303 362
#     4   9  20  37  58  82 110 151 204 252 296 355
#     4  11  23  36  54  86 125 158 195 251 310 361
#     4  10  23  40  56  76 111 158 204 250 303 350
#     4  11  21  33  57  89 124 156 192 248 315 368
#     4  10  20  36  60  87 117 154 206 258 295 353
#     4  10  19  38  66  92 117 158 210 258 305 356
#
# _framework density 22.667093000000001
#
# number of rings (size 3 to 8) (size 9 to 14) (size 15 to 20)
#    0.000    2.000    0.000    6.429    0.000    4.571 
#    0.000    0.000    0.000    1.714    0.000    1.000 
#    0.000    0.000    0.000    0.000    0.000    0.000 
#
# Total GULP energy -156144.004690 kJ/mol
# GULP energy per Si atom -5576.571596 kJ/mol
# Density = 2.261550 g / cm^3
# Si number density = 22.667093 Si / 1000 Ang^3
#
#
#
# Elastic Constant Matrix: (Units=GPa)
#
#
# Indices 1 2 3 4 5 6 
#
# 1 155.6696 54.7861 70.8943 0.0000 40.3839 0.0000
# 2 54.7861 44.7519 33.9963 0.0000 18.6876 0.0000
# 3 70.8943 33.9963 75.2337 0.0000 29.1857 0.0000
# 4 0.0000 0.0000 0.0000 13.1484 0.0000 8.0361
# 5 40.3839 18.6876 29.1857 0.0000 56.8881 0.0000
# 6 0.0000 0.0000 0.0000 8.0361 0.0000 27.4017
#
#
#
# Elastic Compliance Matrix: (Units=1/GPa)
#
#
# Indices 1 2 3 4 5 6 
#
# 1 0.014371 -0.010604 -0.007671 0.000000 -0.002783 0.000000
# 2 -0.010604 0.042636 -0.008441 0.000000 -0.002148 0.000000
# 3 -0.007671 -0.008441 0.026401 0.000000 -0.005326 0.000000
# 4 0.000000 0.000000 0.000000 0.092664 0.000000 -0.027176
# 5 -0.002783 -0.002148 -0.005326 0.000000 0.022992 0.000000
# 6 0.000000 0.000000 0.000000 -0.027176 0.000000 0.044464
#
#
# Mechanical properties :
#
#
# Convention : Reuss Voigt Hill
#
# Bulk Modulus (GPa) = 33.35905 66.11206 49.73555
# Shear Modulus (GPa) = 16.28919 27.21952 21.75435
#
# Velocity S-wave (km/s) = 2.68363 3.46907 3.10132
# Velocity P-wave (km/s) = 4.93471 6.72873 5.90030
#
# Compressibility (1/GPa) = 0.02997688
#
# Stress axis : x y z
#
# Youngs Moduli (GPa) = 69.58299 23.45436 37.87756
#
# Poissons Ratio (x) = 0.24871 0.29056
# Poissons Ratio (y) = 0.73787 0.31971
# Poissons Ratio (z) = 0.53377 0.19797
#
# Static dielectric constant tensor:
#      x y z
#    x 1.908650 0.000000 0.000640 
#    y 0.000000 1.912950 0.000000 
#    z 0.000640 0.000000 1.880850 
# 
# From -- ./inp_files/173816.got.cif
#   From: 2010.05.17/outbox.cif.g08.bks.cpg/sg15_87_cif.got.tgz:173816.got - 2010.06.03 18:47:42.
