data_PCOD9258058
_publ_section_title
;
Structure prediction by ZEFSAII (Michael W. Deem and Ramdas Pophale) SiO2 
 PCOD9258058
Probable space group: C 2/C
;
_chemical_formula_sum "Si O2"
_cell_formula_units_Z 64
_cell_length_a 14.779397
_cell_length_b 25.607652
_cell_length_c 11.424484
_cell_angle_alpha 90.000000
_cell_angle_beta 138.907936
_cell_angle_gamma 90.000000
_cell_volume 2841.891213
_symmetry_space_group_name_H-M "C 2/C"
_symmetry_group_IT_number 15
_symmetry_cell_setting 'monoclinic'
loop_
_space_group_symop_operation_xyz
x,y,z
-x,y,1/2-z
-x,-y,-z
x,-y,1/2+z
1/2+x,1/2+y,z
1/2-x,1/2+y,1/2-z
1/2-x,1/2-y,-z
1/2+x,1/2-y,1/2+z
loop_
_atom_site_type_symbol
_atom_site_label
_atom_site_fract_x
_atom_site_fract_y
_atom_site_fract_z
Si Si1 0.172704 0.455911 0.393919
Si Si2 0.477455 0.894266 0.441234
Si Si3 0.943210 0.929048 0.071818
Si Si4 0.463368 0.448607 0.586054
Si Si5 0.275960 0.186520 0.700687
Si Si6 0.878727 0.430043 0.701025
Si Si7 0.272136 0.857271 0.930029
Si Si8 0.968914 0.217260 0.357062
O O1 0.055092 0.429269 0.202742
O O2 0.299210 0.453863 0.425730
O O3 0.142531 0.515709 0.389208
O O4 0.227510 0.419884 0.551993
O O5 0.339561 0.861569 0.336560
O O6 0.545088 0.931981 0.600877
O O7 0.591452 0.850992 0.514518
O O8 0.000000 0.906292 0.250000
O O9 0.001170 0.989771 0.129000
O O10 0.779742 0.916887 0.923875
O O11 0.988332 0.918197 0.981906
O O12 0.500000 0.424918 0.750000
O O13 0.289059 0.166675 0.577399
O O14 0.377366 0.235319 0.816246
O O15 0.116359 0.203169 0.558001
O O16 0.000000 0.398648 0.750000
O O17 0.139057 0.830281 0.749395
O O18 0.000000 0.228947 0.250000
#
# Coordination Sequence:
#
# PCOD9258058 Si02
#       8
#     8   8   8   8   8   8   8   8
#     4  10  21  35  57  80 119 161 211 260 319 375
#     4  11  22  36  52  82 117 159 208 259 309 373
#     4   9  20  39  57  78 106 155 214 272 322 380
#     4   9  19  34  57  82 112 148 205 274 333 376
#     4  10  19  34  56  88 124 158 188 239 315 407
#     4  11  24  40  57  78 110 167 226 275 317 358
#     4  10  20  34  51  86 125 156 198 250 310 392
#     4  10  18  32  58  88 123 162 185 232 317 412
#
# _framework density 22.520213999999999
#
# number of rings (size 3 to 8) (size 9 to 14) (size 15 to 20)
#    0.000    2.000    0.000    5.625    3.500    2.500 
#    2.250    0.000    0.000    0.000    0.000    3.500 
#    0.000    0.000    0.000    0.000    0.000    0.000 
#
# Total GULP energy -178146.342352 kJ/mol
# GULP energy per Si atom -5567.073198 kJ/mol
# Density = 2.246896 g / cm^3
# Si number density = 22.520214 Si / 1000 Ang^3
#
#
#
# Elastic Constant Matrix: (Units=GPa)
#
#
# Indices 1 2 3 4 5 6 
#
# 1 88.3588 -20.0125 30.4540 0.0000 8.6875 0.0000
# 2 -20.0125 58.4253 18.5610 0.0000 -0.3234 0.0000
# 3 30.4540 18.5610 114.5635 0.0000 9.5171 0.0000
# 4 0.0000 0.0000 0.0000 19.9794 0.0000 9.8770
# 5 8.6875 -0.3234 9.5171 0.0000 42.8231 0.0000
# 6 0.0000 0.0000 0.0000 9.8770 0.0000 3.5576
#
#
#
# Elastic Compliance Matrix: (Units=1/GPa)
#
#
# Indices 1 2 3 4 5 6 
#
# 1 0.014628 0.006523 -0.004791 0.000000 -0.001854 0.000000
# 2 0.006523 0.020980 -0.005131 0.000000 -0.000025 0.000000
# 3 -0.004791 -0.005131 0.010959 0.000000 -0.001502 0.000000
# 4 0.000000 0.000000 0.000000 -0.134367 0.000000 0.373046
# 5 -0.001854 -0.000025 -0.001502 0.000000 0.024062 0.000000
# 6 0.000000 0.000000 0.000000 0.373046 0.000000 -0.754608
#
#
# Mechanical properties :
#
#
# Convention : Reuss Voigt Hill
#
# Bulk Modulus (GPa) = 25.14609 35.48361 30.31485
# Shear Modulus (GPa) = -6.26338 28.76169 11.24915
#
# Velocity S-wave (km/s) = -1.66951 3.57760 2.23740
# Velocity P-wave (km/s) = 2.73384 5.73203 4.49055
#
# Compressibility (1/GPa) = 0.03976761
#
# Stress axis : x y z
#
# Youngs Moduli (GPa) = 68.35978 47.66446 91.25298
#
# Poissons Ratio (x) = -0.31090 0.43723
# Poissons Ratio (y) = -0.44589 0.46821
# Poissons Ratio (z) = 0.32754 0.24456
#
# Static dielectric constant tensor:
#      x y z
#    x 2.014350 0.000000 0.050680 
#    y 0.000000 1.916590 0.000000 
#    z 0.050680 0.000000 1.885000 
# 
# From -- ./inp_files/101661.got.cif
#   From: 2010.05.17/outbox.cif.g08.bks.cpg/sg15_51_cif.got.tgz:101661.got - 2010.06.03 18:47:42.
