data_PCOD9258853
_publ_section_title
;
Structure prediction by ZEFSAII (Michael W. Deem and Ramdas Pophale) SiO2 
 PCOD9258853
Probable space group: C 2/C
;
_chemical_formula_sum "Si O2"
_cell_formula_units_Z 60
_cell_length_a 26.333722
_cell_length_b 23.728442
_cell_length_c 8.664041
_cell_angle_alpha 90.000000
_cell_angle_beta 148.654844
_cell_angle_gamma 90.000000
_cell_volume 2816.215889
_symmetry_space_group_name_H-M "C 2/C"
_symmetry_group_IT_number 15
_symmetry_cell_setting 'monoclinic'
loop_
_space_group_symop_operation_xyz
x,y,z
-x,y,1/2-z
-x,-y,-z
x,-y,1/2+z
1/2+x,1/2+y,z
1/2-x,1/2+y,1/2-z
1/2-x,1/2-y,-z
1/2+x,1/2-y,1/2+z
loop_
_atom_site_type_symbol
_atom_site_label
_atom_site_fract_x
_atom_site_fract_y
_atom_site_fract_z
Si Si1 0.000000 0.644401 0.250000
Si Si2 0.100349 0.730644 0.330757
Si Si3 0.781494 0.833649 0.179678
Si Si4 0.898078 0.755779 0.671817
Si Si5 0.221067 0.640452 0.181611
Si Si6 0.115036 0.537902 0.035552
Si Si7 0.841746 0.573793 0.008271
Si Si8 0.107381 0.838755 0.549844
O O1 0.085130 0.692188 0.445953
O O2 0.054280 0.602678 0.271027
O O3 0.191106 0.708933 0.471565
O O4 0.108956 0.792619 0.416978
O O5 0.004132 0.728769 0.975625
O O6 0.875743 0.797114 0.469483
O O7 0.773994 0.855707 0.986358
O O8 0.749635 0.883175 0.216935
O O9 0.827941 0.701137 0.481311
O O10 0.881784 0.800206 0.770063
O O11 0.141512 0.590910 0.994448
O O12 0.297600 0.625464 0.245169
O O13 0.146826 0.553988 0.288166
O O14 0.168429 0.481220 0.121325
O O15 0.000000 0.528138 0.750000
O O16 0.000000 0.865834 0.250000
#
# Coordination Sequence:
#
# PCOD9258853 Si02
#       8
#     4   8   8   8   8   8   8   8
#     4  10  18  34  56  80 124 156 192 248 278 342
#     4  10  20  34  54  85 120 156 198 239 288 351
#     4  10  23  39  54  86 126 155 199 246 298 355
#     4  11  21  35  60  83 116 163 200 236 300 354
#     4  11  24  36  56  84 124 152 198 251 289 357
#     4  11  24  39  56  87 118 158 201 238 298 364
#     4  10  23  38  57  81 119 158 198 243 291 353
#     4  10  21  39  55  85 116 152 206 244 291 357
#
# _framework density 21.305185000000002
#
# number of rings (size 3 to 8) (size 9 to 14) (size 15 to 20)
#    0.000    1.600    4.000    1.200    5.600    1.067 
#    2.400    0.000    0.000    0.000    0.000   14.933 
#    0.000    0.000    0.000    0.000    0.000    0.000 
#
# Total GULP energy -167067.772385 kJ/mol
# GULP energy per Si atom -5568.925746 kJ/mol
# Density = 2.125669 g / cm^3
# Si number density = 21.305185 Si / 1000 Ang^3
#
#
#
# Elastic Constant Matrix: (Units=GPa)
#
#
# Indices 1 2 3 4 5 6 
#
# 1 84.9776 31.1036 5.3063 0.0000 5.7668 0.0000
# 2 31.1036 75.2269 28.4541 0.0000 3.6686 0.0000
# 3 5.3063 28.4541 50.7961 0.0000 -2.3175 0.0000
# 4 0.0000 0.0000 0.0000 5.9883 0.0000 7.3453
# 5 5.7668 3.6686 -2.3175 0.0000 15.3381 0.0000
# 6 0.0000 0.0000 0.0000 7.3453 0.0000 36.0801
#
#
#
# Elastic Compliance Matrix: (Units=1/GPa)
#
#
# Indices 1 2 3 4 5 6 
#
# 1 0.014250 -0.006467 0.001974 0.000000 -0.003513 0.000000
# 2 -0.006467 0.020276 -0.010867 0.000000 -0.004060 0.000000
# 3 0.001974 -0.010867 0.025831 0.000000 0.005760 0.000000
# 4 0.000000 0.000000 0.000000 0.222571 0.000000 -0.045312
# 5 -0.003513 -0.004060 0.005760 0.000000 0.068359 0.000000
# 6 0.000000 0.000000 0.000000 -0.045312 0.000000 0.036941
#
#
# Mechanical properties :
#
#
# Convention : Reuss Voigt Hill
#
# Bulk Modulus (GPa) = 33.74396 37.85876 35.80136
# Shear Modulus (GPa) = 11.65971 21.22374 16.44173
#
# Velocity S-wave (km/s) = 2.34192 3.15965 2.78101
# Velocity P-wave (km/s) = 4.81514 5.57849 5.21081
#
# Compressibility (1/GPa) = 0.02963493
#
# Stress axis : x y z
#
# Youngs Moduli (GPa) = 70.17509 49.32058 38.71382
#
# Poissons Ratio (x) = 0.31896 -0.07641
# Poissons Ratio (y) = 0.45383 0.42071
# Poissons Ratio (z) = -0.13851 0.53598
#
# Static dielectric constant tensor:
#      x y z
#    x 1.853530 0.000000 -0.004060 
#    y 0.000000 1.812040 0.000000 
#    z -0.004060 0.000000 1.891760 
# 
# From -- ./inp_files/67790.got.cif
#   From: 2010.05.17/outbox.cif.g08.bks.cpg/sg15_34_cif.got.tgz:67790.got - 2010.06.03 18:47:42.
