data_PCOD9258128
_publ_section_title
;
Structure prediction by ZEFSAII (Michael W. Deem and Ramdas Pophale) SiO2 
 PCOD9258128
Probable space group: C 2/C
;
_chemical_formula_sum "Si O2"
_cell_formula_units_Z 48
_cell_length_a 18.919627
_cell_length_b 19.549662
_cell_length_c 11.103795
_cell_angle_alpha 90.000000
_cell_angle_beta 35.469225
_cell_angle_gamma 90.000000
_cell_volume 2383.142852
_symmetry_space_group_name_H-M "C 2/C"
_symmetry_group_IT_number 15
_symmetry_cell_setting 'monoclinic'
loop_
_space_group_symop_operation_xyz
x,y,z
-x,y,1/2-z
-x,-y,-z
x,-y,1/2+z
1/2+x,1/2+y,z
1/2-x,1/2+y,1/2-z
1/2-x,1/2-y,-z
1/2+x,1/2-y,1/2+z
loop_
_atom_site_type_symbol
_atom_site_label
_atom_site_fract_x
_atom_site_fract_y
_atom_site_fract_z
Si Si1 0.000000 0.980339 0.750000
Si Si2 0.639019 0.963273 0.037312
Si Si3 0.620317 0.356667 0.438846
Si Si4 0.797171 0.070384 0.894250
Si Si5 0.430395 0.074218 0.111081
Si Si6 0.500000 0.757304 0.250000
Si Si7 0.852660 0.646446 0.779816
O O1 0.059591 0.927325 0.571463
O O2 0.900142 0.029265 0.824674
O O3 0.500000 0.989093 0.250000
O O4 0.675540 0.922811 0.105873
O O5 0.631458 0.915344 0.933069
O O6 0.736896 0.020894 0.877070
O O7 0.651207 0.367241 0.255533
O O8 0.535712 0.293372 0.591401
O O9 0.737305 0.339095 0.358862
O O10 0.677057 0.080844 0.143824
O O11 0.537165 0.129490 0.964658
O O12 0.500000 0.000000 0.000000
O O13 0.600883 0.804018 0.177702
#
# Coordination Sequence:
#
# PCOD9258128 Si02
#       7
#     4   8   8   8   8   4   8
#     4  11  22  42  58  92 140 173 198 250 332 395
#     4  10  18  32  60  93 122 155 200 258 316 368
#     4  11  25  39  64  94 124 173 218 260 310 381
#     4  12  22  37  60  99 138 157 203 263 333 385
#     4  11  19  33  61  98 125 157 200 263 332 369
#     4  11  24  46  62  86 124 175 230 254 306 373
#     4  11  20  41  65  89 120 164 217 268 301 373
#
# _framework density 20.141470000000002
#
# number of rings (size 3 to 8) (size 9 to 14) (size 15 to 20)
#    0.000    1.000    7.500    3.000    0.000    0.000 
#    0.000    0.833    0.000    0.000    0.000    0.000 
#    0.000    0.000    0.000    0.000    0.000    0.000 
#
# Total GULP energy -133660.289501 kJ/mol
# GULP energy per Si atom -5569.178729 kJ/mol
# Density = 2.009563 g / cm^3
# Si number density = 20.141470 Si / 1000 Ang^3
#
#
#
# Elastic Constant Matrix: (Units=GPa)
#
#
# Indices 1 2 3 4 5 6 
#
# 1 52.8764 6.4803 11.4706 0.0001 0.7855 -0.0001
# 2 6.4803 56.5011 28.3943 0.0000 7.2787 0.0000
# 3 11.4706 28.3943 110.9085 0.0001 24.9904 -0.0001
# 4 0.0001 0.0000 0.0001 17.0092 -0.0001 -0.1773
# 5 0.7855 7.2787 24.9904 -0.0001 20.8910 0.0001
# 6 -0.0001 0.0000 -0.0001 -0.1773 0.0001 21.8996
#
#
#
# Elastic Compliance Matrix: (Units=1/GPa)
#
#
# Indices 1 2 3 4 5 6 
#
# 1 0.019528 -0.001448 -0.002187 0.000000 0.002386 0.000000
# 2 -0.001448 0.020441 -0.004779 0.000000 -0.001351 0.000000
# 3 -0.002187 -0.004779 0.013789 0.000000 -0.014748 0.000000
# 4 0.000000 0.000000 0.000000 0.058797 0.000000 0.000476
# 5 0.002386 -0.001351 -0.014748 0.000000 0.065890 0.000000
# 6 0.000000 0.000000 0.000000 0.000476 0.000000 0.045667
#
#
# Mechanical properties :
#
#
# Convention : Reuss Voigt Hill
#
# Bulk Modulus (GPa) = 27.07804 34.77516 30.92660
# Shear Modulus (GPa) = 19.74340 23.55600 21.64970
#
# Velocity S-wave (km/s) = 3.13427 3.42355 3.28210
# Velocity P-wave (km/s) = 5.15474 5.73851 5.45444
#
# Compressibility (1/GPa) = 0.03693030
#
# Stress axis : x y z
#
# Youngs Moduli (GPa) = 51.20747 48.92240 72.52120
#
# Poissons Ratio (x) = 0.07085 0.15857
# Poissons Ratio (y) = 0.07416 0.34658
# Poissons Ratio (z) = 0.11197 0.23380
#
# Static dielectric constant tensor:
#      x y z
#    x 1.755910 0.000000 0.012800 
#    y 0.000000 1.736910 0.000000 
#    z 0.012800 0.000000 1.806170 
# 
# From -- ./inp_files/114213.got.cif
#   From: 2010.05.17/outbox.cif.g08.bks.cpg/sg15_58_cif.got.tgz:114213.got - 2010.06.03 18:47:42.
