data_PCOD9258055
_publ_section_title
;
Structure prediction by ZEFSAII (Michael W. Deem and Ramdas Pophale) SiO2 
 PCOD9258055
Probable space group: C 2/C
;
_chemical_formula_sum "Si O2"
_cell_formula_units_Z 48
_cell_length_a 8.110604
_cell_length_b 17.842684
_cell_length_c 23.294820
_cell_angle_alpha 90.000000
_cell_angle_beta 127.472405
_cell_angle_gamma 90.000000
_cell_volume 2675.468328
_symmetry_space_group_name_H-M "C 2/C"
_symmetry_group_IT_number 15
_symmetry_cell_setting 'monoclinic'
loop_
_space_group_symop_operation_xyz
x,y,z
-x,y,1/2-z
-x,-y,-z
x,-y,1/2+z
1/2+x,1/2+y,z
1/2-x,1/2+y,1/2-z
1/2-x,1/2-y,-z
1/2+x,1/2-y,1/2+z
loop_
_atom_site_type_symbol
_atom_site_label
_atom_site_fract_x
_atom_site_fract_y
_atom_site_fract_z
Si Si1 0.108792 0.801238 0.892251
Si Si2 0.750364 0.639279 0.961046
Si Si3 0.964378 0.267049 0.890674
Si Si4 0.090721 0.360393 0.446063
Si Si5 0.241838 0.984284 0.550375
Si Si6 0.161113 0.360935 0.832775
O O1 0.233094 0.794570 0.858229
O O2 0.112661 0.715523 0.915032
O O3 0.875649 0.832193 0.849440
O O4 0.246638 0.849952 0.966481
O O5 0.525373 0.679246 0.910371
O O6 0.860653 0.636590 0.923405
O O7 0.894625 0.692840 0.030893
O O8 0.770585 0.560329 0.996804
O O9 0.052916 0.296523 0.849083
O O10 0.140486 0.437059 0.424422
O O11 0.296618 0.928327 0.613756
O O12 0.000000 0.000000 0.500000
O O13 0.000000 0.383793 0.750000
#
# Coordination Sequence:
#
# PCOD9258055 Si02
#       6
#     8   8   8   8   8   8
#     4  10  19  34  60  86 109 150 190 244 285 349
#     4   9  17  30  54  87 116 138 180 245 291 334
#     4   9  18  33  55  85 111 143 191 233 282 342
#     4  10  18  32  58  88 116 140 193 242 296 336
#     4  11  20  33  56  87 116 153 193 242 296 349
#     4  11  23  39  58  80 120 157 193 242 299 356
#
# _framework density 17.940784000000001
#
# number of rings (size 3 to 8) (size 9 to 14) (size 15 to 20)
#    0.000    2.000    3.333    1.500    4.667    0.667 
#    0.000    0.000    7.333    0.000    0.000    0.000 
#    0.000    0.000    0.000    0.000    0.000    0.000 
#
# Total GULP energy -133660.518118 kJ/mol
# GULP energy per Si atom -5569.188255 kJ/mol
# Density = 1.789995 g / cm^3
# Si number density = 17.940784 Si / 1000 Ang^3
#
#
#
# Elastic Constant Matrix: (Units=GPa)
#
#
# Indices 1 2 3 4 5 6 
#
# 1 117.8762 21.2068 17.4037 0.0000 6.4188 0.0000
# 2 21.2068 89.4118 13.9373 0.0000 2.2478 0.0000
# 3 17.4037 13.9373 45.4276 0.0000 2.1520 0.0000
# 4 0.0000 0.0000 0.0000 4.5723 0.0000 11.2899
# 5 6.4188 2.2478 2.1520 0.0000 10.1783 0.0000
# 6 0.0000 0.0000 0.0000 11.2899 0.0000 20.4991
#
#
#
# Elastic Compliance Matrix: (Units=1/GPa)
#
#
# Indices 1 2 3 4 5 6 
#
# 1 0.009483 -0.001674 -0.002882 0.000000 -0.005001 0.000000
# 2 -0.001674 0.012076 -0.003018 0.000000 -0.000973 0.000000
# 3 -0.002882 -0.003018 0.024167 0.000000 -0.002626 0.000000
# 4 0.000000 0.000000 0.000000 -0.607678 0.000000 0.334680
# 5 -0.005001 -0.000973 -0.002626 0.000000 0.102172 0.000000
# 6 0.000000 0.000000 0.000000 0.334680 0.000000 -0.135543
#
#
# Mechanical properties :
#
#
# Convention : Reuss Voigt Hill
#
# Bulk Modulus (GPa) = 32.70297 39.75678 36.22987
# Shear Modulus (GPa) = -8.77220 20.39446 5.81113
#
# Velocity S-wave (km/s) = -2.21363 3.37525 1.80169
# Velocity P-wave (km/s) = 3.42554 6.11538 4.95642
#
# Compressibility (1/GPa) = 0.03057826
#
# Stress axis : x y z
#
# Youngs Moduli (GPa) = 105.45709 82.80821 41.37797
#
# Poissons Ratio (x) = 0.13863 0.11926
# Poissons Ratio (y) = 0.17654 0.12486
# Poissons Ratio (z) = 0.30396 0.24988
#
# Static dielectric constant tensor:
#      x y z
#    x 1.748860 0.000000 -0.011350 
#    y 0.000000 2.047690 0.000000 
#    z -0.011350 0.000000 1.612030 
# 
# From -- ./inp_files/189755.got.cif
#   From: 2010.05.17/outbox.cif.g08.bks.cpg/sg15_95_cif.got.tgz:189755.got - 2010.06.03 18:47:42.
