data_PCOD9258564
_publ_section_title
;
Structure prediction by ZEFSAII (Michael W. Deem and Ramdas Pophale) SiO2 
 PCOD9258564
Probable space group: C 2/C
;
_chemical_formula_sum "Si O2"
_cell_formula_units_Z 44
_cell_length_a 12.343928
_cell_length_b 11.218895
_cell_length_c 15.709235
_cell_angle_alpha 90.000000
_cell_angle_beta 99.632068
_cell_angle_gamma 90.000000
_cell_volume 2144.828080
_symmetry_space_group_name_H-M "C 2/C"
_symmetry_group_IT_number 15
_symmetry_cell_setting 'monoclinic'
loop_
_space_group_symop_operation_xyz
x,y,z
-x,y,1/2-z
-x,-y,-z
x,-y,1/2+z
1/2+x,1/2+y,z
1/2-x,1/2+y,1/2-z
1/2-x,1/2-y,-z
1/2+x,1/2-y,1/2+z
loop_
_atom_site_type_symbol
_atom_site_label
_atom_site_fract_x
_atom_site_fract_y
_atom_site_fract_z
Si Si1 0.500000 0.542757 0.750000
Si Si2 0.938006 0.621578 0.888407
Si Si3 0.488856 0.365188 0.592140
Si Si4 0.676942 0.478334 0.513686
Si Si5 0.808308 0.823068 0.156689
Si Si6 0.405037 0.083011 0.086476
O O1 0.487689 0.457488 0.668451
O O2 0.608662 0.623658 0.762839
O O3 0.018436 0.730742 0.878755
O O4 0.819411 0.660084 0.835423
O O5 0.991051 0.495059 0.869122
O O6 0.930124 0.619966 0.991460
O O7 0.605567 0.390708 0.562858
O O8 0.394981 0.405022 0.513864
O O9 0.687974 0.405876 0.427203
O O10 0.797246 0.500381 0.565375
O O11 0.860413 0.696492 0.133793
#
# Coordination Sequence:
#
# PCOD9258564 Si02
#       6
#     4   8   8   8   8   8
#     4  10  24  36  56  72 114 156 190 220 300 348
#     4  10  19  33  61  86 116 137 189 248 286 341
#     4  10  18  35  54  82 107 153 187 235 284 346
#     4   9  17  32  62  78 109 146 190 230 292 333
#     4  10  18  39  54  83 112 152 188 236 282 352
#     4  10  18  33  59  91 108 144 184 245 296 334
#
# _framework density 20.514465999999999
#
# number of rings (size 3 to 8) (size 9 to 14) (size 15 to 20)
#    0.000    2.182    3.636    1.091    0.000    0.727 
#    3.273    2.727    0.000    0.000    0.000    0.000 
#    0.000    0.000    0.000    0.000    0.000    0.000 
#
# Total GULP energy -122532.723212 kJ/mol
# GULP energy per Si atom -5569.669237 kJ/mol
# Density = 2.046777 g / cm^3
# Si number density = 20.514466 Si / 1000 Ang^3
#
#
#
# Elastic Constant Matrix: (Units=GPa)
#
#
# Indices 1 2 3 4 5 6 
#
# 1 79.0467 48.6814 9.1375 0.0000 25.8332 0.0000
# 2 48.6814 102.2586 10.1069 0.0000 29.7346 0.0000
# 3 9.1375 10.1069 19.2683 0.0000 16.2551 0.0000
# 4 0.0000 0.0000 0.0000 9.0430 0.0000 0.2591
# 5 25.8332 29.7346 16.2551 0.0000 23.6001 0.0000
# 6 0.0000 0.0000 0.0000 0.2591 0.0000 22.4002
#
#
#
# Elastic Compliance Matrix: (Units=1/GPa)
#
#
# Indices 1 2 3 4 5 6 
#
# 1 0.024390 -0.002374 0.023103 0.000000 -0.039620 0.000000
# 2 -0.002374 0.019662 0.022723 0.000000 -0.037825 0.000000
# 3 0.023103 0.022723 0.177857 0.000000 -0.176422 0.000000
# 4 0.000000 0.000000 0.000000 0.110619 0.000000 -0.001279
# 5 -0.039620 -0.037825 -0.176422 0.000000 0.254915 0.000000
# 6 0.000000 0.000000 0.000000 -0.001279 0.000000 0.044657
#
#
# Mechanical properties :
#
#
# Convention : Reuss Voigt Hill
#
# Bulk Modulus (GPa) = 3.23820 37.38057 20.30938
# Shear Modulus (GPa) = 7.71443 19.85184 13.78313
#
# Velocity S-wave (km/s) = 1.94130 3.11416 2.59486
# Velocity P-wave (km/s) = 2.57037 5.58496 4.34733
#
# Compressibility (1/GPa) = 0.30881329
#
# Stress axis : x y z
#
# Youngs Moduli (GPa) = 40.99958 50.85862 5.62248
#
# Poissons Ratio (x) = 0.12075 -0.12990
# Poissons Ratio (y) = 0.09734 -0.12776
# Poissons Ratio (z) = -0.94722 -1.15564
#
# Static dielectric constant tensor:
#      x y z
#    x 1.791140 0.000000 0.016590 
#    y 0.000000 1.755200 0.000000 
#    z 0.016590 0.000000 1.746370 
# 
# From -- ./inp_files/195948.got.cif
#   From: 2010.05.17/outbox.cif.g08.bks.cpg/sg15_98_cif.got.tgz:195948.got - 2010.06.03 18:47:42.
