data_PCOD9258764
_publ_section_title
;
Structure prediction by ZEFSAII (Michael W. Deem and Ramdas Pophale) SiO2 
 PCOD9258764
Probable space group: C 2/C
;
_chemical_formula_sum "Si O2"
_cell_formula_units_Z 64
_cell_length_a 23.310111
_cell_length_b 24.707902
_cell_length_c 10.783923
_cell_angle_alpha 90.000000
_cell_angle_beta 31.244164
_cell_angle_gamma 90.000000
_cell_volume 3221.526169
_symmetry_space_group_name_H-M "C 2/C"
_symmetry_group_IT_number 15
_symmetry_cell_setting 'monoclinic'
loop_
_space_group_symop_operation_xyz
x,y,z
-x,y,1/2-z
-x,-y,-z
x,-y,1/2+z
1/2+x,1/2+y,z
1/2-x,1/2+y,1/2-z
1/2-x,1/2-y,-z
1/2+x,1/2-y,1/2+z
loop_
_atom_site_type_symbol
_atom_site_label
_atom_site_fract_x
_atom_site_fract_y
_atom_site_fract_z
Si Si1 0.516272 0.310389 0.500341
Si Si2 0.907908 0.084279 0.325373
Si Si3 0.314219 0.126691 0.635491
Si Si4 0.877733 0.507855 0.495536
Si Si5 0.760091 0.991273 0.499476
Si Si6 0.396426 0.236842 0.535770
Si Si7 0.198316 0.268763 0.729229
Si Si8 0.728080 0.635797 0.523890
O O1 0.463163 0.362920 0.661321
O O2 0.427961 0.274081 0.592295
O O3 0.588847 0.267681 0.447308
O O4 0.608075 0.336196 0.238605
O O5 0.801474 0.107876 0.592939
O O6 0.858490 0.034737 0.336476
O O7 0.000000 0.062284 0.250000
O O8 0.384513 0.072911 0.490813
O O9 0.373630 0.173563 0.602451
O O10 0.284189 0.147266 0.553690
O O11 0.820456 0.493591 0.731687
O O12 0.802432 0.495978 0.514051
O O13 0.000000 0.484737 0.250000
O O14 0.792570 0.928168 0.438654
O O15 0.500000 0.239437 0.250000
O O16 0.285440 0.257300 0.675297
O O17 0.250000 0.250000 0.500000
O O18 0.193040 0.333814 0.720349
#
# Coordination Sequence:
#
# PCOD9258764 Si02
#       8
#     8   8   8   8   8   8   8   8
#     4  11  22  36  60  85 120 165 198 258 322 376
#     4  11  22  42  60  85 127 172 207 257 325 388
#     4  10  20  36  60  85 117 157 214 256 303 387
#     4  10  21  42  65  92 124 168 211 267 323 373
#     4  10  24  39  65  97 126 167 218 267 314 385
#     4  12  19  32  57  89 111 153 206 256 315 373
#     4  10  18  34  54  83 118 147 198 256 305 367
#     4  10  18  38  57  86 122 156 205 265 309 366
#
# _framework density 19.86636
#
# number of rings (size 3 to 8) (size 9 to 14) (size 15 to 20)
#    0.000    1.500    6.250    0.750    0.000    3.000 
#    2.250    0.000    0.000    2.250    0.000    0.000 
#    0.000    0.000    0.000    0.000    0.000    0.000 
#
# Total GULP energy -178348.777322 kJ/mol
# GULP energy per Si atom -5573.399291 kJ/mol
# Density = 1.982114 g / cm^3
# Si number density = 19.866360 Si / 1000 Ang^3
#
#
#
# Elastic Constant Matrix: (Units=GPa)
#
#
# Indices 1 2 3 4 5 6 
#
# 1 76.0142 45.3172 22.0933 0.0000 -19.4730 0.0000
# 2 45.3172 111.2547 23.5711 0.0000 -22.0547 0.0000
# 3 22.0933 23.5711 63.8104 0.0001 -12.3624 0.0002
# 4 0.0000 0.0000 0.0001 26.5217 0.0000 -5.1595
# 5 -19.4730 -22.0547 -12.3624 0.0000 24.8250 -0.0001
# 6 0.0000 0.0000 0.0002 -5.1595 -0.0001 34.9221
#
#
#
# Elastic Compliance Matrix: (Units=1/GPa)
#
#
# Indices 1 2 3 4 5 6 
#
# 1 0.019658 -0.005596 -0.003005 0.000000 0.008952 0.000000
# 2 -0.005596 0.012840 -0.001600 0.000000 0.006221 0.000000
# 3 -0.003005 -0.001600 0.018340 0.000000 0.005354 0.000000
# 4 0.000000 0.000000 0.000000 0.038821 0.000000 0.005735
# 5 0.008952 0.006221 0.005354 0.000000 0.055497 0.000000
# 6 0.000000 0.000000 0.000000 0.005735 0.000000 0.029482
#
#
# Mechanical properties :
#
#
# Convention : Reuss Voigt Hill
#
# Bulk Modulus (GPa) = 32.85565 48.11582 40.48573
# Shear Modulus (GPa) = 24.36804 27.92696 26.14750
#
# Velocity S-wave (km/s) = 3.50608 3.75339 3.63184
# Velocity P-wave (km/s) = 5.74146 6.56172 6.16525
#
# Compressibility (1/GPa) = 0.03043617
#
# Stress axis : x y z
#
# Youngs Moduli (GPa) = 50.86898 77.88133 54.52484
#
# Poissons Ratio (x) = 0.43583 0.16384
# Poissons Ratio (y) = 0.28467 0.08726
# Poissons Ratio (z) = 0.15285 0.12463
#
# Static dielectric constant tensor:
#      x y z
#    x 1.702120 0.000000 0.006610 
#    y 0.000000 1.794440 0.000000 
#    z 0.006610 0.000000 1.742840 
# 
# From -- ./inp_files/120228.got.cif
#   From: 2010.05.17/outbox.cif.g08.bks.cpg/sg15_61_cif.got.tgz:120228.got - 2010.06.03 18:47:42.
