data_PCOD9258455
_publ_section_title
;
Structure prediction by ZEFSAII (Michael W. Deem and Ramdas Pophale) SiO2 
 PCOD9258455
Probable space group: C 2/C
;
_chemical_formula_sum "Si O2"
_cell_formula_units_Z 64
_cell_length_a 11.255746
_cell_length_b 16.282981
_cell_length_c 15.355210
_cell_angle_alpha 90.000000
_cell_angle_beta 107.526007
_cell_angle_gamma 90.000000
_cell_volume 2683.621473
_symmetry_space_group_name_H-M "C 2/C"
_symmetry_group_IT_number 15
_symmetry_cell_setting 'monoclinic'
loop_
_space_group_symop_operation_xyz
x,y,z
-x,y,1/2-z
-x,-y,-z
x,-y,1/2+z
1/2+x,1/2+y,z
1/2-x,1/2+y,1/2-z
1/2-x,1/2-y,-z
1/2+x,1/2-y,1/2+z
loop_
_atom_site_type_symbol
_atom_site_label
_atom_site_fract_x
_atom_site_fract_y
_atom_site_fract_z
Si Si1 0.857417 0.496103 0.345497
Si Si2 0.410750 0.815119 0.541412
Si Si3 0.389702 0.425227 0.285629
Si Si4 0.470296 0.385683 0.839503
Si Si5 0.106740 0.929403 0.027777
Si Si6 0.612157 0.821815 0.703814
Si Si7 0.283564 0.255403 0.866234
Si Si8 0.127849 0.504334 0.943726
O O1 0.745142 0.435931 0.290913
O O2 0.841275 0.583640 0.292445
O O3 0.858861 0.517859 0.449167
O O4 0.001025 0.465173 0.369301
O O5 0.552607 0.801890 0.597954
O O6 0.378551 0.806039 0.433330
O O7 0.325148 0.759577 0.585029
O O8 0.379223 0.906501 0.564672
O O9 0.500000 0.391018 0.250000
O O10 0.427465 0.521141 0.311619
O O11 0.407114 0.384120 0.383649
O O12 0.500000 0.349972 0.750000
O O13 0.365642 0.337298 0.870567
O O14 0.587711 0.385485 0.931015
O O15 0.244812 0.964611 0.067226
O O16 0.000000 0.000000 0.000000
O O17 0.500000 0.822660 0.750000
O O18 0.711132 0.755320 0.759344
#
# Coordination Sequence:
#
# PCOD9258455 Si02
#       8
#     8   8   8   8   8   8   8   8
#     4  10  19  31  53  80 111 147 190 235 289 344
#     4   9  19  33  53  82 111 140 187 240 296 339
#     4  10  19  31  49  79 113 149 188 234 281 347
#     4  10  19  32  54  81 108 148 192 232 279 347
#     4  10  20  31  50  78 118 147 185 232 289 345
#     4   9  18  31  54  83 104 136 185 239 282 341
#     4  10  18  33  57  80 108 147 191 239 281 347
#     4  10  20  33  51  83 115 150 186 240 296 346
#
# _framework density 23.848371
#
# number of rings (size 3 to 8) (size 9 to 14) (size 15 to 20)
#    0.000    2.250    1.250    3.750    3.500    0.000 
#    0.000    1.250    0.000   14.250    0.000    0.000 
#    0.000    0.000    0.000    0.000    0.000    0.000 
#
# Total GULP energy -178403.637734 kJ/mol
# GULP energy per Si atom -5575.113679 kJ/mol
# Density = 2.379409 g / cm^3
# Si number density = 23.848371 Si / 1000 Ang^3
#
#
#
# Elastic Constant Matrix: (Units=GPa)
#
#
# Indices 1 2 3 4 5 6 
#
# 1 87.7799 11.4910 56.7017 0.0000 26.9889 0.0000
# 2 11.4910 33.9104 23.8887 0.0000 10.7800 0.0000
# 3 56.7017 23.8887 198.4100 0.0000 45.3694 0.0000
# 4 0.0000 0.0000 0.0000 28.1793 0.0000 5.9979
# 5 26.9889 10.7800 45.3694 0.0000 42.5114 0.0000
# 6 0.0000 0.0000 0.0000 5.9979 0.0000 13.4941
#
#
#
# Elastic Compliance Matrix: (Units=1/GPa)
#
#
# Indices 1 2 3 4 5 6 
#
# 1 0.015320 -0.001191 -0.002751 0.000000 -0.006488 0.000000
# 2 -0.001191 0.033255 -0.002524 0.000000 -0.004983 0.000000
# 3 -0.002751 -0.002524 0.007387 0.000000 -0.005497 0.000000
# 4 0.000000 0.000000 0.000000 0.039195 0.000000 -0.017422
# 5 -0.006488 -0.004983 -0.005497 0.000000 0.034772 0.000000
# 6 0.000000 0.000000 0.000000 -0.017422 0.000000 0.081850
#
#
# Mechanical properties :
#
#
# Convention : Reuss Voigt Hill
#
# Bulk Modulus (GPa) = 23.23960 56.02924 39.63442
# Shear Modulus (GPa) = 20.91562 32.03823 26.47693
#
# Velocity S-wave (km/s) = 2.96467 3.66924 3.33561
# Velocity P-wave (km/s) = 4.63519 6.44174 5.61164
#
# Compressibility (1/GPa) = 0.04302999
#
# Stress axis : x y z
#
# Youngs Moduli (GPa) = 65.27446 30.07044 135.36865
#
# Poissons Ratio (x) = 0.03581 0.37243
# Poissons Ratio (y) = 0.07773 0.34170
# Poissons Ratio (z) = 0.17958 0.07590
#
# Static dielectric constant tensor:
#      x y z
#    x 1.990600 0.000000 0.011260 
#    y 0.000000 1.932650 0.000000 
#    z 0.011260 0.000000 2.016520 
# 
# From -- ./inp_files/147149.got.cif
#   From: 2010.05.17/outbox.cif.g08.bks.cpg/sg15_74_cif.got.tgz:147149.got - 2010.06.03 18:47:42.
