data_PCOD9258562
_publ_section_title
;
Structure prediction by ZEFSAII (Michael W. Deem and Ramdas Pophale) SiO2 
 PCOD9258562
Probable space group: C 2/C
;
_chemical_formula_sum "Si O2"
_cell_formula_units_Z 56
_cell_length_a 8.955938
_cell_length_b 32.996018
_cell_length_c 20.937342
_cell_angle_alpha 90.000000
_cell_angle_beta 151.871847
_cell_angle_gamma 90.000000
_cell_volume 2916.926182
_symmetry_space_group_name_H-M "C 2/C"
_symmetry_group_IT_number 15
_symmetry_cell_setting 'monoclinic'
loop_
_space_group_symop_operation_xyz
x,y,z
-x,y,1/2-z
-x,-y,-z
x,-y,1/2+z
1/2+x,1/2+y,z
1/2-x,1/2+y,1/2-z
1/2-x,1/2-y,-z
1/2+x,1/2-y,1/2+z
loop_
_atom_site_type_symbol
_atom_site_label
_atom_site_fract_x
_atom_site_fract_y
_atom_site_fract_z
Si Si1 0.148981 0.872879 0.735059
Si Si2 0.160638 0.630495 0.741891
Si Si3 0.494985 0.217626 0.673070
Si Si4 0.815886 0.412137 0.499280
Si Si5 0.645636 0.295261 0.644530
Si Si6 0.627812 0.918942 0.477327
Si Si7 0.120189 0.504165 0.116733
O O1 0.512649 0.880708 0.888966
O O2 0.095628 0.833637 0.672267
O O3 0.000000 0.869531 0.750000
O O4 0.984224 0.911151 0.636944
O O5 0.000000 0.630705 0.750000
O O6 0.215729 0.677873 0.747385
O O7 0.945461 0.613530 0.604152
O O8 0.455606 0.600386 0.859005
O O9 0.500000 0.228242 0.750000
O O10 0.609324 0.254719 0.673092
O O11 0.137649 0.206302 0.514731
O O12 0.933631 0.410715 0.469724
O O13 0.939890 0.455636 0.571866
O O14 0.000000 0.297598 0.750000
O O15 0.509942 0.961959 0.404309
O O16 0.500000 0.507667 0.250000
O O17 0.000000 0.500000 0.000000
#
# Coordination Sequence:
#
# PCOD9258562 Si02
#       7
#     8   8   8   8   8   8   8
#     4  10  21  37  58  90 122 155 197 248 300 358
#     4  11  23  39  58  86 121 161 196 246 299 358
#     4  10  24  45  62  90 124 155 200 248 292 362
#     4  10  21  35  60  89 118 157 204 247 301 350
#     4  11  24  42  67  90 119 159 197 244 304 354
#     4  10  19  37  61  87 119 155 202 252 298 353
#     4  10  18  33  59  90 119 153 201 255 300 346
#
# _framework density 19.198291999999999
#
# number of rings (size 3 to 8) (size 9 to 14) (size 15 to 20)
#    0.000    1.714    1.429    4.714    4.000    1.714 
#    2.571    0.714    0.000    1.714    0.000    0.000 
#    0.000    0.000    0.000    0.000    0.000    0.000 
#
# Total GULP energy -155933.431358 kJ/mol
# GULP energy per Si atom -5569.051120 kJ/mol
# Density = 1.915460 g / cm^3
# Si number density = 19.198292 Si / 1000 Ang^3
#
#
#
# Elastic Constant Matrix: (Units=GPa)
#
#
# Indices 1 2 3 4 5 6 
#
# 1 30.7749 29.2371 32.0099 -0.0033 -14.8746 0.0006
# 2 29.2371 102.2623 35.9975 0.0011 -11.1592 0.0018
# 3 32.0099 35.9975 131.2185 -0.0467 -9.4358 -0.0029
# 4 -0.0033 0.0011 -0.0467 24.0079 0.0041 -6.5808
# 5 -14.8746 -11.1592 -9.4358 0.0041 22.5456 -0.0014
# 6 0.0006 0.0018 -0.0029 -6.5808 -0.0014 20.7261
#
#
#
# Elastic Compliance Matrix: (Units=1/GPa)
#
#
# Indices 1 2 3 4 5 6 
#
# 1 0.076751 -0.013387 -0.012255 -0.000021 0.038883 -0.000007
# 2 -0.013387 0.013567 -0.000627 -0.000004 -0.002379 -0.000002
# 3 -0.012255 -0.000627 0.010495 0.000022 -0.004003 0.000008
# 4 -0.000021 -0.000004 0.000022 0.045624 -0.000014 0.014486
# 5 0.038883 -0.002379 -0.004003 -0.000014 0.067154 -0.000001
# 6 -0.000007 -0.000002 0.000008 0.014486 -0.000001 0.052848
#
#
# Mechanical properties :
#
#
# Convention : Reuss Voigt Hill
#
# Bulk Modulus (GPa) = 20.71434 50.97163 35.84298
# Shear Modulus (GPa) = 14.92231 24.59001 19.75616
#
# Velocity S-wave (km/s) = 2.79099 3.58277 3.21137
# Velocity P-wave (km/s) = 4.60426 6.61232 5.69745
#
# Compressibility (1/GPa) = 0.04827574
#
# Stress axis : x y z
#
# Youngs Moduli (GPa) = 13.02908 73.70662 95.28743
#
# Poissons Ratio (x) = 0.98669 1.16771
# Poissons Ratio (y) = 0.17442 0.05979
# Poissons Ratio (z) = 0.15967 0.04625
#
# Static dielectric constant tensor:
#      x y z
#    x 1.620970 0.000000 0.012570 
#    y 0.000000 1.805000 0.000000 
#    z 0.012570 0.000000 1.664100 
# 
# From -- ./inp_files/234984.got.cif
#   From: 2010.05.17/outbox.cif.g08.bks.cpg/sg15_118_cif.got.tgz:234984.got - 2010.06.03 18:47:42.
