data_PCOD9258256
_publ_section_title
;
Structure prediction by ZEFSAII (Michael W. Deem and Ramdas Pophale) SiO2 
 PCOD9258256
Probable space group: C 2/C
;
_chemical_formula_sum "Si O2"
_cell_formula_units_Z 56
_cell_length_a 16.389147
_cell_length_b 8.554044
_cell_length_c 24.523298
_cell_angle_alpha 90.000000
_cell_angle_beta 63.017822
_cell_angle_gamma 90.000000
_cell_volume 3063.771660
_symmetry_space_group_name_H-M "C 2/C"
_symmetry_group_IT_number 15
_symmetry_cell_setting 'monoclinic'
loop_
_space_group_symop_operation_xyz
x,y,z
-x,y,1/2-z
-x,-y,-z
x,-y,1/2+z
1/2+x,1/2+y,z
1/2-x,1/2+y,1/2-z
1/2-x,1/2-y,-z
1/2+x,1/2-y,1/2+z
loop_
_atom_site_type_symbol
_atom_site_label
_atom_site_fract_x
_atom_site_fract_y
_atom_site_fract_z
Si Si1 0.229217 0.525561 0.100199
Si Si2 0.479827 0.888801 0.586882
Si Si3 0.920051 0.890706 0.497929
Si Si4 0.892750 0.342473 0.445937
Si Si5 0.202495 0.694857 0.411949
Si Si6 0.056229 0.271993 0.678486
Si Si7 0.381063 0.466673 0.891505
O O1 0.178767 0.464118 0.060003
O O2 0.254026 0.359129 0.120501
O O3 0.154408 0.639084 0.149590
O O4 0.326705 0.608023 0.060730
O O5 0.536214 0.775825 0.529128
O O6 0.374630 0.865151 0.604856
O O7 0.503590 0.837973 0.641270
O O8 0.517315 0.061937 0.567128
O O9 0.888430 0.952666 0.448235
O O10 0.000000 0.000000 0.500000
O O11 0.845475 0.274455 0.514424
O O12 0.915453 0.208195 0.395247
O O13 0.279593 0.567189 0.400574
O O14 0.000000 0.301206 0.750000
O O15 0.070122 0.086824 0.663635
#
# Coordination Sequence:
#
# PCOD9258256 Si02
#       7
#     8   8   8   8   8   8   8
#     4  10  19  34  58  82 117 153 184 230 297 344
#     4  10  22  32  59  85 121 151 187 229 293 354
#     4  11  18  32  54  93 119 152 180 232 292 366
#     4  10  18  33  52  88 124 148 174 230 297 371
#     4  11  18  35  53  93 123 144 174 234 299 367
#     4  10  24  43  57  74 107 156 210 248 275 337
#     4  10  20  35  57  78 118 146 191 235 296 346
#
# _framework density 18.278124999999999
#
# number of rings (size 3 to 8) (size 9 to 14) (size 15 to 20)
#    0.000    1.714    4.286    1.286    2.000    1.714 
#    0.000    7.857    0.000    0.000    0.000    0.000 
#    0.000    0.000    0.000    0.000    0.000    0.000 
#
# Total GULP energy -156113.914640 kJ/mol
# GULP energy per Si atom -5575.496951 kJ/mol
# Density = 1.823652 g / cm^3
# Si number density = 18.278125 Si / 1000 Ang^3
#
#
#
# Elastic Constant Matrix: (Units=GPa)
#
#
# Indices 1 2 3 4 5 6 
#
# 1 136.1747 41.8364 39.9675 0.0000 -10.2161 0.0000
# 2 41.8364 81.9586 38.7198 0.0000 -5.7062 0.0000
# 3 39.9675 38.7198 91.1575 0.0000 -10.8230 0.0000
# 4 0.0000 0.0000 0.0000 16.8762 0.0000 -3.7758
# 5 -10.2161 -5.7062 -10.8230 0.0000 12.0096 0.0000
# 6 0.0000 0.0000 0.0000 -3.7758 0.0000 32.1624
#
#
#
# Elastic Compliance Matrix: (Units=1/GPa)
#
#
# Indices 1 2 3 4 5 6 
#
# 1 0.009360 -0.003477 -0.002103 0.000000 0.004415 0.000000
# 2 -0.003477 0.016583 -0.005526 0.000000 -0.000059 0.000000
# 3 -0.002103 -0.005526 0.015358 0.000000 0.009427 0.000000
# 4 0.000000 0.000000 0.000000 0.060853 0.000000 0.007144
# 5 0.004415 -0.000059 0.009427 0.000000 0.095490 0.000000
# 6 0.000000 0.000000 0.000000 0.007144 0.000000 0.031931
#
#
# Mechanical properties :
#
#
# Convention : Reuss Voigt Hill
#
# Bulk Modulus (GPa) = 52.38523 61.14869 56.76696
# Shear Modulus (GPa) = 19.36851 24.79412 22.08132
#
# Velocity S-wave (km/s) = 3.25877 3.68705 3.47951
# Velocity P-wave (km/s) = 6.54841 7.18700 6.87513
#
# Compressibility (1/GPa) = 0.01908935
#
# Stress axis : x y z
#
# Youngs Moduli (GPa) = 106.83553 60.30329 65.11090
#
# Poissons Ratio (x) = 0.20968 0.13691
# Poissons Ratio (y) = 0.37148 0.35981
# Poissons Ratio (z) = 0.22465 0.33324
#
# Static dielectric constant tensor:
#      x y z
#    x 1.655880 0.000000 0.000520 
#    y 0.000000 1.693600 0.000000 
#    z 0.000520 0.000000 1.595230 
# 
# From -- ./inp_files/246945.got.cif
#   From: 2010.05.17/outbox.cif.g08.bks.cpg/sg15_124_cif.got.tgz:246945.got - 2010.06.03 18:47:42.
