data_PCOD9258482
_publ_section_title
;
Structure prediction by ZEFSAII (Michael W. Deem and Ramdas Pophale) SiO2 
 PCOD9258482
Probable space group: C 2/C
;
_chemical_formula_sum "Si O2"
_cell_formula_units_Z 48
_cell_length_a 9.394382
_cell_length_b 18.854994
_cell_length_c 11.284896
_cell_angle_alpha 90.000000
_cell_angle_beta 115.307657
_cell_angle_gamma 90.000000
_cell_volume 1807.061039
_symmetry_space_group_name_H-M "C 2/C"
_symmetry_group_IT_number 15
_symmetry_cell_setting 'monoclinic'
loop_
_space_group_symop_operation_xyz
x,y,z
-x,y,1/2-z
-x,-y,-z
x,-y,1/2+z
1/2+x,1/2+y,z
1/2-x,1/2+y,1/2-z
1/2-x,1/2-y,-z
1/2+x,1/2-y,1/2+z
loop_
_atom_site_type_symbol
_atom_site_label
_atom_site_fract_x
_atom_site_fract_y
_atom_site_fract_z
Si Si1 0.840548 0.616219 0.272335
Si Si2 0.419805 0.283666 0.089433
Si Si3 0.462113 0.711020 0.356958
Si Si4 0.825614 0.544647 0.735435
Si Si5 0.853119 0.940730 0.111718
Si Si6 0.723416 0.596694 0.475943
O O1 0.715831 0.679656 0.207962
O O2 0.768852 0.538160 0.215641
O O3 0.853855 0.607787 0.420193
O O4 0.000000 0.624842 0.250000
O O5 0.500000 0.276561 0.250000
O O6 0.393793 0.368190 0.062597
O O7 0.250000 0.250000 0.000000
O O8 0.508725 0.257304 0.002030
O O9 0.500000 0.754030 0.250000
O O10 0.578600 0.644217 0.387928
O O11 0.796987 0.571179 0.857442
O O12 0.758600 0.605527 0.626251
O O13 0.000000 0.536719 0.750000
O O14 0.000000 0.954067 0.250000
O O15 0.821750 0.013767 0.036660
#
# Coordination Sequence:
#
# PCOD9258482 Si02
#       6
#     8   8   8   8   8   8
#     4   9  19  31  51  87 128 164 196 243 313 389
#     4  11  25  45  67  92 124 167 223 276 320 373
#     4  10  21  40  67  97 127 162 209 264 324 387
#     4  10  20  31  46  81 127 164 199 245 310 384
#     4  10  20  35  60  89 119 160 209 260 316 384
#     4  10  18  33  57  88 126 163 200 250 321 398
#
# _framework density 26.562469
#
# number of rings (size 3 to 8) (size 9 to 14) (size 15 to 20)
#    0.000    2.000    0.000    5.500    0.000   10.000 
#    0.000    4.167    0.000    0.000    0.000    0.000 
#    0.000    0.000    0.000    0.000    0.000    0.000 
#
# Total GULP energy -133885.871329 kJ/mol
# GULP energy per Si atom -5578.577972 kJ/mol
# Density = 2.650201 g / cm^3
# Si number density = 26.562469 Si / 1000 Ang^3
#
#
#
# Elastic Constant Matrix: (Units=GPa)
#
#
# Indices 1 2 3 4 5 6 
#
# 1 124.4227 19.2030 30.0547 0.0000 -13.4707 0.0000
# 2 19.2030 76.6740 22.6746 0.0000 1.3278 0.0000
# 3 30.0547 22.6746 109.8849 0.0000 -16.3102 0.0000
# 4 0.0000 0.0000 0.0000 -2.8455 0.0000 13.2002
# 5 -13.4707 1.3278 -16.3102 0.0000 34.1593 0.0000
# 6 0.0000 0.0000 0.0000 13.2002 0.0000 30.3966
#
#
#
# Elastic Compliance Matrix: (Units=1/GPa)
#
#
# Indices 1 2 3 4 5 6 
#
# 1 0.009028 -0.001815 -0.001675 0.000000 0.002831 0.000000
# 2 -0.001815 0.014390 -0.002865 0.000000 -0.002643 0.000000
# 3 -0.001675 -0.002865 0.010836 0.000000 0.004625 0.000000
# 4 0.000000 0.000000 0.000000 -0.116579 0.000000 0.050626
# 5 0.002831 -0.002643 0.004625 0.000000 0.032702 0.000000
# 6 0.000000 0.000000 0.000000 0.050626 0.000000 0.010913
#
#
# Mechanical properties :
#
#
# Convention : Reuss Voigt Hill
#
# Bulk Modulus (GPa) = 46.41490 50.53846 48.47668
# Shear Modulus (GPa) = -265.70409 28.27870 -118.71270
#
# Velocity S-wave (km/s) = -10.01234 3.26638 -6.69245
# Velocity P-wave (km/s) = 10.77733 5.77003 6.43653
#
# Compressibility (1/GPa) = 0.02154481
#
# Stress axis : x y z
#
# Youngs Moduli (GPa) = 110.76330 69.49327 92.28350
#
# Poissons Ratio (x) = 0.12613 0.15454
# Poissons Ratio (y) = 0.20103 0.26441
# Poissons Ratio (z) = 0.18548 0.19912
#
# Static dielectric constant tensor:
#      x y z
#    x 2.137800 0.000000 -0.097040 
#    y 0.000000 2.036940 0.000000 
#    z -0.097040 0.000000 2.338190 
# 
# From -- ./inp_files/79864.got.cif
#   From: 2010.05.17/outbox.cif.g08.bks.cpg/sg15_40_cif.got.tgz:79864.got - 2010.06.03 18:47:42.
