data_PCOD9258282
_publ_section_title
;
Structure prediction by ZEFSAII (Michael W. Deem and Ramdas Pophale) SiO2 
 PCOD9258282
Probable space group: C 2/C
;
_chemical_formula_sum "Si O2"
_cell_formula_units_Z 64
_cell_length_a 9.432506
_cell_length_b 19.803372
_cell_length_c 17.510794
_cell_angle_alpha 90.000000
_cell_angle_beta 91.087183
_cell_angle_gamma 90.000000
_cell_volume 3270.347382
_symmetry_space_group_name_H-M "C 2/C"
_symmetry_group_IT_number 15
_symmetry_cell_setting 'monoclinic'
loop_
_space_group_symop_operation_xyz
x,y,z
-x,y,1/2-z
-x,-y,-z
x,-y,1/2+z
1/2+x,1/2+y,z
1/2-x,1/2+y,1/2-z
1/2-x,1/2-y,-z
1/2+x,1/2-y,1/2+z
loop_
_atom_site_type_symbol
_atom_site_label
_atom_site_fract_x
_atom_site_fract_y
_atom_site_fract_z
Si Si1 0.630226 0.679622 0.705100
Si Si2 0.701189 0.123213 0.073308
Si Si3 0.500472 0.249523 0.442540
Si Si4 0.450593 0.935073 0.673351
Si Si5 0.216975 0.700577 0.323824
Si Si6 0.391656 0.036920 0.555304
Si Si7 0.579397 0.146534 0.830263
Si Si8 0.523124 0.296585 0.889441
O O1 0.500000 0.648744 0.750000
O O2 0.574052 0.707417 0.624466
O O3 0.685222 0.742218 0.759406
O O4 0.758132 0.630742 0.687930
O O5 0.607291 0.187281 0.044792
O O6 0.594179 0.086542 0.130621
O O7 0.845635 0.151427 0.111044
O O8 0.720700 0.074562 0.000180
O O9 0.644779 0.224918 0.402980
O O10 0.518548 0.288004 0.521873
O O11 0.500000 0.972828 0.750000
O O12 0.366950 0.867619 0.696261
O O13 0.354211 0.979743 0.616410
O O14 0.382741 0.688050 0.339014
O O15 0.469614 0.094826 0.605665
O O16 0.500000 0.000000 0.500000
O O17 0.500000 0.143486 0.750000
O O18 0.573040 0.222816 0.861471
#
# Coordination Sequence:
#
# PCOD9258282 Si02
#       8
#     8   8   8   8   8   8   8   8
#     4  10  20  35  55  88 125 156 190 241 312 374
#     4  10  19  34  59  85 114 151 197 242 292 347
#     4  10  18  33  53  80 119 157 185 225 299 370
#     4  10  21  39  60  77 112 162 205 235 284 356
#     4  10  21  35  54  86 121 154 187 242 306 365
#     4  10  22  40  60  85 113 159 212 248 277 346
#     4  12  22  35  61  93 124 147 194 256 312 351
#     4  12  21  33  56  95 122 146 183 256 318 357
#
# _framework density 19.569787000000002
#
# number of rings (size 3 to 8) (size 9 to 14) (size 15 to 20)
#    0.000    1.500    3.750    3.750    0.000    0.000 
#    0.000    0.625    0.000    4.500    0.000    0.000 
#    0.000    0.000    0.000    0.000    0.000    0.000 
#
# Total GULP energy -178527.538276 kJ/mol
# GULP energy per Si atom -5578.985571 kJ/mol
# Density = 1.952525 g / cm^3
# Si number density = 19.569787 Si / 1000 Ang^3
#
#
#
# Elastic Constant Matrix: (Units=GPa)
#
#
# Indices 1 2 3 4 5 6 
#
# 1 84.1010 16.7634 23.2174 0.0000 12.5507 0.0000
# 2 16.7634 43.0766 17.6052 0.0000 -1.8022 0.0000
# 3 23.2174 17.6052 98.2474 0.0000 5.8812 0.0000
# 4 0.0000 0.0000 0.0000 20.9751 0.0000 -3.7345
# 5 12.5507 -1.8022 5.8812 0.0000 22.7465 0.0000
# 6 0.0000 0.0000 0.0000 -3.7345 0.0000 13.6170
#
#
#
# Elastic Compliance Matrix: (Units=1/GPa)
#
#
# Indices 1 2 3 4 5 6 
#
# 1 0.014689 -0.005208 -0.002060 0.000000 -0.007985 0.000000
# 2 -0.005208 0.027126 -0.003992 0.000000 0.006055 0.000000
# 3 -0.002060 -0.003992 0.011510 0.000000 -0.002156 0.000000
# 4 0.000000 0.000000 0.000000 0.050123 0.000000 0.013746
# 5 -0.007985 0.006055 -0.002156 0.000000 0.049406 0.000000
# 6 0.000000 0.000000 0.000000 0.013746 0.000000 0.077207
#
#
# Mechanical properties :
#
#
# Convention : Reuss Voigt Hill
#
# Bulk Modulus (GPa) = 32.46412 37.84413 35.15412
# Shear Modulus (GPa) = 19.02222 22.65700 20.83961
#
# Velocity S-wave (km/s) = 3.12111 3.40627 3.26680
# Velocity P-wave (km/s) = 5.44181 5.90341 5.67730
#
# Compressibility (1/GPa) = 0.03080324
#
# Stress axis : x y z
#
# Youngs Moduli (GPa) = 68.07852 36.86451 86.88370
#
# Poissons Ratio (x) = 0.19201 0.17897
# Poissons Ratio (y) = 0.35458 0.34688
# Poissons Ratio (z) = 0.14024 0.14718
#
# Static dielectric constant tensor:
#      x y z
#    x 1.705260 0.000000 -0.021990 
#    y 0.000000 1.708770 0.000000 
#    z -0.021990 0.000000 1.714870 
# 
# From -- ./inp_files/193008.got.cif
#   From: 2010.05.17/outbox.cif.g08.bks.cpg/sg15_97_cif.got.tgz:193008.got - 2010.06.03 18:47:42.
