data_PCOD9258719
_publ_section_title
;
Structure prediction by ZEFSAII (Michael W. Deem and Ramdas Pophale) SiO2 
 PCOD9258719
Probable space group: C 2/C
;
_chemical_formula_sum "Si O2"
_cell_formula_units_Z 56
_cell_length_a 23.797206
_cell_length_b 11.437344
_cell_length_c 17.935169
_cell_angle_alpha 90.000000
_cell_angle_beta 146.850113
_cell_angle_gamma 90.000000
_cell_volume 2669.376743
_symmetry_space_group_name_H-M "C 2/C"
_symmetry_group_IT_number 15
_symmetry_cell_setting 'monoclinic'
loop_
_space_group_symop_operation_xyz
x,y,z
-x,y,1/2-z
-x,-y,-z
x,-y,1/2+z
1/2+x,1/2+y,z
1/2-x,1/2+y,1/2-z
1/2-x,1/2-y,-z
1/2+x,1/2-y,1/2+z
loop_
_atom_site_type_symbol
_atom_site_label
_atom_site_fract_x
_atom_site_fract_y
_atom_site_fract_z
Si Si1 0.727824 0.081946 0.918135
Si Si2 0.378003 0.048113 0.439162
Si Si3 0.849742 0.066109 0.302969
Si Si4 0.928381 0.597400 0.321515
Si Si5 0.115267 0.183025 0.299049
Si Si6 0.106433 0.188682 0.501344
Si Si7 0.030580 0.147881 0.587604
O O1 0.649230 0.184935 0.856702
O O2 0.660246 0.967075 0.824908
O O3 0.816274 0.090393 0.079372
O O4 0.795309 0.119947 0.920504
O O5 0.260280 0.010261 0.307711
O O6 0.405307 0.069713 0.382946
O O7 0.379913 0.172002 0.482909
O O8 0.460823 0.962787 0.567842
O O9 0.848115 0.175203 0.246141
O O10 0.910951 0.114243 0.442805
O O11 0.915746 0.971558 0.330281
O O12 0.942769 0.737647 0.335956
O O13 0.993346 0.165997 0.160698
O O14 0.075429 0.161817 0.552633
#
# Coordination Sequence:
#
# PCOD9258719 Si02
#       7
#     8   8   8   8   8   8   8
#     4  11  20  34  54  79 111 145 177 230 274 328
#     4  10  19  31  56  78 111 140 178 235 278 330
#     4  10  19  37  53  81 108 150 182 225 281 332
#     4  10  21  34  51  84 110 140 186 228 279 330
#     4  10  21  33  53  79 110 143 186 222 270 329
#     4  10  18  34  53  82 107 144 180 230 277 326
#     4   9  21  35  57  79 114 141 186 230 278 334
#
# _framework density 20.978680000000001
#
# number of rings (size 3 to 8) (size 9 to 14) (size 15 to 20)
#    0.000    2.000    2.857    1.286    2.000    2.286 
#    0.000    1.429    0.000    0.000    0.000    2.000 
#    0.000    0.000    0.000    0.000    0.000    0.000 
#
# Total GULP energy -155976.350048 kJ/mol
# GULP energy per Si atom -5570.583930 kJ/mol
# Density = 2.093093 g / cm^3
# Si number density = 20.978680 Si / 1000 Ang^3
#
#
#
# Elastic Constant Matrix: (Units=GPa)
#
#
# Indices 1 2 3 4 5 6 
#
# 1 25.2477 -3.3933 17.0953 0.0000 12.1271 0.0000
# 2 -3.3933 108.0560 63.6510 0.0000 4.7815 0.0000
# 3 17.0953 63.6510 144.9384 0.0000 17.6420 0.0000
# 4 0.0000 0.0000 0.0000 25.5373 0.0000 -4.8109
# 5 12.1271 4.7815 17.6420 0.0000 28.7868 0.0000
# 6 0.0000 0.0000 0.0000 -4.8109 0.0000 15.1189
#
#
#
# Elastic Compliance Matrix: (Units=1/GPa)
#
#
# Indices 1 2 3 4 5 6 
#
# 1 0.054815 0.006722 -0.006992 0.000000 -0.019923 0.000000
# 2 0.006722 0.013360 -0.006532 0.000000 -0.001047 0.000000
# 3 -0.006992 -0.006532 0.010917 0.000000 -0.002660 0.000000
# 4 0.000000 0.000000 0.000000 0.041655 0.000000 0.013255
# 5 -0.019923 -0.001047 -0.002660 0.000000 0.044935 0.000000
# 6 0.000000 0.000000 0.000000 0.013255 0.000000 0.070360
#
#
# Mechanical properties :
#
#
# Convention : Reuss Voigt Hill
#
# Bulk Modulus (GPa) = 15.27046 48.10535 31.68790
# Shear Modulus (GPa) = 18.41779 27.28122 22.84950
#
# Velocity S-wave (km/s) = 2.96620 3.61005 3.30385
# Velocity P-wave (km/s) = 4.36188 6.35272 5.44899
#
# Compressibility (1/GPa) = 0.06548592
#
# Stress axis : x y z
#
# Youngs Moduli (GPa) = 18.24316 74.85105 91.60261
#
# Poissons Ratio (x) = -0.50313 0.64050
# Poissons Ratio (y) = -0.12263 0.59839
# Poissons Ratio (z) = 0.12756 0.48896
#
# Static dielectric constant tensor:
#      x y z
#    x 1.821920 0.000000 0.009990 
#    y 0.000000 1.761740 0.000000 
#    z 0.009990 0.000000 1.802330 
# 
# From -- ./inp_files/257426.got.cif
#   From: 2010.05.17/outbox.cif.g08.bks.cpg/sg15_129_cif.got.tgz:257426.got - 2010.06.03 18:47:42.
