data_PCOD9258848
_publ_section_title
;
Structure prediction by ZEFSAII (Michael W. Deem and Ramdas Pophale) SiO2 
 PCOD9258848
Probable space group: C 2/C
;
_chemical_formula_sum "Si O2"
_cell_formula_units_Z 64
_cell_length_a 15.056909
_cell_length_b 12.862846
_cell_length_c 21.706001
_cell_angle_alpha 90.000000
_cell_angle_beta 140.366898
_cell_angle_gamma 90.000000
_cell_volume 2681.539737
_symmetry_space_group_name_H-M "C 2/C"
_symmetry_group_IT_number 15
_symmetry_cell_setting 'monoclinic'
loop_
_space_group_symop_operation_xyz
x,y,z
-x,y,1/2-z
-x,-y,-z
x,-y,1/2+z
1/2+x,1/2+y,z
1/2-x,1/2+y,1/2-z
1/2-x,1/2-y,-z
1/2+x,1/2-y,1/2+z
loop_
_atom_site_type_symbol
_atom_site_label
_atom_site_fract_x
_atom_site_fract_y
_atom_site_fract_z
Si Si1 0.593885 0.305469 0.103454
Si Si2 0.138204 0.058902 0.367247
Si Si3 0.678526 0.854650 0.170402
Si Si4 0.657280 0.074606 0.132081
Si Si5 0.157412 0.098417 0.510602
Si Si6 0.225273 0.879589 0.569716
Si Si7 0.353320 0.324794 0.140213
Si Si8 0.138996 0.127523 0.154153
O O1 0.697225 0.347112 0.212352
O O2 0.575500 0.180705 0.097897
O O3 0.669476 0.330829 0.078053
O O4 0.437656 0.348602 0.024112
O O5 0.275429 0.070848 0.399269
O O6 0.152981 0.129490 0.436152
O O7 0.000000 0.076036 0.250000
O O8 0.133793 0.936679 0.385847
O O9 0.746625 0.844750 0.139308
O O10 0.594608 0.748450 0.135874
O O11 0.598254 0.963957 0.123168
O O12 0.791505 0.088994 0.247493
O O13 0.996392 0.062343 0.432793
O O14 0.254206 0.997451 0.566603
O O15 0.312925 0.785063 0.588734
O O16 0.245758 0.879050 0.655004
O O17 0.500000 0.307113 0.250000
#
# Coordination Sequence:
#
# PCOD9258848 Si02
#       8
#     8   8   8   8   8   8   8   8
#     4  10  21  33  57  87 111 143 187 235 276 319
#     4  10  20  34  56  77 106 154 192 220 266 340
#     4   9  18  34  55  81 114 146 188 223 271 333
#     4  10  18  34  56  80 109 147 185 226 275 324
#     4  11  20  34  55  82 112 141 187 233 274 323
#     4  10  20  34  55  85 111 136 177 241 288 319
#     4   9  20  36  55  83 110 143 184 223 284 350
#     4   9  17  32  53  80 108 143 182 224 270 334
#
# _framework density 23.866883999999999
#
# number of rings (size 3 to 8) (size 9 to 14) (size 15 to 20)
#    0.000    2.250    1.250    3.000    3.500    1.000 
#    0.000   10.000    0.000    0.750    9.750    0.000 
#    0.000    0.000    0.000    0.000    0.000    0.000 
#
# Total GULP energy -178427.699179 kJ/mol
# GULP energy per Si atom -5575.865599 kJ/mol
# Density = 2.381256 g / cm^3
# Si number density = 23.866884 Si / 1000 Ang^3
#
#
#
# Elastic Constant Matrix: (Units=GPa)
#
#
# Indices 1 2 3 4 5 6 
#
# 1 27.1398 5.6404 10.7034 0.0000 -16.3800 0.0000
# 2 5.6404 122.1299 17.8286 0.0000 2.9708 0.0000
# 3 10.7034 17.8286 50.2605 0.0000 -16.6456 0.0000
# 4 0.0000 0.0000 0.0000 19.9207 0.0000 -1.6204
# 5 -16.3800 2.9708 -16.6456 0.0000 34.4395 0.0000
# 6 0.0000 0.0000 0.0000 -1.6204 0.0000 17.3248
#
#
#
# Elastic Compliance Matrix: (Units=1/GPa)
#
#
# Indices 1 2 3 4 5 6 
#
# 1 0.052995 -0.002710 -0.002262 0.000000 0.024346 0.000000
# 2 -0.002710 0.008982 -0.003920 0.000000 -0.003958 0.000000
# 3 -0.002262 -0.003920 0.025626 0.000000 0.011648 0.000000
# 4 0.000000 0.000000 0.000000 0.050584 0.000000 0.004731
# 5 0.024346 -0.003958 0.011648 0.000000 0.046587 0.000000
# 6 0.000000 0.000000 0.000000 0.004731 0.000000 0.058163
#
#
# Mechanical properties :
#
#
# Convention : Reuss Voigt Hill
#
# Bulk Modulus (GPa) = 14.32234 29.76390 22.04312
# Shear Modulus (GPa) = 17.60607 25.36085 21.48346
#
# Velocity S-wave (km/s) = 2.71897 3.26328 3.00348
# Velocity P-wave (km/s) = 3.98384 5.16687 4.61344
#
# Compressibility (1/GPa) = 0.06982101
#
# Stress axis : x y z
#
# Youngs Moduli (GPa) = 18.86968 111.33827 39.02258
#
# Poissons Ratio (x) = 0.30168 0.08825
# Poissons Ratio (y) = 0.05113 0.15296
# Poissons Ratio (z) = 0.04267 0.43643
#
# Static dielectric constant tensor:
#      x y z
#    x 1.926710 0.000000 -0.062390 
#    y 0.000000 1.990080 0.000000 
#    z -0.062390 0.000000 1.954130 
# 
# From -- ./inp_files/279899.got.cif
#   From: 2010.05.17/outbox.cif.g08.bks.cpg/sg15_140_cif.got.tgz:279899.got - 2010.06.03 18:47:42.
