data_PCOD9258342
_publ_section_title
;
Structure prediction by ZEFSAII (Michael W. Deem and Ramdas Pophale) SiO2 
 PCOD9258342
Probable space group: C 2/C
;
_chemical_formula_sum "Si O2"
_cell_formula_units_Z 52
_cell_length_a 9.996735
_cell_length_b 29.774459
_cell_length_c 14.304711
_cell_angle_alpha 90.000000
_cell_angle_beta 146.308999
_cell_angle_gamma 90.000000
_cell_volume 2361.837858
_symmetry_space_group_name_H-M "C 2/C"
_symmetry_group_IT_number 15
_symmetry_cell_setting 'monoclinic'
loop_
_space_group_symop_operation_xyz
x,y,z
-x,y,1/2-z
-x,-y,-z
x,-y,1/2+z
1/2+x,1/2+y,z
1/2-x,1/2+y,1/2-z
1/2-x,1/2-y,-z
1/2+x,1/2-y,1/2+z
loop_
_atom_site_type_symbol
_atom_site_label
_atom_site_fract_x
_atom_site_fract_y
_atom_site_fract_z
Si Si1 0.282303 0.486692 0.947632
Si Si2 0.779796 0.202194 0.406528
Si Si3 0.500000 0.780402 0.250000
Si Si4 0.757779 0.417211 0.043040
Si Si5 0.862848 0.277435 0.868972
Si Si6 0.020129 0.892062 0.437150
Si Si7 0.032716 0.349802 0.096359
O O1 0.280784 0.531469 0.010157
O O2 0.000000 0.482773 0.750000
O O3 0.500000 0.500000 0.000000
O O4 0.358676 0.437728 0.028085
O O5 0.500000 0.212574 0.250000
O O6 0.818208 0.207410 0.317244
O O7 0.822675 0.152677 0.469787
O O8 0.955791 0.237947 0.555606
O O9 0.280297 0.745874 0.129988
O O10 0.535214 0.813880 0.183128
O O11 0.555041 0.401051 0.997800
O O12 0.000000 0.417000 0.250000
O O13 0.812941 0.383160 0.992036
O O14 0.003262 0.320657 0.987110
O O15 0.775939 0.878755 0.241342
#
# Coordination Sequence:
#
# PCOD9258342 Si02
#       7
#     8   8   4   8   8   8   8
#     4   9  17  30  53  88 119 155 206 259 314 374
#     4  12  24  40  55  79 120 166 204 251 293 374
#     4  12  20  36  60  84 126 152 202 256 316 360
#     4   8  15  29  53  83 117 144 186 252 308 357
#     4  12  25  37  58  87 117 165 208 253 313 363
#     4  10  18  33  54  83 114 155 202 244 298 368
#     4  11  19  35  58  87 124 154 198 258 313 368
#
# _framework density 22.016753000000001
#
# number of rings (size 3 to 8) (size 9 to 14) (size 15 to 20)
#    0.000    1.538    5.385    2.308    2.154    0.000 
#    0.000    0.000    0.000    0.000    0.000   53.846 
#    0.000    0.000    0.000    0.000    0.000    0.000 
#
# Total GULP energy -144977.444125 kJ/mol
# GULP energy per Si atom -5576.055543 kJ/mol
# Density = 2.196664 g / cm^3
# Si number density = 22.016753 Si / 1000 Ang^3
#
#
#
# Elastic Constant Matrix: (Units=GPa)
#
#
# Indices 1 2 3 4 5 6 
#
# 1 26.3234 14.3689 11.4668 0.0000 14.7200 0.0000
# 2 14.3689 177.2652 32.3604 0.0000 0.7666 0.0000
# 3 11.4668 32.3604 46.5047 0.0000 15.1464 0.0000
# 4 0.0000 0.0000 0.0000 33.8044 0.0000 24.7876
# 5 14.7200 0.7666 15.1464 0.0000 32.6669 0.0000
# 6 0.0000 0.0000 0.0000 24.7876 0.0000 -1.4303
#
#
#
# Elastic Compliance Matrix: (Units=1/GPa)
#
#
# Indices 1 2 3 4 5 6 
#
# 1 0.054204 -0.003676 -0.003393 0.000000 -0.022765 0.000000
# 2 -0.003676 0.006859 -0.005128 0.000000 0.003873 0.000000
# 3 -0.003393 -0.005128 0.029883 0.000000 -0.012207 0.000000
# 4 0.000000 0.000000 0.000000 0.002158 0.000000 0.037400
# 5 -0.022765 0.003873 -0.012207 0.000000 0.046439 0.000000
# 6 0.000000 0.000000 0.000000 0.037400 0.000000 -0.051004
#
#
# Mechanical properties :
#
#
# Convention : Reuss Voigt Hill
#
# Bulk Modulus (GPa) = 15.02553 40.72060 27.87307
# Shear Modulus (GPa) = 37.00547 25.80136 31.40341
#
# Velocity S-wave (km/s) = 4.10419 3.42701 3.78079
# Velocity P-wave (km/s) = 5.41281 5.84762 5.63441
#
# Compressibility (1/GPa) = 0.06655338
#
# Stress axis : x y z
#
# Youngs Moduli (GPa) = 18.44893 145.80394 33.46333
#
# Poissons Ratio (x) = 0.53596 0.11353
# Poissons Ratio (y) = 0.06782 0.17158
# Poissons Ratio (z) = 0.06259 0.74761
#
# Static dielectric constant tensor:
#      x y z
#    x 1.973740 0.000000 -0.011590 
#    y 0.000000 1.796990 0.000000 
#    z -0.011590 0.000000 1.842820 
# 
# From -- ./inp_files/201372.got.cif
#   From: 2010.05.17/outbox.cif.g08.bks.cpg/sg15_101_cif.got.tgz:201372.got - 2010.06.03 18:47:42.
