data_PCOD9258170
_publ_section_title
;
Structure prediction by ZEFSAII (Michael W. Deem and Ramdas Pophale) SiO2 
 PCOD9258170
Probable space group: C 2/C
;
_chemical_formula_sum "Si O2"
_cell_formula_units_Z 36
_cell_length_a 21.561625
_cell_length_b 7.928447
_cell_length_c 15.008944
_cell_angle_alpha 90.000000
_cell_angle_beta 147.039441
_cell_angle_gamma 90.000000
_cell_volume 1395.943421
_symmetry_space_group_name_H-M "C 2/C"
_symmetry_group_IT_number 15
_symmetry_cell_setting 'monoclinic'
loop_
_space_group_symop_operation_xyz
x,y,z
-x,y,1/2-z
-x,-y,-z
x,-y,1/2+z
1/2+x,1/2+y,z
1/2-x,1/2+y,1/2-z
1/2-x,1/2-y,-z
1/2+x,1/2-y,1/2+z
loop_
_atom_site_type_symbol
_atom_site_label
_atom_site_fract_x
_atom_site_fract_y
_atom_site_fract_z
Si Si1 0.183367 0.367696 0.989005
Si Si2 0.500000 0.394502 0.250000
Si Si3 0.149404 0.586417 0.099415
Si Si4 0.513604 0.382428 0.601327
Si Si5 0.392006 0.961195 0.273000
O O1 0.088806 0.231205 0.902553
O O2 0.138164 0.509779 0.865477
O O3 0.250000 0.250000 0.000000
O O4 0.225093 0.475776 0.123724
O O5 0.453850 0.511968 0.272622
O O6 0.177595 0.567896 0.237840
O O7 0.105013 0.775586 0.024464
O O8 0.025681 0.491961 0.942194
O O9 0.500000 0.500000 0.500000
O O10 0.606516 0.234884 0.699621
#
# Coordination Sequence:
#
# PCOD9258170 Si02
#       5
#     8   4   8   8   8
#     4  12  23  39  61  91 127 176 208 270 336 384
#     4  12  20  36  58  86 114 154 220 260 310 414
#     4   9  18  38  64  85 122 162 212 259 332 375
#     4  10  18  32  64  94 112 160 212 266 320 384
#     4   9  18  38  64  85 122 162 212 259 332 375
#
# _framework density 25.789009
#
# number of rings (size 3 to 8) (size 9 to 14) (size 15 to 20)
#    1.333    0.444    2.222    4.000    0.000    0.000 
#    0.000   11.111    0.000    0.000    0.000    0.000 
#    0.000    0.000    0.000    0.000    0.000    0.000 
#
# Total GULP energy -100377.549671 kJ/mol
# GULP energy per Si atom -5576.530537 kJ/mol
# Density = 2.573031 g / cm^3
# Si number density = 25.789009 Si / 1000 Ang^3
#
#
#
# Elastic Constant Matrix: (Units=GPa)
#
#
# Indices 1 2 3 4 5 6 
#
# 1 65.3271 35.5552 9.9974 0.0000 -25.1774 0.0000
# 2 35.5552 147.5696 18.0652 0.0000 -10.2981 0.0000
# 3 9.9974 18.0652 41.8007 0.0000 -18.4446 0.0000
# 4 0.0000 0.0000 0.0000 37.7314 0.0000 -10.7798
# 5 -25.1774 -10.2981 -18.4446 0.0000 42.9624 0.0000
# 6 0.0000 0.0000 0.0000 -10.7798 0.0000 67.8530
#
#
#
# Elastic Compliance Matrix: (Units=1/GPa)
#
#
# Indices 1 2 3 4 5 6 
#
# 1 0.022639 -0.004840 0.002491 0.000000 0.013177 0.000000
# 2 -0.004840 0.008198 -0.003417 0.000000 -0.002338 0.000000
# 3 0.002491 -0.003417 0.030950 0.000000 0.013928 0.000000
# 4 0.000000 0.000000 0.000000 0.027763 0.000000 0.004411
# 5 0.013177 -0.002338 0.013928 0.000000 0.036417 0.000000
# 6 0.000000 0.000000 0.000000 0.004411 0.000000 0.015438
#
#
# Mechanical properties :
#
#
# Convention : Reuss Voigt Hill
#
# Bulk Modulus (GPa) = 19.89852 42.43701 31.16776
# Shear Modulus (GPa) = 29.46573 42.44800 35.95686
#
# Velocity S-wave (km/s) = 3.38386 4.06146 3.73804
# Velocity P-wave (km/s) = 4.79583 6.20364 5.54460
#
# Compressibility (1/GPa) = 0.05025499
#
# Stress axis : x y z
#
# Youngs Moduli (GPa) = 44.17180 121.98477 32.31030
#
# Poissons Ratio (x) = 0.59041 -0.08050
# Poissons Ratio (y) = 0.21379 0.11041
# Poissons Ratio (z) = -0.11005 0.41684
#
# Static dielectric constant tensor:
#      x y z
#    x 2.262090 0.000000 0.111800 
#    y 0.000000 1.998350 0.000000 
#    z 0.111800 0.000000 2.123820 
# 
# From -- ./inp_files/166734.got.cif
#   From: 2010.05.17/outbox.cif.g08.bks.cpg/sg15_84_cif.got.tgz:166734.got - 2010.06.03 18:47:42.
