data_PCOD9258748
_publ_section_title
;
Structure prediction by ZEFSAII (Michael W. Deem and Ramdas Pophale) SiO2 
 PCOD9258748
Probable space group: C 2/C
;
_chemical_formula_sum "Si O2"
_cell_formula_units_Z 48
_cell_length_a 8.980267
_cell_length_b 16.748842
_cell_length_c 15.654345
_cell_angle_alpha 90.000000
_cell_angle_beta 79.280667
_cell_angle_gamma 90.000000
_cell_volume 2313.468745
_symmetry_space_group_name_H-M "C 2/C"
_symmetry_group_IT_number 15
_symmetry_cell_setting 'monoclinic'
loop_
_space_group_symop_operation_xyz
x,y,z
-x,y,1/2-z
-x,-y,-z
x,-y,1/2+z
1/2+x,1/2+y,z
1/2-x,1/2+y,1/2-z
1/2-x,1/2-y,-z
1/2+x,1/2-y,1/2+z
loop_
_atom_site_type_symbol
_atom_site_label
_atom_site_fract_x
_atom_site_fract_y
_atom_site_fract_z
Si Si1 0.300708 0.368471 0.191287
Si Si2 0.965988 0.407781 0.401852
Si Si3 0.254683 0.324586 0.395304
Si Si4 0.488691 0.784990 0.649179
Si Si5 0.552649 0.472492 0.087105
Si Si6 0.833247 0.557060 0.096439
O O1 0.288868 0.348203 0.292268
O O2 0.382127 0.291191 0.141673
O O3 0.411777 0.441849 0.158110
O O4 0.140260 0.383894 0.164548
O O5 0.074547 0.335107 0.420903
O O6 0.077379 0.482166 0.372541
O O7 0.864661 0.438073 0.491477
O O8 0.343682 0.241878 0.401088
O O9 0.335668 0.396164 0.437500
O O10 0.500000 0.793728 0.750000
O O11 0.407716 0.863267 0.623997
O O12 0.655299 0.539142 0.122740
O O13 0.500000 0.500000 0.000000
#
# Coordination Sequence:
#
# PCOD9258748 Si02
#       6
#     8   8   8   8   8   8
#     4  10  19  37  60  80 108 153 194 231 281 345
#     4  10  20  35  57  85 111 146 189 232 283 346
#     4   9  20  36  57  79 111 154 193 227 283 347
#     4   9  20  38  56  80 114 148 187 234 284 338
#     4  10  18  34  54  80 112 142 184 232 277 336
#     4  10  21  35  55  85 116 143 184 239 291 330
#
# _framework density 20.748066000000001
#
# number of rings (size 3 to 8) (size 9 to 14) (size 15 to 20)
#    0.000    2.333    1.667    2.000    0.000    4.000 
#    0.000    1.667    0.000    6.000    0.000    0.000 
#    0.000    0.000    0.000    0.000    0.000    0.000 
#
# Total GULP energy -133929.642518 kJ/mol
# GULP energy per Si atom -5580.401772 kJ/mol
# Density = 2.070084 g / cm^3
# Si number density = 20.748066 Si / 1000 Ang^3
#
#
#
# Elastic Constant Matrix: (Units=GPa)
#
#
# Indices 1 2 3 4 5 6 
#
# 1 143.0678 57.7506 22.1844 0.0000 23.5730 0.0000
# 2 57.7506 102.5369 15.5332 0.0000 18.8040 0.0000
# 3 22.1844 15.5332 27.6649 0.0000 16.5978 0.0000
# 4 0.0000 0.0000 0.0000 17.4672 0.0000 9.0979
# 5 23.5730 18.8040 16.5978 0.0000 37.3152 0.0000
# 6 0.0000 0.0000 0.0000 9.0979 0.0000 43.9896
#
#
#
# Elastic Compliance Matrix: (Units=1/GPa)
#
#
# Indices 1 2 3 4 5 6 
#
# 1 0.009786 -0.004512 -0.004050 0.000000 -0.002107 0.000000
# 2 -0.004512 0.013127 -0.002037 0.000000 -0.002858 0.000000
# 3 -0.004050 -0.002037 0.052361 0.000000 -0.019705 0.000000
# 4 0.000000 0.000000 0.000000 0.064162 0.000000 -0.013270
# 5 -0.002107 -0.002858 -0.019705 0.000000 0.038335 0.000000
# 6 0.000000 0.000000 0.000000 -0.013270 0.000000 0.025477
#
#
# Mechanical properties :
#
#
# Convention : Reuss Voigt Hill
#
# Bulk Modulus (GPa) = 18.49287 51.57844 35.03566
# Shear Modulus (GPa) = 20.62107 31.60783 26.11445
#
# Velocity S-wave (km/s) = 3.15601 3.90732 3.55159
# Velocity P-wave (km/s) = 4.71306 6.72827 5.80872
#
# Compressibility (1/GPa) = 0.05407490
#
# Stress axis : x y z
#
# Youngs Moduli (GPa) = 102.18595 76.18172 19.09834
#
# Poissons Ratio (x) = 0.34371 0.07735
# Poissons Ratio (y) = 0.46104 0.03891
# Poissons Ratio (z) = 0.41385 0.15521
#
# Static dielectric constant tensor:
#      x y z
#    x 1.770710 0.000000 -0.045100 
#    y 0.000000 1.754100 0.000000 
#    z -0.045100 0.000000 1.778210 
# 
# From -- ./inp_files/189738.got.cif
#   From: 2010.05.17/outbox.cif.g08.bks.cpg/sg15_95_cif.got.tgz:189738.got - 2010.06.03 18:47:42.
