data_PCOD9258239
_publ_section_title
;
Structure prediction by ZEFSAII (Michael W. Deem and Ramdas Pophale) SiO2 
 PCOD9258239
Probable space group: C 2/C
;
_chemical_formula_sum "Si O2"
_cell_formula_units_Z 52
_cell_length_a 20.485307
_cell_length_b 6.055421
_cell_length_c 27.087293
_cell_angle_alpha 90.000000
_cell_angle_beta 53.166649
_cell_angle_gamma 90.000000
_cell_volume 2689.366792
_symmetry_space_group_name_H-M "C 2/C"
_symmetry_group_IT_number 15
_symmetry_cell_setting 'monoclinic'
loop_
_space_group_symop_operation_xyz
x,y,z
-x,y,1/2-z
-x,-y,-z
x,-y,1/2+z
1/2+x,1/2+y,z
1/2-x,1/2+y,1/2-z
1/2-x,1/2-y,-z
1/2+x,1/2-y,1/2+z
loop_
_atom_site_type_symbol
_atom_site_label
_atom_site_fract_x
_atom_site_fract_y
_atom_site_fract_z
Si Si1 0.262082 0.437300 0.453008
Si Si2 0.460797 0.944757 0.699378
Si Si3 0.132341 0.186851 0.020426
Si Si4 0.433157 0.679841 0.015275
Si Si5 0.613393 0.711504 0.676475
Si Si6 0.969457 0.446975 0.088506
Si Si7 0.000000 0.827879 0.750000
O O1 0.250000 0.250000 0.500000
O O2 0.185076 0.599151 0.479288
O O3 0.329410 0.602076 0.445980
O O4 0.300499 0.317581 0.388338
O O5 0.544260 0.802273 0.669251
O O6 0.396956 0.855618 0.769211
O O7 0.432425 0.964719 0.656263
O O8 0.487035 0.180578 0.708108
O O9 0.131800 0.975090 0.983616
O O10 0.040514 0.270773 0.068976
O O11 0.413145 0.826180 0.073063
O O12 0.500000 0.500000 0.000000
O O13 0.481288 0.850472 0.958418
O O14 0.579157 0.475366 0.707389
#
# Coordination Sequence:
#
# PCOD9258239 Si02
#       7
#     8   8   8   8   8   8   4
#     4  11  21  32  49  73 112 144 175 211 265 330
#     4   9  17  28  48  70 100 137 165 204 263 317
#     4  10  20  31  49  74 105 146 175 211 272 325
#     4   9  19  32  50  75 107 129 172 221 274 310
#     4   9  18  29  43  70 104 137 168 202 251 327
#     4  10  18  33  52  75 109 132 171 225 273 317
#     4   8  16  30  46  68 106 134 154 202 254 314
#
# _framework density 19.335405999999999
#
# number of rings (size 3 to 8) (size 9 to 14) (size 15 to 20)
#    0.000    2.769    0.000    3.692    0.000    7.385 
#    0.000    0.000    0.000    0.000    0.000    0.000 
#  207.692    0.000    0.000    0.000    0.000    0.000 
#
# Total GULP energy -144785.323283 kJ/mol
# GULP energy per Si atom -5568.666280 kJ/mol
# Density = 1.929140 g / cm^3
# Si number density = 19.335406 Si / 1000 Ang^3
#
#
#
# Elastic Constant Matrix: (Units=GPa)
#
#
# Indices 1 2 3 4 5 6 
#
# 1 56.9028 16.0235 23.9893 -0.0068 14.8677 -0.0124
# 2 16.0235 86.0279 26.8363 -0.0801 8.9743 -0.0648
# 3 23.9893 26.8363 107.4099 -0.0087 23.7194 -0.0139
# 4 -0.0068 -0.0801 -0.0087 3.4063 -0.0115 0.0345
# 5 14.8677 8.9743 23.7194 -0.0115 31.2728 -0.0046
# 6 -0.0124 -0.0648 -0.0139 0.0345 -0.0046 37.2966
#
#
#
# Elastic Compliance Matrix: (Units=1/GPa)
#
#
# Indices 1 2 3 4 5 6 
#
# 1 0.021267 -0.002399 -0.002486 -0.000046 -0.007536 0.000001
# 2 -0.002399 0.012935 -0.002556 0.000291 -0.000632 0.000020
# 3 -0.002486 -0.002556 0.012109 -0.000058 -0.007269 -0.000002
# 4 -0.000046 0.000291 -0.000058 0.293587 0.000090 -0.000271
# 5 -0.007536 -0.000632 -0.007269 0.000090 0.041254 -0.000001
# 6 0.000001 0.000020 -0.000002 -0.000271 -0.000001 0.026812
#
#
# Mechanical properties :
#
#
# Convention : Reuss Voigt Hill
#
# Bulk Modulus (GPa) = 31.81939 42.67097 37.24518
# Shear Modulus (GPa) = 11.53871 26.62792 19.08332
#
# Velocity S-wave (km/s) = 2.44553 3.71503 3.14500
# Velocity P-wave (km/s) = 4.94635 6.36543 5.70023
#
# Compressibility (1/GPa) = 0.03142738
#
# Stress axis : x y z
#
# Youngs Moduli (GPa) = 47.02192 77.31150 82.58153
#
# Poissons Ratio (x) = 0.18551 0.20530
# Poissons Ratio (y) = 0.11283 0.21109
# Poissons Ratio (z) = 0.11690 0.19762
#
# Static dielectric constant tensor:
#      x y z
#    x 4.912760 0.007530 -1.162410 
#    y 0.007530 1.722370 -0.002800 
#    z -1.162410 -0.002800 2.132550 
# 
# From -- ./inp_files/316973.got.cif
#   From: 2010.05.17/outbox.cif.g08.bks.cpg/sg15_159_cif.got.tgz:316973.got - 2010.06.03 18:47:42.
