data_PCOD9258393
_publ_section_title
;
Structure prediction by ZEFSAII (Michael W. Deem and Ramdas Pophale) SiO2 
 PCOD9258393
Probable space group: C 2/C
;
_chemical_formula_sum "Si O2"
_cell_formula_units_Z 64
_cell_length_a 29.182633
_cell_length_b 9.327896
_cell_length_c 13.782858
_cell_angle_alpha 90.000000
_cell_angle_beta 137.386740
_cell_angle_gamma 90.000000
_cell_volume 2540.187790
_symmetry_space_group_name_H-M "C 2/C"
_symmetry_group_IT_number 15
_symmetry_cell_setting 'monoclinic'
loop_
_space_group_symop_operation_xyz
x,y,z
-x,y,1/2-z
-x,-y,-z
x,-y,1/2+z
1/2+x,1/2+y,z
1/2-x,1/2+y,1/2-z
1/2-x,1/2-y,-z
1/2+x,1/2-y,1/2+z
loop_
_atom_site_type_symbol
_atom_site_label
_atom_site_fract_x
_atom_site_fract_y
_atom_site_fract_z
Si Si1 0.914427 0.302629 0.274459
Si Si2 0.231370 0.926809 0.423445
Si Si3 0.938053 0.305332 0.921958
Si Si4 0.139538 0.302936 0.875350
Si Si5 0.574312 0.440138 0.405257
Si Si6 0.903540 0.974018 0.853196
Si Si7 0.228627 0.342946 0.372774
Si Si8 0.643517 0.752924 0.520857
O O1 0.918861 0.127609 0.287137
O O2 0.852592 0.342474 0.251079
O O3 0.889152 0.328676 0.125205
O O4 0.988644 0.348645 0.423975
O O5 0.188292 0.784773 0.377457
O O6 0.304381 0.904619 0.489452
O O7 0.178027 0.012782 0.275258
O O8 0.244817 0.002864 0.548300
O O9 0.915197 0.370709 0.782822
O O10 0.935841 0.131609 0.899826
O O11 0.883739 0.326204 0.924019
O O12 0.107959 0.186084 0.896149
O O13 0.500000 0.464920 0.250000
O O14 0.571798 0.394088 0.513150
O O15 0.613574 0.590814 0.472689
O O16 0.250000 0.250000 0.500000
O O17 0.275828 0.274997 0.363358
#
# Coordination Sequence:
#
# PCOD9258393 Si02
#       8
#     8   8   8   8   8   8   8   8
#     4  11  19  34  57  82 116 147 187 254 290 341
#     4  10  19  39  57  83 109 162 189 238 290 347
#     4  10  20  33  55  86 112 154 191 235 300 351
#     4  10  21  38  58  76 127 151 190 236 293 362
#     4  11  20  34  57  86 114 147 187 248 295 344
#     4  10  19  33  56  86 112 144 197 234 296 342
#     4  10  19  35  58  82 118 148 193 247 291 335
#     4  10  18  33  55  86 113 144 197 248 291 338
#
# _framework density 25.194987999999999
#
# number of rings (size 3 to 8) (size 9 to 14) (size 15 to 20)
#    0.000    1.750    3.750    3.750    0.000    0.000 
#    9.000    0.625    0.000    3.000    0.000    0.000 
#    0.000    0.000    0.000    0.000    0.000    0.000 
#
# Total GULP energy -178787.441774 kJ/mol
# GULP energy per Si atom -5587.107555 kJ/mol
# Density = 2.513764 g / cm^3
# Si number density = 25.194988 Si / 1000 Ang^3
#
#
#
# Elastic Constant Matrix: (Units=GPa)
#
#
# Indices 1 2 3 4 5 6 
#
# 1 109.2192 5.0835 60.1349 0.0000 24.3969 0.0000
# 2 5.0835 49.7074 16.7030 0.0000 11.9535 0.0000
# 3 60.1349 16.7030 123.7823 0.0000 14.9094 0.0000
# 4 0.0000 0.0000 0.0000 34.9798 0.0000 9.1686
# 5 24.3969 11.9535 14.9094 0.0000 44.6082 0.0000
# 6 0.0000 0.0000 0.0000 9.1686 0.0000 27.4116
#
#
#
# Elastic Compliance Matrix: (Units=1/GPa)
#
#
# Indices 1 2 3 4 5 6 
#
# 1 0.013881 0.002157 -0.006304 0.000000 -0.006062 0.000000
# 2 0.002157 0.022486 -0.003349 0.000000 -0.006086 0.000000
# 3 -0.006304 -0.003349 0.011534 0.000000 0.000490 0.000000
# 4 0.000000 0.000000 0.000000 0.031335 0.000000 -0.010481
# 5 -0.006062 -0.006086 0.000490 0.000000 0.027200 0.000000
# 6 0.000000 0.000000 0.000000 -0.010481 0.000000 0.039987
#
#
# Mechanical properties :
#
#
# Convention : Reuss Voigt Hill
#
# Bulk Modulus (GPa) = 30.38775 49.61685 40.00230
# Shear Modulus (GPa) = 29.00486 34.78577 31.89531
#
# Velocity S-wave (km/s) = 3.39664 3.71976 3.56186
# Velocity P-wave (km/s) = 5.24119 6.17938 5.72952
#
# Compressibility (1/GPa) = 0.03290800
#
# Stress axis : x y z
#
# Youngs Moduli (GPa) = 72.04212 44.47215 86.69836
#
# Poissons Ratio (x) = -0.09591 0.54657
# Poissons Ratio (y) = -0.15537 0.29035
# Poissons Ratio (z) = 0.45417 0.14894
#
# Static dielectric constant tensor:
#      x y z
#    x 2.036670 0.000000 0.029750 
#    y 0.000000 2.171710 0.000000 
#    z 0.029750 0.000000 2.035800 
# 
# From -- ./inp_files/181784.got.cif
#   From: 2010.05.17/outbox.cif.g08.bks.cpg/sg15_91_cif.got.tgz:181784.got - 2010.06.03 18:47:42.
