data_PCOD9258714
_publ_section_title
;
Structure prediction by ZEFSAII (Michael W. Deem and Ramdas Pophale) SiO2 
 PCOD9258714
Probable space group: C 2/C
;
_chemical_formula_sum "Si O2"
_cell_formula_units_Z 60
_cell_length_a 16.599695
_cell_length_b 7.947787
_cell_length_c 26.398394
_cell_angle_alpha 90.000000
_cell_angle_beta 124.475620
_cell_angle_gamma 90.000000
_cell_volume 2871.074747
_symmetry_space_group_name_H-M "C 2/C"
_symmetry_group_IT_number 15
_symmetry_cell_setting 'monoclinic'
loop_
_space_group_symop_operation_xyz
x,y,z
-x,y,1/2-z
-x,-y,-z
x,-y,1/2+z
1/2+x,1/2+y,z
1/2-x,1/2+y,1/2-z
1/2-x,1/2-y,-z
1/2+x,1/2-y,1/2+z
loop_
_atom_site_type_symbol
_atom_site_label
_atom_site_fract_x
_atom_site_fract_y
_atom_site_fract_z
Si Si1 0.658130 0.833409 0.662453
Si Si2 0.166741 0.666932 0.280616
Si Si3 0.475852 0.958243 0.070623
Si Si4 0.500000 0.914277 0.250000
Si Si5 0.137651 0.272787 0.383827
Si Si6 0.680056 0.462613 0.100027
Si Si7 0.291971 0.537481 0.638914
Si Si8 0.596369 0.216187 0.528401
O O1 0.679860 0.777792 0.727310
O O2 0.574520 0.975791 0.632520
O O3 0.627593 0.681952 0.614019
O O4 0.753261 0.912684 0.669346
O O5 0.262500 0.575859 0.337717
O O6 0.080093 0.533513 0.252739
O O7 0.145125 0.820541 0.311030
O O8 0.406599 0.848222 0.081081
O O9 0.510407 0.846431 0.035260
O O10 0.424744 0.128573 0.032530
O O11 0.557644 0.808379 0.311947
O O12 0.236307 0.373768 0.404072
O O13 0.160328 0.075604 0.387509
O O14 0.614915 0.586685 0.043047
O O15 0.195916 0.626415 0.582654
#
# Coordination Sequence:
#
# PCOD9258714 Si02
#       8
#     8   8   8   4   8   8   8   8
#     4  10  18  34  56  81 105 149 184 227 274 340
#     4  10  18  34  53  77 111 146 180 231 272 336
#     4  10  20  36  60  77 112 144 185 227 284 312
#     4  10  20  34  52  78 118 136 176 234 278 328
#     4  10  20  37  54  82 107 150 176 231 275 332
#     4   9  20  35  54  78 111 139 189 224 275 325
#     4   9  20  35  55  78 111 143 189 222 281 330
#     4   9  20  39  54  81 108 147 185 235 262 335
#
# _framework density 20.898097
#
# number of rings (size 3 to 8) (size 9 to 14) (size 15 to 20)
#    0.000    2.400    1.333    0.800    0.000    2.133 
#    7.200    0.000    0.000    0.000    0.000    0.000 
#    0.000    0.000    0.000    0.000    0.000    0.000 
#
# Total GULP energy -167433.788338 kJ/mol
# GULP energy per Si atom -5581.126278 kJ/mol
# Density = 2.085053 g / cm^3
# Si number density = 20.898097 Si / 1000 Ang^3
#
#
#
# Elastic Constant Matrix: (Units=GPa)
#
#
# Indices 1 2 3 4 5 6 
#
# 1 57.6684 15.0531 12.1662 0.0000 -10.7101 0.0000
# 2 15.0531 68.2468 -8.2523 0.0000 -4.6130 0.0000
# 3 12.1662 -8.2523 20.0148 0.0000 -9.6168 0.0000
# 4 0.0000 0.0000 0.0000 13.4114 0.0000 -9.0407
# 5 -10.7101 -4.6130 -9.6168 0.0000 24.1020 0.0000
# 6 0.0000 0.0000 0.0000 -9.0407 0.0000 17.1340
#
#
#
# Elastic Compliance Matrix: (Units=1/GPa)
#
#
# Indices 1 2 3 4 5 6 
#
# 1 0.022833 -0.006703 -0.015322 0.000000 0.002750 0.000000
# 2 -0.006703 0.018343 0.014714 0.000000 0.006403 0.000000
# 3 -0.015322 0.014714 0.078469 0.000000 0.027317 0.000000
# 4 0.000000 0.000000 0.000000 0.115727 0.000000 0.061063
# 5 0.002750 0.006403 0.027317 0.000000 0.054838 0.000000
# 6 0.000000 0.000000 0.000000 0.061063 0.000000 0.090583
#
#
# Mechanical properties :
#
#
# Convention : Reuss Voigt Hill
#
# Bulk Modulus (GPa) = 9.52162 20.42934 14.97548
# Shear Modulus (GPa) = 11.61648 19.39368 15.50508
#
# Velocity S-wave (km/s) = 2.36023 3.04963 2.72681
# Velocity P-wave (km/s) = 3.46319 4.71140 4.13467
#
# Compressibility (1/GPa) = 0.10502414
#
# Stress axis : x y z
#
# Youngs Moduli (GPa) = 43.79548 54.51585 12.74387
#
# Poissons Ratio (x) = 0.36543 0.19526
# Poissons Ratio (y) = 0.29357 -0.18752
# Poissons Ratio (z) = 0.67104 -0.80217
#
# Static dielectric constant tensor:
#      x y z
#    x 1.731150 0.000000 0.003360 
#    y 0.000000 1.775100 0.000000 
#    z 0.003360 0.000000 1.758250 
# 
# From -- ./inp_files/273209.got.cif
#   From: 2010.05.17/outbox.cif.g08.bks.cpg/sg15_137_cif.got.tgz:273209.got - 2010.06.03 18:47:42.
