data_PCOD9258486
_publ_section_title
;
Structure prediction by ZEFSAII (Michael W. Deem and Ramdas Pophale) SiO2 
 PCOD9258486
Probable space group: C 2/C
;
_chemical_formula_sum "Si O2"
_cell_formula_units_Z 56
_cell_length_a 24.647637
_cell_length_b 13.677947
_cell_length_c 14.940407
_cell_angle_alpha 90.000000
_cell_angle_beta 29.883700
_cell_angle_gamma 90.000000
_cell_volume 2509.563456
_symmetry_space_group_name_H-M "C 2/C"
_symmetry_group_IT_number 15
_symmetry_cell_setting 'monoclinic'
loop_
_space_group_symop_operation_xyz
x,y,z
-x,y,1/2-z
-x,-y,-z
x,-y,1/2+z
1/2+x,1/2+y,z
1/2-x,1/2+y,1/2-z
1/2-x,1/2-y,-z
1/2+x,1/2-y,1/2+z
loop_
_atom_site_type_symbol
_atom_site_label
_atom_site_fract_x
_atom_site_fract_y
_atom_site_fract_z
Si Si1 0.461214 0.031203 0.393634
Si Si2 0.190769 0.250730 0.831725
Si Si3 0.453558 0.769538 0.098057
Si Si4 0.204559 0.887080 0.678821
Si Si5 0.416556 0.748700 0.940978
Si Si6 0.771121 0.019561 0.699826
Si Si7 0.673743 0.032801 0.663319
O O1 0.500000 0.973128 0.250000
O O2 0.417065 0.135033 0.421997
O O3 0.355373 0.993568 0.594900
O O4 0.569087 0.037407 0.299695
O O5 0.219419 0.304247 0.883774
O O6 0.290521 0.282048 0.623472
O O7 0.200702 0.133536 0.827654
O O8 0.073455 0.278697 0.964316
O O9 0.392486 0.675117 0.225701
O O10 0.382481 0.866309 0.220318
O O11 0.454939 0.746927 0.989582
O O12 0.269247 0.947692 0.512861
O O13 0.166048 0.956029 0.816242
O O14 0.500000 0.703649 0.750000
O O15 0.766287 0.001403 0.601031
#
# Coordination Sequence:
#
# PCOD9258486 Si02
#       7
#     8   8   8   8   8   8   8
#     4  10  18  33  57  90 119 152 198 273 317 356
#     4  10  23  41  62  95 128 168 206 264 318 385
#     4  11  23  39  63  91 132 173 207 261 320 385
#     4  11  24  43  64  96 132 167 215 271 315 382
#     4   9  20  39  60  90 127 161 213 261 310 376
#     4  11  22  40  60  90 130 160 219 262 316 385
#     4  12  22  38  65  97 126 165 216 271 333 366
#
# _framework density 22.314637999999999
#
# number of rings (size 3 to 8) (size 9 to 14) (size 15 to 20)
#    0.000    1.429    5.714    1.714    2.000    1.143 
#    0.000    2.857    0.000    0.000    0.000    0.000 
#    0.000    0.000    0.000    0.000    0.000    0.000 
#
# Total GULP energy -156177.658915 kJ/mol
# GULP energy per Si atom -5577.773533 kJ/mol
# Density = 2.226385 g / cm^3
# Si number density = 22.314638 Si / 1000 Ang^3
#
#
#
# Elastic Constant Matrix: (Units=GPa)
#
#
# Indices 1 2 3 4 5 6 
#
# 1 67.0370 13.3529 18.3826 0.0000 0.4873 0.0000
# 2 13.3529 84.8982 -2.2710 0.0000 0.9715 0.0000
# 3 18.3826 -2.2710 55.0824 0.0000 -5.5526 0.0000
# 4 0.0000 0.0000 0.0000 18.9146 0.0000 3.5842
# 5 0.4873 0.9715 -5.5526 0.0000 31.7223 0.0000
# 6 0.0000 0.0000 0.0000 3.5842 0.0000 17.4055
#
#
#
# Elastic Compliance Matrix: (Units=1/GPa)
#
#
# Indices 1 2 3 4 5 6 
#
# 1 0.017124 -0.002839 -0.005955 0.000000 -0.001218 0.000000
# 2 -0.002839 0.012265 0.001445 0.000000 -0.000079 0.000000
# 3 -0.005955 0.001445 0.020569 0.000000 0.003648 0.000000
# 4 0.000000 0.000000 0.000000 0.055016 0.000000 -0.011329
# 5 -0.001218 -0.000079 0.003648 0.000000 0.032183 0.000000
# 6 0.000000 0.000000 0.000000 -0.011329 0.000000 0.059786
#
#
# Mechanical properties :
#
#
# Convention : Reuss Voigt Hill
#
# Bulk Modulus (GPa) = 28.35950 29.54964 28.95457
# Shear Modulus (GPa) = 22.38199 25.44535 23.91367
#
# Velocity S-wave (km/s) = 3.17048 3.38049 3.27717
# Velocity P-wave (km/s) = 5.11264 5.33929 5.22719
#
# Compressibility (1/GPa) = 0.03526156
#
# Stress axis : x y z
#
# Youngs Moduli (GPa) = 58.39653 81.53391 48.61645
#
# Poissons Ratio (x) = 0.23145 0.28950
# Poissons Ratio (y) = 0.16577 -0.07025
# Poissons Ratio (z) = 0.34774 -0.11782
#
# Static dielectric constant tensor:
#      x y z
#    x 1.882660 0.000000 0.034380 
#    y 0.000000 1.898050 0.000000 
#    z 0.034380 0.000000 1.886940 
# 
# From -- ./inp_files/173774.got.cif
#   From: 2010.05.17/outbox.cif.g08.bks.cpg/sg15_87_cif.got.tgz:173774.got - 2010.06.03 18:47:42.
