data_PCOD9258177
_publ_section_title
;
Structure prediction by ZEFSAII (Michael W. Deem and Ramdas Pophale) SiO2 
 PCOD9258177
Probable space group: C 2/C
;
_chemical_formula_sum "Si O2"
_cell_formula_units_Z 44
_cell_length_a 17.252823
_cell_length_b 17.043600
_cell_length_c 9.588040
_cell_angle_alpha 90.000000
_cell_angle_beta 49.452774
_cell_angle_gamma 90.000000
_cell_volume 2142.352174
_symmetry_space_group_name_H-M "C 2/C"
_symmetry_group_IT_number 15
_symmetry_cell_setting 'monoclinic'
loop_
_space_group_symop_operation_xyz
x,y,z
-x,y,1/2-z
-x,-y,-z
x,-y,1/2+z
1/2+x,1/2+y,z
1/2-x,1/2+y,1/2-z
1/2-x,1/2-y,-z
1/2+x,1/2-y,1/2+z
loop_
_atom_site_type_symbol
_atom_site_label
_atom_site_fract_x
_atom_site_fract_y
_atom_site_fract_z
Si Si1 0.500000 0.903453 0.250000
Si Si2 0.205732 0.187507 0.165175
Si Si3 0.324206 0.246657 0.280609
Si Si4 0.720264 0.030943 0.553499
Si Si5 0.730760 0.900026 0.336642
Si Si6 0.539281 0.201182 0.972846
O O1 0.396714 0.953027 0.356958
O O2 0.498681 0.848777 0.115602
O O3 0.276807 0.190431 0.218733
O O4 0.098637 0.223074 0.342268
O O5 0.250000 0.250000 0.000000
O O6 0.213204 0.101920 0.089536
O O7 0.250000 0.250000 0.500000
O O8 0.316512 0.333512 0.222800
O O9 0.439672 0.223839 0.175069
O O10 0.729377 0.040538 0.708405
O O11 0.746492 0.947313 0.459519
O O12 0.624253 0.852166 0.449352
#
# Coordination Sequence:
#
# PCOD9258177 Si02
#       6
#     4   8   8   8   8   8
#     4  10  18  32  66  88 116 160 202 260 314 354
#     4  11  19  39  63  88 122 163 214 258 296 375
#     4  11  23  39  63  90 124 165 214 259 306 365
#     4  11  22  39  57  95 131 160 201 256 322 376
#     4  10  25  39  62  94 130 165 200 256 325 366
#     4  10  20  38  63  92 118 163 218 253 306 366
#
# _framework density 20.538170999999998
#
# number of rings (size 3 to 8) (size 9 to 14) (size 15 to 20)
#    0.000    1.455    7.273    0.000    2.545    7.273 
#    0.000    0.909    0.000    0.000    0.000    0.000 
#    0.000    0.000    0.000    0.000    0.000    0.000 
#
# Total GULP energy -122894.855463 kJ/mol
# GULP energy per Si atom -5586.129794 kJ/mol
# Density = 2.049143 g / cm^3
# Si number density = 20.538171 Si / 1000 Ang^3
#
#
#
# Elastic Constant Matrix: (Units=GPa)
#
#
# Indices 1 2 3 4 5 6 
#
# 1 38.2594 2.6994 18.7669 0.0000 18.4002 0.0000
# 2 2.6994 49.4460 13.1448 0.0000 2.5080 0.0000
# 3 18.7669 13.1448 99.5133 0.0000 -3.6916 0.0000
# 4 0.0000 0.0000 0.0000 28.0179 0.0000 16.1559
# 5 18.4002 2.5080 -3.6916 0.0000 25.3609 0.0000
# 6 0.0000 0.0000 0.0000 16.1559 0.0000 14.5798
#
#
#
# Elastic Compliance Matrix: (Units=1/GPa)
#
#
# Indices 1 2 3 4 5 6 
#
# 1 0.049568 0.002143 -0.011032 0.000000 -0.037781 0.000000
# 2 0.002143 0.021210 -0.003359 0.000000 -0.004141 0.000000
# 3 -0.011032 -0.003359 0.012952 0.000000 0.010222 0.000000
# 4 0.000000 0.000000 0.000000 0.098859 0.000000 -0.109546
# 5 -0.037781 -0.004141 0.010222 0.000000 0.068740 0.000000
# 6 0.000000 0.000000 0.000000 -0.109546 0.000000 0.189977
#
#
# Mechanical properties :
#
#
# Convention : Reuss Voigt Hill
#
# Bulk Modulus (GPa) = 16.88251 28.49345 22.68798
# Shear Modulus (GPa) = 10.29766 23.76555 17.03160
#
# Velocity S-wave (km/s) = 2.24161 3.40537 2.88282
# Velocity P-wave (km/s) = 3.86492 5.41900 4.70655
#
# Compressibility (1/GPa) = 0.05923289
#
# Stress axis : x y z
#
# Youngs Moduli (GPa) = 20.17438 47.14701 77.20550
#
# Poissons Ratio (x) = -0.10104 0.85177
# Poissons Ratio (y) = -0.04324 0.25937
# Poissons Ratio (z) = 0.22257 0.15839
#
# Static dielectric constant tensor:
#      x y z
#    x 1.739060 0.000000 0.004230 
#    y 0.000000 1.738430 0.000000 
#    z 0.004230 0.000000 1.769790 
# 
# From -- ./inp_files/39073.got.cif
#   From: 2010.05.17/outbox.cif.g08.bks.cpg/sg15_20_cif.got.tgz:39073.got - 2010.06.03 18:47:42.
