data_PCOD9258441
_publ_section_title
;
Structure prediction by ZEFSAII (Michael W. Deem and Ramdas Pophale) SiO2 
 PCOD9258441
Probable space group: C 2/C
;
_chemical_formula_sum "Si O2"
_cell_formula_units_Z 52
_cell_length_a 30.197853
_cell_length_b 9.086716
_cell_length_c 13.703494
_cell_angle_alpha 90.000000
_cell_angle_beta 135.933562
_cell_angle_gamma 90.000000
_cell_volume 2615.209517
_symmetry_space_group_name_H-M "C 2/C"
_symmetry_group_IT_number 15
_symmetry_cell_setting 'monoclinic'
loop_
_space_group_symop_operation_xyz
x,y,z
-x,y,1/2-z
-x,-y,-z
x,-y,1/2+z
1/2+x,1/2+y,z
1/2-x,1/2+y,1/2-z
1/2-x,1/2-y,-z
1/2+x,1/2-y,1/2+z
loop_
_atom_site_type_symbol
_atom_site_label
_atom_site_fract_x
_atom_site_fract_y
_atom_site_fract_z
Si Si1 0.000000 0.562689 0.250000
Si Si2 0.655679 0.269115 0.694364
Si Si3 0.403941 0.017142 0.447438
Si Si4 0.597574 0.163585 0.255489
Si Si5 0.171477 0.931038 0.284122
Si Si6 0.289354 0.789951 0.822655
Si Si7 0.698413 0.910310 0.451754
O O1 0.958757 0.662597 0.257041
O O2 0.047884 0.460638 0.388145
O O3 0.603049 0.157809 0.573499
O O4 0.630943 0.426614 0.689822
O O5 0.712830 0.298648 0.707648
O O6 0.686958 0.181988 0.835772
O O7 0.426707 0.099118 0.386458
O O8 0.331324 0.075404 0.346879
O O9 0.634928 0.314262 0.293132
O O10 0.647092 0.040557 0.371797
O O11 0.192354 0.844771 0.218415
O O12 0.234292 0.004189 0.432004
O O13 0.309081 0.801359 0.967668
#
# Coordination Sequence:
#
# PCOD9258441 Si02
#       7
#     4   8   8   8   8   8   8
#     4  12  22  42  62  84 122 160 218 242 284 360
#     4  10  20  36  58  90 127 153 191 246 307 369
#     4  10  22  39  61  90 115 164 203 248 295 354
#     4  10  22  38  63  86 116 156 211 248 293 353
#     4  10  20  34  57  91 124 149 188 250 306 362
#     4  10  18  33  56  89 121 149 194 239 301 351
#     4  10  19  37  57  91 124 158 193 243 310 358
#
# _framework density 19.883685
#
# number of rings (size 3 to 8) (size 9 to 14) (size 15 to 20)
#    0.000    1.846    1.538    4.615    0.000    0.000 
#    5.538    0.769    0.000    7.385    0.000    0.000 
#    0.000    0.000    0.000    0.000    0.000    0.000 
#
# Total GULP energy -144956.384673 kJ/mol
# GULP energy per Si atom -5575.245564 kJ/mol
# Density = 1.983843 g / cm^3
# Si number density = 19.883685 Si / 1000 Ang^3
#
#
#
# Elastic Constant Matrix: (Units=GPa)
#
#
# Indices 1 2 3 4 5 6 
#
# 1 131.3089 41.0826 16.6076 0.0000 -3.6401 0.0000
# 2 41.0826 101.8415 17.8182 0.0000 11.4596 0.0000
# 3 16.6076 17.8182 71.0699 0.0000 -2.2559 0.0000
# 4 0.0000 0.0000 0.0000 11.2042 0.0000 -1.8943
# 5 -3.6401 11.4596 -2.2559 0.0000 13.3932 0.0000
# 6 0.0000 0.0000 0.0000 -1.8943 0.0000 8.7167
#
#
#
# Elastic Compliance Matrix: (Units=1/GPa)
#
#
# Indices 1 2 3 4 5 6 
#
# 1 0.009220 -0.004234 -0.000903 0.000000 0.005976 0.000000
# 2 -0.004234 0.013502 -0.002814 0.000000 -0.013178 0.000000
# 3 -0.000903 -0.002814 0.015137 0.000000 0.004712 0.000000
# 4 0.000000 0.000000 0.000000 0.092657 0.000000 0.020136
# 5 0.005976 -0.013178 0.004712 0.000000 0.088358 0.000000
# 6 0.000000 0.000000 0.000000 0.020136 0.000000 0.119098
#
#
# Mechanical properties :
#
#
# Convention : Reuss Voigt Hill
#
# Bulk Modulus (GPa) = 45.54433 50.58188 48.06311
# Shear Modulus (GPa) = 13.84298 21.91028 17.87663
#
# Velocity S-wave (km/s) = 2.64142 3.32312 3.00169
# Velocity P-wave (km/s) = 5.67960 6.34179 6.01981
#
# Compressibility (1/GPa) = 0.02195663
#
# Stress axis : x y z
#
# Youngs Moduli (GPa) = 108.45758 74.06175 66.06394
#
# Poissons Ratio (x) = 0.31356 0.05968
# Poissons Ratio (y) = 0.45919 0.18591
# Poissons Ratio (z) = 0.09798 0.20842
#
# Static dielectric constant tensor:
#      x y z
#    x 1.753750 0.000000 -0.006720 
#    y 0.000000 1.716270 0.000000 
#    z -0.006720 0.000000 1.739670 
# 
# From -- ./inp_files/180580.got.cif
#   From: 2010.05.17/outbox.cif.g08.bks.cpg/sg15_91_cif.got.tgz:180580.got - 2010.06.03 18:47:42.
