data_PCOD9258060
_publ_section_title
;
Structure prediction by ZEFSAII (Michael W. Deem and Ramdas Pophale) SiO2 
 PCOD9258060
Probable space group: C 2/C
;
_chemical_formula_sum "Si O2"
_cell_formula_units_Z 40
_cell_length_a 7.072762
_cell_length_b 14.714422
_cell_length_c 14.535583
_cell_angle_alpha 90.000000
_cell_angle_beta 76.408206
_cell_angle_gamma 90.000000
_cell_volume 1470.376623
_symmetry_space_group_name_H-M "C 2/C"
_symmetry_group_IT_number 15
_symmetry_cell_setting 'monoclinic'
loop_
_space_group_symop_operation_xyz
x,y,z
-x,y,1/2-z
-x,-y,-z
x,-y,1/2+z
1/2+x,1/2+y,z
1/2-x,1/2+y,1/2-z
1/2-x,1/2-y,-z
1/2+x,1/2-y,1/2+z
loop_
_atom_site_type_symbol
_atom_site_label
_atom_site_fract_x
_atom_site_fract_y
_atom_site_fract_z
Si Si1 0.718658 0.821885 0.925629
Si Si2 0.271699 0.989575 0.056478
Si Si3 0.217965 0.239260 0.743156
Si Si4 0.727350 0.966537 0.228936
Si Si5 0.229741 0.639880 0.088038
O O1 0.807413 0.792435 0.818343
O O2 0.491077 0.836948 0.922806
O O3 0.807533 0.912538 0.959886
O O4 0.750000 0.750000 0.000000
O O5 0.236195 0.991072 0.169162
O O6 0.186588 0.902364 0.015996
O O7 0.500000 0.000000 0.000000
O O8 0.191713 0.136382 0.783318
O O9 0.307323 0.271895 0.634711
O O10 0.000000 0.274634 0.750000
O O11 0.500000 0.947135 0.250000
O O12 0.750832 0.051875 0.156132
#
# Coordination Sequence:
#
# PCOD9258060 Si02
#       5
#     8   8   8   8   8
#     4  10  18  32  58  89 111 157 205 240 290 359
#     4  10  19  32  60  87 115 153 207 246 293 347
#     4  10  22  38  58  85 127 160 195 253 311 358
#     4  12  20  37  64  91 114 161 206 249 297 351
#     4  10  20  39  58  88 122 159 204 251 293 364
#
# _framework density 27.203914999999999
#
# number of rings (size 3 to 8) (size 9 to 14) (size 15 to 20)
#    0.000    1.600    6.000    1.800    2.800    0.800 
#    0.000    1.000    0.000    6.000    0.000    0.000 
#    0.000    0.000    0.000    0.000    0.000    0.000 
#
# Total GULP energy -111463.101003 kJ/mol
# GULP energy per Si atom -5573.155050 kJ/mol
# Density = 2.714200 g / cm^3
# Si number density = 27.203915 Si / 1000 Ang^3
#
#
#
# Elastic Constant Matrix: (Units=GPa)
#
#
# Indices 1 2 3 4 5 6 
#
# 1 91.8234 28.5790 23.8181 0.0000 26.5818 0.0000
# 2 28.5790 124.1841 86.5328 0.0000 18.4721 0.0000
# 3 23.8181 86.5328 147.1295 0.0000 24.0903 0.0000
# 4 0.0000 0.0000 0.0000 58.0570 0.0000 20.3067
# 5 26.5818 18.4721 24.0903 0.0000 31.7817 0.0000
# 6 0.0000 0.0000 0.0000 20.3067 0.0000 9.3099
#
#
#
# Elastic Compliance Matrix: (Units=1/GPa)
#
#
# Indices 1 2 3 4 5 6 
#
# 1 0.014749 -0.002247 0.000845 0.000000 -0.011670 0.000000
# 2 -0.002247 0.014112 -0.007878 0.000000 -0.000351 0.000000
# 3 0.000845 -0.007878 0.012170 0.000000 -0.005352 0.000000
# 4 0.000000 0.000000 0.000000 0.072654 0.000000 -0.158474
# 5 -0.011670 -0.000351 -0.005352 0.000000 0.045486 0.000000
# 6 0.000000 0.000000 0.000000 -0.158474 0.000000 0.453077
#
#
# Mechanical properties :
#
#
# Convention : Reuss Voigt Hill
#
# Bulk Modulus (GPa) = 44.50514 71.22188 57.86351
# Shear Modulus (GPa) = 7.83332 34.77685 21.30508
#
# Velocity S-wave (km/s) = 1.69874 3.57932 2.80154
# Velocity P-wave (km/s) = 4.49922 6.58176 5.63749
#
# Compressibility (1/GPa) = 0.02246932
#
# Stress axis : x y z
#
# Youngs Moduli (GPa) = 67.80069 70.86367 82.16971
#
# Poissons Ratio (x) = 0.15923 -0.06941
# Poissons Ratio (y) = 0.15234 0.64737
# Poissons Ratio (z) = -0.05727 0.55829
#
# Static dielectric constant tensor:
#      x y z
#    x 2.715320 0.000000 -0.423810 
#    y 0.000000 1.983880 0.000000 
#    z -0.423810 0.000000 2.297800 
# 
# From -- ./inp_files/133187.got.cif
#   From: 2010.05.17/outbox.cif.g08.bks.cpg/sg15_67_cif.got.tgz:133187.got - 2010.06.03 18:47:42.
