data_PCOD9258710
_publ_section_title
;
Structure prediction by ZEFSAII (Michael W. Deem and Ramdas Pophale) SiO2 
 PCOD9258710
Probable space group: C 2/C
;
_chemical_formula_sum "Si O2"
_cell_formula_units_Z 60
_cell_length_a 22.936715
_cell_length_b 25.042361
_cell_length_c 13.882283
_cell_angle_alpha 90.000000
_cell_angle_beta 159.227748
_cell_angle_gamma 90.000000
_cell_volume 2827.954901
_symmetry_space_group_name_H-M "C 2/C"
_symmetry_group_IT_number 15
_symmetry_cell_setting 'monoclinic'
loop_
_space_group_symop_operation_xyz
x,y,z
-x,y,1/2-z
-x,-y,-z
x,-y,1/2+z
1/2+x,1/2+y,z
1/2-x,1/2+y,1/2-z
1/2-x,1/2-y,-z
1/2+x,1/2-y,1/2+z
loop_
_atom_site_type_symbol
_atom_site_label
_atom_site_fract_x
_atom_site_fract_y
_atom_site_fract_z
Si Si1 0.525676 0.789644 0.094735
Si Si2 0.500000 0.152399 0.750000
Si Si3 0.572846 0.549329 0.753101
Si Si4 0.282964 0.069655 0.347574
Si Si5 0.392339 0.108056 0.304252
Si Si6 0.129330 0.446508 0.029720
Si Si7 0.908306 0.185863 0.210457
Si Si8 0.508520 0.432107 0.646849
O O1 0.467535 0.810933 0.108984
O O2 0.719953 0.800828 0.395097
O O3 0.516822 0.725753 0.092778
O O4 0.437615 0.828649 0.881058
O O5 0.353767 0.110110 0.534873
O O6 0.500000 0.548318 0.750000
O O7 0.413631 0.568689 0.449817
O O8 0.602007 0.487729 0.766706
O O9 0.732350 0.586745 0.998505
O O10 0.344720 0.091688 0.339368
O O11 0.355584 0.010227 0.458697
O O12 0.548392 0.075205 0.503846
O O13 0.000000 0.426337 0.750000
O O14 0.320362 0.430870 0.318692
O O15 0.000000 0.191511 0.250000
O O16 0.919371 0.125367 0.260699
O O17 0.500000 0.435116 0.750000
#
# Coordination Sequence:
#
# PCOD9258710 Si02
#       8
#     8   4   8   8   8   8   8   8
#     4  10  21  34  58  87 111 149 193 243 299 336
#     4  10  18  34  52  88 118 140 186 236 282 332
#     4   8  16  31  51  80 111 146 186 217 273 351
#     4   9  18  33  54  77 117 150 186 227 279 348
#     4  10  19  33  56  79 114 155 189 228 290 362
#     4  11  21  35  53  84 116 152 191 235 285 342
#     4  10  19  36  58  85 114 145 199 253 286 338
#     4   9  18  34  56  80 111 149 190 232 285 344
#
# _framework density 21.216745
#
# number of rings (size 3 to 8) (size 9 to 14) (size 15 to 20)
#    0.000    2.400    1.333    2.800    0.000    2.133 
#    2.400    1.333    0.000    4.800    0.000    0.000 
#    0.000    0.000    0.000    0.000    0.000    0.000 
#
# Total GULP energy -167224.866809 kJ/mol
# GULP energy per Si atom -5574.162227 kJ/mol
# Density = 2.116845 g / cm^3
# Si number density = 21.216745 Si / 1000 Ang^3
#
#
#
# Elastic Constant Matrix: (Units=GPa)
#
#
# Indices 1 2 3 4 5 6 
#
# 1 44.2399 21.2151 15.1171 0.0000 8.2418 0.0000
# 2 21.2151 98.3696 39.6856 0.0000 1.4829 0.0000
# 3 15.1171 39.6856 90.1186 0.0000 -3.1430 0.0000
# 4 0.0000 0.0000 0.0000 31.4903 0.0000 -4.3498
# 5 8.2418 1.4829 -3.1430 0.0000 30.0571 0.0000
# 6 0.0000 0.0000 0.0000 -4.3498 0.0000 15.7585
#
#
#
# Elastic Compliance Matrix: (Units=1/GPa)
#
#
# Indices 1 2 3 4 5 6 
#
# 1 0.027172 -0.004624 -0.002784 0.000000 -0.007514 0.000000
# 2 -0.004624 0.013191 -0.005030 0.000000 0.000091 0.000000
# 3 -0.002784 -0.005030 0.013864 0.000000 0.002461 0.000000
# 4 0.000000 0.000000 0.000000 0.033015 0.000000 0.009113
# 5 -0.007514 0.000091 0.002461 0.000000 0.035583 0.000000
# 6 0.000000 0.000000 0.000000 0.009113 0.000000 0.065973
#
#
# Mechanical properties :
#
#
# Convention : Reuss Voigt Hill
#
# Bulk Modulus (GPa) = 34.06912 42.75153 38.41032
# Shear Modulus (GPa) = 22.37552 25.90855 24.14204
#
# Velocity S-wave (km/s) = 3.25101 3.49827 3.37690
# Velocity P-wave (km/s) = 5.49405 6.04242 5.77475
#
# Compressibility (1/GPa) = 0.02935210
#
# Stress axis : x y z
#
# Youngs Moduli (GPa) = 36.80195 75.81003 72.12709
#
# Poissons Ratio (x) = 0.35053 0.20080
# Poissons Ratio (y) = 0.17017 0.36280
# Poissons Ratio (z) = 0.10246 0.38133
#
# Static dielectric constant tensor:
#      x y z
#    x 1.876970 0.000000 -0.013740 
#    y 0.000000 1.778270 0.000000 
#    z -0.013740 0.000000 1.796620 
# 
# From -- ./inp_files/174931.got.cif
#   From: 2010.05.17/outbox.cif.g08.bks.cpg/sg15_88_cif.got.tgz:174931.got - 2010.06.03 18:47:42.
