data_PCOD9258776
_publ_section_title
;
Structure prediction by ZEFSAII (Michael W. Deem and Ramdas Pophale) SiO2 
 PCOD9258776
Probable space group: C 2/C
;
_chemical_formula_sum "Si O2"
_cell_formula_units_Z 52
_cell_length_a 11.309034
_cell_length_b 24.782078
_cell_length_c 9.918364
_cell_angle_alpha 90.000000
_cell_angle_beta 83.171094
_cell_angle_gamma 90.000000
_cell_volume 2760.013793
_symmetry_space_group_name_H-M "C 2/C"
_symmetry_group_IT_number 15
_symmetry_cell_setting 'monoclinic'
loop_
_space_group_symop_operation_xyz
x,y,z
-x,y,1/2-z
-x,-y,-z
x,-y,1/2+z
1/2+x,1/2+y,z
1/2-x,1/2+y,1/2-z
1/2-x,1/2-y,-z
1/2+x,1/2-y,1/2+z
loop_
_atom_site_type_symbol
_atom_site_label
_atom_site_fract_x
_atom_site_fract_y
_atom_site_fract_z
Si Si1 0.304251 0.864186 0.330161
Si Si2 0.370476 0.295508 0.326277
Si Si3 0.632029 0.876209 0.714124
Si Si4 0.000000 0.280414 0.250000
Si Si5 0.316196 0.702020 0.126220
Si Si6 0.621617 0.065759 0.934671
Si Si7 0.149170 0.552729 0.465370
O O1 0.199717 0.829112 0.277708
O O2 0.411586 0.821195 0.341997
O O3 0.341413 0.904513 0.205397
O O4 0.278649 0.902114 0.461294
O O5 0.500000 0.286540 0.250000
O O6 0.362879 0.321070 0.477269
O O7 0.300305 0.240370 0.367018
O O8 0.500000 0.849707 0.750000
O O9 0.754760 0.844149 0.724540
O O10 0.638238 0.894955 0.559047
O O11 0.630430 0.926299 0.816462
O O12 0.082376 0.240908 0.327305
O O13 0.688085 0.009257 0.953885
O O14 0.480802 0.053364 0.946535
#
# Coordination Sequence:
#
# PCOD9258776 Si02
#       7
#     8   8   8   4   8   8   8
#     4  11  19  36  58  82 119 149 186 240 283 339
#     4  10  22  37  58  80 109 157 199 227 285 348
#     4  10  20  33  55  84 118 151 183 229 289 342
#     4  10  22  34  58  82 112 148 188 236 288 330
#     4  10  21  38  56  81 115 152 187 244 285 336
#     4  10  18  34  54  85 119 150 181 231 298 342
#     4  10  20  30  56  89 117 143 189 236 286 347
#
# _framework density 18.840485000000001
#
# number of rings (size 3 to 8) (size 9 to 14) (size 15 to 20)
#    0.000    1.846    3.077    1.385    0.000    4.923 
#    0.000    3.077    0.000    0.923    4.000    0.000 
#    0.000    0.000    0.000    0.000    0.000    0.000 
#
# Total GULP energy -144776.020059 kJ/mol
# GULP energy per Si atom -5568.308464 kJ/mol
# Density = 1.879760 g / cm^3
# Si number density = 18.840485 Si / 1000 Ang^3
#
#
#
# Elastic Constant Matrix: (Units=GPa)
#
#
# Indices 1 2 3 4 5 6 
#
# 1 82.8796 32.3564 29.3969 0.0000 -12.3984 0.0000
# 2 32.3564 64.3538 15.1628 0.0000 -3.4398 0.0000
# 3 29.3969 15.1628 75.2997 0.0000 -3.8894 0.0000
# 4 0.0000 0.0000 0.0000 19.9335 0.0000 3.1894
# 5 -12.3984 -3.4398 -3.8894 0.0000 18.7175 0.0000
# 6 0.0000 0.0000 0.0000 3.1894 0.0000 7.8929
#
#
#
# Elastic Compliance Matrix: (Units=1/GPa)
#
#
# Indices 1 2 3 4 5 6 
#
# 1 0.018231 -0.007444 -0.005120 0.000000 0.009644 0.000000
# 2 -0.007444 0.019455 -0.001093 0.000000 -0.001583 0.000000
# 3 -0.005120 -0.001093 0.015480 0.000000 -0.000376 0.000000
# 4 0.000000 0.000000 0.000000 0.053634 0.000000 -0.021673
# 5 0.009644 -0.001583 -0.000376 0.000000 0.059445 0.000000
# 6 0.000000 0.000000 0.000000 -0.021673 0.000000 0.135454
#
#
# Mechanical properties :
#
#
# Convention : Reuss Voigt Hill
#
# Bulk Modulus (GPa) = 38.68395 41.81838 40.25116
# Shear Modulus (GPa) = 14.80908 19.01660 16.91284
#
# Velocity S-wave (km/s) = 2.80665 3.18047 2.99939
# Velocity P-wave (km/s) = 5.57494 5.97757 5.77977
#
# Compressibility (1/GPa) = 0.02585052
#
# Stress axis : x y z
#
# Youngs Moduli (GPa) = 54.85235 51.40078 64.60018
#
# Poissons Ratio (x) = 0.38265 0.33076
# Poissons Ratio (y) = 0.40834 0.07061
# Poissons Ratio (z) = 0.28085 0.05618
#
# Static dielectric constant tensor:
#      x y z
#    x 1.665420 0.000000 0.016220 
#    y 0.000000 1.726050 0.000000 
#    z 0.016220 0.000000 1.670310 
# 
# From -- ./inp_files/33542.got.cif
#   From: 2010.05.17/outbox.cif.g08.bks.cpg/sg15_17_cif.got.tgz:33542.got - 2010.06.03 18:47:42.
