data_PCOD9258819
_publ_section_title
;
Structure prediction by ZEFSAII (Michael W. Deem and Ramdas Pophale) SiO2 
 PCOD9258819
Probable space group: C 2/C
;
_chemical_formula_sum "Si O2"
_cell_formula_units_Z 60
_cell_length_a 28.410085
_cell_length_b 11.468881
_cell_length_c 22.094202
_cell_angle_alpha 90.000000
_cell_angle_beta 161.691217
_cell_angle_gamma 90.000000
_cell_volume 2261.477979
_symmetry_space_group_name_H-M "C 2/C"
_symmetry_group_IT_number 15
_symmetry_cell_setting 'monoclinic'
loop_
_space_group_symop_operation_xyz
x,y,z
-x,y,1/2-z
-x,-y,-z
x,-y,1/2+z
1/2+x,1/2+y,z
1/2-x,1/2+y,1/2-z
1/2-x,1/2-y,-z
1/2+x,1/2-y,1/2+z
loop_
_atom_site_type_symbol
_atom_site_label
_atom_site_fract_x
_atom_site_fract_y
_atom_site_fract_z
Si Si1 0.990005 0.255317 0.488014
Si Si2 0.718040 0.540944 0.770469
Si Si3 0.286232 0.365254 0.833913
Si Si4 0.000000 0.378899 0.250000
Si Si5 0.694114 0.665806 0.337895
Si Si6 0.067946 0.549280 0.221827
Si Si7 0.841241 0.033841 0.086433
Si Si8 0.543967 0.299724 0.235887
O O1 0.109917 0.150617 0.647259
O O2 0.110372 0.359511 0.635883
O O3 0.848719 0.231341 0.360198
O O4 0.919268 0.250210 0.334590
O O5 0.679988 0.484196 0.659616
O O6 0.686029 0.448840 0.785118
O O7 0.898513 0.550515 0.991430
O O8 0.392352 0.341119 0.019115
O O9 0.938724 0.470333 0.224851
O O10 0.129327 0.305688 0.441015
O O11 0.659791 0.634677 0.364955
O O12 0.216992 0.483115 0.381827
O O13 0.100667 0.686383 0.270112
O O14 0.845798 0.909501 0.128291
O O15 0.000000 0.037373 0.250000
O O16 0.500000 0.263339 0.250000
#
# Coordination Sequence:
#
# PCOD9258819 Si02
#       8
#     8   8   8   4   8   8   8   8
#     4  11  22  42  64  91 124 171 217 265 312 383
#     4  10  20  40  64  87 120 175 218 258 305 389
#     4  11  24  40  65  95 128 168 218 260 316 386
#     4   8  16  30  58  86 106 154 214 248 290 362
#     4   9  18  36  63  84 118 164 216 256 310 376
#     4  10  18  34  55  84 120 162 206 253 308 370
#     4  10  21  33  52  89 125 163 200 260 331 385
#     4  11  21  35  57  90 130 159 201 259 327 383
#
# _framework density 26.531323
#
# number of rings (size 3 to 8) (size 9 to 14) (size 15 to 20)
#    0.000    1.867    2.000    3.600    0.000    3.200 
#    2.400    0.667    0.000   12.800    1.733    0.000 
#    0.000    0.000    0.000    0.000    0.000    0.000 
#
# Total GULP energy -167632.353000 kJ/mol
# GULP energy per Si atom -5587.745100 kJ/mol
# Density = 2.647094 g / cm^3
# Si number density = 26.531323 Si / 1000 Ang^3
#
#
#
# Elastic Constant Matrix: (Units=GPa)
#
#
# Indices 1 2 3 4 5 6 
#
# 1 56.0434 7.9266 18.2161 0.0002 -0.6453 0.0001
# 2 7.9266 36.1315 24.0249 0.0005 -10.8142 0.0005
# 3 18.2161 24.0249 187.3110 0.0004 -15.3620 0.0005
# 4 0.0002 0.0005 0.0004 32.9855 0.0002 -3.9706
# 5 -0.6453 -10.8142 -15.3620 0.0002 43.7564 0.0002
# 6 0.0001 0.0005 0.0005 -3.9706 0.0002 21.0817
#
#
#
# Elastic Compliance Matrix: (Units=1/GPa)
#
#
# Indices 1 2 3 4 5 6 
#
# 1 0.018801 -0.003474 -0.001473 0.000000 -0.001098 0.000000
# 2 -0.003474 0.032683 -0.003291 -0.000001 0.006871 -0.000001
# 3 -0.001473 -0.003291 0.006009 0.000000 0.001274 0.000000
# 4 0.000000 -0.000001 0.000000 0.031020 0.000000 0.005842
# 5 -0.001098 0.006871 0.001274 0.000000 0.024983 -0.000001
# 6 0.000000 -0.000001 0.000000 0.005842 -0.000001 0.048535
#
#
# Mechanical properties :
#
#
# Convention : Reuss Voigt Hill
#
# Bulk Modulus (GPa) = 24.37973 42.20235 33.29104
# Shear Modulus (GPa) = 26.01755 34.85260 30.43507
#
# Velocity S-wave (km/s) = 3.13491 3.62835 3.39062
# Velocity P-wave (km/s) = 4.72361 5.78743 5.28237
#
# Compressibility (1/GPa) = 0.04101768
#
# Stress axis : x y z
#
# Youngs Moduli (GPa) = 53.18939 30.59660 166.42956
#
# Poissons Ratio (x) = 0.10629 0.24513
# Poissons Ratio (y) = 0.18478 0.54767
# Poissons Ratio (z) = 0.07834 0.10068
#
# Static dielectric constant tensor:
#      x y z
#    x 2.149510 0.000000 0.093520 
#    y 0.000000 2.143480 0.000000 
#    z 0.093520 0.000000 2.291990 
# 
# From -- ./inp_files/257879.got.cif
#   From: 2010.05.17/outbox.cif.g08.bks.cpg/sg15_129_cif.got.tgz:257879.got - 2010.06.03 18:47:42.
