data_PCOD9258044
_publ_section_title
;
Structure prediction by ZEFSAII (Michael W. Deem and Ramdas Pophale) SiO2 
 PCOD9258044
Probable space group: C 2/C
;
_chemical_formula_sum "Si O2"
_cell_formula_units_Z 56
_cell_length_a 17.063635
_cell_length_b 18.849573
_cell_length_c 11.396107
_cell_angle_alpha 90.000000
_cell_angle_beta 127.486564
_cell_angle_gamma 90.000000
_cell_volume 2908.535508
_symmetry_space_group_name_H-M "C 2/C"
_symmetry_group_IT_number 15
_symmetry_cell_setting 'monoclinic'
loop_
_space_group_symop_operation_xyz
x,y,z
-x,y,1/2-z
-x,-y,-z
x,-y,1/2+z
1/2+x,1/2+y,z
1/2-x,1/2+y,1/2-z
1/2-x,1/2-y,-z
1/2+x,1/2-y,1/2+z
loop_
_atom_site_type_symbol
_atom_site_label
_atom_site_fract_x
_atom_site_fract_y
_atom_site_fract_z
Si Si1 0.315769 0.164550 0.946434
Si Si2 0.057956 0.520721 0.429457
Si Si3 0.392522 0.660095 0.128659
Si Si4 0.109994 0.207213 0.829531
Si Si5 0.111828 0.697241 0.724588
Si Si6 0.690122 0.109766 0.007026
Si Si7 0.899420 0.271738 0.933418
O O1 0.206170 0.156862 0.902220
O O2 0.308545 0.182738 0.802427
O O3 0.389301 0.097761 0.021682
O O4 0.363662 0.234640 0.048046
O O5 0.145270 0.463538 0.504372
O O6 0.000000 0.515815 0.250000
O O7 0.000000 0.500000 0.500000
O O8 0.500000 0.628582 0.250000
O O9 0.380306 0.726306 0.207491
O O10 0.302232 0.608294 0.066388
O O11 0.389557 0.700585 0.002014
O O12 0.104146 0.252168 0.704365
O O13 0.000000 0.176270 0.750000
O O14 0.126331 0.640896 0.840624
O O15 0.005001 0.695202 0.567252
O O16 0.678167 0.168889 0.097489
#
# Coordination Sequence:
#
# PCOD9258044 Si02
#       7
#     8   8   8   8   8   8   8
#     4  11  23  38  58  84 117 157 199 239 301 356
#     4  12  27  43  61  88 122 162 203 248 298 370
#     4   9  19  33  56  88 114 143 192 245 298 350
#     4  11  22  37  58  85 118 155 194 251 296 353
#     4  10  18  35  58  88 115 146 189 245 304 348
#     4  11  20  35  58  83 117 154 189 243 298 350
#     4  10  18  32  58  86 114 146 190 243 300 352
#
# _framework density 19.253675999999999
#
# number of rings (size 3 to 8) (size 9 to 14) (size 15 to 20)
#    0.000    1.429    1.429    7.714    2.000    0.000 
#    0.000    0.714    0.000    0.000    0.000    7.000 
#    0.000    0.000    0.000    0.000    0.000    0.000 
#
# Total GULP energy -156227.570484 kJ/mol
# GULP energy per Si atom -5579.556089 kJ/mol
# Density = 1.920985 g / cm^3
# Si number density = 19.253676 Si / 1000 Ang^3
#
#
#
# Elastic Constant Matrix: (Units=GPa)
#
#
# Indices 1 2 3 4 5 6 
#
# 1 121.4692 36.0923 20.5699 0.0000 14.6981 0.0000
# 2 36.0923 42.3278 12.2343 0.0000 3.1893 0.0000
# 3 20.5699 12.2343 53.9698 0.0000 0.9822 0.0000
# 4 0.0000 0.0000 0.0000 1.1935 0.0000 2.8637
# 5 14.6981 3.1893 0.9822 0.0000 46.1775 0.0000
# 6 0.0000 0.0000 0.0000 2.8637 0.0000 31.4583
#
#
#
# Elastic Compliance Matrix: (Units=1/GPa)
#
#
# Indices 1 2 3 4 5 6 
#
# 1 0.011691 -0.009061 -0.002346 0.000000 -0.003045 0.000000
# 2 -0.009061 0.032427 -0.003911 0.000000 0.000728 0.000000
# 3 -0.002346 -0.003911 0.020299 0.000000 0.000585 0.000000
# 4 0.000000 0.000000 0.000000 1.072014 0.000000 -0.097587
# 5 -0.003045 0.000728 0.000585 0.000000 0.022562 0.000000
# 6 0.000000 0.000000 0.000000 -0.097587 0.000000 0.040672
#
#
# Mechanical properties :
#
#
# Convention : Reuss Voigt Hill
#
# Bulk Modulus (GPa) = 29.60258 39.50665 34.55461
# Shear Modulus (GPa) = 4.02719 25.69055 14.85887
#
# Velocity S-wave (km/s) = 1.44782 3.65680 2.78104
# Velocity P-wave (km/s) = 4.26654 6.19622 5.31961
#
# Compressibility (1/GPa) = 0.03378084
#
# Stress axis : x y z
#
# Youngs Moduli (GPa) = 85.53878 30.83885 49.26354
#
# Poissons Ratio (x) = 0.27942 0.11559
# Poissons Ratio (y) = 0.77505 0.19265
# Poissons Ratio (z) = 0.20070 0.12060
#
# Static dielectric constant tensor:
#      x y z
#    x 1.768580 0.000000 0.033930 
#    y 0.000000 1.640090 0.000000 
#    z 0.033930 0.000000 1.704920 
# 
# From -- ./inp_files/106724.got.cif
#   From: 2010.05.17/outbox.cif.g08.bks.cpg/sg15_54_cif.got.tgz:106724.got - 2010.06.03 18:47:42.
