data_PCOD9258134
_publ_section_title
;
Structure prediction by ZEFSAII (Michael W. Deem and Ramdas Pophale) SiO2 
 PCOD9258134
Probable space group: C 2/C
;
_chemical_formula_sum "Si O2"
_cell_formula_units_Z 28
_cell_length_a 6.917212
_cell_length_b 11.980247
_cell_length_c 13.535974
_cell_angle_alpha 90.000000
_cell_angle_beta 73.291488
_cell_angle_gamma 90.000000
_cell_volume 1074.365466
_symmetry_space_group_name_H-M "C 2/C"
_symmetry_group_IT_number 15
_symmetry_cell_setting 'monoclinic'
loop_
_space_group_symop_operation_xyz
x,y,z
-x,y,1/2-z
-x,-y,-z
x,-y,1/2+z
1/2+x,1/2+y,z
1/2-x,1/2+y,1/2-z
1/2-x,1/2-y,-z
1/2+x,1/2-y,1/2+z
loop_
_atom_site_type_symbol
_atom_site_label
_atom_site_fract_x
_atom_site_fract_y
_atom_site_fract_z
Si Si1 0.810134 0.577363 0.549759
Si Si2 0.924287 0.169479 0.088866
Si Si3 0.711154 0.730250 0.193545
Si Si4 0.500000 0.387993 0.250000
O O1 0.884292 0.704974 0.556495
O O2 0.661083 0.584863 0.477905
O O3 0.676412 0.550623 0.666056
O O4 0.000000 0.500000 0.500000
O O5 0.792320 0.152740 0.208667
O O6 0.347344 0.326584 0.901055
O O7 0.500000 0.796371 0.250000
O O8 0.898936 0.809813 0.179921
#
# Coordination Sequence:
#
# PCOD9258134 Si02
#       4
#     8   8   8   4
#     4  10  18  32  60  98 135 180 223 281 345 409
#     4   7  16  34  56  90 129 173 227 283 332 419
#     4   7  15  33  59  89 124 172 227 279 329 412
#     4  10  18  32  60  94 130 182 222 284 346 394
#
# _framework density 26.061896999999998
#
# number of rings (size 3 to 8) (size 9 to 14) (size 15 to 20)
#    1.714    1.714    0.000    0.000    0.000    1.143 
#    0.000    1.429    0.000   65.143   33.429    8.000 
#    0.000    7.714    0.000    1.143    0.000    0.000 
#
# Total GULP energy -78041.181966 kJ/mol
# GULP energy per Si atom -5574.370140 kJ/mol
# Density = 2.600258 g / cm^3
# Si number density = 26.061897 Si / 1000 Ang^3
#
#
#
# Elastic Constant Matrix: (Units=GPa)
#
#
# Indices 1 2 3 4 5 6 
#
# 1 171.8505 84.7039 85.5465 0.0000 20.8137 0.0000
# 2 84.7039 112.5348 53.2010 0.0000 4.9028 0.0000
# 3 85.5465 53.2010 160.3689 0.0000 -1.7544 0.0000
# 4 0.0000 0.0000 0.0000 26.5646 0.0000 -4.1598
# 5 20.8137 4.9028 -1.7544 0.0000 64.1467 0.0000
# 6 0.0000 0.0000 0.0000 -4.1598 0.0000 35.7973
#
#
#
# Elastic Compliance Matrix: (Units=1/GPa)
#
#
# Indices 1 2 3 4 5 6 
#
# 1 0.011439 -0.006598 -0.003949 0.000000 -0.003315 0.000000
# 2 -0.006598 0.014398 -0.001245 0.000000 0.001006 0.000000
# 3 -0.003949 -0.001245 0.008773 0.000000 0.001617 0.000000
# 4 0.000000 0.000000 0.000000 0.038342 0.000000 0.004456
# 5 -0.003315 0.001006 0.001617 0.000000 0.016632 0.000000
# 6 0.000000 0.000000 0.000000 0.004456 0.000000 0.028453
#
#
# Mechanical properties :
#
#
# Convention : Reuss Voigt Hill
#
# Bulk Modulus (GPa) = 90.71566 99.07300 94.89433
# Shear Modulus (GPa) = 34.41234 40.05524 37.23379
#
# Velocity S-wave (km/s) = 3.63768 3.92462 3.78387
# Velocity P-wave (km/s) = 7.24755 7.65728 7.45523
#
# Compressibility (1/GPa) = 0.01102345
#
# Stress axis : x y z
#
# Youngs Moduli (GPa) = 87.42247 69.45576 113.98510
#
# Poissons Ratio (x) = 0.45830 0.45014
# Poissons Ratio (y) = 0.57685 0.14196
# Poissons Ratio (z) = 0.34524 0.08650
#
# Static dielectric constant tensor:
#      x y z
#    x 2.079190 0.000000 0.022080 
#    y 0.000000 2.148390 0.000000 
#    z 0.022080 0.000000 2.140830 
# 
# From -- ./inp_files/131879.got.cif
#   From: 2010.05.17/outbox.cif.g08.bks.cpg/sg15_66_cif.got.tgz:131879.got - 2010.06.03 18:47:42.
