data_PCOD9258130
_publ_section_title
;
Structure prediction by ZEFSAII (Michael W. Deem and Ramdas Pophale) SiO2 
 PCOD9258130
Probable space group: C 2/C
;
_chemical_formula_sum "Si O2"
_cell_formula_units_Z 36
_cell_length_a 16.785962
_cell_length_b 7.869388
_cell_length_c 17.919081
_cell_angle_alpha 90.000000
_cell_angle_beta 127.673476
_cell_angle_gamma 90.000000
_cell_volume 1873.516129
_symmetry_space_group_name_H-M "C 2/C"
_symmetry_group_IT_number 15
_symmetry_cell_setting 'monoclinic'
loop_
_space_group_symop_operation_xyz
x,y,z
-x,y,1/2-z
-x,-y,-z
x,-y,1/2+z
1/2+x,1/2+y,z
1/2-x,1/2+y,1/2-z
1/2-x,1/2-y,-z
1/2+x,1/2-y,1/2+z
loop_
_atom_site_type_symbol
_atom_site_label
_atom_site_fract_x
_atom_site_fract_y
_atom_site_fract_z
Si Si1 0.071278 0.189531 0.225640
Si Si2 0.043156 0.392803 0.457533
Si Si3 0.169116 0.370716 0.914415
Si Si4 0.500000 0.637473 0.750000
Si Si5 0.762615 0.200627 0.919478
O O1 0.183372 0.200395 0.321997
O O2 0.000000 0.269642 0.250000
O O3 0.044042 0.293987 0.137176
O O4 0.032556 0.995031 0.203396
O O5 0.103729 0.519678 0.436434
O O6 0.124230 0.254394 0.532566
O O7 0.000000 0.500000 0.500000
O O8 0.092562 0.253411 0.825593
O O9 0.229761 0.504986 0.898232
O O10 0.250000 0.250000 0.000000
O O11 0.750000 0.250000 0.000000
#
# Coordination Sequence:
#
# PCOD9258130 Si02
#       5
#     8   8   8   4   8
#     4  10  18  37  64  86 120 163 212 253 307 363
#     4  11  23  40  59  91 128 163 199 263 324 361
#     4  11  19  33  60  89 110 155 212 249 291 372
#     4  10  18  32  60  94 110 150 218 260 282 356
#     4  10  18  36  61  85 117 162 205 249 299 366
#
# _framework density 19.215206999999999
#
# number of rings (size 3 to 8) (size 9 to 14) (size 15 to 20)
#    0.667    0.889    4.444    5.333    0.000    0.000 
#    0.000   11.111    0.000    0.000    0.000    0.000 
#    0.000    0.000    0.000    0.000    0.000    0.000 
#
# Total GULP energy -100350.946749 kJ/mol
# GULP energy per Si atom -5575.052597 kJ/mol
# Density = 1.917147 g / cm^3
# Si number density = 19.215207 Si / 1000 Ang^3
#
#
#
# Elastic Constant Matrix: (Units=GPa)
#
#
# Indices 1 2 3 4 5 6 
#
# 1 48.6798 32.7098 33.9585 0.0000 0.4182 0.0000
# 2 32.7098 129.8287 57.2773 0.0000 2.7699 0.0000
# 3 33.9585 57.2773 144.9710 0.0000 25.3816 0.0000
# 4 0.0000 0.0000 0.0000 48.1151 0.0000 8.2112
# 5 0.4182 2.7699 25.3816 0.0000 19.9626 0.0000
# 6 0.0000 0.0000 0.0000 8.2112 0.0000 33.7548
#
#
#
# Elastic Compliance Matrix: (Units=1/GPa)
#
#
# Indices 1 2 3 4 5 6 
#
# 1 0.027726 -0.004463 -0.006095 0.000000 0.007788 0.000000
# 2 -0.004463 0.010352 -0.003614 0.000000 0.003252 0.000000
# 3 -0.006095 -0.003614 0.012405 0.000000 -0.015143 0.000000
# 4 0.000000 0.000000 0.000000 0.021684 0.000000 -0.005275
# 5 0.007788 0.003252 -0.015143 0.000000 0.068733 0.000000
# 6 0.000000 0.000000 0.000000 -0.005275 0.000000 0.030909
#
#
# Mechanical properties :
#
#
# Convention : Reuss Voigt Hill
#
# Bulk Modulus (GPa) = 45.16852 63.48563 54.32707
# Shear Modulus (GPa) = 24.09286 33.66876 28.88081
#
# Velocity S-wave (km/s) = 3.54481 4.19046 3.88108
# Velocity P-wave (km/s) = 6.34916 7.51826 6.95831
#
# Compressibility (1/GPa) = 0.02213931
#
# Stress axis : x y z
#
# Youngs Moduli (GPa) = 36.06738 96.60129 80.61454
#
# Poissons Ratio (x) = 0.43110 0.49134
# Poissons Ratio (y) = 0.16096 0.29134
# Poissons Ratio (z) = 0.21983 0.34912
#
# Static dielectric constant tensor:
#      x y z
#    x 1.670170 0.000000 0.000720 
#    y 0.000000 1.702680 0.000000 
#    z 0.000720 0.000000 1.688770 
# 
# From -- ./inp_files/180396.got.cif
#   From: 2010.05.17/outbox.cif.g08.bks.cpg/sg15_91_cif.got.tgz:180396.got - 2010.06.03 18:47:42.
