data_PCOD9258811
_publ_section_title
;
Structure prediction by ZEFSAII (Michael W. Deem and Ramdas Pophale) SiO2 
 PCOD9258811
Probable space group: C 2/C
;
_chemical_formula_sum "Si O2"
_cell_formula_units_Z 56
_cell_length_a 23.668650
_cell_length_b 11.232195
_cell_length_c 9.983251
_cell_angle_alpha 90.000000
_cell_angle_beta 110.126264
_cell_angle_gamma 90.000000
_cell_volume 2491.990550
_symmetry_space_group_name_H-M "C 2/C"
_symmetry_group_IT_number 15
_symmetry_cell_setting 'monoclinic'
loop_
_space_group_symop_operation_xyz
x,y,z
-x,y,1/2-z
-x,-y,-z
x,-y,1/2+z
1/2+x,1/2+y,z
1/2-x,1/2+y,1/2-z
1/2-x,1/2-y,-z
1/2+x,1/2-y,1/2+z
loop_
_atom_site_type_symbol
_atom_site_label
_atom_site_fract_x
_atom_site_fract_y
_atom_site_fract_z
Si Si1 0.913450 0.617323 0.650623
Si Si2 0.349367 0.354679 0.236987
Si Si3 0.282980 0.131004 0.568952
Si Si4 0.014816 0.358834 0.037722
Si Si5 0.291343 0.790639 0.369587
Si Si6 0.092055 0.339405 0.859272
Si Si7 0.176657 0.971772 0.542912
O O1 0.845628 0.626951 0.545351
O O2 0.931681 0.665007 0.811376
O O3 0.922735 0.475984 0.681120
O O4 0.956718 0.675528 0.576566
O O5 0.279887 0.308627 0.158659
O O6 0.394830 0.244208 0.256809
O O7 0.348283 0.431784 0.371813
O O8 0.363599 0.434910 0.116920
O O9 0.250000 0.250000 0.500000
O O10 0.299423 0.140067 0.738049
O O11 0.236311 0.025044 0.521491
O O12 0.039428 0.302966 0.920448
O O13 0.000000 0.500000 0.000000
O O14 0.343184 0.836123 0.511568
O O15 0.304798 0.649591 0.366172
#
# Coordination Sequence:
#
# PCOD9258811 Si02
#       7
#     8   8   8   8   8   8   8
#     4  10  19  35  57  84 120 148 194 248 300 367
#     4  10  20  33  54  79 117 161 199 238 296 358
#     4  11  21  33  52  87 117 152 193 240 298 362
#     4   9  19  35  56  84 114 149 190 243 305 356
#     4  10  19  33  53  77 114 161 200 232 299 360
#     4  10  18  34  55  81 113 157 194 236 308 361
#     4  10  20  35  50  78 119 157 194 239 285 355
#
# _framework density 22.471995
#
# number of rings (size 3 to 8) (size 9 to 14) (size 15 to 20)
#    0.000    2.000    1.429    4.286    0.000    1.143 
#   10.286    0.000    0.000    0.000    0.000   13.000 
#    0.000    0.000    0.000    0.000    0.000    0.000 
#
# Total GULP energy -156185.098088 kJ/mol
# GULP energy per Si atom -5578.039217 kJ/mol
# Density = 2.242085 g / cm^3
# Si number density = 22.471995 Si / 1000 Ang^3
#
#
#
# Elastic Constant Matrix: (Units=GPa)
#
#
# Indices 1 2 3 4 5 6 
#
# 1 107.1690 25.5001 14.1190 0.0000 -23.3291 0.0000
# 2 25.5001 50.0522 0.1944 0.0000 -3.4060 0.0000
# 3 14.1190 0.1944 62.9136 0.0000 -7.3564 0.0000
# 4 0.0000 0.0000 0.0000 27.7856 0.0000 -10.0799
# 5 -23.3291 -3.4060 -7.3564 0.0000 29.0497 0.0000
# 6 0.0000 0.0000 0.0000 -10.0799 0.0000 26.2829
#
#
#
# Elastic Compliance Matrix: (Units=1/GPa)
#
#
# Indices 1 2 3 4 5 6 
#
# 1 0.013019 -0.005994 -0.001817 0.000000 0.009293 0.000000
# 2 -0.005994 0.022902 0.001057 0.000000 -0.001860 0.000000
# 3 -0.001817 0.001057 0.016636 0.000000 0.002878 0.000000
# 4 0.000000 0.000000 0.000000 0.041806 0.000000 0.016033
# 5 0.009293 -0.001860 0.002878 0.000000 0.042397 0.000000
# 6 0.000000 0.000000 0.000000 0.016033 0.000000 0.044196
#
#
# Mechanical properties :
#
#
# Convention : Reuss Voigt Hill
#
# Bulk Modulus (GPa) = 25.60812 33.30686 29.45749
# Shear Modulus (GPa) = 24.09861 28.64506 26.37184
#
# Velocity S-wave (km/s) = 3.27828 3.57417 3.42942
# Velocity P-wave (km/s) = 5.07443 5.64682 5.36826
#
# Compressibility (1/GPa) = 0.03905011
#
# Stress axis : x y z
#
# Youngs Moduli (GPa) = 76.80834 43.66440 60.11152
#
# Poissons Ratio (x) = 0.26171 0.10920
# Poissons Ratio (y) = 0.46036 -0.06352
# Poissons Ratio (z) = 0.13954 -0.04614
#
# Static dielectric constant tensor:
#      x y z
#    x 1.903780 0.000000 -0.015040 
#    y 0.000000 1.835180 0.000000 
#    z -0.015040 0.000000 1.873640 
# 
# From -- ./inp_files/111136.got.cif
#   From: 2010.05.17/outbox.cif.g08.bks.cpg/sg15_56_cif.got.tgz:111136.got - 2010.06.03 18:47:42.
