data_PCOD9258125
_publ_section_title
;
Structure prediction by ZEFSAII (Michael W. Deem and Ramdas Pophale) SiO2 
 PCOD9258125
Probable space group: C 2/C
;
_chemical_formula_sum "Si O2"
_cell_formula_units_Z 36
_cell_length_a 13.917266
_cell_length_b 17.489038
_cell_length_c 10.097421
_cell_angle_alpha 90.000000
_cell_angle_beta 31.094571
_cell_angle_gamma 90.000000
_cell_volume 1269.288772
_symmetry_space_group_name_H-M "C 2/C"
_symmetry_group_IT_number 15
_symmetry_cell_setting 'monoclinic'
loop_
_space_group_symop_operation_xyz
x,y,z
-x,y,1/2-z
-x,-y,-z
x,-y,1/2+z
1/2+x,1/2+y,z
1/2-x,1/2+y,1/2-z
1/2-x,1/2-y,-z
1/2+x,1/2-y,1/2+z
loop_
_atom_site_type_symbol
_atom_site_label
_atom_site_fract_x
_atom_site_fract_y
_atom_site_fract_z
Si Si1 0.500000 0.500000 0.000000
Si Si2 0.276298 0.987104 0.926543
Si Si3 0.289306 0.671667 0.033334
Si Si4 0.194212 0.356160 0.180760
Si Si5 0.939058 0.805348 0.640952
O O1 0.369582 0.509492 0.022999
O O2 0.843433 0.600656 0.342056
O O3 0.184241 0.001076 0.178639
O O4 0.393120 0.062050 0.745708
O O5 0.500000 0.648830 0.750000
O O6 0.360116 0.651999 0.597224
O O7 0.250000 0.750000 0.000000
O O8 0.320256 0.681495 0.151728
O O9 0.052879 0.286314 0.360479
O O10 0.321815 0.334812 0.903228
#
# Coordination Sequence:
#
# PCOD9258125 Si02
#       5
#     4   8   8   8   8
#     4  10  18  32  60  92 116 146 218 254 292 346
#     4  11  21  35  63  90 119 162 211 255 296 371
#     4  12  25  39  61  89 130 166 203 255 315 372
#     4  10  21  37  66  90 123 156 211 261 307 365
#     4  10  21  38  59  95 122 159 204 258 312 364
#
# _framework density 28.362341000000001
#
# number of rings (size 3 to 8) (size 9 to 14) (size 15 to 20)
#    0.000    1.333    2.222    6.667    3.111    0.000 
#    0.000    0.000    9.778    2.667    0.000    0.000 
#    0.000    0.000    0.000    0.000    0.000    0.000 
#
# Total GULP energy -100223.640989 kJ/mol
# GULP energy per Si atom -5567.980055 kJ/mol
# Density = 2.829779 g / cm^3
# Si number density = 28.362341 Si / 1000 Ang^3
#
#
#
# Elastic Constant Matrix: (Units=GPa)
#
#
# Indices 1 2 3 4 5 6 
#
# 1 184.7993 30.5870 64.6283 -0.0015 30.9898 0.0079
# 2 30.5870 279.6112 15.1132 0.0003 -3.3884 0.0037
# 3 64.6283 15.1132 91.4491 -0.0013 37.4139 0.0009
# 4 -0.0015 0.0003 -0.0013 31.8025 0.0003 -3.0436
# 5 30.9898 -3.3884 37.4139 0.0003 47.3517 0.0003
# 6 0.0079 0.0037 0.0009 -3.0436 0.0003 -9.5767
#
#
#
# Elastic Compliance Matrix: (Units=1/GPa)
#
#
# Indices 1 2 3 4 5 6 
#
# 1 0.007308 -0.000567 -0.004578 0.000001 -0.001207 0.000005
# 2 -0.000567 0.003690 -0.000693 0.000000 0.001183 0.000001
# 3 -0.004578 -0.000693 0.019327 0.000000 -0.012324 -0.000003
# 4 0.000001 0.000000 0.000000 0.030516 -0.000001 -0.009698
# 5 -0.001207 0.001183 -0.012324 -0.000001 0.031731 0.000000
# 6 0.000005 0.000001 -0.000003 -0.009698 0.000000 -0.101338
#
#
# Mechanical properties :
#
#
# Convention : Reuss Voigt Hill
#
# Bulk Modulus (GPa) = 53.61806 86.27963 69.94885
# Shear Modulus (GPa) = 547.89068 43.61757 295.75413
#
# Velocity S-wave (km/s) = 13.91383 3.92582 10.22269
# Velocity P-wave (km/s) = 16.64548 7.14395 12.80836
#
# Compressibility (1/GPa) = 0.01865043
#
# Stress axis : x y z
#
# Youngs Moduli (GPa) = 136.83112 270.98913 51.74156
#
# Poissons Ratio (x) = 0.15356 0.23685
# Poissons Ratio (y) = 0.07754 0.03587
# Poissons Ratio (z) = 0.62635 0.18786
#
# Static dielectric constant tensor:
#      x y z
#    x 2.204430 0.000000 -0.051180 
#    y 0.000000 2.766800 -0.000020 
#    z -0.051180 -0.000020 2.263200 
# 
# From -- ./inp_files/41429.got.cif
#   From: 2010.05.17/outbox.cif.g08.bks.cpg/sg15_21_cif.got.tgz:41429.got - 2010.06.03 18:47:42.
