data_PCOD9258550
_publ_section_title
;
Structure prediction by ZEFSAII (Michael W. Deem and Ramdas Pophale) SiO2 
 PCOD9258550
Probable space group: C 2/C
;
_chemical_formula_sum "Si O2"
_cell_formula_units_Z 40
_cell_length_a 24.805867
_cell_length_b 7.393013
_cell_length_c 15.594285
_cell_angle_alpha 90.000000
_cell_angle_beta 140.441257
_cell_angle_gamma 90.000000
_cell_volume 1821.341814
_symmetry_space_group_name_H-M "C 2/C"
_symmetry_group_IT_number 15
_symmetry_cell_setting 'monoclinic'
loop_
_space_group_symop_operation_xyz
x,y,z
-x,y,1/2-z
-x,-y,-z
x,-y,1/2+z
1/2+x,1/2+y,z
1/2-x,1/2+y,1/2-z
1/2-x,1/2-y,-z
1/2+x,1/2-y,1/2+z
loop_
_atom_site_type_symbol
_atom_site_label
_atom_site_fract_x
_atom_site_fract_y
_atom_site_fract_z
Si Si1 0.815301 0.156195 0.141896
Si Si2 0.935953 0.877042 0.307296
Si Si3 0.279279 0.158172 0.313166
Si Si4 0.617843 0.487904 0.565301
Si Si5 0.090065 0.497432 0.159895
O O1 0.754181 0.071061 0.140230
O O2 0.878785 0.310883 0.258724
O O3 0.873355 0.998974 0.174664
O O4 0.750000 0.250000 0.000000
O O5 0.913389 0.946705 0.377483
O O6 0.917153 0.664752 0.282777
O O7 0.033749 0.925856 0.414418
O O8 0.328712 0.339270 0.399739
O O9 0.340730 0.052614 0.325787
O O10 0.188000 0.170321 0.154010
O O11 0.000000 0.500000 0.000000
#
# Coordination Sequence:
#
# PCOD9258550 Si02
#       5
#     8   8   8   8   8
#     4  11  23  40  61  92 130 163 201 264 324 368
#     4   9  20  35  55  85 124 155 202 248 308 370
#     4  10  18  33  59  87 113 158 210 245 295 379
#     4   9  16  31  54  86 112 146 203 256 283 355
#     4  11  21  38  66  90 120 164 209 256 312 372
#
# _framework density 21.961829999999999
#
# number of rings (size 3 to 8) (size 9 to 14) (size 15 to 20)
#    0.000    2.000    2.000    4.800    0.000    0.800 
#    0.000    4.000    0.000    2.400    0.000    0.000 
#    0.000    0.000    0.000    0.000    0.000    0.000 
#
# Total GULP energy -111432.987724 kJ/mol
# GULP energy per Si atom -5571.649386 kJ/mol
# Density = 2.191184 g / cm^3
# Si number density = 21.961830 Si / 1000 Ang^3
#
#
#
# Elastic Constant Matrix: (Units=GPa)
#
#
# Indices 1 2 3 4 5 6 
#
# 1 47.1172 0.6394 29.3266 0.0000 34.8691 0.0000
# 2 0.6394 114.4831 14.1755 0.0000 14.4426 0.0000
# 3 29.3266 14.1755 99.8530 0.0000 35.5036 0.0000
# 4 0.0000 0.0000 0.0000 35.2866 0.0000 6.1133
# 5 34.8691 14.4426 35.5036 0.0000 35.5098 0.0000
# 6 0.0000 0.0000 0.0000 6.1133 0.0000 18.5760
#
#
#
# Elastic Compliance Matrix: (Units=1/GPa)
#
#
# Indices 1 2 3 4 5 6 
#
# 1 0.093399 0.011666 0.008083 0.000000 -0.104540 0.000000
# 2 0.011666 0.010665 0.001047 0.000000 -0.016840 0.000000
# 3 0.008083 0.001047 0.016238 0.000000 -0.024599 0.000000
# 4 0.000000 0.000000 0.000000 0.030053 0.000000 -0.009890
# 5 -0.104540 -0.016840 -0.024599 0.000000 0.162258 0.000000
# 6 0.000000 0.000000 0.000000 -0.009890 0.000000 0.057088
#
#
# Mechanical properties :
#
#
# Convention : Reuss Voigt Hill
#
# Bulk Modulus (GPa) = 6.17687 38.85960 22.51824
# Shear Modulus (GPa) = 13.08648 32.36194 22.72421
#
# Velocity S-wave (km/s) = 2.44370 3.84285 3.22019
# Velocity P-wave (km/s) = 3.28343 6.11740 4.90935
#
# Compressibility (1/GPa) = 0.16189420
#
# Stress axis : x y z
#
# Youngs Moduli (GPa) = 10.70672 93.76898 61.58273
#
# Poissons Ratio (x) = -1.09388 -0.49777
# Poissons Ratio (y) = -0.12490 -0.06450
# Poissons Ratio (z) = -0.08654 -0.09822
#
# Static dielectric constant tensor:
#      x y z
#    x 1.840240 0.000000 -0.061650 
#    y 0.000000 1.889090 0.000000 
#    z -0.061650 0.000000 1.906840 
# 
# From -- ./inp_files/158849.got.cif
#   From: 2010.05.17/outbox.cif.g08.bks.cpg/sg15_80_cif.got.tgz:158849.got - 2010.06.03 18:47:42.
