data_PCOD9258061
_publ_section_title
;
Structure prediction by ZEFSAII (Michael W. Deem and Ramdas Pophale) SiO2 
 PCOD9258061
Probable space group: C 2/C
;
_chemical_formula_sum "Si O2"
_cell_formula_units_Z 32
_cell_length_a 13.112332
_cell_length_b 6.857715
_cell_length_c 19.483226
_cell_angle_alpha 90.000000
_cell_angle_beta 49.188471
_cell_angle_gamma 90.000000
_cell_volume 1325.982625
_symmetry_space_group_name_H-M "C 2/C"
_symmetry_group_IT_number 15
_symmetry_cell_setting 'monoclinic'
loop_
_space_group_symop_operation_xyz
x,y,z
-x,y,1/2-z
-x,-y,-z
x,-y,1/2+z
1/2+x,1/2+y,z
1/2-x,1/2+y,1/2-z
1/2-x,1/2-y,-z
1/2+x,1/2-y,1/2+z
loop_
_atom_site_type_symbol
_atom_site_label
_atom_site_fract_x
_atom_site_fract_y
_atom_site_fract_z
Si Si1 0.787571 0.760649 0.649433
Si Si2 0.372468 0.386157 0.472224
Si Si3 0.138519 0.636614 0.350342
Si Si4 0.364551 0.406778 0.844625
O O1 0.848100 0.895003 0.564076
O O2 0.894787 0.590234 0.620640
O O3 0.732040 0.861747 0.741476
O O4 0.665631 0.626602 0.672047
O O5 0.250000 0.250000 0.500000
O O6 0.510437 0.270169 0.398672
O O7 0.373307 0.572501 0.422219
O O8 0.234407 0.698765 0.371314
O O9 0.500000 0.331717 0.750000
#
# Coordination Sequence:
#
# PCOD9258061 Si02
#       4
#     8   8   8   8
#     4   9  20  32  58  81 118 153 197 240 297 342
#     4  10  18  32  58  90 112 157 199 239 290 356
#     4  10  19  35  57  88 116 157 194 247 292 349
#     4   9  18  34  59  79 118 154 195 239 291 348
#
# _framework density 24.133047000000001
#
# number of rings (size 3 to 8) (size 9 to 14) (size 15 to 20)
#    1.500    1.000    2.500    0.750    0.000    0.000 
#    0.000    5.000   11.000    3.000    0.000    0.000 
#    0.000    0.000    0.000    0.000    0.000    0.000 
#
# Total GULP energy -89313.709231 kJ/mol
# GULP energy per Si atom -5582.106827 kJ/mol
# Density = 2.407812 g / cm^3
# Si number density = 24.133047 Si / 1000 Ang^3
#
#
#
# Elastic Constant Matrix: (Units=GPa)
#
#
# Indices 1 2 3 4 5 6 
#
# 1 114.8944 25.4063 60.9163 0.0000 -7.8960 0.0001
# 2 25.4063 46.0738 45.5610 0.0000 16.0477 0.0002
# 3 60.9163 45.5610 152.3089 0.0000 21.8566 0.0000
# 4 0.0000 0.0000 0.0000 8.0883 0.0000 2.2314
# 5 -7.8960 16.0477 21.8566 0.0000 43.3546 0.0000
# 6 0.0001 0.0002 0.0000 2.2314 0.0000 32.4871
#
#
#
# Elastic Compliance Matrix: (Units=1/GPa)
#
#
# Indices 1 2 3 4 5 6 
#
# 1 0.012570 -0.004628 -0.004546 0.000000 0.006294 0.000000
# 2 -0.004628 0.034821 -0.007109 0.000000 -0.010148 0.000000
# 3 -0.004546 -0.007109 0.011051 0.000000 -0.003768 0.000000
# 4 0.000000 0.000000 0.000000 0.126023 0.000000 -0.008656
# 5 0.006294 -0.010148 -0.003768 0.000000 0.029868 0.000000
# 6 0.000000 0.000000 0.000000 -0.008656 0.000000 0.031376
#
#
# Mechanical properties :
#
#
# Convention : Reuss Voigt Hill
#
# Bulk Modulus (GPa) = 38.64679 64.11606 51.38142
# Shear Modulus (GPa) = 17.42770 28.87892 23.15331
#
# Velocity S-wave (km/s) = 2.69020 3.46302 3.10078
# Velocity P-wave (km/s) = 5.06936 6.52805 5.84439
#
# Compressibility (1/GPa) = 0.02587537
#
# Stress axis : x y z
#
# Youngs Moduli (GPa) = 79.55449 28.71859 90.48900
#
# Poissons Ratio (x) = 0.13291 0.41138
# Poissons Ratio (y) = 0.36819 0.64327
# Poissons Ratio (z) = 0.36167 0.20415
#
# Static dielectric constant tensor:
#      x y z
#    x 1.948450 0.000000 0.064770 
#    y 0.000000 1.963970 0.000000 
#    z 0.064770 0.000000 1.892270 
# 
# From -- ./inp_files/84166.got.cif
#   From: 2010.05.17/outbox.cif.g08.bks.cpg/sg15_43_cif.got.tgz:84166.got - 2010.06.03 18:47:42.
