data_PCOD9258886
_publ_section_title
;
Structure prediction by ZEFSAII (Michael W. Deem and Ramdas Pophale) SiO2 
 PCOD9258886
Probable space group: C 2/C
;
_chemical_formula_sum "Si O2"
_cell_formula_units_Z 56
_cell_length_a 16.147041
_cell_length_b 12.223420
_cell_length_c 19.930485
_cell_angle_alpha 90.000000
_cell_angle_beta 147.461822
_cell_angle_gamma 90.000000
_cell_volume 2115.796928
_symmetry_space_group_name_H-M "C 2/C"
_symmetry_group_IT_number 15
_symmetry_cell_setting 'monoclinic'
loop_
_space_group_symop_operation_xyz
x,y,z
-x,y,1/2-z
-x,-y,-z
x,-y,1/2+z
1/2+x,1/2+y,z
1/2-x,1/2+y,1/2-z
1/2-x,1/2-y,-z
1/2+x,1/2-y,1/2+z
loop_
_atom_site_type_symbol
_atom_site_label
_atom_site_fract_x
_atom_site_fract_y
_atom_site_fract_z
Si Si1 0.030131 0.777129 0.921413
Si Si2 0.680229 0.014382 0.603952
Si Si3 0.095528 0.434745 0.408908
Si Si4 0.250268 0.008696 0.206397
Si Si5 0.831635 0.760839 0.340651
Si Si6 0.151604 0.975046 0.501402
Si Si7 0.938033 0.193762 0.779764
O O1 0.091485 0.696824 0.904330
O O2 0.076392 0.903624 0.947765
O O3 0.849151 0.756160 0.793941
O O4 0.095313 0.732130 0.037527
O O5 0.699382 0.963823 0.544384
O O6 0.500000 0.000000 0.500000
O O7 0.749396 0.954509 0.716350
O O8 0.772593 0.130109 0.661579
O O9 0.175842 0.497350 0.404108
O O10 0.924145 0.476731 0.305834
O O11 0.159614 0.893813 0.150317
O O12 0.171219 0.070019 0.090674
O O13 0.918243 0.726152 0.330749
O O14 0.064210 0.894253 0.391937
O O15 0.000000 0.234883 0.750000
#
# Coordination Sequence:
#
# PCOD9258886 Si02
#       7
#     8   8   8   8   8   8   8
#     4  10  22  38  59  89 121 166 198 240 304 376
#     4   9  18  34  56  81 115 157 196 232 288 359
#     4  10  18  34  56  88 126 159 190 239 304 363
#     4   8  18  34  54  82 123 160 189 238 294 354
#     4   9  21  40  59  82 119 162 204 248 297 363
#     4  11  21  34  58  93 125 152 197 249 304 357
#     4  11  22  39  60  90 118 154 201 261 301 341
#
# _framework density 26.467568
#
# number of rings (size 3 to 8) (size 9 to 14) (size 15 to 20)
#    0.000    2.286    1.429    1.714    2.000    5.143 
#    0.000    2.143    0.000    0.000    0.000    0.000 
#    0.000    0.000    0.000    0.000    0.000    0.000 
#
# Total GULP energy -156477.111165 kJ/mol
# GULP energy per Si atom -5588.468256 kJ/mol
# Density = 2.640733 g / cm^3
# Si number density = 26.467568 Si / 1000 Ang^3
#
#
#
# Elastic Constant Matrix: (Units=GPa)
#
#
# Indices 1 2 3 4 5 6 
#
# 1 100.7087 -9.4665 21.4626 -0.0003 10.8841 -0.0001
# 2 -9.4665 35.4332 21.7048 -0.0002 -6.9549 -0.0001
# 3 21.4626 21.7048 122.2700 -0.0007 2.1980 -0.0003
# 4 -0.0003 -0.0002 -0.0007 17.7115 0.0000 -4.6014
# 5 10.8841 -6.9549 2.1980 0.0000 51.8558 0.0000
# 6 -0.0001 -0.0001 -0.0003 -4.6014 0.0000 33.4140
#
#
#
# Elastic Compliance Matrix: (Units=1/GPa)
#
#
# Indices 1 2 3 4 5 6 
#
# 1 0.011079 0.004276 -0.002674 0.000000 -0.001638 0.000000
# 2 0.004276 0.034396 -0.006928 0.000000 0.004009 0.000000
# 3 -0.002674 -0.006928 0.009892 0.000000 -0.000787 0.000000
# 4 0.000000 0.000000 0.000000 0.058555 0.000000 0.008064
# 5 -0.001638 0.004009 -0.000787 0.000000 0.020199 0.000000
# 6 0.000000 0.000000 0.000000 0.008064 0.000000 0.031038
#
#
# Mechanical properties :
#
#
# Convention : Reuss Voigt Hill
#
# Bulk Modulus (GPa) = 22.36459 36.20152 29.28306
# Shear Modulus (GPa) = 26.21694 35.57700 30.89697
#
# Velocity S-wave (km/s) = 3.15068 3.67027 3.42036
# Velocity P-wave (km/s) = 4.65874 5.62749 5.16587
#
# Compressibility (1/GPa) = 0.04471353
#
# Stress axis : x y z
#
# Youngs Moduli (GPa) = 90.26389 29.07349 101.09048
#
# Poissons Ratio (x) = -0.12433 0.27035
# Poissons Ratio (y) = -0.38601 0.70040
# Poissons Ratio (z) = 0.24140 0.20144
#
# Static dielectric constant tensor:
#      x y z
#    x 2.111990 0.000000 0.005590 
#    y 0.000000 2.168880 0.000000 
#    z 0.005590 0.000000 2.066520 
# 
# From -- ./inp_files/249295.got.cif
#   From: 2010.05.17/outbox.cif.g08.bks.cpg/sg15_125_cif.got.tgz:249295.got - 2010.06.03 18:47:42.
