data_PCOD9258757
_publ_section_title
;
Structure prediction by ZEFSAII (Michael W. Deem and Ramdas Pophale) SiO2 
 PCOD9258757
Probable space group: C 2/C
;
_chemical_formula_sum "Si O2"
_cell_formula_units_Z 44
_cell_length_a 17.428110
_cell_length_b 13.314596
_cell_length_c 12.062501
_cell_angle_alpha 90.000000
_cell_angle_beta 51.919161
_cell_angle_gamma 90.000000
_cell_volume 2203.273260
_symmetry_space_group_name_H-M "C 2/C"
_symmetry_group_IT_number 15
_symmetry_cell_setting 'monoclinic'
loop_
_space_group_symop_operation_xyz
x,y,z
-x,y,1/2-z
-x,-y,-z
x,-y,1/2+z
1/2+x,1/2+y,z
1/2-x,1/2+y,1/2-z
1/2-x,1/2-y,-z
1/2+x,1/2-y,1/2+z
loop_
_atom_site_type_symbol
_atom_site_label
_atom_site_fract_x
_atom_site_fract_y
_atom_site_fract_z
Si Si1 0.168134 0.152599 0.671768
Si Si2 0.000000 0.033855 0.750000
Si Si3 0.906816 0.237157 0.185507
Si Si4 0.390630 0.652115 0.444114
Si Si5 0.743766 0.354807 0.854403
Si Si6 0.289085 0.921532 0.254734
O O1 0.177625 0.265068 0.709029
O O2 0.192730 0.150041 0.519887
O O3 0.248307 0.088217 0.666447
O O4 0.063462 0.101560 0.775241
O O5 0.929911 0.958972 0.879202
O O6 0.878627 0.207604 0.336939
O O7 0.836924 0.174565 0.165507
O O8 0.884996 0.354248 0.183279
O O9 0.019914 0.207083 0.074172
O O10 0.293032 0.636909 0.599502
O O11 0.789362 0.463261 0.790527
#
# Coordination Sequence:
#
# PCOD9258757 Si02
#       6
#     8   4   8   8   8   8
#     4  10  22  35  54  87 114 143 185 231 277 327
#     4  10  18  34  54  82 114 136 184 232 268 330
#     4   9  21  36  54  84 116 136 189 234 273 327
#     4  10  20  35  58  89 107 144 192 231 276 325
#     4  10  21  37  56  81 115 148 182 228 281 334
#     4  11  20  36  60  79 113 153 181 230 281 331
#
# _framework density 19.970286999999999
#
# number of rings (size 3 to 8) (size 9 to 14) (size 15 to 20)
#    0.000    2.182    1.818    2.727    2.545    1.455 
#    0.000    1.818    0.000    4.364    0.000    0.000 
#    0.000    0.000    0.000    0.000    0.000    0.000 
#
# Total GULP energy -122820.438779 kJ/mol
# GULP energy per Si atom -5582.747217 kJ/mol
# Density = 1.992483 g / cm^3
# Si number density = 19.970287 Si / 1000 Ang^3
#
#
#
# Elastic Constant Matrix: (Units=GPa)
#
#
# Indices 1 2 3 4 5 6 
#
# 1 107.4458 65.7750 14.4571 0.0000 23.8269 0.0000
# 2 65.7750 157.1828 4.7655 0.0000 12.1658 0.0000
# 3 14.4571 4.7655 44.1780 0.0000 17.8890 0.0000
# 4 0.0000 0.0000 0.0000 17.2421 0.0000 -7.8481
# 5 23.8269 12.1658 17.8890 0.0000 28.4376 0.0000
# 6 0.0000 0.0000 0.0000 -7.8481 0.0000 23.3778
#
#
#
# Elastic Compliance Matrix: (Units=1/GPa)
#
#
# Indices 1 2 3 4 5 6 
#
# 1 0.014893 -0.005451 -0.000238 0.000000 -0.009997 0.000000
# 2 -0.005451 0.008586 0.000665 0.000000 0.000476 0.000000
# 3 -0.000238 0.000665 0.030427 0.000000 -0.019226 0.000000
# 4 0.000000 0.000000 0.000000 0.068458 0.000000 0.022982
# 5 -0.009997 0.000476 -0.019226 0.000000 0.055431 0.000000
# 6 0.000000 0.000000 0.000000 0.022982 0.000000 0.050491
#
#
# Mechanical properties :
#
#
# Convention : Reuss Voigt Hill
#
# Bulk Modulus (GPa) = 22.80070 53.20019 38.00044
# Shear Modulus (GPa) = 19.76647 28.73208 24.24927
#
# Velocity S-wave (km/s) = 3.14951 3.79719 3.48841
# Velocity P-wave (km/s) = 4.96669 6.77660 5.94098
#
# Compressibility (1/GPa) = 0.04385831
#
# Stress axis : x y z
#
# Youngs Moduli (GPa) = 67.14626 116.46690 32.86566
#
# Poissons Ratio (x) = 0.63488 0.00781
# Poissons Ratio (y) = 0.36602 -0.02186
# Poissons Ratio (z) = 0.01596 -0.07745
#
# Static dielectric constant tensor:
#      x y z
#    x 1.696600 0.000000 0.010160 
#    y 0.000000 1.720480 0.000000 
#    z 0.010160 0.000000 1.737150 
# 
# From -- ./inp_files/96587.got.cif
#   From: 2010.05.17/outbox.cif.g08.bks.cpg/sg15_49_cif.got.tgz:96587.got - 2010.06.03 18:47:42.
