data_PCOD9258925
_publ_section_title
;
Structure prediction by ZEFSAII (Michael W. Deem and Ramdas Pophale) SiO2 
 PCOD9258925
Probable space group: C 2/C
;
_chemical_formula_sum "Si O2"
_cell_formula_units_Z 52
_cell_length_a 11.135191
_cell_length_b 14.389954
_cell_length_c 24.695785
_cell_angle_alpha 90.000000
_cell_angle_beta 46.168508
_cell_angle_gamma 90.000000
_cell_volume 2854.590545
_symmetry_space_group_name_H-M "C 2/C"
_symmetry_group_IT_number 15
_symmetry_cell_setting 'monoclinic'
loop_
_space_group_symop_operation_xyz
x,y,z
-x,y,1/2-z
-x,-y,-z
x,-y,1/2+z
1/2+x,1/2+y,z
1/2-x,1/2+y,1/2-z
1/2-x,1/2-y,-z
1/2+x,1/2-y,1/2+z
loop_
_atom_site_type_symbol
_atom_site_label
_atom_site_fract_x
_atom_site_fract_y
_atom_site_fract_z
Si Si1 0.457220 0.546883 0.456259
Si Si2 0.886153 0.929144 0.189249
Si Si3 0.500000 0.694269 0.750000
Si Si4 0.338914 0.604613 0.263787
Si Si5 0.167688 0.669050 0.561143
Si Si6 0.303707 0.218649 0.823785
Si Si7 0.359052 0.280759 0.647063
O O1 0.500000 0.500000 0.500000
O O2 0.507502 0.483651 0.389365
O O3 0.262892 0.575618 0.515022
O O4 0.564593 0.642500 0.417316
O O5 0.775437 0.856141 0.191275
O O6 0.991120 0.870797 0.199848
O O7 0.782985 0.007436 0.255111
O O8 0.667850 0.755385 0.697136
O O9 0.500000 0.581235 0.250000
O O10 0.235437 0.677120 0.332856
O O11 0.379088 0.668592 0.198944
O O12 0.250000 0.750000 0.500000
O O13 0.213961 0.688189 0.609030
O O14 0.971912 0.687722 0.613746
O O15 0.500000 0.221956 0.750000
#
# Coordination Sequence:
#
# PCOD9258925 Si02
#       7
#     8   8   4   8   8   8   8
#     4  10  21  39  60  86 120 156 213 251 298 369
#     4  11  22  35  57  89 123 161 190 255 317 356
#     4  12  22  40  58  88 136 152 196 260 322 356
#     4  10  18  34  57  83 114 146 208 244 293 366
#     4  10  19  35  63  85 115 158 209 245 293 369
#     4  11  19  36  60  86 116 154 210 253 299 358
#     4  10  21  37  59  88 115 166 199 249 308 357
#
# _framework density 18.216272
#
# number of rings (size 3 to 8) (size 9 to 14) (size 15 to 20)
#    0.000    1.538    6.923    0.000    0.000    0.000 
#    5.538    1.538    0.000    0.000    0.000    0.000 
#    0.000    0.000    0.000    0.000    0.000    0.000 
#
# Total GULP energy -144769.894570 kJ/mol
# GULP energy per Si atom -5568.072868 kJ/mol
# Density = 1.817481 g / cm^3
# Si number density = 18.216272 Si / 1000 Ang^3
#
#
#
# Elastic Constant Matrix: (Units=GPa)
#
#
# Indices 1 2 3 4 5 6 
#
# 1 112.7634 57.0802 45.2251 0.0001 4.5782 0.0000
# 2 57.0802 96.1814 30.6924 0.0002 7.5524 -0.0001
# 3 45.2251 30.6924 66.6398 0.0001 11.2928 -0.0001
# 4 0.0001 0.0002 0.0001 29.4160 -0.0001 8.2264
# 5 4.5782 7.5524 11.2928 -0.0001 29.8925 0.0001
# 6 0.0000 -0.0001 -0.0001 8.2264 0.0001 30.4365
#
#
#
# Elastic Compliance Matrix: (Units=1/GPa)
#
#
# Indices 1 2 3 4 5 6 
#
# 1 0.015280 -0.006816 -0.007613 0.000000 0.002258 0.000000
# 2 -0.006816 0.015258 -0.002057 0.000000 -0.002034 0.000000
# 3 -0.007613 -0.002057 0.022260 0.000000 -0.006723 0.000000
# 4 0.000000 0.000000 0.000000 0.036775 0.000000 -0.009940
# 5 0.002258 -0.002034 -0.006723 0.000000 0.036161 0.000000
# 6 0.000000 0.000000 0.000000 -0.009940 0.000000 0.035542
#
#
# Mechanical properties :
#
#
# Convention : Reuss Voigt Hill
#
# Bulk Modulus (GPa) = 50.44098 60.17556 55.30827
# Shear Modulus (GPa) = 24.89338 27.45479 26.17409
#
# Velocity S-wave (km/s) = 3.70069 3.88642 3.79470
# Velocity P-wave (km/s) = 6.78309 7.29690 7.04468
#
# Compressibility (1/GPa) = 0.01982515
#
# Stress axis : x y z
#
# Youngs Moduli (GPa) = 65.44489 65.53838 44.92451
#
# Poissons Ratio (x) = 0.44671 0.34202
# Poissons Ratio (y) = 0.44607 0.09242
# Poissons Ratio (z) = 0.49824 0.13482
#
# Static dielectric constant tensor:
#      x y z
#    x 1.635330 0.000000 -0.021820 
#    y 0.000000 1.676690 0.000000 
#    z -0.021820 0.000000 1.676900 
# 
# From -- ./inp_files/231156.got.cif
#   From: 2010.05.17/outbox.cif.g08.bks.cpg/sg15_116_cif.got.tgz:231156.got - 2010.06.03 18:47:42.
