data_PCOD9258050
_publ_section_title
;
Structure prediction by ZEFSAII (Michael W. Deem and Ramdas Pophale) SiO2 
 PCOD9258050
Probable space group: C 2/C
;
_chemical_formula_sum "Si O2"
_cell_formula_units_Z 52
_cell_length_a 10.738802
_cell_length_b 16.504603
_cell_length_c 13.975424
_cell_angle_alpha 90.000000
_cell_angle_beta 67.144256
_cell_angle_gamma 90.000000
_cell_volume 2282.519560
_symmetry_space_group_name_H-M "C 2/C"
_symmetry_group_IT_number 15
_symmetry_cell_setting 'monoclinic'
loop_
_space_group_symop_operation_xyz
x,y,z
-x,y,1/2-z
-x,-y,-z
x,-y,1/2+z
1/2+x,1/2+y,z
1/2-x,1/2+y,1/2-z
1/2-x,1/2-y,-z
1/2+x,1/2-y,1/2+z
loop_
_atom_site_type_symbol
_atom_site_label
_atom_site_fract_x
_atom_site_fract_y
_atom_site_fract_z
Si Si1 0.158852 0.012282 0.875214
Si Si2 0.971824 0.876196 0.943359
Si Si3 0.139515 0.529550 0.329994
Si Si4 0.528050 0.202422 0.953677
Si Si5 0.500000 0.807177 0.250000
Si Si6 0.743286 0.686823 0.141300
Si Si7 0.153415 0.440515 0.526111
O O1 0.279296 0.027857 0.765915
O O2 0.220784 0.961037 0.945452
O O3 0.087530 0.090800 0.939276
O O4 0.045477 0.951478 0.870618
O O5 0.063810 0.796327 0.926171
O O6 0.846742 0.852130 0.915155
O O7 0.211327 0.617102 0.298744
O O8 0.157542 0.499667 0.433493
O O9 0.979391 0.540533 0.370406
O O10 0.501641 0.158485 0.858372
O O11 0.384685 0.211078 0.050974
O O12 0.627362 0.147882 0.987725
O O13 0.640616 0.755388 0.208329
#
# Coordination Sequence:
#
# PCOD9258050 Si02
#       7
#     8   8   8   8   4   8   8
#     4  11  22  38  61  84 119 160 196 236 299 358
#     4  10  21  38  58  88 116 157 196 244 293 351
#     4  10  20  37  60  82 115 155 198 245 289 352
#     4  10  22  37  59  86 122 149 196 253 291 344
#     4  10  18  32  58  88 108 158 190 242 308 346
#     4  10  19  37  58  83 118 146 202 249 286 344
#     4  10  22  39  55  89 118 152 195 248 294 347
#
# _framework density 22.781842000000001
#
# number of rings (size 3 to 8) (size 9 to 14) (size 15 to 20)
#    0.000    1.846    1.538    4.154    0.000    3.077 
#    0.000    0.000    0.000    3.692    0.000    0.000 
#    0.000    0.000    0.000    0.000    0.000    0.000 
#
# Total GULP energy -145112.218259 kJ/mol
# GULP energy per Si atom -5581.239164 kJ/mol
# Density = 2.272999 g / cm^3
# Si number density = 22.781842 Si / 1000 Ang^3
#
#
#
# Elastic Constant Matrix: (Units=GPa)
#
#
# Indices 1 2 3 4 5 6 
#
# 1 23.9630 12.9306 -4.4674 0.0000 -6.4220 0.0000
# 2 12.9306 69.1923 1.4475 0.0000 2.4350 0.0000
# 3 -4.4674 1.4475 114.2756 0.0000 -14.5475 0.0000
# 4 0.0000 0.0000 0.0000 28.5029 0.0000 -4.3411
# 5 -6.4220 2.4350 -14.5475 0.0000 19.7486 0.0000
# 6 0.0000 0.0000 0.0000 -4.3411 0.0000 21.2271
#
#
#
# Elastic Compliance Matrix: (Units=1/GPa)
#
#
# Indices 1 2 3 4 5 6 
#
# 1 0.054932 -0.011188 0.005229 0.000000 0.023095 0.000000
# 2 -0.011188 0.016815 -0.001520 0.000000 -0.006831 0.000000
# 3 0.005229 -0.001520 0.010168 0.000000 0.009378 0.000000
# 4 0.000000 0.000000 0.000000 0.036212 0.000000 0.007406
# 5 0.023095 -0.006831 0.009378 0.000000 0.065897 0.000000
# 6 0.000000 0.000000 0.000000 0.007406 0.000000 0.048624
#
#
# Mechanical properties :
#
#
# Convention : Reuss Voigt Hill
#
# Bulk Modulus (GPa) = 14.93458 25.25025 20.09241
# Shear Modulus (GPa) = 18.52359 27.06372 22.79365
#
# Velocity S-wave (km/s) = 2.85456 3.45041 3.16653
# Velocity P-wave (km/s) = 4.17545 5.19435 4.71252
#
# Compressibility (1/GPa) = 0.06695869
#
# Stress axis : x y z
#
# Youngs Moduli (GPa) = 18.20428 59.46916 98.34481
#
# Poissons Ratio (x) = 0.66533 -0.51426
# Poissons Ratio (y) = 0.20367 0.14948
# Poissons Ratio (z) = -0.09519 0.09039
#
# Static dielectric constant tensor:
#      x y z
#    x 1.833150 0.000000 -0.026420 
#    y 0.000000 1.951270 0.000000 
#    z -0.026420 0.000000 1.918180 
# 
# From -- ./inp_files/145471.got.cif
#   From: 2010.05.17/outbox.cif.g08.bks.cpg/sg15_73_cif.got.tgz:145471.got - 2010.06.03 18:47:42.
