data_PCOD9258056
_publ_section_title
;
Structure prediction by ZEFSAII (Michael W. Deem and Ramdas Pophale) SiO2 
 PCOD9258056
Probable space group: C 2/C
;
_chemical_formula_sum "Si O2"
_cell_formula_units_Z 56
_cell_length_a 19.089611
_cell_length_b 7.257721
_cell_length_c 17.182223
_cell_angle_alpha 90.000000
_cell_angle_beta 66.334076
_cell_angle_gamma 90.000000
_cell_volume 2180.346225
_symmetry_space_group_name_H-M "C 2/C"
_symmetry_group_IT_number 15
_symmetry_cell_setting 'monoclinic'
loop_
_space_group_symop_operation_xyz
x,y,z
-x,y,1/2-z
-x,-y,-z
x,-y,1/2+z
1/2+x,1/2+y,z
1/2-x,1/2+y,1/2-z
1/2-x,1/2-y,-z
1/2+x,1/2-y,1/2+z
loop_
_atom_site_type_symbol
_atom_site_label
_atom_site_fract_x
_atom_site_fract_y
_atom_site_fract_z
Si Si1 0.764781 0.841225 0.875182
Si Si2 0.404849 0.116143 0.010963
Si Si3 0.751793 0.152999 0.754188
Si Si4 0.955188 0.410759 0.839764
Si Si5 0.070270 0.866606 0.364650
Si Si6 0.114450 0.219267 0.413435
Si Si7 0.169199 0.155999 0.558258
O O1 0.685075 0.833494 0.957016
O O2 0.747799 0.964232 0.805728
O O3 0.820927 0.962730 0.902062
O O4 0.784088 0.657374 0.818101
O O5 0.409997 0.929870 0.061439
O O6 0.441067 0.276015 0.045343
O O7 0.439658 0.057170 0.914285
O O8 0.842880 0.177837 0.700753
O O9 0.697940 0.271042 0.836165
O O10 0.875598 0.301142 0.867755
O O11 0.000000 0.504258 0.750000
O O12 0.011945 0.242301 0.837532
O O13 0.066694 0.084831 0.379233
O O14 0.125069 0.139888 0.495874
O O15 0.250000 0.250000 0.500000
#
# Coordination Sequence:
#
# PCOD9258056 Si02
#       7
#     8   8   8   8   8   8   8
#     4  10  18  34  59  84 122 152 204 249 304 360
#     4   9  21  39  60  89 123 164 201 260 304 370
#     4  10  18  32  58  88 119 155 203 257 290 367
#     4  11  23  37  65  93 122 170 203 262 318 363
#     4  11  22  38  63  95 123 160 220 246 309 386
#     4  10  21  37  66  89 121 173 201 252 318 359
#     4  11  20  38  61  88 125 163 204 253 311 376
#
# _framework density 25.683993000000001
#
# number of rings (size 3 to 8) (size 9 to 14) (size 15 to 20)
#    0.000    1.714    5.714    1.286    0.000    2.286 
#    0.000    2.857   15.714    4.286    0.000    0.000 
#    0.000    0.000    0.000    0.000    0.000    0.000 
#
# Total GULP energy -156452.136093 kJ/mol
# GULP energy per Si atom -5587.576289 kJ/mol
# Density = 2.562554 g / cm^3
# Si number density = 25.683993 Si / 1000 Ang^3
#
#
#
# Elastic Constant Matrix: (Units=GPa)
#
#
# Indices 1 2 3 4 5 6 
#
# 1 46.7450 6.2845 18.3632 0.0000 -14.9272 -0.0002
# 2 6.2845 77.7457 27.3589 -0.0001 0.9448 -0.0005
# 3 18.3632 27.3589 186.7743 0.0000 -33.0749 0.0001
# 4 0.0000 -0.0001 0.0000 41.4130 0.0000 4.2385
# 5 -14.9272 0.9448 -33.0749 0.0000 34.7759 0.0000
# 6 -0.0002 -0.0005 0.0001 4.2385 0.0000 28.4876
#
#
#
# Elastic Compliance Matrix: (Units=1/GPa)
#
#
# Indices 1 2 3 4 5 6 
#
# 1 0.025163 -0.002057 -0.000301 0.000000 0.010571 0.000000
# 2 -0.002057 0.013946 -0.002482 0.000000 -0.003622 0.000000
# 3 -0.000301 -0.002482 0.006898 0.000000 0.006499 0.000000
# 4 0.000000 0.000000 0.000000 0.024520 0.000000 -0.003648
# 5 0.010571 -0.003622 0.006499 0.000000 0.039572 0.000000
# 6 0.000000 0.000000 0.000000 -0.003648 0.000000 0.035646
#
#
# Mechanical properties :
#
#
# Convention : Reuss Voigt Hill
#
# Bulk Modulus (GPa) = 27.52692 46.14201 36.83446
# Shear Modulus (GPa) = 29.84465 38.21919 34.03192
#
# Velocity S-wave (km/s) = 3.41250 3.86172 3.64404
# Velocity P-wave (km/s) = 5.12520 6.15533 5.66373
#
# Compressibility (1/GPa) = 0.03632808
#
# Stress axis : x y z
#
# Youngs Moduli (GPa) = 39.74107 71.70421 144.96775
#
# Poissons Ratio (x) = 0.14747 0.04360
# Poissons Ratio (y) = 0.08173 0.35983
# Poissons Ratio (z) = 0.01195 0.17798
#
# Static dielectric constant tensor:
#      x y z
#    x 2.087450 0.000000 0.029140 
#    y 0.000000 2.321650 0.000000 
#    z 0.029140 0.000000 2.071330 
# 
# From -- ./inp_files/218196.got.cif
#   From: 2010.05.17/outbox.cif.g08.bks.cpg/sg15_110_cif.got.tgz:218196.got - 2010.06.03 18:47:42.
