data_PCOD9258355
_publ_section_title
;
Structure prediction by ZEFSAII (Michael W. Deem and Ramdas Pophale) SiO2 
 PCOD9258355
Probable space group: C 2/C
;
_chemical_formula_sum "Si O2"
_cell_formula_units_Z 56
_cell_length_a 13.261422
_cell_length_b 15.114268
_cell_length_c 16.842527
_cell_angle_alpha 90.000000
_cell_angle_beta 54.774015
_cell_angle_gamma 90.000000
_cell_volume 2757.684200
_symmetry_space_group_name_H-M "C 2/C"
_symmetry_group_IT_number 15
_symmetry_cell_setting 'monoclinic'
loop_
_space_group_symop_operation_xyz
x,y,z
-x,y,1/2-z
-x,-y,-z
x,-y,1/2+z
1/2+x,1/2+y,z
1/2-x,1/2+y,1/2-z
1/2-x,1/2-y,-z
1/2+x,1/2-y,1/2+z
loop_
_atom_site_type_symbol
_atom_site_label
_atom_site_fract_x
_atom_site_fract_y
_atom_site_fract_z
Si Si1 0.117774 0.454449 0.660012
Si Si2 0.420185 0.668834 0.910499
Si Si3 0.122091 0.055748 0.426495
Si Si4 0.993766 0.407706 0.958936
Si Si5 0.410032 0.495310 0.225732
Si Si6 0.861842 0.306140 0.712913
Si Si7 0.269756 0.157893 0.642508
O O1 0.253678 0.495297 0.602575
O O2 0.082887 0.426490 0.587423
O O3 0.131307 0.370907 0.714295
O O4 0.000000 0.505687 0.750000
O O5 0.498201 0.583245 0.846256
O O6 0.512679 0.749162 0.855202
O O7 0.306723 0.681372 0.902675
O O8 0.382762 0.643436 0.016996
O O9 0.124823 0.060540 0.330077
O O10 0.000000 0.000000 0.500000
O O11 0.124647 0.367487 0.871138
O O12 0.911339 0.348036 0.054148
O O13 0.000000 0.500000 0.000000
O O14 0.500000 0.539274 0.250000
O O15 0.289839 0.438050 0.306739
O O16 0.761447 0.231238 0.777124
#
# Coordination Sequence:
#
# PCOD9258355 Si02
#       7
#     8   8   8   8   8   8   8
#     4  10  21  36  52  80 120 151 188 229 297 354
#     4   9  16  32  52  80 110 141 186 240 287 338
#     4  10  19  32  55  83 113 146 198 239 281 345
#     4  11  23  35  52  84 123 153 186 231 304 360
#     4   8  17  30  49  81 114 142 181 233 291 334
#     4  10  22  36  55  84 115 151 190 241 302 360
#     4  10  18  33  55  75 115 151 181 238 294 345
#
# _framework density 20.306892999999999
#
# number of rings (size 3 to 8) (size 9 to 14) (size 15 to 20)
#    0.000    2.286    1.429    3.857    6.000    1.143 
#    0.000    0.000    0.000    0.000    0.000   19.000 
#    0.000    0.000    0.000    0.000    0.000    0.000 
#
# Total GULP energy -156007.241650 kJ/mol
# GULP energy per Si atom -5571.687202 kJ/mol
# Density = 2.026067 g / cm^3
# Si number density = 20.306893 Si / 1000 Ang^3
#
#
#
# Elastic Constant Matrix: (Units=GPa)
#
#
# Indices 1 2 3 4 5 6 
#
# 1 54.0992 13.3023 32.0097 0.0000 -2.1209 0.0000
# 2 13.3023 61.2358 40.2868 0.0000 5.0207 0.0000
# 3 32.0097 40.2868 139.1697 0.0000 -8.2595 0.0000
# 4 0.0000 0.0000 0.0000 40.0486 0.0000 5.2068
# 5 -2.1209 5.0207 -8.2595 0.0000 38.9301 0.0000
# 6 0.0000 0.0000 0.0000 5.2068 0.0000 19.1899
#
#
#
# Elastic Compliance Matrix: (Units=1/GPa)
#
#
# Indices 1 2 3 4 5 6 
#
# 1 0.021556 -0.001826 -0.004401 0.000000 0.000476 0.000000
# 2 -0.001826 0.020925 -0.005878 0.000000 -0.004045 0.000000
# 3 -0.004401 -0.005878 0.010057 0.000000 0.002652 0.000000
# 4 0.000000 0.000000 0.000000 0.025883 0.000000 -0.007023
# 5 0.000476 -0.004045 0.002652 0.000000 0.026797 0.000000
# 6 0.000000 0.000000 0.000000 -0.007023 0.000000 0.054016
#
#
# Mechanical properties :
#
#
# Convention : Reuss Voigt Hill
#
# Bulk Modulus (GPa) = 35.30002 47.30025 41.30013
# Shear Modulus (GPa) = 25.92186 30.89411 28.40798
#
# Velocity S-wave (km/s) = 3.57670 3.90469 3.74429
# Velocity P-wave (km/s) = 5.87180 6.60849 6.25101
#
# Compressibility (1/GPa) = 0.02832860
#
# Stress axis : x y z
#
# Youngs Moduli (GPa) = 46.38998 47.78861 99.43749
#
# Poissons Ratio (x) = 0.08727 0.43764
# Poissons Ratio (y) = 0.08472 0.58445
# Poissons Ratio (z) = 0.20417 0.28088
#
# Static dielectric constant tensor:
#      x y z
#    x 1.754840 0.000000 -0.023580 
#    y 0.000000 1.770220 0.000000 
#    z -0.023580 0.000000 1.849000 
# 
# From -- ./inp_files/205347.got.cif
#   From: 2010.05.17/outbox.cif.g08.bks.cpg/sg15_103_cif.got.tgz:205347.got - 2010.06.03 18:47:42.
