data_PCOD9258068
_publ_section_title
;
Structure prediction by ZEFSAII (Michael W. Deem and Ramdas Pophale) SiO2 
 PCOD9258068
Probable space group: C 2/C
;
_chemical_formula_sum "Si O2"
_cell_formula_units_Z 48
_cell_length_a 16.183973
_cell_length_b 14.464387
_cell_length_c 13.036510
_cell_angle_alpha 90.000000
_cell_angle_beta 146.276491
_cell_angle_gamma 90.000000
_cell_volume 1694.278589
_symmetry_space_group_name_H-M "C 2/C"
_symmetry_group_IT_number 15
_symmetry_cell_setting 'monoclinic'
loop_
_space_group_symop_operation_xyz
x,y,z
-x,y,1/2-z
-x,-y,-z
x,-y,1/2+z
1/2+x,1/2+y,z
1/2-x,1/2+y,1/2-z
1/2-x,1/2-y,-z
1/2+x,1/2-y,1/2+z
loop_
_atom_site_type_symbol
_atom_site_label
_atom_site_fract_x
_atom_site_fract_y
_atom_site_fract_z
Si Si1 0.308749 0.318604 0.371804
Si Si2 0.000000 0.000000 0.000000
Si Si3 0.000000 0.208248 0.250000
Si Si4 0.952849 0.546485 0.845268
Si Si5 0.788890 0.935987 0.640229
Si Si6 0.332301 0.254117 0.975465
Si Si7 0.000000 0.911939 0.250000
Si Si8 0.500000 0.096648 0.250000
O O1 0.409206 0.407340 0.447737
O O2 0.404793 0.259778 0.552448
O O3 0.264636 0.259887 0.225707
O O4 0.158604 0.367670 0.260210
O O5 0.159001 0.051720 0.189569
O O6 0.131114 0.147920 0.332968
O O7 0.889954 0.465046 0.706580
O O8 0.112650 0.566137 0.958020
O O9 0.000000 0.500000 0.000000
O O10 0.570706 0.161552 0.409950
O O11 0.116125 0.023579 0.809284
O O12 0.250000 0.250000 0.000000
O O13 0.431110 0.345444 0.092314
#
# Coordination Sequence:
#
# PCOD9258068 Si02
#       8
#     8   4   4   8   8   8   4   4
#     4  11  22  38  62 101 143 197 252 309 385 442
#     4  10  18  32  58  90 142 182 236 302 370 440
#     4   9  22  39  66 100 145 195 248 326 376 451
#     4  12  21  37  65 101 146 185 236 320 381 444
#     4  10  20  39  63 105 145 190 243 300 392 445
#     4  11  23  40  62  98 150 200 245 294 361 460
#     4  10  22  40  66  98 158 208 240 300 366 468
#     4  11  22  37  60  98 141 179 232 296 370 431
#
# _framework density 28.330642000000001
#
# number of rings (size 3 to 8) (size 9 to 14) (size 15 to 20)
#    0.000    1.333    3.333    3.000    0.000    4.000 
#    0.000    0.000    0.000    0.000    0.000   19.833 
#    0.000    5.667    0.000    0.000    0.000    0.167 
#
# Total GULP energy -133856.021796 kJ/mol
# GULP energy per Si atom -5577.334242 kJ/mol
# Density = 2.826616 g / cm^3
# Si number density = 28.330642 Si / 1000 Ang^3
#
#
#
# Elastic Constant Matrix: (Units=GPa)
#
#
# Indices 1 2 3 4 5 6 
#
# 1 130.0756 69.3871 77.8235 0.0000 5.4264 0.0000
# 2 69.3871 147.4264 66.5336 0.0000 -6.7214 0.0000
# 3 77.8235 66.5336 224.3688 0.0000 -20.7438 0.0000
# 4 0.0000 0.0000 0.0000 28.3615 0.0000 5.9701
# 5 5.4264 -6.7214 -20.7438 0.0000 82.7201 0.0000
# 6 0.0000 0.0000 0.0000 5.9701 0.0000 41.2664
#
#
#
# Elastic Compliance Matrix: (Units=1/GPa)
#
#
# Indices 1 2 3 4 5 6 
#
# 1 0.011869 -0.004313 -0.003012 0.000000 -0.001884 0.000000
# 2 -0.004313 0.009398 -0.001223 0.000000 0.000740 0.000000
# 3 -0.003012 -0.001223 0.006013 0.000000 0.001606 0.000000
# 4 0.000000 0.000000 0.000000 0.036367 0.000000 -0.005261
# 5 -0.001884 0.000740 0.001606 0.000000 0.012675 0.000000
# 6 0.000000 0.000000 0.000000 -0.005261 0.000000 0.024994
#
#
# Mechanical properties :
#
#
# Convention : Reuss Voigt Hill
#
# Bulk Modulus (GPa) = 98.18267 103.26213 100.72240
# Shear Modulus (GPa) = 41.04857 49.67803 45.36330
#
# Velocity S-wave (km/s) = 3.81059 4.19203 4.00585
# Velocity P-wave (km/s) = 7.35472 7.74331 7.55152
#
# Compressibility (1/GPa) = 0.01018510
#
# Stress axis : x y z
#
# Youngs Moduli (GPa) = 84.25107 106.40086 166.31181
#
# Poissons Ratio (x) = 0.45889 0.50097
# Poissons Ratio (y) = 0.36336 0.20334
# Poissons Ratio (z) = 0.25378 0.13009
#
# Static dielectric constant tensor:
#      x y z
#    x 2.707750 0.000000 -0.372080 
#    y 0.000000 2.349000 0.000000 
#    z -0.372080 0.000000 2.513860 
# 
# From -- ./inp_files/163573.got.cif
#   From: 2010.05.17/outbox.cif.g08.bks.cpg/sg15_82_cif.got.tgz:163573.got - 2010.06.03 18:47:42.
