data_PCOD9258673
_publ_section_title
;
Structure prediction by ZEFSAII (Michael W. Deem and Ramdas Pophale) SiO2 
 PCOD9258673
Probable space group: C 2/C
;
_chemical_formula_sum "Si O2"
_cell_formula_units_Z 40
_cell_length_a 16.930193
_cell_length_b 18.550992
_cell_length_c 4.793401
_cell_angle_alpha 90.000000
_cell_angle_beta 76.393121
_cell_angle_gamma 90.000000
_cell_volume 1463.217986
_symmetry_space_group_name_H-M "C 2/C"
_symmetry_group_IT_number 15
_symmetry_cell_setting 'monoclinic'
loop_
_space_group_symop_operation_xyz
x,y,z
-x,y,1/2-z
-x,-y,-z
x,-y,1/2+z
1/2+x,1/2+y,z
1/2-x,1/2+y,1/2-z
1/2-x,1/2-y,-z
1/2+x,1/2-y,1/2+z
loop_
_atom_site_type_symbol
_atom_site_label
_atom_site_fract_x
_atom_site_fract_y
_atom_site_fract_z
Si Si1 0.500000 0.604147 0.250000
Si Si2 0.333270 0.409188 0.700638
Si Si3 0.413379 0.952518 0.751353
Si Si4 0.269383 0.896781 0.241270
Si Si5 0.500000 0.713514 0.750000
Si Si6 0.830960 0.747760 0.627005
O O1 0.578896 0.561033 0.291025
O O2 0.479725 0.658798 0.517547
O O3 0.309327 0.401716 0.398151
O O4 0.337189 0.323768 0.778798
O O5 0.263537 0.439974 0.962416
O O6 0.500000 0.918324 0.750000
O O7 0.412525 0.971424 0.426914
O O8 0.337748 0.915401 0.955420
O O9 0.310481 0.822841 0.321851
O O10 0.582136 0.756663 0.602714
O O11 0.750000 0.750000 0.500000
#
# Coordination Sequence:
#
# PCOD9258673 Si02
#       6
#     4   8   8   8   4   8
#     4  10  18  34  50  72 114 146 186 208 262 318
#     4  10  20  34  53  83 112 152 180 227 265 340
#     4  10  22  41  61  82 112 145 188 246 291 329
#     4  11  21  34  58  81 109 144 191 225 290 331
#     4  10  20  30  48  72 102 158 186 214 264 320
#     4   9  19  33  50  76 117 145 184 228 269 324
#
# _framework density 27.337007
#
# number of rings (size 3 to 8) (size 9 to 14) (size 15 to 20)
#    0.000    2.000    0.000    5.400    1.400    4.800 
#    0.000    0.000    2.200    0.000    0.000   14.000 
#    0.000    0.000    0.000    0.000    0.000    0.000 
#
# Total GULP energy -111649.099849 kJ/mol
# GULP energy per Si atom -5582.454992 kJ/mol
# Density = 2.727479 g / cm^3
# Si number density = 27.337007 Si / 1000 Ang^3
#
#
#
# Elastic Constant Matrix: (Units=GPa)
#
#
# Indices 1 2 3 4 5 6 
#
# 1 177.1969 2.1095 38.2257 0.0000 -30.5819 0.0000
# 2 2.1095 60.6694 -0.5445 0.0000 -5.0054 0.0000
# 3 38.2257 -0.5445 132.3961 0.0000 -6.8721 0.0000
# 4 0.0000 0.0000 0.0000 35.0678 0.0000 -10.0992
# 5 -30.5819 -5.0054 -6.8721 0.0000 70.9591 0.0000
# 6 0.0000 0.0000 0.0000 -10.0992 0.0000 20.5632
#
#
#
# Elastic Compliance Matrix: (Units=1/GPa)
#
#
# Indices 1 2 3 4 5 6 
#
# 1 0.006469 -0.000024 -0.001732 0.000000 0.002619 0.000000
# 2 -0.000024 0.016582 0.000136 0.000000 0.001172 0.000000
# 3 -0.001732 0.000136 0.008056 0.000000 0.000043 0.000000
# 4 0.000000 0.000000 0.000000 0.033214 0.000000 0.016312
# 5 0.002619 0.001172 0.000043 0.000000 0.015308 0.000000
# 6 0.000000 0.000000 0.000000 0.016312 0.000000 0.056642
#
#
# Mechanical properties :
#
#
# Convention : Reuss Voigt Hill
#
# Bulk Modulus (GPa) = 35.88583 49.98264 42.93424
# Shear Modulus (GPa) = 33.60204 47.34945 40.47575
#
# Velocity S-wave (km/s) = 3.50977 4.16632 3.85206
# Velocity P-wave (km/s) = 5.43878 6.43956 5.96021
#
# Compressibility (1/GPa) = 0.02786615
#
# Stress axis : x y z
#
# Youngs Moduli (GPa) = 154.57581 60.30793 124.13152
#
# Poissons Ratio (x) = 0.00147 0.21500
# Poissons Ratio (y) = 0.00378 -0.01689
# Poissons Ratio (z) = 0.26773 -0.00821
#
# Static dielectric constant tensor:
#      x y z
#    x 2.268640 0.000000 -0.027710 
#    y 0.000000 2.315870 0.000000 
#    z -0.027710 0.000000 2.100940 
# 
# From -- ./inp_files/7514.got.cif
#   From: 2010.05.17/outbox.cif.g08.bks.cpg/sg15_4_cif.got.tgz:7514.got - 2010.06.03 18:47:42.
