data_PCOD9258029
_publ_section_title
;
Structure prediction by ZEFSAII (Michael W. Deem and Ramdas Pophale) SiO2 
 PCOD9258029
Probable space group: C 2/C
;
_chemical_formula_sum "Si O2"
_cell_formula_units_Z 52
_cell_length_a 23.274179
_cell_length_b 6.327830
_cell_length_c 25.281985
_cell_angle_alpha 90.000000
_cell_angle_beta 136.720837
_cell_angle_gamma 90.000000
_cell_volume 2552.594216
_symmetry_space_group_name_H-M "C 2/C"
_symmetry_group_IT_number 15
_symmetry_cell_setting 'monoclinic'
loop_
_space_group_symop_operation_xyz
x,y,z
-x,y,1/2-z
-x,-y,-z
x,-y,1/2+z
1/2+x,1/2+y,z
1/2-x,1/2+y,1/2-z
1/2-x,1/2-y,-z
1/2+x,1/2-y,1/2+z
loop_
_atom_site_type_symbol
_atom_site_label
_atom_site_fract_x
_atom_site_fract_y
_atom_site_fract_z
Si Si1 0.643764 0.762470 0.815616
Si Si2 0.083885 0.939586 0.867844
Si Si3 0.000000 0.571244 0.750000
Si Si4 0.428689 0.382407 0.330471
Si Si5 0.035272 0.188943 0.059827
Si Si6 0.443725 0.075956 0.029097
Si Si7 0.700811 0.656429 0.016359
O O1 0.617912 0.581209 0.841325
O O2 0.647179 0.676342 0.758474
O O3 0.730012 0.869000 0.892176
O O4 0.567455 0.927930 0.765597
O O5 0.054062 0.716565 0.825642
O O6 0.001488 0.043185 0.838525
O O7 0.152886 0.953854 0.960480
O O8 0.411995 0.573023 0.359783
O O9 0.472075 0.191497 0.392238
O O10 0.963359 0.328401 0.040014
O O11 0.074337 0.346886 0.043075
O O12 0.000000 0.000000 0.000000
O O13 0.368468 0.171641 0.012679
O O14 0.750000 0.750000 0.000000
#
# Coordination Sequence:
#
# PCOD9258029 Si02
#       7
#     8   8   4   8   8   8   8
#     4  11  21  36  53  86 126 159 196 256 309 375
#     4  10  20  36  53  86 119 156 205 251 297 383
#     4  12  20  32  60  78 122 166 208 248 310 364
#     4  10  18  32  58  82 112 147 202 251 290 365
#     4   9  19  35  62  85 111 148 205 256 291 360
#     4   9  19  37  60  88 113 155 202 247 311 361
#     4   9  21  38  60  87 134 158 194 256 323 383
#
# _framework density 20.371431999999999
#
# number of rings (size 3 to 8) (size 9 to 14) (size 15 to 20)
#    0.000    2.154    3.077    0.000    2.154    0.615 
#    0.000    7.692   10.154    0.000    0.000    0.000 
#    0.000    0.000    0.000    0.000    0.000    0.000 
#
# Total GULP energy -144938.717851 kJ/mol
# GULP energy per Si atom -5574.566071 kJ/mol
# Density = 2.032507 g / cm^3
# Si number density = 20.371432 Si / 1000 Ang^3
#
#
#
# Elastic Constant Matrix: (Units=GPa)
#
#
# Indices 1 2 3 4 5 6 
#
# 1 45.0818 14.1388 18.7540 0.0007 -12.4710 0.0020
# 2 14.1388 88.4573 39.5595 -0.0001 -9.5121 0.0093
# 3 18.7540 39.5595 159.6124 0.0000 -14.4767 0.0004
# 4 0.0007 -0.0001 0.0000 22.2554 -0.0001 0.0731
# 5 -12.4710 -9.5121 -14.4767 -0.0001 27.2242 0.0005
# 6 0.0020 0.0093 0.0004 0.0731 0.0005 14.7730
#
#
#
# Elastic Compliance Matrix: (Units=1/GPa)
#
#
# Indices 1 2 3 4 5 6 
#
# 1 0.026481 -0.002408 -0.001566 -0.000001 0.010456 -0.000002
# 2 -0.002408 0.013156 -0.002796 0.000000 0.002007 -0.000008
# 3 -0.001566 -0.002796 0.007343 0.000000 0.002210 0.000002
# 4 -0.000001 0.000000 0.000000 0.044934 0.000000 -0.000222
# 5 0.010456 0.002007 0.002210 0.000000 0.043399 -0.000004
# 6 -0.000002 -0.000008 0.000002 -0.000222 -0.000004 0.067692
#
#
# Mechanical properties :
#
#
# Convention : Reuss Voigt Hill
#
# Bulk Modulus (GPa) = 29.90425 48.67288 39.28857
# Shear Modulus (GPa) = 21.95967 27.56380 24.76174
#
# Velocity S-wave (km/s) = 3.28680 3.68239 3.49020
# Velocity P-wave (km/s) = 5.39587 6.48264 5.96406
#
# Compressibility (1/GPa) = 0.03344006
#
# Stress axis : x y z
#
# Youngs Moduli (GPa) = 37.76262 76.01185 136.19192
#
# Poissons Ratio (x) = 0.18302 0.21332
# Poissons Ratio (y) = 0.09092 0.38075
# Poissons Ratio (z) = 0.05915 0.21251
#
# Static dielectric constant tensor:
#      x y z
#    x 1.736480 0.000000 -0.024140 
#    y 0.000000 1.773820 0.000000 
#    z -0.024140 0.000000 1.793380 
# 
# From -- ./inp_files/281230.got.cif
#   From: 2010.05.17/outbox.cif.g08.bks.cpg/sg15_141_cif.got.tgz:281230.got - 2010.06.03 18:47:42.
