data_PCOD9258474
_publ_section_title
;
Structure prediction by ZEFSAII (Michael W. Deem and Ramdas Pophale) SiO2 
 PCOD9258474
Probable space group: C 2/C
;
_chemical_formula_sum "Si O2"
_cell_formula_units_Z 60
_cell_length_a 20.266534
_cell_length_b 8.502304
_cell_length_c 15.413227
_cell_angle_alpha 90.000000
_cell_angle_beta 80.711145
_cell_angle_gamma 90.000000
_cell_volume 2621.061262
_symmetry_space_group_name_H-M "C 2/C"
_symmetry_group_IT_number 15
_symmetry_cell_setting 'monoclinic'
loop_
_space_group_symop_operation_xyz
x,y,z
-x,y,1/2-z
-x,-y,-z
x,-y,1/2+z
1/2+x,1/2+y,z
1/2-x,1/2+y,1/2-z
1/2-x,1/2-y,-z
1/2+x,1/2-y,1/2+z
loop_
_atom_site_type_symbol
_atom_site_label
_atom_site_fract_x
_atom_site_fract_y
_atom_site_fract_z
Si Si1 0.000000 0.851846 0.750000
Si Si2 0.122786 0.911236 0.222331
Si Si3 0.584008 0.155490 0.628819
Si Si4 0.802234 0.107850 0.437210
Si Si5 0.698812 0.790027 0.839579
Si Si6 0.296062 0.649940 0.082139
Si Si7 0.170736 0.640425 0.776778
Si Si8 0.853635 0.656601 0.412566
O O1 0.985266 0.741805 0.837242
O O2 0.936489 0.965738 0.753697
O O3 0.142869 0.824671 0.308036
O O4 0.105001 0.777240 0.155083
O O5 0.181582 0.998235 0.152971
O O6 0.635141 0.277246 0.576317
O O7 0.612229 0.127478 0.719967
O O8 0.598716 0.990618 0.580554
O O9 0.729309 0.177964 0.429782
O O10 0.806504 0.004863 0.522985
O O11 0.763043 0.697325 0.787374
O O12 0.679790 0.968061 0.815737
O O13 0.336144 0.711787 0.156206
O O14 0.217304 0.636470 0.124542
O O15 0.319926 0.781367 0.007707
#
# Coordination Sequence:
#
# PCOD9258474 Si02
#       8
#     4   8   8   8   8   8   8   8
#     4  10  24  40  56  80 112 160 216 248 290 322
#     4  10  18  35  55  81 114 156 193 246 291 345
#     4  10  21  37  59  86 115 154 209 254 269 339
#     4   9  20  33  56  89 125 154 180 233 310 362
#     4  11  17  31  53  88 119 149 182 244 298 350
#     4  10  19  35  57  92 130 156 175 222 325 389
#     4  11  19  32  58  89 124 146 187 241 304 359
#     4  10  18  33  57  85 118 153 189 232 298 361
#
# _framework density 22.891492
#
# number of rings (size 3 to 8) (size 9 to 14) (size 15 to 20)
#    0.000    1.867    4.000    1.600    0.000    1.067 
#    0.000    1.333    0.000    8.000    0.000    0.000 
#    0.000    0.000    0.000    0.000    0.000    0.000 
#
# Total GULP energy -167107.998709 kJ/mol
# GULP energy per Si atom -5570.266624 kJ/mol
# Density = 2.283939 g / cm^3
# Si number density = 22.891492 Si / 1000 Ang^3
#
#
#
# Elastic Constant Matrix: (Units=GPa)
#
#
# Indices 1 2 3 4 5 6 
#
# 1 43.0783 19.5180 22.9688 0.0000 -15.9350 0.0000
# 2 19.5180 140.7918 19.0139 0.0000 -23.7411 0.0000
# 3 22.9688 19.0139 73.9976 0.0000 -8.9251 0.0000
# 4 0.0000 0.0000 0.0000 40.6959 0.0000 -3.2334
# 5 -15.9350 -23.7411 -8.9251 0.0000 34.5538 0.0000
# 6 0.0000 0.0000 0.0000 -3.2334 0.0000 34.5782
#
#
#
# Elastic Compliance Matrix: (Units=1/GPa)
#
#
# Indices 1 2 3 4 5 6 
#
# 1 0.032731 -0.001388 -0.008358 0.000000 0.011982 0.000000
# 2 -0.001388 0.008245 -0.001116 0.000000 0.004736 0.000000
# 3 -0.008358 -0.001116 0.016347 0.000000 -0.000399 0.000000
# 4 0.000000 0.000000 0.000000 0.024756 0.000000 0.002315
# 5 0.011982 0.004736 -0.000399 0.000000 0.037617 0.000000
# 6 0.000000 0.000000 0.000000 0.002315 0.000000 0.029136
#
#
# Mechanical properties :
#
#
# Convention : Reuss Voigt Hill
#
# Bulk Modulus (GPa) = 28.09183 42.31880 35.20532
# Shear Modulus (GPa) = 27.40885 35.05670 31.23277
#
# Velocity S-wave (km/s) = 3.46401 3.91759 3.69776
# Velocity P-wave (km/s) = 5.31954 6.24421 5.80033
#
# Compressibility (1/GPa) = 0.03559754
#
# Stress axis : x y z
#
# Youngs Moduli (GPa) = 30.55215 121.29258 61.17361
#
# Poissons Ratio (x) = 0.16840 0.51128
# Poissons Ratio (y) = 0.04242 0.06829
# Poissons Ratio (z) = 0.25535 0.13540
#
# Static dielectric constant tensor:
#      x y z
#    x 1.885760 0.000000 0.058310 
#    y 0.000000 2.013500 0.000000 
#    z 0.058310 0.000000 1.970600 
# 
# From -- ./inp_files/218222.got.cif
#   From: 2010.05.17/outbox.cif.g08.bks.cpg/sg15_110_cif.got.tgz:218222.got - 2010.06.03 18:47:42.
