data_PCOD9258439
_publ_section_title
;
Structure prediction by ZEFSAII (Michael W. Deem and Ramdas Pophale) SiO2 
 PCOD9258439
Probable space group: C 2/C
;
_chemical_formula_sum "Si O2"
_cell_formula_units_Z 52
_cell_length_a 31.735943
_cell_length_b 9.021224
_cell_length_c 14.386997
_cell_angle_alpha 90.000000
_cell_angle_beta 141.430080
_cell_angle_gamma 90.000000
_cell_volume 2568.041527
_symmetry_space_group_name_H-M "C 2/C"
_symmetry_group_IT_number 15
_symmetry_cell_setting 'monoclinic'
loop_
_space_group_symop_operation_xyz
x,y,z
-x,y,1/2-z
-x,-y,-z
x,-y,1/2+z
1/2+x,1/2+y,z
1/2-x,1/2+y,1/2-z
1/2-x,1/2-y,-z
1/2+x,1/2-y,1/2+z
loop_
_atom_site_type_symbol
_atom_site_label
_atom_site_fract_x
_atom_site_fract_y
_atom_site_fract_z
Si Si1 0.395086 0.624080 0.421315
Si Si2 0.784650 0.785682 0.863121
Si Si3 0.110536 0.623458 0.322865
Si Si4 0.162020 0.835992 0.250705
Si Si5 0.500000 0.720518 0.750000
Si Si6 0.279054 0.547372 0.991505
Si Si7 0.636774 0.188806 0.797770
O O1 0.321033 0.680635 0.329028
O O2 0.390229 0.456848 0.376878
O O3 0.445772 0.632710 0.594781
O O4 0.409348 0.737103 0.361371
O O5 0.709004 0.726932 0.749266
O O6 0.785727 0.945266 0.914227
O O7 0.832491 0.673210 0.003853
O O8 0.130204 0.708097 0.260701
O O9 0.042005 0.684514 0.248518
O O10 0.105768 0.448637 0.298672
O O11 0.208250 0.934577 0.400655
O O12 0.205551 0.617612 0.874350
O O13 0.335273 0.674708 0.093200
#
# Coordination Sequence:
#
# PCOD9258439 Si02
#       7
#     8   8   8   8   4   8   8
#     4  10  24  35  56  83 120 155 199 237 287 349
#     4  10  18  34  54  89 122 147 177 241 300 353
#     4  10  19  37  63  79 117 152 197 237 294 345
#     4  10  18  34  58  89 110 153 185 238 303 353
#     4  10  24  44  54  78 114 168 208 250 274 336
#     4   9  17  31  54  85 123 138 177 223 304 364
#     4  10  18  33  56  89 109 156 179 235 292 356
#
# _framework density 20.248894
#
# number of rings (size 3 to 8) (size 9 to 14) (size 15 to 20)
#    0.000    2.154    3.077    0.923    2.154    1.231 
#    0.000    3.077    0.000   15.692    0.000    0.000 
#    0.000    0.000    0.000    0.000    0.000    0.000 
#
# Total GULP energy -145039.103350 kJ/mol
# GULP energy per Si atom -5578.427052 kJ/mol
# Density = 2.020281 g / cm^3
# Si number density = 20.248894 Si / 1000 Ang^3
#
#
#
# Elastic Constant Matrix: (Units=GPa)
#
#
# Indices 1 2 3 4 5 6 
#
# 1 27.0279 5.8030 -1.9521 0.0000 9.3619 0.0000
# 2 5.8030 105.3922 11.9579 0.0000 -7.7629 0.0000
# 3 -1.9521 11.9579 42.9352 0.0000 -2.0772 0.0000
# 4 0.0000 0.0000 0.0000 5.9265 0.0000 -4.3909
# 5 9.3619 -7.7629 -2.0772 0.0000 18.3071 0.0000
# 6 0.0000 0.0000 0.0000 -4.3909 0.0000 1.9972
#
#
#
# Elastic Compliance Matrix: (Units=1/GPa)
#
#
# Indices 1 2 3 4 5 6 
#
# 1 0.047140 -0.004752 0.002215 0.000000 -0.025871 0.000000
# 2 -0.004752 0.010557 -0.002838 0.000000 0.006585 0.000000
# 3 0.002215 -0.002838 0.024202 0.000000 0.000410 0.000000
# 4 0.000000 0.000000 0.000000 -0.268285 0.000000 -0.589847
# 5 -0.025871 0.006585 0.000410 0.000000 0.070692 0.000000
# 6 0.000000 0.000000 0.000000 -0.589847 0.000000 -0.796122
#
#
# Mechanical properties :
#
#
# Convention : Reuss Voigt Hill
#
# Bulk Modulus (GPa) = 14.05497 22.99699 18.52598
# Shear Modulus (GPa) = -5.69898 15.88259 5.09180
#
# Velocity S-wave (km/s) = -1.67946 2.80370 1.58747
# Velocity P-wave (km/s) = 1.78757 4.67576 3.53964
#
# Compressibility (1/GPa) = 0.07114919
#
# Stress axis : x y z
#
# Youngs Moduli (GPa) = 21.21329 94.72354 41.31920
#
# Poissons Ratio (x) = 0.45017 -0.09153
# Poissons Ratio (y) = 0.10082 0.11725
# Poissons Ratio (z) = -0.04699 0.26880
#
# Static dielectric constant tensor:
#      x y z
#    x 1.725770 0.000000 -0.001800 
#    y 0.000000 1.706890 0.000000 
#    z -0.001800 0.000000 1.748210 
# 
# From -- ./inp_files/181212.got.cif
#   From: 2010.05.17/outbox.cif.g08.bks.cpg/sg15_91_cif.got.tgz:181212.got - 2010.06.03 18:47:42.
