data_PCOD9258711
_publ_section_title
;
Structure prediction by ZEFSAII (Michael W. Deem and Ramdas Pophale) SiO2 
 PCOD9258711
Probable space group: C 2/C
;
_chemical_formula_sum "Si O2"
_cell_formula_units_Z 60
_cell_length_a 6.344265
_cell_length_b 28.263427
_cell_length_c 21.069532
_cell_angle_alpha 90.000000
_cell_angle_beta 79.270610
_cell_angle_gamma 90.000000
_cell_volume 3711.942903
_symmetry_space_group_name_H-M "C 2/C"
_symmetry_group_IT_number 15
_symmetry_cell_setting 'monoclinic'
loop_
_space_group_symop_operation_xyz
x,y,z
-x,y,1/2-z
-x,-y,-z
x,-y,1/2+z
1/2+x,1/2+y,z
1/2-x,1/2+y,1/2-z
1/2-x,1/2-y,-z
1/2+x,1/2-y,1/2+z
loop_
_atom_site_type_symbol
_atom_site_label
_atom_site_fract_x
_atom_site_fract_y
_atom_site_fract_z
Si Si1 0.366757 0.698911 0.698971
Si Si2 0.586995 0.573159 0.993633
Si Si3 0.500000 0.874338 0.250000
Si Si4 0.038995 0.184273 0.006904
Si Si5 0.223593 0.490986 0.451134
Si Si6 0.118765 0.738755 0.601757
Si Si7 0.010180 0.420760 0.385343
Si Si8 0.253574 0.672220 0.910286
O O1 0.500000 0.719755 0.750000
O O2 0.236843 0.736075 0.662727
O O3 0.528484 0.671249 0.642529
O O4 0.204050 0.660229 0.735626
O O5 0.561879 0.628019 0.011296
O O6 0.376787 0.547212 0.977616
O O7 0.776987 0.571705 0.930112
O O8 0.657370 0.540969 0.049394
O O9 0.497935 0.905130 0.313611
O O10 0.226319 0.208395 0.953922
O O11 0.821868 0.189530 0.976814
O O12 0.061799 0.211740 0.071852
O O13 0.000000 0.500000 0.500000
O O14 0.153313 0.467196 0.389470
O O15 0.899764 0.709525 0.615271
O O16 0.128526 0.377272 0.415149
#
# Coordination Sequence:
#
# PCOD9258711 Si02
#       8
#     8   8   4   8   8   8   8   8
#     4  11  20  32  47  69 104 142 172 206 255 312
#     4  10  18  34  53  73 104 137 169 213 261 310
#     4  12  22  32  50  74 108 140 170 208 260 322
#     4  10  19  30  51  72 102 139 170 210 260 304
#     4   9  20  33  50  74 101 134 173 213 260 313
#     4  10  20  32  44  75 107 135 172 214 250 311
#     4  11  19  31  50  76 106 136 168 209 257 320
#     4  11  18  31  48  71 106 137 168 206 255 310
#
# _framework density 16.164041999999998
#
# number of rings (size 3 to 8) (size 9 to 14) (size 15 to 20)
#    0.000    1.600    5.333    1.200    0.000    0.000 
#    0.000    0.000    0.000    0.000    1.733    0.000 
#    8.000    0.000    0.000    0.000    0.000    0.000 
#
# Total GULP energy -167084.269841 kJ/mol
# GULP energy per Si atom -5569.475661 kJ/mol
# Density = 1.612725 g / cm^3
# Si number density = 16.164042 Si / 1000 Ang^3
#
#
#
# Elastic Constant Matrix: (Units=GPa)
#
#
# Indices 1 2 3 4 5 6 
#
# 1 97.2226 36.7629 38.9078 0.0000 15.6403 0.0000
# 2 36.7629 85.9143 39.1302 0.0000 21.0006 0.0000
# 3 38.9078 39.1302 77.0156 0.0000 26.8527 0.0000
# 4 0.0000 0.0000 0.0000 24.7818 0.0000 9.8143
# 5 15.6403 21.0006 26.8527 0.0000 33.7155 0.0000
# 6 0.0000 0.0000 0.0000 9.8143 0.0000 26.5407
#
#
#
# Elastic Compliance Matrix: (Units=1/GPa)
#
#
# Indices 1 2 3 4 5 6 
#
# 1 0.013663 -0.003505 -0.005085 0.000000 -0.000105 0.000000
# 2 -0.003505 0.016570 -0.005007 0.000000 -0.004708 0.000000
# 3 -0.005085 -0.005007 0.022411 0.000000 -0.012371 0.000000
# 4 0.000000 0.000000 0.000000 0.047276 0.000000 -0.017482
# 5 -0.000105 -0.004708 -0.012371 0.000000 0.042494 0.000000
# 6 0.000000 0.000000 0.000000 -0.017482 0.000000 0.044142
#
#
# Mechanical properties :
#
#
# Convention : Reuss Voigt Hill
#
# Bulk Modulus (GPa) = 39.29245 54.41713 46.85479
# Shear Modulus (GPa) = 22.49888 26.69771 24.59829
#
# Velocity S-wave (km/s) = 3.73488 4.06849 3.90525
# Velocity P-wave (km/s) = 6.55442 7.47053 7.02742
#
# Compressibility (1/GPa) = 0.02545018
#
# Stress axis : x y z
#
# Youngs Moduli (GPa) = 73.19142 60.34848 44.62117
#
# Poissons Ratio (x) = 0.21150 0.22690
# Poissons Ratio (y) = 0.25651 0.22343
# Poissons Ratio (z) = 0.37218 0.30218
#
# Static dielectric constant tensor:
#      x y z
#    x 1.593520 0.000000 0.016310 
#    y 0.000000 1.540060 0.000000 
#    z 0.016310 0.000000 1.549740 
# 
# From -- ./inp_files/228460.got.cif
#   From: 2010.05.17/outbox.cif.g08.bks.cpg/sg15_115_cif.got.tgz:228460.got - 2010.06.03 18:47:42.
