data_PCOD9258597
_publ_section_title
;
Structure prediction by ZEFSAII (Michael W. Deem and Ramdas Pophale) SiO2 
 PCOD9258597
Probable space group: C 2/C
;
_chemical_formula_sum "Si O2"
_cell_formula_units_Z 56
_cell_length_a 14.764735
_cell_length_b 12.614692
_cell_length_c 16.851350
_cell_angle_alpha 90.000000
_cell_angle_beta 133.148325
_cell_angle_gamma 90.000000
_cell_volume 2289.883215
_symmetry_space_group_name_H-M "C 2/C"
_symmetry_group_IT_number 15
_symmetry_cell_setting 'monoclinic'
loop_
_space_group_symop_operation_xyz
x,y,z
-x,y,1/2-z
-x,-y,-z
x,-y,1/2+z
1/2+x,1/2+y,z
1/2-x,1/2+y,1/2-z
1/2-x,1/2-y,-z
1/2+x,1/2-y,1/2+z
loop_
_atom_site_type_symbol
_atom_site_label
_atom_site_fract_x
_atom_site_fract_y
_atom_site_fract_z
Si Si1 0.609671 0.456630 0.674460
Si Si2 0.500000 0.230448 0.750000
Si Si3 0.206573 0.894165 0.469149
Si Si4 0.041228 0.361841 0.945524
Si Si5 0.734756 0.616864 0.396433
Si Si6 0.500000 0.591541 0.750000
Si Si7 0.496983 0.356471 0.467659
Si Si8 0.016575 0.603982 0.603314
O O1 0.721208 0.413264 0.794422
O O2 0.533702 0.514911 0.698266
O O3 0.534801 0.365885 0.582560
O O4 0.608883 0.555497 0.612555
O O5 0.378668 0.302154 0.656940
O O6 0.544631 0.158187 0.703223
O O7 0.342939 0.848538 0.543534
O O8 0.118922 0.845312 0.347878
O O9 0.129338 0.884127 0.503473
O O10 0.219877 0.015221 0.445337
O O11 0.963472 0.253981 0.905784
O O12 0.091553 0.372328 0.067265
O O13 0.984551 0.475979 0.891131
O O14 0.876963 0.645338 0.498190
#
# Coordination Sequence:
#
# PCOD9258597 Si02
#       8
#     8   4   8   8   8   4   8   8
#     4   9  18  32  57  93 120 143 196 256 300 355
#     4  12  21  40  69  92 114 152 213 276 307 352
#     4   9  18  34  57  85 118 155 196 243 301 369
#     4  10  21  40  57  77 127 170 191 238 307 377
#     4  10  20  40  65  89 122 159 195 259 326 358
#     4   8  15  32  53  82 120 154 193 254 313 348
#     4  10  18  33  60  93 117 152 203 252 301 354
#     4  10  24  42  60  88 122 163 209 243 306 385
#
# _framework density 24.455393999999998
#
# number of rings (size 3 to 8) (size 9 to 14) (size 15 to 20)
#    0.000    2.286    0.000    4.286    0.000    1.143 
#    0.000   28.571    0.000    0.000    0.000    0.000 
#    0.000    0.000    0.000    0.000    0.000    0.000 
#
# Total GULP energy -155979.414178 kJ/mol
# GULP energy per Si atom -5570.693363 kJ/mol
# Density = 2.439973 g / cm^3
# Si number density = 24.455394 Si / 1000 Ang^3
#
#
#
# Elastic Constant Matrix: (Units=GPa)
#
#
# Indices 1 2 3 4 5 6 
#
# 1 83.7585 28.0313 11.5085 0.0000 -10.2725 0.0000
# 2 28.0313 145.1520 28.1340 0.0000 -8.3050 0.0000
# 3 11.5085 28.1340 54.1865 0.0000 -18.9915 0.0000
# 4 0.0000 0.0000 0.0000 32.8645 0.0000 -7.0399
# 5 -10.2725 -8.3050 -18.9915 0.0000 34.1627 0.0000
# 6 0.0000 0.0000 0.0000 -7.0399 0.0000 25.8141
#
#
#
# Elastic Compliance Matrix: (Units=1/GPa)
#
#
# Indices 1 2 3 4 5 6 
#
# 1 0.013149 -0.002259 -0.000530 0.000000 0.003110 0.000000
# 2 -0.002259 0.008053 -0.004041 0.000000 -0.000968 0.000000
# 3 -0.000530 -0.004041 0.025169 0.000000 0.012850 0.000000
# 4 0.000000 0.000000 0.000000 0.032316 0.000000 0.008813
# 5 0.003110 -0.000968 0.012850 0.000000 0.037115 0.000000
# 6 0.000000 0.000000 0.000000 0.008813 0.000000 0.041142
#
#
# Mechanical properties :
#
#
# Convention : Reuss Voigt Hill
#
# Bulk Modulus (GPa) = 30.56902 46.49385 38.53143
# Shear Modulus (GPa) = 27.54702 32.92981 30.23842
#
# Velocity S-wave (km/s) = 3.35986 3.67348 3.52017
# Velocity P-wave (km/s) = 5.25153 6.08651 5.68437
#
# Compressibility (1/GPa) = 0.03271286
#
# Stress axis : x y z
#
# Youngs Moduli (GPa) = 76.04994 124.17176 39.73126
#
# Poissons Ratio (x) = 0.28046 0.02105
# Poissons Ratio (y) = 0.17177 0.16055
# Poissons Ratio (z) = 0.04030 0.50176
#
# Static dielectric constant tensor:
#      x y z
#    x 1.999530 0.000000 0.043660 
#    y 0.000000 2.088690 0.000000 
#    z 0.043660 0.000000 2.056710 
# 
# From -- ./inp_files/210707.got.cif
#   From: 2010.05.17/outbox.cif.g08.bks.cpg/sg15_106_cif.got.tgz:210707.got - 2010.06.03 18:47:42.
