data_PCOD9258784
_publ_section_title
;
Structure prediction by ZEFSAII (Michael W. Deem and Ramdas Pophale) SiO2 
 PCOD9258784
Probable space group: C 2/C
;
_chemical_formula_sum "Si O2"
_cell_formula_units_Z 60
_cell_length_a 10.579670
_cell_length_b 11.230120
_cell_length_c 24.812747
_cell_angle_alpha 90.000000
_cell_angle_beta 75.402803
_cell_angle_gamma 90.000000
_cell_volume 2852.868515
_symmetry_space_group_name_H-M "C 2/C"
_symmetry_group_IT_number 15
_symmetry_cell_setting 'monoclinic'
loop_
_space_group_symop_operation_xyz
x,y,z
-x,y,1/2-z
-x,-y,-z
x,-y,1/2+z
1/2+x,1/2+y,z
1/2-x,1/2+y,1/2-z
1/2-x,1/2-y,-z
1/2+x,1/2-y,1/2+z
loop_
_atom_site_type_symbol
_atom_site_label
_atom_site_fract_x
_atom_site_fract_y
_atom_site_fract_z
Si Si1 0.500000 0.720959 0.250000
Si Si2 0.740447 0.284531 0.562795
Si Si3 0.721336 0.170481 0.285056
Si Si4 0.817986 0.646317 0.333785
Si Si5 0.541717 0.775358 0.366614
Si Si6 0.549195 0.384235 0.181965
Si Si7 0.175598 0.502088 0.380553
Si Si8 0.198044 0.901259 0.353707
O O1 0.374141 0.637807 0.269766
O O2 0.523955 0.789910 0.303586
O O3 0.750000 0.250000 0.500000
O O4 0.589597 0.284577 0.598072
O O5 0.800712 0.413202 0.570931
O O6 0.805729 0.181928 0.593216
O O7 0.669149 0.148911 0.232039
O O8 0.731909 0.308165 0.301936
O O9 0.645312 0.093257 0.335928
O O10 0.673671 0.700450 0.361370
O O11 0.924232 0.745698 0.339022
O O12 0.800544 0.508044 0.351151
O O13 0.567962 0.900004 0.393600
O O14 0.500000 0.385502 0.250000
O O15 0.689627 0.441121 0.153994
O O16 0.442017 0.443303 0.153952
#
# Coordination Sequence:
#
# PCOD9258784 Si02
#       8
#     4   8   8   8   8   8   8   8
#     4  10  18  34  54  88 128 162 200 238 312 390
#     4  11  25  46  64  86 117 162 224 274 318 370
#     4  10  20  33  52  89 124 169 198 235 302 386
#     4  10  22  36  57  90 132 166 202 245 312 389
#     4  10  21  39  62  90 122 164 207 255 320 383
#     4  11  21  37  58  94 134 166 197 250 317 392
#     4  10  22  37  62  86 117 163 211 255 312 376
#     4  11  22  38  57  89 125 162 210 252 318 370
#
# _framework density 21.031462999999999
#
# number of rings (size 3 to 8) (size 9 to 14) (size 15 to 20)
#    0.000    1.600    4.000    1.600    6.533    2.667 
#    1.200    2.667    0.000    3.200    0.000    0.000 
#    0.000    0.000    0.000    0.000    0.000    0.000 
#
# Total GULP energy -167334.651352 kJ/mol
# GULP energy per Si atom -5577.821712 kJ/mol
# Density = 2.098359 g / cm^3
# Si number density = 21.031463 Si / 1000 Ang^3
#
#
#
# Elastic Constant Matrix: (Units=GPa)
#
#
# Indices 1 2 3 4 5 6 
#
# 1 49.0818 10.4782 8.8865 0.0000 3.8118 0.0000
# 2 10.4782 113.3456 9.5358 0.0000 11.5517 0.0000
# 3 8.8865 9.5358 77.1064 0.0000 16.4526 0.0000
# 4 0.0000 0.0000 0.0000 13.2145 0.0000 0.5418
# 5 3.8118 11.5517 16.4526 0.0000 15.7127 0.0000
# 6 0.0000 0.0000 0.0000 0.5418 0.0000 34.2437
#
#
#
# Elastic Compliance Matrix: (Units=1/GPa)
#
#
# Indices 1 2 3 4 5 6 
#
# 1 0.021203 -0.001596 -0.001802 0.000000 -0.002084 0.000000
# 2 -0.001596 0.009667 0.000544 0.000000 -0.007289 0.000000
# 3 -0.001802 0.000544 0.016871 0.000000 -0.017628 0.000000
# 4 0.000000 0.000000 0.000000 0.075724 0.000000 -0.001198
# 5 -0.002084 -0.007289 -0.017628 0.000000 0.087965 0.000000
# 6 0.000000 0.000000 0.000000 -0.001198 0.000000 0.029221
#
#
# Mechanical properties :
#
#
# Convention : Reuss Voigt Hill
#
# Bulk Modulus (GPa) = 23.79084 33.03721 28.41402
# Shear Modulus (GPa) = 19.20342 26.67641 22.93991
#
# Velocity S-wave (km/s) = 3.02500 3.56533 3.30622
# Velocity P-wave (km/s) = 4.85154 5.71763 5.30230
#
# Compressibility (1/GPa) = 0.04203299
#
# Stress axis : x y z
#
# Youngs Moduli (GPa) = 47.16334 103.44176 59.27386
#
# Poissons Ratio (x) = 0.16511 0.10679
# Poissons Ratio (y) = 0.07528 -0.03223
# Poissons Ratio (z) = 0.08497 -0.05625
#
# Static dielectric constant tensor:
#      x y z
#    x 1.870640 0.000000 -0.032220 
#    y 0.000000 1.873910 0.000000 
#    z -0.032220 0.000000 1.710330 
# 
# From -- ./inp_files/268775.got.cif
#   From: 2010.05.17/outbox.cif.g08.bks.cpg/sg15_135_cif.got.tgz:268775.got - 2010.06.03 18:47:42.
