data_PCOD9258569
_publ_section_title
;
Structure prediction by ZEFSAII (Michael W. Deem and Ramdas Pophale) SiO2 
 PCOD9258569
Probable space group: C 2/C
;
_chemical_formula_sum "Si O2"
_cell_formula_units_Z 60
_cell_length_a 23.726877
_cell_length_b 9.380796
_cell_length_c 21.601204
_cell_angle_alpha 90.000000
_cell_angle_beta 35.769816
_cell_angle_gamma 90.000000
_cell_volume 2810.381449
_symmetry_space_group_name_H-M "C 2/C"
_symmetry_group_IT_number 15
_symmetry_cell_setting 'monoclinic'
loop_
_space_group_symop_operation_xyz
x,y,z
-x,y,1/2-z
-x,-y,-z
x,-y,1/2+z
1/2+x,1/2+y,z
1/2-x,1/2+y,1/2-z
1/2-x,1/2-y,-z
1/2+x,1/2-y,1/2+z
loop_
_atom_site_type_symbol
_atom_site_label
_atom_site_fract_x
_atom_site_fract_y
_atom_site_fract_z
Si Si1 0.143188 0.157199 0.021411
Si Si2 0.214999 0.008326 0.349536
Si Si3 0.251423 0.833594 0.198936
Si Si4 0.868259 0.466926 0.511380
Si Si5 0.243672 0.052311 0.507262
Si Si6 0.000000 0.729863 0.750000
Si Si7 0.362245 0.265503 0.319743
Si Si8 0.927236 0.507706 0.721095
O O1 0.054427 0.185136 0.147156
O O2 0.225522 0.099048 0.993277
O O3 0.140995 0.036388 0.969942
O O4 0.165683 0.303963 0.965940
O O5 0.207473 0.897256 0.300210
O O6 0.324875 0.990689 0.277774
O O7 0.207235 0.172613 0.334510
O O8 0.171682 0.825210 0.215682
O O9 0.329932 0.946772 0.103994
O O10 0.821839 0.542960 0.492121
O O11 0.983152 0.464041 0.403498
O O12 0.279528 0.162006 0.423276
O O13 0.142874 0.107281 0.626864
O O14 0.068416 0.622217 0.727693
O O15 0.444227 0.150885 0.234266
#
# Coordination Sequence:
#
# PCOD9258569 Si02
#       8
#     8   8   8   8   8   4   8   8
#     4  11  21  38  58  91 124 162 193 259 298 369
#     4  11  23  39  67  83 123 161 217 245 306 360
#     4  10  21  41  58  92 111 164 209 253 294 370
#     4  10  22  35  64  89 126 152 205 248 314 358
#     4  10  18  33  59  92 119 157 197 254 303 367
#     4  10  24  38  58  94 132 150 208 244 326 362
#     4   9  18  35  57  87 121 152 206 248 300 363
#     4  10  20  37  59  92 119 163 196 252 298 377
#
# _framework density 21.349416000000002
#
# number of rings (size 3 to 8) (size 9 to 14) (size 15 to 20)
#    0.000    1.867    2.667    2.800    1.867    0.533 
#    2.400    1.333    0.000    6.400    0.000    0.000 
#    0.000    0.000    0.000    0.000    0.000    0.000 
#
# Total GULP energy -167219.411670 kJ/mol
# GULP energy per Si atom -5573.980389 kJ/mol
# Density = 2.130082 g / cm^3
# Si number density = 21.349416 Si / 1000 Ang^3
#
#
#
# Elastic Constant Matrix: (Units=GPa)
#
#
# Indices 1 2 3 4 5 6 
#
# 1 36.0529 9.5250 13.8780 -0.0001 13.0750 0.0000
# 2 9.5250 113.8613 31.1452 -0.0002 10.0829 -0.0001
# 3 13.8780 31.1452 88.4145 0.0000 20.3393 0.0000
# 4 -0.0001 -0.0002 0.0000 38.9400 0.0000 8.0886
# 5 13.0750 10.0829 20.3393 0.0000 30.7367 0.0000
# 6 0.0000 -0.0001 0.0000 8.0886 0.0000 19.5782
#
#
#
# Elastic Compliance Matrix: (Units=1/GPa)
#
#
# Indices 1 2 3 4 5 6 
#
# 1 0.033328 -0.001147 -0.001949 0.000000 -0.012511 0.000000
# 2 -0.001147 0.009790 -0.003116 0.000000 -0.000661 0.000000
# 3 -0.001949 -0.003116 0.014495 0.000000 -0.007740 0.000000
# 4 0.000000 0.000000 0.000000 0.028091 0.000000 -0.011606
# 5 -0.012511 -0.000661 -0.007740 0.000000 0.043195 0.000000
# 6 0.000000 0.000000 0.000000 -0.011606 0.000000 0.055872
#
#
# Mechanical properties :
#
#
# Convention : Reuss Voigt Hill
#
# Bulk Modulus (GPa) = 22.13021 38.60279 30.36650
# Shear Modulus (GPa) = 23.55630 30.10302 26.82966
#
# Velocity S-wave (km/s) = 3.32530 3.75909 3.54883
# Velocity P-wave (km/s) = 5.01316 6.07961 5.57196
#
# Compressibility (1/GPa) = 0.04518710
#
# Stress axis : x y z
#
# Youngs Moduli (GPa) = 30.00507 102.14970 68.99098
#
# Poissons Ratio (x) = 0.11716 0.13447
# Poissons Ratio (y) = 0.03441 0.21500
# Poissons Ratio (z) = 0.05848 0.31833
#
# Static dielectric constant tensor:
#      x y z
#    x 1.772510 0.000000 0.009480 
#    y 0.000000 1.857420 0.000000 
#    z 0.009480 0.000000 1.824950 
# 
# From -- ./inp_files/255147.got.cif
#   From: 2010.05.17/outbox.cif.g08.bks.cpg/sg15_128_cif.got.tgz:255147.got - 2010.06.03 18:47:42.
