data_PCOD9258552
_publ_section_title
;
Structure prediction by ZEFSAII (Michael W. Deem and Ramdas Pophale) SiO2 
 PCOD9258552
Probable space group: C 2/C
;
_chemical_formula_sum "Si O2"
_cell_formula_units_Z 48
_cell_length_a 12.925668
_cell_length_b 17.597225
_cell_length_c 16.441437
_cell_angle_alpha 90.000000
_cell_angle_beta 142.307919
_cell_angle_gamma 90.000000
_cell_volume 2286.519699
_symmetry_space_group_name_H-M "C 2/C"
_symmetry_group_IT_number 15
_symmetry_cell_setting 'monoclinic'
loop_
_space_group_symop_operation_xyz
x,y,z
-x,y,1/2-z
-x,-y,-z
x,-y,1/2+z
1/2+x,1/2+y,z
1/2-x,1/2+y,1/2-z
1/2-x,1/2-y,-z
1/2+x,1/2-y,1/2+z
loop_
_atom_site_type_symbol
_atom_site_label
_atom_site_fract_x
_atom_site_fract_y
_atom_site_fract_z
Si Si1 0.862152 0.106847 0.795455
Si Si2 0.524913 0.665529 0.179309
Si Si3 0.319116 0.725822 0.911582
Si Si4 0.755303 0.133737 0.451771
Si Si5 0.665047 0.540932 0.144509
Si Si6 0.632060 0.802270 0.030592
O O1 0.845973 0.155026 0.868310
O O2 0.764224 0.153536 0.667461
O O3 0.062506 0.105141 0.899747
O O4 0.775935 0.026115 0.759702
O O5 0.500000 0.623479 0.250000
O O6 0.642240 0.735869 0.279677
O O7 0.614129 0.611407 0.169376
O O8 0.362774 0.696343 0.028922
O O9 0.459407 0.787784 0.971284
O O10 0.722305 0.074524 0.358578
O O11 0.622081 0.151174 0.439949
O O12 0.794902 0.217854 0.441165
O O13 0.500000 0.500000 0.000000
#
# Coordination Sequence:
#
# PCOD9258552 Si02
#       6
#     8   8   8   8   8   8
#     4  10  18  34  61  83 125 156 191 241 300 351
#     4  12  24  41  65  88 115 160 210 252 294 362
#     4  11  21  41  64  88 119 154 203 258 299 348
#     4   9  18  31  55  89 117 151 198 241 289 355
#     4  10  19  37  59  87 125 157 196 248 297 355
#     4  10  18  33  59  87 115 154 193 245 299 355
#
# _framework density 20.992602999999999
#
# number of rings (size 3 to 8) (size 9 to 14) (size 15 to 20)
#    0.000    1.667    6.667    1.000    0.000    2.667 
#    0.000    1.667    0.000    2.000    0.000    0.000 
#    0.000    0.000    0.000    0.000    0.000    0.000 
#
# Total GULP energy -133808.235034 kJ/mol
# GULP energy per Si atom -5575.343126 kJ/mol
# Density = 2.094482 g / cm^3
# Si number density = 20.992603 Si / 1000 Ang^3
#
#
#
# Elastic Constant Matrix: (Units=GPa)
#
#
# Indices 1 2 3 4 5 6 
#
# 1 43.0658 9.4017 9.2500 0.0009 -23.0977 0.0006
# 2 9.4017 78.3829 23.2762 0.0009 -9.0453 0.0002
# 3 9.2500 23.2762 71.5933 0.0020 -22.2433 0.0014
# 4 0.0009 0.0009 0.0020 2.9042 0.0009 21.5010
# 5 -23.0977 -9.0453 -22.2433 0.0009 29.1942 0.0008
# 6 0.0006 0.0002 0.0014 21.5010 0.0008 -0.4166
#
#
#
# Elastic Compliance Matrix: (Units=1/GPa)
#
#
# Indices 1 2 3 4 5 6 
#
# 1 0.043109 -0.002897 0.007454 -0.000003 0.038889 -0.000004
# 2 -0.002897 0.014345 -0.004744 0.000000 -0.001461 0.000000
# 3 0.007454 -0.004744 0.020861 -0.000002 0.020322 -0.000003
# 4 -0.000003 0.000000 -0.000002 0.000899 -0.000006 0.046388
# 5 0.038889 -0.001461 0.020322 -0.000006 0.080052 -0.000006
# 6 -0.000004 0.000000 -0.000003 0.046388 -0.000006 -0.006266
#
#
# Mechanical properties :
#
#
# Convention : Reuss Voigt Hill
#
# Bulk Modulus (GPa) = 12.82991 30.76642 21.79816
# Shear Modulus (GPa) = 27.87808 16.41064 22.14436
#
# Velocity S-wave (km/s) = 3.64812 2.79898 3.25139
# Velocity P-wave (km/s) = 4.88569 5.01332 4.94992
#
# Compressibility (1/GPa) = 0.07794286
#
# Stress axis : x y z
#
# Youngs Moduli (GPa) = 23.19711 69.70898 47.93702
#
# Poissons Ratio (x) = 0.20192 -0.35733
# Poissons Ratio (y) = 0.06719 0.22740
# Poissons Ratio (z) = -0.17292 0.33068
#
# Static dielectric constant tensor:
#      x y z
#    x 1.845340 0.000000 -0.016520 
#    y 0.000000 1.754970 0.000000 
#    z -0.016520 0.000000 1.792520 
# 
# From -- ./inp_files/155277.got.cif
#   From: 2010.05.17/outbox.cif.g08.bks.cpg/sg15_78_cif.got.tgz:155277.got - 2010.06.03 18:47:42.
