data_PCOD9258038
_publ_section_title
;
Structure prediction by ZEFSAII (Michael W. Deem and Ramdas Pophale) SiO2 
 PCOD9258038
Probable space group: C 2/C
;
_chemical_formula_sum "Si O2"
_cell_formula_units_Z 36
_cell_length_a 10.087659
_cell_length_b 22.428177
_cell_length_c 7.309237
_cell_angle_alpha 90.000000
_cell_angle_beta 117.350709
_cell_angle_gamma 90.000000
_cell_volume 1468.833404
_symmetry_space_group_name_H-M "C 2/C"
_symmetry_group_IT_number 15
_symmetry_cell_setting 'monoclinic'
loop_
_space_group_symop_operation_xyz
x,y,z
-x,y,1/2-z
-x,-y,-z
x,-y,1/2+z
1/2+x,1/2+y,z
1/2-x,1/2+y,1/2-z
1/2-x,1/2-y,-z
1/2+x,1/2-y,1/2+z
loop_
_atom_site_type_symbol
_atom_site_label
_atom_site_fract_x
_atom_site_fract_y
_atom_site_fract_z
Si Si1 0.500000 0.343080 0.250000
Si Si2 0.384196 0.540405 0.042150
Si Si3 0.290469 0.253645 0.312511
Si Si4 0.020593 0.332361 0.042333
Si Si5 0.756354 0.424716 0.399510
O O1 0.416236 0.301771 0.341395
O O2 0.627834 0.385597 0.415265
O O3 0.500000 0.572653 0.250000
O O4 0.269684 0.493147 0.061432
O O5 0.500000 0.500000 0.000000
O O6 0.293079 0.579563 0.844841
O O7 0.250000 0.250000 0.500000
O O8 0.147095 0.279499 0.114795
O O9 0.373866 0.190368 0.343681
O O10 0.086659 0.392399 0.997784
O O11 0.000000 0.340370 0.250000
#
# Coordination Sequence:
#
# PCOD9258038 Si02
#       5
#     4   8   8   8   8
#     4  10  18  32  60  84 112 156 194 242 298 344
#     4   9  16  31  54  82 118 146 193 243 284 345
#     4   9  19  35  57  82 117 150 193 241 294 356
#     4   9  19  37  58  81 116 155 190 238 299 347
#     4  10  18  32  58  84 115 152 196 242 296 340
#
# _framework density 24.509245
#
# number of rings (size 3 to 8) (size 9 to 14) (size 15 to 20)
#    0.000    2.667    3.333    0.000    0.000    3.556 
#    0.000   18.889   29.333    0.000    0.000    0.000 
#    0.000    0.000    0.000    0.222    0.000    0.000 
#
# Total GULP energy -100391.784866 kJ/mol
# GULP energy per Si atom -5577.321381 kJ/mol
# Density = 2.445346 g / cm^3
# Si number density = 24.509245 Si / 1000 Ang^3
#
#
#
# Elastic Constant Matrix: (Units=GPa)
#
#
# Indices 1 2 3 4 5 6 
#
# 1 95.3543 43.5782 17.9859 0.0000 -4.6680 0.0000
# 2 43.5782 69.2206 24.7960 0.0000 -4.3217 0.0000
# 3 17.9859 24.7960 85.0534 0.0000 -0.5171 0.0000
# 4 0.0000 0.0000 0.0000 34.9909 0.0000 2.3290
# 5 -4.6680 -4.3217 -0.5171 0.0000 21.3894 0.0000
# 6 0.0000 0.0000 0.0000 2.3290 0.0000 45.4097
#
#
#
# Elastic Compliance Matrix: (Units=1/GPa)
#
#
# Indices 1 2 3 4 5 6 
#
# 1 0.014780 -0.009046 -0.000480 0.000000 0.001386 0.000000
# 2 -0.009046 0.021883 -0.004452 0.000000 0.002340 0.000000
# 3 -0.000480 -0.004452 0.013153 0.000000 -0.000686 0.000000
# 4 0.000000 0.000000 0.000000 0.028677 0.000000 -0.001471
# 5 0.001386 0.002340 -0.000686 0.000000 0.047511 0.000000
# 6 0.000000 0.000000 0.000000 -0.001471 0.000000 0.022097
#
#
# Mechanical properties :
#
#
# Convention : Reuss Voigt Hill
#
# Bulk Modulus (GPa) = 45.74902 46.92761 46.33831
# Shear Modulus (GPa) = 27.27132 31.24254 29.25693
#
# Velocity S-wave (km/s) = 3.33933 3.57420 3.45876
# Velocity P-wave (km/s) = 5.79437 6.01845 5.90747
#
# Compressibility (1/GPa) = 0.02185839
#
# Stress axis : x y z
#
# Youngs Moduli (GPa) = 67.65968 45.69813 76.03058
#
# Poissons Ratio (x) = 0.41340 0.03647
# Poissons Ratio (y) = 0.61207 0.33852
# Poissons Ratio (z) = 0.03245 0.20346
#
# Static dielectric constant tensor:
#      x y z
#    x 2.015050 0.000000 -0.017580 
#    y 0.000000 1.976270 0.000000 
#    z -0.017580 0.000000 1.997100 
# 
# From -- ./inp_files/29886.got.cif
#   From: 2010.05.17/outbox.cif.g08.bks.cpg/sg15_15_cif.got.tgz:29886.got - 2010.06.03 18:47:42.
