data_PCOD9258537
_publ_section_title
;
Structure prediction by ZEFSAII (Michael W. Deem and Ramdas Pophale) SiO2 
 PCOD9258537
Probable space group: C 2/C
;
_chemical_formula_sum "Si O2"
_cell_formula_units_Z 64
_cell_length_a 19.887887
_cell_length_b 10.826167
_cell_length_c 22.049634
_cell_angle_alpha 90.000000
_cell_angle_beta 129.623277
_cell_angle_gamma 90.000000
_cell_volume 3656.780031
_symmetry_space_group_name_H-M "C 2/C"
_symmetry_group_IT_number 15
_symmetry_cell_setting 'monoclinic'
loop_
_space_group_symop_operation_xyz
x,y,z
-x,y,1/2-z
-x,-y,-z
x,-y,1/2+z
1/2+x,1/2+y,z
1/2-x,1/2+y,1/2-z
1/2-x,1/2-y,-z
1/2+x,1/2-y,1/2+z
loop_
_atom_site_type_symbol
_atom_site_label
_atom_site_fract_x
_atom_site_fract_y
_atom_site_fract_z
Si Si1 0.234614 0.386712 0.970796
Si Si2 0.034286 0.862089 0.596381
Si Si3 0.266629 0.600735 0.078280
Si Si4 0.241215 0.413022 0.298169
Si Si5 0.615747 0.763294 0.428072
Si Si6 0.882778 0.965813 0.963327
Si Si7 0.101010 0.478310 0.320316
Si Si8 0.210035 0.874689 0.766170
O O1 0.233730 0.475782 0.028491
O O2 0.250000 0.250000 0.000000
O O3 0.314255 0.426628 0.973865
O O4 0.149256 0.408093 0.880725
O O5 0.085773 0.854463 0.562215
O O6 0.108626 0.884739 0.688583
O O7 0.972402 0.754688 0.585272
O O8 0.966038 0.972057 0.542864
O O9 0.353415 0.643935 0.092294
O O10 0.278841 0.596731 0.156616
O O11 0.193836 0.703197 0.018950
O O12 0.329189 0.439713 0.388519
O O13 0.158648 0.437096 0.295363
O O14 0.237717 0.270401 0.273515
O O15 0.242418 0.520641 0.247511
O O16 0.607555 0.868525 0.373097
O O17 0.000000 0.501594 0.250000
#
# Coordination Sequence:
#
# PCOD9258537 Si02
#       8
#     8   8   8   8   8   8   8   8
#     4  10  21  39  59  80 117 161 193 229 295 361
#     4  10  19  32  58  87 110 142 193 248 282 333
#     4  10  20  34  56  84 109 151 194 234 285 349
#     4  10  21  38  59  82 116 156 186 237 301 354
#     4  10  18  33  59  83 110 141 192 242 286 336
#     4   9  19  37  56  80 115 156 189 227 296 355
#     4  10  20  37  61  84 110 147 196 242 288 342
#     4  11  22  35  57  89 116 150 195 243 294 349
#
# _framework density 17.501736999999999
#
# number of rings (size 3 to 8) (size 9 to 14) (size 15 to 20)
#    0.000    2.000    2.500    1.500    0.000    3.000 
#    0.000    6.250    0.000    6.000    0.000    0.000 
#    0.000    0.000    0.000    0.000    0.000    0.000 
#
# Total GULP energy -178288.625756 kJ/mol
# GULP energy per Si atom -5571.519555 kJ/mol
# Density = 1.746190 g / cm^3
# Si number density = 17.501737 Si / 1000 Ang^3
#
#
#
# Elastic Constant Matrix: (Units=GPa)
#
#
# Indices 1 2 3 4 5 6 
#
# 1 90.2192 27.2270 56.6449 0.0000 -0.9161 0.0000
# 2 27.2270 91.0262 48.5957 0.0000 -12.1244 0.0000
# 3 56.6449 48.5957 125.5210 0.0000 -7.3388 0.0000
# 4 0.0000 0.0000 0.0000 20.2248 0.0000 -4.7228
# 5 -0.9161 -12.1244 -7.3388 0.0000 31.2690 0.0000
# 6 0.0000 0.0000 0.0000 -4.7228 0.0000 24.6347
#
#
#
# Elastic Compliance Matrix: (Units=1/GPa)
#
#
# Indices 1 2 3 4 5 6 
#
# 1 0.015638 -0.001356 -0.006627 0.000000 -0.001623 0.000000
# 2 -0.001356 0.014523 -0.004749 0.000000 0.004477 0.000000
# 3 -0.006627 -0.004749 0.012853 0.000000 0.000981 0.000000
# 4 0.000000 0.000000 0.000000 0.051761 0.000000 0.009923
# 5 -0.001623 0.004477 0.000981 0.000000 0.033899 0.000000
# 6 0.000000 0.000000 0.000000 0.009923 0.000000 0.042496
#
#
# Mechanical properties :
#
#
# Convention : Reuss Voigt Hill
#
# Bulk Modulus (GPa) = 56.97811 63.52237 60.25024
# Shear Modulus (GPa) = 24.69335 26.84562 25.76949
#
# Velocity S-wave (km/s) = 3.76028 3.92073 3.84134
# Velocity P-wave (km/s) = 7.17491 7.54121 7.36034
#
# Compressibility (1/GPa) = 0.01755060
#
# Stress axis : x y z
#
# Youngs Moduli (GPa) = 63.94876 68.85621 77.80074
#
# Poissons Ratio (x) = 0.09334 0.51558
# Poissons Ratio (y) = 0.08669 0.36948
# Poissons Ratio (z) = 0.42378 0.32700
#
# Static dielectric constant tensor:
#      x y z
#    x 1.608360 0.000000 -0.001130 
#    y 0.000000 1.611180 0.000000 
#    z -0.001130 0.000000 1.597980 
# 
# From -- ./inp_files/215089.got.cif
#   From: 2010.05.17/outbox.cif.g08.bks.cpg/sg15_108_cif.got.tgz:215089.got - 2010.06.03 18:47:42.
