data_PCOD9258214
_publ_section_title
;
Structure prediction by ZEFSAII (Michael W. Deem and Ramdas Pophale) SiO2 
 PCOD9258214
Probable space group: C 2/C
;
_chemical_formula_sum "Si O2"
_cell_formula_units_Z 40
_cell_length_a 12.228464
_cell_length_b 22.677724
_cell_length_c 12.261047
_cell_angle_alpha 90.000000
_cell_angle_beta 140.372581
_cell_angle_gamma 90.000000
_cell_volume 2168.594940
_symmetry_space_group_name_H-M "C 2/C"
_symmetry_group_IT_number 15
_symmetry_cell_setting 'monoclinic'
loop_
_space_group_symop_operation_xyz
x,y,z
-x,y,1/2-z
-x,-y,-z
x,-y,1/2+z
1/2+x,1/2+y,z
1/2-x,1/2+y,1/2-z
1/2-x,1/2-y,-z
1/2+x,1/2-y,1/2+z
loop_
_atom_site_type_symbol
_atom_site_label
_atom_site_fract_x
_atom_site_fract_y
_atom_site_fract_z
Si Si1 0.857770 0.499026 0.545110
Si Si2 0.404205 0.451503 0.494828
Si Si3 0.088002 0.587618 0.600461
Si Si4 0.873500 0.293920 0.258424
Si Si5 0.500293 0.672510 0.380130
O O1 0.679580 0.519883 0.461385
O O2 0.860265 0.438965 0.476847
O O3 0.000000 0.493553 0.750000
O O4 0.922786 0.551284 0.515107
O O5 0.500000 0.500000 0.500000
O O6 0.240221 0.430638 0.299309
O O7 0.524110 0.394286 0.600212
O O8 0.069755 0.657027 0.609665
O O9 0.000000 0.297638 0.250000
O O10 0.878785 0.227970 0.310761
O O11 0.686077 0.308093 0.067906
O O12 0.500000 0.668365 0.250000
#
# Coordination Sequence:
#
# PCOD9258214 Si02
#       5
#     8   8   8   8   8
#     4   9  18  34  50  78 102 139 180 210 263 315
#     4  10  21  33  50  81 107 137 175 219 270 312
#     4   9  18  33  54  71 109 138 168 222 256 319
#     4  10  18  33  50  80 106 137 174 217 271 318
#     4  10  20  32  51  77 109 138 171 223 270 314
#
# _framework density 18.445124
#
# number of rings (size 3 to 8) (size 9 to 14) (size 15 to 20)
#    0.000    2.400    0.000    5.400    2.800    0.000 
#   10.800    0.000    0.000    1.200    0.000    0.000 
#    0.000    0.000    0.000    0.000    0.000    0.000 
#
# Total GULP energy -111465.386478 kJ/mol
# GULP energy per Si atom -5573.269324 kJ/mol
# Density = 1.840314 g / cm^3
# Si number density = 18.445124 Si / 1000 Ang^3
#
#
#
# Elastic Constant Matrix: (Units=GPa)
#
#
# Indices 1 2 3 4 5 6 
#
# 1 64.7853 55.5284 5.9307 0.0000 -2.6114 0.0000
# 2 55.5284 186.7671 31.5126 0.0000 -11.0723 0.0000
# 3 5.9307 31.5126 47.3809 0.0000 -6.6282 0.0000
# 4 0.0000 0.0000 0.0000 34.4222 0.0000 -9.7391
# 5 -2.6114 -11.0723 -6.6282 0.0000 18.1033 0.0000
# 6 0.0000 0.0000 0.0000 -9.7391 0.0000 29.3303
#
#
#
# Elastic Compliance Matrix: (Units=1/GPa)
#
#
# Indices 1 2 3 4 5 6 
#
# 1 0.020838 -0.006497 0.001663 0.000000 -0.000359 0.000000
# 2 -0.006497 0.008152 -0.004261 0.000000 0.002489 0.000000
# 3 0.001663 -0.004261 0.024663 0.000000 0.006664 0.000000
# 4 0.000000 0.000000 0.000000 0.032063 0.000000 0.010647
# 5 -0.000359 0.002489 0.006664 0.000000 0.059149 0.000000
# 6 0.000000 0.000000 0.000000 0.010647 0.000000 0.037630
#
#
# Mechanical properties :
#
#
# Convention : Reuss Voigt Hill
#
# Bulk Modulus (GPa) = 28.19820 53.87519 41.03670
# Shear Modulus (GPa) = 23.52866 30.10192 26.81529
#
# Velocity S-wave (km/s) = 3.57543 4.04415 3.81699
# Velocity P-wave (km/s) = 5.68909 7.14693 6.45927
#
# Compressibility (1/GPa) = 0.03546325
#
# Stress axis : x y z
#
# Youngs Moduli (GPa) = 47.98986 122.66318 40.54591
#
# Poissons Ratio (x) = 0.79696 -0.06741
# Poissons Ratio (y) = 0.31180 0.17275
# Poissons Ratio (z) = -0.07979 0.52262
#
# Static dielectric constant tensor:
#      x y z
#    x 1.649010 0.000000 0.016660 
#    y 0.000000 1.711690 0.000000 
#    z 0.016660 0.000000 1.666260 
# 
# From -- ./inp_files/30176.got.cif
#   From: 2010.05.17/outbox.cif.g08.bks.cpg/sg15_16_cif.got.tgz:30176.got - 2010.06.03 18:47:42.
