data_PCOD9258470
_publ_section_title
;
Structure prediction by ZEFSAII (Michael W. Deem and Ramdas Pophale) SiO2 
 PCOD9258470
Probable space group: C 2/C
;
_chemical_formula_sum "Si O2"
_cell_formula_units_Z 32
_cell_length_a 11.515704
_cell_length_b 13.207760
_cell_length_c 8.992592
_cell_angle_alpha 90.000000
_cell_angle_beta 108.220993
_cell_angle_gamma 90.000000
_cell_volume 1299.161166
_symmetry_space_group_name_H-M "C 2/C"
_symmetry_group_IT_number 15
_symmetry_cell_setting 'monoclinic'
loop_
_space_group_symop_operation_xyz
x,y,z
-x,y,1/2-z
-x,-y,-z
x,-y,1/2+z
1/2+x,1/2+y,z
1/2-x,1/2+y,1/2-z
1/2-x,1/2-y,-z
1/2+x,1/2-y,1/2+z
loop_
_atom_site_type_symbol
_atom_site_label
_atom_site_fract_x
_atom_site_fract_y
_atom_site_fract_z
Si Si1 0.833572 0.955747 0.352165
Si Si2 0.569242 0.913793 0.120496
Si Si3 0.190003 0.870947 0.843362
Si Si4 0.072396 0.247183 0.546675
O O1 0.708525 0.935053 0.214766
O O2 0.800557 0.948161 0.512825
O O3 0.922525 0.859715 0.367780
O O4 0.874371 0.065775 0.312459
O O5 0.500000 0.909067 0.250000
O O6 0.549649 0.810495 0.019886
O O7 0.500000 0.000000 0.000000
O O8 0.319755 0.821821 0.851423
O O9 0.117345 0.781339 0.896505
#
# Coordination Sequence:
#
# PCOD9258470 Si02
#       4
#     8   8   8   8
#     4  10  18  33  57  84 110 149 191 232 277 339
#     4  12  19  33  61  87 109 147 193 238 276 335
#     4   9  17  34  53  82 115 148 181 228 289 332
#     4   9  19  33  54  84 118 150 180 230 301 325
#
# _framework density 24.631277999999998
#
# number of rings (size 3 to 8) (size 9 to 14) (size 15 to 20)
#    1.500    0.500    5.000    0.000    0.000    0.000 
#    0.000    1.250    5.500    6.000    0.000    0.000 
#    0.000    0.000    0.000    0.000    0.000    0.000 
#
# Total GULP energy -89313.066673 kJ/mol
# GULP energy per Si atom -5582.066667 kJ/mol
# Density = 2.457522 g / cm^3
# Si number density = 24.631278 Si / 1000 Ang^3
#
#
#
# Elastic Constant Matrix: (Units=GPa)
#
#
# Indices 1 2 3 4 5 6 
#
# 1 40.8987 5.7259 20.7565 0.0000 11.1857 0.0000
# 2 5.7259 118.1405 53.0042 0.0000 -3.2722 0.0000
# 3 20.7565 53.0042 96.9219 0.0000 12.4252 0.0000
# 4 0.0000 0.0000 0.0000 72.0197 0.0000 7.4129
# 5 11.1857 -3.2722 12.4252 0.0000 28.8774 0.0000
# 6 0.0000 0.0000 0.0000 7.4129 0.0000 21.8989
#
#
#
# Elastic Compliance Matrix: (Units=1/GPa)
#
#
# Indices 1 2 3 4 5 6 
#
# 1 0.029658 0.000861 -0.005675 0.000000 -0.008949 0.000000
# 2 0.000861 0.011729 -0.007119 0.000000 0.004059 0.000000
# 3 -0.005675 -0.007119 0.016138 0.000000 -0.005552 0.000000
# 4 0.000000 0.000000 0.000000 0.014386 0.000000 -0.004870
# 5 -0.008949 0.004059 -0.005552 0.000000 0.040944 0.000000
# 6 0.000000 0.000000 0.000000 -0.004870 0.000000 0.047313
#
#
# Mechanical properties :
#
#
# Convention : Reuss Voigt Hill
#
# Bulk Modulus (GPa) = 29.71029 46.10382 37.90705
# Shear Modulus (GPa) = 25.60762 36.32414 30.96588
#
# Velocity S-wave (km/s) = 3.22784 3.84437 3.54952
# Velocity P-wave (km/s) = 5.09707 6.20192 5.67644
#
# Compressibility (1/GPa) = 0.03365837
#
# Stress axis : x y z
#
# Youngs Moduli (GPa) = 33.71811 85.25726 61.96566
#
# Poissons Ratio (x) = -0.07339 0.35165
# Poissons Ratio (y) = -0.02903 0.44114
# Poissons Ratio (z) = 0.19135 0.60695
#
# Static dielectric constant tensor:
#      x y z
#    x 1.990370 0.000000 0.008070 
#    y 0.000000 2.013620 0.000000 
#    z 0.008070 0.000000 1.959070 
# 
# From -- ./inp_files/37224.got.cif
#   From: 2010.05.17/outbox.cif.g08.bks.cpg/sg15_19_cif.got.tgz:37224.got - 2010.06.03 18:47:42.
