data_PCOD9258689
_publ_section_title
;
Structure prediction by ZEFSAII (Michael W. Deem and Ramdas Pophale) SiO2 
 PCOD9258689
Probable space group: C 2/C
;
_chemical_formula_sum "Si O2"
_cell_formula_units_Z 48
_cell_length_a 27.903216
_cell_length_b 11.825954
_cell_length_c 9.203393
_cell_angle_alpha 90.000000
_cell_angle_beta 85.350095
_cell_angle_gamma 90.000000
_cell_volume 3026.959705
_symmetry_space_group_name_H-M "C 2/C"
_symmetry_group_IT_number 15
_symmetry_cell_setting 'monoclinic'
loop_
_space_group_symop_operation_xyz
x,y,z
-x,y,1/2-z
-x,-y,-z
x,-y,1/2+z
1/2+x,1/2+y,z
1/2-x,1/2+y,1/2-z
1/2-x,1/2-y,-z
1/2+x,1/2-y,1/2+z
loop_
_atom_site_type_symbol
_atom_site_label
_atom_site_fract_x
_atom_site_fract_y
_atom_site_fract_z
Si Si1 0.371479 0.147190 0.994399
Si Si2 0.965351 0.451356 0.386875
Si Si3 0.715680 0.143235 0.025114
Si Si4 0.261882 0.503958 0.767040
Si Si5 0.294814 0.662116 0.504565
Si Si6 0.371387 0.932291 0.823736
O O1 0.428543 0.145609 0.948587
O O2 0.351723 0.054864 0.883272
O O3 0.342500 0.262198 0.989702
O O4 0.365731 0.096357 0.157111
O O5 0.927758 0.549964 0.346040
O O6 0.000000 0.413838 0.250000
O O7 0.000000 0.500000 0.500000
O O8 0.735292 0.078394 0.162017
O O9 0.659173 0.156720 0.073225
O O10 0.750000 0.250000 0.000000
O O11 0.724945 0.069678 0.879880
O O12 0.289278 0.593624 0.657265
O O13 0.292087 0.426991 0.872343
O O14 0.250000 0.750000 0.500000
#
# Coordination Sequence:
#
# PCOD9258689 Si02
#       6
#     8   8   8   8   8   8
#     4  10  20  32  54  76 108 144 173 210 280 327
#     4  10  18  34  51  79 112 133 167 228 276 324
#     4  11  20  33  49  73 105 143 179 211 255 320
#     4  10  22  33  49  70 112 140 181 226 250 296
#     4  11  21  36  52  76 109 149 188 221 265 320
#     4  10  19  30  51  76 108 140 172 211 273 325
#
# _framework density 15.857497
#
# number of rings (size 3 to 8) (size 9 to 14) (size 15 to 20)
#    1.000    0.667    1.667    6.000    0.000    1.333 
#    0.000    0.000    0.000    0.000    0.000    1.167 
#    0.000    0.000    0.000    0.000    0.000    0.000 
#
# Total GULP energy -133616.118916 kJ/mol
# GULP energy per Si atom -5567.338288 kJ/mol
# Density = 1.582140 g / cm^3
# Si number density = 15.857497 Si / 1000 Ang^3
#
#
#
# Elastic Constant Matrix: (Units=GPa)
#
#
# Indices 1 2 3 4 5 6 
#
# 1 107.0903 49.5633 50.9671 0.0000 -17.9179 0.0000
# 2 49.5633 66.4650 51.1469 0.0000 -6.3503 0.0000
# 3 50.9671 51.1469 132.8904 0.0000 -9.9106 0.0000
# 4 0.0000 0.0000 0.0000 23.8706 0.0000 -2.1952
# 5 -17.9179 -6.3503 -9.9106 0.0000 30.2576 0.0000
# 6 0.0000 0.0000 0.0000 -2.1952 0.0000 27.0003
#
#
#
# Elastic Compliance Matrix: (Units=1/GPa)
#
#
# Indices 1 2 3 4 5 6 
#
# 1 0.015858 -0.009786 -0.001813 0.000000 0.006743 0.000000
# 2 -0.009786 0.027516 -0.007010 0.000000 -0.002316 0.000000
# 3 -0.001813 -0.007010 0.010997 0.000000 0.001057 0.000000
# 4 0.000000 0.000000 0.000000 0.042208 0.000000 0.003432
# 5 0.006743 -0.002316 0.001057 0.000000 0.036903 0.000000
# 6 0.000000 0.000000 0.000000 0.003432 0.000000 0.037316
#
#
# Mechanical properties :
#
#
# Convention : Reuss Voigt Hill
#
# Bulk Modulus (GPa) = 58.29622 67.75557 63.02589
# Shear Modulus (GPa) = 23.39359 26.54359 24.96859
#
# Velocity S-wave (km/s) = 3.84505 4.09575 3.97238
# Velocity P-wave (km/s) = 7.52030 8.07387 7.80200
#
# Compressibility (1/GPa) = 0.01715377
#
# Stress axis : x y z
#
# Youngs Moduli (GPa) = 63.05916 36.34209 90.93404
#
# Poissons Ratio (x) = 0.35566 0.16482
# Poissons Ratio (y) = 0.61712 0.63744
# Poissons Ratio (z) = 0.11430 0.25475
#
# Static dielectric constant tensor:
#      x y z
#    x 1.571530 0.000000 -0.053660 
#    y 0.000000 1.540480 0.000000 
#    z -0.053660 0.000000 1.730090 
# 
# From -- ./inp_files/64853.got.cif
#   From: 2010.05.17/outbox.cif.g08.bks.cpg/sg15_33_cif.got.tgz:64853.got - 2010.06.03 18:47:42.
