data_PCOD9258359
_publ_section_title
;
Structure prediction by ZEFSAII (Michael W. Deem and Ramdas Pophale) SiO2 
 PCOD9258359
Probable space group: C 2/C
;
_chemical_formula_sum "Si O2"
_cell_formula_units_Z 56
_cell_length_a 17.601152
_cell_length_b 15.330094
_cell_length_c 25.850995
_cell_angle_alpha 90.000000
_cell_angle_beta 27.120878
_cell_angle_gamma 90.000000
_cell_volume 3179.826939
_symmetry_space_group_name_H-M "C 2/C"
_symmetry_group_IT_number 15
_symmetry_cell_setting 'monoclinic'
loop_
_space_group_symop_operation_xyz
x,y,z
-x,y,1/2-z
-x,-y,-z
x,-y,1/2+z
1/2+x,1/2+y,z
1/2-x,1/2+y,1/2-z
1/2-x,1/2-y,-z
1/2+x,1/2-y,1/2+z
loop_
_atom_site_type_symbol
_atom_site_label
_atom_site_fract_x
_atom_site_fract_y
_atom_site_fract_z
Si Si1 0.284671 0.090979 0.765291
Si Si2 0.533905 0.503042 0.076892
Si Si3 0.846536 0.835677 0.648482
Si Si4 0.676039 0.941219 0.671007
Si Si5 0.568444 0.163279 0.523844
Si Si6 0.248996 0.790774 0.686820
Si Si7 0.077954 0.118312 0.148703
O O1 0.441889 0.100106 0.631128
O O2 0.238808 0.185819 0.817639
O O3 0.321388 0.020378 0.788191
O O4 0.125447 0.059939 0.828639
O O5 0.472694 0.584178 0.078970
O O6 0.578379 0.543096 0.105470
O O7 0.689206 0.461213 0.954575
O O8 0.738492 0.855513 0.663773
O O9 0.727492 0.830798 0.770678
O O10 0.959512 0.750728 0.584864
O O11 0.500000 0.933115 0.750000
O O12 0.638055 0.157808 0.422916
O O13 0.741158 0.160414 0.451477
O O14 0.056446 0.810542 0.788786
O O15 0.000000 0.085365 0.250000
#
# Coordination Sequence:
#
# PCOD9258359 Si02
#       7
#     8   8   8   8   8   8   8
#     4  10  20  32  52  78 101 136 174 206 254 305
#     4  10  19  34  50  73 109 136 164 210 256 299
#     4   9  19  33  50  74 105 136 169 210 253 295
#     4  11  21  33  51  75 103 136 171 208 253 303
#     4  10  18  33  55  77 101 135 173 205 253 308
#     4   9  18  32  52  76 105 134 169 215 255 293
#     4   9  19  33  51  79 108 132 164 214 258 294
#
# _framework density 17.611021000000001
#
# number of rings (size 3 to 8) (size 9 to 14) (size 15 to 20)
#    0.000    2.286    0.000    4.286    0.000    8.000 
#    0.000   12.857    0.000   11.143    0.000    0.000 
#    0.000    0.000    0.000    0.000    0.000    0.000 
#
# Total GULP energy -155897.872439 kJ/mol
# GULP energy per Si atom -5567.781159 kJ/mol
# Density = 1.757094 g / cm^3
# Si number density = 17.611021 Si / 1000 Ang^3
#
#
#
# Elastic Constant Matrix: (Units=GPa)
#
#
# Indices 1 2 3 4 5 6 
#
# 1 127.3117 47.8734 55.7188 -0.0014 -3.5904 0.0000
# 2 47.8734 49.6601 41.1374 -0.0027 -6.4164 0.0012
# 3 55.7188 41.1374 116.8224 -0.0065 -3.1239 0.0057
# 4 -0.0014 -0.0027 -0.0065 22.2074 0.0005 1.1691
# 5 -3.5904 -6.4164 -3.1239 0.0005 18.6677 -0.0014
# 6 0.0000 0.0012 0.0057 1.1691 -0.0014 12.9759
#
#
#
# Elastic Compliance Matrix: (Units=1/GPa)
#
#
# Indices 1 2 3 4 5 6 
#
# 1 0.012857 -0.010564 -0.002454 -0.000001 -0.001569 0.000002
# 2 -0.010564 0.038395 -0.008220 0.000001 0.009790 0.000001
# 3 -0.002454 -0.008220 0.012593 0.000003 -0.001190 -0.000005
# 4 -0.000001 0.000001 0.000003 0.045245 -0.000001 -0.004076
# 5 -0.001569 0.009790 -0.001190 -0.000001 0.056433 0.000006
# 6 0.000002 0.000001 -0.000005 -0.004076 0.000006 0.077433
#
#
# Mechanical properties :
#
#
# Convention : Reuss Voigt Hill
#
# Bulk Modulus (GPa) = 46.79699 64.80594 55.80147
# Shear Modulus (GPa) = 17.09076 20.70781 18.89929
#
# Velocity S-wave (km/s) = 3.11860 3.43278 3.27945
# Velocity P-wave (km/s) = 6.29268 7.25192 6.78926
#
# Compressibility (1/GPa) = 0.02136889
#
# Stress axis : x y z
#
# Youngs Moduli (GPa) = 77.77832 26.04492 79.40786
#
# Poissons Ratio (x) = 0.27515 0.19488
# Poissons Ratio (y) = 0.82167 0.65273
# Poissons Ratio (z) = 0.19088 0.21409
#
# Static dielectric constant tensor:
#      x y z
#    x 1.617780 0.000000 0.035140 
#    y 0.000000 1.609890 0.000000 
#    z 0.035140 0.000000 1.636050 
# 
# From -- ./inp_files/274438.got.cif
#   From: 2010.05.17/outbox.cif.g08.bks.cpg/sg15_138_cif.got.tgz:274438.got - 2010.06.03 18:47:42.
