data_PCOD9258347
_publ_section_title
;
Structure prediction by ZEFSAII (Michael W. Deem and Ramdas Pophale) SiO2 
 PCOD9258347
Probable space group: C 2/C
;
_chemical_formula_sum "Si O2"
_cell_formula_units_Z 44
_cell_length_a 16.060549
_cell_length_b 18.522829
_cell_length_c 23.325792
_cell_angle_alpha 90.000000
_cell_angle_beta 159.909073
_cell_angle_gamma 90.000000
_cell_volume 2383.662300
_symmetry_space_group_name_H-M "C 2/C"
_symmetry_group_IT_number 15
_symmetry_cell_setting 'monoclinic'
loop_
_space_group_symop_operation_xyz
x,y,z
-x,y,1/2-z
-x,-y,-z
x,-y,1/2+z
1/2+x,1/2+y,z
1/2-x,1/2+y,1/2-z
1/2-x,1/2-y,-z
1/2+x,1/2-y,1/2+z
loop_
_atom_site_type_symbol
_atom_site_label
_atom_site_fract_x
_atom_site_fract_y
_atom_site_fract_z
Si Si1 0.133642 0.573869 0.604652
Si Si2 0.000000 0.043187 0.750000
Si Si3 0.725967 0.939579 0.483449
Si Si4 0.803173 0.948491 0.343930
Si Si5 0.791710 0.845742 0.429579
Si Si6 0.792529 0.316277 0.941980
O O1 0.317389 0.588328 0.671429
O O2 0.270840 0.559175 0.754319
O O3 0.000000 0.500000 0.500000
O O4 0.934389 0.636484 0.486280
O O5 0.866648 0.989817 0.618730
O O6 0.461637 0.973476 0.303297
O O7 0.871687 0.911600 0.522784
O O8 0.663249 0.863397 0.473261
O O9 0.849661 0.870308 0.402914
O O10 0.000000 0.000000 0.500000
O O11 0.500000 0.844333 0.250000
O O12 0.881663 0.765853 0.501958
O O13 0.500000 0.315497 0.750000
#
# Coordination Sequence:
#
# PCOD9258347 Si02
#       6
#     8   4   8   8   8   8
#     4  11  21  36  56  83 116 155 197 235 286 341
#     4  12  20  36  58  84 116 154 200 238 270 352
#     4  10  18  33  54  84 118 150 187 239 295 344
#     4  10  20  35  53  84 119 148 188 239 296 348
#     4   9  19  32  54  84 116 148 182 241 302 346
#     4  10  18  33  55  86 119 149 187 238 294 347
#
# _framework density 18.458991000000001
#
# number of rings (size 3 to 8) (size 9 to 14) (size 15 to 20)
#    0.000    1.818    4.545    1.636    0.000    1.455 
#    0.000    0.000    0.000    1.091    7.091    0.000 
#    0.000    0.000    0.000    0.000    0.000    0.000 
#
# Total GULP energy -122474.394427 kJ/mol
# GULP energy per Si atom -5567.017928 kJ/mol
# Density = 1.841698 g / cm^3
# Si number density = 18.458991 Si / 1000 Ang^3
#
#
#
# Elastic Constant Matrix: (Units=GPa)
#
#
# Indices 1 2 3 4 5 6 
#
# 1 132.7658 37.1271 26.6535 -0.0088 -4.1526 -0.0012
# 2 37.1271 67.1984 33.3189 -0.0321 2.8586 0.0073
# 3 26.6535 33.3189 85.0424 -0.0868 -1.6448 -0.0004
# 4 -0.0088 -0.0321 -0.0868 20.8824 -0.0085 0.4317
# 5 -4.1526 2.8586 -1.6448 -0.0085 24.9551 0.0099
# 6 -0.0012 0.0073 -0.0004 0.4317 0.0099 23.9203
#
#
#
# Elastic Compliance Matrix: (Units=1/GPa)
#
#
# Indices 1 2 3 4 5 6 
#
# 1 0.009083 -0.004604 -0.001005 -0.000007 0.001973 0.000001
# 2 -0.004604 0.020972 -0.006844 0.000001 -0.003620 -0.000005
# 3 -0.001005 -0.006844 0.014786 0.000051 0.001591 0.000001
# 4 -0.000007 0.000001 0.000051 0.047905 0.000019 -0.000865
# 5 0.001973 -0.003620 0.001591 0.000019 0.040920 -0.000016
# 6 0.000001 -0.000005 0.000001 -0.000865 -0.000016 0.041821
#
#
# Mechanical properties :
#
#
# Convention : Reuss Voigt Hill
#
# Bulk Modulus (GPa) = 50.16054 53.24507 51.70281
# Shear Modulus (GPa) = 24.15016 26.47871 25.31444
#
# Velocity S-wave (km/s) = 3.62099 3.79154 3.70724
# Velocity P-wave (km/s) = 6.68693 6.93364 6.81140
#
# Compressibility (1/GPa) = 0.01993599
#
# Stress axis : x y z
#
# Youngs Moduli (GPa) = 110.09615 47.68175 67.63191
#
# Poissons Ratio (x) = 0.21953 0.06795
# Poissons Ratio (y) = 0.50689 0.46286
# Poissons Ratio (z) = 0.11062 0.32633
#
# Static dielectric constant tensor:
#      x y z
#    x 1.755750 -0.000010 0.003000 
#    y -0.000010 1.646320 -0.000040 
#    z 0.003000 -0.000040 1.723570 
# 
# From -- ./inp_files/277821.got.cif
#   From: 2010.05.17/outbox.cif.g08.bks.cpg/sg15_139_cif.got.tgz:277821.got - 2010.06.03 18:47:42.
