data_PCOD9258826
_publ_section_title
;
Structure prediction by ZEFSAII (Michael W. Deem and Ramdas Pophale) SiO2 
 PCOD9258826
Probable space group: C 2/C
;
_chemical_formula_sum "Si O2"
_cell_formula_units_Z 44
_cell_length_a 13.918241
_cell_length_b 20.257671
_cell_length_c 12.450027
_cell_angle_alpha 90.000000
_cell_angle_beta 41.534042
_cell_angle_gamma 90.000000
_cell_volume 2327.556385
_symmetry_space_group_name_H-M "C 2/C"
_symmetry_group_IT_number 15
_symmetry_cell_setting 'monoclinic'
loop_
_space_group_symop_operation_xyz
x,y,z
-x,y,1/2-z
-x,-y,-z
x,-y,1/2+z
1/2+x,1/2+y,z
1/2-x,1/2+y,1/2-z
1/2-x,1/2-y,-z
1/2+x,1/2-y,1/2+z
loop_
_atom_site_type_symbol
_atom_site_label
_atom_site_fract_x
_atom_site_fract_y
_atom_site_fract_z
Si Si1 0.788764 0.892405 0.332435
Si Si2 0.000000 0.894755 0.750000
Si Si3 0.857635 0.025953 0.183717
Si Si4 0.133446 0.775320 0.512172
Si Si5 0.626948 0.634166 0.495850
Si Si6 0.646800 0.227956 0.859615
O O1 0.806951 0.887931 0.445718
O O2 0.664157 0.840644 0.406421
O O3 0.763069 0.962849 0.296579
O O4 0.952218 0.873760 0.154510
O O5 0.098342 0.940870 0.740745
O O6 0.083534 0.846612 0.597582
O O7 0.807424 0.085227 0.149043
O O8 0.000000 0.000000 0.000000
O O9 0.250000 0.750000 0.500000
O O10 0.213107 0.772369 0.332719
O O11 0.987393 0.734789 0.610350
O O12 0.649649 0.709275 0.436985
#
# Coordination Sequence:
#
# PCOD9258826 Si02
#       6
#     8   4   8   8   8   8
#     4  10  21  34  59  89 123 161 206 255 306 357
#     4  12  20  36  62  88 124 162 204 260 308 366
#     4  10  18  34  55  88 121 156 207 256 299 361
#     4  12  22  37  60  91 121 160 202 253 312 363
#     4  10  19  36  56  88 124 160 206 252 302 367
#     4  12  21  39  57  89 130 158 206 252 309 366
#
# _framework density 18.903946999999999
#
# number of rings (size 3 to 8) (size 9 to 14) (size 15 to 20)
#    0.000    1.091    5.455    3.818    0.000    0.000 
#    0.000    0.000    0.000    4.364    0.000    7.636 
#    0.000    0.000    0.000    0.000    0.000    0.000 
#
# Total GULP energy -122573.284951 kJ/mol
# GULP energy per Si atom -5571.512952 kJ/mol
# Density = 1.886092 g / cm^3
# Si number density = 18.903947 Si / 1000 Ang^3
#
#
#
# Elastic Constant Matrix: (Units=GPa)
#
#
# Indices 1 2 3 4 5 6 
#
# 1 85.4338 68.1113 18.0918 -0.0003 16.1441 -0.0001
# 2 68.1113 141.4464 19.5851 0.0000 8.3970 0.0001
# 3 18.0918 19.5851 51.0220 -0.0002 14.4878 -0.0001
# 4 -0.0003 0.0000 -0.0002 -6.6599 0.0002 -2.0085
# 5 16.1441 8.3970 14.4878 0.0002 27.0353 0.0000
# 6 -0.0001 0.0001 -0.0001 -2.0085 0.0000 33.7745
#
#
#
# Elastic Compliance Matrix: (Units=1/GPa)
#
#
# Indices 1 2 3 4 5 6 
#
# 1 0.021296 -0.009535 -0.001323 -0.000001 -0.009047 0.000000
# 2 -0.009535 0.011755 -0.002019 0.000001 0.003124 0.000000
# 3 -0.001323 -0.002019 0.024110 -0.000001 -0.011503 0.000000
# 4 -0.000001 0.000001 -0.000001 -0.147507 0.000002 -0.008772
# 5 -0.009047 0.003124 -0.011503 0.000002 0.047585 0.000000
# 6 0.000000 0.000000 0.000000 -0.008772 0.000000 0.029087
#
#
# Mechanical properties :
#
#
# Convention : Reuss Voigt Hill
#
# Bulk Modulus (GPa) = 31.83777 54.38654 43.11216
# Shear Modulus (GPa) = 221.76806 22.30423 122.03615
#
# Velocity S-wave (km/s) = 10.84287 3.43865 8.04339
# Velocity P-wave (km/s) = 13.17708 6.67819 10.44590
#
# Compressibility (1/GPa) = 0.03140923
#
# Stress axis : x y z
#
# Youngs Moduli (GPa) = 46.95750 85.06995 41.47736
#
# Poissons Ratio (x) = 0.81110 0.05486
# Poissons Ratio (y) = 0.44772 0.08372
# Poissons Ratio (z) = 0.06210 0.17172
#
# Static dielectric constant tensor:
#      x y z
#    x 1.689130 0.000000 0.109080 
#    y 0.000000 1.717470 0.000000 
#    z 0.109080 0.000000 2.132250 
# 
# From -- ./inp_files/154710.got.cif
#   From: 2010.05.17/outbox.cif.g08.bks.cpg/sg15_78_cif.got.tgz:154710.got - 2010.06.03 18:47:42.
