data_PCOD9258882
_publ_section_title
;
Structure prediction by ZEFSAII (Michael W. Deem and Ramdas Pophale) SiO2 
 PCOD9258882
Probable space group: C 2/C
;
_chemical_formula_sum "Si O2"
_cell_formula_units_Z 60
_cell_length_a 20.492813
_cell_length_b 14.340866
_cell_length_c 11.520502
_cell_angle_alpha 90.000000
_cell_angle_beta 114.163269
_cell_angle_gamma 90.000000
_cell_volume 3089.053360
_symmetry_space_group_name_H-M "C 2/C"
_symmetry_group_IT_number 15
_symmetry_cell_setting 'monoclinic'
loop_
_space_group_symop_operation_xyz
x,y,z
-x,y,1/2-z
-x,-y,-z
x,-y,1/2+z
1/2+x,1/2+y,z
1/2-x,1/2+y,1/2-z
1/2-x,1/2-y,-z
1/2+x,1/2-y,1/2+z
loop_
_atom_site_type_symbol
_atom_site_label
_atom_site_fract_x
_atom_site_fract_y
_atom_site_fract_z
Si Si1 0.692571 0.222391 0.103752
Si Si2 0.060746 0.318826 0.668564
Si Si3 0.769985 0.082166 0.798191
Si Si4 0.411628 0.755856 0.551776
Si Si5 0.203073 0.130909 0.144002
Si Si6 0.348500 0.086709 0.612780
Si Si7 0.210721 0.397518 0.020163
Si Si8 0.000000 0.498405 0.750000
O O1 0.628058 0.182185 0.135006
O O2 0.692031 0.334042 0.107174
O O3 0.764100 0.184453 0.220895
O O4 0.676728 0.181476 0.965860
O O5 0.079267 0.262466 0.801113
O O6 0.034816 0.423371 0.684884
O O7 0.991070 0.271091 0.562645
O O8 0.688422 0.079219 0.788058
O O9 0.768262 0.110472 0.662882
O O10 0.801008 0.979291 0.835676
O O11 0.370064 0.672041 0.460692
O O12 0.359857 0.843515 0.493485
O O13 0.259363 0.142379 0.078447
O O14 0.309256 0.004601 0.512739
O O15 0.432316 0.062565 0.668050
#
# Coordination Sequence:
#
# PCOD9258882 Si02
#       8
#     8   8   8   8   8   8   8   4
#     4  12  22  38  59  83 120 157 191 236 291 352
#     4  10  20  34  60  89 115 146 187 249 298 333
#     4  11  24  37  56  85 117 155 196 237 286 344
#     4  10  18  34  56  88 115 137 188 248 293 332
#     4  11  21  35  60  87 110 150 197 244 290 328
#     4  11  23  37  55  86 123 155 182 228 297 366
#     4  11  18  34  60  87 114 143 193 241 288 346
#     4  10  20  38  58  90 124 146 190 238 302 356
#
# _framework density 19.423425000000002
#
# number of rings (size 3 to 8) (size 9 to 14) (size 15 to 20)
#    0.000    1.333    6.667    2.400    0.000    1.600 
#    0.000    0.667    0.000    1.600    0.000    0.000 
#    0.000    0.000    0.000    0.000    0.000    0.000 
#
# Total GULP energy -167357.395480 kJ/mol
# GULP energy per Si atom -5578.579849 kJ/mol
# Density = 1.937922 g / cm^3
# Si number density = 19.423425 Si / 1000 Ang^3
#
#
#
# Elastic Constant Matrix: (Units=GPa)
#
#
# Indices 1 2 3 4 5 6 
#
# 1 27.9376 6.5371 20.8065 0.0000 11.7777 0.0000
# 2 6.5371 93.9186 26.8050 0.0000 17.0126 0.0000
# 3 20.8065 26.8050 64.8057 0.0000 17.6238 0.0000
# 4 0.0000 0.0000 0.0000 17.6989 0.0000 7.1910
# 5 11.7777 17.0126 17.6238 0.0000 30.9080 0.0000
# 6 0.0000 0.0000 0.0000 7.1910 0.0000 23.0352
#
#
#
# Elastic Compliance Matrix: (Units=1/GPa)
#
#
# Indices 1 2 3 4 5 6 
#
# 1 0.051060 0.002802 -0.014015 0.000000 -0.013008 0.000000
# 2 0.002802 0.012778 -0.004713 0.000000 -0.005414 0.000000
# 3 -0.014015 -0.004713 0.023341 0.000000 -0.005375 0.000000
# 4 0.000000 0.000000 0.000000 0.064708 0.000000 -0.020200
# 5 -0.013008 -0.005414 -0.005375 0.000000 0.043356 0.000000
# 6 0.000000 0.000000 0.000000 -0.020200 0.000000 0.049718
#
#
# Mechanical properties :
#
#
# Convention : Reuss Voigt Hill
#
# Bulk Modulus (GPa) = 18.07386 32.77324 25.42355
# Shear Modulus (GPa) = 16.93459 23.16263 20.04861
#
# Velocity S-wave (km/s) = 2.95594 3.45702 3.21625
# Velocity P-wave (km/s) = 4.57990 5.73100 5.18748
#
# Compressibility (1/GPa) = 0.05532853
#
# Stress axis : x y z
#
# Youngs Moduli (GPa) = 19.58496 78.25822 42.84260
#
# Poissons Ratio (x) = -0.21929 0.60043
# Poissons Ratio (y) = -0.05488 0.20190
# Poissons Ratio (z) = 0.27448 0.36880
#
# Static dielectric constant tensor:
#      x y z
#    x 1.696160 0.000000 -0.015350 
#    y 0.000000 1.692570 0.000000 
#    z -0.015350 0.000000 1.746360 
# 
# From -- ./inp_files/118583.got.cif
#   From: 2010.05.17/outbox.cif.g08.bks.cpg/sg15_60_cif.got.tgz:118583.got - 2010.06.03 18:47:42.
