data_PCOD9258807
_publ_section_title
;
Structure prediction by ZEFSAII (Michael W. Deem and Ramdas Pophale) SiO2 
 PCOD9258807
Probable space group: C 2/C
;
_chemical_formula_sum "Si O2"
_cell_formula_units_Z 64
_cell_length_a 25.255210
_cell_length_b 23.300424
_cell_length_c 12.574217
_cell_angle_alpha 90.000000
_cell_angle_beta 28.749588
_cell_angle_gamma 90.000000
_cell_volume 3558.975533
_symmetry_space_group_name_H-M "C 2/C"
_symmetry_group_IT_number 15
_symmetry_cell_setting 'monoclinic'
loop_
_space_group_symop_operation_xyz
x,y,z
-x,y,1/2-z
-x,-y,-z
x,-y,1/2+z
1/2+x,1/2+y,z
1/2-x,1/2+y,1/2-z
1/2-x,1/2-y,-z
1/2+x,1/2-y,1/2+z
loop_
_atom_site_type_symbol
_atom_site_label
_atom_site_fract_x
_atom_site_fract_y
_atom_site_fract_z
Si Si1 0.239604 0.044249 0.650953
Si Si2 0.563187 0.268031 0.835878
Si Si3 0.917907 0.324020 0.497339
Si Si4 0.107911 0.572177 0.305045
Si Si5 0.009637 0.106712 0.105389
Si Si6 0.778953 0.081681 0.409384
Si Si7 0.247512 0.291046 0.867053
Si Si8 0.621933 0.053631 0.878887
O O1 0.290309 0.070828 0.454397
O O2 0.319386 0.056552 0.610705
O O3 0.237564 0.975079 0.633696
O O4 0.120827 0.072949 0.879921
O O5 0.502780 0.326606 0.908617
O O6 0.628086 0.271365 0.832471
O O7 0.663368 0.251437 0.578073
O O8 0.479559 0.216795 0.970672
O O9 0.891678 0.381694 0.603340
O O10 0.806326 0.295156 0.652661
O O11 0.000000 0.331373 0.250000
O O12 0.106363 0.512078 0.370055
O O13 0.999051 0.579589 0.423989
O O14 0.000000 0.104630 0.250000
O O15 0.903481 0.079652 0.233989
O O16 0.750751 0.142845 0.404528
O O17 0.700796 0.079575 0.649777
#
# Coordination Sequence:
#
# PCOD9258807 Si02
#       8
#     8   8   8   8   8   8   8   8
#     4  11  22  36  54  82 119 151 182 231 290 342
#     4   9  19  32  54  86 109 140 195 237 278 327
#     4  10  18  34  55  80 109 141 185 233 282 325
#     4  10  22  34  54  83 113 148 188 229 283 345
#     4  11  20  36  56  81 112 149 191 235 283 337
#     4  10  20  34  56  83 108 145 193 230 281 340
#     4   9  17  32  56  83 110 141 184 247 277 317
#     4  10  19  35  53  78 112 148 186 230 277 337
#
# _framework density 17.982703000000001
#
# number of rings (size 3 to 8) (size 9 to 14) (size 15 to 20)
#    0.000    2.000    1.250    4.125    0.000    2.000 
#    2.250    0.625    0.000    0.000    0.000    0.000 
#    0.000    0.000    0.000    0.000    0.000    0.000 
#
# Total GULP energy -178294.095465 kJ/mol
# GULP energy per Si atom -5571.690483 kJ/mol
# Density = 1.794177 g / cm^3
# Si number density = 17.982703 Si / 1000 Ang^3
#
#
#
# Elastic Constant Matrix: (Units=GPa)
#
#
# Indices 1 2 3 4 5 6 
#
# 1 63.7364 -7.6447 6.8557 -0.0002 -18.5440 0.0000
# 2 -7.6447 27.3831 18.9907 -0.0002 -3.1750 0.0000
# 3 6.8557 18.9907 48.7044 -0.0004 -9.6214 0.0000
# 4 -0.0002 -0.0002 -0.0004 15.9925 0.0002 -2.2780
# 5 -18.5440 -3.1750 -9.6214 0.0002 15.9486 0.0000
# 6 0.0000 0.0000 0.0000 -2.2780 0.0000 18.4858
#
#
#
# Elastic Compliance Matrix: (Units=1/GPa)
#
#
# Indices 1 2 3 4 5 6 
#
# 1 0.026949 0.012982 -0.002446 0.000000 0.032444 0.000000
# 2 0.012982 0.056367 -0.021125 0.000000 0.013572 0.000000
# 3 -0.002446 -0.021125 0.031471 0.000000 0.011936 0.000000
# 4 0.000000 0.000000 0.000000 0.063646 0.000000 0.007843
# 5 0.032444 0.013572 0.011936 0.000000 0.110328 0.000000
# 6 0.000000 0.000000 0.000000 0.007843 0.000000 0.055062
#
#
# Mechanical properties :
#
#
# Convention : Reuss Voigt Hill
#
# Bulk Modulus (GPa) = 10.68269 19.58080 15.13175
# Shear Modulus (GPa) = 12.61974 18.19353 15.40663
#
# Velocity S-wave (km/s) = 2.65197 3.18421 2.93020
# Velocity P-wave (km/s) = 3.91544 4.94280 4.45881
#
# Compressibility (1/GPa) = 0.09360935
#
# Stress axis : x y z
#
# Youngs Moduli (GPa) = 37.10687 17.74083 31.77511
#
# Poissons Ratio (x) = -0.23031 0.07772
# Poissons Ratio (y) = -0.48171 0.67124
# Poissons Ratio (z) = 0.09077 0.37477
#
# Static dielectric constant tensor:
#      x y z
#    x 1.638700 0.000000 -0.029500 
#    y 0.000000 1.641680 0.000000 
#    z -0.029500 0.000000 1.594770 
# 
# From -- ./inp_files/124255.got.cif
#   From: 2010.05.17/outbox.cif.g08.bks.cpg/sg15_63_cif.got.tgz:124255.got - 2010.06.03 18:47:42.
