data_PCOD9258085
_publ_section_title
;
Structure prediction by ZEFSAII (Michael W. Deem and Ramdas Pophale) SiO2 
 PCOD9258085
Probable space group: C 2/C
;
_chemical_formula_sum "Si O2"
_cell_formula_units_Z 60
_cell_length_a 15.373727
_cell_length_b 9.285637
_cell_length_c 17.054716
_cell_angle_alpha 90.000000
_cell_angle_beta 96.003019
_cell_angle_gamma 90.000000
_cell_volume 2421.292751
_symmetry_space_group_name_H-M "C 2/C"
_symmetry_group_IT_number 15
_symmetry_cell_setting 'monoclinic'
loop_
_space_group_symop_operation_xyz
x,y,z
-x,y,1/2-z
-x,-y,-z
x,-y,1/2+z
1/2+x,1/2+y,z
1/2-x,1/2+y,1/2-z
1/2-x,1/2-y,-z
1/2+x,1/2-y,1/2+z
loop_
_atom_site_type_symbol
_atom_site_label
_atom_site_fract_x
_atom_site_fract_y
_atom_site_fract_z
Si Si1 0.000000 0.653552 0.750000
Si Si2 0.943633 0.976773 0.397676
Si Si3 0.045714 0.597669 0.371100
Si Si4 0.285423 0.212404 0.205533
Si Si5 0.626871 0.584575 0.251770
Si Si6 0.148307 0.716220 0.117166
Si Si7 0.399337 0.690608 0.508443
Si Si8 0.271958 0.532022 0.595907
O O1 0.026805 0.554316 0.827116
O O2 0.081685 0.760463 0.746976
O O3 0.934899 0.979714 0.303783
O O4 0.927328 0.138918 0.425595
O O5 0.871436 0.866898 0.426754
O O6 0.032998 0.908059 0.434930
O O7 0.121846 0.670617 0.324623
O O8 0.084041 0.646332 0.460958
O O9 0.947636 0.660664 0.366474
O O10 0.215395 0.086183 0.207900
O O11 0.301016 0.248283 0.297746
O O12 0.242262 0.340015 0.151562
O O13 0.653049 0.539882 0.341600
O O14 0.200899 0.592290 0.077094
O O15 0.307819 0.619971 0.525161
#
# Coordination Sequence:
#
# PCOD9258085 Si02
#       8
#     4   8   8   8   8   8   8   8
#     4  12  22  34  56  88 114 148 196 256 306 340
#     4  10  20  39  56  84 117 159 195 239 300 352
#     4  10  20  36  57  83 113 151 198 237 300 353
#     4  10  19  33  55  84 112 147 187 244 289 364
#     4  11  23  33  57  85 122 144 193 255 296 341
#     4  10  18  32  59  82 114 152 189 242 290 362
#     4   9  21  37  61  81 116 158 200 236 290 374
#     4  10  20  35  55  90 113 147 197 245 300 343
#
# _framework density 24.780152000000001
#
# number of rings (size 3 to 8) (size 9 to 14) (size 15 to 20)
#    0.000    1.867    2.667    1.600    1.867    0.533 
#    0.000    3.333    0.000    1.600    0.000    0.000 
#    0.000    0.000    0.000    0.000    0.000    0.000 
#
# Total GULP energy -167241.703636 kJ/mol
# GULP energy per Si atom -5574.723455 kJ/mol
# Density = 2.472375 g / cm^3
# Si number density = 24.780152 Si / 1000 Ang^3
#
#
#
# Elastic Constant Matrix: (Units=GPa)
#
#
# Indices 1 2 3 4 5 6 
#
# 1 76.1663 24.6710 24.9404 0.0000 1.4487 0.0000
# 2 24.6710 100.2333 19.8163 0.0000 4.6552 0.0000
# 3 24.9404 19.8163 21.5308 0.0000 3.6017 0.0000
# 4 0.0000 0.0000 0.0000 34.1137 0.0000 6.1993
# 5 1.4487 4.6552 3.6017 0.0000 16.5114 0.0000
# 6 0.0000 0.0000 0.0000 6.1993 0.0000 51.5734
#
#
#
# Elastic Compliance Matrix: (Units=1/GPa)
#
#
# Indices 1 2 3 4 5 6 
#
# 1 0.021384 -0.000508 -0.024922 0.000000 0.003704 0.000000
# 2 -0.000508 0.012225 -0.010476 0.000000 -0.001117 0.000000
# 3 -0.024922 -0.010476 0.087281 0.000000 -0.013899 0.000000
# 4 0.000000 0.000000 0.000000 0.029968 0.000000 -0.003602
# 5 0.003704 -0.001117 -0.013899 0.000000 0.063586 0.000000
# 6 0.000000 0.000000 0.000000 -0.003602 0.000000 0.019823
#
#
# Mechanical properties :
#
#
# Convention : Reuss Voigt Hill
#
# Bulk Modulus (GPa) = 20.37610 37.42063 28.89837
# Shear Modulus (GPa) = 15.50686 29.00657 22.25672
#
# Velocity S-wave (km/s) = 2.50427 3.42505 3.00019
# Velocity P-wave (km/s) = 4.07461 5.54753 4.86711
#
# Compressibility (1/GPa) = 0.04907711
#
# Stress axis : x y z
#
# Youngs Moduli (GPa) = 46.76387 81.80123 11.45729
#
# Poissons Ratio (x) = 0.04157 0.28554
# Poissons Ratio (y) = 0.02377 0.12002
# Poissons Ratio (z) = 1.16546 0.85693
#
# Static dielectric constant tensor:
#      x y z
#    x 2.008300 0.000000 0.021160 
#    y 0.000000 2.023380 0.000000 
#    z 0.021160 0.000000 1.995050 
# 
# From -- ./inp_files/272804.got.cif
#   From: 2010.05.17/outbox.cif.g08.bks.cpg/sg15_137_cif.got.tgz:272804.got - 2010.06.03 18:47:42.
