data_PCOD9258135
_publ_section_title
;
Structure prediction by ZEFSAII (Michael W. Deem and Ramdas Pophale) SiO2 
 PCOD9258135
Probable space group: C 2/C
;
_chemical_formula_sum "Si O2"
_cell_formula_units_Z 60
_cell_length_a 5.236132
_cell_length_b 31.375371
_cell_length_c 19.254199
_cell_angle_alpha 90.000000
_cell_angle_beta 110.025950
_cell_angle_gamma 90.000000
_cell_volume 2971.933492
_symmetry_space_group_name_H-M "C 2/C"
_symmetry_group_IT_number 15
_symmetry_cell_setting 'monoclinic'
loop_
_space_group_symop_operation_xyz
x,y,z
-x,y,1/2-z
-x,-y,-z
x,-y,1/2+z
1/2+x,1/2+y,z
1/2-x,1/2+y,1/2-z
1/2-x,1/2-y,-z
1/2+x,1/2-y,1/2+z
loop_
_atom_site_type_symbol
_atom_site_label
_atom_site_fract_x
_atom_site_fract_y
_atom_site_fract_z
Si Si1 0.464520 0.379142 0.663471
Si Si2 0.854113 0.162821 0.558789
Si Si3 0.000000 0.317564 0.250000
Si Si4 0.973640 0.764388 0.329999
Si Si5 0.541777 0.123170 0.874970
Si Si6 0.604367 0.476909 0.840019
Si Si7 0.404301 0.831005 0.613011
Si Si8 0.895805 0.474566 0.160603
O O1 0.500000 0.377565 0.750000
O O2 0.432448 0.428442 0.639158
O O3 0.722576 0.357226 0.651077
O O4 0.185649 0.354608 0.621966
O O5 0.636325 0.131527 0.573737
O O6 0.772573 0.172764 0.472956
O O7 0.844796 0.205741 0.604385
O O8 0.154325 0.142342 0.590678
O O9 0.823510 0.284767 0.187845
O O10 0.107748 0.351263 0.202381
O O11 0.000000 0.771173 0.250000
O O12 0.019269 0.715516 0.351269
O O13 0.569496 0.073525 0.861285
O O14 0.500000 0.477615 0.750000
O O15 0.410319 0.508204 0.865093
O O16 0.910321 0.493980 0.864883
O O17 0.000000 0.475790 0.250000
#
# Coordination Sequence:
#
# PCOD9258135 Si02
#       8
#     8   8   4   8   8   8   8   8
#     4  11  23  43  66  95 123 165 216 269 313 363
#     4  11  25  42  60  91 132 175 203 257 314 377
#     4  10  22  38  60  98 124 160 194 272 306 360
#     4  11  23  41  65  93 129 159 216 263 315 364
#     4  11  21  39  63  89 133 159 211 244 319 375
#     4   9  19  34  58  92 128 152 198 267 324 358
#     4  12  26  41  66  90 128 171 216 253 313 379
#     4  10  18  32  60  96 123 157 201 260 320 374
#
# _framework density 20.188877000000002
#
# number of rings (size 3 to 8) (size 9 to 14) (size 15 to 20)
#    0.000    1.333    2.000    4.000    2.800    2.133 
#    0.000    3.333    0.000   16.000    0.000    0.000 
#    0.000    0.000    0.000    0.000    0.000    0.000 
#
# Total GULP energy -167460.758213 kJ/mol
# GULP energy per Si atom -5582.025274 kJ/mol
# Density = 2.014293 g / cm^3
# Si number density = 20.188877 Si / 1000 Ang^3
#
#
#
# Elastic Constant Matrix: (Units=GPa)
#
#
# Indices 1 2 3 4 5 6 
#
# 1 87.7258 31.6598 -6.7499 0.0000 -1.3805 0.0000
# 2 31.6598 141.4907 16.3084 0.0000 4.7955 0.0000
# 3 -6.7499 16.3084 58.2390 0.0000 -2.2356 0.0000
# 4 0.0000 0.0000 0.0000 14.2437 0.0000 -7.9329
# 5 -1.3805 4.7955 -2.2356 0.0000 18.0932 0.0000
# 6 0.0000 0.0000 0.0000 -7.9329 0.0000 34.3462
#
#
#
# Elastic Compliance Matrix: (Units=1/GPa)
#
#
# Indices 1 2 3 4 5 6 
#
# 1 0.012783 -0.003217 0.002464 0.000000 0.002132 0.000000
# 2 -0.003217 0.008201 -0.002775 0.000000 -0.002762 0.000000
# 3 0.002464 -0.002775 0.018356 0.000000 0.003192 0.000000
# 4 0.000000 0.000000 0.000000 0.080571 0.000000 0.018609
# 5 0.002132 -0.002762 0.003192 0.000000 0.056559 0.000000
# 6 0.000000 0.000000 0.000000 0.018609 0.000000 0.033413
#
#
# Mechanical properties :
#
#
# Convention : Reuss Voigt Hill
#
# Bulk Modulus (GPa) = 30.97473 41.09912 36.03692
# Shear Modulus (GPa) = 21.95874 29.75242 25.85558
#
# Velocity S-wave (km/s) = 3.30156 3.84305 3.58255
# Velocity P-wave (km/s) = 5.46895 6.33195 5.91621
#
# Compressibility (1/GPa) = 0.03228438
#
# Stress axis : x y z
#
# Youngs Moduli (GPa) = 78.22779 121.93864 54.47850
#
# Poissons Ratio (x) = 0.39223 -0.13424
# Poissons Ratio (y) = 0.25163 0.15119
# Poissons Ratio (z) = -0.19277 0.33841
#
# Static dielectric constant tensor:
#      x y z
#    x 1.814080 0.000000 -0.002810 
#    y 0.000000 1.678730 0.000000 
#    z -0.002810 0.000000 1.732720 
# 
# From -- ./inp_files/186752.got.cif
#   From: 2010.05.17/outbox.cif.g08.bks.cpg/sg15_94_cif.got.tgz:186752.got - 2010.06.03 18:47:42.
