data_PCOD9258497
_publ_section_title
;
Structure prediction by ZEFSAII (Michael W. Deem and Ramdas Pophale) SiO2 
 PCOD9258497
Probable space group: C 2/C
;
_chemical_formula_sum "Si O2"
_cell_formula_units_Z 48
_cell_length_a 9.828750
_cell_length_b 20.591703
_cell_length_c 13.704427
_cell_angle_alpha 90.000000
_cell_angle_beta 143.531058
_cell_angle_gamma 90.000000
_cell_volume 1648.620543
_symmetry_space_group_name_H-M "C 2/C"
_symmetry_group_IT_number 15
_symmetry_cell_setting 'monoclinic'
loop_
_space_group_symop_operation_xyz
x,y,z
-x,y,1/2-z
-x,-y,-z
x,-y,1/2+z
1/2+x,1/2+y,z
1/2-x,1/2+y,1/2-z
1/2-x,1/2-y,-z
1/2+x,1/2-y,1/2+z
loop_
_atom_site_type_symbol
_atom_site_label
_atom_site_fract_x
_atom_site_fract_y
_atom_site_fract_z
Si Si1 0.147820 0.653430 0.032077
Si Si2 0.094485 0.773851 0.641448
Si Si3 0.000000 0.052374 0.250000
Si Si4 0.196368 0.511255 0.251328
Si Si5 0.690603 0.893616 0.008840
Si Si6 0.454477 0.606516 0.935788
Si Si7 0.500000 0.786238 0.750000
O O1 0.292042 0.688426 0.203044
O O2 0.320521 0.599904 0.091075
O O3 0.932321 0.619503 0.959348
O O4 0.051132 0.711634 0.912326
O O5 0.297899 0.749026 0.687045
O O6 0.959521 0.824612 0.493281
O O7 0.835237 0.014890 0.228661
O O8 0.342987 0.564326 0.396187
O O9 0.235172 0.439761 0.315318
O O10 0.942401 0.539682 0.098458
O O11 0.597328 0.834077 0.888183
O O12 0.949793 0.891651 0.120220
#
# Coordination Sequence:
#
# PCOD9258497 Si02
#       7
#     8   8   4   8   8   8   4
#     4  10  21  36  60  82 121 154 192 234 286 359
#     4  10  19  36  56  90 112 155 189 237 293 340
#     4  10  20  40  56  84 114 162 190 232 302 344
#     4  10  18  33  58  80 108 151 191 235 281 349
#     4   9  15  33  53  81 105 145 184 233 291 332
#     4  10  18  33  59  82 110 144 197 238 282 345
#     4   8  14  28  54  76 110 138 188 228 274 336
#
# _framework density 29.115248999999999
#
# number of rings (size 3 to 8) (size 9 to 14) (size 15 to 20)
#    0.000    2.333    6.667    0.000    0.000    6.667 
#    0.000    6.667    3.667    0.000    0.000    0.000 
#    0.000    0.000    0.000    0.000    0.000    0.000 
#
# Total GULP energy -134463.575715 kJ/mol
# GULP energy per Si atom -5602.648988 kJ/mol
# Density = 2.904898 g / cm^3
# Si number density = 29.115249 Si / 1000 Ang^3
#
#
#
# Elastic Constant Matrix: (Units=GPa)
#
#
# Indices 1 2 3 4 5 6 
#
# 1 111.3310 -0.6385 29.6591 0.0000 19.1984 0.0000
# 2 -0.6385 128.9463 68.4068 0.0000 11.8536 0.0000
# 3 29.6591 68.4068 93.8631 0.0000 13.3959 0.0000
# 4 0.0000 0.0000 0.0000 64.3127 0.0000 -7.7042
# 5 19.1984 11.8536 13.3959 0.0000 54.4278 0.0000
# 6 0.0000 0.0000 0.0000 -7.7042 0.0000 9.0394
#
#
#
# Elastic Compliance Matrix: (Units=1/GPa)
#
#
# Indices 1 2 3 4 5 6 
#
# 1 0.010979 0.003175 -0.005318 0.000000 -0.003255 0.000000
# 2 0.003175 0.013575 -0.010690 0.000000 -0.001445 0.000000
# 3 -0.005318 -0.010690 0.020236 0.000000 -0.000776 0.000000
# 4 0.000000 0.000000 0.000000 0.017317 0.000000 0.014759
# 5 -0.003255 -0.001445 -0.000776 0.000000 0.020027 0.000000
# 6 0.000000 0.000000 0.000000 0.014759 0.000000 0.123206
#
#
# Mechanical properties :
#
#
# Convention : Reuss Voigt Hill
#
# Bulk Modulus (GPa) = 52.29501 58.77724 55.53612
# Shear Modulus (GPa) = 21.06312 41.33685 31.19999
#
# Velocity S-wave (km/s) = 2.69260 3.77207 3.27709
# Velocity P-wave (km/s) = 5.25996 6.26122 5.78230
#
# Compressibility (1/GPa) = 0.01912228
#
# Stress axis : x y z
#
# Youngs Moduli (GPa) = 91.08634 73.66448 49.41631
#
# Poissons Ratio (x) = -0.23389 0.26282
# Poissons Ratio (y) = -0.28920 0.52828
# Poissons Ratio (z) = 0.48444 0.78750
#
# Static dielectric constant tensor:
#      x y z
#    x 2.319530 0.000000 -0.038470 
#    y 0.000000 2.206410 0.000000 
#    z -0.038470 0.000000 2.309270 
# 
# From -- ./inp_files/240476.got.cif
#   From: 2010.05.17/outbox.cif.g08.bks.cpg/sg15_121_cif.got.tgz:240476.got - 2010.06.03 18:47:42.
