data_PCOD9258461
_publ_section_title
;
Structure prediction by ZEFSAII (Michael W. Deem and Ramdas Pophale) SiO2 
 PCOD9258461
Probable space group: C 2/C
;
_chemical_formula_sum "Si O2"
_cell_formula_units_Z 48
_cell_length_a 13.454886
_cell_length_b 7.091819
_cell_length_c 18.004451
_cell_angle_alpha 90.000000
_cell_angle_beta 72.476179
_cell_angle_gamma 90.000000
_cell_volume 1638.249630
_symmetry_space_group_name_H-M "C 2/C"
_symmetry_group_IT_number 15
_symmetry_cell_setting 'monoclinic'
loop_
_space_group_symop_operation_xyz
x,y,z
-x,y,1/2-z
-x,-y,-z
x,-y,1/2+z
1/2+x,1/2+y,z
1/2-x,1/2+y,1/2-z
1/2-x,1/2-y,-z
1/2+x,1/2-y,1/2+z
loop_
_atom_site_type_symbol
_atom_site_label
_atom_site_fract_x
_atom_site_fract_y
_atom_site_fract_z
Si Si1 0.250419 0.959344 0.774488
Si Si2 0.898993 0.860069 0.816026
Si Si3 0.604224 0.522166 0.428370
Si Si4 0.232955 0.036562 0.532941
Si Si5 0.427692 0.080269 0.334761
Si Si6 0.594476 0.967748 0.392694
O O1 0.190904 0.844988 0.724261
O O2 0.313675 0.860778 0.828627
O O3 0.342056 0.028999 0.698947
O O4 0.152722 0.056925 0.839881
O O5 0.861451 0.001558 0.888062
O O6 0.000000 0.926423 0.750000
O O7 0.918484 0.648800 0.839185
O O8 0.500000 0.500000 0.500000
O O9 0.692794 0.448062 0.466201
O O10 0.587999 0.744383 0.410856
O O11 0.250000 0.250000 0.500000
O O12 0.334537 0.966426 0.553984
O O13 0.500000 0.139776 0.250000
O O14 0.492687 0.098229 0.397450
#
# Coordination Sequence:
#
# PCOD9258461 Si02
#       6
#     8   8   8   8   8   8
#     4  10  19  31  55  84 110 144 187 231 276 332
#     4  10  18  33  57  82 106 143 187 226 271 335
#     4  11  20  35  59  86 111 145 191 239 281 330
#     4   9  19  33  53  80 110 139 178 236 285 321
#     4   9  17  32  54  79 104 138 183 228 270 327
#     4   9  19  36  56  79 112 149 185 230 283 341
#
# _framework density 29.299564
#
# number of rings (size 3 to 8) (size 9 to 14) (size 15 to 20)
#    0.000    2.333    0.000    5.000    0.000    0.000 
#    0.000    4.167    0.000   96.000    0.000    0.000 
#    0.000    0.000    0.000    0.000    0.000    0.000 
#
# Total GULP energy -133857.943163 kJ/mol
# GULP energy per Si atom -5577.414298 kJ/mol
# Density = 2.923288 g / cm^3
# Si number density = 29.299564 Si / 1000 Ang^3
#
#
#
# Elastic Constant Matrix: (Units=GPa)
#
#
# Indices 1 2 3 4 5 6 
#
# 1 158.3132 -6.3066 19.1160 0.0000 39.6427 0.0000
# 2 -6.3066 96.8760 18.6545 0.0000 -4.9971 0.0000
# 3 19.1160 18.6545 168.1424 0.0000 -24.1402 0.0000
# 4 0.0000 0.0000 0.0000 41.0580 0.0000 -2.1379
# 5 39.6427 -4.9971 -24.1402 0.0000 80.7180 0.0000
# 6 0.0000 0.0000 0.0000 -2.1379 0.0000 20.4305
#
#
#
# Elastic Compliance Matrix: (Units=1/GPa)
#
#
# Indices 1 2 3 4 5 6 
#
# 1 0.007556 0.000571 -0.001515 0.000000 -0.004129 0.000000
# 2 0.000571 0.010599 -0.001240 0.000000 0.000005 0.000000
# 3 -0.001515 -0.001240 0.006638 0.000000 0.002653 0.000000
# 4 0.000000 0.000000 0.000000 0.024489 0.000000 0.002563
# 5 -0.004129 0.000005 0.002653 0.000000 0.015210 0.000000
# 6 0.000000 0.000000 0.000000 0.002563 0.000000 0.049214
#
#
# Mechanical properties :
#
#
# Convention : Reuss Voigt Hill
#
# Bulk Modulus (GPa) = 48.96232 54.02881 51.49557
# Shear Modulus (GPa) = 40.03727 54.56583 47.30155
#
# Velocity S-wave (km/s) = 3.70060 4.32017 4.02233
# Velocity P-wave (km/s) = 5.91663 6.58523 6.25987
#
# Compressibility (1/GPa) = 0.02042387
#
# Stress axis : x y z
#
# Youngs Moduli (GPa) = 132.34232 94.35147 150.64782
#
# Poissons Ratio (x) = -0.05385 0.22825
# Poissons Ratio (y) = -0.07553 0.18681
# Poissons Ratio (z) = 0.20052 0.11700
#
# Static dielectric constant tensor:
#      x y z
#    x 2.455730 0.000000 -0.014030 
#    y 0.000000 2.509780 0.000000 
#    z -0.014030 0.000000 2.149870 
# 
# From -- ./inp_files/196509.got.cif
#   From: 2010.05.17/outbox.cif.g08.bks.cpg/sg15_99_cif.got.tgz:196509.got - 2010.06.03 18:47:42.
