data_PCOD9258532
_publ_section_title
;
Structure prediction by ZEFSAII (Michael W. Deem and Ramdas Pophale) SiO2 
 PCOD9258532
Probable space group: C 2/C
;
_chemical_formula_sum "Si O2"
_cell_formula_units_Z 48
_cell_length_a 9.223241
_cell_length_b 16.848635
_cell_length_c 14.178216
_cell_angle_alpha 90.000000
_cell_angle_beta 110.621253
_cell_angle_gamma 90.000000
_cell_volume 2062.114392
_symmetry_space_group_name_H-M "C 2/C"
_symmetry_group_IT_number 15
_symmetry_cell_setting 'monoclinic'
loop_
_space_group_symop_operation_xyz
x,y,z
-x,y,1/2-z
-x,-y,-z
x,-y,1/2+z
1/2+x,1/2+y,z
1/2-x,1/2+y,1/2-z
1/2-x,1/2-y,-z
1/2+x,1/2-y,1/2+z
loop_
_atom_site_type_symbol
_atom_site_label
_atom_site_fract_x
_atom_site_fract_y
_atom_site_fract_z
Si Si1 0.198338 0.832781 0.034194
Si Si2 0.850610 0.366065 0.565836
Si Si3 0.212890 0.579974 0.635036
Si Si4 0.459412 0.546012 0.133168
Si Si5 0.563741 0.304045 0.387902
Si Si6 0.708904 0.024094 0.840900
O O1 0.315583 0.901526 0.095679
O O2 0.103666 0.819420 0.108842
O O3 0.250000 0.750000 0.000000
O O4 0.087877 0.877107 0.934550
O O5 0.595416 0.111465 0.528314
O O6 0.678220 0.332489 0.500726
O O7 0.930257 0.289504 0.626427
O O8 0.857343 0.442471 0.632796
O O9 0.309961 0.510681 0.605109
O O10 0.347205 0.648150 0.674153
O O11 0.160563 0.548696 0.723964
O O12 0.500000 0.565778 0.250000
O O13 0.605582 0.497883 0.124423
#
# Coordination Sequence:
#
# PCOD9258532 Si02
#       6
#     8   8   8   8   8   8
#     4  12  22  36  52  86 121 147 184 247 289 329
#     4   9  17  34  60  81 113 143 195 234 282 340
#     4   9  17  31  60  85 104 143 191 240 281 324
#     4  10  18  33  59  81 104 144 197 236 275 330
#     4   9  18  35  54  84 111 149 190 233 283 340
#     4  11  18  34  60  82 112 146 194 239 278 340
#
# _framework density 23.277079000000001
#
# number of rings (size 3 to 8) (size 9 to 14) (size 15 to 20)
#    1.000    1.000    5.000    0.500    0.000    0.000 
#    9.000    0.833    0.000    0.000    4.333    0.000 
#    0.000    0.000    0.000    0.000    0.000    0.000 
#
# Total GULP energy -133832.032332 kJ/mol
# GULP energy per Si atom -5576.334680 kJ/mol
# Density = 2.322410 g / cm^3
# Si number density = 23.277079 Si / 1000 Ang^3
#
#
#
# Elastic Constant Matrix: (Units=GPa)
#
#
# Indices 1 2 3 4 5 6 
#
# 1 55.0834 41.3665 27.8479 0.0000 -20.5016 0.0000
# 2 41.3665 214.1487 82.3669 0.0000 -31.8648 0.0000
# 3 27.8479 82.3669 112.7966 0.0000 -24.6973 0.0000
# 4 0.0000 0.0000 0.0000 11.7883 0.0000 -15.3857
# 5 -20.5016 -31.8648 -24.6973 0.0000 27.6105 0.0000
# 6 0.0000 0.0000 0.0000 -15.3857 0.0000 18.0170
#
#
#
# Elastic Compliance Matrix: (Units=1/GPa)
#
#
# Indices 1 2 3 4 5 6 
#
# 1 0.026411 -0.002191 -0.001468 0.000000 0.015770 0.000000
# 2 -0.002191 0.007060 -0.003963 0.000000 0.002976 0.000000
# 3 -0.001468 -0.003963 0.013532 0.000000 0.006441 0.000000
# 4 0.000000 0.000000 0.000000 -0.740519 0.000000 -0.632370
# 5 0.015770 0.002976 0.006441 0.000000 0.057124 0.000000
# 6 0.000000 0.000000 0.000000 -0.632370 0.000000 -0.484513
#
#
# Mechanical properties :
#
#
# Convention : Reuss Voigt Hill
#
# Bulk Modulus (GPa) = 31.48632 76.13238 53.80935
# Shear Modulus (GPa) = -4.56589 26.84632 11.14021
#
# Velocity S-wave (km/s) = -1.40207 3.39977 2.19005
# Velocity P-wave (km/s) = 3.30682 6.94185 5.43711
#
# Compressibility (1/GPa) = 0.03175982
#
# Stress axis : x y z
#
# Youngs Moduli (GPa) = 37.86325 141.64570 73.89957
#
# Poissons Ratio (x) = 0.31029 0.10849
# Poissons Ratio (y) = 0.08294 0.29285
# Poissons Ratio (z) = 0.05558 0.56131
#
# Static dielectric constant tensor:
#      x y z
#    x 1.995190 0.000000 0.073710 
#    y 0.000000 1.871900 0.000000 
#    z 0.073710 0.000000 1.935140 
# 
# From -- ./inp_files/143762.got.cif
#   From: 2010.05.17/outbox.cif.g08.bks.cpg/sg15_72_cif.got.tgz:143762.got - 2010.06.03 18:47:42.
