data_PCOD9258310
_publ_section_title
;
Structure prediction by ZEFSAII (Michael W. Deem and Ramdas Pophale) SiO2 
 PCOD9258310
Probable space group: C 2/C
;
_chemical_formula_sum "Si O2"
_cell_formula_units_Z 56
_cell_length_a 8.156839
_cell_length_b 12.997745
_cell_length_c 24.295191
_cell_angle_alpha 90.000000
_cell_angle_beta 89.838263
_cell_angle_gamma 90.000000
_cell_volume 2575.778359
_symmetry_space_group_name_H-M "C 2/C"
_symmetry_group_IT_number 15
_symmetry_cell_setting 'monoclinic'
loop_
_space_group_symop_operation_xyz
x,y,z
-x,y,1/2-z
-x,-y,-z
x,-y,1/2+z
1/2+x,1/2+y,z
1/2-x,1/2+y,1/2-z
1/2-x,1/2-y,-z
1/2+x,1/2-y,1/2+z
loop_
_atom_site_type_symbol
_atom_site_label
_atom_site_fract_x
_atom_site_fract_y
_atom_site_fract_z
Si Si1 0.537303 0.442922 0.688142
Si Si2 0.040091 0.324831 0.088114
Si Si3 0.249923 0.526525 0.112652
Si Si4 0.296787 0.158683 0.121029
Si Si5 0.429983 0.816850 0.805501
Si Si6 0.946072 0.608214 0.475072
Si Si7 0.603713 0.210103 0.799832
O O1 0.500000 0.486256 0.750000
O O2 0.424775 0.490773 0.640404
O O3 0.718506 0.428799 0.661487
O O4 0.475789 0.324317 0.694320
O O5 0.163640 0.420700 0.096080
O O6 0.148272 0.223534 0.096706
O O7 0.918692 0.336936 0.139928
O O8 0.954498 0.321325 0.028865
O O9 0.152200 0.592477 0.158849
O O10 0.224440 0.596711 0.057989
O O11 0.416796 0.224761 0.160011
O O12 0.413674 0.128683 0.070508
O O13 0.500000 0.862703 0.750000
O O14 0.294609 0.731896 0.790228
O O15 0.000000 0.500000 0.500000
O O16 0.500000 0.160417 0.750000
#
# Coordination Sequence:
#
# PCOD9258310 Si02
#       7
#     8   8   8   8   8   8   8
#     4   9  17  34  56  79 108 141 175 214 264 329
#     4  10  19  35  53  77 108 136 176 231 275 314
#     4   9  19  34  53  77 103 138 177 216 264 324
#     4  10  19  33  55  79 105 140 177 221 272 320
#     4  10  18  33  54  76 104 142 179 212 265 337
#     4   9  19  36  54  74 104 141 183 223 265 324
#     4   9  18  33  54  76 104 140 178 223 274 322
#
# _framework density 21.741002000000002
#
# number of rings (size 3 to 8) (size 9 to 14) (size 15 to 20)
#    0.000    2.571    0.000    3.857    0.000    0.571 
#    0.000   23.571    0.000    0.000    0.000    0.000 
#    0.000    0.000    0.000    0.000    0.000    0.000 
#
# Total GULP energy -155884.342433 kJ/mol
# GULP energy per Si atom -5567.297944 kJ/mol
# Density = 2.169152 g / cm^3
# Si number density = 21.741002 Si / 1000 Ang^3
#
#
#
# Elastic Constant Matrix: (Units=GPa)
#
#
# Indices 1 2 3 4 5 6 
#
# 1 67.7293 -1.5039 58.2012 0.0000 15.4227 0.0000
# 2 -1.5039 16.8193 14.4900 0.0000 -1.1935 0.0000
# 3 58.2012 14.4900 181.5655 0.0000 17.2475 0.0000
# 4 0.0000 0.0000 0.0000 41.9756 0.0000 2.5053
# 5 15.4227 -1.1935 17.2475 0.0000 26.4540 0.0000
# 6 0.0000 0.0000 0.0000 2.5053 0.0000 14.1157
#
#
#
# Elastic Compliance Matrix: (Units=1/GPa)
#
#
# Indices 1 2 3 4 5 6 
#
# 1 0.023029 0.007664 -0.007197 0.000000 -0.008388 0.000000
# 2 0.007664 0.067499 -0.008217 0.000000 0.003935 0.000000
# 3 -0.007197 -0.008217 0.008642 0.000000 -0.001810 0.000000
# 4 0.000000 0.000000 0.000000 0.024078 0.000000 -0.004274
# 5 -0.008388 0.003935 -0.001810 0.000000 0.044049 0.000000
# 6 0.000000 0.000000 0.000000 -0.004274 0.000000 0.071601
#
#
# Mechanical properties :
#
#
# Convention : Reuss Voigt Hill
#
# Bulk Modulus (GPa) = 11.95159 45.38762 28.66961
# Shear Modulus (GPa) = 17.71225 29.50419 23.60822
#
# Velocity S-wave (km/s) = 2.85738 3.68785 3.29885
# Velocity P-wave (km/s) = 4.04912 6.24944 5.26549
#
# Compressibility (1/GPa) = 0.08367085
#
# Stress axis : x y z
#
# Youngs Moduli (GPa) = 43.42276 14.81495 115.70938
#
# Poissons Ratio (x) = -0.11354 0.83275
# Poissons Ratio (y) = -0.33280 0.95083
# Poissons Ratio (z) = 0.31251 0.12174
#
# Static dielectric constant tensor:
#      x y z
#    x 1.886660 0.000000 -0.014740 
#    y 0.000000 1.838720 0.000000 
#    z -0.014740 0.000000 1.943220 
# 
# From -- ./inp_files/231571.got.cif
#   From: 2010.05.17/outbox.cif.g08.bks.cpg/sg15_116_cif.got.tgz:231571.got - 2010.06.03 18:47:42.
