data_PCOD9258351
_publ_section_title
;
Structure prediction by ZEFSAII (Michael W. Deem and Ramdas Pophale) SiO2 
 PCOD9258351
Probable space group: C 2/C
;
_chemical_formula_sum "Si O2"
_cell_formula_units_Z 44
_cell_length_a 16.615512
_cell_length_b 7.400904
_cell_length_c 29.160519
_cell_angle_alpha 90.000000
_cell_angle_beta 27.606956
_cell_angle_gamma 90.000000
_cell_volume 1661.702112
_symmetry_space_group_name_H-M "C 2/C"
_symmetry_group_IT_number 15
_symmetry_cell_setting 'monoclinic'
loop_
_space_group_symop_operation_xyz
x,y,z
-x,y,1/2-z
-x,-y,-z
x,-y,1/2+z
1/2+x,1/2+y,z
1/2-x,1/2+y,1/2-z
1/2-x,1/2-y,-z
1/2+x,1/2-y,1/2+z
loop_
_atom_site_type_symbol
_atom_site_label
_atom_site_fract_x
_atom_site_fract_y
_atom_site_fract_z
Si Si1 0.005057 0.590803 0.600053
Si Si2 0.593867 0.309213 0.026259
Si Si3 0.000000 0.091118 0.250000
Si Si4 0.896850 0.690203 0.041722
Si Si5 0.467006 0.980246 0.820053
Si Si6 0.893292 0.124159 0.716684
O O1 0.103022 0.401652 0.538758
O O2 0.067386 0.729460 0.529688
O O3 0.025935 0.632659 0.643514
O O4 0.802156 0.559918 0.692039
O O5 0.476168 0.316696 0.040407
O O6 0.499142 0.400207 0.116790
O O7 0.780595 0.385355 0.919460
O O8 0.808542 0.177804 0.348375
O O9 0.986290 0.971500 0.211591
O O10 0.000000 0.500000 0.000000
O O11 0.500000 0.015251 0.750000
O O12 0.606361 0.834206 0.768222
#
# Coordination Sequence:
#
# PCOD9258351 Si02
#       6
#     8   8   4   8   8   8
#     4  10  20  35  54  87 123 148 191 247 289 344
#     4  10  20  36  56  90 120 151 200 245 285 357
#     4  12  18  30  58  88 112 158 190 244 296 338
#     4  10  18  33  54  87 120 144 197 241 291 339
#     4  11  21  35  60  90 115 155 200 242 294 349
#     4  11  19  32  57  85 117 153 191 238 294 336
#
# _framework density 26.478874000000001
#
# number of rings (size 3 to 8) (size 9 to 14) (size 15 to 20)
#    0.000    1.455    4.545    6.545    0.000    0.000 
#    0.000    0.909    2.000    1.091    0.000    0.000 
#    0.000    0.000    0.000    0.000    0.000    0.000 
#
# Total GULP energy -123293.811576 kJ/mol
# GULP energy per Si atom -5604.264163 kJ/mol
# Density = 2.641861 g / cm^3
# Si number density = 26.478874 Si / 1000 Ang^3
#
#
#
# Elastic Constant Matrix: (Units=GPa)
#
#
# Indices 1 2 3 4 5 6 
#
# 1 255.2964 46.1926 104.5279 -0.0004 41.2865 -0.0003
# 2 46.1926 61.7451 38.9359 -0.0008 9.0130 -0.0005
# 3 104.5279 38.9359 186.2580 -0.0082 16.4132 -0.0031
# 4 -0.0004 -0.0008 -0.0082 12.1469 -0.0018 -12.9843
# 5 41.2865 9.0130 16.4132 -0.0018 76.5953 -0.0003
# 6 -0.0003 -0.0005 -0.0031 -12.9843 -0.0003 24.2725
#
#
#
# Elastic Compliance Matrix: (Units=1/GPa)
#
#
# Indices 1 2 3 4 5 6 
#
# 1 0.005751 -0.002374 -0.002530 -0.000006 -0.002278 -0.000003
# 2 -0.002374 0.019780 -0.002762 -0.000002 -0.000456 -0.000001
# 3 -0.002530 -0.002762 0.007356 0.000013 0.000113 0.000008
# 4 -0.000006 -0.000002 0.000013 0.192268 0.000005 0.102852
# 5 -0.002278 -0.000456 0.000113 0.000005 0.014313 0.000003
# 6 -0.000003 -0.000001 0.000008 0.102852 0.000003 0.096218
#
#
# Mechanical properties :
#
#
# Convention : Reuss Voigt Hill
#
# Bulk Modulus (GPa) = 56.96752 98.06803 77.51778
# Shear Modulus (GPa) = 14.01059 43.51245 28.76152
#
# Velocity S-wave (km/s) = 2.30276 4.05815 3.29934
# Velocity P-wave (km/s) = 5.35082 7.68601 6.62217
#
# Compressibility (1/GPa) = 0.01755386
#
# Stress axis : x y z
#
# Youngs Moduli (GPa) = 173.87920 50.55536 135.93430
#
# Poissons Ratio (x) = 0.12003 0.34397
# Poissons Ratio (y) = 0.41284 0.37549
# Poissons Ratio (z) = 0.43999 0.13965
#
# Static dielectric constant tensor:
#      x y z
#    x 2.049640 0.000000 0.060580 
#    y 0.000000 2.211240 0.000000 
#    z 0.060580 0.000000 2.005440 
# 
# From -- ./inp_files/295860.got.cif
#   From: 2010.05.17/outbox.cif.g08.bks.cpg/sg15_148_cif.got.tgz:295860.got - 2010.06.03 18:47:42.
