data_PCOD9258188
_publ_section_title
;
Structure prediction by ZEFSAII (Michael W. Deem and Ramdas Pophale) SiO2 
 PCOD9258188
Probable space group: C 2/C
;
_chemical_formula_sum "Si O2"
_cell_formula_units_Z 64
_cell_length_a 9.756257
_cell_length_b 16.787235
_cell_length_c 24.596216
_cell_angle_alpha 90.000000
_cell_angle_beta 40.367349
_cell_angle_gamma 90.000000
_cell_volume 2609.126221
_symmetry_space_group_name_H-M "C 2/C"
_symmetry_group_IT_number 15
_symmetry_cell_setting 'monoclinic'
loop_
_space_group_symop_operation_xyz
x,y,z
-x,y,1/2-z
-x,-y,-z
x,-y,1/2+z
1/2+x,1/2+y,z
1/2-x,1/2+y,1/2-z
1/2-x,1/2-y,-z
1/2+x,1/2-y,1/2+z
loop_
_atom_site_type_symbol
_atom_site_label
_atom_site_fract_x
_atom_site_fract_y
_atom_site_fract_z
Si Si1 0.419382 0.792784 0.639796
Si Si2 0.680174 0.930330 0.518521
Si Si3 0.867410 0.133067 0.363665
Si Si4 0.279833 0.096601 0.268091
Si Si5 0.082909 0.712236 0.591549
Si Si6 0.725850 0.969452 0.622410
Si Si7 0.733539 0.139074 0.653889
Si Si8 0.555693 0.083834 0.941643
O O1 0.616994 0.840583 0.555334
O O2 0.231304 0.834726 0.661714
O O3 0.389840 0.825169 0.709063
O O4 0.390264 0.700441 0.636018
O O5 0.795460 0.960378 0.538948
O O6 0.722427 0.922285 0.440841
O O7 0.492161 0.998266 0.570991
O O8 0.984127 0.210390 0.354464
O O9 0.671068 0.106394 0.460613
O O10 0.061634 0.072972 0.304470
O O11 0.225424 0.099445 0.348628
O O12 0.467674 0.032774 0.200309
O O13 0.250000 0.750000 0.500000
O O14 0.209040 0.660913 0.597881
O O15 0.921138 0.654724 0.608931
O O16 0.798285 0.047872 0.632425
O O17 0.500000 0.148478 0.750000
#
# Coordination Sequence:
#
# PCOD9258188 Si02
#       8
#     8   8   8   8   8   8   8   8
#     4   9  18  29  51  79 104 131 176 225 273 316
#     4   9  17  31  49  79 103 147 173 225 263 332
#     4   9  17  29  49  81 104 136 176 230 274 312
#     4  10  18  33  47  78 108 143 171 225 275 331
#     4   9  17  29  51  81 113 132 176 236 274 311
#     4  10  20  32  52  76 110 143 181 220 277 336
#     4  11  18  31  51  83 108 132 178 237 272 315
#     4   9  16  29  52  77 108 138 184 221 273 317
#
# _framework density 24.529284000000001
#
# number of rings (size 3 to 8) (size 9 to 14) (size 15 to 20)
#    0.000    2.500    2.500    2.625    0.000    0.000 
#    0.000    0.625    0.000    0.750   42.250    0.000 
#    0.000    0.000    0.000    0.000    0.000    0.000 
#
# Total GULP energy -178143.183981 kJ/mol
# GULP energy per Si atom -5566.974499 kJ/mol
# Density = 2.447345 g / cm^3
# Si number density = 24.529284 Si / 1000 Ang^3
#
#
#
# Elastic Constant Matrix: (Units=GPa)
#
#
# Indices 1 2 3 4 5 6 
#
# 1 67.7353 52.2018 20.6306 0.0006 33.5975 -0.0005
# 2 52.2018 114.1334 9.6567 0.0010 17.1556 -0.0007
# 3 20.6306 9.6567 55.5014 0.0041 13.7014 -0.0023
# 4 0.0006 0.0010 0.0041 18.2646 -0.0002 18.6009
# 5 33.5975 17.1556 13.7014 -0.0002 54.1024 0.0001
# 6 -0.0005 -0.0007 -0.0023 18.6009 0.0001 45.0027
#
#
#
# Elastic Compliance Matrix: (Units=1/GPa)
#
#
# Indices 1 2 3 4 5 6 
#
# 1 0.034456 -0.012843 -0.006716 0.000002 -0.015624 -0.000001
# 2 -0.012843 0.014033 0.001559 -0.000001 0.003131 0.000001
# 3 -0.006716 0.001559 0.020625 -0.000010 -0.001547 0.000005
# 4 0.000002 -0.000001 -0.000010 0.094552 0.000002 -0.039081
# 5 -0.015624 0.003131 -0.001547 0.000002 0.027585 -0.000001
# 6 -0.000001 0.000001 0.000005 -0.039081 -0.000001 0.038374
#
#
# Mechanical properties :
#
#
# Convention : Reuss Voigt Hill
#
# Bulk Modulus (GPa) = 30.19812 44.70536 37.45174
# Shear Modulus (GPa) = 18.07259 33.79933 25.93596
#
# Velocity S-wave (km/s) = 2.71731 3.71606 3.25521
# Velocity P-wave (km/s) = 4.70986 6.05615 5.42493
#
# Compressibility (1/GPa) = 0.03311465
#
# Stress axis : x y z
#
# Youngs Moduli (GPa) = 29.02245 71.26014 48.48564
#
# Poissons Ratio (x) = 0.91517 0.32564
# Poissons Ratio (y) = 0.37272 -0.07561
# Poissons Ratio (z) = 0.19492 -0.11112
#
# Static dielectric constant tensor:
#      x y z
#    x 1.981950 0.000000 0.056910 
#    y 0.000000 2.090680 0.000000 
#    z 0.056910 0.000000 1.972830 
# 
# From -- ./inp_files/293237.got.cif
#   From: 2010.05.17/outbox.cif.g08.bks.cpg/sg15_147_cif.got.tgz:293237.got - 2010.06.03 18:47:42.
