data_PCOD9258810
_publ_section_title
;
Structure prediction by ZEFSAII (Michael W. Deem and Ramdas Pophale) SiO2 
 PCOD9258810
Probable space group: C 2/C
;
_chemical_formula_sum "Si O2"
_cell_formula_units_Z 64
_cell_length_a 19.597463
_cell_length_b 12.169384
_cell_length_c 11.594381
_cell_angle_alpha 90.000000
_cell_angle_beta 89.506577
_cell_angle_gamma 90.000000
_cell_volume 2765.030405
_symmetry_space_group_name_H-M "C 2/C"
_symmetry_group_IT_number 15
_symmetry_cell_setting 'monoclinic'
loop_
_space_group_symop_operation_xyz
x,y,z
-x,y,1/2-z
-x,-y,-z
x,-y,1/2+z
1/2+x,1/2+y,z
1/2-x,1/2+y,1/2-z
1/2-x,1/2-y,-z
1/2+x,1/2-y,1/2+z
loop_
_atom_site_type_symbol
_atom_site_label
_atom_site_fract_x
_atom_site_fract_y
_atom_site_fract_z
Si Si1 0.170989 0.783237 0.477011
Si Si2 0.873913 0.674418 0.799564
Si Si3 0.200991 0.362989 0.573000
Si Si4 0.409814 0.736939 0.068633
Si Si5 0.405426 0.063929 0.256194
Si Si6 0.667168 0.534197 0.539725
Si Si7 0.010703 0.619899 0.445384
Si Si8 0.782383 0.837306 0.266467
O O1 0.250000 0.750000 0.500000
O O2 0.127414 0.709152 0.566910
O O3 0.171290 0.790730 0.337665
O O4 0.153989 0.907504 0.516681
O O5 0.898717 0.764125 0.706117
O O6 0.917359 0.566101 0.769771
O O7 0.794436 0.648172 0.774490
O O8 0.143721 0.329779 0.479855
O O9 0.167165 0.419203 0.684348
O O10 0.261144 0.436758 0.524128
O O11 0.224682 0.248529 0.627810
O O12 0.387614 0.622119 0.009662
O O13 0.483468 0.783820 0.029322
O O14 0.455793 0.126874 0.341702
O O15 0.419242 0.106233 0.128067
O O16 0.681532 0.559208 0.674174
O O17 0.000000 0.500000 0.500000
#
# Coordination Sequence:
#
# PCOD9258810 Si02
#       8
#     8   8   8   8   8   8   8   8
#     4  10  24  32  47  83 119 157 207 247 295 358
#     4  11  19  35  50  82 119 156 194 249 305 361
#     4  10  18  34  55  81 112 159 202 237 302 375
#     4  10  19  34  58  80 115 156 202 247 301 379
#     4  10  22  33  56  88 123 151 197 257 312 359
#     4  11  20  36  57  80 117 172 206 244 307 378
#     4  10  20  37  56  88 116 154 203 249 316 370
#     4  10  20  35  52  80 120 160 200 245 297 372
#
# _framework density 23.146218999999999
#
# number of rings (size 3 to 8) (size 9 to 14) (size 15 to 20)
#    0.000    1.750    3.750    2.250    1.750    3.000 
#    0.000    0.000    0.000    0.000    0.000   14.000 
#    0.000    0.125    0.000    0.000    0.000    0.000 
#
# Total GULP energy -178581.129338 kJ/mol
# GULP energy per Si atom -5580.660292 kJ/mol
# Density = 2.309354 g / cm^3
# Si number density = 23.146219 Si / 1000 Ang^3
#
#
#
# Elastic Constant Matrix: (Units=GPa)
#
#
# Indices 1 2 3 4 5 6 
#
# 1 68.7559 14.2172 31.7184 0.0000 -24.2554 0.0000
# 2 14.2172 64.5228 23.7973 0.0000 -10.5334 0.0000
# 3 31.7184 23.7973 181.2966 0.0000 -24.4390 0.0000
# 4 0.0000 0.0000 0.0000 29.9865 0.0000 -8.4612
# 5 -24.2554 -10.5334 -24.4390 0.0000 33.4850 0.0000
# 6 0.0000 0.0000 0.0000 -8.4612 0.0000 26.2559
#
#
#
# Elastic Compliance Matrix: (Units=1/GPa)
#
#
# Indices 1 2 3 4 5 6 
#
# 1 0.020190 -0.001763 -0.001557 0.000000 0.012934 0.000000
# 2 -0.001763 0.016926 -0.001517 0.000000 0.002940 0.000000
# 3 -0.001557 -0.001517 0.006401 0.000000 0.003066 0.000000
# 4 0.000000 0.000000 0.000000 0.036684 0.000000 0.011822
# 5 0.012934 0.002940 0.003066 0.000000 0.042396 0.000000
# 6 0.000000 0.000000 0.000000 0.011822 0.000000 0.041896
#
#
# Mechanical properties :
#
#
# Convention : Reuss Voigt Hill
#
# Bulk Modulus (GPa) = 29.54874 50.44899 39.99887
# Shear Modulus (GPa) = 26.96170 34.26833 30.61501
#
# Velocity S-wave (km/s) = 3.41668 3.85192 3.64081
# Velocity P-wave (km/s) = 5.32530 6.45183 5.91544
#
# Compressibility (1/GPa) = 0.03384239
#
# Stress axis : x y z
#
# Youngs Moduli (GPa) = 49.52985 59.07946 156.23163
#
# Poissons Ratio (x) = 0.10415 0.24332
# Poissons Ratio (y) = 0.08731 0.23700
# Poissons Ratio (z) = 0.07714 0.08962
#
# Static dielectric constant tensor:
#      x y z
#    x 1.985470 0.000000 -0.011170 
#    y 0.000000 1.915660 0.000000 
#    z -0.011170 0.000000 1.987970 
# 
# From -- ./inp_files/117559.got.cif
#   From: 2010.05.17/outbox.cif.g08.bks.cpg/sg15_59_cif.got.tgz:117559.got - 2010.06.03 18:47:42.
