data_PCOD9258103
_publ_section_title
;
Structure prediction by ZEFSAII (Michael W. Deem and Ramdas Pophale) SiO2 
 PCOD9258103
Probable space group: C 2/C
;
_chemical_formula_sum "Si O2"
_cell_formula_units_Z 60
_cell_length_a 11.985356
_cell_length_b 23.266482
_cell_length_c 21.869180
_cell_angle_alpha 90.000000
_cell_angle_beta 147.974204
_cell_angle_gamma 90.000000
_cell_volume 3233.974740
_symmetry_space_group_name_H-M "C 2/C"
_symmetry_group_IT_number 15
_symmetry_cell_setting 'monoclinic'
loop_
_space_group_symop_operation_xyz
x,y,z
-x,y,1/2-z
-x,-y,-z
x,-y,1/2+z
1/2+x,1/2+y,z
1/2-x,1/2+y,1/2-z
1/2-x,1/2-y,-z
1/2+x,1/2-y,1/2+z
loop_
_atom_site_type_symbol
_atom_site_label
_atom_site_fract_x
_atom_site_fract_y
_atom_site_fract_z
Si Si1 0.807775 0.600338 0.284888
Si Si2 0.969188 0.519095 0.915472
Si Si3 0.950864 0.691729 0.029329
Si Si4 0.055151 0.066662 0.993507
Si Si5 0.785287 0.135019 0.689327
Si Si6 0.401494 0.456304 0.550637
Si Si7 0.476679 0.315569 0.089100
Si Si8 0.000000 0.412943 0.750000
O O1 0.565215 0.585581 0.160114
O O2 0.912579 0.619329 0.269021
O O3 0.902519 0.538554 0.348552
O O4 0.874059 0.647590 0.364637
O O5 0.808434 0.572292 0.840092
O O6 0.185130 0.540693 0.985649
O O7 0.000000 0.500000 0.000000
O O8 0.016905 0.757456 0.070351
O O9 0.875049 0.671139 0.927588
O O10 0.742747 0.686862 0.975426
O O11 0.047952 0.130623 0.966514
O O12 0.014990 0.021953 0.920037
O O13 0.291410 0.054422 0.129427
O O14 0.898761 0.061421 0.977985
O O15 0.846216 0.169520 0.778602
O O16 0.000000 0.127694 0.750000
#
# Coordination Sequence:
#
# PCOD9258103 Si02
#       8
#     8   8   8   8   8   8   8   4
#     4  11  21  36  59  88 123 156 199 248 300 358
#     4  12  23  37  61  85 127 160 194 250 296 375
#     4  10  20  38  58  92 122 151 204 253 304 352
#     4  10  19  38  57  88 124 151 199 250 293 357
#     4  10  23  39  59  89 120 155 197 252 304 360
#     4  10  23  36  58  91 119 161 195 243 306 363
#     4  10  20  37  63  86 120 158 202 255 303 348
#     4  10  18  32  60  80 124 152 188 254 290 336
#
# _framework density 18.55302
#
# number of rings (size 3 to 8) (size 9 to 14) (size 15 to 20)
#    0.000    1.600    4.000    0.800    3.733    2.133 
#    2.400    0.000    0.000    4.800    0.000    0.000 
#    0.000    0.000    0.000    0.000    0.000    0.000 
#
# Total GULP energy -167275.761536 kJ/mol
# GULP energy per Si atom -5575.858718 kJ/mol
# Density = 1.851079 g / cm^3
# Si number density = 18.553020 Si / 1000 Ang^3
#
#
#
# Elastic Constant Matrix: (Units=GPa)
#
#
# Indices 1 2 3 4 5 6 
#
# 1 71.9747 20.7621 27.9065 -0.0004 -1.2388 -0.0004
# 2 20.7621 142.9366 58.6718 0.0002 -11.6378 -0.0005
# 3 27.9065 58.6718 92.7369 -0.0023 -16.6743 -0.0008
# 4 -0.0004 0.0002 -0.0023 22.6262 -0.0005 1.2527
# 5 -1.2388 -11.6378 -16.6743 -0.0005 15.3225 -0.0001
# 6 -0.0004 -0.0005 -0.0008 1.2527 -0.0001 16.6861
#
#
#
# Elastic Compliance Matrix: (Units=1/GPa)
#
#
# Indices 1 2 3 4 5 6 
#
# 1 0.016050 -0.000522 -0.005392 0.000000 -0.004967 0.000000
# 2 -0.000522 0.009476 -0.005659 -0.000001 0.000997 0.000000
# 3 -0.005392 -0.005659 0.018817 0.000002 0.015743 0.000000
# 4 0.000000 -0.000001 0.000002 0.044381 0.000003 -0.003332
# 5 -0.004967 0.000997 0.015743 0.000003 0.082751 0.000001
# 6 0.000000 0.000000 0.000000 -0.003332 0.000001 0.060180
#
#
# Mechanical properties :
#
#
# Convention : Reuss Voigt Hill
#
# Bulk Modulus (GPa) = 47.17992 58.03656 52.60824
# Shear Modulus (GPa) = 19.09373 24.28082 21.68727
#
# Velocity S-wave (km/s) = 3.21151 3.62156 3.42268
# Velocity P-wave (km/s) = 6.26392 6.98834 6.63602
#
# Compressibility (1/GPa) = 0.02119546
#
# Stress axis : x y z
#
# Youngs Moduli (GPa) = 62.30637 105.53107 53.14476
#
# Poissons Ratio (x) = 0.05512 0.28658
# Poissons Ratio (y) = 0.03254 0.30073
# Poissons Ratio (z) = 0.33598 0.59716
#
# Static dielectric constant tensor:
#      x y z
#    x 1.631290 0.000000 -0.014430 
#    y 0.000000 1.638890 0.000000 
#    z -0.014430 0.000000 1.676960 
# 
# From -- ./inp_files/240872.got.cif
#   From: 2010.05.17/outbox.cif.g08.bks.cpg/sg15_121_cif.got.tgz:240872.got - 2010.06.03 18:47:42.
