data_PCOD9258224
_publ_section_title
;
Structure prediction by ZEFSAII (Michael W. Deem and Ramdas Pophale) SiO2 
 PCOD9258224
Probable space group: C 2/C
;
_chemical_formula_sum "Si O2"
_cell_formula_units_Z 56
_cell_length_a 21.536351
_cell_length_b 9.624554
_cell_length_c 14.045170
_cell_angle_alpha 90.000000
_cell_angle_beta 131.049868
_cell_angle_gamma 90.000000
_cell_volume 2195.486264
_symmetry_space_group_name_H-M "C 2/C"
_symmetry_group_IT_number 15
_symmetry_cell_setting 'monoclinic'
loop_
_space_group_symop_operation_xyz
x,y,z
-x,y,1/2-z
-x,-y,-z
x,-y,1/2+z
1/2+x,1/2+y,z
1/2-x,1/2+y,1/2-z
1/2-x,1/2-y,-z
1/2+x,1/2-y,1/2+z
loop_
_atom_site_type_symbol
_atom_site_label
_atom_site_fract_x
_atom_site_fract_y
_atom_site_fract_z
Si Si1 0.915312 0.278813 0.269410
Si Si2 0.742146 0.307849 0.760315
Si Si3 0.603154 0.526800 0.751362
Si Si4 0.400305 0.800210 0.041141
Si Si5 0.931137 0.739593 0.128122
Si Si6 0.386754 0.504674 0.454145
Si Si7 0.237008 0.361655 0.072099
O O1 0.835391 0.260491 0.258328
O O2 0.891530 0.340795 0.143232
O O3 0.004813 0.334227 0.394997
O O4 0.937321 0.118574 0.267165
O O5 0.703475 0.435165 0.661436
O O6 0.766885 0.203619 0.701277
O O7 0.823772 0.349762 0.899618
O O8 0.582250 0.659204 0.793127
O O9 0.583512 0.540196 0.620247
O O10 0.700797 0.511314 0.875328
O O11 0.386949 0.632208 0.017065
O O12 0.000000 0.648532 0.250000
O O13 0.930342 0.860553 0.045901
O O14 0.860663 0.635008 0.024097
O O15 0.250000 0.250000 0.000000
#
# Coordination Sequence:
#
# PCOD9258224 Si02
#       7
#     8   8   8   8   8   8   8
#     4  10  22  34  61  90 111 147 188 235 292 343
#     4  10  21  37  54  84 117 154 185 232 288 341
#     4  10  18  33  51  78 109 142 178 230 277 332
#     4  11  20  38  58  88 120 142 188 241 284 336
#     4  10  19  31  49  77 111 139 179 229 276 331
#     4  10  20  32  54  80 109 147 182 227 283 326
#     4   9  19  34  48  73 114 153 184 221 280 337
#
# _framework density 25.506878
#
# number of rings (size 3 to 8) (size 9 to 14) (size 15 to 20)
#    0.000    2.000    2.857    1.286    0.000    6.286 
#    0.000    0.000    0.000    0.857   22.286    0.000 
#    0.000    0.000    0.000    0.000    0.000    0.000 
#
# Total GULP energy -156008.076272 kJ/mol
# GULP energy per Si atom -5571.717010 kJ/mol
# Density = 2.544882 g / cm^3
# Si number density = 25.506878 Si / 1000 Ang^3
#
#
#
# Elastic Constant Matrix: (Units=GPa)
#
#
# Indices 1 2 3 4 5 6 
#
# 1 93.5838 11.7086 45.6246 0.0000 -17.1274 0.0000
# 2 11.7086 50.3711 18.9846 0.0000 4.2980 0.0000
# 3 45.6246 18.9846 234.0415 0.0000 17.6850 0.0000
# 4 0.0000 0.0000 0.0000 25.6534 0.0000 -5.9895
# 5 -17.1274 4.2980 17.6850 0.0000 43.0475 0.0000
# 6 0.0000 0.0000 0.0000 -5.9895 0.0000 10.3838
#
#
#
# Elastic Compliance Matrix: (Units=1/GPa)
#
#
# Indices 1 2 3 4 5 6 
#
# 1 0.013752 -0.002664 -0.002991 0.000000 0.006966 0.000000
# 2 -0.002664 0.021077 -0.000982 0.000000 -0.002761 0.000000
# 3 -0.002991 -0.000982 0.005179 0.000000 -0.003220 0.000000
# 4 0.000000 0.000000 0.000000 0.045048 0.000000 0.025984
# 5 0.006966 -0.002761 -0.003220 0.000000 0.027600 0.000000
# 6 0.000000 0.000000 0.000000 0.025984 0.000000 0.111292
#
#
# Mechanical properties :
#
#
# Convention : Reuss Voigt Hill
#
# Bulk Modulus (GPa) = 37.40426 58.95911 48.18168
# Shear Modulus (GPa) = 20.31415 35.92885 28.12150
#
# Velocity S-wave (km/s) = 2.82515 3.75720 3.32400
# Velocity P-wave (km/s) = 5.03370 6.47975 5.80196
#
# Compressibility (1/GPa) = 0.02673492
#
# Stress axis : x y z
#
# Youngs Moduli (GPa) = 72.71589 47.44404 193.09512
#
# Poissons Ratio (x) = 0.12638 0.57759
# Poissons Ratio (y) = 0.19369 0.18959
# Poissons Ratio (z) = 0.21751 0.04658
#
# Static dielectric constant tensor:
#      x y z
#    x 2.287930 0.000000 0.209970 
#    y 0.000000 2.012550 0.000000 
#    z 0.209970 0.000000 2.230950 
# 
# From -- ./inp_files/168500.got.cif
#   From: 2010.05.17/outbox.cif.g08.bks.cpg/sg15_85_cif.got.tgz:168500.got - 2010.06.03 18:47:42.
