data_PCOD9258265
_publ_section_title
;
Structure prediction by ZEFSAII (Michael W. Deem and Ramdas Pophale) SiO2 
 PCOD9258265
Probable space group: C 2/C
;
_chemical_formula_sum "Si O2"
_cell_formula_units_Z 64
_cell_length_a 16.762052
_cell_length_b 12.028106
_cell_length_c 21.537738
_cell_angle_alpha 90.000000
_cell_angle_beta 127.734542
_cell_angle_gamma 90.000000
_cell_volume 3434.165565
_symmetry_space_group_name_H-M "C 2/C"
_symmetry_group_IT_number 15
_symmetry_cell_setting 'monoclinic'
loop_
_space_group_symop_operation_xyz
x,y,z
-x,y,1/2-z
-x,-y,-z
x,-y,1/2+z
1/2+x,1/2+y,z
1/2-x,1/2+y,1/2-z
1/2-x,1/2-y,-z
1/2+x,1/2-y,1/2+z
loop_
_atom_site_type_symbol
_atom_site_label
_atom_site_fract_x
_atom_site_fract_y
_atom_site_fract_z
Si Si1 0.400797 0.085477 0.842070
Si Si2 0.660699 0.127886 0.118749
Si Si3 0.518901 0.548460 0.406586
Si Si4 0.177261 0.831204 0.696228
Si Si5 0.420918 0.108471 0.657532
Si Si6 0.763275 0.512710 0.659237
Si Si7 0.943118 0.850678 0.442300
Si Si8 0.691706 0.674828 0.421601
O O1 0.361540 0.208673 0.836695
O O2 0.517190 0.092478 0.875978
O O3 0.381040 0.993153 0.884229
O O4 0.334405 0.046705 0.750779
O O5 0.736722 0.166137 0.210273
O O6 0.572627 0.220132 0.073209
O O7 0.727038 0.129814 0.088059
O O8 0.417204 0.593317 0.325477
O O9 0.506015 0.420270 0.421132
O O10 0.518121 0.616640 0.471203
O O11 0.619207 0.583292 0.418102
O O12 0.221399 0.892211 0.656478
O O13 0.500000 0.088201 0.750000
O O14 0.380871 0.233871 0.644919
O O15 0.326890 0.028529 0.626979
O O16 0.669009 0.595794 0.613097
O O17 0.750000 0.750000 0.500000
#
# Coordination Sequence:
#
# PCOD9258265 Si02
#       8
#     8   8   8   8   8   8   8   8
#     4  10  19  32  52  82 106 138 179 222 270 320
#     4  11  21  34  56  80 113 141 173 225 277 316
#     4  10  21  32  56  79 106 140 182 222 261 323
#     4  10  19  34  53  80 110 142 181 216 271 326
#     4  10  18  33  53  76 103 137 182 216 259 322
#     4   9  17  31  55  75 103 145 180 221 261 320
#     4  10  18  36  52  78 106 142 180 216 270 322
#     4  12  21  34  53  81 105 135 181 230 270 310
#
# _framework density 18.636258999999999
#
# number of rings (size 3 to 8) (size 9 to 14) (size 15 to 20)
#    0.000    1.750    5.000    0.750    0.000    0.000 
#    0.000    3.750    0.000    0.000    0.000    7.000 
#    0.000    0.000    0.000    0.000    0.000    0.000 
#
# Total GULP energy -178514.482071 kJ/mol
# GULP energy per Si atom -5578.577565 kJ/mol
# Density = 1.859384 g / cm^3
# Si number density = 18.636259 Si / 1000 Ang^3
#
#
#
# Elastic Constant Matrix: (Units=GPa)
#
#
# Indices 1 2 3 4 5 6 
#
# 1 134.7249 74.3918 -6.3603 0.0000 -7.6368 0.0000
# 2 74.3918 111.1054 -11.0117 0.0000 -16.2119 0.0000
# 3 -6.3603 -11.0117 11.4207 0.0000 2.2171 0.0000
# 4 0.0000 0.0000 0.0000 17.4993 0.0000 0.3920
# 5 -7.6368 -16.2119 2.2171 0.0000 15.8659 0.0000
# 6 0.0000 0.0000 0.0000 0.3920 0.0000 28.9255
#
#
#
# Elastic Compliance Matrix: (Units=1/GPa)
#
#
# Indices 1 2 3 4 5 6 
#
# 1 0.011894 -0.008470 -0.001001 0.000000 -0.002790 0.000000
# 2 -0.008470 0.017440 0.009694 0.000000 0.012389 0.000000
# 3 -0.001001 0.009694 0.097156 0.000000 -0.004153 0.000000
# 4 0.000000 0.000000 0.000000 0.057162 0.000000 -0.000775
# 5 -0.002790 0.012389 -0.004153 0.000000 0.074925 0.000000
# 6 0.000000 0.000000 0.000000 -0.000775 0.000000 0.034582
#
#
# Mechanical properties :
#
#
# Convention : Reuss Voigt Hill
#
# Bulk Modulus (GPa) = 7.87811 41.25452 24.56632
# Shear Modulus (GPa) = 14.92420 25.80690 20.36555
#
# Velocity S-wave (km/s) = 2.83294 3.72528 3.30933
# Velocity P-wave (km/s) = 3.86487 6.37875 5.27378
#
# Compressibility (1/GPa) = 0.12693404
#
# Stress axis : x y z
#
# Youngs Moduli (GPa) = 84.07495 57.33863 10.29277
#
# Poissons Ratio (x) = 0.48567 0.01031
# Poissons Ratio (y) = 0.71213 -0.09977
# Poissons Ratio (z) = 0.08419 -0.55582
#
# Static dielectric constant tensor:
#      x y z
#    x 1.664380 0.000000 0.023230 
#    y 0.000000 1.640930 0.000000 
#    z 0.023230 0.000000 1.712180 
# 
# From -- ./inp_files/210350.got.cif
#   From: 2010.05.17/outbox.cif.g08.bks.cpg/sg15_106_cif.got.tgz:210350.got - 2010.06.03 18:47:42.
