data_PCOD9258740
_publ_section_title
;
Structure prediction by ZEFSAII (Michael W. Deem and Ramdas Pophale) SiO2 
 PCOD9258740
Probable space group: C 2/C
;
_chemical_formula_sum "Si O2"
_cell_formula_units_Z 48
_cell_length_a 24.999812
_cell_length_b 9.887717
_cell_length_c 10.007474
_cell_angle_alpha 90.000000
_cell_angle_beta 105.123180
_cell_angle_gamma 90.000000
_cell_volume 2388.084897
_symmetry_space_group_name_H-M "C 2/C"
_symmetry_group_IT_number 15
_symmetry_cell_setting 'monoclinic'
loop_
_space_group_symop_operation_xyz
x,y,z
-x,y,1/2-z
-x,-y,-z
x,-y,1/2+z
1/2+x,1/2+y,z
1/2-x,1/2+y,1/2-z
1/2-x,1/2-y,-z
1/2+x,1/2-y,1/2+z
loop_
_atom_site_type_symbol
_atom_site_label
_atom_site_fract_x
_atom_site_fract_y
_atom_site_fract_z
Si Si1 0.214429 0.892605 0.623200
Si Si2 0.206531 0.137201 0.805563
Si Si3 0.500000 0.500000 0.000000
Si Si4 0.407317 0.281004 0.928156
Si Si5 0.040104 0.479540 0.150433
Si Si6 0.583675 0.271407 0.245146
Si Si7 0.000000 0.982971 0.250000
O O1 0.212155 0.915017 0.461912
O O2 0.258970 0.775437 0.678811
O O3 0.154192 0.837750 0.628702
O O4 0.226948 0.026841 0.714047
O O5 0.141975 0.170181 0.738581
O O6 0.453982 0.387317 0.916087
O O7 0.538765 0.459956 0.887854
O O8 0.418959 0.143086 0.856382
O O9 0.415754 0.258977 0.093375
O O10 0.070769 0.622560 0.187163
O O11 0.000000 0.453252 0.250000
O O12 0.000000 0.500000 0.000000
O O13 0.533929 0.377912 0.172042
#
# Coordination Sequence:
#
# PCOD9258740 Si02
#       7
#     8   8   4   8   8   8   4
#     4  10  23  44  65  96 126 168 218 268 323 381
#     4  10  23  43  68  91 130 166 215 271 323 377
#     4  10  20  34  54  80 114 152 190 246 300 358
#     4  10  22  39  61  88 126 161 210 257 313 379
#     4  12  22  39  59  92 124 166 210 251 315 383
#     4  10  20  40  59  82 125 166 193 259 317 366
#     4  10  18  34  54  78 112 152 192 236 304 366
#
# _framework density 20.099789000000001
#
# number of rings (size 3 to 8) (size 9 to 14) (size 15 to 20)
#    0.000    1.667    2.500    2.000    3.500    0.667 
#    3.000    0.000    0.000    0.000    0.000    0.000 
#    0.000    0.000    0.000    0.000    0.000    0.000 
#
# Total GULP energy -133618.556669 kJ/mol
# GULP energy per Si atom -5567.439861 kJ/mol
# Density = 2.005404 g / cm^3
# Si number density = 20.099789 Si / 1000 Ang^3
#
#
#
# Elastic Constant Matrix: (Units=GPa)
#
#
# Indices 1 2 3 4 5 6 
#
# 1 63.7923 13.2637 -5.1682 0.0000 10.0672 0.0000
# 2 13.2637 95.8243 12.4877 0.0000 -5.3564 0.0000
# 3 -5.1682 12.4877 60.0183 0.0000 -9.3674 0.0000
# 4 0.0000 0.0000 0.0000 32.9338 0.0000 -5.9981
# 5 10.0672 -5.3564 -9.3674 0.0000 27.8343 0.0000
# 6 0.0000 0.0000 0.0000 -5.9981 0.0000 31.8197
#
#
#
# Elastic Compliance Matrix: (Units=1/GPa)
#
#
# Indices 1 2 3 4 5 6 
#
# 1 0.017393 -0.002912 0.001092 0.000000 -0.006484 0.000000
# 2 -0.002912 0.011265 -0.002208 0.000000 0.002478 0.000000
# 3 0.001092 -0.002208 0.018034 0.000000 0.005250 0.000000
# 4 0.000000 0.000000 0.000000 0.031443 0.000000 0.005927
# 5 -0.006484 0.002478 0.005250 0.000000 0.040516 0.000000
# 6 0.000000 0.000000 0.000000 0.005927 0.000000 0.032544
#
#
# Mechanical properties :
#
#
# Convention : Reuss Voigt Hill
#
# Bulk Modulus (GPa) = 25.88283 28.97795 27.43039
# Shear Modulus (GPa) = 29.04762 31.78766 30.41764
#
# Velocity S-wave (km/s) = 3.80566 3.98111 3.89438
# Velocity P-wave (km/s) = 5.67590 5.96495 5.82222
#
# Compressibility (1/GPa) = 0.03863565
#
# Stress axis : x y z
#
# Youngs Moduli (GPa) = 57.49427 88.76966 55.44996
#
# Poissons Ratio (x) = 0.25851 -0.06053
# Poissons Ratio (y) = 0.16743 0.12243
# Poissons Ratio (z) = -0.06277 0.19599
#
# Static dielectric constant tensor:
#      x y z
#    x 3.028000 0.000000 0.588810 
#    y 0.000000 1.592010 0.000000 
#    z 0.588810 0.000000 1.736940 
# 
# From -- ./inp_files/116476.got.cif
#   From: 2010.05.17/outbox.cif.g08.bks.cpg/sg15_59_cif.got.tgz:116476.got - 2010.06.03 18:47:42.
