data_PCOD9258114
_publ_section_title
;
Structure prediction by ZEFSAII (Michael W. Deem and Ramdas Pophale) SiO2 
 PCOD9258114
Probable space group: C 2/C
;
_chemical_formula_sum "Si O2"
_cell_formula_units_Z 52
_cell_length_a 9.787117
_cell_length_b 20.195277
_cell_length_c 10.596253
_cell_angle_alpha 90.000000
_cell_angle_beta 86.127525
_cell_angle_gamma 90.000000
_cell_volume 2089.605080
_symmetry_space_group_name_H-M "C 2/C"
_symmetry_group_IT_number 15
_symmetry_cell_setting 'monoclinic'
loop_
_space_group_symop_operation_xyz
x,y,z
-x,y,1/2-z
-x,-y,-z
x,-y,1/2+z
1/2+x,1/2+y,z
1/2-x,1/2+y,1/2-z
1/2-x,1/2-y,-z
1/2+x,1/2-y,1/2+z
loop_
_atom_site_type_symbol
_atom_site_label
_atom_site_fract_x
_atom_site_fract_y
_atom_site_fract_z
Si Si1 0.847665 0.122726 0.317159
Si Si2 0.192341 0.393794 0.581504
Si Si3 0.000000 0.073491 0.750000
Si Si4 0.348691 0.475096 0.045592
Si Si5 0.016175 0.686114 0.537302
Si Si6 0.690715 0.223444 0.722902
Si Si7 0.099254 0.808859 0.088996
O O1 0.826472 0.084119 0.448278
O O2 0.841528 0.202433 0.319590
O O3 0.000000 0.106507 0.250000
O O4 0.728200 0.104964 0.225978
O O5 0.243002 0.464942 0.529612
O O6 0.042620 0.372992 0.543406
O O7 0.288251 0.332851 0.521360
O O8 0.036421 0.122048 0.633691
O O9 0.869174 0.037477 0.695930
O O10 0.500000 0.500000 0.000000
O O11 0.910250 0.697853 0.659954
O O12 0.999817 0.753642 0.459696
O O13 0.159330 0.680080 0.601070
O O14 0.832701 0.218236 0.786980
#
# Coordination Sequence:
#
# PCOD9258114 Si02
#       7
#     8   8   4   8   8   8   8
#     4  12  18  32  55  83 114 145 188 228 286 340
#     4  11  20  34  55  80 115 147 189 233 273 338
#     4  12  24  38  52  88 126 146 182 234 292 350
#     4  12  23  33  51  82 116 155 180 223 287 341
#     4  10  18  34  57  86 109 145 196 240 279 325
#     4  10  18  32  60  88 108 146 190 242 285 329
#     4  11  20  36  55  87 117 148 185 238 292 330
#
# _framework density 24.885086000000001
#
# number of rings (size 3 to 8) (size 9 to 14) (size 15 to 20)
#    0.000    0.923    7.692    2.769    0.000    0.000 
#    0.000    3.077    0.000    0.923    4.000    0.000 
#    0.000    0.000    0.000    0.000    0.000    0.000 
#
# Total GULP energy -145306.085884 kJ/mol
# GULP energy per Si atom -5588.695611 kJ/mol
# Density = 2.482845 g / cm^3
# Si number density = 24.885086 Si / 1000 Ang^3
#
#
#
# Elastic Constant Matrix: (Units=GPa)
#
#
# Indices 1 2 3 4 5 6 
#
# 1 23.3386 24.7938 48.3957 0.0000 2.2890 0.0000
# 2 24.7938 120.6787 75.0946 0.0000 14.1948 0.0000
# 3 48.3957 75.0946 207.3136 0.0000 50.8232 0.0000
# 4 0.0000 0.0000 0.0000 44.8953 0.0000 5.5872
# 5 2.2890 14.1948 50.8232 0.0000 39.2303 0.0000
# 6 0.0000 0.0000 0.0000 5.5872 0.0000 21.5672
#
#
#
# Elastic Compliance Matrix: (Units=1/GPa)
#
#
# Indices 1 2 3 4 5 6 
#
# 1 0.121078 -0.007509 -0.035871 0.000000 0.042124 0.000000
# 2 -0.007509 0.011240 -0.002094 0.000000 -0.000916 0.000000
# 3 -0.035871 -0.002094 0.019427 0.000000 -0.022317 0.000000
# 4 0.000000 0.000000 0.000000 0.023016 0.000000 -0.005963
# 5 0.042124 -0.000916 -0.022317 0.000000 0.052276 0.000000
# 6 0.000000 0.000000 0.000000 -0.005963 0.000000 0.047911
#
#
# Mechanical properties :
#
#
# Convention : Reuss Voigt Hill
#
# Bulk Modulus (GPa) = 16.44843 71.98878 44.21861
# Shear Modulus (GPa) = 12.94792 34.67502 23.81147
#
# Velocity S-wave (km/s) = 2.28350 3.73688 3.09667
# Velocity P-wave (km/s) = 3.68465 6.90003 5.53114
#
# Compressibility (1/GPa) = 0.06079606
#
# Stress axis : x y z
#
# Youngs Moduli (GPa) = 8.25917 88.96848 51.47442
#
# Poissons Ratio (x) = 0.66806 1.84646
# Poissons Ratio (y) = 0.06202 0.10778
# Poissons Ratio (z) = 0.29627 0.18629
#
# Static dielectric constant tensor:
#      x y z
#    x 2.139960 0.000000 0.005880 
#    y 0.000000 2.012620 0.000000 
#    z 0.005880 0.000000 2.068850 
# 
# From -- ./inp_files/98469.got.cif
#   From: 2010.05.17/outbox.cif.g08.bks.cpg/sg15_50_cif.got.tgz:98469.got - 2010.06.03 18:47:42.
