data_PCOD9258880
_publ_section_title
;
Structure prediction by ZEFSAII (Michael W. Deem and Ramdas Pophale) SiO2 
 PCOD9258880
Probable space group: C 2/C
;
_chemical_formula_sum "Si O2"
_cell_formula_units_Z 48
_cell_length_a 21.125822
_cell_length_b 11.488108
_cell_length_c 12.771771
_cell_angle_alpha 90.000000
_cell_angle_beta 33.691963
_cell_angle_gamma 90.000000
_cell_volume 1719.464124
_symmetry_space_group_name_H-M "C 2/C"
_symmetry_group_IT_number 15
_symmetry_cell_setting 'monoclinic'
loop_
_space_group_symop_operation_xyz
x,y,z
-x,y,1/2-z
-x,-y,-z
x,-y,1/2+z
1/2+x,1/2+y,z
1/2-x,1/2+y,1/2-z
1/2-x,1/2-y,-z
1/2+x,1/2-y,1/2+z
loop_
_atom_site_type_symbol
_atom_site_label
_atom_site_fract_x
_atom_site_fract_y
_atom_site_fract_z
Si Si1 0.032178 0.401261 0.040718
Si Si2 0.171798 0.134442 0.593725
Si Si3 0.911291 0.171957 0.002922
Si Si4 0.825200 0.422800 0.049241
Si Si5 0.384735 0.309390 0.776084
Si Si6 0.637526 0.668675 0.954625
O O1 0.088000 0.475917 0.053151
O O2 0.921832 0.326037 0.216520
O O3 0.123360 0.292346 0.908291
O O4 0.000000 0.500000 0.000000
O O5 0.250000 0.250000 0.500000
O O6 0.147039 0.099563 0.509440
O O7 0.254155 0.049494 0.542489
O O8 0.047446 0.150855 0.816813
O O9 0.857774 0.161297 0.191774
O O10 0.893993 0.301871 0.976469
O O11 0.727847 0.407282 0.269972
O O12 0.507148 0.375547 0.625210
O O13 0.169263 0.183610 0.033575
#
# Coordination Sequence:
#
# PCOD9258880 Si02
#       6
#     8   8   8   8   8   8
#     4  10  19  36  58  93 130 175 227 288 334 394
#     4   9  19  32  50  91 118 172 213 263 333 404
#     4  10  18  34  56  86 128 164 222 272 331 403
#     4  11  19  35  63  90 133 173 226 285 344 404
#     4   9  18  38  56  89 133 166 222 281 327 405
#     4   9  20  36  57  95 130 168 229 271 346 402
#
# _framework density 27.915673000000002
#
# number of rings (size 3 to 8) (size 9 to 14) (size 15 to 20)
#    1.000    1.333    3.333    0.000    0.000    0.667 
#   12.000    0.000    0.000    1.000    0.000    7.000 
#    0.000    0.000    0.000    0.000    0.000    0.000 
#
# Total GULP energy -134048.574749 kJ/mol
# GULP energy per Si atom -5585.357281 kJ/mol
# Density = 2.785214 g / cm^3
# Si number density = 27.915673 Si / 1000 Ang^3
#
#
#
# Elastic Constant Matrix: (Units=GPa)
#
#
# Indices 1 2 3 4 5 6 
#
# 1 284.4017 52.3548 69.1417 0.0000 -14.9279 0.0000
# 2 52.3548 107.0908 37.5732 0.0000 3.8941 0.0000
# 3 69.1417 37.5732 128.3404 0.0000 -3.1804 0.0000
# 4 0.0000 0.0000 0.0000 9.3255 0.0000 12.7881
# 5 -14.9279 3.8941 -3.1804 0.0000 54.1281 0.0000
# 6 0.0000 0.0000 0.0000 12.7881 0.0000 18.6743
#
#
#
# Elastic Compliance Matrix: (Units=1/GPa)
#
#
# Indices 1 2 3 4 5 6 
#
# 1 0.004304 -0.001498 -0.001851 0.000000 0.001186 0.000000
# 2 -0.001498 0.010975 -0.002439 0.000000 -0.001346 0.000000
# 3 -0.001851 -0.002439 0.009509 0.000000 0.000224 0.000000
# 4 0.000000 0.000000 0.000000 1.759724 0.000000 -1.205049
# 5 0.001186 -0.001346 0.000224 0.000000 0.018912 0.000000
# 6 0.000000 0.000000 0.000000 -1.205049 0.000000 0.878760
#
#
# Mechanical properties :
#
#
# Convention : Reuss Voigt Hill
#
# Bulk Modulus (GPa) = 75.69281 93.10803 84.40042
# Shear Modulus (GPa) = 1.85311 40.47647 21.16479
#
# Velocity S-wave (km/s) = 0.81564 3.81196 2.75647
# Velocity P-wave (km/s) = 5.29723 7.26639 6.35850
#
# Compressibility (1/GPa) = 0.01321130
#
# Stress axis : x y z
#
# Youngs Moduli (GPa) = 232.33499 91.11596 105.16781
#
# Poissons Ratio (x) = 0.13649 0.19465
# Poissons Ratio (y) = 0.34803 0.25655
# Poissons Ratio (z) = 0.43002 0.22227
#
# Static dielectric constant tensor:
#      x y z
#    x 2.216130 0.000000 0.010340 
#    y 0.000000 2.389760 0.000000 
#    z 0.010340 0.000000 2.149850 
# 
# From -- ./inp_files/255592.got.cif
#   From: 2010.05.17/outbox.cif.g08.bks.cpg/sg15_128_cif.got.tgz:255592.got - 2010.06.03 18:47:42.
