data_PCOD9258606
_publ_section_title
;
Structure prediction by ZEFSAII (Michael W. Deem and Ramdas Pophale) SiO2 
 PCOD9258606
Probable space group: C 2/C
;
_chemical_formula_sum "Si O2"
_cell_formula_units_Z 64
_cell_length_a 9.359985
_cell_length_b 17.130085
_cell_length_c 18.596229
_cell_angle_alpha 90.000000
_cell_angle_beta 119.773993
_cell_angle_gamma 90.000000
_cell_volume 2588.062443
_symmetry_space_group_name_H-M "C 2/C"
_symmetry_group_IT_number 15
_symmetry_cell_setting 'monoclinic'
loop_
_space_group_symop_operation_xyz
x,y,z
-x,y,1/2-z
-x,-y,-z
x,-y,1/2+z
1/2+x,1/2+y,z
1/2-x,1/2+y,1/2-z
1/2-x,1/2-y,-z
1/2+x,1/2-y,1/2+z
loop_
_atom_site_type_symbol
_atom_site_label
_atom_site_fract_x
_atom_site_fract_y
_atom_site_fract_z
Si Si1 0.211744 0.975275 0.529008
Si Si2 0.556019 0.876999 0.999154
Si Si3 0.986509 0.073357 0.392050
Si Si4 0.802948 0.234875 0.597814
Si Si5 0.547582 0.907917 0.381469
Si Si6 0.571726 0.264778 0.671254
Si Si7 0.649081 0.796522 0.654182
Si Si8 0.648594 0.042077 0.232796
O O1 0.281813 0.048353 0.593318
O O2 0.130124 0.011005 0.437477
O O3 0.363981 0.919596 0.548641
O O4 0.081703 0.925096 0.542366
O O5 0.720734 0.849659 0.082889
O O6 0.462659 0.924340 0.035903
O O7 0.428636 0.807762 0.945046
O O8 0.032707 0.156075 0.367739
O O9 0.829900 0.041946 0.310501
O O10 0.750000 0.250000 0.500000
O O11 0.706044 0.275938 0.639326
O O12 0.995579 0.250698 0.652503
O O13 0.526027 0.816135 0.362938
O O14 0.405328 0.957613 0.308549
O O15 0.680901 0.262657 0.771625
O O16 0.659922 0.886826 0.680121
O O17 0.500000 0.064647 0.250000
#
# Coordination Sequence:
#
# PCOD9258606 Si02
#       8
#     8   8   8   8   8   8   8   8
#     4  11  21  38  63  88 120 162 211 256 302 380
#     4  10  20  36  59  90 119 158 200 252 324 378
#     4  10  22  38  61  89 117 162 216 257 299 365
#     4   9  17  29  53  86 116 148 195 257 308 357
#     4  11  23  37  63  89 125 159 204 256 329 373
#     4  10  21  36  55  87 121 158 203 259 314 371
#     4  10  18  33  61  83 115 156 211 261 311 368
#     4  11  19  36  62  86 113 159 213 260 303 372
#
# _framework density 24.728923999999999
#
# number of rings (size 3 to 8) (size 9 to 14) (size 15 to 20)
#    0.000    1.750    2.500    3.750    0.000    1.500 
#    0.000    4.375    2.750    0.000    0.000    0.000 
#    0.000    0.000    0.000    0.000    0.000    0.000 
#
# Total GULP energy -178297.466827 kJ/mol
# GULP energy per Si atom -5571.795838 kJ/mol
# Density = 2.467264 g / cm^3
# Si number density = 24.728924 Si / 1000 Ang^3
#
#
#
# Elastic Constant Matrix: (Units=GPa)
#
#
# Indices 1 2 3 4 5 6 
#
# 1 50.6058 19.9922 14.4179 0.0000 9.4107 0.0000
# 2 19.9922 92.5517 36.3616 0.0000 16.3809 0.0000
# 3 14.4179 36.3616 98.2057 0.0000 34.2011 0.0000
# 4 0.0000 0.0000 0.0000 39.5513 0.0000 1.7173
# 5 9.4107 16.3809 34.2011 0.0000 50.4907 0.0000
# 6 0.0000 0.0000 0.0000 1.7173 0.0000 30.7634
#
#
#
# Elastic Compliance Matrix: (Units=1/GPa)
#
#
# Indices 1 2 3 4 5 6 
#
# 1 0.022018 -0.003980 -0.001020 0.000000 -0.002122 0.000000
# 2 -0.003980 0.013421 -0.004092 0.000000 -0.000840 0.000000
# 3 -0.001020 -0.004092 0.014814 0.000000 -0.008517 0.000000
# 4 0.000000 0.000000 0.000000 0.025345 0.000000 -0.001415
# 5 -0.002122 -0.000840 -0.008517 0.000000 0.026243 0.000000
# 6 0.000000 0.000000 0.000000 -0.001415 0.000000 0.032585
#
#
# Mechanical properties :
#
#
# Convention : Reuss Voigt Hill
#
# Bulk Modulus (GPa) = 31.18348 42.54516 36.86432
# Shear Modulus (GPa) = 30.61863 35.53384 33.07624
#
# Velocity S-wave (km/s) = 3.52258 3.79480 3.66122
# Velocity P-wave (km/s) = 5.40206 6.03678 5.72822
#
# Compressibility (1/GPa) = 0.03206826
#
# Stress axis : x y z
#
# Youngs Moduli (GPa) = 45.41740 74.51019 67.50533
#
# Poissons Ratio (x) = 0.29654 0.06886
# Poissons Ratio (y) = 0.18075 0.27625
# Poissons Ratio (z) = 0.04633 0.30492
#
# Static dielectric constant tensor:
#      x y z
#    x 2.062920 0.000000 -0.083950 
#    y 0.000000 1.967010 0.000000 
#    z -0.083950 0.000000 2.097300 
# 
# From -- ./inp_files/239817.got.cif
#   From: 2010.05.17/outbox.cif.g08.bks.cpg/sg15_120_cif.got.tgz:239817.got - 2010.06.03 18:47:42.
