data_PCOD9258337
_publ_section_title
;
Structure prediction by ZEFSAII (Michael W. Deem and Ramdas Pophale) SiO2 
 PCOD9258337
Probable space group: C 2/C
;
_chemical_formula_sum "Si O2"
_cell_formula_units_Z 44
_cell_length_a 5.154452
_cell_length_b 26.854391
_cell_length_c 17.711024
_cell_angle_alpha 90.000000
_cell_angle_beta 78.528379
_cell_angle_gamma 90.000000
_cell_volume 2402.580207
_symmetry_space_group_name_H-M "C 2/C"
_symmetry_group_IT_number 15
_symmetry_cell_setting 'monoclinic'
loop_
_space_group_symop_operation_xyz
x,y,z
-x,y,1/2-z
-x,-y,-z
x,-y,1/2+z
1/2+x,1/2+y,z
1/2-x,1/2+y,1/2-z
1/2-x,1/2-y,-z
1/2+x,1/2-y,1/2+z
loop_
_atom_site_type_symbol
_atom_site_label
_atom_site_fract_x
_atom_site_fract_y
_atom_site_fract_z
Si Si1 0.500000 0.750479 0.750000
Si Si2 0.719566 0.348366 0.794114
Si Si3 0.439298 0.895781 0.171032
Si Si4 0.083709 0.556086 0.511900
Si Si5 0.114658 0.882126 0.968996
Si Si6 0.540686 0.664843 0.867695
O O1 0.261700 0.789157 0.778245
O O2 0.520817 0.716040 0.822860
O O3 0.500000 0.367477 0.750000
O O4 0.647126 0.359040 0.884476
O O5 0.000000 0.370277 0.750000
O O6 0.500000 0.916581 0.250000
O O7 0.653803 0.851348 0.152594
O O8 0.152620 0.873468 0.166758
O O9 0.517059 0.934725 0.103149
O O10 0.382391 0.575934 0.482404
O O11 0.000000 0.500000 0.500000
O O12 0.889222 0.592241 0.476611
O O13 0.045946 0.842388 0.039811
#
# Coordination Sequence:
#
# PCOD9258337 Si02
#       6
#     4   8   8   8   8   8
#     4  10  22  34  58  84 116 148 204 230 282 328
#     4  10  23  38  56  81 117 157 197 234 277 337
#     4  10  18  33  54  82 114 141 180 232 296 332
#     4  10  21  37  61  86 111 146 190 236 286 353
#     4  10  21  40  58  82 116 154 186 235 301 336
#     4  10  20  32  58  82 112 150 183 238 286 331
#
# _framework density 18.313645000000001
#
# number of rings (size 3 to 8) (size 9 to 14) (size 15 to 20)
#    0.545    1.455    1.818    1.636    2.545    0.727 
#    0.000    3.636    0.000    2.182    0.000    0.000 
#    0.000    0.000    0.000    0.000    0.000    0.000 
#
# Total GULP energy -122503.103099 kJ/mol
# GULP energy per Si atom -5568.322868 kJ/mol
# Density = 1.827196 g / cm^3
# Si number density = 18.313645 Si / 1000 Ang^3
#
#
#
# Elastic Constant Matrix: (Units=GPa)
#
#
# Indices 1 2 3 4 5 6 
#
# 1 73.3106 -0.4869 39.1383 0.0000 9.4413 0.0000
# 2 -0.4869 38.6397 39.5795 0.0000 0.5319 0.0000
# 3 39.1383 39.5795 177.2302 0.0000 14.4878 0.0000
# 4 0.0000 0.0000 0.0000 6.6587 0.0000 -7.0266
# 5 9.4413 0.5319 14.4878 0.0000 26.1006 0.0000
# 6 0.0000 0.0000 0.0000 -7.0266 0.0000 -9.9458
#
#
#
# Elastic Compliance Matrix: (Units=1/GPa)
#
#
# Indices 1 2 3 4 5 6 
#
# 1 0.016494 0.004779 -0.004414 0.000000 -0.003614 0.000000
# 2 0.004779 0.035275 -0.009148 0.000000 0.002630 0.000000
# 3 -0.004414 -0.009148 0.008919 0.000000 -0.003168 0.000000
# 4 0.000000 0.000000 0.000000 0.086037 0.000000 -0.060784
# 5 -0.003614 0.002630 -0.003168 0.000000 0.041325 0.000000
# 6 0.000000 0.000000 0.000000 -0.060784 0.000000 -0.057602
#
#
# Mechanical properties :
#
#
# Convention : Reuss Voigt Hill
#
# Bulk Modulus (GPa) = 23.19003 49.51583 36.35293
# Shear Modulus (GPa) = 30.79029 18.62601 24.70815
#
# Velocity S-wave (km/s) = 4.10479 3.19259 3.67708
# Velocity P-wave (km/s) = 5.92924 6.37860 6.15802
#
# Compressibility (1/GPa) = 0.04312198
#
# Stress axis : x y z
#
# Youngs Moduli (GPa) = 60.62637 28.34896 112.11833
#
# Poissons Ratio (x) = -0.13549 0.49495
# Poissons Ratio (y) = -0.28976 1.02567
# Poissons Ratio (z) = 0.26763 0.25934
#
# Static dielectric constant tensor:
#      x y z
#    x 1.659030 0.000000 0.003660 
#    y 0.000000 1.609010 0.000000 
#    z 0.003660 0.000000 1.652390 
# 
# From -- ./inp_files/130213.got.cif
#   From: 2010.05.17/outbox.cif.g08.bks.cpg/sg15_66_cif.got.tgz:130213.got - 2010.06.03 18:47:42.
