data_PCOD9258146
_publ_section_title
;
Structure prediction by ZEFSAII (Michael W. Deem and Ramdas Pophale) SiO2 
 PCOD9258146
Probable space group: C 2/C
;
_chemical_formula_sum "Si O2"
_cell_formula_units_Z 40
_cell_length_a 9.609436
_cell_length_b 20.876095
_cell_length_c 20.217439
_cell_angle_alpha 90.000000
_cell_angle_beta 151.705771
_cell_angle_gamma 90.000000
_cell_volume 1922.432981
_symmetry_space_group_name_H-M "C 2/C"
_symmetry_group_IT_number 15
_symmetry_cell_setting 'monoclinic'
loop_
_space_group_symop_operation_xyz
x,y,z
-x,y,1/2-z
-x,-y,-z
x,-y,1/2+z
1/2+x,1/2+y,z
1/2-x,1/2+y,1/2-z
1/2-x,1/2-y,-z
1/2+x,1/2-y,1/2+z
loop_
_atom_site_type_symbol
_atom_site_label
_atom_site_fract_x
_atom_site_fract_y
_atom_site_fract_z
Si Si1 0.870460 0.103136 0.260082
Si Si2 0.179408 0.849400 0.120051
Si Si3 0.153922 0.054821 0.107235
Si Si4 0.180693 0.720311 0.041934
Si Si5 0.723180 0.819981 0.024937
O O1 0.912184 0.061252 0.342896
O O2 0.544675 0.134710 0.114718
O O3 0.000000 0.067597 0.250000
O O4 0.086212 0.163875 0.355348
O O5 0.500000 0.880950 0.250000
O O6 0.221366 0.777634 0.110865
O O7 0.955649 0.880938 0.974766
O O8 0.028783 0.851240 0.128959
O O9 0.500000 0.048015 0.250000
O O10 0.000000 0.000000 0.000000
O O11 0.867325 0.692232 0.936500
O O12 0.250000 0.750000 0.000000
O O13 0.750000 0.750000 0.000000
#
# Coordination Sequence:
#
# PCOD9258146 Si02
#       5
#     8   8   8   8   8
#     4  10  20  39  65  93 134 172 214 270 341 399
#     4  11  21  38  60  93 136 169 212 265 327 398
#     4  12  25  44  68  93 122 173 234 284 326 380
#     4  10  18  32  61  98 134 172 205 260 339 412
#     4   9  18  33  57  91 131 168 206 254 328 404
#
# _framework density 20.806967
#
# number of rings (size 3 to 8) (size 9 to 14) (size 15 to 20)
#    0.000    1.600    4.000    3.600    0.000    0.000 
#    0.000    4.000    0.000    0.000    0.000    0.000 
#    0.000    0.000    0.000    0.000    0.000    0.000 
#
# Total GULP energy -111362.979702 kJ/mol
# GULP energy per Si atom -5568.148985 kJ/mol
# Density = 2.075961 g / cm^3
# Si number density = 20.806967 Si / 1000 Ang^3
#
#
#
# Elastic Constant Matrix: (Units=GPa)
#
#
# Indices 1 2 3 4 5 6 
#
# 1 234.8183 30.0217 68.7995 -0.0027 16.7088 0.0049
# 2 30.0217 45.0947 28.5046 0.0029 1.0666 0.0111
# 3 68.7995 28.5046 108.6420 -0.0177 28.4427 0.0299
# 4 -0.0027 0.0029 -0.0177 21.3918 0.0062 -14.3421
# 5 16.7088 1.0666 28.4427 0.0062 36.3882 0.0051
# 6 0.0049 0.0111 0.0299 -14.3421 0.0051 14.6813
#
#
#
# Elastic Compliance Matrix: (Units=1/GPa)
#
#
# Indices 1 2 3 4 5 6 
#
# 1 0.005336 -0.001722 -0.002890 0.000006 -0.000140 0.000012
# 2 -0.001722 0.028178 -0.007913 -0.000049 0.006150 -0.000055
# 3 -0.002890 -0.007913 0.015971 0.000007 -0.010925 -0.000015
# 4 0.000006 -0.000049 0.000007 0.135481 -0.000049 0.132351
# 5 -0.000140 0.006150 -0.010925 -0.000049 0.035905 -0.000043
# 6 0.000012 -0.000055 -0.000015 0.132351 -0.000043 0.197407
#
#
# Mechanical properties :
#
#
# Convention : Reuss Voigt Hill
#
# Bulk Modulus (GPa) = 40.92508 71.46739 56.19624
# Shear Modulus (GPa) = 11.07488 31.90755 21.49121
#
# Velocity S-wave (km/s) = 2.30960 3.92025 3.21734
# Velocity P-wave (km/s) = 5.17918 7.41036 6.39286
#
# Compressibility (1/GPa) = 0.02443489
#
# Stress axis : x y z
#
# Youngs Moduli (GPa) = 187.42109 35.48852 62.61316
#
# Poissons Ratio (x) = 0.06110 0.18097
# Poissons Ratio (y) = 0.32270 0.49544
# Poissons Ratio (z) = 0.54172 0.28081
#
# Static dielectric constant tensor:
#      x y z
#    x 1.686820 0.000560 0.025940 
#    y 0.000560 2.839080 -0.000270 
#    z 0.025940 -0.000270 1.795340 
# 
# From -- ./inp_files/23652.got.cif
#   From: 2010.05.17/outbox.cif.g08.bks.cpg/sg15_12_cif.got.tgz:23652.got - 2010.06.03 18:47:42.
