data_PCOD9258785
_publ_section_title
;
Structure prediction by ZEFSAII (Michael W. Deem and Ramdas Pophale) SiO2 
 PCOD9258785
Probable space group: C 2/C
;
_chemical_formula_sum "Si O2"
_cell_formula_units_Z 60
_cell_length_a 32.271903
_cell_length_b 9.532492
_cell_length_c 9.051272
_cell_angle_alpha 90.000000
_cell_angle_beta 92.299414
_cell_angle_gamma 90.000000
_cell_volume 2782.215775
_symmetry_space_group_name_H-M "C 2/C"
_symmetry_group_IT_number 15
_symmetry_cell_setting 'monoclinic'
loop_
_space_group_symop_operation_xyz
x,y,z
-x,y,1/2-z
-x,-y,-z
x,-y,1/2+z
1/2+x,1/2+y,z
1/2-x,1/2+y,1/2-z
1/2-x,1/2-y,-z
1/2+x,1/2-y,1/2+z
loop_
_atom_site_type_symbol
_atom_site_label
_atom_site_fract_x
_atom_site_fract_y
_atom_site_fract_z
Si Si1 0.454414 0.287118 0.773449
Si Si2 0.184572 0.436501 0.135501
Si Si3 0.000000 0.936410 0.250000
Si Si4 0.260573 0.890495 0.088563
Si Si5 0.853196 0.328955 0.658998
Si Si6 0.117524 0.908782 0.900654
Si Si7 0.172491 0.936934 0.186090
Si Si8 0.070215 0.796966 0.424557
O O1 0.500000 0.225047 0.750000
O O2 0.466660 0.452442 0.810320
O O3 0.419327 0.300655 0.643455
O O4 0.434550 0.227996 0.917270
O O5 0.211633 0.357398 0.263181
O O6 0.159933 0.547957 0.233051
O O7 0.215312 0.514686 0.025810
O O8 0.155776 0.355992 0.015217
O O9 0.975256 0.839040 0.135986
O O10 0.218655 0.966493 0.138064
O O11 0.250000 0.750000 0.000000
O O12 0.826793 0.191904 0.699258
O O13 0.901905 0.295068 0.679687
O O14 0.146931 0.939933 0.763403
O O15 0.095391 0.056681 0.934708
O O16 0.146219 0.877780 0.043846
#
# Coordination Sequence:
#
# PCOD9258785 Si02
#       8
#     8   8   4   8   8   8   8   8
#     4   9  18  29  51  84 126 164 179 223 286 356
#     4  10  23  46  61  83 114 157 203 263 290 353
#     4   8  18  28  56  82 132 156 184 226 290 368
#     4  11  22  41  63  86 117 155 204 242 310 350
#     4  10  23  40  65  81 114 155 208 241 303 343
#     4  10  20  32  52  83 134 148 190 224 284 359
#     4  11  21  37  54  91 116 160 185 242 297 362
#     4  10  18  34  54  89 116 163 189 228 292 363
#
# _framework density 21.565543000000002
#
# number of rings (size 3 to 8) (size 9 to 14) (size 15 to 20)
#    0.400    1.600    2.667    1.200    0.000    1.600 
#    4.800    0.000    0.000    0.800    0.000    0.000 
#    0.000    0.000    0.000    0.000    0.000    0.000 
#
# Total GULP energy -167341.016280 kJ/mol
# GULP energy per Si atom -5578.033876 kJ/mol
# Density = 2.151646 g / cm^3
# Si number density = 21.565543 Si / 1000 Ang^3
#
#
#
# Elastic Constant Matrix: (Units=GPa)
#
#
# Indices 1 2 3 4 5 6 
#
# 1 58.1045 0.0670 22.7337 0.0000 -9.9106 0.0000
# 2 0.0670 10.4430 7.0757 0.0000 4.0051 0.0000
# 3 22.7337 7.0757 110.0437 0.0000 2.8778 0.0000
# 4 0.0000 0.0000 0.0000 12.7153 0.0000 0.7604
# 5 -9.9106 4.0051 2.8778 0.0000 43.2752 0.0000
# 6 0.0000 0.0000 0.0000 0.7604 0.0000 12.8338
#
#
#
# Elastic Compliance Matrix: (Units=1/GPa)
#
#
# Indices 1 2 3 4 5 6 
#
# 1 0.019673 0.000950 -0.004248 0.000000 0.004700 0.000000
# 2 0.000950 0.103670 -0.006628 0.000000 -0.008936 0.000000
# 3 -0.004248 -0.006628 0.010419 0.000000 -0.001052 0.000000
# 4 0.000000 0.000000 0.000000 0.078925 0.000000 -0.004676
# 5 0.004700 -0.008936 -0.001052 0.000000 0.025081 0.000000
# 6 0.000000 0.000000 0.000000 -0.004676 0.000000 0.078196
#
#
# Mechanical properties :
#
#
# Convention : Reuss Voigt Hill
#
# Bulk Modulus (GPa) = 8.77903 26.48267 17.63085
# Shear Modulus (GPa) = 13.37660 23.67920 18.52790
#
# Velocity S-wave (km/s) = 2.49324 3.31722 2.93430
# Velocity P-wave (km/s) = 3.51682 5.19410 4.43546
#
# Compressibility (1/GPa) = 0.11390786
#
# Stress axis : x y z
#
# Youngs Moduli (GPa) = 50.83098 9.64599 95.98190
#
# Poissons Ratio (x) = -0.00916 0.40775
# Poissons Ratio (y) = -0.04827 0.63620
# Poissons Ratio (z) = 0.21594 0.06394
#
# Static dielectric constant tensor:
#      x y z
#    x 1.821580 0.000000 0.017100 
#    y 0.000000 1.792860 0.000000 
#    z 0.017100 0.000000 1.822020 
# 
# From -- ./inp_files/69117.got.cif
#   From: 2010.05.17/outbox.cif.g08.bks.cpg/sg15_35_cif.got.tgz:69117.got - 2010.06.03 18:47:42.
