data_PCOD9258957
_publ_section_title
;
Structure prediction by ZEFSAII (Michael W. Deem and Ramdas Pophale) SiO2 
 PCOD9258957
Probable space group: C 2/C
;
_chemical_formula_sum "Si O2"
_cell_formula_units_Z 64
_cell_length_a 14.945211
_cell_length_b 11.940636
_cell_length_c 27.466338
_cell_angle_alpha 90.000000
_cell_angle_beta 137.606085
_cell_angle_gamma 90.000000
_cell_volume 3304.718342
_symmetry_space_group_name_H-M "C 2/C"
_symmetry_group_IT_number 15
_symmetry_cell_setting 'monoclinic'
loop_
_space_group_symop_operation_xyz
x,y,z
-x,y,1/2-z
-x,-y,-z
x,-y,1/2+z
1/2+x,1/2+y,z
1/2-x,1/2+y,1/2-z
1/2-x,1/2-y,-z
1/2+x,1/2-y,1/2+z
loop_
_atom_site_type_symbol
_atom_site_label
_atom_site_fract_x
_atom_site_fract_y
_atom_site_fract_z
Si Si1 0.989766 0.051735 0.417855
Si Si2 0.757268 0.490604 0.967763
Si Si3 0.747067 0.235265 0.576918
Si Si4 0.299409 0.753286 0.325930
Si Si5 0.477066 0.156041 0.298399
Si Si6 0.463415 0.034796 0.867090
Si Si7 0.889959 0.584180 0.431554
Si Si8 0.980453 0.840482 0.465654
O O1 0.879147 0.136949 0.354868
O O2 0.037502 0.106149 0.488303
O O3 0.928952 0.930266 0.406348
O O4 0.117847 0.037869 0.435865
O O5 0.770503 0.622359 0.960561
O O6 0.769375 0.430265 0.920146
O O7 0.885139 0.455348 0.051690
O O8 0.718867 0.215684 0.623603
O O9 0.638049 0.327300 0.518990
O O10 0.893427 0.282518 0.628942
O O11 0.153381 0.731286 0.246703
O O12 0.388346 0.847604 0.336611
O O13 0.500000 0.143563 0.250000
O O14 0.464030 0.036121 0.318348
O O15 0.382180 0.960919 0.874047
O O16 0.930164 0.713708 0.445816
O O17 0.000000 0.500000 0.500000
#
# Coordination Sequence:
#
# PCOD9258957 Si02
#       8
#     8   8   8   8   8   8   8   8
#     4  10  22  33  55  86 124 155 186 243 291 357
#     4  11  20  34  62  99 117 149 197 248 311 354
#     4  10  18  37  62  88 120 146 200 251 283 352
#     4  10  22  43  58  80 123 165 191 234 304 356
#     4  10  24  40  60  84 112 163 211 243 282 350
#     4  11  21  38  65  85 120 157 195 250 306 356
#     4  10  18  34  57  91 123 152 181 240 309 364
#     4  10  19  35  54  88 127 150 184 237 310 352
#
# _framework density 19.366250000000001
#
# number of rings (size 3 to 8) (size 9 to 14) (size 15 to 20)
#    0.000    1.750    3.750    3.000    1.750    5.000 
#    0.000    0.000    0.000    0.000    0.000    0.000 
#    0.000    0.000    0.000    0.000    0.000    0.000 
#
# Total GULP energy -178618.253216 kJ/mol
# GULP energy per Si atom -5581.820413 kJ/mol
# Density = 1.932217 g / cm^3
# Si number density = 19.366250 Si / 1000 Ang^3
#
#
#
# Elastic Constant Matrix: (Units=GPa)
#
#
# Indices 1 2 3 4 5 6 
#
# 1 96.9209 43.1709 21.3963 0.0000 21.4863 0.0000
# 2 43.1709 134.6800 26.3529 0.0000 10.8951 0.0000
# 3 21.3963 26.3529 31.0701 0.0000 9.0432 0.0000
# 4 0.0000 0.0000 0.0000 13.0254 0.0000 -3.1634
# 5 21.4863 10.8951 9.0432 0.0000 16.3873 0.0000
# 6 0.0000 0.0000 0.0000 -3.1634 0.0000 35.9933
#
#
#
# Elastic Compliance Matrix: (Units=1/GPa)
#
#
# Indices 1 2 3 4 5 6 
#
# 1 0.016357 -0.003144 -0.003531 0.000000 -0.017407 0.000000
# 2 -0.003144 0.009567 -0.006312 0.000000 0.001245 0.000000
# 3 -0.003531 -0.006312 0.044558 0.000000 -0.015763 0.000000
# 4 0.000000 0.000000 0.000000 0.078447 0.000000 0.006895
# 5 -0.017407 0.001245 -0.015763 0.000000 0.091718 0.000000
# 6 0.000000 0.000000 0.000000 0.006895 0.000000 0.028389
#
#
# Mechanical properties :
#
#
# Convention : Reuss Voigt Hill
#
# Bulk Modulus (GPa) = 22.46735 49.39013 35.92874
# Shear Modulus (GPa) = 16.13707 24.53127 20.33417
#
# Velocity S-wave (km/s) = 2.88975 3.56294 3.24385
# Velocity P-wave (km/s) = 4.77082 6.51802 5.71162
#
# Compressibility (1/GPa) = 0.04450902
#
# Stress axis : x y z
#
# Youngs Moduli (GPa) = 61.13759 104.52453 22.44257
#
# Poissons Ratio (x) = 0.32862 0.07924
# Poissons Ratio (y) = 0.19221 0.14165
# Poissons Ratio (z) = 0.21586 0.65974
#
# Static dielectric constant tensor:
#      x y z
#    x 1.709240 0.000000 -0.011270 
#    y 0.000000 1.673830 0.000000 
#    z -0.011270 0.000000 1.682380 
# 
# From -- ./inp_files/313604.got.cif
#   From: 2010.05.17/outbox.cif.g08.bks.cpg/sg15_157_cif.got.tgz:313604.got - 2010.06.03 18:47:42.
