data_PCOD9258895
_publ_section_title
;
Structure prediction by ZEFSAII (Michael W. Deem and Ramdas Pophale) SiO2 
 PCOD9258895
Probable space group: C 2/C
;
_chemical_formula_sum "Si O2"
_cell_formula_units_Z 52
_cell_length_a 12.894766
_cell_length_b 13.078045
_cell_length_c 17.308275
_cell_angle_alpha 90.000000
_cell_angle_beta 57.348505
_cell_angle_gamma 90.000000
_cell_volume 2457.568203
_symmetry_space_group_name_H-M "C 2/C"
_symmetry_group_IT_number 15
_symmetry_cell_setting 'monoclinic'
loop_
_space_group_symop_operation_xyz
x,y,z
-x,y,1/2-z
-x,-y,-z
x,-y,1/2+z
1/2+x,1/2+y,z
1/2-x,1/2+y,1/2-z
1/2-x,1/2-y,-z
1/2+x,1/2-y,1/2+z
loop_
_atom_site_type_symbol
_atom_site_label
_atom_site_fract_x
_atom_site_fract_y
_atom_site_fract_z
Si Si1 0.500000 0.933352 0.250000
Si Si2 0.377792 0.730600 0.836443
Si Si3 0.625637 0.442024 0.933983
Si Si4 0.380489 0.207503 0.510659
Si Si5 0.685586 0.087344 0.256529
Si Si6 0.146174 0.321482 0.937526
Si Si7 0.771119 0.621975 0.930434
O O1 0.596096 0.867390 0.162468
O O2 0.583252 0.003422 0.273758
O O3 0.500000 0.679396 0.750000
O O4 0.252754 0.667966 0.906945
O O5 0.345376 0.815211 0.785221
O O6 0.400154 0.788203 0.909901
O O7 0.618476 0.326674 0.965297
O O8 0.678480 0.446631 0.825900
O O9 0.729255 0.505820 0.937239
O O10 0.500000 0.500000 0.000000
O O11 0.499819 0.159574 0.501997
O O12 0.685536 0.122867 0.343997
O O13 0.177732 0.199864 0.925394
O O14 0.218092 0.357207 0.983850
#
# Coordination Sequence:
#
# PCOD9258895 Si02
#       7
#     4   8   8   8   8   8   8
#     4  10  20  40  58  86 110 162 196 252 294 360
#     4  10  18  34  56  92 113 150 203 260 299 365
#     4  10  20  40  59  84 117 165 197 254 311 367
#     4  10  20  33  63  85 118 155 204 253 310 358
#     4  10  20  36  65  80 117 154 205 250 308 357
#     4  11  21  41  58  91 118 163 199 253 303 380
#     4  10  24  39  59  84 129 155 202 243 311 374
#
# _framework density 21.159127999999999
#
# number of rings (size 3 to 8) (size 9 to 14) (size 15 to 20)
#    0.000    1.846    3.846    0.000    0.000    3.077 
#    0.000    4.615    0.000    0.000    0.000    0.000 
#    0.000    0.000    0.000    0.000    0.000    0.000 
#
# Total GULP energy -145022.869396 kJ/mol
# GULP energy per Si atom -5577.802669 kJ/mol
# Density = 2.111097 g / cm^3
# Si number density = 21.159128 Si / 1000 Ang^3
#
#
#
# Elastic Constant Matrix: (Units=GPa)
#
#
# Indices 1 2 3 4 5 6 
#
# 1 66.3752 -1.6534 57.0467 0.0000 -12.2179 0.0000
# 2 -1.6534 24.8346 23.5525 0.0000 4.0899 0.0000
# 3 57.0467 23.5525 144.8955 0.0000 -20.5573 0.0000
# 4 0.0000 0.0000 0.0000 24.5309 0.0000 -7.2525
# 5 -12.2179 4.0899 -20.5573 0.0000 41.5061 0.0000
# 6 0.0000 0.0000 0.0000 -7.2525 0.0000 9.5624
#
#
#
# Elastic Compliance Matrix: (Units=1/GPa)
#
#
# Indices 1 2 3 4 5 6 
#
# 1 0.026157 0.013539 -0.012472 0.000000 0.000188 0.000000
# 2 0.013539 0.058093 -0.016155 0.000000 -0.009740 0.000000
# 3 -0.012472 -0.016155 0.015212 0.000000 0.005455 0.000000
# 4 0.000000 0.000000 0.000000 0.052548 0.000000 0.039855
# 5 0.000188 -0.009740 0.005455 0.000000 0.027810 0.000000
# 6 0.000000 0.000000 0.000000 0.039855 0.000000 0.134804
#
#
# Mechanical properties :
#
#
# Convention : Reuss Voigt Hill
#
# Bulk Modulus (GPa) = 14.43317 43.77744 29.10531
# Shear Modulus (GPa) = 13.59077 25.59716 19.59396
#
# Velocity S-wave (km/s) = 2.53714 3.48191 3.04637
# Velocity P-wave (km/s) = 3.92668 6.07450 5.11460
#
# Compressibility (1/GPa) = 0.06928483
#
# Stress axis : x y z
#
# Youngs Moduli (GPa) = 38.23029 17.21374 65.73791
#
# Poissons Ratio (x) = -0.23306 0.81991
# Poissons Ratio (y) = -0.51760 1.06201
# Poissons Ratio (z) = 0.47682 0.27809
#
# Static dielectric constant tensor:
#      x y z
#    x 1.803100 0.000000 -0.064610 
#    y 0.000000 1.781830 0.000000 
#    z -0.064610 0.000000 1.805120 
# 
# From -- ./inp_files/144327.got.cif
#   From: 2010.05.17/outbox.cif.g08.bks.cpg/sg15_73_cif.got.tgz:144327.got - 2010.06.03 18:47:42.
