data_PCOD9258558
_publ_section_title
;
Structure prediction by ZEFSAII (Michael W. Deem and Ramdas Pophale) SiO2 
 PCOD9258558
Probable space group: C 2/C
;
_chemical_formula_sum "Si O2"
_cell_formula_units_Z 64
_cell_length_a 12.675607
_cell_length_b 13.535363
_cell_length_c 22.948773
_cell_angle_alpha 90.000000
_cell_angle_beta 121.084626
_cell_angle_gamma 90.000000
_cell_volume 3371.923157
_symmetry_space_group_name_H-M "C 2/C"
_symmetry_group_IT_number 15
_symmetry_cell_setting 'monoclinic'
loop_
_space_group_symop_operation_xyz
x,y,z
-x,y,1/2-z
-x,-y,-z
x,-y,1/2+z
1/2+x,1/2+y,z
1/2-x,1/2+y,1/2-z
1/2-x,1/2-y,-z
1/2+x,1/2-y,1/2+z
loop_
_atom_site_type_symbol
_atom_site_label
_atom_site_fract_x
_atom_site_fract_y
_atom_site_fract_z
Si Si1 0.977423 0.187261 0.804623
Si Si2 0.118389 0.099066 0.147090
Si Si3 0.371225 0.518278 0.596998
Si Si4 0.175801 0.859403 0.531400
Si Si5 0.865841 0.228606 0.239078
Si Si6 0.056403 0.318357 0.929217
Si Si7 0.730581 0.931513 0.250767
Si Si8 0.320145 0.930653 0.871872
O O1 0.084344 0.108614 0.849507
O O2 0.977018 0.257688 0.859504
O O3 0.000000 0.240009 0.750000
O O4 0.852679 0.126028 0.764585
O O5 0.127225 0.118925 0.081478
O O6 0.141451 0.191035 0.196169
O O7 0.218903 0.016076 0.191964
O O8 0.984343 0.057534 0.126388
O O9 0.357038 0.561947 0.528215
O O10 0.250373 0.473975 0.592132
O O11 0.115214 0.756068 0.493081
O O12 0.323940 0.855458 0.571479
O O13 0.843314 0.346211 0.236426
O O14 0.767290 0.160240 0.176079
O O15 0.000000 0.208611 0.250000
O O16 0.958357 0.395602 0.925466
O O17 0.674687 0.988680 0.179138
#
# Coordination Sequence:
#
# PCOD9258558 Si02
#       8
#     8   8   8   8   8   8   8   8
#     4  10  18  33  59  88 114 149 200 242 302 357
#     4  10  22  39  64  87 121 163 202 245 305 373
#     4  10  20  37  62  86 117 160 205 250 285 369
#     4  10  23  41  58  86 120 165 211 248 300 347
#     4  11  22  39  61  93 125 154 196 251 313 369
#     4  10  23  38  60  86 124 159 205 261 292 361
#     4  10  22  34  61  94 119 153 191 254 307 363
#     4  11  21  39  62  93 121 156 205 250 315 352
#
# _framework density 18.980266
#
# number of rings (size 3 to 8) (size 9 to 14) (size 15 to 20)
#    0.000    1.750    3.750    0.375    1.750    2.500 
#    0.000    1.875    0.000    0.000    0.000    0.000 
#    0.000    0.000    0.000    0.000    0.000    0.000 
#
# Total GULP energy -178471.232898 kJ/mol
# GULP energy per Si atom -5577.226028 kJ/mol
# Density = 1.893707 g / cm^3
# Si number density = 18.980266 Si / 1000 Ang^3
#
#
#
# Elastic Constant Matrix: (Units=GPa)
#
#
# Indices 1 2 3 4 5 6 
#
# 1 68.8627 24.1823 24.4301 0.0000 -0.4918 0.0000
# 2 24.1823 44.2814 -3.5551 0.0000 9.9933 0.0000
# 3 24.4301 -3.5551 46.7838 0.0000 -8.2060 0.0000
# 4 0.0000 0.0000 0.0000-1215.5202 0.0000 146.1389
# 5 -0.4918 9.9933 -8.2060 0.0000 26.9569 0.0000
# 6 0.0000 0.0000 0.0000 146.1389 0.0000 20.4603
#
#
#
# Elastic Compliance Matrix: (Units=1/GPa)
#
#
# Indices 1 2 3 4 5 6 
#
# 1 0.024649 -0.014974 -0.013688 0.000000 0.001834 0.000000
# 2 -0.014974 0.033744 0.008600 0.000000 -0.010165 0.000000
# 3 -0.013688 0.008600 0.030185 0.000000 0.005751 0.000000
# 4 0.000000 0.000000 0.000000 -0.000443 0.000000 0.003161
# 5 0.001834 -0.010165 0.005751 0.000000 0.042648 0.000000
# 6 0.000000 0.000000 0.000000 0.003161 0.000000 0.026295
#
#
# Mechanical properties :
#
#
# Convention : Reuss Voigt Hill
#
# Bulk Modulus (GPa) = 20.63715 27.78252 24.20983
# Shear Modulus (GPa) = 23.43538 -225.96256 -101.26359
#
# Velocity S-wave (km/s) = 3.51768 -10.92290 -7.31217
# Velocity P-wave (km/s) = 5.23405 12.01708 7.64902
#
# Compressibility (1/GPa) = 0.04845631
#
# Stress axis : x y z
#
# Youngs Moduli (GPa) = 40.56970 29.63451 33.12939
#
# Poissons Ratio (x) = 0.44374 0.45346
# Poissons Ratio (y) = 0.60748 -0.28493
# Poissons Ratio (z) = 0.55530 -0.25487
#
# Static dielectric constant tensor:
#      x y z
#    x 1.705780 0.000000 -0.016130 
#    y 0.000000 1.694080 0.000000 
#    z -0.016130 0.000000 1.683080 
# 
# From -- ./inp_files/238790.got.cif
#   From: 2010.05.17/outbox.cif.g08.bks.cpg/sg15_120_cif.got.tgz:238790.got - 2010.06.03 18:47:42.
