data_PCOD9258109
_publ_section_title
;
Structure prediction by ZEFSAII (Michael W. Deem and Ramdas Pophale) SiO2 
 PCOD9258109
Probable space group: C 2/C
;
_chemical_formula_sum "Si O2"
_cell_formula_units_Z 48
_cell_length_a 7.975696
_cell_length_b 15.202952
_cell_length_c 24.591098
_cell_angle_alpha 90.000000
_cell_angle_beta 39.927623
_cell_angle_gamma 90.000000
_cell_volume 1913.759187
_symmetry_space_group_name_H-M "C 2/C"
_symmetry_group_IT_number 15
_symmetry_cell_setting 'monoclinic'
loop_
_space_group_symop_operation_xyz
x,y,z
-x,y,1/2-z
-x,-y,-z
x,-y,1/2+z
1/2+x,1/2+y,z
1/2-x,1/2+y,1/2-z
1/2-x,1/2-y,-z
1/2+x,1/2-y,1/2+z
loop_
_atom_site_type_symbol
_atom_site_label
_atom_site_fract_x
_atom_site_fract_y
_atom_site_fract_z
Si Si1 0.093721 0.501094 0.591439
Si Si2 0.982459 0.247397 0.694919
Si Si3 0.451498 0.776823 0.586173
Si Si4 0.729768 0.065938 0.739120
Si Si5 0.563447 0.173672 0.525304
Si Si6 0.490512 0.421239 0.074699
O O1 0.095459 0.584444 0.550648
O O2 0.222345 0.424368 0.523420
O O3 0.311441 0.515389 0.583880
O O4 0.835433 0.506374 0.692687
O O5 0.902977 0.302109 0.661013
O O6 0.214356 0.164351 0.752429
O O7 0.268178 0.208918 0.608271
O O8 0.000000 0.290906 0.750000
O O9 0.750000 0.750000 0.500000
O O10 0.358032 0.831564 0.557857
O O11 0.351757 0.674321 0.607030
O O12 0.500000 0.061318 0.750000
O O13 0.983487 0.047021 0.638709
O O14 0.750000 0.250000 0.500000
#
# Coordination Sequence:
#
# PCOD9258109 Si02
#       6
#     8   8   8   8   8   8
#     4  10  18  32  60  84 116 156 206 252 305 368
#     4  10  19  33  57  84 110 152 211 252 299 372
#     4   9  19  34  53  81 121 147 195 253 304 365
#     4   9  18  34  57  84 113 156 210 257 301 381
#     4  11  20  34  57  87 120 161 201 257 315 378
#     4   9  18  33  56  87 113 153 204 255 301 361
#
# _framework density 25.081526
#
# number of rings (size 3 to 8) (size 9 to 14) (size 15 to 20)
#    0.000    2.333    3.333    0.000    0.000    0.000 
#    0.000    7.500    7.333    0.000    4.333    0.000 
#    0.000    0.000    0.000    0.000    0.000    0.000 
#
# Total GULP energy -133745.167199 kJ/mol
# GULP energy per Si atom -5572.715300 kJ/mol
# Density = 2.502444 g / cm^3
# Si number density = 25.081526 Si / 1000 Ang^3
#
#
#
# Elastic Constant Matrix: (Units=GPa)
#
#
# Indices 1 2 3 4 5 6 
#
# 1 71.1073 21.7848 38.6684 -0.0005 22.4753 -0.0011
# 2 21.7848 56.6701 36.2654 0.0004 15.6817 -0.0013
# 3 38.6684 36.2654 210.2742 0.0027 60.4495 -0.0012
# 4 -0.0005 0.0004 0.0027 35.8692 -0.0009 -6.1022
# 5 22.4753 15.6817 60.4495 -0.0009 56.0552 0.0006
# 6 -0.0011 -0.0013 -0.0012 -6.1022 0.0006 18.2090
#
#
#
# Elastic Compliance Matrix: (Units=1/GPa)
#
#
# Indices 1 2 3 4 5 6 
#
# 1 0.017558 -0.004795 -0.001107 0.000000 -0.004505 0.000001
# 2 -0.004795 0.021430 -0.002382 0.000000 -0.001504 0.000001
# 3 -0.001107 -0.002382 0.007320 -0.000001 -0.006784 0.000000
# 4 0.000000 0.000000 -0.000001 0.029565 0.000001 0.009908
# 5 -0.004505 -0.001504 -0.006784 0.000001 0.027382 -0.000001
# 6 0.000001 0.000001 0.000000 0.009908 -0.000001 0.058238
#
#
# Mechanical properties :
#
#
# Convention : Reuss Voigt Hill
#
# Bulk Modulus (GPa) = 33.62331 59.05431 46.33881
# Shear Modulus (GPa) = 26.59953 38.11554 32.35753
#
# Velocity S-wave (km/s) = 3.26010 3.90252 3.59568
# Velocity P-wave (km/s) = 5.25411 6.62588 5.97946
#
# Compressibility (1/GPa) = 0.02974127
#
# Stress axis : x y z
#
# Youngs Moduli (GPa) = 56.95422 46.66460 136.60668
#
# Poissons Ratio (x) = 0.22374 0.15120
# Poissons Ratio (y) = 0.27307 0.32537
# Poissons Ratio (z) = 0.06304 0.11114
#
# Static dielectric constant tensor:
#      x y z
#    x 2.002300 0.000000 -0.015340 
#    y 0.000000 2.047540 0.000000 
#    z -0.015340 0.000000 2.117690 
# 
# From -- ./inp_files/189789.got.cif
#   From: 2010.05.17/outbox.cif.g08.bks.cpg/sg15_95_cif.got.tgz:189789.got - 2010.06.03 18:47:42.
