data_PCOD9258203
_publ_section_title
;
Structure prediction by ZEFSAII (Michael W. Deem and Ramdas Pophale) SiO2 
 PCOD9258203
Probable space group: C 2/C
;
_chemical_formula_sum "Si O2"
_cell_formula_units_Z 52
_cell_length_a 20.246963
_cell_length_b 28.785625
_cell_length_c 9.761197
_cell_angle_alpha 90.000000
_cell_angle_beta 26.338849
_cell_angle_gamma 90.000000
_cell_volume 2524.105192
_symmetry_space_group_name_H-M "C 2/C"
_symmetry_group_IT_number 15
_symmetry_cell_setting 'monoclinic'
loop_
_space_group_symop_operation_xyz
x,y,z
-x,y,1/2-z
-x,-y,-z
x,-y,1/2+z
1/2+x,1/2+y,z
1/2-x,1/2+y,1/2-z
1/2-x,1/2-y,-z
1/2+x,1/2-y,1/2+z
loop_
_atom_site_type_symbol
_atom_site_label
_atom_site_fract_x
_atom_site_fract_y
_atom_site_fract_z
Si Si1 0.189921 0.462463 0.544186
Si Si2 0.790973 0.361918 0.905965
Si Si3 0.369008 0.152090 0.698199
Si Si4 0.238128 0.213156 0.697611
Si Si5 0.829123 0.452917 0.235258
Si Si6 0.206624 0.308109 0.870998
Si Si7 0.000000 0.229673 0.750000
O O1 0.254484 0.414866 0.486958
O O2 0.223831 0.463084 0.320290
O O3 0.232231 0.509115 0.545242
O O4 0.009676 0.458317 0.895392
O O5 0.805526 0.347478 0.721578
O O6 0.957168 0.356218 0.660409
O O7 0.691293 0.323810 0.170809
O O8 0.285168 0.183666 0.743490
O O9 0.299386 0.100444 0.829982
O O10 0.359954 0.176467 0.862511
O O11 0.151135 0.258927 0.909589
O O12 0.391447 0.238135 0.361712
O O13 0.383857 0.298672 0.555876
#
# Coordination Sequence:
#
# PCOD9258203 Si02
#       7
#     8   8   8   8   8   8   4
#     4   9  18  29  45  67 101 131 152 182 230 292
#     4  11  18  31  49  74  99 130 157 194 241 288
#     4  11  18  31  49  74  99 130 157 194 241 288
#     4  10  18  33  50  66  98 134 164 190 244 287
#     4   9  18  29  45  67 101 131 152 182 230 292
#     4  10  21  30  48  70  97 126 169 204 227 281
#     4   8  20  34  48  62  94 138 168 192 246 268
#
# _framework density 20.601358999999999
#
# number of rings (size 3 to 8) (size 9 to 14) (size 15 to 20)
#    0.923    1.231    3.077    1.385    2.154    0.000 
#    0.000    0.000    0.000    0.000    0.000    1.077 
#    0.000    0.000    0.000    0.000    0.000    0.000 
#
# Total GULP energy -144865.102828 kJ/mol
# GULP energy per Si atom -5571.734724 kJ/mol
# Density = 2.055447 g / cm^3
# Si number density = 20.601359 Si / 1000 Ang^3
#
#
#
# Elastic Constant Matrix: (Units=GPa)
#
#
# Indices 1 2 3 4 5 6 
#
# 1 41.9973 37.7020 13.7678 -0.0004 22.6200 0.0000
# 2 37.7020 159.8360 30.5779 0.0000 22.8503 0.0000
# 3 13.7678 30.5779 44.7803 -0.0003 13.3326 0.0000
# 4 -0.0004 0.0000 -0.0003 15.7262 0.0003 11.1948
# 5 22.6200 22.8503 13.3326 0.0003 30.8684 0.0000
# 6 0.0000 0.0000 0.0000 11.1948 0.0000 33.2391
#
#
#
# Elastic Compliance Matrix: (Units=1/GPa)
#
#
# Indices 1 2 3 4 5 6 
#
# 1 0.044797 -0.006396 -0.001195 0.000002 -0.027576 -0.000001
# 2 -0.006396 0.008493 -0.003852 0.000000 0.000064 0.000000
# 3 -0.001195 -0.003852 0.027793 0.000001 -0.008277 0.000000
# 4 0.000002 0.000000 0.000001 0.083641 -0.000003 -0.028170
# 5 -0.027576 0.000064 -0.008277 -0.000003 0.056131 0.000001
# 6 -0.000001 0.000000 0.000000 -0.028170 0.000001 0.039573
#
#
# Mechanical properties :
#
#
# Convention : Reuss Voigt Hill
#
# Bulk Modulus (GPa) = 17.18281 45.63432 31.40856
# Shear Modulus (GPa) = 16.51725 26.93779 21.72752
#
# Velocity S-wave (km/s) = 2.83460 3.61996 3.25108
# Velocity P-wave (km/s) = 4.36715 6.29852 5.41957
#
# Compressibility (1/GPa) = 0.05819770
#
# Stress axis : x y z
#
# Youngs Moduli (GPa) = 22.32280 117.74635 35.97979
#
# Poissons Ratio (x) = 0.75307 0.04301
# Poissons Ratio (y) = 0.14277 0.13859
# Poissons Ratio (z) = 0.02668 0.45354
#
# Static dielectric constant tensor:
#      x y z
#    x 1.763400 0.000000 -0.043140 
#    y 0.000000 1.758290 0.000000 
#    z -0.043140 0.000000 1.772700 
# 
# From -- ./inp_files/59220.got.cif
#   From: 2010.05.17/outbox.cif.g08.bks.cpg/sg15_30_cif.got.tgz:59220.got - 2010.06.03 18:47:42.
