data_PCOD9258533
_publ_section_title
;
Structure prediction by ZEFSAII (Michael W. Deem and Ramdas Pophale) SiO2 
 PCOD9258533
Probable space group: C 2/C
;
_chemical_formula_sum "Si O2"
_cell_formula_units_Z 64
_cell_length_a 16.878638
_cell_length_b 11.820960
_cell_length_c 23.388883
_cell_angle_alpha 90.000000
_cell_angle_beta 130.262754
_cell_angle_gamma 90.000000
_cell_volume 3561.021595
_symmetry_space_group_name_H-M "C 2/C"
_symmetry_group_IT_number 15
_symmetry_cell_setting 'monoclinic'
loop_
_space_group_symop_operation_xyz
x,y,z
-x,y,1/2-z
-x,-y,-z
x,-y,1/2+z
1/2+x,1/2+y,z
1/2-x,1/2+y,1/2-z
1/2-x,1/2-y,-z
1/2+x,1/2-y,1/2+z
loop_
_atom_site_type_symbol
_atom_site_label
_atom_site_fract_x
_atom_site_fract_y
_atom_site_fract_z
Si Si1 0.669858 0.122185 0.351781
Si Si2 0.169234 0.218425 0.246661
Si Si3 0.334716 0.216358 0.886572
Si Si4 0.244994 0.369602 0.375954
Si Si5 0.836703 0.449836 0.869116
Si Si6 0.975254 0.566795 0.322104
Si Si7 0.571976 0.779522 0.499824
Si Si8 0.546872 0.189689 0.853356
O O1 0.749403 0.224731 0.386058
O O2 0.587354 0.124106 0.365117
O O3 0.600804 0.116752 0.261570
O O4 0.729548 0.002075 0.378719
O O5 0.176716 0.229054 0.181988
O O6 0.225227 0.327294 0.302067
O O7 0.231238 0.111498 0.299675
O O8 0.046811 0.224878 0.204067
O O9 0.322676 0.082087 0.873400
O O10 0.452543 0.237353 0.961432
O O11 0.354677 0.324277 0.448735
O O12 0.152710 0.305676 0.367490
O O13 0.920600 0.429213 0.857732
O O14 0.880237 0.387095 0.945251
O O15 0.997771 0.434522 0.319605
O O16 0.571944 0.799488 0.431971
#
# Coordination Sequence:
#
# PCOD9258533 Si02
#       8
#     8   8   8   8   8   8   8   8
#     4  10  20  34  57  83 109 137 186 237 281 325
#     4  10  19  31  56  84 101 137 187 235 274 320
#     4  11  21  35  55  83 113 148 182 231 281 333
#     4  10  19  34  56  82 111 139 182 235 277 330
#     4  11  20  36  57  80 109 145 190 227 270 341
#     4  10  18  33  59  82 101 144 185 230 271 333
#     4  10  22  33  55  82 110 149 183 224 275 336
#     4  10  18  34  57  84 106 140 184 234 281 322
#
# _framework density 17.972370999999999
#
# number of rings (size 3 to 8) (size 9 to 14) (size 15 to 20)
#    0.000    1.750    5.000    1.125    0.000    0.500 
#    0.000    0.625   11.000    0.000    0.000    0.000 
#    0.000    0.000    0.000    0.000    0.000    0.000 
#
# Total GULP energy -178549.770453 kJ/mol
# GULP energy per Si atom -5579.680327 kJ/mol
# Density = 1.793147 g / cm^3
# Si number density = 17.972371 Si / 1000 Ang^3
#
#
#
# Elastic Constant Matrix: (Units=GPa)
#
#
# Indices 1 2 3 4 5 6 
#
# 1 98.5768 59.6281 34.2255 0.0000 22.9516 0.0000
# 2 59.6281 71.1782 40.5417 0.0000 21.4209 0.0000
# 3 34.2255 40.5417 91.2941 0.0000 25.7220 0.0000
# 4 0.0000 0.0000 0.0000 13.2332 0.0000 5.2943
# 5 22.9516 21.4209 25.7220 0.0000 27.8715 0.0000
# 6 0.0000 0.0000 0.0000 5.2943 0.0000 20.1734
#
#
#
# Elastic Compliance Matrix: (Units=1/GPa)
#
#
# Indices 1 2 3 4 5 6 
#
# 1 0.021135 -0.016609 0.001026 0.000000 -0.005587 0.000000
# 2 -0.016609 0.033744 -0.007169 0.000000 -0.005641 0.000000
# 3 0.001026 -0.007169 0.016809 0.000000 -0.010848 0.000000
# 4 0.000000 0.000000 0.000000 0.084433 0.000000 -0.022158
# 5 -0.005587 -0.005641 -0.010848 0.000000 0.054826 0.000000
# 6 0.000000 0.000000 0.000000 -0.022158 0.000000 0.055385
#
#
# Mechanical properties :
#
#
# Convention : Reuss Voigt Hill
#
# Bulk Modulus (GPa) = 38.19028 58.87109 48.53069
# Shear Modulus (GPa) = 15.59748 20.69919 18.14834
#
# Velocity S-wave (km/s) = 2.94914 3.39739 3.18117
# Velocity P-wave (km/s) = 5.73517 6.94386 6.36825
#
# Compressibility (1/GPa) = 0.02618468
#
# Stress axis : x y z
#
# Youngs Moduli (GPa) = 47.31387 29.63478 59.49246
#
# Poissons Ratio (x) = 0.49220 -0.06105
# Poissons Ratio (y) = 0.78584 0.42650
# Poissons Ratio (z) = -0.04855 0.21245
#
# Static dielectric constant tensor:
#      x y z
#    x 1.648890 0.000000 -0.002460 
#    y 0.000000 1.597800 0.000000 
#    z -0.002460 0.000000 1.618080 
# 
# From -- ./inp_files/277112.got.cif
#   From: 2010.05.17/outbox.cif.g08.bks.cpg/sg15_139_cif.got.tgz:277112.got - 2010.06.03 18:47:42.
