data_PCOD9258097
_publ_section_title
;
Structure prediction by ZEFSAII (Michael W. Deem and Ramdas Pophale) SiO2 
 PCOD9258097
Probable space group: C 2/C
;
_chemical_formula_sum "Si O2"
_cell_formula_units_Z 36
_cell_length_a 6.611291
_cell_length_b 19.001878
_cell_length_c 12.565724
_cell_angle_alpha 90.000000
_cell_angle_beta 66.149398
_cell_angle_gamma 90.000000
_cell_volume 1443.786227
_symmetry_space_group_name_H-M "C 2/C"
_symmetry_group_IT_number 15
_symmetry_cell_setting 'monoclinic'
loop_
_space_group_symop_operation_xyz
x,y,z
-x,y,1/2-z
-x,-y,-z
x,-y,1/2+z
1/2+x,1/2+y,z
1/2-x,1/2+y,1/2-z
1/2-x,1/2-y,-z
1/2+x,1/2-y,1/2+z
loop_
_atom_site_type_symbol
_atom_site_label
_atom_site_fract_x
_atom_site_fract_y
_atom_site_fract_z
Si Si1 0.000000 0.541215 0.750000
Si Si2 0.705200 0.728565 0.291420
Si Si3 0.622538 0.071000 0.510311
Si Si4 0.443657 0.778899 0.537846
Si Si5 0.394098 0.431218 0.656753
O O1 0.003080 0.588948 0.646083
O O2 0.207390 0.489947 0.687443
O O3 0.500000 0.733120 0.250000
O O4 0.649315 0.765635 0.415516
O O5 0.899858 0.749252 0.166888
O O6 0.708869 0.646328 0.325519
O O7 0.583833 0.137127 0.443033
O O8 0.887976 0.064199 0.463478
O O9 0.500000 0.000000 0.500000
O O10 0.250000 0.750000 0.500000
O O11 0.500000 0.441574 0.750000
#
# Coordination Sequence:
#
# PCOD9258097 Si02
#       5
#     4   8   8   8   8
#     4  12  26  36  68  90 124 174 214 256 324 400
#     4   9  17  32  59  84 119 159 209 259 317 377
#     4  12  23  39  63  96 132 166 213 268 330 384
#     4  10  18  32  59  91 119 164 212 264 316 384
#     4  11  20  43  60  89 127 168 205 266 326 381
#
# _framework density 24.934439999999999
#
# number of rings (size 3 to 8) (size 9 to 14) (size 15 to 20)
#    0.000    1.333    8.889    0.667    4.667    0.000 
#    0.000    0.000    0.000    8.000    0.000    0.000 
#    0.000    0.000    0.000    0.000    0.000    0.000 
#
# Total GULP energy -100510.316578 kJ/mol
# GULP energy per Si atom -5583.906477 kJ/mol
# Density = 2.487769 g / cm^3
# Si number density = 24.934440 Si / 1000 Ang^3
#
#
#
# Elastic Constant Matrix: (Units=GPa)
#
#
# Indices 1 2 3 4 5 6 
#
# 1 74.2774 17.9103 50.9054 0.0000 -28.8001 0.0000
# 2 17.9103 72.9746 30.9322 0.0000 -5.9517 0.0000
# 3 50.9054 30.9322 264.1152 0.0000 -13.6710 0.0000
# 4 0.0000 0.0000 0.0000 33.1810 0.0000 -11.1818
# 5 -28.8001 -5.9517 -13.6710 0.0000 56.0469 0.0000
# 6 0.0000 0.0000 0.0000 -11.1818 0.0000 4.0941
#
#
#
# Elastic Compliance Matrix: (Units=1/GPa)
#
#
# Indices 1 2 3 4 5 6 
#
# 1 0.019733 -0.002828 -0.003001 0.000000 0.009108 0.000000
# 2 -0.002828 0.014896 -0.001208 0.000000 -0.000166 0.000000
# 3 -0.003001 -0.001208 0.004476 0.000000 -0.000578 0.000000
# 4 0.000000 0.000000 0.000000 0.378652 0.000000 1.034184
# 5 0.009108 -0.000166 -0.000578 0.000000 0.022363 0.000000
# 6 0.000000 0.000000 0.000000 1.034184 0.000000 3.068848
#
#
# Mechanical properties :
#
#
# Convention : Reuss Voigt Hill
#
# Bulk Modulus (GPa) = 39.95051 67.87367 53.91209
# Shear Modulus (GPa) = 1.41587 39.43900 20.42744
#
# Velocity S-wave (km/s) = 0.75437 3.98138 2.86535
# Velocity P-wave (km/s) = 4.10070 6.95810 5.71100
#
# Compressibility (1/GPa) = 0.02503097
#
# Stress axis : x y z
#
# Youngs Moduli (GPa) = 50.67689 67.13176 223.40821
#
# Poissons Ratio (x) = 0.18987 0.67037
# Poissons Ratio (y) = 0.14333 0.26989
# Poissons Ratio (z) = 0.15206 0.08110
#
# Static dielectric constant tensor:
#      x y z
#    x 2.153770 0.000000 -0.090310 
#    y 0.000000 1.927790 0.000000 
#    z -0.090310 0.000000 2.104470 
# 
# From -- ./inp_files/76325.got.cif
#   From: 2010.05.17/outbox.cif.g08.bks.cpg/sg15_39_cif.got.tgz:76325.got - 2010.06.03 18:47:42.
