data_PCOD9258662
_publ_section_title
;
Structure prediction by ZEFSAII (Michael W. Deem and Ramdas Pophale) SiO2 
 PCOD9258662
Probable space group: C 2/C
;
_chemical_formula_sum "Si O2"
_cell_formula_units_Z 44
_cell_length_a 18.257680
_cell_length_b 17.912770
_cell_length_c 12.793553
_cell_angle_alpha 90.000000
_cell_angle_beta 36.521352
_cell_angle_gamma 90.000000
_cell_volume 2490.036692
_symmetry_space_group_name_H-M "C 2/C"
_symmetry_group_IT_number 15
_symmetry_cell_setting 'monoclinic'
loop_
_space_group_symop_operation_xyz
x,y,z
-x,y,1/2-z
-x,-y,-z
x,-y,1/2+z
1/2+x,1/2+y,z
1/2-x,1/2+y,1/2-z
1/2-x,1/2-y,-z
1/2+x,1/2-y,1/2+z
loop_
_atom_site_type_symbol
_atom_site_label
_atom_site_fract_x
_atom_site_fract_y
_atom_site_fract_z
Si Si1 0.871959 0.082705 0.549319
Si Si2 0.181671 0.601374 0.395351
Si Si3 0.883022 0.011612 0.756267
Si Si4 0.362847 0.255249 0.954235
Si Si5 0.000000 0.485247 0.250000
Si Si6 0.220002 0.538136 0.127389
O O1 0.873637 0.165065 0.500257
O O2 0.987006 0.030307 0.383474
O O3 0.877706 0.070965 0.667539
O O4 0.750931 0.042862 0.641955
O O5 0.292291 0.556846 0.326756
O O6 0.171645 0.688317 0.428993
O O7 0.200354 0.588167 0.251168
O O8 0.063395 0.563904 0.586546
O O9 0.831729 0.050802 0.918723
O O10 0.500000 0.241811 0.750000
O O11 0.250000 0.250000 0.000000
O O12 0.101517 0.534274 0.190957
#
# Coordination Sequence:
#
# PCOD9258662 Si02
#       6
#     8   8   8   8   4   8
#     4  10  20  35  58  82 109 148 188 235 276 333
#     4  10  20  33  53  80 110 142 179 228 283 334
#     4   9  19  37  57  81 108 146 196 230 273 331
#     4  12  23  37  56  86 120 147 185 237 298 345
#     4  10  18  34  48  76 108 142 180 222 268 330
#     4  10  19  33  54  79 106 144 186 224 271 332
#
# _framework density 17.670421999999999
#
# number of rings (size 3 to 8) (size 9 to 14) (size 15 to 20)
#    0.000    1.818    0.909    5.455    0.000    0.000 
#    0.000    0.909    0.000    0.000    4.727    0.000 
#    0.000    0.000    0.000    0.000    0.000    0.000 
#
# Total GULP energy -122549.517651 kJ/mol
# GULP energy per Si atom -5570.432620 kJ/mol
# Density = 1.763020 g / cm^3
# Si number density = 17.670422 Si / 1000 Ang^3
#
#
#
# Elastic Constant Matrix: (Units=GPa)
#
#
# Indices 1 2 3 4 5 6 
#
# 1 96.6485 51.2200 68.3079 0.0000 7.1699 0.0000
# 2 51.2200 99.5774 49.8040 0.0000 17.0414 0.0000
# 3 68.3079 49.8040 125.0577 0.0000 28.0837 0.0000
# 4 0.0000 0.0000 0.0000 26.6874 0.0000 6.2814
# 5 7.1699 17.0414 28.0837 0.0000 44.8971 0.0000
# 6 0.0000 0.0000 0.0000 6.2814 0.0000 10.6938
#
#
#
# Elastic Compliance Matrix: (Units=1/GPa)
#
#
# Indices 1 2 3 4 5 6 
#
# 1 0.020194 -0.006468 -0.009635 0.000000 0.005257 0.000000
# 2 -0.006468 0.014753 -0.001532 0.000000 -0.003609 0.000000
# 3 -0.009635 -0.001532 0.015582 0.000000 -0.007626 0.000000
# 4 0.000000 0.000000 0.000000 0.043482 0.000000 -0.025541
# 5 0.005257 -0.003609 -0.007626 0.000000 0.027574 0.000000
# 6 0.000000 0.000000 0.000000 -0.025541 0.000000 0.108515
#
#
# Mechanical properties :
#
#
# Convention : Reuss Voigt Hill
#
# Bulk Modulus (GPa) = 65.53518 73.32751 69.43135
# Shear Modulus (GPa) = 18.48721 26.58577 22.53649
#
# Velocity S-wave (km/s) = 3.23805 3.88304 3.57512
# Velocity P-wave (km/s) = 7.15178 7.85439 7.51130
#
# Compressibility (1/GPa) = 0.01525898
#
# Stress axis : x y z
#
# Youngs Moduli (GPa) = 49.51885 67.78119 64.17714
#
# Poissons Ratio (x) = 0.43842 0.61835
# Poissons Ratio (y) = 0.32029 0.09833
# Poissons Ratio (z) = 0.47711 0.10385
#
# Static dielectric constant tensor:
#      x y z
#    x 1.646800 0.000000 -0.009690 
#    y 0.000000 1.569650 0.000000 
#    z -0.009690 0.000000 1.672560 
# 
# From -- ./inp_files/96606.got.cif
#   From: 2010.05.17/outbox.cif.g08.bks.cpg/sg15_49_cif.got.tgz:96606.got - 2010.06.03 18:47:42.
