data_PCOD9258144
_publ_section_title
;
Structure prediction by ZEFSAII (Michael W. Deem and Ramdas Pophale) SiO2 
 PCOD9258144
Probable space group: C 2/C
;
_chemical_formula_sum "Si O2"
_cell_formula_units_Z 44
_cell_length_a 13.526776
_cell_length_b 13.065570
_cell_length_c 16.964928
_cell_angle_alpha 90.000000
_cell_angle_beta 53.206198
_cell_angle_gamma 90.000000
_cell_volume 2401.024907
_symmetry_space_group_name_H-M "C 2/C"
_symmetry_group_IT_number 15
_symmetry_cell_setting 'monoclinic'
loop_
_space_group_symop_operation_xyz
x,y,z
-x,y,1/2-z
-x,-y,-z
x,-y,1/2+z
1/2+x,1/2+y,z
1/2-x,1/2+y,1/2-z
1/2-x,1/2-y,-z
1/2+x,1/2-y,1/2+z
loop_
_atom_site_type_symbol
_atom_site_label
_atom_site_fract_x
_atom_site_fract_y
_atom_site_fract_z
Si Si1 0.223884 0.870196 0.914916
Si Si2 0.255468 0.104168 0.876336
Si Si3 0.000000 0.738171 0.750000
Si Si4 0.505079 0.622414 0.091916
Si Si5 0.402356 0.594392 0.696832
Si Si6 0.350722 0.666029 0.875591
O O1 0.092149 0.857494 0.933066
O O2 0.301530 0.769084 0.859630
O O3 0.275577 0.981321 0.867947
O O4 0.219052 0.865676 0.012225
O O5 0.379921 0.168233 0.824359
O O6 0.196043 0.127445 0.819723
O O7 0.144948 0.127021 0.991769
O O8 0.015935 0.807041 0.821435
O O9 0.471641 0.506665 0.133408
O O10 0.346141 0.579609 0.810454
O O11 0.509418 0.676599 0.660864
#
# Coordination Sequence:
#
# PCOD9258144 Si02
#       6
#     8   8   4   8   8   8
#     4  10  20  36  62  86 122 141 188 238 294 330
#     4  11  22  41  56  84 115 158 184 242 284 340
#     4  12  26  36  60  80 120 150 198 238 290 326
#     4  11  21  41  58  85 111 160 194 234 270 356
#     4  10  19  36  64  84 113 148 198 224 280 348
#     4  10  18  32  61  97 106 145 187 241 273 341
#
# _framework density 18.325507999999999
#
# number of rings (size 3 to 8) (size 9 to 14) (size 15 to 20)
#    0.000    1.455    3.636    3.818    0.000    1.455 
#    0.000    0.000    0.000    5.455    0.000    0.000 
#    0.000    0.000    0.000    0.000    0.000    0.000 
#
# Total GULP energy -122572.300524 kJ/mol
# GULP energy per Si atom -5571.468206 kJ/mol
# Density = 1.828380 g / cm^3
# Si number density = 18.325508 Si / 1000 Ang^3
#
#
#
# Elastic Constant Matrix: (Units=GPa)
#
#
# Indices 1 2 3 4 5 6 
#
# 1 82.6709 57.2109 40.0903 0.0000 -5.9723 0.0000
# 2 57.2109 71.9246 26.1953 0.0000 -13.0594 0.0000
# 3 40.0903 26.1953 92.8235 0.0000 7.0748 0.0000
# 4 0.0000 0.0000 0.0000 22.5103 0.0000 2.7976
# 5 -5.9723 -13.0594 7.0748 0.0000 33.3373 0.0000
# 6 0.0000 0.0000 0.0000 2.7976 0.0000 35.3596
#
#
#
# Elastic Compliance Matrix: (Units=1/GPa)
#
#
# Indices 1 2 3 4 5 6 
#
# 1 0.030660 -0.022217 -0.006838 0.000000 -0.001759 0.000000
# 2 -0.022217 0.033453 -0.000550 0.000000 0.009242 0.000000
# 3 -0.006838 -0.000550 0.014221 0.000000 -0.004458 0.000000
# 4 0.000000 0.000000 0.000000 0.044865 0.000000 -0.003550
# 5 -0.001759 0.009242 -0.004458 0.000000 0.034248 0.000000
# 6 0.000000 0.000000 0.000000 -0.003550 0.000000 0.028562
#
#
# Mechanical properties :
#
#
# Convention : Reuss Voigt Hill
#
# Bulk Modulus (GPa) = 52.28607 54.93467 53.61037
# Shear Modulus (GPa) = 19.87334 26.50295 23.18815
#
# Velocity S-wave (km/s) = 3.29669 3.80706 3.56103
# Velocity P-wave (km/s) = 6.56389 7.02618 6.79897
#
# Compressibility (1/GPa) = 0.01912555
#
# Stress axis : x y z
#
# Youngs Moduli (GPa) = 32.61613 29.89236 70.31611
#
# Poissons Ratio (x) = 0.66410 0.48083
# Poissons Ratio (y) = 0.72462 0.03866
# Poissons Ratio (z) = 0.22303 0.01644
#
# Static dielectric constant tensor:
#      x y z
#    x 1.625390 0.000000 0.001140 
#    y 0.000000 1.634790 0.000000 
#    z 0.001140 0.000000 1.720550 
# 
# From -- ./inp_files/142938.got.cif
#   From: 2010.05.17/outbox.cif.g08.bks.cpg/sg15_72_cif.got.tgz:142938.got - 2010.06.03 18:47:42.
