data_PCOD9258042
_publ_section_title
;
Structure prediction by ZEFSAII (Michael W. Deem and Ramdas Pophale) SiO2 
 PCOD9258042
Probable space group: C 2/C
;
_chemical_formula_sum "Si O2"
_cell_formula_units_Z 52
_cell_length_a 21.608189
_cell_length_b 9.699299
_cell_length_c 18.331400
_cell_angle_alpha 90.000000
_cell_angle_beta 48.886965
_cell_angle_gamma 90.000000
_cell_volume 2894.595831
_symmetry_space_group_name_H-M "C 2/C"
_symmetry_group_IT_number 15
_symmetry_cell_setting 'monoclinic'
loop_
_space_group_symop_operation_xyz
x,y,z
-x,y,1/2-z
-x,-y,-z
x,-y,1/2+z
1/2+x,1/2+y,z
1/2-x,1/2+y,1/2-z
1/2-x,1/2-y,-z
1/2+x,1/2-y,1/2+z
loop_
_atom_site_type_symbol
_atom_site_label
_atom_site_fract_x
_atom_site_fract_y
_atom_site_fract_z
Si Si1 0.734176 0.880847 0.914260
Si Si2 0.694966 0.483208 0.272031
Si Si3 0.096661 0.266623 0.915930
Si Si4 0.161483 0.384645 0.122303
Si Si5 0.000000 0.783093 0.750000
Si Si6 0.126281 0.501405 0.793015
Si Si7 0.447464 0.693269 0.130884
O O1 0.782542 0.994090 0.830246
O O2 0.651989 0.840968 0.934446
O O3 0.786142 0.738570 0.879994
O O4 0.711481 0.927380 0.012682
O O5 0.653627 0.342504 0.329499
O O6 0.781704 0.501163 0.245443
O O7 0.628167 0.602141 0.338564
O O8 0.074937 0.383307 0.873276
O O9 0.022088 0.194241 0.015867
O O10 0.076651 0.311012 0.166862
O O11 0.139804 0.503911 0.195845
O O12 0.973467 0.853633 0.693566
O O13 0.083511 0.649050 0.838677
#
# Coordination Sequence:
#
# PCOD9258042 Si02
#       7
#     8   8   8   8   4   8   8
#     4  10  19  33  57  82 113 147 191 226 276 335
#     4  11  20  36  54  87 118 146 184 235 287 335
#     4  11  21  34  55  86 117 147 183 236 292 333
#     4  10  18  35  57  85 105 147 198 231 266 325
#     4  10  18  32  58  86 106 136 198 242 264 310
#     4  10  20  36  57  82 112 151 193 230 274 340
#     4  11  21  37  57  87 112 150 191 238 276 332
#
# _framework density 17.964511000000002
#
# number of rings (size 3 to 8) (size 9 to 14) (size 15 to 20)
#    0.000    1.538    6.154    1.846    0.000    0.000 
#    0.000    0.769    0.000    3.692    0.000    0.000 
#    0.000    0.000    0.000    0.000    0.000    0.000 
#
# Total GULP energy -144865.259271 kJ/mol
# GULP energy per Si atom -5571.740741 kJ/mol
# Density = 1.792362 g / cm^3
# Si number density = 17.964511 Si / 1000 Ang^3
#
#
#
# Elastic Constant Matrix: (Units=GPa)
#
#
# Indices 1 2 3 4 5 6 
#
# 1 39.2903 -10.1387 6.3487 0.0000 2.2993 0.0000
# 2 -10.1387 20.5774 2.7218 0.0001 16.4337 -0.0001
# 3 6.3487 2.7218 98.5672 0.0000 17.5219 0.0000
# 4 0.0000 0.0001 0.0000 24.0740 0.0000 -9.5197
# 5 2.2993 16.4337 17.5219 0.0000 30.4197 0.0000
# 6 0.0000 -0.0001 0.0000 -9.5197 0.0000 14.8959
#
#
#
# Elastic Compliance Matrix: (Units=1/GPa)
#
#
# Indices 1 2 3 4 5 6 
#
# 1 0.035692 0.035094 0.000648 0.000000 -0.022030 0.000000
# 2 0.035094 0.123908 0.007452 0.000000 -0.073884 0.000001
# 3 0.000648 0.007452 0.011834 0.000000 -0.010891 0.000000
# 4 0.000000 0.000000 0.000000 0.055586 0.000000 0.035524
# 5 -0.022030 -0.073884 -0.010891 0.000000 0.080726 -0.000001
# 6 0.000000 0.000001 0.000000 0.035524 -0.000001 0.089835
#
#
# Mechanical properties :
#
#
# Convention : Reuss Voigt Hill
#
# Bulk Modulus (GPa) = 3.87866 17.36651 10.62259
# Shear Modulus (GPa) = 12.59020 24.51146 18.55083
#
# Velocity S-wave (km/s) = 2.65021 3.69784 3.21695
# Velocity P-wave (km/s) = 3.39537 5.28395 4.44121
#
# Compressibility (1/GPa) = 0.25782128
#
# Stress axis : x y z
#
# Youngs Moduli (GPa) = 28.01756 8.07052 84.50295
#
# Poissons Ratio (x) = -0.28322 -0.05477
# Poissons Ratio (y) = -0.98324 -0.62972
# Poissons Ratio (z) = -0.01816 -0.06014
#
# Static dielectric constant tensor:
#      x y z
#    x 1.647010 0.000000 0.007950 
#    y 0.000000 1.600850 0.000000 
#    z 0.007950 0.000000 1.655730 
# 
# From -- ./inp_files/167194.got.cif
#   From: 2010.05.17/outbox.cif.g08.bks.cpg/sg15_84_cif.got.tgz:167194.got - 2010.06.03 18:47:42.
