data_PCOD9258139
_publ_section_title
;
Structure prediction by ZEFSAII (Michael W. Deem and Ramdas Pophale) SiO2 
 PCOD9258139
Probable space group: C 2/C
;
_chemical_formula_sum "Si O2"
_cell_formula_units_Z 48
_cell_length_a 25.493044
_cell_length_b 18.245962
_cell_length_c 15.674516
_cell_angle_alpha 90.000000
_cell_angle_beta 162.775565
_cell_angle_gamma 90.000000
_cell_volume 2158.955185
_symmetry_space_group_name_H-M "C 2/C"
_symmetry_group_IT_number 15
_symmetry_cell_setting 'monoclinic'
loop_
_space_group_symop_operation_xyz
x,y,z
-x,y,1/2-z
-x,-y,-z
x,-y,1/2+z
1/2+x,1/2+y,z
1/2-x,1/2+y,1/2-z
1/2-x,1/2-y,-z
1/2+x,1/2-y,1/2+z
loop_
_atom_site_type_symbol
_atom_site_label
_atom_site_fract_x
_atom_site_fract_y
_atom_site_fract_z
Si Si1 0.300841 0.669316 0.404922
Si Si2 0.768478 0.540954 0.790960
Si Si3 0.405161 0.535450 0.268198
Si Si4 0.702895 0.177490 0.540383
Si Si5 0.868289 0.418694 0.725602
Si Si6 0.801849 0.617206 0.428849
O O1 0.215293 0.745608 0.304977
O O2 0.180438 0.603913 0.255064
O O3 0.299310 0.663061 0.300638
O O4 0.500000 0.658648 0.750000
O O5 0.564038 0.534879 0.446561
O O6 0.749373 0.607704 0.828803
O O7 0.822024 0.466015 0.922416
O O8 0.926461 0.564404 0.973733
O O9 0.500000 0.500000 0.500000
O O10 0.313458 0.607928 0.164475
O O11 0.248149 0.486093 0.987893
O O12 0.700762 0.149606 0.440275
O O13 0.500000 0.190761 0.250000
O O14 0.000000 0.645799 0.750000
#
# Coordination Sequence:
#
# PCOD9258139 Si02
#       6
#     8   8   8   8   8   8
#     4  11  24  35  57  98 123 153 201 258 301 350
#     4  10  19  36  62  87 113 164 205 240 303 362
#     4  10  18  32  61  84 110 162 198 239 294 367
#     4   9  18  35  57  88 120 153 197 248 307 350
#     4  11  19  37  59  89 123 147 205 258 302 348
#     4  11  20  39  60  85 123 161 201 243 303 365
#
# _framework density 22.232977999999999
#
# number of rings (size 3 to 8) (size 9 to 14) (size 15 to 20)
#    0.000    1.667    5.000    3.000    0.000    0.667 
#    0.000    0.000    0.000    4.000    0.000    0.000 
#    0.000    0.000    0.000    0.000    0.000    0.000 
#
# Total GULP energy -133878.140030 kJ/mol
# GULP energy per Si atom -5578.255835 kJ/mol
# Density = 2.218237 g / cm^3
# Si number density = 22.232978 Si / 1000 Ang^3
#
#
#
# Elastic Constant Matrix: (Units=GPa)
#
#
# Indices 1 2 3 4 5 6 
#
# 1 62.8621 20.9882 36.8602 0.0000 10.6474 0.0000
# 2 20.9882 61.8830 12.4897 0.0000 -7.4992 0.0000
# 3 36.8602 12.4897 113.1365 0.0000 23.9866 0.0000
# 4 0.0000 0.0000 0.0000 5.9954 0.0000 -4.6095
# 5 10.6474 -7.4992 23.9866 0.0000 37.8528 0.0000
# 6 0.0000 0.0000 0.0000 -4.6095 0.0000 -10.0948
#
#
#
# Elastic Compliance Matrix: (Units=1/GPa)
#
#
# Indices 1 2 3 4 5 6 
#
# 1 0.022179 -0.006881 -0.005608 0.000000 -0.004048 0.000000
# 2 -0.006881 0.019568 -0.001329 0.000000 0.006655 0.000000
# 3 -0.005608 -0.001329 0.012169 0.000000 -0.006397 0.000000
# 4 0.000000 0.000000 0.000000 0.123454 0.000000 -0.056371
# 5 -0.004048 0.006655 -0.006397 0.000000 0.032929 0.000000
# 6 0.000000 0.000000 0.000000 -0.056371 0.000000 -0.073321
#
#
# Mechanical properties :
#
#
# Convention : Reuss Voigt Hill
#
# Bulk Modulus (GPa) = 38.05240 42.06199 40.05720
# Shear Modulus (GPa) = 28.83919 17.92025 23.37972
#
# Velocity S-wave (km/s) = 3.60548 2.84213 3.24632
# Velocity P-wave (km/s) = 5.87241 5.45253 5.66636
#
# Compressibility (1/GPa) = 0.02627955
#
# Stress axis : x y z
#
# Youngs Moduli (GPa) = 45.08690 51.10387 82.17540
#
# Poissons Ratio (x) = 0.35165 0.46086
# Poissons Ratio (y) = 0.31024 0.10923
# Poissons Ratio (z) = 0.25286 0.06793
#
# Static dielectric constant tensor:
#      x y z
#    x 1.899440 0.000000 -0.063080 
#    y 0.000000 1.969300 0.000000 
#    z -0.063080 0.000000 2.116840 
# 
# From -- ./inp_files/174528.got.cif
#   From: 2010.05.17/outbox.cif.g08.bks.cpg/sg15_88_cif.got.tgz:174528.got - 2010.06.03 18:47:42.
