data_PCOD9258376
_publ_section_title
;
Structure prediction by ZEFSAII (Michael W. Deem and Ramdas Pophale) SiO2 
 PCOD9258376
Probable space group: C 2/C
;
_chemical_formula_sum "Si O2"
_cell_formula_units_Z 52
_cell_length_a 9.184522
_cell_length_b 16.296245
_cell_length_c 21.722710
_cell_angle_alpha 90.000000
_cell_angle_beta 60.132904
_cell_angle_gamma 90.000000
_cell_volume 2819.478605
_symmetry_space_group_name_H-M "C 2/C"
_symmetry_group_IT_number 15
_symmetry_cell_setting 'monoclinic'
loop_
_space_group_symop_operation_xyz
x,y,z
-x,y,1/2-z
-x,-y,-z
x,-y,1/2+z
1/2+x,1/2+y,z
1/2-x,1/2+y,1/2-z
1/2-x,1/2-y,-z
1/2+x,1/2-y,1/2+z
loop_
_atom_site_type_symbol
_atom_site_label
_atom_site_fract_x
_atom_site_fract_y
_atom_site_fract_z
Si Si1 0.607618 0.687583 0.511612
Si Si2 0.671446 0.497736 0.002559
Si Si3 0.738587 0.224936 0.628464
Si Si4 0.221869 0.601685 0.408295
Si Si5 0.500000 0.103149 0.750000
Si Si6 0.517380 0.196878 0.555449
Si Si7 0.963263 0.539425 0.627412
O O1 0.750000 0.750000 0.500000
O O2 0.685415 0.599296 0.508538
O O3 0.433197 0.699299 0.584766
O O4 0.559578 0.717682 0.452216
O O5 0.838236 0.528421 0.931519
O O6 0.500000 0.500000 0.000000
O O7 0.664999 0.551270 0.066476
O O8 0.709476 0.321977 0.645901
O O9 0.642782 0.163970 0.693978
O O10 0.659057 0.212996 0.576891
O O11 0.090649 0.649766 0.480453
O O12 0.132075 0.534779 0.384868
O O13 0.444669 0.047843 0.704151
O O14 0.404439 0.126915 0.611195
#
# Coordination Sequence:
#
# PCOD9258376 Si02
#       7
#     8   8   8   8   4   8   8
#     4  11  19  30  54  87 112 129 163 229 286 313
#     4  11  19  30  54  88 114 130 167 231 281 314
#     4  10  20  37  57  76 106 149 188 213 257 335
#     4  10  18  33  55  82 105 135 180 230 274 310
#     4  10  22  40  56  70 102 160 198 212 248 330
#     4   9  17  33  55  80 108 143 179 216 269 330
#     4  10  20  36  55  75 108 147 181 219 269 326
#
# _framework density 18.443127
#
# number of rings (size 3 to 8) (size 9 to 14) (size 15 to 20)
#    0.000    1.846    0.000   10.154    0.000    0.000 
#    0.000    6.154    0.000   11.077    0.000    0.000 
#    0.000    0.000    0.000    0.000    0.000    0.000 
#
# Total GULP energy -144802.586156 kJ/mol
# GULP energy per Si atom -5569.330237 kJ/mol
# Density = 1.840115 g / cm^3
# Si number density = 18.443127 Si / 1000 Ang^3
#
#
#
# Elastic Constant Matrix: (Units=GPa)
#
#
# Indices 1 2 3 4 5 6 
#
# 1 86.8587 22.8567 32.9266 0.0000 3.0948 0.0000
# 2 22.8567 103.4524 21.0160 0.0000 8.5641 0.0000
# 3 32.9266 21.0160 71.3132 0.0000 6.6337 0.0000
# 4 0.0000 0.0000 0.0000 22.8536 0.0000 7.5593
# 5 3.0948 8.5641 6.6337 0.0000 17.5038 0.0000
# 6 0.0000 0.0000 0.0000 7.5593 0.0000 45.2743
#
#
#
# Elastic Compliance Matrix: (Units=1/GPa)
#
#
# Indices 1 2 3 4 5 6 
#
# 1 0.014320 -0.001988 -0.006096 0.000000 0.000751 0.000000
# 2 -0.001988 0.010839 -0.001882 0.000000 -0.004238 0.000000
# 3 -0.006096 -0.001882 0.017835 0.000000 -0.004760 0.000000
# 4 0.000000 0.000000 0.000000 0.046315 0.000000 -0.007733
# 5 0.000751 -0.004238 -0.004760 0.000000 0.060875 0.000000
# 6 0.000000 0.000000 0.000000 -0.007733 0.000000 0.023379
#
#
# Mechanical properties :
#
#
# Convention : Reuss Voigt Hill
#
# Bulk Modulus (GPa) = 43.36139 46.13587 44.74863
# Shear Modulus (GPa) = 24.85321 29.44801 27.15061
#
# Velocity S-wave (km/s) = 3.67489 4.00020 3.84099
# Velocity P-wave (km/s) = 6.44735 6.81212 6.63224
#
# Compressibility (1/GPa) = 0.02306199
#
# Stress axis : x y z
#
# Youngs Moduli (GPa) = 69.83191 92.26239 56.07029
#
# Poissons Ratio (x) = 0.18339 0.34180
# Poissons Ratio (y) = 0.13880 0.10553
# Poissons Ratio (z) = 0.42569 0.17365
#
# Static dielectric constant tensor:
#      x y z
#    x 1.688310 0.000000 0.001200 
#    y 0.000000 1.824820 0.000000 
#    z 0.001200 0.000000 1.646860 
# 
# From -- ./inp_files/232081.got.cif
#   From: 2010.05.17/outbox.cif.g08.bks.cpg/sg15_117_cif.got.tgz:232081.got - 2010.06.03 18:47:42.
