data_PCOD9258424
_publ_section_title
;
Structure prediction by ZEFSAII (Michael W. Deem and Ramdas Pophale) SiO2 
 PCOD9258424
Probable space group: C 2/C
;
_chemical_formula_sum "Si O2"
_cell_formula_units_Z 52
_cell_length_a 18.226152
_cell_length_b 25.277844
_cell_length_c 12.719574
_cell_angle_alpha 90.000000
_cell_angle_beta 150.592935
_cell_angle_gamma 90.000000
_cell_volume 2877.391535
_symmetry_space_group_name_H-M "C 2/C"
_symmetry_group_IT_number 15
_symmetry_cell_setting 'monoclinic'
loop_
_space_group_symop_operation_xyz
x,y,z
-x,y,1/2-z
-x,-y,-z
x,-y,1/2+z
1/2+x,1/2+y,z
1/2-x,1/2+y,1/2-z
1/2-x,1/2-y,-z
1/2+x,1/2-y,1/2+z
loop_
_atom_site_type_symbol
_atom_site_label
_atom_site_fract_x
_atom_site_fract_y
_atom_site_fract_z
Si Si1 0.893304 0.527796 0.014397
Si Si2 0.396160 0.830347 0.776476
Si Si3 0.944519 0.222421 0.949378
Si Si4 0.778831 0.361419 0.405998
Si Si5 0.579745 0.924338 0.551837
Si Si6 0.000000 0.371324 0.250000
Si Si7 0.719928 0.778397 0.572093
O O1 0.000000 0.521257 0.250000
O O2 0.993988 0.550167 0.043871
O O3 0.779399 0.575052 0.898505
O O4 0.830865 0.471984 0.893534
O O5 0.391030 0.769837 0.805857
O O6 0.303972 0.843647 0.557400
O O7 0.349396 0.871461 0.809688
O O8 0.570416 0.842298 0.966332
O O9 0.861188 0.168679 0.816406
O O10 0.890650 0.243233 0.995499
O O11 0.122330 0.217063 0.171643
O O12 0.475500 0.904563 0.325657
O O13 0.140243 0.333680 0.448085
O O14 0.750000 0.750000 0.500000
#
# Coordination Sequence:
#
# PCOD9258424 Si02
#       7
#     8   8   8   8   8   4   8
#     4  10  18  33  56  84 114 146 192 254 284 329
#     4  10  18  35  54  83 115 154 190 245 278 351
#     4  12  22  37  57  82 119 157 191 235 290 354
#     4  10  20  34  56  82 118 147 197 236 299 333
#     4  10  19  32  56  86 110 146 199 240 287 334
#     4  12  22  36  60  84 116 150 196 236 286 354
#     4  12  23  37  55  83 118 154 189 236 287 341
#
# _framework density 18.071923999999999
#
# number of rings (size 3 to 8) (size 9 to 14) (size 15 to 20)
#    0.000    1.231    8.462    0.462    2.154    0.000 
#    0.000    0.000    0.000    0.923    0.000    2.154 
#    0.000    0.000    0.000    0.000    0.000    0.000 
#
# Total GULP energy -144895.857141 kJ/mol
# GULP energy per Si atom -5572.917582 kJ/mol
# Density = 1.803079 g / cm^3
# Si number density = 18.071924 Si / 1000 Ang^3
#
#
#
# Elastic Constant Matrix: (Units=GPa)
#
#
# Indices 1 2 3 4 5 6 
#
# 1 70.9781 20.7571 21.6791 0.0000 -24.0147 0.0000
# 2 20.7571 109.0510 33.5320 0.0000 -10.7589 0.0000
# 3 21.6791 33.5320 56.8101 0.0000 -4.1838 0.0000
# 4 0.0000 0.0000 0.0000 19.0497 0.0000 -2.9305
# 5 -24.0147 -10.7589 -4.1838 0.0000 27.7077 0.0000
# 6 0.0000 0.0000 0.0000 -2.9305 0.0000 24.9002
#
#
#
# Elastic Compliance Matrix: (Units=1/GPa)
#
#
# Indices 1 2 3 4 5 6 
#
# 1 0.022550 -0.000306 -0.007072 0.000000 0.018357 0.000000
# 2 -0.000306 0.011531 -0.006451 0.000000 0.003238 0.000000
# 3 -0.007072 -0.006451 0.023737 0.000000 -0.005050 0.000000
# 4 0.000000 0.000000 0.000000 0.053462 0.000000 0.006292
# 5 0.018357 0.003238 -0.005050 0.000000 0.052496 0.000000
# 6 0.000000 0.000000 0.000000 0.006292 0.000000 0.040901
#
#
# Mechanical properties :
#
#
# Convention : Reuss Voigt Hill
#
# Bulk Modulus (GPa) = 33.15790 43.19729 38.17759
# Shear Modulus (GPa) = 20.62794 25.05623 22.84209
#
# Velocity S-wave (km/s) = 3.38218 3.72758 3.55907
# Velocity P-wave (km/s) = 5.79998 6.51777 6.16932
#
# Compressibility (1/GPa) = 0.03015872
#
# Stress axis : x y z
#
# Youngs Moduli (GPa) = 44.34679 86.71961 42.12823
#
# Poissons Ratio (x) = 0.02657 0.29794
# Poissons Ratio (y) = 0.01359 0.27177
# Poissons Ratio (z) = 0.31363 0.55943
#
# Static dielectric constant tensor:
#      x y z
#    x 1.634120 0.000000 -0.032000 
#    y 0.000000 1.667900 0.000000 
#    z -0.032000 0.000000 1.590990 
# 
# From -- ./inp_files/108360.got.cif
#   From: 2010.05.17/outbox.cif.g08.bks.cpg/sg15_55_cif.got.tgz:108360.got - 2010.06.03 18:47:42.
