data_PCOD9258884
_publ_section_title
;
Structure prediction by ZEFSAII (Michael W. Deem and Ramdas Pophale) SiO2 
 PCOD9258884
Probable space group: C 2/C
;
_chemical_formula_sum "Si O2"
_cell_formula_units_Z 52
_cell_length_a 20.932437
_cell_length_b 17.029808
_cell_length_c 14.782785
_cell_angle_alpha 90.000000
_cell_angle_beta 151.117350
_cell_angle_gamma 90.000000
_cell_volume 2545.355533
_symmetry_space_group_name_H-M "C 2/C"
_symmetry_group_IT_number 15
_symmetry_cell_setting 'monoclinic'
loop_
_space_group_symop_operation_xyz
x,y,z
-x,y,1/2-z
-x,-y,-z
x,-y,1/2+z
1/2+x,1/2+y,z
1/2-x,1/2+y,1/2-z
1/2-x,1/2-y,-z
1/2+x,1/2-y,1/2+z
loop_
_atom_site_type_symbol
_atom_site_label
_atom_site_fract_x
_atom_site_fract_y
_atom_site_fract_z
Si Si1 0.771333 0.120627 0.000295
Si Si2 0.452684 0.771115 0.995791
Si Si3 0.302140 0.664413 0.239300
Si Si4 0.323679 0.477774 0.304202
Si Si5 0.500000 0.262740 0.750000
Si Si6 0.082319 0.579596 0.602640
Si Si7 0.459242 0.519336 0.792434
O O1 0.660143 0.092701 0.793384
O O2 0.743216 0.159357 0.063842
O O3 0.873461 0.180476 0.080765
O O4 0.854828 0.044075 0.129423
O O5 0.547851 0.699191 0.080827
O O6 0.510439 0.782101 0.169137
O O7 0.490952 0.844547 0.980996
O O8 0.294681 0.781164 0.819136
O O9 0.301097 0.572621 0.267820
O O10 0.191845 0.431321 0.161841
O O11 0.419370 0.473500 0.509616
O O12 0.391363 0.444425 0.297392
O O13 0.000000 0.500000 0.500000
O O14 0.500000 0.563200 0.750000
#
# Coordination Sequence:
#
# PCOD9258884 Si02
#       7
#     8   8   8   8   4   8   8
#     4  10  19  34  57  85 124 158 197 245 306 366
#     4  11  22  35  57  84 123 166 194 246 311 371
#     4  10  22  38  56  90 122 164 205 245 305 378
#     4  10  21  36  56  87 118 155 210 246 295 373
#     4  10  18  34  56  88 118 156 204 236 300 392
#     4  12  22  36  53  81 126 160 197 242 302 367
#     4  10  18  34  59  84 115 156 200 252 298 351
#
# _framework density 20.429366999999999
#
# number of rings (size 3 to 8) (size 9 to 14) (size 15 to 20)
#    0.000    1.538    3.846    1.846    0.000    6.154 
#    0.000    0.000    0.000    0.000    0.000   11.846 
#    0.000    0.000    0.000    0.000    0.000    0.000 
#
# Total GULP energy -144808.755041 kJ/mol
# GULP energy per Si atom -5569.567502 kJ/mol
# Density = 2.038287 g / cm^3
# Si number density = 20.429367 Si / 1000 Ang^3
#
#
#
# Elastic Constant Matrix: (Units=GPa)
#
#
# Indices 1 2 3 4 5 6 
#
# 1 143.6916 30.7562 35.3648 0.0000 15.1952 0.0000
# 2 30.7562 72.8189 18.2646 0.0000 5.8463 0.0000
# 3 35.3648 18.2646 61.9441 0.0000 4.9248 0.0000
# 4 0.0000 0.0000 0.0000 29.5113 0.0000 1.4894
# 5 15.1952 5.8463 4.9248 0.0000 26.8663 0.0000
# 6 0.0000 0.0000 0.0000 1.4894 0.0000 32.2845
#
#
#
# Elastic Compliance Matrix: (Units=1/GPa)
#
#
# Indices 1 2 3 4 5 6 
#
# 1 0.008873 -0.002431 -0.004051 0.000000 -0.003747 0.000000
# 2 -0.002431 0.015657 -0.003113 0.000000 -0.001462 0.000000
# 3 -0.004051 -0.003113 0.019421 0.000000 -0.000591 0.000000
# 4 0.000000 0.000000 0.000000 0.033964 0.000000 -0.001567
# 5 -0.003747 -0.001462 -0.000591 0.000000 0.039767 0.000000
# 6 0.000000 0.000000 0.000000 -0.001567 0.000000 0.031047
#
#
# Mechanical properties :
#
#
# Convention : Reuss Voigt Hill
#
# Bulk Modulus (GPa) = 40.38355 49.69173 45.03764
# Shear Modulus (GPa) = 28.38118 30.67036 29.52577
#
# Velocity S-wave (km/s) = 3.73129 3.87885 3.80578
# Velocity P-wave (km/s) = 6.19465 6.66612 6.43470
#
# Compressibility (1/GPa) = 0.02476256
#
# Stress axis : x y z
#
# Youngs Moduli (GPa) = 112.70301 63.86732 51.49001
#
# Poissons Ratio (x) = 0.15524 0.20859
# Poissons Ratio (y) = 0.27395 0.16028
# Poissons Ratio (z) = 0.45657 0.19880
#
# Static dielectric constant tensor:
#      x y z
#    x 1.850960 0.000000 0.093730 
#    y 0.000000 1.758190 0.000000 
#    z 0.093730 0.000000 1.791830 
# 
# From -- ./inp_files/169010.got.cif
#   From: 2010.05.17/outbox.cif.g08.bks.cpg/sg15_85_cif.got.tgz:169010.got - 2010.06.03 18:47:42.
