data_PCOD9258643
_publ_section_title
;
Structure prediction by ZEFSAII (Michael W. Deem and Ramdas Pophale) SiO2 
 PCOD9258643
Probable space group: C 2/C
;
_chemical_formula_sum "Si O2"
_cell_formula_units_Z 60
_cell_length_a 10.952203
_cell_length_b 16.341515
_cell_length_c 17.625614
_cell_angle_alpha 90.000000
_cell_angle_beta 79.210142
_cell_angle_gamma 90.000000
_cell_volume 3098.783406
_symmetry_space_group_name_H-M "C 2/C"
_symmetry_group_IT_number 15
_symmetry_cell_setting 'monoclinic'
loop_
_space_group_symop_operation_xyz
x,y,z
-x,y,1/2-z
-x,-y,-z
x,-y,1/2+z
1/2+x,1/2+y,z
1/2-x,1/2+y,1/2-z
1/2-x,1/2-y,-z
1/2+x,1/2-y,1/2+z
loop_
_atom_site_type_symbol
_atom_site_label
_atom_site_fract_x
_atom_site_fract_y
_atom_site_fract_z
Si Si1 0.420566 0.781414 0.612374
Si Si2 0.627967 0.721449 0.471197
Si Si3 0.000000 0.386411 0.750000
Si Si4 0.788596 0.091339 0.397940
Si Si5 0.889518 0.954098 0.472498
Si Si6 0.065910 0.111508 0.822646
Si Si7 0.042032 0.184545 0.327355
Si Si8 0.764618 0.959459 0.732603
O O1 0.516830 0.755525 0.536060
O O2 0.478637 0.830951 0.677194
O O3 0.314125 0.838188 0.589340
O O4 0.375861 0.695067 0.652308
O O5 0.750000 0.750000 0.500000
O O6 0.643909 0.623117 0.472966
O O7 0.598211 0.741676 0.386925
O O8 0.124419 0.440063 0.724215
O O9 0.766728 0.040204 0.323644
O O10 0.922515 0.136263 0.375532
O O11 0.790389 0.023872 0.463809
O O12 0.952874 0.917242 0.389685
O O13 0.000000 0.000000 0.500000
O O14 0.000000 0.126016 0.750000
O O15 0.167768 0.039990 0.805903
O O16 0.147493 0.117722 0.296797
O O17 0.000000 0.219700 0.250000
#
# Coordination Sequence:
#
# PCOD9258643 Si02
#       8
#     8   8   4   8   8   8   8   8
#     4  10  23  35  59  87 125 156 203 258 313 362
#     4  11  23  39  61  92 124 160 205 259 309 365
#     4  10  20  36  56  86 120 170 194 246 320 374
#     4  10  19  36  58  90 114 156 202 252 301 369
#     4  11  20  36  62  86 108 154 204 243 296 366
#     4  11  18  35  59  88 110 150 202 255 289 358
#     4  10  19  37  63  87 116 161 204 250 302 372
#     4  10  18  33  63  82 118 154 209 248 296 371
#
# _framework density 19.362438999999998
#
# number of rings (size 3 to 8) (size 9 to 14) (size 15 to 20)
#    0.000    1.600    4.667    1.200    0.000    0.533 
#    0.000    0.667   13.200    0.000    0.000    0.000 
#    0.000    0.000    0.000    0.000    0.000    0.000 
#
# Total GULP energy -167315.514589 kJ/mol
# GULP energy per Si atom -5577.183820 kJ/mol
# Density = 1.931837 g / cm^3
# Si number density = 19.362439 Si / 1000 Ang^3
#
#
#
# Elastic Constant Matrix: (Units=GPa)
#
#
# Indices 1 2 3 4 5 6 
#
# 1 104.6339 31.4230 22.3020 0.0000 17.1504 0.0000
# 2 31.4230 63.5151 18.5408 0.0000 15.1607 0.0000
# 3 22.3020 18.5408 90.0920 0.0000 24.4564 0.0000
# 4 0.0000 0.0000 0.0000 14.1014 0.0000 15.0916
# 5 17.1504 15.1607 24.4564 0.0000 24.8249 0.0000
# 6 0.0000 0.0000 0.0000 15.0916 0.0000 26.1704
#
#
#
# Elastic Compliance Matrix: (Units=1/GPa)
#
#
# Indices 1 2 3 4 5 6 
#
# 1 0.011841 -0.004524 -0.000723 0.000000 -0.004706 0.000000
# 2 -0.004524 0.020227 -0.000734 0.000000 -0.008504 0.000000
# 3 -0.000723 -0.000734 0.015251 0.000000 -0.014077 0.000000
# 4 0.000000 0.000000 0.000000 0.185232 0.000000 -0.106817
# 5 -0.004706 -0.008504 -0.014077 0.000000 0.062594 0.000000
# 6 0.000000 0.000000 0.000000 -0.106817 0.000000 0.099809
#
#
# Mechanical properties :
#
#
# Convention : Reuss Voigt Hill
#
# Bulk Modulus (GPa) = 28.28325 44.75251 36.51788
# Shear Modulus (GPa) = 11.94168 25.41769 18.67968
#
# Velocity S-wave (km/s) = 2.48613 3.62709 3.10939
# Velocity P-wave (km/s) = 4.78331 6.37999 5.63846
#
# Compressibility (1/GPa) = 0.03535662
#
# Stress axis : x y z
#
# Youngs Moduli (GPa) = 84.45172 49.43996 65.56871
#
# Poissons Ratio (x) = 0.22367 0.04739
# Poissons Ratio (y) = 0.38206 0.04815
# Poissons Ratio (z) = 0.06104 0.03630
#
# Static dielectric constant tensor:
#      x y z
#    x 1.675240 0.000000 0.002240 
#    y 0.000000 1.695880 0.000000 
#    z 0.002240 0.000000 1.608980 
# 
# From -- ./inp_files/197836.got.cif
#   From: 2010.05.17/outbox.cif.g08.bks.cpg/sg15_99_cif.got.tgz:197836.got - 2010.06.03 18:47:42.
