data_PCOD9258041
_publ_section_title
;
Structure prediction by ZEFSAII (Michael W. Deem and Ramdas Pophale) SiO2 
 PCOD9258041
Probable space group: C 2/C
;
_chemical_formula_sum "Si O2"
_cell_formula_units_Z 56
_cell_length_a 8.150033
_cell_length_b 11.183113
_cell_length_c 29.951072
_cell_angle_alpha 90.000000
_cell_angle_beta 111.576103
_cell_angle_gamma 90.000000
_cell_volume 2538.543931
_symmetry_space_group_name_H-M "C 2/C"
_symmetry_group_IT_number 15
_symmetry_cell_setting 'monoclinic'
loop_
_space_group_symop_operation_xyz
x,y,z
-x,y,1/2-z
-x,-y,-z
x,-y,1/2+z
1/2+x,1/2+y,z
1/2-x,1/2+y,1/2-z
1/2-x,1/2-y,-z
1/2+x,1/2-y,1/2+z
loop_
_atom_site_type_symbol
_atom_site_label
_atom_site_fract_x
_atom_site_fract_y
_atom_site_fract_z
Si Si1 0.296119 0.605505 0.591767
Si Si2 0.122637 0.979070 0.168601
Si Si3 0.750000 0.750000 0.000000
Si Si4 0.782574 0.241787 0.332433
Si Si5 0.576530 0.808680 0.526345
Si Si6 0.500000 0.384519 0.250000
Si Si7 0.814871 0.671339 0.619196
Si Si8 0.602276 0.015981 0.951436
O O1 0.443208 0.512807 0.622136
O O2 0.334994 0.662565 0.548640
O O3 0.292814 0.709167 0.628539
O O4 0.106395 0.542293 0.573037
O O5 0.222571 0.867043 0.155810
O O6 0.067696 0.958862 0.214218
O O7 0.229194 0.100416 0.173804
O O8 0.558011 0.722367 0.012437
O O9 0.664060 0.305524 0.283260
O O10 0.987549 0.282978 0.352055
O O11 0.706890 0.762660 0.576689
O O12 0.660354 0.896712 0.497842
O O13 0.401879 0.877854 0.532917
O O14 0.818242 0.553881 0.587185
#
# Coordination Sequence:
#
# PCOD9258041 Si02
#       8
#     8   8   4   8   8   4   8   8
#     4   9  19  39  56  90 128 165 202 250 300 363
#     4  11  23  41  67  91 121 161 204 255 325 372
#     4  10  18  32  58  84 130 168 202 244 290 352
#     4  10  24  43  65  90 124 156 203 263 313 376
#     4  10  19  35  54  83 125 166 203 248 291 344
#     4  10  26  46  62  90 122 152 200 264 326 388
#     4  11  22  37  62  91 117 154 209 251 294 367
#     4   9  20  34  57  81 122 169 204 244 297 342
#
# _framework density 22.059892000000001
#
# number of rings (size 3 to 8) (size 9 to 14) (size 15 to 20)
#    0.000    2.000    1.429    1.286    2.000    2.857 
#    0.000    1.429    0.000    0.000    0.000    0.000 
#    0.000    0.000    0.000    0.000    0.000    0.000 
#
# Total GULP energy -156010.647038 kJ/mol
# GULP energy per Si atom -5571.808823 kJ/mol
# Density = 2.200968 g / cm^3
# Si number density = 22.059892 Si / 1000 Ang^3
#
#
#
# Elastic Constant Matrix: (Units=GPa)
#
#
# Indices 1 2 3 4 5 6 
#
# 1 65.9429 9.2858 16.2792 0.0000 8.5897 0.0000
# 2 9.2858 70.5111 24.8246 0.0000 3.0380 0.0000
# 3 16.2792 24.8246 98.3082 0.0000 7.6122 0.0000
# 4 0.0000 0.0000 0.0000 14.8514 0.0000 4.7686
# 5 8.5897 3.0380 7.6122 0.0000 46.9038 0.0000
# 6 0.0000 0.0000 0.0000 4.7686 0.0000 24.7338
#
#
#
# Elastic Compliance Matrix: (Units=1/GPa)
#
#
# Indices 1 2 3 4 5 6 
#
# 1 0.016208 -0.001262 -0.002169 0.000000 -0.002534 0.000000
# 2 -0.001262 0.015671 -0.003734 0.000000 -0.000178 0.000000
# 3 -0.002169 -0.003734 0.011570 0.000000 -0.001239 0.000000
# 4 0.000000 0.000000 0.000000 0.071777 0.000000 -0.013838
# 5 -0.002534 -0.000178 -0.001239 0.000000 0.021997 0.000000
# 6 0.000000 0.000000 0.000000 -0.013838 0.000000 0.043098
#
#
# Mechanical properties :
#
#
# Convention : Reuss Voigt Hill
#
# Bulk Modulus (GPa) = 34.34235 37.28237 35.81236
# Shear Modulus (GPa) = 24.46687 29.58929 27.02808
#
# Velocity S-wave (km/s) = 3.33394 3.66637 3.50410
# Velocity P-wave (km/s) = 5.51560 5.90426 5.71323
#
# Compressibility (1/GPa) = 0.02911856
#
# Stress axis : x y z
#
# Youngs Moduli (GPa) = 61.69822 63.81313 86.42884
#
# Poissons Ratio (x) = 0.08051 0.18747
# Poissons Ratio (y) = 0.07784 0.32277
# Poissons Ratio (z) = 0.13383 0.23831
#
# Static dielectric constant tensor:
#      x y z
#    x 1.925440 0.000000 0.025060 
#    y 0.000000 2.006460 0.000000 
#    z 0.025060 0.000000 1.794480 
# 
# From -- ./inp_files/288112.got.cif
#   From: 2010.05.17/outbox.cif.g08.bks.cpg/sg15_145_cif.got.tgz:288112.got - 2010.06.03 18:47:42.
