data_PCOD9258792
_publ_section_title
;
Structure prediction by ZEFSAII (Michael W. Deem and Ramdas Pophale) SiO2 
 PCOD9258792
Probable space group: C 2/C
;
_chemical_formula_sum "Si O2"
_cell_formula_units_Z 56
_cell_length_a 26.555515
_cell_length_b 17.406380
_cell_length_c 9.629484
_cell_angle_alpha 90.000000
_cell_angle_beta 132.065398
_cell_angle_gamma 90.000000
_cell_volume 3304.401513
_symmetry_space_group_name_H-M "C 2/C"
_symmetry_group_IT_number 15
_symmetry_cell_setting 'monoclinic'
loop_
_space_group_symop_operation_xyz
x,y,z
-x,y,1/2-z
-x,-y,-z
x,-y,1/2+z
1/2+x,1/2+y,z
1/2-x,1/2+y,1/2-z
1/2-x,1/2-y,-z
1/2+x,1/2-y,1/2+z
loop_
_atom_site_type_symbol
_atom_site_label
_atom_site_fract_x
_atom_site_fract_y
_atom_site_fract_z
Si Si1 0.824566 0.193270 0.717765
Si Si2 0.757199 0.090336 0.176317
Si Si3 0.689369 0.742646 0.101214
Si Si4 0.176641 0.706584 0.864246
Si Si5 0.548366 0.485337 0.717535
Si Si6 0.300165 0.465238 0.035926
Si Si7 0.926270 0.189660 0.153901
O O1 0.766478 0.238281 0.695502
O O2 0.846079 0.235818 0.614550
O O3 0.792038 0.113100 0.607589
O O4 0.885088 0.178970 0.934835
O O5 0.807484 0.158983 0.319556
O O6 0.754617 0.040394 0.312912
O O7 0.784771 0.037407 0.104653
O O8 0.691869 0.132443 0.988330
O O9 0.664335 0.800312 0.175201
O O10 0.118738 0.757441 0.828742
O O11 0.250000 0.750000 0.000000
O O12 0.500000 0.512246 0.750000
O O13 0.500000 0.500000 0.500000
O O14 0.620260 0.527641 0.852834
O O15 0.563239 0.394636 0.761900
O O16 0.000000 0.221778 0.250000
#
# Coordination Sequence:
#
# PCOD9258792 Si02
#       7
#     8   8   8   8   8   8   8
#     4  10  19  35  51  80 111 146 187 230 290 325
#     4  10  20  32  50  80 106 135 181 228 289 324
#     4   9  19  33  56  76 107 144 183 241 280 326
#     4  10  18  34  55  77 103 138 188 235 278 325
#     4  11  22  35  47  71 111 160 192 213 264 331
#     4  11  21  31  50  77 111 144 181 238 279 331
#     4  11  21  35  55  77 110 154 188 229 275 336
#
# _framework density 16.947092000000001
#
# number of rings (size 3 to 8) (size 9 to 14) (size 15 to 20)
#    0.000    1.714    2.857    5.143    2.000    1.143 
#    0.000    0.714    0.000    0.000    0.000    1.000 
#    0.000    0.000    0.000    0.000    0.000    0.000 
#
# Total GULP energy -155911.130298 kJ/mol
# GULP energy per Si atom -5568.254654 kJ/mol
# Density = 1.690852 g / cm^3
# Si number density = 16.947092 Si / 1000 Ang^3
#
#
#
# Elastic Constant Matrix: (Units=GPa)
#
#
# Indices 1 2 3 4 5 6 
#
# 1 63.8157 28.5967 44.1174 0.0000 -16.6410 0.0000
# 2 28.5967 48.5185 38.4334 0.0000 -4.5033 0.0000
# 3 44.1174 38.4334 132.3485 0.0000 -32.5353 0.0000
# 4 0.0000 0.0000 0.0000 36.3968 0.0000 -7.6766
# 5 -16.6410 -4.5033 -32.5353 0.0000 31.5584 0.0000
# 6 0.0000 0.0000 0.0000 -7.6766 0.0000 22.1518
#
#
#
# Elastic Compliance Matrix: (Units=1/GPa)
#
#
# Indices 1 2 3 4 5 6 
#
# 1 0.025173 -0.011784 -0.002839 0.000000 0.008665 0.000000
# 2 -0.011784 0.033049 -0.008087 0.000000 -0.009835 0.000000
# 3 -0.002839 -0.008087 0.013661 0.000000 0.011433 0.000000
# 4 0.000000 0.000000 0.000000 0.029641 0.000000 0.010272
# 5 0.008665 -0.009835 0.011433 0.000000 0.046640 0.000000
# 6 0.000000 0.000000 0.000000 0.010272 0.000000 0.048703
#
#
# Mechanical properties :
#
#
# Convention : Reuss Voigt Hill
#
# Bulk Modulus (GPa) = 37.78749 51.88640 44.83694
# Shear Modulus (GPa) = 19.91171 26.92375 23.41773
#
# Velocity S-wave (km/s) = 3.43145 3.99017 3.72131
# Velocity P-wave (km/s) = 6.16811 7.20498 6.70661
#
# Compressibility (1/GPa) = 0.02646379
#
# Stress axis : x y z
#
# Youngs Moduli (GPa) = 39.72525 30.25799 73.19986
#
# Poissons Ratio (x) = 0.35655 0.20782
# Poissons Ratio (y) = 0.46811 0.59197
# Poissons Ratio (z) = 0.11278 0.24470
#
# Static dielectric constant tensor:
#      x y z
#    x 1.578860 0.000000 -0.045830 
#    y 0.000000 1.617570 0.000000 
#    z -0.045830 0.000000 1.618330 
# 
# From -- ./inp_files/66906.got.cif
#   From: 2010.05.17/outbox.cif.g08.bks.cpg/sg15_34_cif.got.tgz:66906.got - 2010.06.03 18:47:42.
