data_PCOD9258410
_publ_section_title
;
Structure prediction by ZEFSAII (Michael W. Deem and Ramdas Pophale) SiO2 
 PCOD9258410
Probable space group: C 2/C
;
_chemical_formula_sum "Si O2"
_cell_formula_units_Z 32
_cell_length_a 24.629159
_cell_length_b 7.227990
_cell_length_c 13.307375
_cell_angle_alpha 90.000000
_cell_angle_beta 37.649210
_cell_angle_gamma 90.000000
_cell_volume 1447.026956
_symmetry_space_group_name_H-M "C 2/C"
_symmetry_group_IT_number 15
_symmetry_cell_setting 'monoclinic'
loop_
_space_group_symop_operation_xyz
x,y,z
-x,y,1/2-z
-x,-y,-z
x,-y,1/2+z
1/2+x,1/2+y,z
1/2-x,1/2+y,1/2-z
1/2-x,1/2-y,-z
1/2+x,1/2-y,1/2+z
loop_
_atom_site_type_symbol
_atom_site_label
_atom_site_fract_x
_atom_site_fract_y
_atom_site_fract_z
Si Si1 0.478507 0.913627 0.422271
Si Si2 0.852092 0.926381 0.160360
Si Si3 0.845567 0.757515 0.809986
Si Si4 0.658160 0.804810 0.412024
O O1 0.412611 0.742904 0.540196
O O2 0.573743 0.834363 0.248048
O O3 0.500000 0.000000 0.500000
O O4 0.425864 0.070427 0.438263
O O5 0.750386 0.863645 0.325495
O O6 0.877023 0.038879 0.225294
O O7 0.856073 0.084806 0.068061
O O8 0.829781 0.657984 0.725542
O O9 0.750000 0.750000 0.000000
#
# Coordination Sequence:
#
# PCOD9258410 Si02
#       4
#     8   8   8   8
#     4  10  18  33  56  80 102 145 188 214 262 336
#     4  10  18  34  57  78 106 143 184 218 269 328
#     4   9  20  34  54  80 111 138 173 232 276 300
#     4   9  19  32  58  75 106 141 186 212 270 328
#
# _framework density 22.114307
#
# number of rings (size 3 to 8) (size 9 to 14) (size 15 to 20)
#    1.500    1.000    2.500    0.750    0.000    0.000 
#    0.000   10.000    0.000    3.000    0.000    0.000 
#    0.000    0.000    0.000    0.000    0.000    0.000 
#
# Total GULP energy -89104.431074 kJ/mol
# GULP energy per Si atom -5569.026942 kJ/mol
# Density = 2.206397 g / cm^3
# Si number density = 22.114307 Si / 1000 Ang^3
#
#
#
# Elastic Constant Matrix: (Units=GPa)
#
#
# Indices 1 2 3 4 5 6 
#
# 1 32.6194 22.5238 14.8915 0.0000 -18.4710 0.0000
# 2 22.5238 146.4493 35.6223 -0.0004 -27.6717 0.0001
# 3 14.8915 35.6223 119.7463 -0.0003 -29.9090 0.0001
# 4 0.0000 -0.0004 -0.0003 32.8136 0.0001 -19.3597
# 5 -18.4710 -27.6717 -29.9090 0.0001 41.8322 0.0000
# 6 0.0000 0.0001 0.0001 -19.3597 0.0000 33.2796
#
#
#
# Elastic Compliance Matrix: (Units=1/GPa)
#
#
# Indices 1 2 3 4 5 6 
#
# 1 0.042314 -0.003381 -0.000181 0.000000 0.016318 0.000000
# 2 -0.003381 0.008232 -0.001268 0.000000 0.003047 0.000000
# 3 -0.000181 -0.001268 0.010374 0.000000 0.006499 0.000000
# 4 0.000000 0.000000 0.000000 0.046400 0.000000 0.026992
# 5 0.016318 0.003047 0.006499 0.000000 0.037772 0.000000
# 6 0.000000 0.000000 0.000000 0.026992 0.000000 0.045751
#
#
# Mechanical properties :
#
#
# Convention : Reuss Voigt Hill
#
# Bulk Modulus (GPa) = 19.50754 49.43222 34.46988
# Shear Modulus (GPa) = 22.97923 36.63691 29.80807
#
# Velocity S-wave (km/s) = 3.22702 4.07468 3.67537
# Velocity P-wave (km/s) = 4.76710 6.67375 5.79932
#
# Compressibility (1/GPa) = 0.05126223
#
# Stress axis : x y z
#
# Youngs Moduli (GPa) = 23.63296 121.47417 96.39752
#
# Poissons Ratio (x) = 0.41065 0.01741
# Poissons Ratio (y) = 0.07989 0.12219
# Poissons Ratio (z) = 0.00427 0.15398
#
# Static dielectric constant tensor:
#      x y z
#    x 1.819220 0.000000 -0.001170 
#    y 0.000000 1.871890 0.000000 
#    z -0.001170 0.000000 1.815380 
# 
# From -- ./inp_files/202057.got.cif
#   From: 2010.05.17/outbox.cif.g08.bks.cpg/sg15_102_cif.got.tgz:202057.got - 2010.06.03 18:47:42.
