data_PCOD9258813
_publ_section_title
;
Structure prediction by ZEFSAII (Michael W. Deem and Ramdas Pophale) SiO2 
 PCOD9258813
Probable space group: C 2/C
;
_chemical_formula_sum "Si O2"
_cell_formula_units_Z 52
_cell_length_a 20.901793
_cell_length_b 17.800924
_cell_length_c 14.750939
_cell_angle_alpha 90.000000
_cell_angle_beta 150.876178
_cell_angle_gamma 90.000000
_cell_volume 2671.196753
_symmetry_space_group_name_H-M "C 2/C"
_symmetry_group_IT_number 15
_symmetry_cell_setting 'monoclinic'
loop_
_space_group_symop_operation_xyz
x,y,z
-x,y,1/2-z
-x,-y,-z
x,-y,1/2+z
1/2+x,1/2+y,z
1/2-x,1/2+y,1/2-z
1/2-x,1/2-y,-z
1/2+x,1/2-y,1/2+z
loop_
_atom_site_type_symbol
_atom_site_label
_atom_site_fract_x
_atom_site_fract_y
_atom_site_fract_z
Si Si1 0.478379 0.924070 0.919111
Si Si2 0.145841 0.247236 0.954314
Si Si3 0.037166 0.930625 0.900305
Si Si4 0.183732 0.919322 0.531465
Si Si5 0.718840 0.496619 0.377862
Si Si6 0.000000 0.493758 0.750000
Si Si7 0.256443 0.862791 0.280574
O O1 0.328658 0.902097 0.749417
O O2 0.485243 0.942916 0.820751
O O3 0.603301 0.873129 0.095890
O O4 0.500000 0.000000 0.000000
O O5 0.000000 0.279171 0.750000
O O6 0.250000 0.250000 0.000000
O O7 0.118267 0.161713 0.950398
O O8 0.218719 0.292916 0.123478
O O9 0.000000 0.914117 0.750000
O O10 0.133056 0.868504 0.061034
O O11 0.900944 0.946592 0.783357
O O12 0.113387 0.011431 0.994198
O O13 0.192630 0.950343 0.438845
O O14 0.861373 0.535330 0.566555
O O15 0.732276 0.435342 0.315694
#
# Coordination Sequence:
#
# PCOD9258813 Si02
#       7
#     8   8   8   8   8   4   8
#     4  10  18  34  55  82 117 154 200 247 298 355
#     4  12  24  38  59  89 127 163 193 246 316 378
#     4  10  20  34  54  80 112 151 194 246 290 345
#     4  10  19  35  54  83 118 152 188 241 303 357
#     4   9  17  31  51  76 115 141 187 236 295 349
#     4   8  18  28  50  80 108 150 178 242 292 354
#     4  11  21  33  54  84 114 156 202 239 300 366
#
# _framework density 19.466930000000001
#
# number of rings (size 3 to 8) (size 9 to 14) (size 15 to 20)
#    0.000    1.846    3.077    2.769    4.308    0.000 
#    0.000    0.000    0.000    0.000    2.000    2.154 
#    0.000    0.000    0.000    0.000    0.000    0.000 
#
# Total GULP energy -144912.448363 kJ/mol
# GULP energy per Si atom -5573.555706 kJ/mol
# Density = 1.942262 g / cm^3
# Si number density = 19.466930 Si / 1000 Ang^3
#
#
#
# Elastic Constant Matrix: (Units=GPa)
#
#
# Indices 1 2 3 4 5 6 
#
# 1 37.2632 16.4891 31.5111 0.0000 7.8911 0.0000
# 2 16.4891 59.8013 44.0548 0.0000 -9.6228 0.0000
# 3 31.5111 44.0548 167.1273 0.0000 19.7747 0.0000
# 4 0.0000 0.0000 0.0000 25.1176 0.0000 -3.6933
# 5 7.8911 -9.6228 19.7747 0.0000 33.2866 0.0000
# 6 0.0000 0.0000 0.0000 -3.6933 0.0000 14.6145
#
#
#
# Elastic Compliance Matrix: (Units=1/GPa)
#
#
# Indices 1 2 3 4 5 6 
#
# 1 0.035411 -0.008774 -0.003302 0.000000 -0.008969 0.000000
# 2 -0.008774 0.026519 -0.006980 0.000000 0.013893 0.000000
# 3 -0.003302 -0.006980 0.009242 0.000000 -0.006725 0.000000
# 4 0.000000 0.000000 0.000000 0.041349 0.000000 0.010450
# 5 -0.008969 0.013893 -0.006725 0.000000 0.040180 0.000000
# 6 0.000000 0.000000 0.000000 0.010450 0.000000 0.071066
#
#
# Mechanical properties :
#
#
# Convention : Reuss Voigt Hill
#
# Bulk Modulus (GPa) = 30.24960 49.81132 40.03046
# Shear Modulus (GPa) = 18.32177 26.07954 22.20066
#
# Velocity S-wave (km/s) = 3.07118 3.66414 3.38069
# Velocity P-wave (km/s) = 5.30556 6.59882 5.98721
#
# Compressibility (1/GPa) = 0.03305829
#
# Stress axis : x y z
#
# Youngs Moduli (GPa) = 28.23993 37.70881 108.20471
#
# Poissons Ratio (x) = 0.33087 0.35733
# Poissons Ratio (y) = 0.24779 0.75526
# Poissons Ratio (z) = 0.09326 0.26320
#
# Static dielectric constant tensor:
#      x y z
#    x 1.718930 0.000000 0.033650 
#    y 0.000000 1.655750 0.000000 
#    z 0.033650 0.000000 1.792230 
# 
# From -- ./inp_files/113625.got.cif
#   From: 2010.05.17/outbox.cif.g08.bks.cpg/sg15_57_cif.got.tgz:113625.got - 2010.06.03 18:47:42.
