data_PCOD9258293
_publ_section_title
;
Structure prediction by ZEFSAII (Michael W. Deem and Ramdas Pophale) SiO2 
 PCOD9258293
Probable space group: C 2/C
;
_chemical_formula_sum "Si O2"
_cell_formula_units_Z 36
_cell_length_a 12.170163
_cell_length_b 17.042666
_cell_length_c 14.964957
_cell_angle_alpha 90.000000
_cell_angle_beta 32.059022
_cell_angle_gamma 90.000000
_cell_volume 1647.533467
_symmetry_space_group_name_H-M "C 2/C"
_symmetry_group_IT_number 15
_symmetry_cell_setting 'monoclinic'
loop_
_space_group_symop_operation_xyz
x,y,z
-x,y,1/2-z
-x,-y,-z
x,-y,1/2+z
1/2+x,1/2+y,z
1/2-x,1/2+y,1/2-z
1/2-x,1/2-y,-z
1/2+x,1/2-y,1/2+z
loop_
_atom_site_type_symbol
_atom_site_label
_atom_site_fract_x
_atom_site_fract_y
_atom_site_fract_z
Si Si1 0.086885 0.852733 0.056444
Si Si2 0.192591 0.699413 0.910012
Si Si3 0.892394 0.436032 0.640525
Si Si4 0.938491 0.035988 0.397486
Si Si5 0.500000 0.021749 0.750000
O O1 0.180192 0.793253 0.920325
O O2 0.089161 0.945392 0.054515
O O3 0.847501 0.828852 0.227718
O O4 0.200205 0.827257 0.070420
O O5 0.986729 0.648115 0.050149
O O6 0.645081 0.434813 0.803166
O O7 0.000000 0.500000 0.500000
O O8 0.958768 0.466624 0.692407
O O9 0.000000 0.038913 0.250000
O O10 0.711738 0.069164 0.580025
#
# Coordination Sequence:
#
# PCOD9258293 Si02
#       5
#     8   8   8   8   4
#     4  10  18  33  53  85 122 160 190 249 313 364
#     4  10  20  32  57  84 126 161 191 251 310 373
#     4  12  22  40  62  90 130 164 208 257 309 369
#     4  12  22  41  62  92 130 162 204 256 312 372
#     4  12  24  38  62  90 122 166 206 252 314 360
#
# _framework density 21.850846000000001
#
# number of rings (size 3 to 8) (size 9 to 14) (size 15 to 20)
#    0.000    0.889    8.889    0.667    3.111    0.000 
#    0.000    0.000    0.000    0.000    2.889    4.667 
#    0.000    0.000    0.000    0.000    0.000    0.000 
#
# Total GULP energy -100506.398122 kJ/mol
# GULP energy per Si atom -5583.688785 kJ/mol
# Density = 2.180111 g / cm^3
# Si number density = 21.850846 Si / 1000 Ang^3
#
#
#
# Elastic Constant Matrix: (Units=GPa)
#
#
# Indices 1 2 3 4 5 6 
#
# 1 89.1080 10.0705 34.7225 0.0011 -10.0475 0.0010
# 2 10.0705 50.0153 8.3108 0.0141 -8.6153 0.0041
# 3 34.7225 8.3108 154.2115 -0.0141 -25.6676 0.0065
# 4 0.0011 0.0141 -0.0141 20.4885 -0.0019 -6.5030
# 5 -10.0475 -8.6153 -25.6676 -0.0019 51.1961 0.0004
# 6 0.0010 0.0041 0.0065 -6.5030 0.0004 14.2429
#
#
#
# Elastic Compliance Matrix: (Units=1/GPa)
#
#
# Indices 1 2 3 4 5 6 
#
# 1 0.012543 -0.001952 -0.002579 -0.000001 0.000840 0.000000
# 2 -0.001952 0.020942 -0.000181 -0.000019 0.003050 -0.000014
# 3 -0.002579 -0.000181 0.007622 0.000006 0.003285 -0.000001
# 4 -0.000001 -0.000019 0.000006 0.057079 0.000001 0.026061
# 5 0.000840 0.003050 0.003285 0.000001 0.021858 -0.000002
# 6 0.000000 -0.000014 -0.000001 0.026061 -0.000002 0.082109
#
#
# Mechanical properties :
#
#
# Convention : Reuss Voigt Hill
#
# Bulk Modulus (GPa) = 31.56413 44.39359 37.97886
# Shear Modulus (GPa) = 22.50841 33.20091 27.85466
#
# Velocity S-wave (km/s) = 3.21299 3.90222 3.57426
# Velocity P-wave (km/s) = 5.31423 6.37682 5.86962
#
# Compressibility (1/GPa) = 0.03168153
#
# Stress axis : x y z
#
# Youngs Moduli (GPa) = 79.72780 47.74985 131.20276
#
# Poissons Ratio (x) = 0.09322 0.33839
# Poissons Ratio (y) = 0.15564 0.02380
# Poissons Ratio (z) = 0.20563 0.00866
#
# Static dielectric constant tensor:
#      x y z
#    x 1.856450 0.000000 0.020100 
#    y 0.000000 1.775220 0.000010 
#    z 0.020100 0.000010 1.942640 
# 
# From -- ./inp_files/146969.got.cif
#   From: 2010.05.17/outbox.cif.g08.bks.cpg/sg15_74_cif.got.tgz:146969.got - 2010.06.03 18:47:42.
