data_PCOD9258979
_publ_section_title
;
Structure prediction by ZEFSAII (Michael W. Deem and Ramdas Pophale) SiO2 
 PCOD9258979
Probable space group: C 2/C
;
_chemical_formula_sum "Si O2"
_cell_formula_units_Z 64
_cell_length_a 29.507061
_cell_length_b 17.824309
_cell_length_c 18.197063
_cell_angle_alpha 90.000000
_cell_angle_beta 157.883083
_cell_angle_gamma 90.000000
_cell_volume 3603.316507
_symmetry_space_group_name_H-M "C 2/C"
_symmetry_group_IT_number 15
_symmetry_cell_setting 'monoclinic'
loop_
_space_group_symop_operation_xyz
x,y,z
-x,y,1/2-z
-x,-y,-z
x,-y,1/2+z
1/2+x,1/2+y,z
1/2-x,1/2+y,1/2-z
1/2-x,1/2-y,-z
1/2+x,1/2-y,1/2+z
loop_
_atom_site_type_symbol
_atom_site_label
_atom_site_fract_x
_atom_site_fract_y
_atom_site_fract_z
Si Si1 0.892018 0.788901 0.908212
Si Si2 0.574660 0.759107 0.210959
Si Si3 0.680065 0.708225 0.673138
Si Si4 0.127114 0.926746 0.985950
Si Si5 0.338856 0.523808 0.692517
Si Si6 0.627070 0.461844 0.604860
Si Si7 0.827178 0.191339 0.661904
Si Si8 0.766430 0.876180 0.496411
O O1 0.896713 0.760525 0.831223
O O2 0.802735 0.738058 0.821776
O O3 0.845951 0.874683 0.842503
O O4 0.031539 0.793413 0.142479
O O5 0.644299 0.834724 0.334695
O O6 0.633082 0.688988 0.342057
O O7 0.432797 0.763659 0.009589
O O8 0.634136 0.633008 0.562913
O O9 0.689594 0.699263 0.775158
O O10 0.226467 0.901732 0.076903
O O11 0.000000 0.928052 0.750000
O O12 0.152903 0.005988 0.063231
O O13 0.314059 0.510160 0.741398
O O14 0.294906 0.604275 0.597784
O O15 0.293955 0.449978 0.584091
O O16 0.483217 0.527451 0.898893
O O17 0.750000 0.250000 0.500000
#
# Coordination Sequence:
#
# PCOD9258979 Si02
#       8
#     8   8   8   8   8   8   8   8
#     4  10  21  37  61  83 116 151 191 240 293 340
#     4  10  20  34  56  88 119 152 181 232 292 357
#     4  11  21  38  58  83 120 152 190 242 286 349
#     4  12  20  32  56  90 115 147 186 239 294 344
#     4  10  18  34  58  80 114 149 186 244 285 335
#     4  10  19  33  54  85 111 144 192 237 291 331
#     4  10  23  40  61  83 112 157 204 237 288 340
#     4  11  20  32  56  88 119 144 188 232 292 346
#
# _framework density 17.761416000000001
#
# number of rings (size 3 to 8) (size 9 to 14) (size 15 to 20)
#    0.000    1.500    6.250    0.000    0.000    1.500 
#    0.000    0.000    2.750    2.250    0.000    0.000 
#    0.000    0.000    0.000    0.000    0.000    0.000 
#
# Total GULP energy -178396.491522 kJ/mol
# GULP energy per Si atom -5574.890360 kJ/mol
# Density = 1.772099 g / cm^3
# Si number density = 17.761416 Si / 1000 Ang^3
#
#
#
# Elastic Constant Matrix: (Units=GPa)
#
#
# Indices 1 2 3 4 5 6 
#
# 1 51.6805 -3.8790 2.9422 0.0000 -3.4713 0.0000
# 2 -3.8790 81.2502 17.0329 0.0000 -9.1373 0.0000
# 3 2.9422 17.0329 30.9342 0.0000 -6.2531 0.0000
# 4 0.0000 0.0000 0.0000 30.0100 0.0000 -7.5566
# 5 -3.4713 -9.1373 -6.2531 0.0000 25.6607 0.0000
# 6 0.0000 0.0000 0.0000 -7.5566 0.0000 21.4444
#
#
#
# Elastic Compliance Matrix: (Units=1/GPa)
#
#
# Indices 1 2 3 4 5 6 
#
# 1 0.019793 0.001731 -0.002282 0.000000 0.002738 0.000000
# 2 0.001731 0.014327 -0.007336 0.000000 0.003548 0.000000
# 3 -0.002282 -0.007336 0.037858 0.000000 0.006304 0.000000
# 4 0.000000 0.000000 0.000000 0.036567 0.000000 0.012885
# 5 0.002738 0.003548 0.006304 0.000000 0.042140 0.000000
# 6 0.000000 0.000000 0.000000 0.012885 0.000000 0.051173
#
#
# Mechanical properties :
#
#
# Convention : Reuss Voigt Hill
#
# Bulk Modulus (GPa) = 17.79246 21.78411 19.78828
# Shear Modulus (GPa) = 21.15352 25.27427 23.21389
#
# Velocity S-wave (km/s) = 3.45480 3.77634 3.61915
# Velocity P-wave (km/s) = 5.09445 5.59516 5.35067
#
# Compressibility (1/GPa) = 0.05620360
#
# Stress axis : x y z
#
# Youngs Moduli (GPa) = 50.52181 69.79697 26.41480
#
# Poissons Ratio (x) = -0.12084 0.06029
# Poissons Ratio (y) = -0.08747 0.19379
# Poissons Ratio (z) = 0.11531 0.51205
#
# Static dielectric constant tensor:
#      x y z
#    x 1.628420 0.000000 -0.012360 
#    y 0.000000 1.615050 0.000000 
#    z -0.012360 0.000000 1.605500 
# 
# From -- ./inp_files/174268.got.cif
#   From: 2010.05.17/outbox.cif.g08.bks.cpg/sg15_88_cif.got.tgz:174268.got - 2010.06.03 18:47:42.
