data_PCOD9258449
_publ_section_title
;
Structure prediction by ZEFSAII (Michael W. Deem and Ramdas Pophale) SiO2 
 PCOD9258449
Probable space group: C 2/C
;
_chemical_formula_sum "Si O2"
_cell_formula_units_Z 64
_cell_length_a 19.426183
_cell_length_b 23.223373
_cell_length_c 7.749858
_cell_angle_alpha 90.000000
_cell_angle_beta 47.990918
_cell_angle_gamma 90.000000
_cell_volume 2597.873395
_symmetry_space_group_name_H-M "C 2/C"
_symmetry_group_IT_number 15
_symmetry_cell_setting 'monoclinic'
loop_
_space_group_symop_operation_xyz
x,y,z
-x,y,1/2-z
-x,-y,-z
x,-y,1/2+z
1/2+x,1/2+y,z
1/2-x,1/2+y,1/2-z
1/2-x,1/2-y,-z
1/2+x,1/2-y,1/2+z
loop_
_atom_site_type_symbol
_atom_site_label
_atom_site_fract_x
_atom_site_fract_y
_atom_site_fract_z
Si Si1 0.637950 0.914829 0.838818
Si Si2 0.867722 0.465185 0.040569
Si Si3 0.610517 0.252542 0.867271
Si Si4 0.349686 0.580691 0.966257
Si Si5 0.656673 0.459340 0.418174
Si Si6 0.110504 0.165134 0.074166
Si Si7 0.599540 0.298527 0.222443
Si Si8 0.473088 0.859614 0.993602
O O1 0.636110 0.938164 0.643431
O O2 0.745050 0.903511 0.701440
O O3 0.564872 0.863063 0.956040
O O4 0.603438 0.968681 0.008380
O O5 0.763953 0.466437 0.289595
O O6 0.930288 0.423113 0.048269
O O7 0.650806 0.295978 0.659039
O O8 0.648955 0.259005 0.996571
O O9 0.501334 0.271716 0.069274
O O10 0.602675 0.186675 0.822555
O O11 0.346793 0.559445 0.773704
O O12 0.404675 0.639825 0.868219
O O13 0.385780 0.523250 0.999689
O O14 0.621827 0.403541 0.579773
O O15 0.000000 0.173864 0.250000
O O16 0.146113 0.186706 0.827640
O O17 0.500000 0.844149 0.750000
#
# Coordination Sequence:
#
# PCOD9258449 Si02
#       8
#     8   8   8   8   8   8   8   8
#     4   9  18  33  54  79 110 140 175 222 278 325
#     4   9  18  33  55  77 111 139 169 226 276 324
#     4  10  19  35  57  75 105 149 184 226 268 321
#     4   9  18  32  52  77 108 143 176 222 278 325
#     4   9  18  33  51  78 108 139 175 223 276 325
#     4   9  19  35  53  76 110 145 181 229 272 313
#     4   9  18  35  53  76 109 141 183 224 271 314
#     4  10  18  33  57  78 103 143 184 218 273 329
#
# _framework density 24.635534
#
# number of rings (size 3 to 8) (size 9 to 14) (size 15 to 20)
#    0.000    2.750    1.250    0.375    1.750    0.000 
#    2.250    6.875    5.500    0.000    0.000    0.000 
#    0.000    0.000    0.000    0.000    0.000    0.000 
#
# Total GULP energy -178652.634475 kJ/mol
# GULP energy per Si atom -5582.894827 kJ/mol
# Density = 2.457946 g / cm^3
# Si number density = 24.635534 Si / 1000 Ang^3
#
#
#
# Elastic Constant Matrix: (Units=GPa)
#
#
# Indices 1 2 3 4 5 6 
#
# 1 41.9430 16.7188 15.3559 0.0000 -2.3588 0.0000
# 2 16.7188 67.8832 22.5963 0.0000 -1.1842 0.0000
# 3 15.3559 22.5963 50.9136 0.0000 8.7663 0.0000
# 4 0.0000 0.0000 0.0000 13.2262 0.0000 11.8372
# 5 -2.3588 -1.1842 8.7663 0.0000 23.8850 0.0000
# 6 0.0000 0.0000 0.0000 11.8372 0.0000 -9.1496
#
#
#
# Elastic Compliance Matrix: (Units=1/GPa)
#
#
# Indices 1 2 3 4 5 6 
#
# 1 0.028705 -0.004439 -0.007619 0.000000 0.005411 0.000000
# 2 -0.004439 0.018322 -0.007337 0.000000 0.003163 0.000000
# 3 -0.007619 -0.007337 0.027100 0.000000 -0.011063 0.000000
# 4 0.000000 0.000000 0.000000 0.035038 0.000000 0.045330
# 5 0.005411 0.003163 -0.011063 0.000000 0.046619 0.000000
# 6 0.000000 0.000000 0.000000 0.045330 0.000000 -0.050649
#
#
# Mechanical properties :
#
#
# Convention : Reuss Voigt Hill
#
# Bulk Modulus (GPa) = 28.29963 30.00910 29.15436
# Shear Modulus (GPa) = 32.11194 12.66357 22.38776
#
# Velocity S-wave (km/s) = 3.61429 2.26970 3.01783
# Velocity P-wave (km/s) = 5.37864 4.36765 4.89929
#
# Compressibility (1/GPa) = 0.03533615
#
# Stress axis : x y z
#
# Youngs Moduli (GPa) = 34.83695 54.57903 36.89983
#
# Poissons Ratio (x) = 0.24228 0.28115
# Poissons Ratio (y) = 0.15465 0.27075
# Poissons Ratio (z) = 0.26543 0.40047
#
# Static dielectric constant tensor:
#      x y z
#    x 1.978090 0.000000 0.003200 
#    y 0.000000 1.984060 0.000000 
#    z 0.003200 0.000000 2.020180 
# 
# From -- ./inp_files/63387.got.cif
#   From: 2010.05.17/outbox.cif.g08.bks.cpg/sg15_32_cif.got.tgz:63387.got - 2010.06.03 18:47:42.
