data_PCOD9258752
_publ_section_title
;
Structure prediction by ZEFSAII (Michael W. Deem and Ramdas Pophale) SiO2 
 PCOD9258752
Probable space group: C 2/C
;
_chemical_formula_sum "Si O2"
_cell_formula_units_Z 56
_cell_length_a 18.081059
_cell_length_b 9.472676
_cell_length_c 20.435311
_cell_angle_alpha 90.000000
_cell_angle_beta 40.310937
_cell_angle_gamma 90.000000
_cell_volume 2264.324581
_symmetry_space_group_name_H-M "C 2/C"
_symmetry_group_IT_number 15
_symmetry_cell_setting 'monoclinic'
loop_
_space_group_symop_operation_xyz
x,y,z
-x,y,1/2-z
-x,-y,-z
x,-y,1/2+z
1/2+x,1/2+y,z
1/2-x,1/2+y,1/2-z
1/2-x,1/2-y,-z
1/2+x,1/2-y,1/2+z
loop_
_atom_site_type_symbol
_atom_site_label
_atom_site_fract_x
_atom_site_fract_y
_atom_site_fract_z
Si Si1 0.607987 0.910481 0.126737
Si Si2 0.584393 0.482700 0.859828
Si Si3 0.909977 0.084437 0.371756
Si Si4 0.996922 0.697669 0.982698
Si Si5 0.541876 0.937492 0.868028
Si Si6 0.735611 0.066205 0.660604
Si Si7 0.265319 0.618120 0.354172
O O1 0.500000 0.911459 0.250000
O O2 0.607367 0.750750 0.099423
O O3 0.564647 0.023130 0.104553
O O4 0.721696 0.949852 0.091404
O O5 0.470862 0.500112 0.889824
O O6 0.554212 0.334090 0.914153
O O7 0.645200 0.562889 0.880274
O O8 0.684744 0.476191 0.737546
O O9 0.798502 0.055477 0.402428
O O10 0.000000 0.080030 0.250000
O O11 0.061793 0.565373 0.906110
O O12 0.993401 0.693861 0.063929
O O13 0.866010 0.659747 0.055374
O O14 0.655486 0.946034 0.747364
O O15 0.683152 0.225586 0.699049
#
# Coordination Sequence:
#
# PCOD9258752 Si02
#       7
#     8   8   8   8   8   8   8
#     4   8  14  30  53  77 101 135 182 223 253 318
#     4  11  19  34  53  84 111 141 176 232 271 323
#     4   8  15  30  51  75 109 137 171 218 274 319
#     4  11  21  31  56  82 109 138 186 228 268 319
#     4  10  18  34  54  82 100 140 191 228 254 330
#     4  10  19  34  58  79 109 144 178 224 280 321
#     4  10  20  35  53  81 109 145 178 222 279 325
#
# _framework density 24.731435000000001
#
# number of rings (size 3 to 8) (size 9 to 14) (size 15 to 20)
#    0.000    2.286    4.286    1.714    0.000    1.143 
#    0.000    0.714    0.000    0.000   11.143    0.000 
#    0.000    0.000    0.000    0.000    0.000    0.000 
#
# Total GULP energy -155954.733483 kJ/mol
# GULP energy per Si atom -5569.811910 kJ/mol
# Density = 2.467515 g / cm^3
# Si number density = 24.731435 Si / 1000 Ang^3
#
#
#
# Elastic Constant Matrix: (Units=GPa)
#
#
# Indices 1 2 3 4 5 6 
#
# 1 242.6043 46.0306 37.9292 0.0000 -6.7206 0.0000
# 2 46.0306 17.6446 14.9010 0.0000 -1.3876 0.0000
# 3 37.9292 14.9010 83.6664 0.0000 -4.7032 0.0000
# 4 0.0000 0.0000 0.0000 18.6158 0.0000 2.5710
# 5 -6.7206 -1.3876 -4.7032 0.0000 47.8336 0.0000
# 6 0.0000 0.0000 0.0000 2.5710 0.0000 42.9626
#
#
#
# Elastic Compliance Matrix: (Units=1/GPa)
#
#
# Indices 1 2 3 4 5 6 
#
# 1 0.008177 -0.021403 0.000135 0.000000 0.000541 0.000000
# 2 -0.021403 0.122758 -0.012197 0.000000 -0.000645 0.000000
# 3 0.000135 -0.012197 0.014122 0.000000 0.001054 0.000000
# 4 0.000000 0.000000 0.000000 0.054166 0.000000 -0.003241
# 5 0.000541 -0.000645 0.001054 0.000000 0.021067 0.000000
# 6 0.000000 0.000000 0.000000 -0.003241 0.000000 0.023470
#
#
# Mechanical properties :
#
#
# Convention : Reuss Voigt Hill
#
# Bulk Modulus (GPa) = 12.79934 60.18189 36.49062
# Shear Modulus (GPa) = 14.84867 38.21936 26.53401
#
# Velocity S-wave (km/s) = 2.45296 3.93539 3.27905
# Velocity P-wave (km/s) = 3.63445 6.71094 5.39657
#
# Compressibility (1/GPa) = 0.07812900
#
# Stress axis : x y z
#
# Youngs Moduli (GPa) = 122.30069 8.14610 70.80979
#
# Poissons Ratio (x) = 0.17435 -0.00959
# Poissons Ratio (y) = 2.61754 0.86366
# Poissons Ratio (z) = -0.01657 0.09936
#
# Static dielectric constant tensor:
#      x y z
#    x 2.101790 0.000000 0.001470 
#    y 0.000000 1.954140 0.000000 
#    z 0.001470 0.000000 2.076630 
# 
# From -- ./inp_files/182120.got.cif
#   From: 2010.05.17/outbox.cif.g08.bks.cpg/sg15_92_cif.got.tgz:182120.got - 2010.06.03 18:47:42.
