data_PCOD9258780
_publ_section_title
;
Structure prediction by ZEFSAII (Michael W. Deem and Ramdas Pophale) SiO2 
 PCOD9258780
Probable space group: C 2/C
;
_chemical_formula_sum "Si O2"
_cell_formula_units_Z 60
_cell_length_a 24.480367
_cell_length_b 18.649420
_cell_length_c 12.007105
_cell_angle_alpha 90.000000
_cell_angle_beta 33.211623
_cell_angle_gamma 90.000000
_cell_volume 3002.551301
_symmetry_space_group_name_H-M "C 2/C"
_symmetry_group_IT_number 15
_symmetry_cell_setting 'monoclinic'
loop_
_space_group_symop_operation_xyz
x,y,z
-x,y,1/2-z
-x,-y,-z
x,-y,1/2+z
1/2+x,1/2+y,z
1/2-x,1/2+y,1/2-z
1/2-x,1/2-y,-z
1/2+x,1/2-y,1/2+z
loop_
_atom_site_type_symbol
_atom_site_label
_atom_site_fract_x
_atom_site_fract_y
_atom_site_fract_z
Si Si1 0.192074 0.619691 0.456561
Si Si2 0.280671 0.251088 0.670943
Si Si3 0.833895 0.639285 0.752001
Si Si4 0.500000 0.211746 0.750000
Si Si5 0.380020 0.964122 0.973463
Si Si6 0.034785 0.730747 0.449839
Si Si7 0.921873 0.161103 0.804408
Si Si8 0.780325 0.647165 0.472826
O O1 0.252084 0.672346 0.273075
O O2 0.218904 0.618933 0.541988
O O3 0.172904 0.540932 0.443088
O O4 0.086933 0.659385 0.637514
O O5 0.270219 0.195793 0.789315
O O6 0.389325 0.270922 0.436945
O O7 0.242734 0.206898 0.627029
O O8 0.858552 0.573151 0.628751
O O9 0.937623 0.682118 0.592955
O O10 0.536250 0.251189 0.577706
O O11 0.500000 0.969387 0.750000
O O12 0.329896 0.915028 0.962551
O O13 0.029349 0.802429 0.386366
O O14 0.129468 0.681043 0.253865
O O15 0.816604 0.129076 0.937633
O O16 0.000000 0.119247 0.750000
#
# Coordination Sequence:
#
# PCOD9258780 Si02
#       8
#     8   8   8   4   8   8   8   8
#     4  11  22  35  54  87 126 163 203 236 306 369
#     4  10  20  37  56  84 120 161 206 253 292 357
#     4  10  21  35  59  83 124 169 195 248 298 363
#     4  10  20  30  50  82 124 162 186 232 294 376
#     4  11  22  39  58  89 130 166 195 243 311 378
#     4  10  18  34  54  86 119 153 199 242 307 352
#     4  11  20  34  59  86 113 151 210 261 299 340
#     4  10  21  35  60  86 120 161 204 255 295 366
#
# _framework density 19.983006
#
# number of rings (size 3 to 8) (size 9 to 14) (size 15 to 20)
#    0.000    1.600    3.333    3.600    0.000    2.667 
#    0.000    0.000    0.000    0.800    0.000    0.000 
#    0.000    0.000    0.000    0.000    0.000    0.000 
#
# Total GULP energy -167016.638953 kJ/mol
# GULP energy per Si atom -5567.221298 kJ/mol
# Density = 1.993752 g / cm^3
# Si number density = 19.983006 Si / 1000 Ang^3
#
#
#
# Elastic Constant Matrix: (Units=GPa)
#
#
# Indices 1 2 3 4 5 6 
#
# 1 127.0947 25.8259 39.3595 0.0000 14.6452 0.0000
# 2 25.8259 85.9132 37.4258 0.0000 17.5513 0.0000
# 3 39.3595 37.4258 73.5816 0.0000 28.9006 0.0000
# 4 0.0000 0.0000 0.0000 25.9087 0.0000 2.4515
# 5 14.6452 17.5513 28.9006 0.0000 43.1546 0.0000
# 6 0.0000 0.0000 0.0000 2.4515 0.0000 15.9837
#
#
#
# Elastic Compliance Matrix: (Units=1/GPa)
#
#
# Indices 1 2 3 4 5 6 
#
# 1 0.009479 -0.000837 -0.004769 0.000000 0.000318 0.000000
# 2 -0.000837 0.015084 -0.006685 0.000000 -0.001374 0.000000
# 3 -0.004769 -0.006685 0.024205 0.000000 -0.011873 0.000000
# 4 0.000000 0.000000 0.000000 0.039165 0.000000 -0.006007
# 5 0.000318 -0.001374 -0.011873 0.000000 0.031575 0.000000
# 6 0.000000 0.000000 0.000000 -0.006007 0.000000 0.063485
#
#
# Mechanical properties :
#
#
# Convention : Reuss Voigt Hill
#
# Bulk Modulus (GPa) = 41.34710 54.64577 47.99644
# Shear Modulus (GPa) = 23.18716 29.27462 26.23089
#
# Velocity S-wave (km/s) = 3.41008 3.83165 3.62700
# Velocity P-wave (km/s) = 6.02004 6.85426 6.45065
#
# Compressibility (1/GPa) = 0.02418549
#
# Stress axis : x y z
#
# Youngs Moduli (GPa) = 105.50117 66.29558 41.31369
#
# Poissons Ratio (x) = 0.05546 0.19704
# Poissons Ratio (y) = 0.08825 0.27619
# Poissons Ratio (z) = 0.50318 0.44319
#
# Static dielectric constant tensor:
#      x y z
#    x 1.885730 0.000000 -0.035230 
#    y 0.000000 1.700800 0.000000 
#    z -0.035230 0.000000 1.737680 
# 
# From -- ./inp_files/123989.got.cif
#   From: 2010.05.17/outbox.cif.g08.bks.cpg/sg15_62_cif.got.tgz:123989.got - 2010.06.03 18:47:42.
