data_PCOD9258922
_publ_section_title
;
Structure prediction by ZEFSAII (Michael W. Deem and Ramdas Pophale) SiO2 
 PCOD9258922
Probable space group: C 2/C
;
_chemical_formula_sum "Si O2"
_cell_formula_units_Z 64
_cell_length_a 13.535958
_cell_length_b 20.234917
_cell_length_c 26.070346
_cell_angle_alpha 90.000000
_cell_angle_beta 153.616284
_cell_angle_gamma 90.000000
_cell_volume 3173.162427
_symmetry_space_group_name_H-M "C 2/C"
_symmetry_group_IT_number 15
_symmetry_cell_setting 'monoclinic'
loop_
_space_group_symop_operation_xyz
x,y,z
-x,y,1/2-z
-x,-y,-z
x,-y,1/2+z
1/2+x,1/2+y,z
1/2-x,1/2+y,1/2-z
1/2-x,1/2-y,-z
1/2+x,1/2-y,1/2+z
loop_
_atom_site_type_symbol
_atom_site_label
_atom_site_fract_x
_atom_site_fract_y
_atom_site_fract_z
Si Si1 0.456335 0.599942 0.079137
Si Si2 0.194460 0.484133 0.704413
Si Si3 0.014163 0.616854 0.585756
Si Si4 0.266935 0.126338 0.361439
Si Si5 0.903458 0.914854 0.433732
Si Si6 0.735541 0.273658 0.135280
Si Si7 0.019519 0.239961 0.422747
Si Si8 0.636513 0.031752 0.354837
O O1 0.576906 0.540408 0.163503
O O2 0.461187 0.593161 0.020738
O O3 0.573134 0.671377 0.142620
O O4 0.202248 0.605983 0.978849
O O5 0.159412 0.429515 0.644042
O O6 0.180899 0.557046 0.674061
O O7 0.013577 0.481972 0.665772
O O8 0.906859 0.617240 0.478957
O O9 0.106463 0.690543 0.639779
O O10 0.305084 0.201595 0.359337
O O11 0.000000 0.120114 0.250000
O O12 0.823999 0.846542 0.371766
O O13 0.720650 0.972077 0.355918
O O14 0.134377 0.938226 0.517787
O O15 0.000000 0.276227 0.250000
O O16 0.599309 0.269477 0.018450
O O17 0.250000 0.250000 0.500000
O O18 0.500000 0.075606 0.250000
#
# Coordination Sequence:
#
# PCOD9258922 Si02
#       8
#     8   8   8   8   8   8   8   8
#     4  10  18  34  57  82 111 145 186 236 279 338
#     4  12  22  34  58  85 115 152 187 227 288 352
#     4  10  19  36  55  86 114 145 189 233 285 332
#     4  10  20  36  58  85 115 146 188 236 283 334
#     4  10  20  37  55  78 113 142 185 246 282 331
#     4   9  18  33  57  84 106 141 185 238 286 327
#     4   8  17  31  54  80 112 137 182 240 281 323
#     4  11  22  35  53  80 111 150 189 228 292 343
#
# _framework density 20.169153999999999
#
# number of rings (size 3 to 8) (size 9 to 14) (size 15 to 20)
#    0.000    2.000    3.750    0.750    1.750    0.000 
#    0.000    0.625    0.000    1.500    3.250    0.000 
#    0.000    0.000    0.000    0.000    0.000    0.000 
#
# Total GULP energy -178199.892745 kJ/mol
# GULP energy per Si atom -5568.746648 kJ/mol
# Density = 2.012325 g / cm^3
# Si number density = 20.169154 Si / 1000 Ang^3
#
#
#
# Elastic Constant Matrix: (Units=GPa)
#
#
# Indices 1 2 3 4 5 6 
#
# 1 42.1379 10.2898 -5.8745 -0.0027 -3.0857 0.0005
# 2 10.2898 159.9449 44.0419 -0.0025 -3.7185 0.0011
# 3 -5.8745 44.0419 49.6237 -0.0133 -1.5118 -0.0045
# 4 -0.0027 -0.0025 -0.0133 22.1511 -0.0030 3.6173
# 5 -3.0857 -3.7185 -1.5118 -0.0030 20.5793 0.0007
# 6 0.0005 0.0011 -0.0045 3.6173 0.0007 13.9251
#
#
#
# Elastic Compliance Matrix: (Units=1/GPa)
#
#
# Indices 1 2 3 4 5 6 
#
# 1 0.025624 -0.003214 0.005999 0.000007 0.003702 -0.000001
# 2 -0.003214 0.008696 -0.008084 -0.000004 0.000496 -0.000002
# 3 0.005999 -0.008084 0.028082 0.000016 0.001502 0.000005
# 4 0.000007 -0.000004 0.000016 0.047144 0.000009 -0.012247
# 5 0.003702 0.000496 0.001502 0.000009 0.049348 -0.000005
# 6 -0.000001 -0.000002 0.000005 -0.012247 -0.000005 0.074994
#
#
# Mechanical properties :
#
#
# Convention : Reuss Voigt Hill
#
# Bulk Modulus (GPa) = 19.30344 38.73565 29.01955
# Shear Modulus (GPa) = 19.10192 24.88106 21.99149
#
# Velocity S-wave (km/s) = 3.08081 3.51610 3.30563
# Velocity P-wave (km/s) = 4.71665 5.97755 5.38414
#
# Compressibility (1/GPa) = 0.05180425
#
# Stress axis : x y z
#
# Youngs Moduli (GPa) = 39.02610 114.99123 35.61015
#
# Poissons Ratio (x) = 0.36961 -0.21362
# Poissons Ratio (y) = 0.12544 0.28786
# Poissons Ratio (z) = -0.23411 0.92954
#
# Static dielectric constant tensor:
#      x y z
#    x 1.718440 0.000000 -0.029610 
#    y 0.000000 1.833490 0.000000 
#    z -0.029610 0.000000 1.763940 
# 
# From -- ./inp_files/314523.got.cif
#   From: 2010.05.17/outbox.cif.g08.bks.cpg/sg15_158_cif.got.tgz:314523.got - 2010.06.03 18:47:42.
