data_PCOD9258026
_publ_section_title
;
Structure prediction by ZEFSAII (Michael W. Deem and Ramdas Pophale) SiO2 
 PCOD9258026
Probable space group: C 2/C
;
_chemical_formula_sum "Si O2"
_cell_formula_units_Z 60
_cell_length_a 13.613696
_cell_length_b 23.682364
_cell_length_c 11.431991
_cell_angle_alpha 90.000000
_cell_angle_beta 61.903764
_cell_angle_gamma 90.000000
_cell_volume 3251.391426
_symmetry_space_group_name_H-M "C 2/C"
_symmetry_group_IT_number 15
_symmetry_cell_setting 'monoclinic'
loop_
_space_group_symop_operation_xyz
x,y,z
-x,y,1/2-z
-x,-y,-z
x,-y,1/2+z
1/2+x,1/2+y,z
1/2-x,1/2+y,1/2-z
1/2-x,1/2-y,-z
1/2+x,1/2-y,1/2+z
loop_
_atom_site_type_symbol
_atom_site_label
_atom_site_fract_x
_atom_site_fract_y
_atom_site_fract_z
Si Si1 0.910539 0.508966 0.899225
Si Si2 0.983394 0.902886 0.504260
Si Si3 0.339602 0.317841 0.441206
Si Si4 0.198409 0.104212 0.741139
Si Si5 0.556410 0.906883 0.435562
Si Si6 0.500000 0.421502 0.750000
Si Si7 0.662070 0.513033 0.553022
Si Si8 0.907191 0.687918 0.401060
O O1 0.000000 0.494755 0.750000
O O2 0.950203 0.570226 0.924521
O O3 0.922876 0.459440 0.988274
O O4 0.781866 0.504952 0.937198
O O5 0.930941 0.854770 0.453546
O O6 0.968068 0.889783 0.649252
O O7 0.111478 0.907090 0.392419
O O8 0.914402 0.958193 0.502966
O O9 0.327349 0.336494 0.311928
O O10 0.217258 0.334207 0.560744
O O11 0.376528 0.253469 0.439301
O O12 0.328322 0.099891 0.700936
O O13 0.176713 0.058925 0.649246
O O14 0.549490 0.849670 0.514828
O O15 0.598708 0.461778 0.649703
O O16 0.000000 0.683616 0.250000
#
# Coordination Sequence:
#
# PCOD9258026 Si02
#       8
#     8   8   8   8   8   4   8   8
#     4  10  21  34  52  73 112 144 177 211 269 320
#     4  11  21  35  53  76 114 138 182 225 271 325
#     4   9  19  34  55  87 103 137 179 226 277 323
#     4   9  17  34  56  75 110 137 175 225 276 313
#     4   9  20  33  50  83 104 141 178 219 265 327
#     4  12  24  32  50  82 104 150 176 216 276 320
#     4  10  20  34  52  78 104 142 180 222 261 324
#     4  10  18  32  58  82 109 133 175 227 280 310
#
# _framework density 18.453638999999999
#
# number of rings (size 3 to 8) (size 9 to 14) (size 15 to 20)
#    0.000    2.133    1.333    3.600    1.867    3.200 
#    0.000    0.000    1.467    0.000    0.000    4.667 
#    0.000    0.000    0.000    0.000    0.000    0.000 
#
# Total GULP energy -167171.839987 kJ/mol
# GULP energy per Si atom -5572.394666 kJ/mol
# Density = 1.841164 g / cm^3
# Si number density = 18.453639 Si / 1000 Ang^3
#
#
#
# Elastic Constant Matrix: (Units=GPa)
#
#
# Indices 1 2 3 4 5 6 
#
# 1 62.9213 22.5775 46.6715 0.0000 -25.4813 0.0000
# 2 22.5775 65.9943 9.8905 0.0000 -6.2282 0.0000
# 3 46.6715 9.8905 113.5583 0.0000 -29.0716 0.0000
# 4 0.0000 0.0000 0.0000 17.7207 0.0000 -7.1993
# 5 -25.4813 -6.2282 -29.0716 0.0000 32.9862 0.0000
# 6 0.0000 0.0000 0.0000 -7.1993 0.0000 22.3737
#
#
#
# Elastic Compliance Matrix: (Units=1/GPa)
#
#
# Indices 1 2 3 4 5 6 
#
# 1 0.030933 -0.007927 -0.008121 0.000000 0.015242 0.000000
# 2 -0.007927 0.017512 0.001306 0.000000 -0.001666 0.000000
# 3 -0.008121 0.001306 0.013543 0.000000 0.005909 0.000000
# 4 0.000000 0.000000 0.000000 0.064917 0.000000 0.020889
# 5 0.015242 -0.001666 0.005909 0.000000 0.046983 0.000000
# 6 0.000000 0.000000 0.000000 0.020889 0.000000 0.051417
#
#
# Mechanical properties :
#
#
# Convention : Reuss Voigt Hill
#
# Bulk Modulus (GPa) = 30.76536 44.52811 37.64673
# Shear Modulus (GPa) = 18.82364 25.50508 22.16436
#
# Velocity S-wave (km/s) = 3.19729 3.72172 3.46942
# Velocity P-wave (km/s) = 5.50800 6.53072 6.04104
#
# Compressibility (1/GPa) = 0.03250409
#
# Stress axis : x y z
#
# Youngs Moduli (GPa) = 32.32745 57.10428 73.84088
#
# Poissons Ratio (x) = 0.45268 0.59966
# Poissons Ratio (y) = 0.25627 -0.09646
# Poissons Ratio (z) = 0.26253 -0.07460
#
# Static dielectric constant tensor:
#      x y z
#    x 1.673500 0.000000 -0.001710 
#    y 0.000000 1.666360 0.000000 
#    z -0.001710 0.000000 1.656350 
# 
# From -- ./inp_files/100466.got.cif
#   From: 2010.05.17/outbox.cif.g08.bks.cpg/sg15_51_cif.got.tgz:100466.got - 2010.06.03 18:47:42.
