data_PCOD9258261
_publ_section_title
;
Structure prediction by ZEFSAII (Michael W. Deem and Ramdas Pophale) SiO2 
 PCOD9258261
Probable space group: C 2/C
;
_chemical_formula_sum "Si O2"
_cell_formula_units_Z 52
_cell_length_a 23.155746
_cell_length_b 27.423664
_cell_length_c 5.534130
_cell_angle_alpha 90.000000
_cell_angle_beta 131.337292
_cell_angle_gamma 90.000000
_cell_volume 2638.625621
_symmetry_space_group_name_H-M "C 2/C"
_symmetry_group_IT_number 15
_symmetry_cell_setting 'monoclinic'
loop_
_space_group_symop_operation_xyz
x,y,z
-x,y,1/2-z
-x,-y,-z
x,-y,1/2+z
1/2+x,1/2+y,z
1/2-x,1/2+y,1/2-z
1/2-x,1/2-y,-z
1/2+x,1/2-y,1/2+z
loop_
_atom_site_type_symbol
_atom_site_label
_atom_site_fract_x
_atom_site_fract_y
_atom_site_fract_z
Si Si1 0.771076 0.026149 0.219939
Si Si2 0.280312 0.172419 0.798776
Si Si3 0.500000 0.620979 0.250000
Si Si4 0.103377 0.194246 0.283275
Si Si5 0.148334 0.224348 0.909969
Si Si6 0.228622 0.637306 0.224487
Si Si7 0.055137 0.954747 0.214540
O O1 0.748374 0.081841 0.213714
O O2 0.864261 0.027089 0.467667
O O3 0.747025 0.994117 0.389216
O O4 0.187699 0.168019 0.512095
O O5 0.314214 0.157703 0.632336
O O6 0.297886 0.228940 0.900710
O O7 0.307297 0.142061 0.106996
O O8 0.537765 0.655737 0.158399
O O9 0.564741 0.583938 0.527259
O O10 0.107943 0.227358 0.538134
O O11 0.096805 0.220076 0.007335
O O12 0.199098 0.174776 0.046805
O O13 0.000000 0.927442 0.250000
O O14 0.000000 0.000000 0.000000
#
# Coordination Sequence:
#
# PCOD9258261 Si02
#       7
#     8   8   4   8   8   8   8
#     4  12  24  37  48  65  93 128 169 211 253 296
#     4  10  18  33  53  74  89 111 151 208 251 293
#     4  12  26  34  48  66  96 126 166 212 258 314
#     4  10  21  32  47  68  91 120 142 191 252 297
#     4  10  19  34  53  71  91 112 152 206 252 293
#     4  10  19  30  50  69  89 113 147 197 256 289
#     4  12  23  35  47  59  82 125 177 223 255 280
#
# _framework density 19.707229999999999
#
# number of rings (size 3 to 8) (size 9 to 14) (size 15 to 20)
#    0.000    1.231    2.308    7.385    6.462    0.000 
#    0.000    0.000    0.000    0.000    0.000    0.000 
#    0.000    0.000    0.000    0.000    0.000    0.000 
#
# Total GULP energy -144936.076838 kJ/mol
# GULP energy per Si atom -5574.464494 kJ/mol
# Density = 1.966238 g / cm^3
# Si number density = 19.707230 Si / 1000 Ang^3
#
#
#
# Elastic Constant Matrix: (Units=GPa)
#
#
# Indices 1 2 3 4 5 6 
#
# 1 57.8456 12.9762 24.2404 0.0000 -31.5556 0.0000
# 2 12.9762 83.6064 5.4054 0.0000 4.8376 0.0000
# 3 24.2404 5.4054 52.8821 0.0000 -35.4860 0.0000
# 4 0.0000 0.0000 0.0000 17.8477 0.0000 -9.6342
# 5 -31.5556 4.8376 -35.4860 0.0000 36.7111 0.0000
# 6 0.0000 0.0000 0.0000 -9.6342 0.0000 21.7297
#
#
#
# Elastic Compliance Matrix: (Units=1/GPa)
#
#
# Indices 1 2 3 4 5 6 
#
# 1 0.043157 -0.011434 0.020749 0.000000 0.058659 0.000000
# 2 -0.011434 0.015933 -0.012499 0.000000 -0.024009 0.000000
# 3 0.020749 -0.012499 0.067595 0.000000 0.084822 0.000000
# 4 0.000000 0.000000 0.000000 0.073658 0.000000 0.032657
# 5 0.058659 -0.024009 0.084822 0.000000 0.162816 0.000000
# 6 0.000000 0.000000 0.000000 0.032657 0.000000 0.060499
#
#
# Mechanical properties :
#
#
# Convention : Reuss Voigt Hill
#
# Bulk Modulus (GPa) = 8.31130 31.06425 19.68777
# Shear Modulus (GPa) = 10.63534 25.37186 18.00360
#
# Velocity S-wave (km/s) = 2.32559 3.59198 3.02578
# Velocity P-wave (km/s) = 3.38197 5.74458 4.71370
#
# Compressibility (1/GPa) = 0.12031819
#
# Stress axis : x y z
#
# Youngs Moduli (GPa) = 23.17130 62.76401 14.79395
#
# Poissons Ratio (x) = 0.71763 -0.30696
# Poissons Ratio (y) = 0.26494 0.18490
# Poissons Ratio (z) = -0.48078 0.78446
#
# Static dielectric constant tensor:
#      x y z
#    x 2.250010 0.000000 -0.445670 
#    y 0.000000 1.699780 0.000000 
#    z -0.445670 0.000000 2.039630 
# 
# From -- ./inp_files/13969.got.cif
#   From: 2010.05.17/outbox.cif.g08.bks.cpg/sg15_7_cif.got.tgz:13969.got - 2010.06.03 18:47:42.
