data_PCOD9258912
_publ_section_title
;
Structure prediction by ZEFSAII (Michael W. Deem and Ramdas Pophale) SiO2 
 PCOD9258912
Probable space group: C 2/C
;
_chemical_formula_sum "Si O2"
_cell_formula_units_Z 56
_cell_length_a 14.320965
_cell_length_b 26.699099
_cell_length_c 11.236155
_cell_angle_alpha 90.000000
_cell_angle_beta 38.374612
_cell_angle_gamma 90.000000
_cell_volume 2667.095961
_symmetry_space_group_name_H-M "C 2/C"
_symmetry_group_IT_number 15
_symmetry_cell_setting 'monoclinic'
loop_
_space_group_symop_operation_xyz
x,y,z
-x,y,1/2-z
-x,-y,-z
x,-y,1/2+z
1/2+x,1/2+y,z
1/2-x,1/2+y,1/2-z
1/2-x,1/2-y,-z
1/2+x,1/2-y,1/2+z
loop_
_atom_site_type_symbol
_atom_site_label
_atom_site_fract_x
_atom_site_fract_y
_atom_site_fract_z
Si Si1 0.593291 0.789096 0.539438
Si Si2 0.401444 0.640074 0.470839
Si Si3 0.449604 0.318890 0.179072
Si Si4 0.833019 0.039317 0.451701
Si Si5 0.596924 0.035019 0.254388
Si Si6 0.072295 0.325768 0.296170
Si Si7 0.586551 0.069064 0.515062
O O1 0.500000 0.807572 0.750000
O O2 0.557372 0.729884 0.572865
O O3 0.771381 0.803257 0.367546
O O4 0.538018 0.806282 0.463211
O O5 0.500000 0.642586 0.250000
O O6 0.470432 0.655559 0.528869
O O7 0.344911 0.582385 0.539170
O O8 0.251864 0.673003 0.601995
O O9 0.500000 0.347339 0.250000
O O10 0.735881 0.064725 0.443624
O O11 0.000000 0.028191 0.250000
O O12 0.753720 0.987793 0.560337
O O13 0.500000 0.061015 0.250000
O O14 0.617926 0.069319 0.345348
O O15 0.504082 0.983022 0.373634
O O16 0.000000 0.301026 0.250000
O O17 0.009773 0.382589 0.359520
#
# Coordination Sequence:
#
# PCOD9258912 Si02
#       7
#     8   8   8   8   8   8   8
#     4  10  22  38  59  87 116 159 190 241 292 346
#     4  10  21  36  60  85 116 156 191 238 291 344
#     4  10  21  40  61  84 120 156 194 239 291 349
#     4  10  19  35  55  82 114 150 191 234 294 343
#     4   9  18  33  58  81 108 147 191 234 286 339
#     4  11  20  36  59  86 117 150 199 240 284 345
#     4  10  18  34  57  80 111 149 187 241 283 339
#
# _framework density 20.996621000000001
#
# number of rings (size 3 to 8) (size 9 to 14) (size 15 to 20)
#    0.000    2.000    2.857    2.143    0.000    4.000 
#    0.000    2.857    0.000    0.857    0.000    0.000 
#    0.000    0.000    0.000    0.000    0.000    0.000 
#
# Total GULP energy -156009.657289 kJ/mol
# GULP energy per Si atom -5571.773475 kJ/mol
# Density = 2.094883 g / cm^3
# Si number density = 20.996621 Si / 1000 Ang^3
#
#
#
# Elastic Constant Matrix: (Units=GPa)
#
#
# Indices 1 2 3 4 5 6 
#
# 1 165.5124 28.7104 52.9173 0.0000 33.5083 0.0000
# 2 28.7104 20.5968 6.3435 0.0000 11.3264 0.0000
# 3 52.9173 6.3435 91.1065 0.0000 10.0566 0.0000
# 4 0.0000 0.0000 0.0000 7.9606 0.0000 13.8641
# 5 33.5083 11.3264 10.0566 0.0000 41.4111 0.0000
# 6 0.0000 0.0000 0.0000 13.8641 0.0000 23.5890
#
#
#
# Elastic Compliance Matrix: (Units=1/GPa)
#
#
# Indices 1 2 3 4 5 6 
#
# 1 0.010239 -0.010462 -0.004747 0.000000 -0.004271 0.000000
# 2 -0.010462 0.068316 0.002515 0.000000 -0.010831 0.000000
# 3 -0.004747 0.002515 0.013574 0.000000 -0.000143 0.000000
# 4 0.000000 0.000000 0.000000 -5.325533 0.000000 3.130008
# 5 -0.004271 -0.010831 -0.000143 0.000000 0.030601 0.000000
# 6 0.000000 0.000000 0.000000 3.130008 0.000000 -1.797225
#
#
# Mechanical properties :
#
#
# Convention : Reuss Voigt Hill
#
# Bulk Modulus (GPa) = 14.98321 50.35088 32.66705
# Shear Modulus (GPa) = -0.71918 27.20844 13.24463
#
# Velocity S-wave (km/s) = -0.58589 3.60369 2.51429
# Velocity P-wave (km/s) = 2.58724 6.43024 4.90111
#
# Compressibility (1/GPa) = 0.06674137
#
# Stress axis : x y z
#
# Youngs Moduli (GPa) = 97.66585 14.63796 73.66930
#
# Poissons Ratio (x) = 0.15314 0.34973
# Poissons Ratio (y) = 1.02176 -0.18531
# Poissons Ratio (z) = 0.46365 -0.03682
#
# Static dielectric constant tensor:
#      x y z
#    x 1.819870 0.000000 0.044660 
#    y 0.000000 1.792990 0.000000 
#    z 0.044660 0.000000 1.818630 
# 
# From -- ./inp_files/101769.got.cif
#   From: 2010.05.17/outbox.cif.g08.bks.cpg/sg15_51_cif.got.tgz:101769.got - 2010.06.03 18:47:42.
