data_PCOD9258692
_publ_section_title
;
Structure prediction by ZEFSAII (Michael W. Deem and Ramdas Pophale) SiO2 
 PCOD9258692
Probable space group: C 2/C
;
_chemical_formula_sum "Si O2"
_cell_formula_units_Z 48
_cell_length_a 14.625732
_cell_length_b 13.053836
_cell_length_c 11.600135
_cell_angle_alpha 90.000000
_cell_angle_beta 87.046919
_cell_angle_gamma 90.000000
_cell_volume 2211.778874
_symmetry_space_group_name_H-M "C 2/C"
_symmetry_group_IT_number 15
_symmetry_cell_setting 'monoclinic'
loop_
_space_group_symop_operation_xyz
x,y,z
-x,y,1/2-z
-x,-y,-z
x,-y,1/2+z
1/2+x,1/2+y,z
1/2-x,1/2+y,1/2-z
1/2-x,1/2-y,-z
1/2+x,1/2-y,1/2+z
loop_
_atom_site_type_symbol
_atom_site_label
_atom_site_fract_x
_atom_site_fract_y
_atom_site_fract_z
Si Si1 0.155636 0.691096 0.209157
Si Si2 0.500000 0.358893 0.250000
Si Si3 0.996350 0.160208 0.499905
Si Si4 0.166686 0.321770 0.969328
Si Si5 0.651746 0.223935 0.881918
Si Si6 0.000000 0.816730 0.750000
Si Si7 0.896966 0.532749 0.474240
O O1 0.177854 0.650366 0.334801
O O2 0.248911 0.731463 0.146189
O O3 0.087571 0.785676 0.230822
O O4 0.108178 0.602355 0.138642
O O5 0.512289 0.402292 0.380439
O O6 0.926539 0.256124 0.513045
O O7 0.979553 0.122008 0.369361
O O8 0.098103 0.207257 0.480353
O O9 0.159081 0.428123 0.037072
O O10 0.250000 0.250000 0.000000
O O11 0.587005 0.246019 0.775617
O O12 0.644505 0.107582 0.924582
O O13 0.000000 0.500000 0.500000
#
# Coordination Sequence:
#
# PCOD9258692 Si02
#       7
#     8   4   8   8   8   4   8
#     4  11  22  38  63  96 133 176 216 279 351 407
#     4  10  18  34  51  92 129 160 202 266 331 392
#     4   9  18  34  57  83 120 163 208 264 323 388
#     4  11  24  39  58  94 137 171 215 281 344 400
#     4  10  20  36  65  96 124 171 223 272 334 409
#     4   8  16  32  55  90 117 160 210 262 315 392
#     4  12  22  40  63 100 132 167 226 287 338 402
#
# _framework density 21.701988
#
# number of rings (size 3 to 8) (size 9 to 14) (size 15 to 20)
#    1.000    0.667    3.333    2.500    0.000    4.000 
#    0.000    0.000    0.000    1.000    4.333    0.000 
#    0.000    0.000    0.000    0.000    0.000    0.000 
#
# Total GULP energy -133748.289363 kJ/mol
# GULP energy per Si atom -5572.845390 kJ/mol
# Density = 2.165259 g / cm^3
# Si number density = 21.701988 Si / 1000 Ang^3
#
#
#
# Elastic Constant Matrix: (Units=GPa)
#
#
# Indices 1 2 3 4 5 6 
#
# 1 124.4440 21.8313 20.3606 0.0000 -11.2947 0.0000
# 2 21.8313 100.6046 34.6989 0.0000 0.5043 0.0000
# 3 20.3606 34.6989 180.2060 0.0000 7.4515 0.0000
# 4 0.0000 0.0000 0.0000 -31.7079 0.0000 11.1223
# 5 -11.2947 0.5043 7.4515 0.0000 42.0279 0.0000
# 6 0.0000 0.0000 0.0000 11.1223 0.0000 -12.3851
#
#
#
# Elastic Compliance Matrix: (Units=1/GPa)
#
#
# Indices 1 2 3 4 5 6 
#
# 1 0.008673 -0.001629 -0.000769 0.000000 0.002487 0.000000
# 2 -0.001629 0.010955 -0.001916 0.000000 -0.000230 0.000000
# 3 -0.000769 -0.001916 0.006057 0.000000 -0.001258 0.000000
# 4 0.000000 0.000000 0.000000 -0.046041 0.000000 -0.041346
# 5 0.002487 -0.000230 -0.001258 0.000000 0.024688 0.000000
# 6 0.000000 0.000000 0.000000 -0.041346 0.000000 -0.117872
#
#
# Mechanical properties :
#
#
# Convention : Reuss Voigt Hill
#
# Bulk Modulus (GPa) = 58.62673 62.11512 60.37093
# Shear Modulus (GPa) = -50.38994 21.47790 -14.45602
#
# Velocity S-wave (km/s) = -4.82384 3.14932 -2.58372
# Velocity P-wave (km/s) = 1.98817 6.47366 4.35634
#
# Compressibility (1/GPa) = 0.01705707
#
# Stress axis : x y z
#
# Youngs Moduli (GPa) = 115.29915 91.27908 165.09815
#
# Poissons Ratio (x) = 0.14872 0.12697
# Poissons Ratio (y) = 0.18786 0.31631
# Poissons Ratio (z) = 0.08867 0.17488
#
# Static dielectric constant tensor:
#      x y z
#    x 1.767210 0.000000 0.008380 
#    y 0.000000 1.728810 0.000000 
#    z 0.008380 0.000000 1.946650 
# 
# From -- ./inp_files/96433.got.cif
#   From: 2010.05.17/outbox.cif.g08.bks.cpg/sg15_49_cif.got.tgz:96433.got - 2010.06.03 18:47:42.
