data_PCOD9258651
_publ_section_title
;
Structure prediction by ZEFSAII (Michael W. Deem and Ramdas Pophale) SiO2 
 PCOD9258651
Probable space group: C 2/C
;
_chemical_formula_sum "Si O2"
_cell_formula_units_Z 48
_cell_length_a 7.705487
_cell_length_b 21.574649
_cell_length_c 14.270611
_cell_angle_alpha 90.000000
_cell_angle_beta 73.997292
_cell_angle_gamma 90.000000
_cell_volume 2280.458375
_symmetry_space_group_name_H-M "C 2/C"
_symmetry_group_IT_number 15
_symmetry_cell_setting 'monoclinic'
loop_
_space_group_symop_operation_xyz
x,y,z
-x,y,1/2-z
-x,-y,-z
x,-y,1/2+z
1/2+x,1/2+y,z
1/2-x,1/2+y,1/2-z
1/2-x,1/2-y,-z
1/2+x,1/2-y,1/2+z
loop_
_atom_site_type_symbol
_atom_site_label
_atom_site_fract_x
_atom_site_fract_y
_atom_site_fract_z
Si Si1 0.781134 0.152695 0.855381
Si Si2 0.450290 0.932706 0.471608
Si Si3 0.279903 0.299073 0.669257
Si Si4 0.053718 0.198130 0.974041
Si Si5 0.088266 0.669535 0.382312
Si Si6 0.691962 0.878296 0.174840
O O1 0.624334 0.109365 0.920075
O O2 0.736841 0.224302 0.835201
O O3 0.817515 0.121336 0.747926
O O4 0.920305 0.164878 0.918956
O O5 0.366787 0.892603 0.568453
O O6 0.336667 0.935944 0.391185
O O7 0.500000 0.000000 0.500000
O O8 0.464832 0.314901 0.587706
O O9 0.239914 0.316748 0.781788
O O10 0.108939 0.329706 0.639391
O O11 0.065231 0.271027 0.952999
O O12 0.243045 0.171978 0.909961
O O13 0.500000 0.863185 0.250000
#
# Coordination Sequence:
#
# PCOD9258651 Si02
#       6
#     8   8   8   8   8   8
#     4  10  18  39  62  91 118 159 209 253 319 376
#     4  11  23  42  57  84 134 178 207 243 300 388
#     4  10  18  33  63  98 120 150 206 269 322 365
#     4  11  18  36  67  92 122 150 206 277 322 365
#     4  10  19  35  61  93 122 159 208 256 317 371
#     4  10  23  38  58  91 122 161 208 254 323 370
#
# _framework density 21.048401999999999
#
# number of rings (size 3 to 8) (size 9 to 14) (size 15 to 20)
#    0.000    1.667    5.000    1.500    0.000    0.667 
#    9.000    1.667    0.000    4.000    0.000    0.000 
#    0.000    0.000    0.000    0.000    0.000    0.000 
#
# Total GULP energy -133693.928715 kJ/mol
# GULP energy per Si atom -5570.580363 kJ/mol
# Density = 2.100049 g / cm^3
# Si number density = 21.048402 Si / 1000 Ang^3
#
#
#
# Elastic Constant Matrix: (Units=GPa)
#
#
# Indices 1 2 3 4 5 6 
#
# 1 57.3024 25.4085 53.4233 0.0000 15.8693 0.0000
# 2 25.4085 78.4566 53.8916 0.0000 3.9995 0.0000
# 3 53.4233 53.8916 193.2963 0.0000 -19.0243 0.0000
# 4 0.0000 0.0000 0.0000 19.0191 0.0000 3.7415
# 5 15.8693 3.9995 -19.0243 0.0000 47.2048 0.0000
# 6 0.0000 0.0000 0.0000 3.7415 0.0000 18.1532
#
#
#
# Elastic Compliance Matrix: (Units=1/GPa)
#
#
# Indices 1 2 3 4 5 6 
#
# 1 0.031181 -0.003131 -0.009112 0.000000 -0.013889 0.000000
# 2 -0.003131 0.016569 -0.003945 0.000000 -0.001941 0.000000
# 3 -0.009112 -0.003945 0.009503 0.000000 0.007227 0.000000
# 4 0.000000 0.000000 0.000000 0.054801 0.000000 -0.011295
# 5 -0.013889 -0.001941 0.007227 0.000000 0.028931 0.000000
# 6 0.000000 0.000000 0.000000 -0.011295 0.000000 0.057415
#
#
# Mechanical properties :
#
#
# Convention : Reuss Voigt Hill
#
# Bulk Modulus (GPa) = 40.19830 66.05578 53.12704
# Shear Modulus (GPa) = 20.91455 29.96421 25.43938
#
# Velocity S-wave (km/s) = 3.15563 3.77714 3.48028
# Velocity P-wave (km/s) = 5.69358 7.10446 6.43778
#
# Compressibility (1/GPa) = 0.02487667
#
# Stress axis : x y z
#
# Youngs Moduli (GPa) = 32.07045 60.35460 105.23016
#
# Poissons Ratio (x) = 0.18898 0.95885
# Poissons Ratio (y) = 0.10042 0.41514
# Poissons Ratio (z) = 0.29222 0.23810
#
# Static dielectric constant tensor:
#      x y z
#    x 1.982240 0.000000 0.025210 
#    y 0.000000 1.694010 0.000000 
#    z 0.025210 0.000000 1.814190 
# 
# From -- ./inp_files/135880.got.cif
#   From: 2010.05.17/outbox.cif.g08.bks.cpg/sg15_68_cif.got.tgz:135880.got - 2010.06.03 18:47:42.
