data_PCOD9258821
_publ_section_title
;
Structure prediction by ZEFSAII (Michael W. Deem and Ramdas Pophale) SiO2 
 PCOD9258821
Probable space group: C 2/C
;
_chemical_formula_sum "Si O2"
_cell_formula_units_Z 64
_cell_length_a 21.070127
_cell_length_b 19.012127
_cell_length_c 23.552942
_cell_angle_alpha 90.000000
_cell_angle_beta 21.579477
_cell_angle_gamma 90.000000
_cell_volume 3470.121631
_symmetry_space_group_name_H-M "C 2/C"
_symmetry_group_IT_number 15
_symmetry_cell_setting 'monoclinic'
loop_
_space_group_symop_operation_xyz
x,y,z
-x,y,1/2-z
-x,-y,-z
x,-y,1/2+z
1/2+x,1/2+y,z
1/2-x,1/2+y,1/2-z
1/2-x,1/2-y,-z
1/2+x,1/2-y,1/2+z
loop_
_atom_site_type_symbol
_atom_site_label
_atom_site_fract_x
_atom_site_fract_y
_atom_site_fract_z
Si Si1 0.766774 0.805754 0.616988
Si Si2 0.282273 0.428531 0.692883
Si Si3 0.997741 0.184685 0.187321
Si Si4 0.813027 0.089681 0.641100
Si Si5 0.669113 0.788329 0.329362
Si Si6 0.699222 0.839403 0.857383
Si Si7 0.141318 0.659645 0.675573
Si Si8 0.065137 0.218194 0.637987
O O1 0.747802 0.877231 0.668409
O O2 0.831492 0.743376 0.606228
O O3 0.894370 0.816063 0.457144
O O4 0.580243 0.777494 0.751975
O O5 0.738557 0.489695 0.301650
O O6 0.482826 0.413043 0.542140
O O7 0.168283 0.403461 0.840573
O O8 0.846743 0.145135 0.279585
O O9 0.942312 0.266676 0.234933
O O10 0.000000 0.160219 0.250000
O O11 0.183312 0.176398 0.004496
O O12 0.785141 0.144644 0.716045
O O13 0.702700 0.116756 0.679405
O O14 0.477847 0.811097 0.470685
O O15 0.730320 0.723682 0.240413
O O16 0.000000 0.626944 0.750000
O O17 0.250000 0.250000 0.500000
O O18 0.000000 0.179104 0.750000
#
# Coordination Sequence:
#
# PCOD9258821 Si02
#       8
#     8   8   8   8   8   8   8   8
#     4  10  18  34  55  86 111 140 187 230 292 343
#     4  10  22  38  57  81 116 157 188 240 291 344
#     4  11  21  33  56  85 112 148 189 243 288 335
#     4  11  22  38  56  81 115 157 197 232 291 343
#     4  11  21  32  60  83 117 146 184 243 285 346
#     4  11  20  35  55  88 114 147 190 238 296 337
#     4  11  22  36  56  84 114 151 195 239 286 345
#     4   9  18  32  55  84 108 135 174 238 287 336
#
# _framework density 18.443155999999998
#
# number of rings (size 3 to 8) (size 9 to 14) (size 15 to 20)
#    0.000    1.500    2.500    6.000    1.750    0.500 
#    0.000    1.875    0.000    0.750    0.000    0.000 
#    0.000    0.000    0.000    0.000    0.000    0.000 
#
# Total GULP energy -178487.208197 kJ/mol
# GULP energy per Si atom -5577.725256 kJ/mol
# Density = 1.840118 g / cm^3
# Si number density = 18.443156 Si / 1000 Ang^3
#
#
#
# Elastic Constant Matrix: (Units=GPa)
#
#
# Indices 1 2 3 4 5 6 
#
# 1 112.9571 33.3788 28.0703 0.0145 6.0176 0.0007
# 2 33.3788 72.1923 9.7488 0.0419 13.8766 0.0122
# 3 28.0703 9.7488 83.4690 0.0520 -1.2202 0.0132
# 4 0.0145 0.0419 0.0520 13.7584 0.0050 -0.6810
# 5 6.0176 13.8766 -1.2202 0.0050 31.5348 -0.0047
# 6 0.0007 0.0122 0.0132 -0.6810 -0.0047 12.7966
#
#
#
# Elastic Compliance Matrix: (Units=1/GPa)
#
#
# Indices 1 2 3 4 5 6 
#
# 1 0.011018 -0.004631 -0.003167 0.000015 -0.000187 0.000008
# 2 -0.004631 0.017374 -0.000571 -0.000044 -0.006784 -0.000021
# 3 -0.003167 -0.000571 0.013132 -0.000046 0.001364 -0.000015
# 4 0.000015 -0.000044 -0.000046 0.072875 0.000004 0.003878
# 5 -0.000187 -0.006784 0.001364 0.000004 0.034785 0.000018
# 6 0.000008 -0.000021 -0.000015 0.003878 0.000018 0.078352
#
#
# Mechanical properties :
#
#
# Convention : Reuss Voigt Hill
#
# Bulk Modulus (GPa) = 40.34450 45.66823 43.00637
# Shear Modulus (GPa) = 19.79907 24.77932 22.28920
#
# Velocity S-wave (km/s) = 3.28001 3.66942 3.48017
# Velocity P-wave (km/s) = 6.02223 6.53975 6.28631
#
# Compressibility (1/GPa) = 0.02478652
#
# Stress axis : x y z
#
# Youngs Moduli (GPa) = 90.75741 57.55711 76.14793
#
# Poissons Ratio (x) = 0.26653 0.24119
# Poissons Ratio (y) = 0.42027 0.04348
# Poissons Ratio (z) = 0.28746 0.03287
#
# Static dielectric constant tensor:
#      x y z
#    x 1.708860 0.000000 0.012560 
#    y 0.000000 1.602160 0.000000 
#    z 0.012560 0.000000 1.658670 
# 
# From -- ./inp_files/280477.got.cif
#   From: 2010.05.17/outbox.cif.g08.bks.cpg/sg15_141_cif.got.tgz:280477.got - 2010.06.03 18:47:42.
