data_PCOD9258398
_publ_section_title
;
Structure prediction by ZEFSAII (Michael W. Deem and Ramdas Pophale) SiO2 
 PCOD9258398
Probable space group: C 2/C
;
_chemical_formula_sum "Si O2"
_cell_formula_units_Z 52
_cell_length_a 19.003393
_cell_length_b 9.039383
_cell_length_c 15.351171
_cell_angle_alpha 90.000000
_cell_angle_beta 86.510626
_cell_angle_gamma 90.000000
_cell_volume 2632.119259
_symmetry_space_group_name_H-M "C 2/C"
_symmetry_group_IT_number 15
_symmetry_cell_setting 'monoclinic'
loop_
_space_group_symop_operation_xyz
x,y,z
-x,y,1/2-z
-x,-y,-z
x,-y,1/2+z
1/2+x,1/2+y,z
1/2-x,1/2+y,1/2-z
1/2-x,1/2-y,-z
1/2+x,1/2-y,1/2+z
loop_
_atom_site_type_symbol
_atom_site_label
_atom_site_fract_x
_atom_site_fract_y
_atom_site_fract_z
Si Si1 0.099476 0.730266 0.868170
Si Si2 0.651389 0.438596 0.335826
Si Si3 0.142313 0.286112 0.545568
Si Si4 0.263367 0.497168 0.506679
Si Si5 0.500000 0.066165 0.750000
Si Si6 0.886517 0.313011 0.763013
Si Si7 0.228427 0.505778 0.814930
O O1 0.171274 0.637360 0.838133
O O2 0.032780 0.669027 0.821585
O O3 0.114658 0.901701 0.847283
O O4 0.087778 0.700076 0.971411
O O5 0.694761 0.412663 0.422632
O O6 0.597612 0.308967 0.311924
O O7 0.707357 0.446674 0.251662
O O8 0.188635 0.436091 0.548033
O O9 0.191514 0.152328 0.509954
O O10 0.116227 0.242983 0.641843
O O11 0.252354 0.552398 0.408608
O O12 0.437108 0.952193 0.772914
O O13 0.813054 0.381381 0.735352
#
# Coordination Sequence:
#
# PCOD9258398 Si02
#       7
#     8   8   8   8   4   8   8
#     4   9  21  37  58  76 110 149 190 215 277 328
#     4  11  19  32  59  86 109 145 174 233 277 330
#     4   9  16  32  56  83 107 150 176 223 267 338
#     4   9  17  30  53  85 123 139 173 209 288 343
#     4  10  24  42  54  76 104 150 190 238 262 324
#     4  11  21  34  58  82 114 143 188 227 273 308
#     4  10  18  33  55  89 115 143 173 223 278 337
#
# _framework density 19.755942000000001
#
# number of rings (size 3 to 8) (size 9 to 14) (size 15 to 20)
#    0.000    2.154    3.077    1.846    0.000    1.846 
#    0.000    0.000    3.385    2.769    0.000    0.000 
#    0.000    0.000    0.000    0.000    0.000    0.000 
#
# Total GULP energy -144801.440404 kJ/mol
# GULP energy per Si atom -5569.286169 kJ/mol
# Density = 1.971098 g / cm^3
# Si number density = 19.755942 Si / 1000 Ang^3
#
#
#
# Elastic Constant Matrix: (Units=GPa)
#
#
# Indices 1 2 3 4 5 6 
#
# 1 48.7811 21.8640 48.6756 0.0000 35.5626 0.0000
# 2 21.8640 55.8591 14.0428 0.0000 24.0781 0.0000
# 3 48.6756 14.0428 139.8677 0.0000 49.5738 0.0000
# 4 0.0000 0.0000 0.0000 20.6319 0.0000 3.9975
# 5 35.5626 24.0781 49.5738 0.0000 31.9735 0.0000
# 6 0.0000 0.0000 0.0000 3.9975 0.0000 16.3389
#
#
#
# Elastic Compliance Matrix: (Units=1/GPa)
#
#
# Indices 1 2 3 4 5 6 
#
# 1 0.148575 0.037278 0.029020 0.000000 -0.238320 0.000000
# 2 0.037278 0.043696 0.019976 0.000000 -0.105340 0.000000
# 3 0.029020 0.019976 0.026232 0.000000 -0.087993 0.000000
# 4 0.000000 0.000000 0.000000 0.050881 0.000000 -0.012449
# 5 -0.238320 -0.105340 -0.087993 0.000000 0.512104 0.000000
# 6 0.000000 0.000000 0.000000 -0.012449 0.000000 0.064249
#
#
# Mechanical properties :
#
#
# Convention : Reuss Voigt Hill
#
# Bulk Modulus (GPa) = 2.55721 45.96362 24.26042
# Shear Modulus (GPa) = 6.22246 24.45057 15.33652
#
# Velocity S-wave (km/s) = 1.77665 3.52181 2.78924
# Velocity P-wave (km/s) = 2.34646 6.31299 4.76234
#
# Compressibility (1/GPa) = 0.39105064
#
# Stress axis : x y z
#
# Youngs Moduli (GPa) = 6.73060 22.88538 38.12088
#
# Poissons Ratio (x) = -0.85312 -1.10626
# Poissons Ratio (y) = -0.25090 -0.76149
# Poissons Ratio (z) = -0.19532 -0.45715
#
# Static dielectric constant tensor:
#      x y z
#    x 1.732600 0.000000 0.019020 
#    y 0.000000 1.746100 0.000000 
#    z 0.019020 0.000000 1.731620 
# 
# From -- ./inp_files/166238.got.cif
#   From: 2010.05.17/outbox.cif.g08.bks.cpg/sg15_84_cif.got.tgz:166238.got - 2010.06.03 18:47:42.
