data_PCOD9258105
_publ_section_title
;
Structure prediction by ZEFSAII (Michael W. Deem and Ramdas Pophale) SiO2 
 PCOD9258105
Probable space group: C 2/C
;
_chemical_formula_sum "Si O2"
_cell_formula_units_Z 36
_cell_length_a 7.420778
_cell_length_b 11.920470
_cell_length_c 16.487423
_cell_angle_alpha 90.000000
_cell_angle_beta 60.503704
_cell_angle_gamma 90.000000
_cell_volume 1269.428540
_symmetry_space_group_name_H-M "C 2/C"
_symmetry_group_IT_number 15
_symmetry_cell_setting 'monoclinic'
loop_
_space_group_symop_operation_xyz
x,y,z
-x,y,1/2-z
-x,-y,-z
x,-y,1/2+z
1/2+x,1/2+y,z
1/2-x,1/2+y,1/2-z
1/2-x,1/2-y,-z
1/2+x,1/2-y,1/2+z
loop_
_atom_site_type_symbol
_atom_site_label
_atom_site_fract_x
_atom_site_fract_y
_atom_site_fract_z
Si Si1 0.987821 0.287798 0.101663
Si Si2 0.937529 0.351326 0.671655
Si Si3 0.790971 0.571168 0.530112
Si Si4 0.500000 0.376774 0.750000
Si Si5 0.373737 0.640812 0.585674
O O1 0.977928 0.195329 0.172718
O O2 0.140812 0.382952 0.107611
O O3 0.066999 0.222645 0.003260
O O4 0.790092 0.347486 0.108416
O O5 0.732696 0.426123 0.693958
O O6 0.864302 0.225353 0.663614
O O7 0.000000 0.366778 0.750000
O O8 0.133508 0.370894 0.570110
O O9 0.000000 0.500000 0.500000
O O10 0.952241 0.952065 0.432838
#
# Coordination Sequence:
#
# PCOD9258105 Si02
#       5
#     8   8   8   4   8
#     4   9  18  34  56  81 104 138 189 238 273 321
#     4  10  19  34  59  81 102 142 191 239 272 325
#     4  11  22  35  52  79 119 152 180 220 287 353
#     4  10  18  32  60  82 102 128 186 246 276 310
#     4   9  18  34  57  81 103 139 191 236 271 325
#
# _framework density 28.359217000000001
#
# number of rings (size 3 to 8) (size 9 to 14) (size 15 to 20)
#    0.000    2.222    0.000    6.667    0.000    0.889 
#    2.000    0.000    7.333    0.000    0.000    0.000 
#    0.000    0.000    0.000    0.000    0.000    0.000 
#
# Total GULP energy -100382.820754 kJ/mol
# GULP energy per Si atom -5576.823375 kJ/mol
# Density = 2.829467 g / cm^3
# Si number density = 28.359217 Si / 1000 Ang^3
#
#
#
# Elastic Constant Matrix: (Units=GPa)
#
#
# Indices 1 2 3 4 5 6 
#
# 1 211.6776 39.9602 11.8192 0.0000 10.8670 -0.0001
# 2 39.9602 65.5108 13.3482 0.0000 17.4483 0.0000
# 3 11.8192 13.3482 113.0785 0.0000 26.7667 0.0000
# 4 0.0000 0.0000 0.0000 11.2947 0.0000 -6.8759
# 5 10.8670 17.4483 26.7667 0.0000 55.6970 0.0000
# 6 -0.0001 0.0000 0.0000 -6.8759 0.0000 50.6655
#
#
#
# Elastic Compliance Matrix: (Units=1/GPa)
#
#
# Indices 1 2 3 4 5 6 
#
# 1 0.005343 -0.003237 -0.000191 0.000000 0.000064 0.000000
# 2 -0.003237 0.018684 -0.000712 0.000000 -0.004879 0.000000
# 3 -0.000191 -0.000712 0.010026 0.000000 -0.004558 0.000000
# 4 0.000000 0.000000 0.000000 0.096511 0.000000 0.013098
# 5 0.000064 -0.004879 -0.004558 0.000000 0.021661 0.000000
# 6 0.000000 0.000000 0.000000 0.013098 0.000000 0.021515
#
#
# Mechanical properties :
#
#
# Convention : Reuss Voigt Hill
#
# Bulk Modulus (GPa) = 38.80191 57.83578 48.31884
# Shear Modulus (GPa) = 26.23149 45.20741 35.71945
#
# Velocity S-wave (km/s) = 3.04464 3.99695 3.55284
# Velocity P-wave (km/s) = 5.10605 6.46058 5.82283
#
# Compressibility (1/GPa) = 0.02577193
#
# Stress axis : x y z
#
# Youngs Moduli (GPa) = 187.17369 53.52254 99.73656
#
# Poissons Ratio (x) = 0.17324 0.01909
# Poissons Ratio (y) = 0.60585 0.07103
# Poissons Ratio (z) = 0.03582 0.03812
#
# Static dielectric constant tensor:
#      x y z
#    x 2.249600 0.000000 -0.131250 
#    y 0.000000 2.406740 0.000000 
#    z -0.131250 0.000000 2.224490 
# 
# From -- ./inp_files/188349.got.cif
#   From: 2010.05.17/outbox.cif.g08.bks.cpg/sg15_95_cif.got.tgz:188349.got - 2010.06.03 18:47:42.
