data_PCOD9258022
_publ_section_title
;
Structure prediction by ZEFSAII (Michael W. Deem and Ramdas Pophale) SiO2 
 PCOD9258022
Probable space group: C 2/C
;
_chemical_formula_sum "Si O2"
_cell_formula_units_Z 52
_cell_length_a 20.847466
_cell_length_b 8.235694
_cell_length_c 19.893031
_cell_angle_alpha 90.000000
_cell_angle_beta 42.692029
_cell_angle_gamma 90.000000
_cell_volume 2315.905902
_symmetry_space_group_name_H-M "C 2/C"
_symmetry_group_IT_number 15
_symmetry_cell_setting 'monoclinic'
loop_
_space_group_symop_operation_xyz
x,y,z
-x,y,1/2-z
-x,-y,-z
x,-y,1/2+z
1/2+x,1/2+y,z
1/2-x,1/2+y,1/2-z
1/2-x,1/2-y,-z
1/2+x,1/2-y,1/2+z
loop_
_atom_site_type_symbol
_atom_site_label
_atom_site_fract_x
_atom_site_fract_y
_atom_site_fract_z
Si Si1 0.332197 0.954240 0.139214
Si Si2 0.289193 0.196691 0.067046
Si Si3 0.883367 0.033999 0.649935
Si Si4 0.000000 0.191226 0.250000
Si Si5 0.103645 0.691221 0.784360
Si Si6 0.167930 0.020630 0.064565
Si Si7 0.410637 0.653097 0.995999
O O1 0.221135 0.917792 0.242869
O O2 0.385641 0.948446 0.169135
O O3 0.339338 0.121597 0.093200
O O4 0.374747 0.815399 0.059201
O O5 0.197526 0.291031 0.166914
O O6 0.259067 0.045241 0.041491
O O7 0.335324 0.325086 0.982820
O O8 0.975125 0.141236 0.597275
O O9 0.902619 0.859254 0.669700
O O10 0.883544 0.991059 0.570336
O O11 0.017562 0.307321 0.299607
O O12 0.085327 0.064798 0.179455
O O13 0.141662 0.875390 0.035057
#
# Coordination Sequence:
#
# PCOD9258022 Si02
#       7
#     8   8   8   4   8   8   8
#     4  10  20  35  57  86 123 144 185 251 298 331
#     4   9  20  35  56  82 119 148 186 237 294 345
#     4   9  18  34  56  85 117 149 200 230 287 357
#     4  10  18  32  58  80 106 146 202 232 270 348
#     4   9  17  33  56  83 110 149 189 240 278 344
#     4  10  19  35  59  83 108 153 199 234 279 354
#     4  10  19  33  62  83 111 156 198 239 283 347
#
# _framework density 22.453416000000001
#
# number of rings (size 3 to 8) (size 9 to 14) (size 15 to 20)
#    0.000    2.462    1.538    0.923    0.000    0.615 
#    0.000    0.769   16.923    0.000    0.000    0.000 
#    0.000    0.000    0.000    0.000    0.000    0.000 
#
# Total GULP energy -144980.227001 kJ/mol
# GULP energy per Si atom -5576.162577 kJ/mol
# Density = 2.240231 g / cm^3
# Si number density = 22.453416 Si / 1000 Ang^3
#
#
#
# Elastic Constant Matrix: (Units=GPa)
#
#
# Indices 1 2 3 4 5 6 
#
# 1 70.0666 -6.1935 -6.0657 0.0004 26.1736 -0.0005
# 2 -6.1935 19.3889 3.7759 0.0005 -8.9651 -0.0003
# 3 -6.0657 3.7759 44.1694 0.0002 -2.1693 -0.0002
# 4 0.0004 0.0005 0.0002 22.7580 -0.0001 7.5742
# 5 26.1736 -8.9651 -2.1693 -0.0001 35.2402 0.0000
# 6 -0.0005 -0.0003 -0.0002 7.5742 0.0000 30.4716
#
#
#
# Elastic Compliance Matrix: (Units=1/GPa)
#
#
# Indices 1 2 3 4 5 6 
#
# 1 0.019944 -0.000935 0.002086 -0.000001 -0.014923 0.000000
# 2 -0.000935 0.059313 -0.004437 -0.000001 0.015511 0.000001
# 3 0.002086 -0.004437 0.023245 0.000000 -0.001247 0.000000
# 4 -0.000001 -0.000001 0.000000 0.047903 0.000000 -0.011907
# 5 -0.014923 0.015511 -0.001247 0.000000 0.043329 0.000000
# 6 0.000000 0.000001 0.000000 -0.011907 0.000000 0.035777
#
#
# Mechanical properties :
#
#
# Convention : Reuss Voigt Hill
#
# Bulk Modulus (GPa) = 10.42435 12.96205 11.69320
# Shear Modulus (GPa) = 18.65244 27.16784 22.91014
#
# Velocity S-wave (km/s) = 2.88534 3.48223 3.19774
# Velocity P-wave (km/s) = 3.96901 4.68543 4.34202
#
# Compressibility (1/GPa) = 0.09592926
#
# Stress axis : x y z
#
# Youngs Moduli (GPa) = 50.13923 16.85967 43.02067
#
# Poissons Ratio (x) = 0.01577 -0.08974
# Poissons Ratio (y) = 0.04689 0.19089
# Poissons Ratio (z) = -0.10459 0.07481
#
# Static dielectric constant tensor:
#      x y z
#    x 1.899000 0.000000 -0.009980 
#    y 0.000000 1.830560 0.000000 
#    z -0.009980 0.000000 1.887050 
# 
# From -- ./inp_files/256970.got.cif
#   From: 2010.05.17/outbox.cif.g08.bks.cpg/sg15_129_cif.got.tgz:256970.got - 2010.06.03 18:47:42.
