data_PCOD9258746
_publ_section_title
;
Structure prediction by ZEFSAII (Michael W. Deem and Ramdas Pophale) SiO2 
 PCOD9258746
Probable space group: C 2/C
;
_chemical_formula_sum "Si O2"
_cell_formula_units_Z 44
_cell_length_a 31.742778
_cell_length_b 17.474031
_cell_length_c 14.447999
_cell_angle_alpha 90.000000
_cell_angle_beta 163.718642
_cell_angle_gamma 90.000000
_cell_volume 2246.741591
_symmetry_space_group_name_H-M "C 2/C"
_symmetry_group_IT_number 15
_symmetry_cell_setting 'monoclinic'
loop_
_space_group_symop_operation_xyz
x,y,z
-x,y,1/2-z
-x,-y,-z
x,-y,1/2+z
1/2+x,1/2+y,z
1/2-x,1/2+y,1/2-z
1/2-x,1/2-y,-z
1/2+x,1/2-y,1/2+z
loop_
_atom_site_type_symbol
_atom_site_label
_atom_site_fract_x
_atom_site_fract_y
_atom_site_fract_z
Si Si1 0.000000 0.402306 0.250000
Si Si2 0.903429 0.775724 0.695139
Si Si3 0.624929 0.998839 0.343618
Si Si4 0.050982 0.344210 0.751166
Si Si5 0.693967 0.239783 0.209923
Si Si6 0.261859 0.861402 0.009389
O O1 0.949621 0.454444 0.228069
O O2 0.138561 0.345991 0.569027
O O3 0.843188 0.787214 0.463358
O O4 0.874091 0.838715 0.710858
O O5 0.807510 0.702719 0.530041
O O6 0.079002 0.760771 0.049323
O O7 0.750815 0.943050 0.566806
O O8 0.657467 0.084663 0.445676
O O9 0.500000 0.000000 0.000000
O O10 0.000000 0.348916 0.750000
O O11 0.904087 0.355516 0.378965
O O12 0.136950 0.264728 0.913386
#
# Coordination Sequence:
#
# PCOD9258746 Si02
#       6
#     4   8   8   8   8   8
#     4  10  18  38  58  80 114 154 188 220 280 348
#     4   9  18  32  56  77 104 144 183 218 277 334
#     4  10  20  34  54  84 112 148 188 229 277 334
#     4  11  21  32  53  86 111 136 184 241 274 317
#     4  10  19  34  53  84 107 143 182 232 277 328
#     4  10  18  34  54  80 106 142 182 227 271 336
#
# _framework density 19.583917
#
# number of rings (size 3 to 8) (size 9 to 14) (size 15 to 20)
#    0.000    2.182    6.364    0.000    0.000    0.727 
#    0.000    0.909    0.000    0.000   44.909    0.000 
#    0.000    0.000    0.000    0.000    0.000    0.000 
#
# Total GULP energy -122488.609822 kJ/mol
# GULP energy per Si atom -5567.664083 kJ/mol
# Density = 1.953934 g / cm^3
# Si number density = 19.583917 Si / 1000 Ang^3
#
#
#
# Elastic Constant Matrix: (Units=GPa)
#
#
# Indices 1 2 3 4 5 6 
#
# 1 115.7872 18.3822 15.0794 0.0000 16.6674 0.0000
# 2 18.3822 59.9656 1.0771 0.0000 0.4232 0.0000
# 3 15.0794 1.0771 21.3553 0.0000 -0.0725 0.0000
# 4 0.0000 0.0000 0.0000 14.7503 0.0000 4.8125
# 5 16.6674 0.4232 -0.0725 0.0000 19.1623 0.0000
# 6 0.0000 0.0000 0.0000 4.8125 0.0000 19.4632
#
#
#
# Elastic Compliance Matrix: (Units=1/GPa)
#
#
# Indices 1 2 3 4 5 6 
#
# 1 0.011684 -0.003365 -0.008115 0.000000 -0.010119 0.000000
# 2 -0.003365 0.017663 0.001494 0.000000 0.002542 0.000000
# 3 -0.008115 0.001494 0.052506 0.000000 0.007224 0.000000
# 4 0.000000 0.000000 0.000000 0.073744 0.000000 -0.018234
# 5 -0.010119 0.002542 0.007224 0.000000 0.060959 0.000000
# 6 0.000000 0.000000 0.000000 -0.018234 0.000000 0.055888
#
#
# Mechanical properties :
#
#
# Convention : Reuss Voigt Hill
#
# Bulk Modulus (GPa) = 16.16006 29.57619 22.86812
# Shear Modulus (GPa) = 15.97224 21.51312 18.74268
#
# Velocity S-wave (km/s) = 2.85893 3.31797 3.09697
# Velocity P-wave (km/s) = 4.37808 5.46019 4.94880
#
# Compressibility (1/GPa) = 0.06188096
#
# Stress axis : x y z
#
# Youngs Moduli (GPa) = 85.58547 56.61600 19.04539
#
# Poissons Ratio (x) = 0.19049 0.15456
# Poissons Ratio (y) = 0.28796 -0.02845
# Poissons Ratio (z) = 0.69454 -0.08456
#
# Static dielectric constant tensor:
#      x y z
#    x 1.690760 0.000000 -0.014040 
#    y 0.000000 1.750060 0.000000 
#    z -0.014040 0.000000 1.729530 
# 
# From -- ./inp_files/182779.got.cif
#   From: 2010.05.17/outbox.cif.g08.bks.cpg/sg15_92_cif.got.tgz:182779.got - 2010.06.03 18:47:42.
