data_PCOD9258163
_publ_section_title
;
Structure prediction by ZEFSAII (Michael W. Deem and Ramdas Pophale) SiO2 
 PCOD9258163
Probable space group: C 2/C
;
_chemical_formula_sum "Si O2"
_cell_formula_units_Z 44
_cell_length_a 18.616281
_cell_length_b 13.800378
_cell_length_c 9.626371
_cell_angle_alpha 90.000000
_cell_angle_beta 132.891371
_cell_angle_gamma 90.000000
_cell_volume 1811.925497
_symmetry_space_group_name_H-M "C 2/C"
_symmetry_group_IT_number 15
_symmetry_cell_setting 'monoclinic'
loop_
_space_group_symop_operation_xyz
x,y,z
-x,y,1/2-z
-x,-y,-z
x,-y,1/2+z
1/2+x,1/2+y,z
1/2-x,1/2+y,1/2-z
1/2-x,1/2-y,-z
1/2+x,1/2-y,1/2+z
loop_
_atom_site_type_symbol
_atom_site_label
_atom_site_fract_x
_atom_site_fract_y
_atom_site_fract_z
Si Si1 0.672797 0.663013 0.414012
Si Si2 0.602993 0.746221 0.591539
Si Si3 0.534838 0.392875 0.494174
Si Si4 0.500000 0.896632 0.250000
Si Si5 0.302049 0.997421 0.457916
Si Si6 0.737687 0.604178 0.110936
O O1 0.750000 0.750000 0.500000
O O2 0.629590 0.667471 0.509295
O O3 0.585718 0.663141 0.189830
O O4 0.727675 0.567944 0.439652
O O5 0.551826 0.684861 0.645842
O O6 0.534904 0.827669 0.423584
O O7 0.703822 0.802045 0.757084
O O8 0.500000 0.500000 0.500000
O O9 0.622537 0.401495 0.497566
O O10 0.591927 0.967353 0.353435
O O11 0.285240 0.018984 0.273885
O O12 0.270359 0.900304 0.492978
#
# Coordination Sequence:
#
# PCOD9258163 Si02
#       6
#     8   8   8   4   8   8
#     4  11  17  36  61  91 125 166 220 274 318 391
#     4  11  19  34  60  93 123 165 222 271 324 397
#     4  11  21  35  60  98 127 164 217 281 329 385
#     4  10  18  32  62  96 118 168 224 258 324 398
#     4  10  21  36  60  95 131 163 216 272 329 391
#     4  10  23  39  62 100 127 168 218 275 334 395
#
# _framework density 24.283560000000001
#
# number of rings (size 3 to 8) (size 9 to 14) (size 15 to 20)
#    0.000    1.455    7.273    1.091    0.000    4.364 
#    0.000    0.000    0.000    9.818   33.091    0.000 
#    0.000    0.000    0.000    0.000    0.000    0.000 
#
# Total GULP energy -122740.869928 kJ/mol
# GULP energy per Si atom -5579.130451 kJ/mol
# Density = 2.422829 g / cm^3
# Si number density = 24.283560 Si / 1000 Ang^3
#
#
#
# Elastic Constant Matrix: (Units=GPa)
#
#
# Indices 1 2 3 4 5 6 
#
# 1 102.6540 23.7953 48.8296 0.0000 22.8240 0.0000
# 2 23.7953 52.2976 26.9436 0.0000 1.1856 0.0000
# 3 48.8296 26.9436 66.2021 0.0000 2.9409 0.0000
# 4 0.0000 0.0000 0.0000 11.8531 0.0000 16.5663
# 5 22.8240 1.1856 2.9409 0.0000 47.7335 0.0000
# 6 0.0000 0.0000 0.0000 16.5663 0.0000 46.6515
#
#
#
# Elastic Compliance Matrix: (Units=1/GPa)
#
#
# Indices 1 2 3 4 5 6 
#
# 1 0.017451 -0.001658 -0.011860 0.000000 -0.007572 0.000000
# 2 -0.001658 0.024352 -0.008720 0.000000 0.000725 0.000000
# 3 -0.011860 -0.008720 0.027215 0.000000 0.004211 0.000000
# 4 0.000000 0.000000 0.000000 0.167498 0.000000 -0.059480
# 5 -0.007572 0.000725 0.004211 0.000000 0.024293 0.000000
# 6 0.000000 0.000000 0.000000 -0.059480 0.000000 0.042557
#
#
# Mechanical properties :
#
#
# Convention : Reuss Voigt Hill
#
# Bulk Modulus (GPa) = 40.74839 46.69896 43.72368
# Shear Modulus (GPa) = 14.04398 29.35330 21.69864
#
# Velocity S-wave (km/s) = 2.40746 3.48051 2.99248
# Velocity P-wave (km/s) = 4.95424 5.95184 5.47581
#
# Compressibility (1/GPa) = 0.02454084
#
# Stress axis : x y z
#
# Youngs Moduli (GPa) = 57.30284 41.06447 36.74394
#
# Poissons Ratio (x) = 0.06809 0.43580
# Poissons Ratio (y) = 0.09501 0.32042
# Poissons Ratio (z) = 0.67964 0.35809
#
# Static dielectric constant tensor:
#      x y z
#    x 2.058770 0.000000 -0.034770 
#    y 0.000000 1.979680 0.000000 
#    z -0.034770 0.000000 2.163990 
# 
# From -- ./inp_files/104794.got.cif
#   From: 2010.05.17/outbox.cif.g08.bks.cpg/sg15_53_cif.got.tgz:104794.got - 2010.06.03 18:47:42.
