data_PCOD9258043
_publ_section_title
;
Structure prediction by ZEFSAII (Michael W. Deem and Ramdas Pophale) SiO2 
 PCOD9258043
Probable space group: C 2/C
;
_chemical_formula_sum "Si O2"
_cell_formula_units_Z 64
_cell_length_a 16.712223
_cell_length_b 19.147292
_cell_length_c 15.968585
_cell_angle_alpha 90.000000
_cell_angle_beta 32.261268
_cell_angle_gamma 90.000000
_cell_volume 2727.539126
_symmetry_space_group_name_H-M "C 2/C"
_symmetry_group_IT_number 15
_symmetry_cell_setting 'monoclinic'
loop_
_space_group_symop_operation_xyz
x,y,z
-x,y,1/2-z
-x,-y,-z
x,-y,1/2+z
1/2+x,1/2+y,z
1/2-x,1/2+y,1/2-z
1/2-x,1/2-y,-z
1/2+x,1/2-y,1/2+z
loop_
_atom_site_type_symbol
_atom_site_label
_atom_site_fract_x
_atom_site_fract_y
_atom_site_fract_z
Si Si1 0.685309 0.430270 0.089400
Si Si2 0.869254 0.789115 0.293828
Si Si3 0.695020 0.291404 0.681947
Si Si4 0.176582 0.078734 0.085472
Si Si5 0.545517 0.305132 0.969743
Si Si6 0.377954 0.868918 0.283999
Si Si7 0.996516 0.343261 0.501972
Si Si8 0.193377 0.371979 0.682986
O O1 0.500000 0.430999 0.250000
O O2 0.725011 0.358011 0.099765
O O3 0.731296 0.506950 0.080451
O O4 0.770092 0.421530 0.925831
O O5 0.817144 0.708606 0.340937
O O6 0.000000 0.788443 0.250000
O O7 0.929158 0.806688 0.147994
O O8 0.719512 0.348477 0.589824
O O9 0.546581 0.310170 0.868126
O O10 0.670814 0.212628 0.674521
O O11 0.843826 0.302370 0.606634
O O12 0.000000 0.076750 0.250000
O O13 0.239768 0.083874 0.935668
O O14 0.656934 0.367509 0.894637
O O15 0.601057 0.223737 0.929168
O O16 0.500000 0.879131 0.250000
O O17 0.439714 0.882415 0.135568
O O18 0.943957 0.383364 0.631626
#
# Coordination Sequence:
#
# PCOD9258043 Si02
#       8
#     8   8   8   8   8   8   8   8
#     4  10  20  36  56  81 114 153 191 236 283 345
#     4  10  18  32  58  86 112 145 192 243 294 339
#     4  10  20  35  58  86 116 147 191 240 292 346
#     4  11  24  37  58  84 117 157 201 234 287 347
#     4   9  18  31  55  86 116 143 185 238 295 343
#     4  11  21  37  61  86 115 150 196 248 295 337
#     4   9  20  34  58  87 117 145 190 241 303 341
#     4  10  18  35  59  84 116 149 188 244 297 343
#
# _framework density 23.464375
#
# number of rings (size 3 to 8) (size 9 to 14) (size 15 to 20)
#    0.000    2.000    3.750    1.125    3.500    0.000 
#    0.000    1.875    0.000    0.000    0.000    0.000 
#    0.000    0.000    0.000    0.000    0.000    0.000 
#
# Total GULP energy -178154.523398 kJ/mol
# GULP energy per Si atom -5567.328856 kJ/mol
# Density = 2.341097 g / cm^3
# Si number density = 23.464375 Si / 1000 Ang^3
#
#
#
# Elastic Constant Matrix: (Units=GPa)
#
#
# Indices 1 2 3 4 5 6 
#
# 1 27.3077 8.0035 34.5195 0.0024 6.3340 -0.0008
# 2 8.0035 74.6234 30.1993 0.0023 17.5160 0.0001
# 3 34.5195 30.1993 178.6772 0.0024 40.1915 -0.0002
# 4 0.0024 0.0023 0.0024 -44.8853 -0.0014 4.1581
# 5 6.3340 17.5160 40.1915 -0.0014 40.5206 0.0010
# 6 -0.0008 0.0001 -0.0002 4.1581 0.0010 3.8051
#
#
#
# Elastic Compliance Matrix: (Units=1/GPa)
#
#
# Indices 1 2 3 4 5 6 
#
# 1 0.048860 -0.001971 -0.009757 0.000002 0.002892 0.000006
# 2 -0.001971 0.015262 -0.001009 0.000001 -0.005288 0.000000
# 3 -0.009757 -0.001009 0.009282 0.000000 -0.007245 0.000000
# 4 0.000002 0.000001 0.000000 -0.020231 -0.000002 0.022108
# 5 0.002892 -0.005288 -0.007245 -0.000002 0.033699 -0.000007
# 6 0.000006 0.000000 0.000000 0.022108 -0.000007 0.238649
#
#
# Mechanical properties :
#
#
# Convention : Reuss Voigt Hill
#
# Bulk Modulus (GPa) = 20.86366 47.33918 34.10142
# Shear Modulus (GPa) = 13.62506 13.74715 13.68611
#
# Velocity S-wave (km/s) = 2.41232 2.42311 2.41772
# Velocity P-wave (km/s) = 4.08289 5.29597 4.72849
#
# Compressibility (1/GPa) = 0.04793024
#
# Stress axis : x y z
#
# Youngs Moduli (GPa) = 20.46656 65.52360 107.73577
#
# Poissons Ratio (x) = 0.12912 1.05117
# Poissons Ratio (y) = 0.04033 0.10873
# Poissons Ratio (z) = 0.19969 0.06613
#
# Static dielectric constant tensor:
#      x y z
#    x 2.041070 0.000000 -0.062220 
#    y 0.000000 1.853540 0.000000 
#    z -0.062220 0.000000 2.005370 
# 
# From -- ./inp_files/216168.got.cif
#   From: 2010.05.17/outbox.cif.g08.bks.cpg/sg15_109_cif.got.tgz:216168.got - 2010.06.03 18:47:42.
