data_PCOD9258206
_publ_section_title
;
Structure prediction by ZEFSAII (Michael W. Deem and Ramdas Pophale) SiO2 
 PCOD9258206
Probable space group: C 2/C
;
_chemical_formula_sum "Si O2"
_cell_formula_units_Z 44
_cell_length_a 9.136907
_cell_length_b 28.875480
_cell_length_c 9.933223
_cell_angle_alpha 90.000000
_cell_angle_beta 49.427643
_cell_angle_gamma 90.000000
_cell_volume 1990.650843
_symmetry_space_group_name_H-M "C 2/C"
_symmetry_group_IT_number 15
_symmetry_cell_setting 'monoclinic'
loop_
_space_group_symop_operation_xyz
x,y,z
-x,y,1/2-z
-x,-y,-z
x,-y,1/2+z
1/2+x,1/2+y,z
1/2-x,1/2+y,1/2-z
1/2-x,1/2-y,-z
1/2+x,1/2-y,1/2+z
loop_
_atom_site_type_symbol
_atom_site_label
_atom_site_fract_x
_atom_site_fract_y
_atom_site_fract_z
Si Si1 0.350990 0.318089 0.036389
Si Si2 0.000000 0.753273 0.750000
Si Si3 0.734859 0.923184 0.609899
Si Si4 0.713607 0.105006 0.411173
Si Si5 0.766853 0.529215 0.893576
Si Si6 0.754450 0.108576 0.804809
O O1 0.179436 0.280961 0.144812
O O2 0.346984 0.346935 0.177019
O O3 0.516455 0.286489 0.871543
O O4 0.298869 0.355885 0.954542
O O5 0.500000 0.923977 0.750000
O O6 0.785086 0.895915 0.715468
O O7 0.802071 0.900355 0.431452
O O8 0.799680 0.976606 0.577437
O O9 0.769595 0.055779 0.444735
O O10 0.481257 0.111780 0.557715
O O11 0.703453 0.563288 0.811558
O O12 0.000000 0.526998 0.750000
#
# Coordination Sequence:
#
# PCOD9258206 Si02
#       6
#     8   4   8   8   8   8
#     4  10  18  33  50  72  84 114 145 194 225 274
#     4  10  20  32  56  68  84 106 156 188 234 274
#     4   9  15  21  37  65  99 130 148 177 221 262
#     4   9  15  25  41  65  97 121 150 185 221 260
#     4   8  13  21  35  61  95 130 157 179 209 255
#     4   9  15  25  41  65  97 121 150 185 221 260
#
# _framework density 22.103325000000002
#
# number of rings (size 3 to 8) (size 9 to 14) (size 15 to 20)
#    0.000    2.909    1.818    2.182    0.000    4.364 
#    0.000    0.000    0.000    7.636    0.000   20.364 
#    0.000    0.000    0.000    0.000    0.000    0.000 
#
# Total GULP energy -122927.824809 kJ/mol
# GULP energy per Si atom -5587.628400 kJ/mol
# Density = 2.205302 g / cm^3
# Si number density = 22.103325 Si / 1000 Ang^3
#
#
#
# Elastic Constant Matrix: (Units=GPa)
#
#
# Indices 1 2 3 4 5 6 
#
# 1 56.1123 29.7094 37.0163 0.0000 6.8092 0.0000
# 2 29.7094 143.7347 72.9148 0.0000 19.3711 0.0000
# 3 37.0163 72.9148 155.0435 0.0000 38.9064 0.0000
# 4 0.0000 0.0000 0.0000 -34.4223 0.0000 13.3568
# 5 6.8092 19.3711 38.9064 0.0000 44.4528 0.0000
# 6 0.0000 0.0000 0.0000 13.3568 0.0000 13.1573
#
#
#
# Elastic Compliance Matrix: (Units=1/GPa)
#
#
# Indices 1 2 3 4 5 6 
#
# 1 0.021883 -0.002476 -0.004472 0.000000 0.001641 0.000000
# 2 -0.002476 0.009420 -0.003721 0.000000 -0.000469 0.000000
# 3 -0.004472 -0.003721 0.011134 0.000000 -0.007438 0.000000
# 4 0.000000 0.000000 0.000000 -0.020841 0.000000 0.021157
# 5 0.001641 -0.000469 -0.007438 0.000000 0.028959 0.000000
# 6 0.000000 0.000000 0.000000 0.021157 0.000000 0.054525
#
#
# Mechanical properties :
#
#
# Convention : Reuss Voigt Hill
#
# Bulk Modulus (GPa) = 47.39552 70.46349 58.92951
# Shear Modulus (GPa) = 37.46677 18.98756 28.22717
#
# Velocity S-wave (km/s) = 4.12159 2.93411 3.57747
# Velocity P-wave (km/s) = 6.64374 6.58992 6.61689
#
# Compressibility (1/GPa) = 0.02109904
#
# Stress axis : x y z
#
# Youngs Moduli (GPa) = 45.69716 106.15760 89.81366
#
# Poissons Ratio (x) = 0.26282 0.40165
# Poissons Ratio (y) = 0.11313 0.33423
# Poissons Ratio (z) = 0.20436 0.39506
#
# Static dielectric constant tensor:
#      x y z
#    x 1.843880 0.000000 -0.050600 
#    y 0.000000 1.762920 0.000000 
#    z -0.050600 0.000000 1.862860 
# 
# From -- ./inp_files/34881.got.cif
#   From: 2010.05.17/outbox.cif.g08.bks.cpg/sg15_18_cif.got.tgz:34881.got - 2010.06.03 18:47:42.
