data_PCOD9258510
_publ_section_title
;
Structure prediction by ZEFSAII (Michael W. Deem and Ramdas Pophale) SiO2 
 PCOD9258510
Probable space group: C 2/C
;
_chemical_formula_sum "Si O2"
_cell_formula_units_Z 48
_cell_length_a 17.735693
_cell_length_b 12.120974
_cell_length_c 11.014971
_cell_angle_alpha 90.000000
_cell_angle_beta 108.864429
_cell_angle_gamma 90.000000
_cell_volume 2240.740590
_symmetry_space_group_name_H-M "C 2/C"
_symmetry_group_IT_number 15
_symmetry_cell_setting 'monoclinic'
loop_
_space_group_symop_operation_xyz
x,y,z
-x,y,1/2-z
-x,-y,-z
x,-y,1/2+z
1/2+x,1/2+y,z
1/2-x,1/2+y,1/2-z
1/2-x,1/2-y,-z
1/2+x,1/2-y,1/2+z
loop_
_atom_site_type_symbol
_atom_site_label
_atom_site_fract_x
_atom_site_fract_y
_atom_site_fract_z
Si Si1 0.193688 0.637803 0.640742
Si Si2 0.033429 0.444742 0.140260
Si Si3 0.279645 0.936584 0.980252
Si Si4 0.917207 0.746523 0.574428
Si Si5 0.654402 0.410324 0.131994
Si Si6 0.150408 0.861681 0.727182
O O1 0.128788 0.568467 0.687383
O O2 0.191849 0.562757 0.519469
O O3 0.284540 0.634055 0.734655
O O4 0.166008 0.763722 0.639658
O O5 0.000000 0.492805 0.250000
O O6 0.997551 0.321800 0.115588
O O7 0.000000 0.500000 0.000000
O O8 0.234489 0.897502 0.833715
O O9 0.348385 0.847579 0.037466
O O10 0.214528 0.930262 0.051081
O O11 0.906952 0.821357 0.450463
O O12 0.900672 0.818182 0.685560
O O13 0.617584 0.526191 0.152948
#
# Coordination Sequence:
#
# PCOD9258510 Si02
#       6
#     8   8   8   8   8   8
#     4  11  20  34  58  92 119 157 210 256 321 379
#     4  12  24  39  67  96 127 172 209 264 325 387
#     4  10  18  33  58  85 119 152 199 263 310 372
#     4  11  19  39  60  87 123 165 213 260 320 382
#     4  10  20  35  59  89 119 163 210 257 309 376
#     4  10  19  33  58  83 119 161 204 250 313 376
#
# _framework density 21.421489999999999
#
# number of rings (size 3 to 8) (size 9 to 14) (size 15 to 20)
#    0.000    1.333    6.667    1.000    0.000    0.667 
#    0.000    0.833   11.000    0.000    0.000    0.000 
#    0.000    0.000    0.000    0.000    0.000    0.000 
#
# Total GULP energy -133899.548252 kJ/mol
# GULP energy per Si atom -5579.147844 kJ/mol
# Density = 2.137273 g / cm^3
# Si number density = 21.421490 Si / 1000 Ang^3
#
#
#
# Elastic Constant Matrix: (Units=GPa)
#
#
# Indices 1 2 3 4 5 6 
#
# 1 35.3535 2.2003 -4.9076 0.0000 7.1284 0.0000
# 2 2.2003 99.1594 34.1145 0.0000 9.7247 0.0000
# 3 -4.9076 34.1145 58.7598 0.0000 9.7888 0.0000
# 4 0.0000 0.0000 0.0000 51.9871 0.0000 -5.7936
# 5 7.1284 9.7247 9.7888 0.0000 9.3207 0.0000
# 6 0.0000 0.0000 0.0000 -5.7936 0.0000 28.9941
#
#
#
# Elastic Compliance Matrix: (Units=1/GPa)
#
#
# Indices 1 2 3 4 5 6 
#
# 1 0.037421 -0.000423 0.009775 0.000000 -0.038444 0.000000
# 2 -0.000423 0.012953 -0.006494 0.000000 -0.006370 0.000000
# 3 0.009775 -0.006494 0.026328 0.000000 -0.028351 0.000000
# 4 0.000000 0.000000 0.000000 0.019674 0.000000 0.003931
# 5 -0.038444 -0.006370 -0.028351 0.000000 0.173111 0.000000
# 6 0.000000 0.000000 0.000000 0.003931 0.000000 0.035275
#
#
# Mechanical properties :
#
#
# Convention : Reuss Voigt Hill
#
# Bulk Modulus (GPa) = 12.13331 28.45414 20.29372
# Shear Modulus (GPa) = 15.31302 28.85142 22.08222
#
# Velocity S-wave (km/s) = 2.67656 3.67392 3.21416
# Velocity P-wave (km/s) = 3.90235 5.59542 4.82375
#
# Compressibility (1/GPa) = 0.08241776
#
# Stress axis : x y z
#
# Youngs Moduli (GPa) = 26.72329 77.20071 37.98177
#
# Poissons Ratio (x) = 0.03267 -0.37129
# Poissons Ratio (y) = 0.01131 0.24667
# Poissons Ratio (z) = -0.26123 0.50138
#
# Static dielectric constant tensor:
#      x y z
#    x 1.798840 0.000000 0.030140 
#    y 0.000000 1.808500 0.000000 
#    z 0.030140 0.000000 1.853980 
# 
# From -- ./inp_files/110638.got.cif
#   From: 2010.05.17/outbox.cif.g08.bks.cpg/sg15_56_cif.got.tgz:110638.got - 2010.06.03 18:47:42.
