data_PCOD9258418
_publ_section_title
;
Structure prediction by ZEFSAII (Michael W. Deem and Ramdas Pophale) SiO2 
 PCOD9258418
Probable space group: C 2/C
;
_chemical_formula_sum "Si O2"
_cell_formula_units_Z 60
_cell_length_a 26.863535
_cell_length_b 8.136797
_cell_length_c 27.162566
_cell_angle_alpha 90.000000
_cell_angle_beta 31.139387
_cell_angle_gamma 90.000000
_cell_volume 3070.296455
_symmetry_space_group_name_H-M "C 2/C"
_symmetry_group_IT_number 15
_symmetry_cell_setting 'monoclinic'
loop_
_space_group_symop_operation_xyz
x,y,z
-x,y,1/2-z
-x,-y,-z
x,-y,1/2+z
1/2+x,1/2+y,z
1/2-x,1/2+y,1/2-z
1/2-x,1/2-y,-z
1/2+x,1/2-y,1/2+z
loop_
_atom_site_type_symbol
_atom_site_label
_atom_site_fract_x
_atom_site_fract_y
_atom_site_fract_z
Si Si1 0.824187 0.694098 0.318448
Si Si2 0.860014 0.714568 0.393416
Si Si3 0.021907 0.331658 0.954022
Si Si4 0.000000 0.010568 0.250000
Si Si5 0.464436 0.498037 0.674841
Si Si6 0.108920 0.830220 0.861259
Si Si7 0.393853 0.234428 0.469536
Si Si8 0.799930 0.524741 0.238011
O O1 0.861665 0.625253 0.339373
O O2 0.892870 0.845689 0.244335
O O3 0.716237 0.762404 0.419629
O O4 0.816008 0.563681 0.281832
O O5 0.750000 0.750000 0.500000
O O6 0.913239 0.885990 0.336848
O O7 0.903145 0.647572 0.408101
O O8 0.133814 0.339545 0.846166
O O9 0.961588 0.334326 0.954596
O O10 0.000000 0.500000 0.000000
O O11 0.978563 0.193383 0.026227
O O12 0.974478 0.092115 0.219307
O O13 0.426594 0.394889 0.661210
O O14 0.565948 0.581407 0.573851
O O15 0.159337 0.652713 0.810882
O O16 0.190514 0.946638 0.815058
#
# Coordination Sequence:
#
# PCOD9258418 Si02
#       8
#     8   8   8   4   8   8   8   8
#     4  10  18  34  57  86 112 137 181 232 271 322
#     4   8  16  28  51  83 107 135 176 226 265 312
#     4  10  22  36  52  77 117 144 179 223 274 319
#     4   8  16  32  54  80 108 142 182 222 268 330
#     4  10  20  35  59  83 110 148 187 222 276 326
#     4  11  24  38  57  80 111 150 181 223 279 329
#     4  10  18  33  56  83 108 144 183 222 269 324
#     4  11  22  38  56  82 113 142 185 227 273 327
#
# _framework density 19.542086999999999
#
# number of rings (size 3 to 8) (size 9 to 14) (size 15 to 20)
#    0.000    2.133    2.667    0.800    1.867    1.600 
#    0.000    0.000    5.867    0.000    0.000    6.533 
#    0.000    0.000    0.000    0.000    0.000    0.000 
#
# Total GULP energy -167139.035789 kJ/mol
# GULP energy per Si atom -5571.301193 kJ/mol
# Density = 1.949761 g / cm^3
# Si number density = 19.542087 Si / 1000 Ang^3
#
#
#
# Elastic Constant Matrix: (Units=GPa)
#
#
# Indices 1 2 3 4 5 6 
#
# 1 145.6213 27.0310 15.4619 0.0024 34.1722 -0.0075
# 2 27.0310 36.4104 11.2446 0.0013 5.6960 -0.0097
# 3 15.4619 11.2446 95.6647 -0.0090 1.7942 0.0011
# 4 0.0024 0.0013 -0.0090 16.8915 0.0004 3.4305
# 5 34.1722 5.6960 1.7942 0.0004 32.4723 0.0096
# 6 -0.0075 -0.0097 0.0011 3.4305 0.0096 25.0632
#
#
#
# Elastic Compliance Matrix: (Units=1/GPa)
#
#
# Indices 1 2 3 4 5 6 
#
# 1 0.010350 -0.005903 -0.000795 -0.000002 -0.009812 0.000005
# 2 -0.005903 0.032640 -0.002895 -0.000006 0.000647 0.000012
# 3 -0.000795 -0.002895 0.010908 0.000007 0.000742 -0.000003
# 4 -0.000002 -0.000006 0.000007 0.060894 0.000005 -0.008335
# 5 -0.009812 0.000647 0.000742 0.000005 0.040967 -0.000019
# 6 0.000005 0.000012 -0.000003 -0.008335 -0.000019 0.041040
#
#
# Mechanical properties :
#
#
# Convention : Reuss Voigt Hill
#
# Bulk Modulus (GPa) = 28.80814 42.79683 35.80249
# Shear Modulus (GPa) = 21.97270 29.81601 25.89436
#
# Velocity S-wave (km/s) = 3.35681 3.91030 3.64408
# Velocity P-wave (km/s) = 5.45874 6.50651 6.00552
#
# Compressibility (1/GPa) = 0.03471241
#
# Stress axis : x y z
#
# Youngs Moduli (GPa) = 96.61903 30.63726 91.67601
#
# Poissons Ratio (x) = 0.18086 0.07287
# Poissons Ratio (y) = 0.57037 0.26536
# Poissons Ratio (z) = 0.07680 0.08868
#
# Static dielectric constant tensor:
#      x y z
#    x 1.745540 -0.000010 0.024460 
#    y -0.000010 1.676610 0.000000 
#    z 0.024460 0.000000 1.733880 
# 
# From -- ./inp_files/176216.got.cif
#   From: 2010.05.17/outbox.cif.g08.bks.cpg/sg15_89_cif.got.tgz:176216.got - 2010.06.03 18:47:42.
