data_PCOD9258287
_publ_section_title
;
Structure prediction by ZEFSAII (Michael W. Deem and Ramdas Pophale) SiO2 
 PCOD9258287
Probable space group: C 2/C
;
_chemical_formula_sum "Si O2"
_cell_formula_units_Z 60
_cell_length_a 9.090732
_cell_length_b 16.638281
_cell_length_c 19.116637
_cell_angle_alpha 90.000000
_cell_angle_beta 77.900756
_cell_angle_gamma 90.000000
_cell_volume 2827.239624
_symmetry_space_group_name_H-M "C 2/C"
_symmetry_group_IT_number 15
_symmetry_cell_setting 'monoclinic'
loop_
_space_group_symop_operation_xyz
x,y,z
-x,y,1/2-z
-x,-y,-z
x,-y,1/2+z
1/2+x,1/2+y,z
1/2-x,1/2+y,1/2-z
1/2-x,1/2-y,-z
1/2+x,1/2-y,1/2+z
loop_
_atom_site_type_symbol
_atom_site_label
_atom_site_fract_x
_atom_site_fract_y
_atom_site_fract_z
Si Si1 0.808970 0.102208 0.629401
Si Si2 0.500000 0.122672 0.250000
Si Si3 0.658188 0.421060 0.099126
Si Si4 0.606321 0.775995 0.451547
Si Si5 0.845491 0.503408 0.970537
Si Si6 0.320087 0.969841 0.219425
Si Si7 0.456302 0.187951 0.826001
Si Si8 0.127198 0.665151 0.095705
O O1 0.761845 0.046095 0.699032
O O2 0.723797 0.182639 0.659603
O O3 0.986246 0.102858 0.605743
O O4 0.713426 0.076087 0.570575
O O5 0.571288 0.176605 0.180504
O O6 0.390404 0.058446 0.221074
O O7 0.769883 0.345815 0.076078
O O8 0.700123 0.457896 0.169895
O O9 0.710892 0.484539 0.036512
O O10 0.497498 0.777559 0.396771
O O11 0.703813 0.695961 0.434961
O O12 0.544755 0.795059 0.535640
O O13 0.869499 0.429746 0.915756
O O14 0.000000 0.500000 0.000000
O O15 0.447312 0.898819 0.190137
O O16 0.500000 0.231998 0.750000
#
# Coordination Sequence:
#
# PCOD9258287 Si02
#       8
#     8   4   8   8   8   8   8   8
#     4  11  18  32  53  83 115 141 181 248 289 338
#     4  12  18  34  58  88 108 154 204 242 298 360
#     4  10  21  32  54  85 112 146 188 235 293 347
#     4   9  20  39  56  82 112 157 197 236 296 352
#     4  11  20  35  58  83 110 152 194 231 291 356
#     4  10  18  33  53  82 114 145 185 242 296 345
#     4   9  17  33  59  80 108 148 195 237 283 351
#     4  10  20  35  59  81 117 148 197 250 285 347
#
# _framework density 21.222114000000001
#
# number of rings (size 3 to 8) (size 9 to 14) (size 15 to 20)
#    0.000    1.867    3.333    4.000    0.000    0.000 
#    7.200    0.000    2.933   14.400    0.000    0.000 
#    0.000    0.000    0.000    0.000    0.000    0.000 
#
# Total GULP energy -167008.713802 kJ/mol
# GULP energy per Si atom -5566.957127 kJ/mol
# Density = 2.117381 g / cm^3
# Si number density = 21.222114 Si / 1000 Ang^3
#
#
#
# Elastic Constant Matrix: (Units=GPa)
#
#
# Indices 1 2 3 4 5 6 
#
# 1 88.1090 -4.8493 45.0614 0.0000 12.6907 0.0000
# 2 -4.8493 14.5867 7.9855 0.0000 2.8059 0.0000
# 3 45.0614 7.9855 132.1497 0.0000 20.5412 0.0000
# 4 0.0000 0.0000 0.0000 13.5970 0.0000 5.3342
# 5 12.6907 2.8059 20.5412 0.0000 28.8242 0.0000
# 6 0.0000 0.0000 0.0000 5.3342 0.0000 13.6517
#
#
#
# Elastic Compliance Matrix: (Units=1/GPa)
#
#
# Indices 1 2 3 4 5 6 
#
# 1 0.014924 0.008437 -0.005004 0.000000 -0.003826 0.000000
# 2 0.008437 0.076154 -0.006465 0.000000 -0.006521 0.000000
# 3 -0.005004 -0.006465 0.010373 0.000000 -0.004560 0.000000
# 4 0.000000 0.000000 0.000000 0.086860 0.000000 -0.033939
# 5 -0.003826 -0.006521 -0.004560 0.000000 0.040262 0.000000
# 6 0.000000 0.000000 0.000000 -0.033939 0.000000 0.086512
#
#
# Mechanical properties :
#
#
# Convention : Reuss Voigt Hill
#
# Bulk Modulus (GPa) = 10.48365 36.80453 23.64409
# Shear Modulus (GPa) = 14.16652 23.65778 18.91215
#
# Velocity S-wave (km/s) = 2.58647 3.34244 2.98846
# Velocity P-wave (km/s) = 3.72431 5.68120 4.80346
#
# Compressibility (1/GPa) = 0.09538663
#
# Stress axis : x y z
#
# Youngs Moduli (GPa) = 67.00511 13.13128 96.40489
#
# Poissons Ratio (x) = -0.11079 0.48242
# Poissons Ratio (y) = -0.56532 0.62327
# Poissons Ratio (z) = 0.33530 0.08490
#
# Static dielectric constant tensor:
#      x y z
#    x 1.796650 0.000000 0.025090 
#    y 0.000000 1.836560 0.000000 
#    z 0.025090 0.000000 1.843170 
# 
# From -- ./inp_files/192076.got.cif
#   From: 2010.05.17/outbox.cif.g08.bks.cpg/sg15_97_cif.got.tgz:192076.got - 2010.06.03 18:47:42.
