data_PCOD9258724
_publ_section_title
;
Structure prediction by ZEFSAII (Michael W. Deem and Ramdas Pophale) SiO2 
 PCOD9258724
Probable space group: C 2/C
;
_chemical_formula_sum "Si O2"
_cell_formula_units_Z 56
_cell_length_a 21.165876
_cell_length_b 14.946935
_cell_length_c 12.029894
_cell_angle_alpha 90.000000
_cell_angle_beta 38.435732
_cell_angle_gamma 90.000000
_cell_volume 2365.846877
_symmetry_space_group_name_H-M "C 2/C"
_symmetry_group_IT_number 15
_symmetry_cell_setting 'monoclinic'
loop_
_space_group_symop_operation_xyz
x,y,z
-x,y,1/2-z
-x,-y,-z
x,-y,1/2+z
1/2+x,1/2+y,z
1/2-x,1/2+y,1/2-z
1/2-x,1/2-y,-z
1/2+x,1/2-y,1/2+z
loop_
_atom_site_type_symbol
_atom_site_label
_atom_site_fract_x
_atom_site_fract_y
_atom_site_fract_z
Si Si1 0.890820 0.889914 0.893248
Si Si2 0.792785 0.626832 0.731741
Si Si3 0.295893 0.867757 0.984232
Si Si4 0.414634 0.188733 0.953351
Si Si5 0.880059 0.170283 0.926546
Si Si6 0.976465 0.407261 0.590250
Si Si7 0.309492 0.325685 0.774462
O O1 0.906008 0.795992 0.942822
O O2 0.868781 0.864596 0.796279
O O3 0.000000 0.937906 0.750000
O O4 0.786860 0.930264 0.086589
O O5 0.745679 0.622738 0.674142
O O6 0.802185 0.717610 0.791533
O O7 0.909733 0.616927 0.532708
O O8 0.346964 0.768597 0.925693
O O9 0.392235 0.919882 0.800569
O O10 0.202506 0.884422 0.029475
O O11 0.500000 0.156298 0.750000
O O12 0.438459 0.162684 0.047744
O O13 0.307569 0.144384 0.069108
O O14 0.000000 0.158097 0.750000
O O15 0.856353 0.159365 0.089209
O O16 0.000000 0.500000 0.500000
#
# Coordination Sequence:
#
# PCOD9258724 Si02
#       7
#     8   8   8   8   8   8   8
#     4  10  20  32  56  88 119 149 190 250 308 371
#     4  10  20  35  55  81 116 155 195 252 304 350
#     4  10  21  37  54  87 119 155 202 246 310 368
#     4  10  19  33  53  81 113 151 195 240 303 354
#     4  10  20  32  60  86 121 157 189 253 314 368
#     4  12  24  39  57  82 122 163 207 247 296 386
#     4  10  18  34  53  84 121 146 193 249 303 373
#
# _framework density 23.670169999999999
#
# number of rings (size 3 to 8) (size 9 to 14) (size 15 to 20)
#    0.000    1.714    1.429    6.429    4.000    1.143 
#    0.000    0.000    0.000    0.857    0.000    3.000 
#    0.000    0.000    0.000    0.000    0.000    0.000 
#
# Total GULP energy -156075.048454 kJ/mol
# GULP energy per Si atom -5574.108873 kJ/mol
# Density = 2.361630 g / cm^3
# Si number density = 23.670170 Si / 1000 Ang^3
#
#
#
# Elastic Constant Matrix: (Units=GPa)
#
#
# Indices 1 2 3 4 5 6 
#
# 1 -0.9615 66.5716 76.5653 0.0000 -72.1338 0.0000
# 2 66.5716 12.8745 1.7026 0.0000 33.2954 0.0000
# 3 76.5653 1.7026 181.2727 0.0000 -29.4506 0.0000
# 4 0.0000 0.0000 0.0000 9.1147 0.0000 8.3588
# 5 -72.1338 33.2954 -29.4506 0.0000 17.7441 0.0000
# 6 0.0000 0.0000 0.0000 8.3588 0.0000 -10.9298
#
#
#
# Elastic Compliance Matrix: (Units=1/GPa)
#
#
# Indices 1 2 3 4 5 6 
#
# 1 0.002876 0.008556 -0.002744 0.000000 -0.008918 0.000000
# 2 0.008556 0.011962 -0.002358 0.000000 0.008423 0.000000
# 3 -0.002744 -0.002358 0.007673 0.000000 0.006005 0.000000
# 4 0.000000 0.000000 0.000000 0.064486 0.000000 0.049317
# 5 -0.008918 0.008423 0.006005 0.000000 0.014267 0.000000
# 6 0.000000 0.000000 0.000000 0.049317 0.000000 -0.053777
#
#
# Mechanical properties :
#
#
# Convention : Reuss Voigt Hill
#
# Bulk Modulus (GPa) = 33.99130 53.65163 43.82147
# Shear Modulus (GPa) = 99.23622 6.40886 52.82254
#
# Velocity S-wave (km/s) = 6.48194 1.64725 4.72911
# Velocity P-wave (km/s) = 8.39121 5.13162 6.95507
#
# Compressibility (1/GPa) = 0.02941929
#
# Stress axis : x y z
#
# Youngs Moduli (GPa) = 347.73700 83.59976 130.32206
#
# Poissons Ratio (x) = -0.71526 0.35758
# Poissons Ratio (y) = -2.97516 0.30726
# Poissons Ratio (z) = 0.95414 0.19710
#
# Static dielectric constant tensor:
#      x y z
#    x 1.899830 0.000000 -0.008300 
#    y 0.000000 2.009650 0.000000 
#    z -0.008300 0.000000 1.885340 
# 
# From -- ./inp_files/114047.got.cif
#   From: 2010.05.17/outbox.cif.g08.bks.cpg/sg15_58_cif.got.tgz:114047.got - 2010.06.03 18:47:42.
