data_PCOD9258929
_publ_section_title
;
Structure prediction by ZEFSAII (Michael W. Deem and Ramdas Pophale) SiO2 
 PCOD9258929
Probable space group: C 2/C
;
_chemical_formula_sum "Si O2"
_cell_formula_units_Z 40
_cell_length_a 8.422826
_cell_length_b 15.531593
_cell_length_c 12.196711
_cell_angle_alpha 90.000000
_cell_angle_beta 91.787536
_cell_angle_gamma 90.000000
_cell_volume 1594.796125
_symmetry_space_group_name_H-M "C 2/C"
_symmetry_group_IT_number 15
_symmetry_cell_setting 'monoclinic'
loop_
_space_group_symop_operation_xyz
x,y,z
-x,y,1/2-z
-x,-y,-z
x,-y,1/2+z
1/2+x,1/2+y,z
1/2-x,1/2+y,1/2-z
1/2-x,1/2-y,-z
1/2+x,1/2-y,1/2+z
loop_
_atom_site_type_symbol
_atom_site_label
_atom_site_fract_x
_atom_site_fract_y
_atom_site_fract_z
Si Si1 0.659725 0.229518 0.181749
Si Si2 0.964376 0.099658 0.875589
Si Si3 0.485264 0.900071 0.964811
Si Si4 0.371131 0.244269 0.894485
Si Si5 0.673754 0.419858 0.570019
O O1 0.500000 0.223130 0.250000
O O2 0.621476 0.310323 0.101067
O O3 0.656697 0.141144 0.110446
O O4 0.789143 0.261295 0.273526
O O5 0.000000 0.099086 0.750000
O O6 0.861302 0.016338 0.898630
O O7 0.131070 0.085659 0.940825
O O8 0.648046 0.895733 0.896816
O O9 0.516543 0.834233 0.067306
O O10 0.500000 0.000000 0.000000
O O11 0.436990 0.342521 0.888604
O O12 0.250000 0.250000 0.000000
#
# Coordination Sequence:
#
# PCOD9258929 Si02
#       5
#     8   8   8   8   8
#     4  11  18  34  61  84 111 158 201 241 298 355
#     4  10  20  35  62  86 112 155 198 240 299 356
#     4  11  22  38  60  89 122 159 199 250 301 358
#     4  10  18  34  57  83 116 151 195 241 286 357
#     4  10  20  37  59  85 119 147 196 250 287 351
#
# _framework density 25.081575999999998
#
# number of rings (size 3 to 8) (size 9 to 14) (size 15 to 20)
#    0.000    1.600    6.000    3.600    0.000    3.200 
#    0.000    1.000    4.400    0.000    0.000    0.000 
#    0.000    0.000    0.000    0.000    0.000    0.000 
#
# Total GULP energy -111385.028864 kJ/mol
# GULP energy per Si atom -5569.251443 kJ/mol
# Density = 2.502449 g / cm^3
# Si number density = 25.081576 Si / 1000 Ang^3
#
#
#
# Elastic Constant Matrix: (Units=GPa)
#
#
# Indices 1 2 3 4 5 6 
#
# 1 45.7281 3.9465 25.5587 0.0000 13.6101 0.0000
# 2 3.9465 231.4087 59.7720 0.0000 14.1269 0.0000
# 3 25.5587 59.7720 117.0554 0.0000 27.0664 0.0000
# 4 0.0000 0.0000 0.0000 39.5682 0.0000 -2.5925
# 5 13.6101 14.1269 27.0664 0.0000 27.3249 0.0000
# 6 0.0000 0.0000 0.0000 -2.5925 0.0000 43.4143
#
#
#
# Elastic Compliance Matrix: (Units=1/GPa)
#
#
# Indices 1 2 3 4 5 6 
#
# 1 0.027093 0.001243 -0.004256 0.000000 -0.009921 0.000000
# 2 0.001243 0.005035 -0.002720 0.000000 -0.000527 0.000000
# 3 -0.004256 -0.002720 0.013031 0.000000 -0.009381 0.000000
# 4 0.000000 0.000000 0.000000 0.025372 0.000000 0.001515
# 5 -0.009921 -0.000527 -0.009381 0.000000 0.051103 0.000000
# 6 0.000000 0.000000 0.000000 0.001515 0.000000 0.023124
#
#
# Mechanical properties :
#
#
# Convention : Reuss Voigt Hill
#
# Bulk Modulus (GPa) = 29.68155 63.63850 46.66002
# Shear Modulus (GPa) = 29.85857 42.38914 36.12385
#
# Velocity S-wave (km/s) = 3.45404 4.11548 3.79919
# Velocity P-wave (km/s) = 5.26943 6.92897 6.15539
#
# Compressibility (1/GPa) = 0.03369097
#
# Stress axis : x y z
#
# Youngs Moduli (GPa) = 36.90997 198.60762 76.74248
#
# Poissons Ratio (x) = -0.24687 0.32664
# Poissons Ratio (y) = -0.04588 0.20878
# Poissons Ratio (z) = 0.15710 0.54031
#
# Static dielectric constant tensor:
#      x y z
#    x 2.173060 0.000000 -0.010980 
#    y 0.000000 2.139170 0.000000 
#    z -0.010980 0.000000 2.018830 
# 
# From -- ./inp_files/85723.got.cif
#   From: 2010.05.17/outbox.cif.g08.bks.cpg/sg15_43_cif.got.tgz:85723.got - 2010.06.03 18:47:42.
