data_PCOD9258825
_publ_section_title
;
Structure prediction by ZEFSAII (Michael W. Deem and Ramdas Pophale) SiO2 
 PCOD9258825
Probable space group: C 2/C
;
_chemical_formula_sum "Si O2"
_cell_formula_units_Z 52
_cell_length_a 14.333985
_cell_length_b 8.232207
_cell_length_c 21.846731
_cell_angle_alpha 90.000000
_cell_angle_beta 54.456707
_cell_angle_gamma 90.000000
_cell_volume 2097.594156
_symmetry_space_group_name_H-M "C 2/C"
_symmetry_group_IT_number 15
_symmetry_cell_setting 'monoclinic'
loop_
_space_group_symop_operation_xyz
x,y,z
-x,y,1/2-z
-x,-y,-z
x,-y,1/2+z
1/2+x,1/2+y,z
1/2-x,1/2+y,1/2-z
1/2-x,1/2-y,-z
1/2+x,1/2-y,1/2+z
loop_
_atom_site_type_symbol
_atom_site_label
_atom_site_fract_x
_atom_site_fract_y
_atom_site_fract_z
Si Si1 0.379589 0.152564 0.038073
Si Si2 0.928953 0.347112 0.859596
Si Si3 0.436843 0.071221 0.620937
Si Si4 0.399501 0.430412 0.669935
Si Si5 0.751404 0.058058 0.623748
Si Si6 0.500000 0.437883 0.250000
Si Si7 0.078885 0.860102 0.028019
O O1 0.268776 0.262422 0.089801
O O2 0.479478 0.268959 0.027970
O O3 0.374973 0.997183 0.084021
O O4 0.431451 0.107142 0.952666
O O5 0.049828 0.422397 0.836897
O O6 0.872332 0.489395 0.842617
O O7 0.929565 0.188925 0.817623
O O8 0.875750 0.274448 0.942285
O O9 0.387148 0.239317 0.663073
O O10 0.298262 0.530311 0.674571
O O11 0.420833 0.463958 0.733115
O O12 0.513067 0.500463 0.591883
O O13 0.831242 0.939603 0.551527
#
# Coordination Sequence:
#
# PCOD9258825 Si02
#       7
#     8   8   8   8   8   4   8
#     4   9  17  30  56  89 128 140 181 223 307 370
#     4  10  23  35  57  82 122 150 191 245 294 342
#     4  10  18  34  55  88 114 159 174 234 298 358
#     4  10  19  37  63  78 111 155 203 230 286 358
#     4  11  18  35  59  92 114 148 185 246 297 351
#     4  10  24  46  54  74 108 170 212 242 280 350
#     4   9  16  34  57  88 119 149 178 231 301 369
#
# _framework density 24.790306999999999
#
# number of rings (size 3 to 8) (size 9 to 14) (size 15 to 20)
#    0.000    2.154    3.077    2.308    0.000    1.231 
#    0.000    4.615    0.000    0.000    0.000    0.000 
#    0.000    0.000    0.000    0.000    0.000    0.000 
#
# Total GULP energy -145264.401109 kJ/mol
# GULP energy per Si atom -5587.092350 kJ/mol
# Density = 2.473388 g / cm^3
# Si number density = 24.790307 Si / 1000 Ang^3
#
#
#
# Elastic Constant Matrix: (Units=GPa)
#
#
# Indices 1 2 3 4 5 6 
#
# 1 31.9278 -3.2385 18.8612 0.0000 17.7212 0.0000
# 2 -3.2385 122.1736 17.0530 0.0000 9.3082 0.0000
# 3 18.8612 17.0530 69.9104 0.0000 27.6116 0.0000
# 4 0.0000 0.0000 0.0000 32.6073 0.0000 12.9754
# 5 17.7212 9.3082 27.6116 0.0000 31.4332 0.0000
# 6 0.0000 0.0000 0.0000 12.9754 0.0000 32.6438
#
#
#
# Elastic Compliance Matrix: (Units=1/GPa)
#
#
# Indices 1 2 3 4 5 6 
#
# 1 0.047638 0.003694 -0.004156 0.000000 -0.024301 0.000000
# 2 0.003694 0.008783 -0.001974 0.000000 -0.002949 0.000000
# 3 -0.004156 -0.001974 0.022587 0.000000 -0.016913 0.000000
# 4 0.000000 0.000000 0.000000 0.036430 0.000000 -0.014480
# 5 -0.024301 -0.002949 -0.016913 0.000000 0.061244 0.000000
# 6 0.000000 0.000000 0.000000 -0.014480 0.000000 0.036389
#
#
# Mechanical properties :
#
#
# Convention : Reuss Voigt Hill
#
# Bulk Modulus (GPa) = 13.48860 32.15148 22.82004
# Shear Modulus (GPa) = 20.60533 32.09259 26.34896
#
# Velocity S-wave (km/s) = 2.88616 3.60191 3.26371
# Velocity P-wave (km/s) = 4.06933 5.50416 4.84021
#
# Compressibility (1/GPa) = 0.07413669
#
# Stress axis : x y z
#
# Youngs Moduli (GPa) = 20.99156 113.85273 44.27363
#
# Poissons Ratio (x) = -0.42060 0.18399
# Poissons Ratio (y) = -0.07755 0.08741
# Poissons Ratio (z) = 0.08724 0.22477
#
# Static dielectric constant tensor:
#      x y z
#    x 2.002400 0.000000 -0.015250 
#    y 0.000000 1.984760 0.000000 
#    z -0.015250 0.000000 2.088700 
# 
# From -- ./inp_files/246907.got.cif
#   From: 2010.05.17/outbox.cif.g08.bks.cpg/sg15_124_cif.got.tgz:246907.got - 2010.06.03 18:47:42.
