data_PCOD9258308
_publ_section_title
;
Structure prediction by ZEFSAII (Michael W. Deem and Ramdas Pophale) SiO2 
 PCOD9258308
Probable space group: C 2/C
;
_chemical_formula_sum "Si O2"
_cell_formula_units_Z 48
_cell_length_a 14.169274
_cell_length_b 16.705867
_cell_length_c 22.365226
_cell_angle_alpha 90.000000
_cell_angle_beta 147.870285
_cell_angle_gamma 90.000000
_cell_volume 2815.588277
_symmetry_space_group_name_H-M "C 2/C"
_symmetry_group_IT_number 15
_symmetry_cell_setting 'monoclinic'
loop_
_space_group_symop_operation_xyz
x,y,z
-x,y,1/2-z
-x,-y,-z
x,-y,1/2+z
1/2+x,1/2+y,z
1/2-x,1/2+y,1/2-z
1/2-x,1/2-y,-z
1/2+x,1/2-y,1/2+z
loop_
_atom_site_type_symbol
_atom_site_label
_atom_site_fract_x
_atom_site_fract_y
_atom_site_fract_z
Si Si1 0.002873 0.465083 0.322739
Si Si2 0.665652 0.707766 0.175189
Si Si3 0.658611 0.269989 0.535837
Si Si4 0.557697 0.140976 0.387428
Si Si5 0.226475 0.164771 0.671909
Si Si6 0.778225 0.825196 0.471010
O O1 0.058693 0.545602 0.385963
O O2 0.148596 0.397831 0.416236
O O3 0.000000 0.482972 0.250000
O O4 0.812287 0.421929 0.230527
O O5 0.656686 0.747430 0.104949
O O6 0.675783 0.772809 0.232710
O O7 0.850109 0.661530 0.274469
O O8 0.488034 0.655820 0.086987
O O9 0.639041 0.188442 0.487708
O O10 0.830473 0.319476 0.606872
O O11 0.483211 0.324035 0.428956
O O12 0.258249 0.188890 0.619510
O O13 0.750000 0.750000 0.500000
#
# Coordination Sequence:
#
# PCOD9258308 Si02
#       6
#     8   8   8   8   8   8
#     4  10  19  32  51  79 106 130 166 216 254 294
#     4  10  18  33  54  74  99 139 172 202 253 305
#     4   9  19  34  53  75 101 139 170 206 249 308
#     4  10  20  34  52  78 104 132 173 210 251 299
#     4   9  19  32  52  77 100 132 173 210 248 304
#     4  10  19  32  53  78 101 135 170 209 255 301
#
# _framework density 17.047947000000001
#
# number of rings (size 3 to 8) (size 9 to 14) (size 15 to 20)
#    0.000    2.333    1.667    1.500    0.000    1.333 
#    0.000    5.833    0.000    0.000    8.667    0.000 
#    0.000    0.000    0.000    0.000    0.000    0.000 
#
# Total GULP energy -133620.231127 kJ/mol
# GULP energy per Si atom -5567.509630 kJ/mol
# Density = 1.700915 g / cm^3
# Si number density = 17.047947 Si / 1000 Ang^3
#
#
#
# Elastic Constant Matrix: (Units=GPa)
#
#
# Indices 1 2 3 4 5 6 
#
# 1 55.2217 49.3893 31.5164 0.0000 7.7286 0.0000
# 2 49.3893 125.5858 48.5869 0.0000 2.2805 0.0000
# 3 31.5164 48.5869 83.2266 0.0000 9.6096 -0.0001
# 4 0.0000 0.0000 0.0000 12.5413 0.0000 8.8246
# 5 7.7286 2.2805 9.6096 0.0000 27.2882 0.0000
# 6 0.0000 0.0000 -0.0001 8.8246 0.0000 5.2974
#
#
#
# Elastic Compliance Matrix: (Units=1/GPa)
#
#
# Indices 1 2 3 4 5 6 
#
# 1 0.030873 -0.010050 -0.005119 -0.000001 -0.006101 0.000001
# 2 -0.010050 0.013602 -0.004516 0.000000 0.003300 0.000000
# 3 -0.005119 -0.004516 0.017074 0.000001 -0.004185 -0.000001
# 4 -0.000001 0.000000 0.000001 -0.463189 0.000000 0.771594
# 5 -0.006101 0.003300 -0.004185 0.000000 0.039572 0.000000
# 6 0.000001 0.000000 -0.000001 0.771594 0.000000 -1.096572
#
#
# Mechanical properties :
#
#
# Convention : Reuss Voigt Hill
#
# Bulk Modulus (GPa) = 45.09017 58.11326 51.60171
# Shear Modulus (GPa) = -3.54139 17.99481 7.22671
#
# Velocity S-wave (km/s) = -1.44285 3.25243 2.06113
# Velocity P-wave (km/s) = 4.87142 6.94741 5.99989
#
# Compressibility (1/GPa) = 0.02217779
#
# Stress axis : x y z
#
# Youngs Moduli (GPa) = 32.39063 73.51648 58.56932
#
# Poissons Ratio (x) = 0.73885 0.29985
# Poissons Ratio (y) = 0.32553 0.26451
# Poissons Ratio (z) = 0.16582 0.33201
#
# Static dielectric constant tensor:
#      x y z
#    x 1.612360 0.000000 0.020320 
#    y 0.000000 1.547340 0.000000 
#    z 0.020320 0.000000 1.599240 
# 
# From -- ./inp_files/96208.got.cif
#   From: 2010.05.17/outbox.cif.g08.bks.cpg/sg15_49_cif.got.tgz:96208.got - 2010.06.03 18:47:42.
