data_PCOD9258749
_publ_section_title
;
Structure prediction by ZEFSAII (Michael W. Deem and Ramdas Pophale) SiO2 
 PCOD9258749
Probable space group: C 2/C
;
_chemical_formula_sum "Si O2"
_cell_formula_units_Z 44
_cell_length_a 20.315689
_cell_length_b 18.200063
_cell_length_c 8.518517
_cell_angle_alpha 90.000000
_cell_angle_beta 35.826135
_cell_angle_gamma 90.000000
_cell_volume 1843.603082
_symmetry_space_group_name_H-M "C 2/C"
_symmetry_group_IT_number 15
_symmetry_cell_setting 'monoclinic'
loop_
_space_group_symop_operation_xyz
x,y,z
-x,y,1/2-z
-x,-y,-z
x,-y,1/2+z
1/2+x,1/2+y,z
1/2-x,1/2+y,1/2-z
1/2-x,1/2-y,-z
1/2+x,1/2-y,1/2+z
loop_
_atom_site_type_symbol
_atom_site_label
_atom_site_fract_x
_atom_site_fract_y
_atom_site_fract_z
Si Si1 0.640844 0.105383 0.594347
Si Si2 0.500000 0.383796 0.750000
Si Si3 0.677874 0.425007 0.173500
Si Si4 0.684650 0.023004 0.809483
Si Si5 0.618960 0.262491 0.721204
Si Si6 0.117437 0.854980 0.002576
O O1 0.622180 0.069613 0.800004
O O2 0.585337 0.184943 0.710805
O O3 0.617201 0.047625 0.502316
O O4 0.777507 0.114109 0.301422
O O5 0.564421 0.428444 0.492292
O O6 0.588004 0.328655 0.664835
O O7 0.774863 0.431266 0.117630
O O8 0.668364 0.353058 0.080233
O O9 0.707527 0.488908 0.992110
O O10 0.750000 0.250000 0.500000
O O11 0.577298 0.286240 0.974126
O O12 0.000000 0.898759 0.250000
#
# Coordination Sequence:
#
# PCOD9258749 Si02
#       6
#     8   4   8   8   8   8
#     4   9  19  37  56  82 114 153 191 230 288 339
#     4  12  22  36  60  86 116 152 196 238 290 340
#     4  10  20  33  52  81 118 149 190 222 288 350
#     4   9  19  37  54  83 116 157 184 234 283 354
#     4  10  21  38  60  81 119 154 189 243 285 337
#     4  10  18  34  54  80 119 148 183 236 283 340
#
# _framework density 23.866308
#
# number of rings (size 3 to 8) (size 9 to 14) (size 15 to 20)
#    0.000    2.182    1.818    2.182    0.000    0.727 
#   11.455   16.364    0.000    1.091    0.000    0.000 
#    0.000    0.000    0.000    0.000    0.000    0.000 
#
# Total GULP energy -122526.256754 kJ/mol
# GULP energy per Si atom -5569.375307 kJ/mol
# Density = 2.381199 g / cm^3
# Si number density = 23.866308 Si / 1000 Ang^3
#
#
#
# Elastic Constant Matrix: (Units=GPa)
#
#
# Indices 1 2 3 4 5 6 
#
# 1 88.1674 28.4429 53.4343 0.0000 25.4885 0.0000
# 2 28.4429 79.6095 44.8362 0.0000 14.6431 0.0000
# 3 53.4343 44.8362 93.9330 0.0000 27.7384 0.0000
# 4 0.0000 0.0000 0.0000 15.5734 0.0000 -1.6189
# 5 25.4885 14.6431 27.7384 0.0000 46.4485 0.0000
# 6 0.0000 0.0000 0.0000 -1.6189 0.0000 18.9203
#
#
#
# Elastic Compliance Matrix: (Units=1/GPa)
#
#
# Indices 1 2 3 4 5 6 
#
# 1 0.018118 -0.000804 -0.008574 0.000000 -0.004569 0.000000
# 2 -0.000804 0.017231 -0.007641 0.000000 -0.000428 0.000000
# 3 -0.008574 -0.007641 0.020724 0.000000 -0.005263 0.000000
# 4 0.000000 0.000000 0.000000 0.064788 0.000000 0.005544
# 5 -0.004569 -0.000428 -0.005263 0.000000 0.027314 0.000000
# 6 0.000000 0.000000 0.000000 0.005544 0.000000 0.053328
#
#
# Mechanical properties :
#
#
# Convention : Reuss Voigt Hill
#
# Bulk Modulus (GPa) = 45.38052 57.23742 51.30897
# Shear Modulus (GPa) = 20.58580 25.18821 22.88701
#
# Velocity S-wave (km/s) = 2.94010 3.25220 3.10008
# Velocity P-wave (km/s) = 5.53004 6.17551 5.86167
#
# Compressibility (1/GPa) = 0.02203589
#
# Stress axis : x y z
#
# Youngs Moduli (GPa) = 55.19228 58.03624 48.25265
#
# Poissons Ratio (x) = 0.04668 0.41371
# Poissons Ratio (y) = 0.04439 0.36868
# Poissons Ratio (z) = 0.47320 0.44344
#
# Static dielectric constant tensor:
#      x y z
#    x 1.967850 0.000000 -0.036360 
#    y 0.000000 2.034620 0.000000 
#    z -0.036360 0.000000 2.038500 
# 
# From -- ./inp_files/57175.got.cif
#   From: 2010.05.17/outbox.cif.g08.bks.cpg/sg15_29_cif.got.tgz:57175.got - 2010.06.03 18:47:42.
