data_PCOD9258720
_publ_section_title
;
Structure prediction by ZEFSAII (Michael W. Deem and Ramdas Pophale) SiO2 
 PCOD9258720
Probable space group: C 2/C
;
_chemical_formula_sum "Si O2"
_cell_formula_units_Z 56
_cell_length_a 21.621540
_cell_length_b 10.553940
_cell_length_c 27.624670
_cell_angle_alpha 90.000000
_cell_angle_beta 149.388477
_cell_angle_gamma 90.000000
_cell_volume 3209.956269
_symmetry_space_group_name_H-M "C 2/C"
_symmetry_group_IT_number 15
_symmetry_cell_setting 'monoclinic'
loop_
_space_group_symop_operation_xyz
x,y,z
-x,y,1/2-z
-x,-y,-z
x,-y,1/2+z
1/2+x,1/2+y,z
1/2-x,1/2+y,1/2-z
1/2-x,1/2-y,-z
1/2+x,1/2-y,1/2+z
loop_
_atom_site_type_symbol
_atom_site_label
_atom_site_fract_x
_atom_site_fract_y
_atom_site_fract_z
Si Si1 0.040000 0.791603 0.044768
Si Si2 0.406691 0.176433 0.731063
Si Si3 0.461636 0.551675 0.400917
Si Si4 0.792839 0.892340 0.473939
Si Si5 0.775571 0.887537 0.694854
Si Si6 0.899982 0.555861 0.970430
Si Si7 0.114711 0.393572 0.441512
O O1 0.161988 0.708130 0.124394
O O2 0.063364 0.920437 0.089146
O O3 0.995411 0.838573 0.962136
O O4 0.937019 0.702029 0.998895
O O5 0.500000 0.186090 0.750000
O O6 0.291170 0.102968 0.630858
O O7 0.363224 0.315083 0.717065
O O8 0.483066 0.119476 0.827057
O O9 0.582130 0.534466 0.449501
O O10 0.347852 0.592061 0.292558
O O11 0.835280 0.745689 0.509782
O O12 0.711202 0.933817 0.464773
O O13 0.725913 0.018564 0.639892
O O14 0.898021 0.482371 0.020238
O O15 0.000000 0.500000 0.000000
#
# Coordination Sequence:
#
# PCOD9258720 Si02
#       7
#     8   8   8   8   8   8   8
#     4  10  24  40  54  79 116 152 191 230 287 339
#     4  10  19  31  54  86 112 141 185 232 284 331
#     4  11  22  38  56  82 114 151 187 241 280 338
#     4  10  18  34  53  83 113 142 188 232 287 321
#     4  11  21  33  59  81 112 143 191 227 284 334
#     4  10  21  38  53  80 112 148 187 228 281 335
#     4  10  19  32  57  80 112 149 181 237 279 334
#
# _framework density 17.445722
#
# number of rings (size 3 to 8) (size 9 to 14) (size 15 to 20)
#    0.000    1.714    4.286    0.857    2.000    1.143 
#    0.000    0.714    0.000    0.000    0.000    0.000 
#    0.000    0.000    0.000    0.000    0.000    0.000 
#
# Total GULP energy -156059.715151 kJ/mol
# GULP energy per Si atom -5573.561255 kJ/mol
# Density = 1.740601 g / cm^3
# Si number density = 17.445722 Si / 1000 Ang^3
#
#
#
# Elastic Constant Matrix: (Units=GPa)
#
#
# Indices 1 2 3 4 5 6 
#
# 1 62.9544 22.9319 34.6399 0.0000 -14.5065 0.0000
# 2 22.9319 53.0011 40.2903 0.0000 -4.4347 0.0000
# 3 34.6399 40.2903 146.3556 -0.0001 -20.9113 0.0000
# 4 0.0000 0.0000 -0.0001 13.7126 0.0000 1.0271
# 5 -14.5065 -4.4347 -20.9113 0.0000 22.8955 0.0000
# 6 0.0000 0.0000 0.0000 1.0271 0.0000 22.6396
#
#
#
# Elastic Compliance Matrix: (Units=1/GPa)
#
#
# Indices 1 2 3 4 5 6 
#
# 1 0.021997 -0.007380 -0.001596 0.000000 0.011050 0.000000
# 2 -0.007380 0.026387 -0.006274 0.000000 -0.005295 0.000000
# 3 -0.001596 -0.006274 0.009913 0.000000 0.006828 0.000000
# 4 0.000000 0.000000 0.000000 0.073175 0.000000 -0.003320
# 5 0.011050 -0.005295 0.006828 0.000000 0.055888 0.000000
# 6 0.000000 0.000000 0.000000 -0.003320 0.000000 0.044321
#
#
# Mechanical properties :
#
#
# Convention : Reuss Voigt Hill
#
# Bulk Modulus (GPa) = 35.97397 50.89283 43.43340
# Shear Modulus (GPa) = 18.41989 22.81280 20.61635
#
# Velocity S-wave (km/s) = 3.25289 3.62006 3.44138
# Velocity P-wave (km/s) = 5.89692 6.83436 6.38288
#
# Compressibility (1/GPa) = 0.02779787
#
# Stress axis : x y z
#
# Youngs Moduli (GPa) = 45.46059 37.89779 100.87678
#
# Poissons Ratio (x) = 0.27967 0.16099
# Poissons Ratio (y) = 0.33548 0.63289
# Poissons Ratio (z) = 0.07255 0.23777
#
# Static dielectric constant tensor:
#      x y z
#    x 1.616610 0.000000 0.004270 
#    y 0.000000 1.580510 0.000000 
#    z 0.004270 0.000000 1.641370 
# 
# From -- ./inp_files/300735.got.cif
#   From: 2010.05.17/outbox.cif.g08.bks.cpg/sg15_151_cif.got.tgz:300735.got - 2010.06.03 18:47:42.
