data_PCOD9258195
_publ_section_title
;
Structure prediction by ZEFSAII (Michael W. Deem and Ramdas Pophale) SiO2 
 PCOD9258195
Probable space group: C 2/C
;
_chemical_formula_sum "Si O2"
_cell_formula_units_Z 64
_cell_length_a 22.436292
_cell_length_b 17.662802
_cell_length_c 8.438533
_cell_angle_alpha 90.000000
_cell_angle_beta 100.508784
_cell_angle_gamma 90.000000
_cell_volume 3287.997014
_symmetry_space_group_name_H-M "C 2/C"
_symmetry_group_IT_number 15
_symmetry_cell_setting 'monoclinic'
loop_
_space_group_symop_operation_xyz
x,y,z
-x,y,1/2-z
-x,-y,-z
x,-y,1/2+z
1/2+x,1/2+y,z
1/2-x,1/2+y,1/2-z
1/2-x,1/2-y,-z
1/2+x,1/2-y,1/2+z
loop_
_atom_site_type_symbol
_atom_site_label
_atom_site_fract_x
_atom_site_fract_y
_atom_site_fract_z
Si Si1 0.783228 0.249204 0.770173
Si Si2 0.222930 0.100337 0.547856
Si Si3 0.921243 0.668530 0.999860
Si Si4 0.704330 0.553900 0.174713
Si Si5 0.661979 0.699814 0.040294
Si Si6 0.337901 0.902648 0.727924
Si Si7 0.637688 0.073198 0.809377
Si Si8 0.475886 0.078311 0.559089
O O1 0.792131 0.185969 0.908821
O O2 0.712993 0.267454 0.689002
O O3 0.810844 0.215991 0.620293
O O4 0.817772 0.328436 0.819684
O O5 0.209824 0.075135 0.362120
O O6 0.294151 0.092803 0.616759
O O7 0.193472 0.034459 0.641977
O O8 0.900728 0.754971 0.979520
O O9 0.889002 0.628066 0.835431
O O10 0.991581 0.645160 0.022329
O O11 0.887587 0.631620 0.133108
O O12 0.657569 0.611274 0.072976
O O13 0.769949 0.576323 0.127671
O O14 0.361981 0.988361 0.762468
O O15 0.595599 0.079449 0.945092
O O16 0.500000 0.081875 0.750000
O O17 0.500000 0.000000 0.500000
#
# Coordination Sequence:
#
# PCOD9258195 Si02
#       8
#     8   8   8   8   8   8   8   8
#     4   9  17  31  48  65  93 129 168 209 251 313
#     4  11  21  32  48  69 102 131 172 207 259 299
#     4  10  18  33  49  67  94 137 170 217 251 295
#     4  10  22  30  47  71  95 130 172 209 250 317
#     4   9  17  32  49  66  94 128 174 210 258 297
#     4   9  19  28  47  66  91 126 175 202 258 287
#     4  10  20  30  48  69  98 135 174 212 244 294
#     4  10  20  32  49  68  95 130 177 216 242 279
#
# _framework density 19.464738000000001
#
# number of rings (size 3 to 8) (size 9 to 14) (size 15 to 20)
#    0.000    2.250    2.500    1.500    7.000    2.000 
#    0.000    0.000    0.000    0.000    0.000    0.000 
#    0.000    0.000    0.000  101.250   28.500    0.000 
#
# Total GULP energy -178368.116773 kJ/mol
# GULP energy per Si atom -5574.003649 kJ/mol
# Density = 1.942044 g / cm^3
# Si number density = 19.464738 Si / 1000 Ang^3
#
#
#
# Elastic Constant Matrix: (Units=GPa)
#
#
# Indices 1 2 3 4 5 6 
#
# 1 58.2667 35.0982 2.1113 0.0000 -11.9875 0.0000
# 2 35.0982 98.3170 11.9222 0.0000 -12.7993 0.0000
# 3 2.1113 11.9222 45.4521 0.0000 -7.4233 0.0000
# 4 0.0000 0.0000 0.0000 30.2188 0.0000 -7.6221
# 5 -11.9875 -12.7993 -7.4233 0.0000 13.1531 0.0000
# 6 0.0000 0.0000 0.0000 -7.6221 0.0000 17.4877
#
#
#
# Elastic Compliance Matrix: (Units=1/GPa)
#
#
# Indices 1 2 3 4 5 6 
#
# 1 0.024946 -0.007006 0.003611 0.000000 0.017956 0.000000
# 2 -0.007006 0.013687 -0.002349 0.000000 0.005608 0.000000
# 3 0.003611 -0.002349 0.024910 0.000000 0.015064 0.000000
# 4 0.000000 0.000000 0.000000 0.037179 0.000000 0.016205
# 5 0.017956 0.005608 0.015064 0.000000 0.106352 0.000000
# 6 0.000000 0.000000 0.000000 0.016205 0.000000 0.064246
#
#
# Mechanical properties :
#
#
# Convention : Reuss Voigt Hill
#
# Bulk Modulus (GPa) = 19.20978 33.36656 26.28817
# Shear Modulus (GPa) = 16.65787 22.36554 19.51170
#
# Velocity S-wave (km/s) = 2.92857 3.39341 3.16953
# Velocity P-wave (km/s) = 4.61799 5.70376 5.18935
#
# Compressibility (1/GPa) = 0.05205681
#
# Stress axis : x y z
#
# Youngs Moduli (GPa) = 40.08678 73.06144 40.14478
#
# Poissons Ratio (x) = 0.51185 -0.14498
# Poissons Ratio (y) = 0.28084 0.09429
# Poissons Ratio (z) = -0.14477 0.17160
#
# Static dielectric constant tensor:
#      x y z
#    x 1.727240 0.000000 0.011580 
#    y 0.000000 1.679860 0.000000 
#    z 0.011580 0.000000 1.807310 
# 
# From -- ./inp_files/62496.got.cif
#   From: 2010.05.17/outbox.cif.g08.bks.cpg/sg15_32_cif.got.tgz:62496.got - 2010.06.03 18:47:42.
