data_PCOD9258889
_publ_section_title
;
Structure prediction by ZEFSAII (Michael W. Deem and Ramdas Pophale) SiO2 
 PCOD9258889
Probable space group: C 2/C
;
_chemical_formula_sum "Si O2"
_cell_formula_units_Z 52
_cell_length_a 24.083656
_cell_length_b 9.450611
_cell_length_c 18.885831
_cell_angle_alpha 90.000000
_cell_angle_beta 141.212340
_cell_angle_gamma 90.000000
_cell_volume 2692.744041
_symmetry_space_group_name_H-M "C 2/C"
_symmetry_group_IT_number 15
_symmetry_cell_setting 'monoclinic'
loop_
_space_group_symop_operation_xyz
x,y,z
-x,y,1/2-z
-x,-y,-z
x,-y,1/2+z
1/2+x,1/2+y,z
1/2-x,1/2+y,1/2-z
1/2-x,1/2-y,-z
1/2+x,1/2-y,1/2+z
loop_
_atom_site_type_symbol
_atom_site_label
_atom_site_fract_x
_atom_site_fract_y
_atom_site_fract_z
Si Si1 0.557646 0.728328 0.077436
Si Si2 0.212709 0.435978 0.627462
Si Si3 0.746068 0.711783 0.763628
Si Si4 0.500000 0.249027 0.750000
Si Si5 0.577017 0.256832 0.183015
Si Si6 0.608958 0.551633 0.267406
Si Si7 0.013558 0.536419 0.893487
O O1 0.652787 0.735565 0.133816
O O2 0.568716 0.621570 0.154817
O O3 0.534716 0.879653 0.090685
O O4 0.481253 0.700647 0.944336
O O5 0.249995 0.542760 0.724723
O O6 0.208801 0.278060 0.654282
O O7 0.285162 0.443228 0.637913
O O8 0.115776 0.489653 0.513270
O O9 0.677973 0.762048 0.756210
O O10 0.422361 0.353685 0.698557
O O11 0.516736 0.145246 0.831876
O O12 0.577451 0.389464 0.236410
O O13 0.536689 0.110139 0.170214
#
# Coordination Sequence:
#
# PCOD9258889 Si02
#       7
#     8   8   8   4   8   8   8
#     4  10  18  34  56  89 118 150 177 229 291 351
#     4  10  19  35  56  88 116 152 179 233 284 349
#     4  10  19  31  54  89 127 137 180 226 291 350
#     4  10  24  44  56  76 110 158 202 238 272 338
#     4  11  19  33  60  87 114 148 183 240 289 341
#     4   9  22  36  57  81 118 149 191 231 286 334
#     4  11  21  37  62  81 115 156 196 231 281 330
#
# _framework density 19.311156
#
# number of rings (size 3 to 8) (size 9 to 14) (size 15 to 20)
#    0.000    1.846    3.077    1.846    0.000    1.231 
#    0.000    0.000    3.385    2.769    0.000    0.000 
#    0.000    0.000    0.000    0.000    0.000    0.000 
#
# Total GULP energy -144930.974078 kJ/mol
# GULP energy per Si atom -5574.268234 kJ/mol
# Density = 1.926720 g / cm^3
# Si number density = 19.311156 Si / 1000 Ang^3
#
#
#
# Elastic Constant Matrix: (Units=GPa)
#
#
# Indices 1 2 3 4 5 6 
#
# 1 95.7965 58.0946 42.3236 0.0000 26.9766 0.0000
# 2 58.0946 126.2356 38.6012 0.0000 22.2475 0.0000
# 3 42.3236 38.6012 33.1913 0.0000 14.1522 0.0000
# 4 0.0000 0.0000 0.0000 12.5796 0.0000 1.2844
# 5 26.9766 22.2475 14.1522 0.0000 20.2615 0.0000
# 6 0.0000 0.0000 0.0000 1.2844 0.0000 30.6891
#
#
#
# Elastic Compliance Matrix: (Units=1/GPa)
#
#
# Indices 1 2 3 4 5 6 
#
# 1 0.027875 -0.001849 -0.026254 0.000000 -0.016745 0.000000
# 2 -0.001849 0.012783 -0.010786 0.000000 -0.004040 0.000000
# 3 -0.026254 -0.010786 0.080031 0.000000 -0.009101 0.000000
# 4 0.000000 0.000000 0.000000 0.079835 0.000000 -0.003341
# 5 -0.016745 -0.004040 -0.009101 0.000000 0.082443 0.000000
# 6 0.000000 0.000000 0.000000 -0.003341 0.000000 0.032725
#
#
# Mechanical properties :
#
#
# Convention : Reuss Voigt Hill
#
# Bulk Modulus (GPa) = 23.30457 59.25135 41.27796
# Shear Modulus (GPa) = 12.26174 20.45297 16.35735
#
# Velocity S-wave (km/s) = 2.52257 3.25795 2.91356
# Velocity P-wave (km/s) = 4.53636 6.70085 5.72189
#
# Compressibility (1/GPa) = 0.04291004
#
# Stress axis : x y z
#
# Youngs Moduli (GPa) = 35.87475 78.22969 12.49522
#
# Poissons Ratio (x) = 0.14464 0.32805
# Poissons Ratio (y) = 0.06633 0.13477
# Poissons Ratio (z) = 0.94186 0.84379
#
# Static dielectric constant tensor:
#      x y z
#    x 1.689640 0.000000 -0.003260 
#    y 0.000000 1.698860 0.000000 
#    z -0.003260 0.000000 1.687380 
# 
# From -- ./inp_files/171729.got.cif
#   From: 2010.05.17/outbox.cif.g08.bks.cpg/sg15_86_cif.got.tgz:171729.got - 2010.06.03 18:47:42.
