data_PCOD9258108
_publ_section_title
;
Structure prediction by ZEFSAII (Michael W. Deem and Ramdas Pophale) SiO2 
 PCOD9258108
Probable space group: C 2/C
;
_chemical_formula_sum "Si O2"
_cell_formula_units_Z 56
_cell_length_a 10.488645
_cell_length_b 14.017722
_cell_length_c 19.533961
_cell_angle_alpha 90.000000
_cell_angle_beta 95.436574
_cell_angle_gamma 90.000000
_cell_volume 2859.098691
_symmetry_space_group_name_H-M "C 2/C"
_symmetry_group_IT_number 15
_symmetry_cell_setting 'monoclinic'
loop_
_space_group_symop_operation_xyz
x,y,z
-x,y,1/2-z
-x,-y,-z
x,-y,1/2+z
1/2+x,1/2+y,z
1/2-x,1/2+y,1/2-z
1/2-x,1/2-y,-z
1/2+x,1/2-y,1/2+z
loop_
_atom_site_type_symbol
_atom_site_label
_atom_site_fract_x
_atom_site_fract_y
_atom_site_fract_z
Si Si1 0.488025 0.950592 0.425613
Si Si2 0.794848 0.645840 0.200569
Si Si3 0.419140 0.872943 0.847770
Si Si4 0.876802 0.126363 0.497193
Si Si5 0.863278 0.215810 0.954490
Si Si6 0.278008 0.527120 0.893946
Si Si7 0.214117 0.292455 0.097455
O O1 0.630691 0.952673 0.404449
O O2 0.416337 0.850190 0.421498
O O3 0.500000 0.000000 0.500000
O O4 0.406528 0.019091 0.372469
O O5 0.818469 0.645420 0.282537
O O6 0.722292 0.550788 0.167686
O O7 0.733473 0.745727 0.172473
O O8 0.937210 0.641480 0.174128
O O9 0.405040 0.806909 0.913097
O O10 0.786835 0.195946 0.447640
O O11 0.825642 0.140562 0.571915
O O12 0.018436 0.168530 0.498909
O O13 0.849687 0.025050 0.461417
O O14 0.832299 0.133890 0.896285
O O15 0.750000 0.250000 0.000000
#
# Coordination Sequence:
#
# PCOD9258108 Si02
#       7
#     8   8   8   8   8   8   8
#     4  11  19  33  58  88 109 142 188 242 286 336
#     4   9  20  39  58  79 106 157 193 235 274 341
#     4  10  21  37  57  81 114 146 198 230 281 346
#     4  10  19  34  54  85 113 146 186 234 283 339
#     4  12  23  35  55  87 120 150 181 240 297 344
#     4  10  21  35  56  81 119 147 183 234 292 343
#     4  10  18  32  60  82 111 142 192 237 274 336
#
# _framework density 19.586590000000001
#
# number of rings (size 3 to 8) (size 9 to 14) (size 15 to 20)
#    0.000    1.714    2.857    3.000    0.000    1.143 
#    0.000    0.000    0.000    6.857    0.000    0.000 
#    0.000    0.000    0.000    0.000    0.000    0.000 
#
# Total GULP energy -155968.311718 kJ/mol
# GULP energy per Si atom -5570.296847 kJ/mol
# Density = 1.954201 g / cm^3
# Si number density = 19.586590 Si / 1000 Ang^3
#
#
#
# Elastic Constant Matrix: (Units=GPa)
#
#
# Indices 1 2 3 4 5 6 
#
# 1 52.1111 7.7615 5.1295 0.0000 7.1399 0.0000
# 2 7.7615 77.9391 7.9562 0.0000 8.2092 0.0000
# 3 5.1295 7.9562 59.8685 0.0000 17.6575 0.0000
# 4 0.0000 0.0000 0.0000 27.6845 0.0000 13.4288
# 5 7.1399 8.2092 17.6575 0.0000 23.4764 0.0000
# 6 0.0000 0.0000 0.0000 13.4288 0.0000 34.2352
#
#
#
# Elastic Compliance Matrix: (Units=1/GPa)
#
#
# Indices 1 2 3 4 5 6 
#
# 1 0.020175 -0.001419 0.000158 0.000000 -0.005759 0.000000
# 2 -0.001419 0.013433 -0.000521 0.000000 -0.003874 0.000000
# 3 0.000158 -0.000521 0.021486 0.000000 -0.016026 0.000000
# 4 0.000000 0.000000 0.000000 0.044609 0.000000 -0.017498
# 5 -0.005759 -0.003874 -0.016026 0.000000 0.057756 0.000000
# 6 0.000000 0.000000 0.000000 -0.017498 0.000000 0.036073
#
#
# Mechanical properties :
#
#
# Convention : Reuss Voigt Hill
#
# Bulk Modulus (GPa) = 19.40589 25.73479 22.57034
# Shear Modulus (GPa) = 23.33495 28.35065 25.84280
#
# Velocity S-wave (km/s) = 3.45537 3.80867 3.63631
# Velocity P-wave (km/s) = 5.08416 5.70165 5.40174
#
# Compressibility (1/GPa) = 0.05153074
#
# Stress axis : x y z
#
# Youngs Moduli (GPa) = 49.56752 74.44334 46.54258
#
# Poissons Ratio (x) = 0.10561 -0.00738
# Poissons Ratio (y) = 0.07032 0.02425
# Poissons Ratio (z) = -0.00786 0.03879
#
# Static dielectric constant tensor:
#      x y z
#    x 1.698150 0.000000 0.024170 
#    y 0.000000 1.707420 0.000000 
#    z 0.024170 0.000000 1.718520 
# 
# From -- ./inp_files/237123.got.cif
#   From: 2010.05.17/outbox.cif.g08.bks.cpg/sg15_119_cif.got.tgz:237123.got - 2010.06.03 18:47:42.
