data_PCOD9258783
_publ_section_title
;
Structure prediction by ZEFSAII (Michael W. Deem and Ramdas Pophale) SiO2 
 PCOD9258783
Probable space group: C 2/C
;
_chemical_formula_sum "Si O2"
_cell_formula_units_Z 52
_cell_length_a 17.849776
_cell_length_b 8.368268
_cell_length_c 24.927696
_cell_angle_alpha 90.000000
_cell_angle_beta 41.608418
_cell_angle_gamma 90.000000
_cell_volume 2472.533379
_symmetry_space_group_name_H-M "C 2/C"
_symmetry_group_IT_number 15
_symmetry_cell_setting 'monoclinic'
loop_
_space_group_symop_operation_xyz
x,y,z
-x,y,1/2-z
-x,-y,-z
x,-y,1/2+z
1/2+x,1/2+y,z
1/2-x,1/2+y,1/2-z
1/2-x,1/2-y,-z
1/2+x,1/2-y,1/2+z
loop_
_atom_site_type_symbol
_atom_site_label
_atom_site_fract_x
_atom_site_fract_y
_atom_site_fract_z
Si Si1 0.500000 0.642341 0.750000
Si Si2 0.135313 0.593929 0.681891
Si Si3 0.190361 0.582689 0.046893
Si Si4 0.622747 0.844007 0.421408
Si Si5 0.026727 0.627865 0.406272
Si Si6 0.671693 0.833249 0.736202
Si Si7 0.202850 0.936365 0.604736
O O1 0.579531 0.743827 0.747249
O O2 0.584823 0.530239 0.671549
O O3 0.181619 0.465888 0.613249
O O4 0.163311 0.519180 0.724452
O O5 0.188174 0.763444 0.638353
O O6 0.000000 0.607262 0.750000
O O7 0.065388 0.599701 0.090428
O O8 0.250000 0.750000 0.000000
O O9 0.253950 0.445872 0.979186
O O10 0.534754 0.776080 0.512642
O O11 0.704746 0.726968 0.345785
O O12 0.556866 0.958074 0.416136
O O13 0.705992 0.960326 0.410776
O O14 0.134587 0.695272 0.317282
#
# Coordination Sequence:
#
# PCOD9258783 Si02
#       7
#     4   8   8   8   8   8   8
#     4  10  18  34  54  88 114 148 200 242 292 362
#     4  12  21  35  56  89 119 149 188 253 304 342
#     4  11  21  38  63  86 114 160 199 243 298 362
#     4   9  22  38  59  83 112 163 200 238 295 361
#     4  10  19  38  59  83 115 150 201 246 286 346
#     4  11  20  35  61  84 116 156 202 245 296 360
#     4  10  21  35  56  84 122 151 193 247 302 351
#
# _framework density 21.031061000000001
#
# number of rings (size 3 to 8) (size 9 to 14) (size 15 to 20)
#    0.000    1.538    3.077    4.154    0.000    1.231 
#    0.000    0.000    0.000   17.538    0.000    0.000 
#    0.000    0.000    0.000    0.000    0.000    0.000 
#
# Total GULP energy -145182.771752 kJ/mol
# GULP energy per Si atom -5583.952760 kJ/mol
# Density = 2.098319 g / cm^3
# Si number density = 21.031061 Si / 1000 Ang^3
#
#
#
# Elastic Constant Matrix: (Units=GPa)
#
#
# Indices 1 2 3 4 5 6 
#
# 1 26.2138 -2.1835 5.8323 0.0000 -0.9568 0.0000
# 2 -2.1835 72.4207 36.5134 0.0000 -5.0120 0.0000
# 3 5.8323 36.5134 180.2112 0.0000 -0.2335 0.0000
# 4 0.0000 0.0000 0.0000 34.6476 0.0000 -1.4404
# 5 -0.9568 -5.0120 -0.2335 0.0000 19.9577 0.0000
# 6 0.0000 0.0000 0.0000 -1.4404 0.0000 10.8171
#
#
#
# Elastic Compliance Matrix: (Units=1/GPa)
#
#
# Indices 1 2 3 4 5 6 
#
# 1 0.038795 0.002190 -0.001696 0.000000 0.002390 0.000000
# 2 0.002190 0.015801 -0.003267 0.000000 0.004035 0.000000
# 3 -0.001696 -0.003267 0.006265 0.000000 -0.000829 0.000000
# 4 0.000000 0.000000 0.000000 0.029023 0.000000 0.003865
# 5 0.002390 0.004035 -0.000829 0.000000 0.051224 0.000000
# 6 0.000000 0.000000 0.000000 0.003865 0.000000 0.092961
#
#
# Mechanical properties :
#
#
# Convention : Reuss Voigt Hill
#
# Bulk Modulus (GPa) = 18.07847 39.90778 28.99313
# Shear Modulus (GPa) = 19.37587 28.99670 24.18629
#
# Velocity S-wave (km/s) = 3.03858 3.71719 3.39488
# Velocity P-wave (km/s) = 4.57443 6.11884 5.40211
#
# Compressibility (1/GPa) = 0.05531441
#
# Stress axis : x y z
#
# Youngs Moduli (GPa) = 25.77654 63.28835 159.62119
#
# Poissons Ratio (x) = -0.13862 0.27076
# Poissons Ratio (y) = -0.05646 0.52150
# Poissons Ratio (z) = 0.04372 0.20677
#
# Static dielectric constant tensor:
#      x y z
#    x 1.730370 0.000000 -0.003090 
#    y 0.000000 1.771380 0.000000 
#    z -0.003090 0.000000 1.827410 
# 
# From -- ./inp_files/279513.got.cif
#   From: 2010.05.17/outbox.cif.g08.bks.cpg/sg15_140_cif.got.tgz:279513.got - 2010.06.03 18:47:42.
