data_PCOD9258504
_publ_section_title
;
Structure prediction by ZEFSAII (Michael W. Deem and Ramdas Pophale) SiO2 
 PCOD9258504
Probable space group: C 2/C
;
_chemical_formula_sum "Si O2"
_cell_formula_units_Z 64
_cell_length_a 17.981259
_cell_length_b 26.348208
_cell_length_c 14.140244
_cell_angle_alpha 90.000000
_cell_angle_beta 149.667512
_cell_angle_gamma 90.000000
_cell_volume 3383.250647
_symmetry_space_group_name_H-M "C 2/C"
_symmetry_group_IT_number 15
_symmetry_cell_setting 'monoclinic'
loop_
_space_group_symop_operation_xyz
x,y,z
-x,y,1/2-z
-x,-y,-z
x,-y,1/2+z
1/2+x,1/2+y,z
1/2-x,1/2+y,1/2-z
1/2-x,1/2-y,-z
1/2+x,1/2-y,1/2+z
loop_
_atom_site_type_symbol
_atom_site_label
_atom_site_fract_x
_atom_site_fract_y
_atom_site_fract_z
Si Si1 0.118402 0.904489 0.608747
Si Si2 0.704847 0.589202 0.784397
Si Si3 0.324591 0.996700 0.788415
Si Si4 0.821774 0.168169 0.066596
Si Si5 0.357689 0.705081 0.310891
Si Si6 0.672119 0.975623 0.928195
Si Si7 0.628213 0.437222 0.820342
Si Si8 0.708450 0.694274 0.677690
O O1 0.246857 0.944820 0.737108
O O2 0.174698 0.847028 0.668533
O O3 0.059295 0.913101 0.650890
O O4 0.970839 0.913668 0.387530
O O5 0.753309 0.545881 0.761278
O O6 0.736629 0.644218 0.772066
O O7 0.785908 0.576624 0.972633
O O8 0.295690 0.990398 0.644628
O O9 0.500000 0.000000 0.000000
O O10 0.791565 0.198086 0.131181
O O11 0.780715 0.109361 0.036373
O O12 0.000000 0.168754 0.250000
O O13 0.757387 0.184649 0.896007
O O14 0.534415 0.706200 0.494894
O O15 0.297820 0.754658 0.296725
O O16 0.500000 0.983003 0.750000
O O17 0.768786 0.016393 0.090274
O O18 0.500000 0.453010 0.750000
#
# Coordination Sequence:
#
# PCOD9258504 Si02
#       8
#     8   8   8   8   8   8   8   8
#     4  10  21  38  57  87 118 153 204 237 290 351
#     4  11  23  39  59  86 121 157 196 241 292 360
#     4  12  23  39  60  86 121 153 190 247 296 350
#     4   8  15  30  52  81 116 150 190 231 283 345
#     4   9  19  33  56  82 113 155 193 243 284 352
#     4  12  24  38  54  84 118 154 195 239 303 352
#     4  10  18  33  58  83 117 157 194 235 282 348
#     4  10  19  35  54  83 114 150 196 239 296 343
#
# _framework density 18.916717999999999
#
# number of rings (size 3 to 8) (size 9 to 14) (size 15 to 20)
#    0.000    1.750    2.500    4.500    1.750    1.000 
#    0.000    2.500    0.000    1.500    0.000    0.000 
#    0.000    0.000    0.000    0.000    0.000    0.000 
#
# Total GULP energy -178264.791152 kJ/mol
# GULP energy per Si atom -5570.774723 kJ/mol
# Density = 1.887366 g / cm^3
# Si number density = 18.916718 Si / 1000 Ang^3
#
#
#
# Elastic Constant Matrix: (Units=GPa)
#
#
# Indices 1 2 3 4 5 6 
#
# 1 44.2930 38.5665 23.6348 0.0000 -7.4544 0.0000
# 2 38.5665 143.6929 44.2391 0.0000 14.7713 0.0000
# 3 23.6348 44.2391 47.9653 0.0000 -1.3153 0.0000
# 4 0.0000 0.0000 0.0000 17.1599 0.0000 6.8269
# 5 -7.4544 14.7713 -1.3153 0.0000 24.4980 0.0000
# 6 0.0000 0.0000 0.0000 6.8269 0.0000 30.2242
#
#
#
# Elastic Compliance Matrix: (Units=1/GPa)
#
#
# Indices 1 2 3 4 5 6 
#
# 1 0.038633 -0.008866 -0.010406 0.000000 0.016543 0.000000
# 2 -0.008866 0.012852 -0.007783 0.000000 -0.010865 0.000000
# 3 -0.010406 -0.007783 0.033245 0.000000 0.003311 0.000000
# 4 0.000000 0.000000 0.000000 0.064029 0.000000 -0.014463
# 5 0.016543 -0.010865 0.003311 0.000000 0.052582 0.000000
# 6 0.000000 0.000000 0.000000 -0.014463 0.000000 0.036353
#
#
# Mechanical properties :
#
#
# Convention : Reuss Voigt Hill
#
# Bulk Modulus (GPa) = 32.65710 49.87021 41.26365
# Shear Modulus (GPa) = 16.55578 23.01048 19.78313
#
# Velocity S-wave (km/s) = 2.96158 3.49149 3.23739
# Velocity P-wave (km/s) = 5.38476 6.53255 5.98623
#
# Compressibility (1/GPa) = 0.03062122
#
# Stress axis : x y z
#
# Youngs Moduli (GPa) = 25.88455 77.81002 30.08001
#
# Poissons Ratio (x) = 0.68986 0.31300
# Poissons Ratio (y) = 0.22949 0.23410
# Poissons Ratio (z) = 0.26934 0.60557
#
# Static dielectric constant tensor:
#      x y z
#    x 1.724040 0.000000 -0.049340 
#    y 0.000000 1.688200 0.000000 
#    z -0.049340 0.000000 1.685940 
# 
# From -- ./inp_files/164285.got.cif
#   From: 2010.05.17/outbox.cif.g08.bks.cpg/sg15_83_cif.got.tgz:164285.got - 2010.06.03 18:47:42.
