data_PCOD9258905
_publ_section_title
;
Structure prediction by ZEFSAII (Michael W. Deem and Ramdas Pophale) SiO2 
 PCOD9258905
Probable space group: C 2/C
;
_chemical_formula_sum "Si O2"
_cell_formula_units_Z 56
_cell_length_a 15.441971
_cell_length_b 9.072362
_cell_length_c 27.871275
_cell_angle_alpha 90.000000
_cell_angle_beta 48.275294
_cell_angle_gamma 90.000000
_cell_volume 2914.225895
_symmetry_space_group_name_H-M "C 2/C"
_symmetry_group_IT_number 15
_symmetry_cell_setting 'monoclinic'
loop_
_space_group_symop_operation_xyz
x,y,z
-x,y,1/2-z
-x,-y,-z
x,-y,1/2+z
1/2+x,1/2+y,z
1/2-x,1/2+y,1/2-z
1/2-x,1/2-y,-z
1/2+x,1/2-y,1/2+z
loop_
_atom_site_type_symbol
_atom_site_label
_atom_site_fract_x
_atom_site_fract_y
_atom_site_fract_z
Si Si1 0.938052 0.424758 0.659335
Si Si2 0.607082 0.423706 0.487196
Si Si3 0.864611 0.508439 0.786865
Si Si4 0.802747 0.351066 0.905886
Si Si5 0.016803 0.350574 0.059676
Si Si6 0.682989 0.947824 0.439215
Si Si7 0.784380 0.283163 0.634581
O O1 0.861213 0.439749 0.735238
O O2 0.875654 0.327670 0.641954
O O3 0.066486 0.367760 0.624082
O O4 0.961045 0.585886 0.628197
O O5 0.500000 0.500000 0.500000
O O6 0.707012 0.539071 0.463915
O O7 0.561075 0.316083 0.545750
O O8 0.657189 0.310770 0.429324
O O9 0.805799 0.404439 0.848812
O O10 0.810947 0.671929 0.809633
O O11 0.000000 0.518377 0.750000
O O12 0.762319 0.184504 0.926941
O O13 0.920229 0.370746 0.053656
O O14 0.120260 0.459508 0.004269
O O15 0.747368 0.063314 0.380069
#
# Coordination Sequence:
#
# PCOD9258905 Si02
#       7
#     8   8   8   8   8   8   8
#     4  10  21  35  55  82 113 137 181 231 276 310
#     4  10  18  34  57  79 106 147 184 210 267 337
#     4   9  20  40  57  73 106 147 181 217 271 326
#     4  10  20  34  59  79 107 147 181 224 268 324
#     4   9  18  32  52  78 112 142 173 223 271 317
#     4   9  17  33  54  78 106 142 177 218 273 324
#     4   9  20  37  56  77 107 140 182 223 269 321
#
# _framework density 19.216080999999999
#
# number of rings (size 3 to 8) (size 9 to 14) (size 15 to 20)
#    0.000    2.571    1.429    0.857    0.000    3.429 
#    0.000    3.571    0.000    0.000    0.000    0.000 
#    0.000    0.000    0.000    0.000    0.000    0.000 
#
# Total GULP energy -156156.506139 kJ/mol
# GULP energy per Si atom -5577.018076 kJ/mol
# Density = 1.917234 g / cm^3
# Si number density = 19.216081 Si / 1000 Ang^3
#
#
#
# Elastic Constant Matrix: (Units=GPa)
#
#
# Indices 1 2 3 4 5 6 
#
# 1 21.8421 8.4106 -2.1392 0.0000 6.6667 0.0000
# 2 8.4106 90.1311 0.9756 0.0001 -8.8102 0.0001
# 3 -2.1392 0.9756 16.0745 0.0000 -4.4860 0.0000
# 4 0.0000 0.0001 0.0000 11.8986 0.0000 -11.2110
# 5 6.6667 -8.8102 -4.4860 0.0000 20.6696 0.0000
# 6 0.0000 0.0001 0.0000 -11.2110 0.0000 19.7664
#
#
#
# Elastic Compliance Matrix: (Units=1/GPa)
#
#
# Indices 1 2 3 4 5 6 
#
# 1 0.054931 -0.007133 0.002076 0.000000 -0.020307 0.000000
# 2 -0.007133 0.012511 0.000449 0.000000 0.007731 0.000000
# 3 0.002076 0.000449 0.066344 0.000000 0.013921 0.000000
# 4 0.000000 0.000000 0.000000 0.180503 0.000000 0.102376
# 5 -0.020307 0.007731 0.013921 0.000000 0.061247 0.000000
# 6 0.000000 0.000000 0.000000 0.102376 0.000000 0.108656
#
#
# Mechanical properties :
#
#
# Convention : Reuss Voigt Hill
#
# Bulk Modulus (GPa) = 8.02762 15.83797 11.93279
# Shear Modulus (GPa) = 9.34695 18.52030 13.93363
#
# Velocity S-wave (km/s) = 2.20787 3.10787 2.69569
# Velocity P-wave (km/s) = 3.26898 4.59765 3.98902
#
# Compressibility (1/GPa) = 0.12456996
#
# Stress axis : x y z
#
# Youngs Moduli (GPa) = 18.20451 79.92667 15.07287
#
# Poissons Ratio (x) = 0.57015 -0.03129
# Poissons Ratio (y) = 0.12986 -0.00677
# Poissons Ratio (z) = -0.03779 -0.03588
#
# Static dielectric constant tensor:
#      x y z
#    x 1.676770 0.000000 0.017130 
#    y 0.000000 1.672070 0.000000 
#    z 0.017130 0.000000 1.707220 
# 
# From -- ./inp_files/246926.got.cif
#   From: 2010.05.17/outbox.cif.g08.bks.cpg/sg15_124_cif.got.tgz:246926.got - 2010.06.03 18:47:42.
