data_PCOD9258102
_publ_section_title
;
Structure prediction by ZEFSAII (Michael W. Deem and Ramdas Pophale) SiO2 
 PCOD9258102
Probable space group: C 2/C
;
_chemical_formula_sum "Si O2"
_cell_formula_units_Z 60
_cell_length_a 14.651208
_cell_length_b 7.865708
_cell_length_c 25.101378
_cell_angle_alpha 90.000000
_cell_angle_beta 118.580458
_cell_angle_gamma 90.000000
_cell_volume 2540.245207
_symmetry_space_group_name_H-M "C 2/C"
_symmetry_group_IT_number 15
_symmetry_cell_setting 'monoclinic'
loop_
_space_group_symop_operation_xyz
x,y,z
-x,y,1/2-z
-x,-y,-z
x,-y,1/2+z
1/2+x,1/2+y,z
1/2-x,1/2+y,1/2-z
1/2-x,1/2-y,-z
1/2+x,1/2-y,1/2+z
loop_
_atom_site_type_symbol
_atom_site_label
_atom_site_fract_x
_atom_site_fract_y
_atom_site_fract_z
Si Si1 0.488599 0.240779 0.478435
Si Si2 0.736304 0.431452 0.178890
Si Si3 0.503546 0.661171 0.869142
Si Si4 0.000000 0.142838 0.750000
Si Si5 0.279949 0.417948 0.439571
Si Si6 0.785543 0.941396 0.715975
Si Si7 0.312048 0.543866 0.065550
Si Si8 0.148298 0.414052 0.089507
O O1 0.540551 0.247900 0.434203
O O2 0.403136 0.382587 0.467183
O O3 0.569978 0.231627 0.549610
O O4 0.414580 0.075466 0.451966
O O5 0.617079 0.369385 0.152396
O O6 0.755380 0.501875 0.125307
O O7 0.796500 0.253715 0.201497
O O8 0.747612 0.556265 0.231383
O O9 0.515456 0.733135 0.812333
O O10 0.567152 0.485261 0.889793
O O11 0.894528 0.034490 0.732889
O O12 0.272613 0.495982 0.495373
O O13 0.221224 0.235419 0.428868
O O14 0.690035 0.036613 0.659091
O O15 0.254198 0.409386 0.086398
#
# Coordination Sequence:
#
# PCOD9258102 Si02
#       8
#     8   8   8   4   8   8   8   8
#     4   9  19  33  57  76 113 146 187 228 293 343
#     4  10  21  37  61  82 118 149 196 237 288 344
#     4  10  18  34  54  85 111 148 188 236 282 345
#     4  10  20  34  62  78 110 156 194 230 294 344
#     4   9  18  37  55  82 113 150 186 241 283 339
#     4  11  20  41  59  84 111 155 195 240 285 351
#     4  10  18  32  60  80 110 144 189 239 286 333
#     4  10  18  37  55  80 109 154 184 232 292 349
#
# _framework density 23.619765999999998
#
# number of rings (size 3 to 8) (size 9 to 14) (size 15 to 20)
#    0.000    2.133    5.333    0.000    0.000    2.667 
#    7.200    1.333    2.933    3.200    0.000    0.000 
#    0.000    0.000    0.000    0.000    0.000    0.000 
#
# Total GULP energy -167193.736336 kJ/mol
# GULP energy per Si atom -5573.124545 kJ/mol
# Density = 2.356601 g / cm^3
# Si number density = 23.619766 Si / 1000 Ang^3
#
#
#
# Elastic Constant Matrix: (Units=GPa)
#
#
# Indices 1 2 3 4 5 6 
#
# 1 47.1188 3.4535 5.4056 0.0000 -4.2255 0.0000
# 2 3.4535 35.5661 -0.1503 0.0000 8.0135 0.0000
# 3 5.4056 -0.1503 90.8124 0.0000 -23.5260 0.0000
# 4 0.0000 0.0000 0.0000 26.8184 0.0000 0.2249
# 5 -4.2255 8.0135 -23.5260 0.0000 56.4059 0.0000
# 6 0.0000 0.0000 0.0000 0.2249 0.0000 17.8608
#
#
#
# Elastic Compliance Matrix: (Units=1/GPa)
#
#
# Indices 1 2 3 4 5 6 
#
# 1 0.021648 -0.002468 -0.000876 0.000000 0.001607 0.000000
# 2 -0.002468 0.029434 -0.001049 0.000000 -0.004804 0.000000
# 3 -0.000876 -0.001049 0.012426 0.000000 0.005266 0.000000
# 4 0.000000 0.000000 0.000000 0.037292 0.000000 -0.000470
# 5 0.001607 -0.004804 0.005266 0.000000 0.020728 0.000000
# 6 0.000000 0.000000 0.000000 -0.000470 0.000000 0.055994
#
#
# Mechanical properties :
#
#
# Convention : Reuss Voigt Hill
#
# Bulk Modulus (GPa) = 18.27396 21.21279 19.74337
# Shear Modulus (GPa) = 24.44384 31.20293 27.82338
#
# Velocity S-wave (km/s) = 3.22046 3.63857 3.43588
# Velocity P-wave (km/s) = 4.64564 5.16263 4.91094
#
# Compressibility (1/GPa) = 0.05472267
#
# Stress axis : x y z
#
# Youngs Moduli (GPa) = 46.19269 33.97403 80.47366
#
# Poissons Ratio (x) = 0.08384 0.07053
# Poissons Ratio (y) = 0.11400 0.08441
# Poissons Ratio (z) = 0.04049 0.03564
#
# Static dielectric constant tensor:
#      x y z
#    x 1.920220 0.000000 -0.003260 
#    y 0.000000 1.968120 0.000000 
#    z -0.003260 0.000000 2.001320 
# 
# From -- ./inp_files/273657.got.cif
#   From: 2010.05.17/outbox.cif.g08.bks.cpg/sg15_137_cif.got.tgz:273657.got - 2010.06.03 18:47:42.
