data_PCOD9258648
_publ_section_title
;
Structure prediction by ZEFSAII (Michael W. Deem and Ramdas Pophale) SiO2 
 PCOD9258648
Probable space group: C 2/C
;
_chemical_formula_sum "Si O2"
_cell_formula_units_Z 48
_cell_length_a 14.994234
_cell_length_b 31.850520
_cell_length_c 7.546620
_cell_angle_alpha 90.000000
_cell_angle_beta 142.811363
_cell_angle_gamma 90.000000
_cell_volume 2178.448538
_symmetry_space_group_name_H-M "C 2/C"
_symmetry_group_IT_number 15
_symmetry_cell_setting 'monoclinic'
loop_
_space_group_symop_operation_xyz
x,y,z
-x,y,1/2-z
-x,-y,-z
x,-y,1/2+z
1/2+x,1/2+y,z
1/2-x,1/2+y,1/2-z
1/2-x,1/2-y,-z
1/2+x,1/2-y,1/2+z
loop_
_atom_site_type_symbol
_atom_site_label
_atom_site_fract_x
_atom_site_fract_y
_atom_site_fract_z
Si Si1 0.832044 0.301167 0.329180
Si Si2 0.830249 0.792501 0.810551
Si Si3 0.000000 0.497023 0.750000
Si Si4 0.409669 0.850172 0.920880
Si Si5 0.930837 0.150512 0.945572
Si Si6 0.323188 0.943674 0.705650
Si Si7 0.000000 0.083352 0.750000
O O1 0.828988 0.253510 0.392604
O O2 0.991808 0.319639 0.542042
O O3 0.755857 0.294713 0.014389
O O4 0.735934 0.335616 0.279809
O O5 0.744601 0.827231 0.787034
O O6 0.991615 0.808458 0.015512
O O7 0.136224 0.466447 0.913206
O O8 0.927292 0.528924 0.496638
O O9 0.500000 0.854922 0.250000
O O10 0.379493 0.895996 0.797989
O O11 0.000000 0.142102 0.250000
O O12 0.971623 0.112821 0.877716
O O13 0.152816 0.942725 0.498145
#
# Coordination Sequence:
#
# PCOD9258648 Si02
#       7
#     8   8   4   8   8   8   4
#     4   9  18  29  59  91 128 181 236 271 317 385
#     4   9  16  33  54  92 132 178 231 279 320 378
#     4  10  26  48  76  99 130 166 217 286 346 422
#     4  10  18  33  63  92 129 178 221 271 326 393
#     4  10  21  38  59  93 133 182 228 276 331 387
#     4  11  24  47  71 103 134 170 219 278 349 414
#     4  12  26  44  70 101 140 172 217 278 334 424
#
# _framework density 22.034030000000001
#
# number of rings (size 3 to 8) (size 9 to 14) (size 15 to 20)
#    0.000    2.000    2.500    1.000    2.333    4.667 
#    3.000    0.833    0.000    0.000    0.000    0.000 
#    0.000    0.000    0.000    0.000    0.000    0.000 
#
# Total GULP energy -134080.071394 kJ/mol
# GULP energy per Si atom -5586.669641 kJ/mol
# Density = 2.198388 g / cm^3
# Si number density = 22.034030 Si / 1000 Ang^3
#
#
#
# Elastic Constant Matrix: (Units=GPa)
#
#
# Indices 1 2 3 4 5 6 
#
# 1 88.8817 45.4502 18.2892 0.0000 13.1464 0.0000
# 2 45.4502 143.6434 21.9746 0.0000 8.9168 0.0000
# 3 18.2892 21.9746 71.4050 0.0000 14.9359 0.0000
# 4 0.0000 0.0000 0.0000 5.2171 0.0000 30.2650
# 5 13.1464 8.9168 14.9359 0.0000 44.7143 0.0000
# 6 0.0000 0.0000 0.0000 30.2650 0.0000 -11.6812
#
#
#
# Elastic Compliance Matrix: (Units=1/GPa)
#
#
# Indices 1 2 3 4 5 6 
#
# 1 0.014076 -0.004009 -0.001799 0.000000 -0.002738 0.000000
# 2 -0.004009 0.008471 -0.001584 0.000000 0.000018 0.000000
# 3 -0.001799 -0.001584 0.015886 0.000000 -0.004462 0.000000
# 4 0.000000 0.000000 0.000000 0.011957 0.000000 0.030980
# 5 -0.002738 0.000018 -0.004462 0.000000 0.024656 0.000000
# 6 0.000000 0.000000 0.000000 0.030980 0.000000 -0.005340
#
#
# Mechanical properties :
#
#
# Convention : Reuss Voigt Hill
#
# Bulk Modulus (GPa) = 42.28323 52.81756 47.55039
# Shear Modulus (GPa) = 54.12858 22.19778 38.16318
#
# Velocity S-wave (km/s) = 4.96178 3.17745 4.16626
# Velocity P-wave (km/s) = 7.21507 6.12246 6.69111
#
# Compressibility (1/GPa) = 0.02365004
#
# Stress axis : x y z
#
# Youngs Moduli (GPa) = 71.04347 118.04655 62.94796
#
# Poissons Ratio (x) = 0.47320 0.11324
# Poissons Ratio (y) = 0.28478 0.09972
# Poissons Ratio (z) = 0.12780 0.18700
#
# Static dielectric constant tensor:
#      x y z
#    x 1.866370 0.000000 -0.076060 
#    y 0.000000 1.726050 0.000000 
#    z -0.076060 0.000000 1.866320 
# 
# From -- ./inp_files/44684.got.cif
#   From: 2010.05.17/outbox.cif.g08.bks.cpg/sg15_23_cif.got.tgz:44684.got - 2010.06.03 18:47:42.
