data_PCOD9258488
_publ_section_title
;
Structure prediction by ZEFSAII (Michael W. Deem and Ramdas Pophale) SiO2 
 PCOD9258488
Probable space group: C 2/C
;
_chemical_formula_sum "Si O2"
_cell_formula_units_Z 60
_cell_length_a 19.458390
_cell_length_b 18.497500
_cell_length_c 12.229710
_cell_angle_alpha 90.000000
_cell_angle_beta 137.561892
_cell_angle_gamma 90.000000
_cell_volume 2970.345172
_symmetry_space_group_name_H-M "C 2/C"
_symmetry_group_IT_number 15
_symmetry_cell_setting 'monoclinic'
loop_
_space_group_symop_operation_xyz
x,y,z
-x,y,1/2-z
-x,-y,-z
x,-y,1/2+z
1/2+x,1/2+y,z
1/2-x,1/2+y,1/2-z
1/2-x,1/2-y,-z
1/2+x,1/2-y,1/2+z
loop_
_atom_site_type_symbol
_atom_site_label
_atom_site_fract_x
_atom_site_fract_y
_atom_site_fract_z
Si Si1 0.745303 0.394609 0.723656
Si Si2 0.138216 0.801760 0.961830
Si Si3 0.802848 0.131849 0.574333
Si Si4 0.500000 0.422658 0.750000
Si Si5 0.845109 0.751011 0.768094
Si Si6 0.893404 0.005128 0.809595
Si Si7 0.892025 0.721272 0.163575
Si Si8 0.063986 0.687414 0.041525
O O1 0.727184 0.408252 0.573537
O O2 0.691114 0.318051 0.697645
O O3 0.690726 0.457426 0.727553
O O4 0.867001 0.385003 0.889352
O O5 0.068915 0.870322 0.905305
O O6 0.139404 0.788239 0.833143
O O7 0.251801 0.803853 0.140667
O O8 0.090348 0.733073 0.965350
O O9 0.879094 0.194589 0.624387
O O10 0.701449 0.174966 0.492465
O O11 0.851033 0.083207 0.725138
O O12 0.422775 0.468971 0.729024
O O13 0.944109 0.704361 0.916325
O O14 0.000000 0.000000 0.000000
O O15 0.887419 0.717515 0.289515
O O16 0.000000 0.693345 0.250000
#
# Coordination Sequence:
#
# PCOD9258488 Si02
#       8
#     8   8   8   4   8   8   8   8
#     4  10  21  39  60  88 126 162 203 255 312 376
#     4  10  19  31  55  86 129 154 201 248 308 365
#     4  10  24  42  62  95 124 157 216 258 312 378
#     4  12  22  38  56  88 122 162 200 250 306 382
#     4  10  18  33  57  90 125 157 197 258 307 365
#     4  12  26  40  61  86 126 167 197 255 315 386
#     4  10  22  40  69  91 118 162 209 273 311 362
#     4  10  19  34  59  90 123 157 206 258 309 367
#
# _framework density 20.199674000000002
#
# number of rings (size 3 to 8) (size 9 to 14) (size 15 to 20)
#    0.000    1.600    2.667    1.600    6.533    1.067 
#    0.000    0.000    2.933    1.600    0.000    0.000 
#    0.000    0.000    0.000    0.000    0.000    0.000 
#
# Total GULP energy -167242.500941 kJ/mol
# GULP energy per Si atom -5574.750031 kJ/mol
# Density = 2.015370 g / cm^3
# Si number density = 20.199674 Si / 1000 Ang^3
#
#
#
# Elastic Constant Matrix: (Units=GPa)
#
#
# Indices 1 2 3 4 5 6 
#
# 1 57.1051 17.5706 23.4802 0.0000 13.2963 0.0000
# 2 17.5706 73.7212 46.6945 0.0000 12.7969 0.0000
# 3 23.4802 46.6945 118.4699 0.0000 27.0518 0.0000
# 4 0.0000 0.0000 0.0000 28.7833 0.0000 3.7556
# 5 13.2963 12.7969 27.0518 0.0000 44.2678 0.0000
# 6 0.0000 0.0000 0.0000 3.7556 0.0000 13.4504
#
#
#
# Elastic Compliance Matrix: (Units=1/GPa)
#
#
# Indices 1 2 3 4 5 6 
#
# 1 0.020130 -0.002871 -0.001937 0.000000 -0.004033 0.000000
# 2 -0.002871 0.018526 -0.006633 0.000000 -0.000440 0.000000
# 3 -0.001937 -0.006633 0.012631 0.000000 -0.005219 0.000000
# 4 0.000000 0.000000 0.000000 0.036056 0.000000 -0.010068
# 5 -0.004033 -0.000440 -0.005219 0.000000 0.027118 0.000000
# 6 0.000000 0.000000 0.000000 -0.010068 0.000000 0.077158
#
#
# Mechanical properties :
#
#
# Convention : Reuss Voigt Hill
#
# Bulk Modulus (GPa) = 35.20360 47.19851 41.20106
# Shear Modulus (GPa) = 22.32444 28.07037 25.19740
#
# Velocity S-wave (km/s) = 3.32804 3.73184 3.53571
# Velocity P-wave (km/s) = 5.67745 6.47962 6.09176
#
# Compressibility (1/GPa) = 0.02840619
#
# Stress axis : x y z
#
# Youngs Moduli (GPa) = 49.67609 53.97748 79.17031
#
# Poissons Ratio (x) = 0.15495 0.15339
# Poissons Ratio (y) = 0.14260 0.52510
# Poissons Ratio (z) = 0.09625 0.35801
#
# Static dielectric constant tensor:
#      x y z
#    x 1.781740 0.000000 0.014320 
#    y 0.000000 1.719870 0.000000 
#    z 0.014320 0.000000 1.755450 
# 
# From -- ./inp_files/113838.got.cif
#   From: 2010.05.17/outbox.cif.g08.bks.cpg/sg15_57_cif.got.tgz:113838.got - 2010.06.03 18:47:42.
