data_PCOD9258617
_publ_section_title
;
Structure prediction by ZEFSAII (Michael W. Deem and Ramdas Pophale) SiO2 
 PCOD9258617
Probable space group: C 2/C
;
_chemical_formula_sum "Si O2"
_cell_formula_units_Z 40
_cell_length_a 23.880439
_cell_length_b 6.798489
_cell_length_c 16.355291
_cell_angle_alpha 90.000000
_cell_angle_beta 32.697765
_cell_angle_gamma 90.000000
_cell_volume 1434.410931
_symmetry_space_group_name_H-M "C 2/C"
_symmetry_group_IT_number 15
_symmetry_cell_setting 'monoclinic'
loop_
_space_group_symop_operation_xyz
x,y,z
-x,y,1/2-z
-x,-y,-z
x,-y,1/2+z
1/2+x,1/2+y,z
1/2-x,1/2+y,1/2-z
1/2-x,1/2-y,-z
1/2+x,1/2-y,1/2+z
loop_
_atom_site_type_symbol
_atom_site_label
_atom_site_fract_x
_atom_site_fract_y
_atom_site_fract_z
Si Si1 0.621987 0.957571 0.095218
Si Si2 0.076741 0.846683 0.865662
Si Si3 0.830554 0.004292 0.415627
Si Si4 0.876627 0.335515 0.576729
Si Si5 0.317790 0.611058 0.101074
O O1 0.500000 0.001923 0.250000
O O2 0.639274 0.723124 0.090571
O O3 0.708276 0.036141 0.051838
O O4 0.653603 0.978530 0.961090
O O5 0.125298 0.967871 0.730367
O O6 0.145139 0.787431 0.859631
O O7 0.001348 0.670036 0.930449
O O8 0.000000 0.000000 0.000000
O O9 0.862377 0.865924 0.453650
O O10 0.806536 0.369365 0.742150
O O11 0.847050 0.115071 0.584775
#
# Coordination Sequence:
#
# PCOD9258617 Si02
#       5
#     8   8   8   8   8
#     4  10  18  33  61  90 118 153 214 257 299 355
#     4  10  20  36  62  89 121 163 210 247 302 380
#     4  10  20  35  61  91 118 163 206 258 300 367
#     4  10  20  37  62  91 124 160 204 262 304 366
#     4  10  22  38  61  95 125 159 208 257 310 365
#
# _framework density 27.886009999999999
#
# number of rings (size 3 to 8) (size 9 to 14) (size 15 to 20)
#    0.000    2.000    4.000    0.000    0.000    0.000 
#    0.000    8.000    0.000    0.000    0.000    0.000 
#    0.000    0.000    0.000    0.000    0.000    0.000 
#
# Total GULP energy -111558.467271 kJ/mol
# GULP energy per Si atom -5577.923364 kJ/mol
# Density = 2.782254 g / cm^3
# Si number density = 27.886010 Si / 1000 Ang^3
#
#
#
# Elastic Constant Matrix: (Units=GPa)
#
#
# Indices 1 2 3 4 5 6 
#
# 1 180.3182 30.2606 125.5622 -0.0021 18.7154 0.0017
# 2 30.2606 25.8157 1.3985 -0.0066 4.7902 0.0069
# 3 125.5622 1.3985 180.8550 -0.0019 23.0047 0.0016
# 4 -0.0021 -0.0066 -0.0019 33.0945 0.0013 4.5551
# 5 18.7154 4.7902 23.0047 0.0013 67.1592 -0.0004
# 6 0.0017 0.0069 0.0016 4.5551 -0.0004 59.2319
#
#
#
# Elastic Compliance Matrix: (Units=1/GPa)
#
#
# Indices 1 2 3 4 5 6 
#
# 1 0.016722 -0.019098 -0.011545 -0.000004 0.000657 0.000002
# 2 -0.019098 0.061067 0.013241 0.000013 -0.003569 -0.000008
# 3 -0.011545 0.013241 0.013753 0.000003 -0.002438 -0.000002
# 4 -0.000004 0.000013 0.000003 0.030540 -0.000002 -0.002349
# 5 0.000657 -0.003569 -0.002438 -0.000002 0.015797 0.000001
# 6 0.000002 -0.000008 -0.000002 -0.002349 0.000001 0.017063
#
#
# Mechanical properties :
#
#
# Convention : Reuss Voigt Hill
#
# Bulk Modulus (GPa) = 17.62524 77.93683 47.78104
# Shear Modulus (GPa) = 23.96259 47.21496 35.58877
#
# Velocity S-wave (km/s) = 2.93457 4.11924 3.57630
# Velocity P-wave (km/s) = 4.22095 7.11571 5.85020
#
# Compressibility (1/GPa) = 0.05673681
#
# Stress axis : x y z
#
# Youngs Moduli (GPa) = 59.80133 16.37546 72.71306
#
# Poissons Ratio (x) = 0.31273 0.83951
# Poissons Ratio (y) = 1.14207 -0.96277
# Poissons Ratio (z) = 0.69044 -0.21682
#
# Static dielectric constant tensor:
#      x y z
#    x 2.779090 -0.000010 -0.170690 
#    y -0.000010 2.304440 0.000000 
#    z -0.170690 0.000000 2.198550 
# 
# From -- ./inp_files/173064.got.cif
#   From: 2010.05.17/outbox.cif.g08.bks.cpg/sg15_87_cif.got.tgz:173064.got - 2010.06.03 18:47:42.
