data_PCOD9258024
_publ_section_title
;
Structure prediction by ZEFSAII (Michael W. Deem and Ramdas Pophale) SiO2 
 PCOD9258024
Probable space group: C 2/C
;
_chemical_formula_sum "Si O2"
_cell_formula_units_Z 60
_cell_length_a 11.390272
_cell_length_b 27.534118
_cell_length_c 7.156742
_cell_angle_alpha 90.000000
_cell_angle_beta 72.713485
_cell_angle_gamma 90.000000
_cell_volume 2143.122660
_symmetry_space_group_name_H-M "C 2/C"
_symmetry_group_IT_number 15
_symmetry_cell_setting 'monoclinic'
loop_
_space_group_symop_operation_xyz
x,y,z
-x,y,1/2-z
-x,-y,-z
x,-y,1/2+z
1/2+x,1/2+y,z
1/2-x,1/2+y,1/2-z
1/2-x,1/2-y,-z
1/2+x,1/2-y,1/2+z
loop_
_atom_site_type_symbol
_atom_site_label
_atom_site_fract_x
_atom_site_fract_y
_atom_site_fract_z
Si Si1 0.675883 0.067934 0.135489
Si Si2 0.511444 0.342545 0.023157
Si Si3 0.252114 0.771055 0.289142
Si Si4 0.500000 0.733796 0.250000
Si Si5 0.117231 0.535952 0.563607
Si Si6 0.850500 0.636211 0.855072
Si Si7 0.965312 0.944521 0.481623
Si Si8 0.699540 0.170837 0.198139
O O1 0.603296 0.056176 0.361125
O O2 0.646045 0.124471 0.104371
O O3 0.660639 0.019350 0.019492
O O4 0.822694 0.063564 0.100183
O O5 0.500000 0.336179 0.250000
O O6 0.472613 0.395697 0.968964
O O7 0.445891 0.301252 0.935507
O O8 0.654792 0.333967 0.905171
O O9 0.250000 0.750000 0.500000
O O10 0.400084 0.764274 0.187584
O O11 0.258384 0.829644 0.277670
O O12 0.179426 0.729888 0.202297
O O13 0.192103 0.579742 0.627124
O O14 0.000000 0.533380 0.750000
O O15 0.000000 0.636851 0.750000
O O16 0.833896 0.655879 0.074494
O O17 0.000000 0.938648 0.250000
O O18 0.000000 0.000000 0.500000
#
# Coordination Sequence:
#
# PCOD9258024 Si02
#       8
#     8   8   8   4   8   8   8   8
#     4  10  19  35  52  75 111 141 180 226 276 329
#     4   9  19  34  51  79 111 143 185 231 280 335
#     4   9  16  30  52  83 104 134 184 228 274 330
#     4  10  18  32  58  82 100 146 184 226 284 336
#     4  10  20  33  54  82 107 144 181 224 274 334
#     4   9  16  29  51  83 110 133 180 234 272 324
#     4  10  20  33  49  73 108 147 182 227 277 326
#     4   8  17  31  53  73 107 144 175 223 278 328
#
# _framework density 27.996531000000001
#
# number of rings (size 3 to 8) (size 9 to 14) (size 15 to 20)
#    0.000    2.667    0.667    1.200    0.933    0.000 
#    7.200    0.000    0.000    7.200    6.933    0.000 
#    0.000    0.000    0.000    0.000    0.000    0.000 
#
# Total GULP energy -167251.487560 kJ/mol
# GULP energy per Si atom -5575.049585 kJ/mol
# Density = 2.793281 g / cm^3
# Si number density = 27.996531 Si / 1000 Ang^3
#
#
#
# Elastic Constant Matrix: (Units=GPa)
#
#
# Indices 1 2 3 4 5 6 
#
# 1 66.8616 19.0476 21.0983 0.0000 -9.3259 0.0000
# 2 19.0476 220.0511 9.6801 0.0000 39.6109 0.0000
# 3 21.0983 9.6801 148.7334 0.0000 -7.2507 0.0000
# 4 0.0000 0.0000 0.0000 63.1286 0.0000 -4.6011
# 5 -9.3259 39.6109 -7.2507 0.0000 36.4906 0.0000
# 6 0.0000 0.0000 0.0000 -4.6011 0.0000 34.2442
#
#
#
# Elastic Compliance Matrix: (Units=1/GPa)
#
#
# Indices 1 2 3 4 5 6 
#
# 1 0.017291 -0.002656 -0.001943 0.000000 0.006916 0.000000
# 2 -0.002656 0.006124 -0.000383 0.000000 -0.007402 0.000000
# 3 -0.001943 -0.000383 0.007089 0.000000 0.001327 0.000000
# 4 0.000000 0.000000 0.000000 0.015997 0.000000 0.002149
# 5 0.006916 -0.007402 0.001327 0.000000 0.037471 0.000000
# 6 0.000000 0.000000 0.000000 0.002149 0.000000 0.029491
#
#
# Mechanical properties :
#
#
# Convention : Reuss Voigt Hill
#
# Bulk Modulus (GPa) = 48.68579 59.47758 54.08169
# Shear Modulus (GPa) = 38.38143 52.49401 45.43772
#
# Velocity S-wave (km/s) = 3.70663 4.33485 4.03299
# Velocity P-wave (km/s) = 5.97884 6.80774 6.40671
#
# Compressibility (1/GPa) = 0.02053987
#
# Stress axis : x y z
#
# Youngs Moduli (GPa) = 57.83464 163.30323 141.07105
#
# Poissons Ratio (x) = 0.43377 0.27406
# Poissons Ratio (y) = 0.15362 0.05397
# Poissons Ratio (z) = 0.11236 0.06248
#
# Static dielectric constant tensor:
#      x y z
#    x 2.322430 0.000000 -0.019820 
#    y 0.000000 2.338490 0.000000 
#    z -0.019820 0.000000 2.183480 
# 
# From -- ./inp_files/52175.got.cif
#   From: 2010.05.17/outbox.cif.g08.bks.cpg/sg15_27_cif.got.tgz:52175.got - 2010.06.03 18:47:42.
