data_PCOD9258384
_publ_section_title
;
Structure prediction by ZEFSAII (Michael W. Deem and Ramdas Pophale) SiO2 
 PCOD9258384
Probable space group: C 2/C
;
_chemical_formula_sum "Si O2"
_cell_formula_units_Z 64
_cell_length_a 19.417039
_cell_length_b 11.263659
_cell_length_c 14.386141
_cell_angle_alpha 90.000000
_cell_angle_beta 93.603080
_cell_angle_gamma 90.000000
_cell_volume 3140.129164
_symmetry_space_group_name_H-M "C 2/C"
_symmetry_group_IT_number 15
_symmetry_cell_setting 'monoclinic'
loop_
_space_group_symop_operation_xyz
x,y,z
-x,y,1/2-z
-x,-y,-z
x,-y,1/2+z
1/2+x,1/2+y,z
1/2-x,1/2+y,1/2-z
1/2-x,1/2-y,-z
1/2+x,1/2-y,1/2+z
loop_
_atom_site_type_symbol
_atom_site_label
_atom_site_fract_x
_atom_site_fract_y
_atom_site_fract_z
Si Si1 0.434353 0.464305 0.619015
Si Si2 0.842019 0.671465 0.082871
Si Si3 0.445600 0.801253 0.132746
Si Si4 0.919688 0.535497 0.480739
Si Si5 0.319659 0.311811 0.900065
Si Si6 0.098517 0.385902 0.184865
Si Si7 0.418219 0.309621 0.241577
Si Si8 0.906394 0.963692 0.403678
O O1 0.429846 0.332678 0.659930
O O2 0.406945 0.568144 0.682066
O O3 0.400925 0.455087 0.514271
O O4 0.514946 0.496661 0.611008
O O5 0.873984 0.555709 0.037221
O O6 0.760996 0.664046 0.096023
O O7 0.880641 0.709136 0.179596
O O8 0.849419 0.773131 0.003811
O O9 0.528257 0.820159 0.142736
O O10 0.413110 0.889269 0.206514
O O11 0.417125 0.836952 0.029397
O O12 0.899846 0.508428 0.372566
O O13 0.000000 0.500000 0.500000
O O14 0.338234 0.198742 0.837567
O O15 0.357163 0.429509 0.869166
O O16 0.500000 0.283974 0.250000
O O17 0.394540 0.344872 0.342967
#
# Coordination Sequence:
#
# PCOD9258384 Si02
#       8
#     8   8   8   8   8   8   8   8
#     4  10  19  31  56  88 116 140 192 242 295 344
#     4  10  21  38  57  85 111 155 200 236 292 351
#     4  10  18  33  55  83 113 142 194 248 282 344
#     4   9  20  36  55  77 111 149 192 247 279 336
#     4  10  18  36  62  78 116 154 197 236 280 370
#     4   9  18  32  56  82 102 152 199 228 291 343
#     4  10  21  35  56  87 119 144 189 251 294 340
#     4  10  19  32  56  88 114 153 181 239 303 340
#
# _framework density 20.381326000000001
#
# number of rings (size 3 to 8) (size 9 to 14) (size 15 to 20)
#    0.000    2.250    2.500    0.750    3.500    0.000 
#    9.000    0.000    0.000    0.750    0.000    0.000 
#    0.000    0.000    0.000    0.000    0.000    0.000 
#
# Total GULP energy -178503.311567 kJ/mol
# GULP energy per Si atom -5578.228486 kJ/mol
# Density = 2.033494 g / cm^3
# Si number density = 20.381326 Si / 1000 Ang^3
#
#
#
# Elastic Constant Matrix: (Units=GPa)
#
#
# Indices 1 2 3 4 5 6 
#
# 1 39.4598 -2.1795 7.5092 0.0000 -10.5833 0.0000
# 2 -2.1795 25.7803 1.7702 0.0000 4.6277 0.0000
# 3 7.5092 1.7702 77.1680 0.0000 3.2233 0.0000
# 4 0.0000 0.0000 0.0000 27.3285 0.0000 -0.1431
# 5 -10.5833 4.6277 3.2233 0.0000 22.0444 0.0000
# 6 0.0000 0.0000 0.0000 -0.1431 0.0000 13.4017
#
#
#
# Elastic Compliance Matrix: (Units=1/GPa)
#
#
# Indices 1 2 3 4 5 6 
#
# 1 0.030022 0.000105 -0.003547 0.000000 0.014910 0.000000
# 2 0.000105 0.040334 -0.000587 0.000000 -0.008331 0.000000
# 3 -0.003547 -0.000587 0.013466 0.000000 -0.003548 0.000000
# 4 0.000000 0.000000 0.000000 0.036594 0.000000 0.000391
# 5 0.014910 -0.008331 -0.003548 0.000000 0.054789 0.000000
# 6 0.000000 0.000000 0.000000 0.000391 0.000000 0.074622
#
#
# Mechanical properties :
#
#
# Convention : Reuss Voigt Hill
#
# Bulk Modulus (GPa) = 13.19896 17.40089 15.29992
# Shear Modulus (GPa) = 17.65926 21.57547 19.61737
#
# Velocity S-wave (km/s) = 2.94673 3.25713 3.10581
# Velocity P-wave (km/s) = 4.25061 4.76460 4.51492
#
# Compressibility (1/GPa) = 0.07576355
#
# Stress axis : x y z
#
# Youngs Moduli (GPa) = 33.30916 24.79296 74.26367
#
# Poissons Ratio (x) = -0.00261 0.26338
# Poissons Ratio (y) = -0.00350 0.04363
# Poissons Ratio (z) = 0.11813 0.01457
#
# Static dielectric constant tensor:
#      x y z
#    x 1.667950 0.000000 0.002950 
#    y 0.000000 1.735020 0.000000 
#    z 0.002950 0.000000 1.781740 
# 
# From -- ./inp_files/161348.got.cif
#   From: 2010.05.17/outbox.cif.g08.bks.cpg/sg15_81_cif.got.tgz:161348.got - 2010.06.03 18:47:42.
