data_PCOD9258605
_publ_section_title
;
Structure prediction by ZEFSAII (Michael W. Deem and Ramdas Pophale) SiO2 
 PCOD9258605
Probable space group: C 2/C
;
_chemical_formula_sum "Si O2"
_cell_formula_units_Z 52
_cell_length_a 27.637266
_cell_length_b 6.981083
_cell_length_c 19.294730
_cell_angle_alpha 90.000000
_cell_angle_beta 146.981594
_cell_angle_gamma 90.000000
_cell_volume 2028.523807
_symmetry_space_group_name_H-M "C 2/C"
_symmetry_group_IT_number 15
_symmetry_cell_setting 'monoclinic'
loop_
_space_group_symop_operation_xyz
x,y,z
-x,y,1/2-z
-x,-y,-z
x,-y,1/2+z
1/2+x,1/2+y,z
1/2-x,1/2+y,1/2-z
1/2-x,1/2-y,-z
1/2+x,1/2-y,1/2+z
loop_
_atom_site_type_symbol
_atom_site_label
_atom_site_fract_x
_atom_site_fract_y
_atom_site_fract_z
Si Si1 0.529402 0.153483 0.145690
Si Si2 0.182770 0.436792 0.737567
Si Si3 0.331718 0.322597 0.479772
Si Si4 0.738144 0.025865 0.657472
Si Si5 0.580665 0.466216 0.543492
Si Si6 0.153516 0.150965 0.896799
Si Si7 0.000000 0.593470 0.250000
O O1 0.585553 0.070938 0.151347
O O2 0.596109 0.319476 0.257624
O O3 0.516937 0.006316 0.194957
O O4 0.443171 0.263437 0.018569
O O5 0.237560 0.604515 0.837755
O O6 0.179410 0.463261 0.652378
O O7 0.243406 0.250546 0.829099
O O8 0.308252 0.097470 0.458933
O O9 0.398797 0.392858 0.498161
O O10 0.345569 0.441399 0.567351
O O11 0.834030 0.966099 0.804624
O O12 0.500000 0.500000 0.500000
O O13 0.086319 0.272592 0.864563
O O14 0.250000 0.250000 0.000000
#
# Coordination Sequence:
#
# PCOD9258605 Si02
#       7
#     8   8   8   8   8   8   4
#     4  10  18  34  57  88 114 159 201 239 303 361
#     4  11  20  35  59  86 121 147 201 240 291 361
#     4  11  20  38  60  85 117 152 201 249 290 356
#     4  11  22  34  59  87 118 156 193 242 305 351
#     4  11  19  33  58  83 120 155 191 250 300 360
#     4  10  18  33  61  83 114 156 204 246 293 356
#     4   8  18  30  54  90 106 156 206 232 308 348
#
# _framework density 25.634405000000001
#
# number of rings (size 3 to 8) (size 9 to 14) (size 15 to 20)
#    0.923    0.615    7.692    0.000    0.000    0.000 
#    0.000    1.538    3.385    0.000    0.000    6.462 
#    0.000    0.000    0.000    0.000    0.000    0.000 
#
# Total GULP energy -144968.304757 kJ/mol
# GULP energy per Si atom -5575.704029 kJ/mol
# Density = 2.557606 g / cm^3
# Si number density = 25.634405 Si / 1000 Ang^3
#
#
#
# Elastic Constant Matrix: (Units=GPa)
#
#
# Indices 1 2 3 4 5 6 
#
# 1 146.9419 19.5073 22.6380 0.0000 25.4909 0.0000
# 2 19.5073 98.1490 28.4457 0.0000 2.1497 0.0000
# 3 22.6380 28.4457 80.9715 0.0000 15.1259 0.0000
# 4 0.0000 0.0000 0.0000 33.0694 0.0000 -2.4343
# 5 25.4909 2.1497 15.1259 0.0000 35.1196 0.0000
# 6 0.0000 0.0000 0.0000 -2.4343 0.0000 10.9412
#
#
#
# Elastic Compliance Matrix: (Units=1/GPa)
#
#
# Indices 1 2 3 4 5 6 
#
# 1 0.008032 -0.001247 -0.000797 0.000000 -0.005411 0.000000
# 2 -0.001247 0.011577 -0.004084 0.000000 0.001955 0.000000
# 3 -0.000797 -0.004084 0.015065 0.000000 -0.005660 0.000000
# 4 0.000000 0.000000 0.000000 0.030743 0.000000 0.006840
# 5 -0.005411 0.001955 -0.005660 0.000000 0.034719 0.000000
# 6 0.000000 0.000000 0.000000 0.006840 0.000000 0.092919
#
#
# Mechanical properties :
#
#
# Convention : Reuss Voigt Hill
#
# Bulk Modulus (GPa) = 44.60494 51.91604 48.26049
# Shear Modulus (GPa) = 23.49797 32.85745 28.17771
#
# Velocity S-wave (km/s) = 3.03092 3.58407 3.31904
# Velocity P-wave (km/s) = 5.44856 6.11750 5.79270
#
# Compressibility (1/GPa) = 0.02241904
#
# Stress axis : x y z
#
# Youngs Moduli (GPa) = 124.49681 86.37690 66.38004
#
# Poissons Ratio (x) = 0.10771 0.05290
# Poissons Ratio (y) = 0.15525 0.27108
# Poissons Ratio (z) = 0.09921 0.35274
#
# Static dielectric constant tensor:
#      x y z
#    x 2.120690 0.000000 -0.002560 
#    y 0.000000 2.080110 0.000000 
#    z -0.002560 0.000000 1.997340 
# 
# From -- ./inp_files/284225.got.cif
#   From: 2010.05.17/outbox.cif.g08.bks.cpg/sg15_143_cif.got.tgz:284225.got - 2010.06.03 18:47:42.
