data_PCOD9258903
_publ_section_title
;
Structure prediction by ZEFSAII (Michael W. Deem and Ramdas Pophale) SiO2 
 PCOD9258903
Probable space group: C 2/C
;
_chemical_formula_sum "Si O2"
_cell_formula_units_Z 56
_cell_length_a 22.168428
_cell_length_b 16.412104
_cell_length_c 15.557517
_cell_angle_alpha 90.000000
_cell_angle_beta 150.034324
_cell_angle_gamma 90.000000
_cell_volume 2827.212840
_symmetry_space_group_name_H-M "C 2/C"
_symmetry_group_IT_number 15
_symmetry_cell_setting 'monoclinic'
loop_
_space_group_symop_operation_xyz
x,y,z
-x,y,1/2-z
-x,-y,-z
x,-y,1/2+z
1/2+x,1/2+y,z
1/2-x,1/2+y,1/2-z
1/2-x,1/2-y,-z
1/2+x,1/2-y,1/2+z
loop_
_atom_site_type_symbol
_atom_site_label
_atom_site_fract_x
_atom_site_fract_y
_atom_site_fract_z
Si Si1 0.791937 0.576934 0.188700
Si Si2 0.104379 0.871773 0.081055
Si Si3 0.825302 0.141311 0.200082
Si Si4 0.019590 0.352841 0.870193
Si Si5 0.215199 0.235145 0.190991
Si Si6 0.700164 0.006744 0.623857
Si Si7 0.361545 0.431582 0.566640
O O1 0.715461 0.649565 0.139831
O O2 0.835046 0.522711 0.323598
O O3 0.897711 0.620981 0.267291
O O4 0.719896 0.512857 0.040096
O O5 0.164088 0.786418 0.182189
O O6 0.174436 0.942467 0.218150
O O7 0.143845 0.887798 0.031579
O O8 0.960334 0.876237 0.903964
O O9 0.786778 0.218270 0.209203
O O10 0.834040 0.132585 0.108590
O O11 0.728879 0.072642 0.105624
O O12 0.000000 0.320451 0.750000
O O13 0.101076 0.289563 0.023880
O O14 0.099568 0.434678 0.962314
O O15 0.500000 0.458820 0.750000
#
# Coordination Sequence:
#
# PCOD9258903 Si02
#       7
#     8   8   8   8   8   8   8
#     4  10  20  37  56  78 109 139 175 221 265 310
#     4   9  18  34  52  77 110 142 177 217 262 312
#     4  10  18  34  57  79 105 139 180 219 260 311
#     4  11  22  36  54  79 110 141 175 218 265 315
#     4  10  22  35  53  79 109 145 175 209 266 324
#     4   9  19  34  55  78 103 142 184 218 259 310
#     4   9  19  34  57  82 104 136 179 226 262 303
#
# _framework density 19.807492
#
# number of rings (size 3 to 8) (size 9 to 14) (size 15 to 20)
#    0.000    2.286    0.000    2.571    0.000    2.857 
#    0.000    0.000    0.000   10.286    0.000    0.000 
#    0.000    0.000    0.000    0.000    0.000    0.000 
#
# Total GULP energy -156076.123670 kJ/mol
# GULP energy per Si atom -5574.147274 kJ/mol
# Density = 1.976241 g / cm^3
# Si number density = 19.807492 Si / 1000 Ang^3
#
#
#
# Elastic Constant Matrix: (Units=GPa)
#
#
# Indices 1 2 3 4 5 6 
#
# 1 38.2670 9.5470 7.4304 0.0000 9.0317 0.0000
# 2 9.5470 76.5959 26.0725 0.0000 1.3102 0.0000
# 3 7.4304 26.0725 41.0988 0.0000 -0.8520 0.0000
# 4 0.0000 0.0000 0.0000 17.4256 0.0000 2.3258
# 5 9.0317 1.3102 -0.8520 0.0000 23.6997 0.0000
# 6 0.0000 0.0000 0.0000 2.3258 0.0000 11.6532
#
#
#
# Elastic Compliance Matrix: (Units=1/GPa)
#
#
# Indices 1 2 3 4 5 6 
#
# 1 0.030232 -0.002077 -0.004388 0.000000 -0.011564 0.000000
# 2 -0.002077 0.016834 -0.010314 0.000000 -0.000510 0.000000
# 3 -0.004388 -0.010314 0.031738 0.000000 0.003383 0.000000
# 4 0.000000 0.000000 0.000000 0.058957 0.000000 -0.011767
# 5 -0.011564 -0.000510 0.003383 0.000000 0.046751 0.000000
# 6 0.000000 0.000000 0.000000 -0.011767 0.000000 0.088162
#
#
# Mechanical properties :
#
#
# Convention : Reuss Voigt Hill
#
# Bulk Modulus (GPa) = 22.10149 26.89574 24.49862
# Shear Modulus (GPa) = 15.56107 18.08314 16.82210
#
# Velocity S-wave (km/s) = 2.80592 3.02478 2.91740
# Velocity P-wave (km/s) = 4.65618 5.08007 4.87273
#
# Compressibility (1/GPa) = 0.04524581
#
# Stress axis : x y z
#
# Youngs Moduli (GPa) = 33.07799 59.40349 31.50755
#
# Poissons Ratio (x) = 0.12336 0.13826
# Poissons Ratio (y) = 0.06869 0.32498
# Poissons Ratio (z) = 0.14515 0.61271
#
# Static dielectric constant tensor:
#      x y z
#    x 1.714080 0.000000 -0.015280 
#    y 0.000000 1.697640 0.000000 
#    z -0.015280 0.000000 1.678920 
# 
# From -- ./inp_files/98246.got.cif
#   From: 2010.05.17/outbox.cif.g08.bks.cpg/sg15_50_cif.got.tgz:98246.got - 2010.06.03 18:47:42.
