data_PCOD9258391
_publ_section_title
;
Structure prediction by ZEFSAII (Michael W. Deem and Ramdas Pophale) SiO2 
 PCOD9258391
Probable space group: C 2/C
;
_chemical_formula_sum "Si O2"
_cell_formula_units_Z 52
_cell_length_a 24.347135
_cell_length_b 13.769119
_cell_length_c 20.242576
_cell_angle_alpha 90.000000
_cell_angle_beta 160.076265
_cell_angle_gamma 90.000000
_cell_volume 2312.490329
_symmetry_space_group_name_H-M "C 2/C"
_symmetry_group_IT_number 15
_symmetry_cell_setting 'monoclinic'
loop_
_space_group_symop_operation_xyz
x,y,z
-x,y,1/2-z
-x,-y,-z
x,-y,1/2+z
1/2+x,1/2+y,z
1/2-x,1/2+y,1/2-z
1/2-x,1/2-y,-z
1/2+x,1/2-y,1/2+z
loop_
_atom_site_type_symbol
_atom_site_label
_atom_site_fract_x
_atom_site_fract_y
_atom_site_fract_z
Si Si1 0.785336 0.365187 0.234153
Si Si2 0.241270 0.997173 0.416571
Si Si3 0.588734 0.353157 0.645829
Si Si4 0.867823 0.649819 0.968284
Si Si5 0.484604 0.650658 0.889030
Si Si6 0.809427 0.387463 0.121338
Si Si7 0.500000 0.747449 0.250000
O O1 0.880186 0.391742 0.408343
O O2 0.824176 0.424973 0.212198
O O3 0.849107 0.256869 0.288457
O O4 0.593238 0.362942 0.031354
O O5 0.200694 0.084724 0.320783
O O6 0.377001 0.930728 0.535175
O O7 0.714354 0.033044 0.961755
O O8 0.077322 0.932490 0.229741
O O9 0.590949 0.387473 0.571008
O O10 0.680139 0.680278 0.760360
O O11 0.957554 0.750757 0.078367
O O12 0.950255 0.316789 0.254346
O O13 0.649382 0.320207 0.937408
#
# Coordination Sequence:
#
# PCOD9258391 Si02
#       7
#     8   8   8   8   8   8   4
#     4  10  19  31  57  83 118 150 174 225 292 351
#     4  10  20  31  57  82 117 147 194 230 274 342
#     4  10  18  33  55  84 118 147 182 222 291 348
#     4   8  18  34  56  81 114 143 188 232 290 327
#     4   8  17  33  56  78 111 151 184 234 283 332
#     4  11  20  35  56  85 120 152 187 222 283 352
#     4  10  22  36  56  84 126 154 168 224 298 360
#
# _framework density 22.486581999999999
#
# number of rings (size 3 to 8) (size 9 to 14) (size 15 to 20)
#    0.923    1.538    0.000    4.154    0.000    0.000 
#    0.000    0.000   13.538    6.462    0.000   14.000 
#    9.231    0.000    0.000    0.000    0.000    0.000 
#
# Total GULP energy -145056.133069 kJ/mol
# GULP energy per Si atom -5579.082041 kJ/mol
# Density = 2.243540 g / cm^3
# Si number density = 22.486582 Si / 1000 Ang^3
#
#
#
# Elastic Constant Matrix: (Units=GPa)
#
#
# Indices 1 2 3 4 5 6 
#
# 1 355.3920 79.3058 63.5790 0.0127 -24.0701 0.0087
# 2 79.3058 70.5680 23.1449 0.0002 -14.0627 0.0003
# 3 63.5790 23.1449 55.9079 0.0013 -4.6662 0.0009
# 4 0.0127 0.0002 0.0013 31.1109 -0.0016 11.4560
# 5 -24.0701 -14.0627 -4.6662 -0.0016 24.9367 -0.0014
# 6 0.0087 0.0003 0.0009 11.4560 -0.0014 16.2480
#
#
#
# Elastic Compliance Matrix: (Units=1/GPa)
#
#
# Indices 1 2 3 4 5 6 
#
# 1 0.004274 -0.003397 -0.003321 -0.000001 0.001588 -0.000001
# 2 -0.003397 0.020885 -0.004138 0.000001 0.007724 0.000001
# 3 -0.003321 -0.004138 0.023278 0.000000 -0.001184 0.000000
# 4 -0.000001 0.000001 0.000000 0.043415 0.000001 -0.030611
# 5 0.001588 0.007724 -0.001184 0.000001 0.045769 0.000002
# 6 -0.000001 0.000001 0.000000 -0.030611 0.000002 0.083129
#
#
# Mechanical properties :
#
#
# Convention : Reuss Voigt Hill
#
# Bulk Modulus (GPa) = 37.42014 90.43636 63.92825
# Shear Modulus (GPa) = 19.89112 35.51502 27.70307
#
# Velocity S-wave (km/s) = 2.97741 3.97846 3.51377
# Velocity P-wave (km/s) = 5.33828 7.83642 6.70472
#
# Compressibility (1/GPa) = 0.02672357
#
# Stress axis : x y z
#
# Youngs Moduli (GPa) = 233.99994 47.88155 42.95968
#
# Poissons Ratio (x) = 0.16265 0.14267
# Poissons Ratio (y) = 0.79489 0.17778
# Poissons Ratio (z) = 0.77712 0.19814
#
# Static dielectric constant tensor:
#      x y z
#    x 1.869670 0.000000 0.006680 
#    y 0.000000 1.841350 0.000000 
#    z 0.006680 0.000000 1.898460 
# 
# From -- ./inp_files/303342.got.cif
#   From: 2010.05.17/outbox.cif.g08.bks.cpg/sg15_152_cif.got.tgz:303342.got - 2010.06.03 18:47:42.
