data_PCOD9258547
_publ_section_title
;
Structure prediction by ZEFSAII (Michael W. Deem and Ramdas Pophale) SiO2 
 PCOD9258547
Probable space group: C 2/C
;
_chemical_formula_sum "Si O2"
_cell_formula_units_Z 64
_cell_length_a 22.633731
_cell_length_b 13.732825
_cell_length_c 14.458075
_cell_angle_alpha 90.000000
_cell_angle_beta 41.658465
_cell_angle_gamma 90.000000
_cell_volume 2987.066917
_symmetry_space_group_name_H-M "C 2/C"
_symmetry_group_IT_number 15
_symmetry_cell_setting 'monoclinic'
loop_
_space_group_symop_operation_xyz
x,y,z
-x,y,1/2-z
-x,-y,-z
x,-y,1/2+z
1/2+x,1/2+y,z
1/2-x,1/2+y,1/2-z
1/2-x,1/2-y,-z
1/2+x,1/2-y,1/2+z
loop_
_atom_site_type_symbol
_atom_site_label
_atom_site_fract_x
_atom_site_fract_y
_atom_site_fract_z
Si Si1 0.177761 0.831667 0.176411
Si Si2 0.314407 0.886696 0.871793
Si Si3 0.998228 0.888981 0.470753
Si Si4 0.958050 0.217989 0.202500
Si Si5 0.876450 0.588008 0.787952
Si Si6 0.265800 0.347592 0.183665
Si Si7 0.742504 0.652014 0.106131
Si Si8 0.311634 0.440840 0.645356
O O1 0.158596 0.725450 0.155930
O O2 0.227927 0.821766 0.216086
O O3 0.081735 0.875155 0.308109
O O4 0.240030 0.895691 0.038247
O O5 0.261008 0.901906 0.839626
O O6 0.387251 0.972360 0.787192
O O7 0.002711 0.821204 0.556433
O O8 0.902050 0.878919 0.535637
O O9 0.000000 0.000000 0.500000
O O10 0.956026 0.335855 0.203413
O O11 0.855546 0.181597 0.315593
O O12 0.000000 0.184621 0.250000
O O13 0.828469 0.614505 0.746575
O O14 0.804842 0.616258 0.951199
O O15 0.284162 0.249587 0.104344
O O16 0.325416 0.445217 0.104811
O O17 0.725387 0.574121 0.207568
#
# Coordination Sequence:
#
# PCOD9258547 Si02
#       8
#     8   8   8   8   8   8   8   8
#     4  11  22  40  61  89 121 160 201 245 300 361
#     4  10  23  40  66  86 116 161 214 245 292 353
#     4  11  24  38  57  91 130 154 194 240 315 366
#     4  10  23  37  60  90 124 158 194 252 309 360
#     4  10  22  38  63  90 118 156 209 253 295 357
#     4  10  18  33  59  86 119 154 195 249 291 348
#     4  10  20  36  60  92 121 157 203 249 299 352
#     4  10  20  37  58  91 123 156 198 246 302 361
#
# _framework density 21.425701
#
# number of rings (size 3 to 8) (size 9 to 14) (size 15 to 20)
#    0.000    1.750    2.500    2.250    5.250    0.500 
#    0.000    0.625    5.500    0.000    0.000    0.000 
#    0.000    0.000    0.000    0.000    0.000    0.000 
#
# Total GULP energy -178642.099089 kJ/mol
# GULP energy per Si atom -5582.565597 kJ/mol
# Density = 2.137694 g / cm^3
# Si number density = 21.425701 Si / 1000 Ang^3
#
#
#
# Elastic Constant Matrix: (Units=GPa)
#
#
# Indices 1 2 3 4 5 6 
#
# 1 66.9915 2.6613 1.6630 0.0000 10.5896 0.0000
# 2 2.6613 113.1508 17.0137 0.0000 -4.3648 0.0000
# 3 1.6630 17.0137 58.6805 0.0000 2.1245 0.0000
# 4 0.0000 0.0000 0.0000 30.4865 0.0000 0.8173
# 5 10.5896 -4.3648 2.1245 0.0000 13.9237 0.0000
# 6 0.0000 0.0000 0.0000 0.8173 0.0000 19.9228
#
#
#
# Elastic Compliance Matrix: (Units=1/GPa)
#
#
# Indices 1 2 3 4 5 6 
#
# 1 0.017064 -0.000957 0.000276 0.000000 -0.013320 0.000000
# 2 -0.000957 0.009450 -0.002862 0.000000 0.004127 0.000000
# 3 0.000276 -0.002862 0.018003 0.000000 -0.003854 0.000000
# 4 0.000000 0.000000 0.000000 0.032838 0.000000 -0.001347
# 5 -0.013320 0.004127 -0.003854 0.000000 0.083832 0.000000
# 6 0.000000 0.000000 0.000000 -0.001347 0.000000 0.050249
#
#
# Mechanical properties :
#
#
# Convention : Reuss Voigt Hill
#
# Bulk Modulus (GPa) = 26.71572 31.27766 28.99669
# Shear Modulus (GPa) = 21.64524 27.36559 24.50542
#
# Velocity S-wave (km/s) = 3.18189 3.57772 3.38559
# Velocity P-wave (km/s) = 5.09856 5.62997 5.37084
#
# Compressibility (1/GPa) = 0.03743115
#
# Stress axis : x y z
#
# Youngs Moduli (GPa) = 58.60313 105.82223 55.54631
#
# Poissons Ratio (x) = 0.10124 -0.01533
# Poissons Ratio (y) = 0.05606 0.15898
# Poissons Ratio (z) = -0.01618 0.30288
#
# Static dielectric constant tensor:
#      x y z
#    x 1.798670 0.000000 -0.018380 
#    y 0.000000 1.840210 0.000000 
#    z -0.018380 0.000000 1.776140 
# 
# From -- ./inp_files/173650.got.cif
#   From: 2010.05.17/outbox.cif.g08.bks.cpg/sg15_87_cif.got.tgz:173650.got - 2010.06.03 18:47:42.
