data_PCOD9258301
_publ_section_title
;
Structure prediction by ZEFSAII (Michael W. Deem and Ramdas Pophale) SiO2 
 PCOD9258301
Probable space group: C 2/C
;
_chemical_formula_sum "Si O2"
_cell_formula_units_Z 64
_cell_length_a 27.116162
_cell_length_b 18.560441
_cell_length_c 23.238555
_cell_angle_alpha 90.000000
_cell_angle_beta 159.499926
_cell_angle_gamma 90.000000
_cell_volume 4095.929058
_symmetry_space_group_name_H-M "C 2/C"
_symmetry_group_IT_number 15
_symmetry_cell_setting 'monoclinic'
loop_
_space_group_symop_operation_xyz
x,y,z
-x,y,1/2-z
-x,-y,-z
x,-y,1/2+z
1/2+x,1/2+y,z
1/2-x,1/2+y,1/2-z
1/2-x,1/2-y,-z
1/2+x,1/2-y,1/2+z
loop_
_atom_site_type_symbol
_atom_site_label
_atom_site_fract_x
_atom_site_fract_y
_atom_site_fract_z
Si Si1 0.555720 0.896640 0.746449
Si Si2 0.424569 0.538382 0.495187
Si Si3 0.613815 0.740388 0.658565
Si Si4 0.352311 0.100172 0.348080
Si Si5 0.386504 0.604084 0.577697
Si Si6 0.543686 0.977724 0.967286
Si Si7 0.410943 0.247830 0.039540
Si Si8 0.836686 0.911866 0.323959
O O1 0.500000 0.903577 0.750000
O O2 0.491138 0.959338 0.635919
O O3 0.491592 0.821951 0.651331
O O4 0.725382 0.896772 0.924531
O O5 0.313917 0.587028 0.337841
O O6 0.403413 0.555538 0.538817
O O7 0.388175 0.457861 0.434750
O O8 0.576591 0.559285 0.636712
O O9 0.613540 0.817095 0.626417
O O10 0.478973 0.734275 0.552095
O O11 0.633211 0.672366 0.638552
O O12 0.746535 0.736099 0.847289
O O13 0.413435 0.052435 0.362019
O O14 0.419022 0.059827 0.475803
O O15 0.500000 0.583705 0.750000
O O16 0.422057 0.684807 0.594351
O O17 0.675185 0.930486 0.134102
#
# Coordination Sequence:
#
# PCOD9258301 Si02
#       8
#     8   8   8   8   8   8   8   8
#     4  12  25  37  50  73 101 140 184 211 243 300
#     4  10  19  36  47  74 102 133 168 212 253 297
#     4  12  18  32  53  80 101 136 167 206 253 314
#     4  10  18  33  54  70 102 132 166 212 263 297
#     4  12  25  37  51  69 105 144 174 213 251 293
#     4  10  19  34  51  74  96 134 172 215 254 294
#     4  12  21  34  50  72 108 135 172 208 243 296
#     4  10  20  29  56  74 100 132 168 207 256 306
#
# _framework density 15.625271
#
# number of rings (size 3 to 8) (size 9 to 14) (size 15 to 20)
#    0.000    1.000    7.500    0.375    3.500    1.000 
#    0.000    0.000    0.000    0.000    0.000    0.875 
#    0.000    2.000    0.000    0.000    0.000    0.000 
#
# Total GULP energy -178544.109409 kJ/mol
# GULP energy per Si atom -5579.503419 kJ/mol
# Density = 1.558971 g / cm^3
# Si number density = 15.625271 Si / 1000 Ang^3
#
#
#
# Elastic Constant Matrix: (Units=GPa)
#
#
# Indices 1 2 3 4 5 6 
#
# 1 83.0511 43.8108 27.8143 -0.0018 -6.2653 -0.0005
# 2 43.8108 86.2679 23.8929 -0.0009 -20.2892 -0.0002
# 3 27.8143 23.8929 55.4355 -0.0062 -5.6850 -0.0024
# 4 -0.0018 -0.0009 -0.0062 16.4507 -0.0017 -0.2980
# 5 -6.2653 -20.2892 -5.6850 -0.0017 24.5526 -0.0006
# 6 -0.0005 -0.0002 -0.0024 -0.2980 -0.0006 22.0891
#
#
#
# Elastic Compliance Matrix: (Units=1/GPa)
#
#
# Indices 1 2 3 4 5 6 
#
# 1 0.018204 -0.008503 -0.005852 -0.000001 -0.003736 0.000000
# 2 -0.008503 0.019922 -0.002924 0.000001 0.013616 0.000000
# 3 -0.005852 -0.002924 0.022366 0.000008 0.001269 0.000002
# 4 -0.000001 0.000001 0.000008 0.060803 0.000006 0.000820
# 5 -0.003736 0.013616 0.001269 0.000006 0.051321 0.000002
# 6 0.000000 0.000000 0.000002 0.000820 0.000002 0.045282
#
#
# Mechanical properties :
#
#
# Convention : Reuss Voigt Hill
#
# Bulk Modulus (GPa) = 38.55935 46.19895 42.37915
# Shear Modulus (GPa) = 19.14973 21.23425 20.19199
#
# Velocity S-wave (km/s) = 3.50460 3.69042 3.59871
# Velocity P-wave (km/s) = 6.41151 6.91302 6.66698
#
# Compressibility (1/GPa) = 0.02593405
#
# Stress axis : x y z
#
# Youngs Moduli (GPa) = 54.93230 50.19567 44.71140
#
# Poissons Ratio (x) = 0.42680 0.26166
# Poissons Ratio (y) = 0.46708 0.13073
# Poissons Ratio (z) = 0.32148 0.14677
#
# Static dielectric constant tensor:
#      x y z
#    x 1.518850 0.000000 0.012720 
#    y 0.000000 1.544150 0.000000 
#    z 0.012720 0.000000 1.526650 
# 
# From -- ./inp_files/283729.got.cif
#   From: 2010.05.17/outbox.cif.g08.bks.cpg/sg15_142_cif.got.tgz:283729.got - 2010.06.03 18:47:42.
