data_PCOD9258395
_publ_section_title
;
Structure prediction by ZEFSAII (Michael W. Deem and Ramdas Pophale) SiO2 
 PCOD9258395
Probable space group: C 2/C
;
_chemical_formula_sum "Si O2"
_cell_formula_units_Z 40
_cell_length_a 11.487269
_cell_length_b 23.459627
_cell_length_c 9.409567
_cell_angle_alpha 90.000000
_cell_angle_beta 134.990986
_cell_angle_gamma 90.000000
_cell_volume 1793.332624
_symmetry_space_group_name_H-M "C 2/C"
_symmetry_group_IT_number 15
_symmetry_cell_setting 'monoclinic'
loop_
_space_group_symop_operation_xyz
x,y,z
-x,y,1/2-z
-x,-y,-z
x,-y,1/2+z
1/2+x,1/2+y,z
1/2-x,1/2+y,1/2-z
1/2-x,1/2-y,-z
1/2+x,1/2-y,1/2+z
loop_
_atom_site_type_symbol
_atom_site_label
_atom_site_fract_x
_atom_site_fract_y
_atom_site_fract_z
Si Si1 0.353372 0.834143 0.333892
Si Si2 0.714752 0.787206 0.652633
Si Si3 0.190361 0.815047 0.462679
Si Si4 0.000000 0.843458 0.750000
Si Si5 0.500000 0.478999 0.250000
Si Si6 0.144659 0.069211 0.580137
O O1 0.230930 0.780231 0.198929
O O2 0.313392 0.847462 0.464337
O O3 0.311546 0.893405 0.221971
O O4 0.468644 0.807619 0.037488
O O5 0.843242 0.804504 0.643903
O O6 0.773916 0.822942 0.841769
O O7 0.250000 0.750000 0.500000
O O8 0.000000 0.821561 0.250000
O O9 0.977467 0.884868 0.596337
O O10 0.628522 0.517181 0.454501
O O11 0.409631 0.447024 0.305119
#
# Coordination Sequence:
#
# PCOD9258395 Si02
#       6
#     8   8   8   4   4   8
#     4  11  22  37  64  95 136 182 218 266 329 389
#     4  11  23  38  57 102 146 175 219 259 315 421
#     4  10  18  33  55  86 130 175 215 256 304 379
#     4  11  24  40  66 100 140 180 212 261 338 402
#     4   9  22  46  72  96 126 160 240 285 338 390
#     4  10  22  42  71  99 122 177 217 282 338 394
#
# _framework density 22.304843000000002
#
# number of rings (size 3 to 8) (size 9 to 14) (size 15 to 20)
#    0.000    1.600    0.000    7.800    4.200    4.000 
#    0.000    0.000    0.000   21.600    0.000    0.000 
#    0.000    0.000    0.000    0.000    0.000    0.000 
#
# Total GULP energy -111473.261844 kJ/mol
# GULP energy per Si atom -5573.663092 kJ/mol
# Density = 2.225408 g / cm^3
# Si number density = 22.304843 Si / 1000 Ang^3
#
#
#
# Elastic Constant Matrix: (Units=GPa)
#
#
# Indices 1 2 3 4 5 6 
#
# 1 131.6401 45.7385 54.1617 0.0000 4.4966 0.0000
# 2 45.7385 95.2184 46.9737 0.0000 -0.0326 0.0000
# 3 54.1617 46.9737 138.3110 0.0000 -17.8646 0.0000
# 4 0.0000 0.0000 0.0000 22.6371 0.0000 -3.1525
# 5 4.4966 -0.0326 -17.8646 0.0000 44.6631 0.0000
# 6 0.0000 0.0000 0.0000 -3.1525 0.0000 14.9813
#
#
#
# Elastic Compliance Matrix: (Units=1/GPa)
#
#
# Indices 1 2 3 4 5 6 
#
# 1 0.010113 -0.003316 -0.003127 0.000000 -0.002271 0.000000
# 2 -0.003316 0.013841 -0.003541 0.000000 -0.001072 0.000000
# 3 -0.003127 -0.003541 0.010226 0.000000 0.004403 0.000000
# 4 0.000000 0.000000 0.000000 0.045509 0.000000 0.009576
# 5 -0.002271 -0.001072 0.004403 0.000000 0.024379 0.000000
# 6 0.000000 0.000000 0.000000 0.009576 0.000000 0.068765
#
#
# Mechanical properties :
#
#
# Convention : Reuss Voigt Hill
#
# Bulk Modulus (GPa) = 70.36285 73.21302 71.78793
# Shear Modulus (GPa) = 25.31152 31.00934 28.16043
#
# Velocity S-wave (km/s) = 3.37233 3.73265 3.55706
# Velocity P-wave (km/s) = 6.83944 7.17440 7.00892
#
# Compressibility (1/GPa) = 0.01421205
#
# Stress axis : x y z
#
# Youngs Moduli (GPa) = 98.88423 72.24729 97.78981
#
# Poissons Ratio (x) = 0.23955 0.30583
# Poissons Ratio (y) = 0.32787 0.34627
# Poissons Ratio (z) = 0.30925 0.25583
#
# Static dielectric constant tensor:
#      x y z
#    x 1.824960 0.000000 -0.073140 
#    y 0.000000 2.023140 0.000000 
#    z -0.073140 0.000000 2.053240 
# 
# From -- ./inp_files/40038.got.cif
#   From: 2010.05.17/outbox.cif.g08.bks.cpg/sg15_21_cif.got.tgz:40038.got - 2010.06.03 18:47:42.
