data_PCOD9258089
_publ_section_title
;
Structure prediction by ZEFSAII (Michael W. Deem and Ramdas Pophale) SiO2 
 PCOD9258089
Probable space group: C 2/C
;
_chemical_formula_sum "Si O2"
_cell_formula_units_Z 60
_cell_length_a 12.246598
_cell_length_b 19.159467
_cell_length_c 10.099517
_cell_angle_alpha 90.000000
_cell_angle_beta 77.382613
_cell_angle_gamma 90.000000
_cell_volume 2312.505570
_symmetry_space_group_name_H-M "C 2/C"
_symmetry_group_IT_number 15
_symmetry_cell_setting 'monoclinic'
loop_
_space_group_symop_operation_xyz
x,y,z
-x,y,1/2-z
-x,-y,-z
x,-y,1/2+z
1/2+x,1/2+y,z
1/2-x,1/2+y,1/2-z
1/2-x,1/2-y,-z
1/2+x,1/2-y,1/2+z
loop_
_atom_site_type_symbol
_atom_site_label
_atom_site_fract_x
_atom_site_fract_y
_atom_site_fract_z
Si Si1 0.265397 0.701199 0.200479
Si Si2 0.170571 0.070071 0.188095
Si Si3 0.436664 0.361517 0.043227
Si Si4 0.411651 0.123288 0.397940
Si Si5 0.293198 0.843542 0.271835
Si Si6 0.367985 0.000163 0.265151
Si Si7 0.912064 0.296529 0.507644
Si Si8 0.500000 0.449544 0.250000
O O1 0.348034 0.637281 0.212152
O O2 0.184121 0.678712 0.105413
O O3 0.314480 0.777558 0.173252
O O4 0.183008 0.702226 0.352377
O O5 0.300862 0.047881 0.175128
O O6 0.122945 0.094495 0.058576
O O7 0.101476 0.002906 0.251723
O O8 0.339498 0.349616 0.177849
O O9 0.460851 0.282267 0.992073
O O10 0.522770 0.405156 0.109975
O O11 0.500000 0.127265 0.250000
O O12 0.492819 0.145532 0.493067
O O13 0.350020 0.048297 0.402650
O O14 0.330193 0.922416 0.245768
O O15 0.348772 0.816481 0.392207
O O16 0.500000 0.992119 0.250000
#
# Coordination Sequence:
#
# PCOD9258089 Si02
#       8
#     8   8   8   8   8   8   8   4
#     4   9  17  33  54  79 115 148 192 241 291 341
#     4  11  21  43  59  86 123 155 198 245 301 353
#     4  11  22  38  61  90 118 152 205 254 290 344
#     4   8  17  30  51  80 111 148 186 242 288 334
#     4  11  19  35  58  87 114 154 201 244 292 352
#     4  10  22  38  57  85 123 159 193 238 301 357
#     4  10  18  32  59  86 112 148 200 254 290 332
#     4  12  26  38  62  92 118 162 196 242 308 356
#
# _framework density 25.945884
#
# number of rings (size 3 to 8) (size 9 to 14) (size 15 to 20)
#    0.000    1.867    4.000    2.000    4.667    0.533 
#    1.200    0.000    0.000    0.000    0.000    4.667 
#    0.000    0.000    0.000    0.000    0.000    0.000 
#
# Total GULP energy -167447.902092 kJ/mol
# GULP energy per Si atom -5581.596736 kJ/mol
# Density = 2.588683 g / cm^3
# Si number density = 25.945884 Si / 1000 Ang^3
#
#
#
# Elastic Constant Matrix: (Units=GPa)
#
#
# Indices 1 2 3 4 5 6 
#
# 1 71.7888 38.0843 18.0703 0.0000 23.1927 0.0000
# 2 38.0843 204.0563 38.5135 0.0000 14.8588 0.0000
# 3 18.0703 38.5135 78.1349 0.0000 15.1670 0.0000
# 4 0.0000 0.0000 0.0000 21.7979 0.0000 -9.2631
# 5 23.1927 14.8588 15.1670 0.0000 32.1119 0.0000
# 6 0.0000 0.0000 0.0000 -9.2631 0.0000 -2.9804
#
#
#
# Elastic Compliance Matrix: (Units=1/GPa)
#
#
# Indices 1 2 3 4 5 6 
#
# 1 0.019558 -0.002583 -0.000815 0.000000 -0.012546 0.000000
# 2 -0.002583 0.005800 -0.002315 0.000000 0.000275 0.000000
# 3 -0.000815 -0.002315 0.015199 0.000000 -0.005519 0.000000
# 4 0.000000 0.000000 0.000000 0.019767 0.000000 -0.061438
# 5 -0.012546 0.000275 -0.005519 0.000000 0.042682 0.000000
# 6 0.000000 0.000000 0.000000 -0.061438 0.000000 -0.144576
#
#
# Mechanical properties :
#
#
# Convention : Reuss Voigt Hill
#
# Bulk Modulus (GPa) = 34.32640 60.36846 47.34743
# Shear Modulus (GPa) = -244.69146 27.47334 -108.60906
#
# Velocity S-wave (km/s) = -9.72179 3.25756 -6.47694
# Velocity P-wave (km/s) = 10.61879 6.12099 6.13564
#
# Compressibility (1/GPa) = 0.02913209
#
# Stress axis : x y z
#
# Youngs Moduli (GPa) = 51.12920 172.42819 65.79323
#
# Poissons Ratio (x) = 0.44537 0.05361
# Poissons Ratio (y) = 0.13206 0.15229
# Poissons Ratio (z) = 0.04166 0.39912
#
# Static dielectric constant tensor:
#      x y z
#    x 2.043680 0.000000 -0.109180 
#    y 0.000000 2.107950 0.000000 
#    z -0.109180 0.000000 2.043820 
# 
# From -- ./inp_files/145726.got.cif
#   From: 2010.05.17/outbox.cif.g08.bks.cpg/sg15_73_cif.got.tgz:145726.got - 2010.06.03 18:47:42.
