data_PCOD9258591
_publ_section_title
;
Structure prediction by ZEFSAII (Michael W. Deem and Ramdas Pophale) SiO2 
 PCOD9258591
Probable space group: C 2/C
;
_chemical_formula_sum "Si O2"
_cell_formula_units_Z 52
_cell_length_a 18.581483
_cell_length_b 14.924711
_cell_length_c 23.809209
_cell_angle_alpha 90.000000
_cell_angle_beta 158.833574
_cell_angle_gamma 90.000000
_cell_volume 2384.144227
_symmetry_space_group_name_H-M "C 2/C"
_symmetry_group_IT_number 15
_symmetry_cell_setting 'monoclinic'
loop_
_space_group_symop_operation_xyz
x,y,z
-x,y,1/2-z
-x,-y,-z
x,-y,1/2+z
1/2+x,1/2+y,z
1/2-x,1/2+y,1/2-z
1/2-x,1/2-y,-z
1/2+x,1/2-y,1/2+z
loop_
_atom_site_type_symbol
_atom_site_label
_atom_site_fract_x
_atom_site_fract_y
_atom_site_fract_z
Si Si1 0.562491 0.194894 0.058285
Si Si2 0.000000 0.793008 0.750000
Si Si3 0.500000 0.721116 0.750000
Si Si4 0.886346 0.755050 0.286286
Si Si5 0.500000 0.015427 0.750000
Si Si6 0.859409 0.906365 0.062942
Si Si7 0.084722 0.081781 0.212325
Si Si8 0.214665 0.845622 0.091686
O O1 0.588236 0.189033 0.143862
O O2 0.687240 0.113257 0.122878
O O3 0.664154 0.288871 0.110649
O O4 0.334043 0.202756 0.874255
O O5 0.021620 0.855655 0.819268
O O6 0.807743 0.731135 0.619315
O O7 0.573670 0.774183 0.749230
O O8 0.658703 0.651801 0.893224
O O9 0.052027 0.832532 0.414898
O O10 0.614880 0.078319 0.788110
O O11 0.334747 0.956509 0.598857
O O12 0.031702 0.981526 0.191055
O O13 0.979634 0.108876 0.077085
#
# Coordination Sequence:
#
# PCOD9258591 Si02
#       8
#     8   4   4   8   4   8   8   8
#     4  11  21  40  61  91 128 165 201 252 312 368
#     4   9  17  26  54  88 124 164 198 250 294 370
#     4   8  21  44  60  84 117 156 212 260 295 354
#     4  10  23  43  61  87 123 159 212 254 306 368
#     4   9  18  38  64  88 125 162 208 250 297 374
#     4   9  20  41  59  91 118 157 210 252 306 356
#     4  10  18  33  60  88 128 159 200 252 309 364
#     4   9  18  33  55  93 125 160 204 244 310 368
#
# _framework density 21.810760999999999
#
# number of rings (size 3 to 8) (size 9 to 14) (size 15 to 20)
#    0.923    1.538    1.538    0.923    0.000    2.462 
#    5.538    3.077    0.000    0.000    0.000    0.000 
#    0.000    0.000    0.000    0.000    0.000    0.000 
#
# Total GULP energy -144894.487863 kJ/mol
# GULP energy per Si atom -5572.864918 kJ/mol
# Density = 2.176112 g / cm^3
# Si number density = 21.810761 Si / 1000 Ang^3
#
#
#
# Elastic Constant Matrix: (Units=GPa)
#
#
# Indices 1 2 3 4 5 6 
#
# 1 89.6594 17.5854 17.7636 -0.3644 -1.7465 -0.0978
# 2 17.5854 62.5697 12.2276 -0.4282 1.8994 -0.0435
# 3 17.7636 12.2276 73.0400 -0.2466 1.7731 -0.0259
# 4 -0.3644 -0.4282 -0.2466 96.6816 -0.0380 14.3986
# 5 -1.7465 1.8994 1.7731 -0.0380 22.1667 -0.0176
# 6 -0.0978 -0.0435 -0.0259 14.3986 -0.0176 23.4634
#
#
#
# Elastic Compliance Matrix: (Units=1/GPa)
#
#
# Indices 1 2 3 4 5 6 
#
# 1 0.012268 -0.002999 -0.002516 0.000023 0.001425 0.000030
# 2 -0.002999 0.017288 -0.002127 0.000063 -0.001547 -0.000022
# 3 -0.002516 -0.002127 0.014688 0.000020 -0.001191 -0.000011
# 4 0.000023 0.000063 0.000020 0.011384 0.000009 -0.006986
# 5 0.001425 -0.001547 -0.001191 0.000009 0.045453 0.000031
# 6 0.000030 -0.000022 -0.000011 -0.006986 0.000031 0.046906
#
#
# Mechanical properties :
#
#
# Convention : Reuss Voigt Hill
#
# Bulk Modulus (GPa) = 34.53088 35.60246 35.06667
# Shear Modulus (GPa) = 28.91421 40.30851 34.61136
#
# Velocity S-wave (km/s) = 3.64495 4.30362 3.98791
# Velocity P-wave (km/s) = 5.79488 6.40731 6.10877
#
# Compressibility (1/GPa) = 0.02895959
#
# Stress axis : x y z
#
# Youngs Moduli (GPa) = 81.51321 57.84291 68.08242
#
# Poissons Ratio (x) = 0.17349 0.17129
# Poissons Ratio (y) = 0.24449 0.14481
# Poissons Ratio (z) = 0.20509 0.12303
#
# Static dielectric constant tensor:
#      x y z
#    x 1.830440 0.000000 0.011160 
#    y 0.000000 1.785390 0.000000 
#    z 0.011160 0.000000 1.828600 
# 
# From -- ./inp_files/301163.got.cif
#   From: 2010.05.17/outbox.cif.g08.bks.cpg/sg15_151_cif.got.tgz:301163.got - 2010.06.03 18:47:42.
