data_PCOD9258881
_publ_section_title
;
Structure prediction by ZEFSAII (Michael W. Deem and Ramdas Pophale) SiO2 
 PCOD9258881
Probable space group: C 2/C
;
_chemical_formula_sum "Si O2"
_cell_formula_units_Z 60
_cell_length_a 8.734735
_cell_length_b 26.835563
_cell_length_c 23.548050
_cell_angle_alpha 90.000000
_cell_angle_beta 144.580590
_cell_angle_gamma 90.000000
_cell_volume 3198.981720
_symmetry_space_group_name_H-M "C 2/C"
_symmetry_group_IT_number 15
_symmetry_cell_setting 'monoclinic'
loop_
_space_group_symop_operation_xyz
x,y,z
-x,y,1/2-z
-x,-y,-z
x,-y,1/2+z
1/2+x,1/2+y,z
1/2-x,1/2+y,1/2-z
1/2-x,1/2-y,-z
1/2+x,1/2-y,1/2+z
loop_
_atom_site_type_symbol
_atom_site_label
_atom_site_fract_x
_atom_site_fract_y
_atom_site_fract_z
Si Si1 0.230131 0.025737 0.436072
Si Si2 0.500000 0.496030 0.750000
Si Si3 0.938302 0.784278 0.517653
Si Si4 0.400127 0.442119 0.393399
Si Si5 0.310117 0.669593 0.860487
Si Si6 0.847259 0.201330 0.643999
Si Si7 0.628113 0.868529 0.468636
Si Si8 0.421662 0.938219 0.320426
O O1 0.054970 0.031437 0.325797
O O2 0.289752 0.079841 0.478448
O O3 0.500000 0.000000 0.500000
O O4 0.103265 0.986082 0.441637
O O5 0.245412 0.530394 0.685327
O O6 0.750000 0.750000 0.500000
O O7 0.840540 0.793459 0.423578
O O8 0.888783 0.837076 0.533202
O O9 0.217729 0.756428 0.601759
O O10 0.450358 0.383408 0.420371
O O11 0.256124 0.436000 0.288974
O O12 0.196992 0.459470 0.380531
O O13 0.463650 0.690128 0.851793
O O14 0.000000 0.662913 0.750000
O O15 0.596331 0.163167 0.566911
O O16 0.000000 0.195469 0.750000
O O17 0.485596 0.885132 0.367053
#
# Coordination Sequence:
#
# PCOD9258881 Si02
#       8
#     8   4   8   8   8   8   8   8
#     4  11  22  37  59  90 127 165 200 241 299 358
#     4  10  22  36  58  84 132 162 202 240 288 360
#     4  10  22  41  60  86 120 153 202 259 310 365
#     4  10  20  33  56  91 126 151 196 243 294 357
#     4  12  20  36  64  97 120 152 199 252 308 365
#     4  11  24  39  67  89 117 155 204 260 318 358
#     4  11  21  38  62  86 120 160 201 247 301 359
#     4  10  18  34  56  87 121 156 199 240 290 348
#
# _framework density 18.755969
#
# number of rings (size 3 to 8) (size 9 to 14) (size 15 to 20)
#    0.000    1.333    4.000    3.600    2.800    0.533 
#    0.000    0.000   23.467    0.000    0.000    0.000 
#    0.000    0.000    0.000    0.000    0.000    0.000 
#
# Total GULP energy -167118.553322 kJ/mol
# GULP energy per Si atom -5570.618444 kJ/mol
# Density = 1.871328 g / cm^3
# Si number density = 18.755969 Si / 1000 Ang^3
#
#
#
# Elastic Constant Matrix: (Units=GPa)
#
#
# Indices 1 2 3 4 5 6 
#
# 1 143.4056 62.5112 30.2750 0.0004 3.2668 -0.0001
# 2 62.5112 124.6803 45.1899 0.0001 7.2253 0.0000
# 3 30.2750 45.1899 52.8170 0.0028 -4.7257 0.0002
# 4 0.0004 0.0001 0.0028 38.4330 0.0005 -0.5312
# 5 3.2668 7.2253 -4.7257 0.0005 32.4209 0.0001
# 6 -0.0001 0.0000 0.0002 -0.5312 0.0001 33.3216
#
#
#
# Elastic Compliance Matrix: (Units=1/GPa)
#
#
# Indices 1 2 3 4 5 6 
#
# 1 0.009056 -0.003808 -0.001964 0.000000 -0.000350 0.000000
# 2 -0.003808 0.013790 -0.009986 0.000001 -0.004145 0.000000
# 3 -0.001964 -0.009986 0.029201 -0.000002 0.006680 0.000000
# 4 0.000000 0.000001 -0.000002 0.026025 -0.000001 0.000415
# 5 -0.000350 -0.004145 0.006680 -0.000001 0.032777 0.000000
# 6 0.000000 0.000000 0.000000 0.000415 0.000000 0.030017
#
#
# Mechanical properties :
#
#
# Convention : Reuss Voigt Hill
#
# Bulk Modulus (GPa) = 48.71033 66.31723 57.51378
# Shear Modulus (GPa) = 27.89791 33.03022 30.46406
#
# Velocity S-wave (km/s) = 3.86089 4.20104 4.03455
# Velocity P-wave (km/s) = 6.77512 7.67895 7.24115
#
# Compressibility (1/GPa) = 0.02052953
#
# Stress axis : x y z
#
# Youngs Moduli (GPa) = 110.42590 72.51887 34.24576
#
# Poissons Ratio (x) = 0.27617 0.06725
# Poissons Ratio (y) = 0.42053 0.34198
# Poissons Ratio (z) = 0.21686 0.72418
#
# Static dielectric constant tensor:
#      x y z
#    x 1.696980 0.000000 -0.023940 
#    y 0.000000 1.683980 0.000000 
#    z -0.023940 0.000000 1.728300 
# 
# From -- ./inp_files/266544.got.cif
#   From: 2010.05.17/outbox.cif.g08.bks.cpg/sg15_134_cif.got.tgz:266544.got - 2010.06.03 18:47:42.
