data_PCOD9258500
_publ_section_title
;
Structure prediction by ZEFSAII (Michael W. Deem and Ramdas Pophale) SiO2 
 PCOD9258500
Probable space group: C 2/C
;
_chemical_formula_sum "Si O2"
_cell_formula_units_Z 56
_cell_length_a 23.792544
_cell_length_b 22.716033
_cell_length_c 11.996742
_cell_angle_alpha 90.000000
_cell_angle_beta 27.716414
_cell_angle_gamma 90.000000
_cell_volume 3015.636492
_symmetry_space_group_name_H-M "C 2/C"
_symmetry_group_IT_number 15
_symmetry_cell_setting 'monoclinic'
loop_
_space_group_symop_operation_xyz
x,y,z
-x,y,1/2-z
-x,-y,-z
x,-y,1/2+z
1/2+x,1/2+y,z
1/2-x,1/2+y,1/2-z
1/2-x,1/2-y,-z
1/2+x,1/2-y,1/2+z
loop_
_atom_site_type_symbol
_atom_site_label
_atom_site_fract_x
_atom_site_fract_y
_atom_site_fract_z
Si Si1 0.568519 0.338756 0.371390
Si Si2 0.278503 0.800258 0.157115
Si Si3 0.000000 0.209145 0.750000
Si Si4 0.357249 0.472623 0.202463
Si Si5 0.373320 0.069346 0.522193
Si Si6 0.774695 0.929796 0.019205
Si Si7 0.675727 0.696445 0.078988
Si Si8 0.500000 0.537042 0.250000
O O1 0.692503 0.308493 0.199612
O O2 0.530816 0.326504 0.309448
O O3 0.588162 0.409145 0.356730
O O4 0.459682 0.311836 0.637127
O O5 0.352420 0.860845 0.045474
O O6 0.192284 0.795930 0.417003
O O7 0.379410 0.749326 0.977883
O O8 0.230544 0.459930 0.367404
O O9 0.323049 0.520281 0.353906
O O10 0.446644 0.497339 0.949365
O O11 0.342929 0.053667 0.703324
O O12 0.500000 0.051900 0.250000
O O13 0.760739 0.865029 0.995542
O O14 0.886959 0.923949 0.909480
O O15 0.750000 0.750000 0.000000
#
# Coordination Sequence:
#
# PCOD9258500 Si02
#       8
#     8   8   4   8   8   8   8   4
#     4  11  23  37  61  89 122 160 203 253 310 368
#     4  10  21  38  61  83 120 158 211 248 298 370
#     4  12  22  39  56  92 124 161 194 260 314 354
#     4  10  21  37  56  89 118 155 200 251 307 367
#     4   9  19  36  60  82 108 162 206 243 289 371
#     4  10  21  35  56  86 116 152 198 250 306 361
#     4  11  21  38  61  87 118 158 205 255 306 363
#     4  10  18  33  58  82 118 153 196 244 302 372
#
# _framework density 18.569877000000002
#
# number of rings (size 3 to 8) (size 9 to 14) (size 15 to 20)
#    0.000    1.714    3.571    2.143    0.000    1.143 
#    2.571    0.000    0.000    1.714    0.000    0.000 
#    0.000    0.000    0.000    0.000    0.000    0.000 
#
# Total GULP energy -155959.967124 kJ/mol
# GULP energy per Si atom -5569.998826 kJ/mol
# Density = 1.852761 g / cm^3
# Si number density = 18.569877 Si / 1000 Ang^3
#
#
#
# Elastic Constant Matrix: (Units=GPa)
#
#
# Indices 1 2 3 4 5 6 
#
# 1 96.0756 46.7653 52.2711 -0.0002 11.4879 0.0002
# 2 46.7653 89.0034 51.4490 -0.0004 5.3488 0.0004
# 3 52.2711 51.4490 163.3203 -0.0005 9.8139 0.0004
# 4 -0.0002 -0.0004 -0.0005 28.7536 0.0004 0.3760
# 5 11.4879 5.3488 9.8139 0.0004 23.3467 -0.0003
# 6 0.0002 0.0004 0.0004 0.3760 -0.0003 20.0430
#
#
#
# Elastic Compliance Matrix: (Units=1/GPa)
#
#
# Indices 1 2 3 4 5 6 
#
# 1 0.015548 -0.006314 -0.002682 0.000000 -0.005077 0.000000
# 2 -0.006314 0.016343 -0.003169 0.000000 0.000695 0.000000
# 3 -0.002682 -0.003169 0.008060 0.000000 -0.001342 0.000000
# 4 0.000000 0.000000 0.000000 0.034787 -0.000001 -0.000653
# 5 -0.005077 0.000695 -0.001342 -0.000001 0.045736 0.000001
# 6 0.000000 0.000000 0.000000 -0.000653 0.000001 0.049905
#
#
# Mechanical properties :
#
#
# Convention : Reuss Voigt Hill
#
# Bulk Modulus (GPa) = 64.01679 72.15222 68.08451
# Shear Modulus (GPa) = 25.01032 27.62291 26.31662
#
# Velocity S-wave (km/s) = 3.67389 3.86101 3.76861
# Velocity P-wave (km/s) = 7.24879 7.66912 7.46191
#
# Compressibility (1/GPa) = 0.01562090
#
# Stress axis : x y z
#
# Youngs Moduli (GPa) = 64.31663 61.18662 124.06240
#
# Poissons Ratio (x) = 0.38633 0.33275
# Poissons Ratio (y) = 0.40609 0.39321
# Poissons Ratio (z) = 0.17251 0.19393
#
# Static dielectric constant tensor:
#      x y z
#    x 1.695690 0.000000 0.034400 
#    y 0.000000 1.651830 0.000000 
#    z 0.034400 0.000000 1.670550 
# 
# From -- ./inp_files/119837.got.cif
#   From: 2010.05.17/outbox.cif.g08.bks.cpg/sg15_60_cif.got.tgz:119837.got - 2010.06.03 18:47:42.
