data_PCOD9258630
_publ_section_title
;
Structure prediction by ZEFSAII (Michael W. Deem and Ramdas Pophale) SiO2 
 PCOD9258630
Probable space group: C 2/C
;
_chemical_formula_sum "Si O2"
_cell_formula_units_Z 56
_cell_length_a 20.569616
_cell_length_b 7.907179
_cell_length_c 18.695259
_cell_angle_alpha 90.000000
_cell_angle_beta 130.114682
_cell_angle_gamma 90.000000
_cell_volume 2325.424882
_symmetry_space_group_name_H-M "C 2/C"
_symmetry_group_IT_number 15
_symmetry_cell_setting 'monoclinic'
loop_
_space_group_symop_operation_xyz
x,y,z
-x,y,1/2-z
-x,-y,-z
x,-y,1/2+z
1/2+x,1/2+y,z
1/2-x,1/2+y,1/2-z
1/2-x,1/2-y,-z
1/2+x,1/2-y,1/2+z
loop_
_atom_site_type_symbol
_atom_site_label
_atom_site_fract_x
_atom_site_fract_y
_atom_site_fract_z
Si Si1 0.407325 0.529855 0.514011
Si Si2 0.222336 0.131389 0.374214
Si Si3 0.065637 0.300472 0.853096
Si Si4 0.973253 0.540156 0.876790
Si Si5 0.282675 0.990361 0.063941
Si Si6 0.606494 0.784882 0.580898
Si Si7 0.450632 0.643064 0.288261
O O1 0.423667 0.716336 0.559876
O O2 0.309468 0.508932 0.466428
O O3 0.411781 0.416989 0.443373
O O4 0.475598 0.435206 0.611374
O O5 0.267392 0.025899 0.468453
O O6 0.189085 0.304903 0.388784
O O7 0.296249 0.177042 0.370995
O O8 0.136623 0.042409 0.286894
O O9 0.154289 0.353410 0.880006
O O10 0.000000 0.215932 0.750000
O O11 0.024398 0.478209 0.844693
O O12 0.917420 0.382877 0.864137
O O13 0.918127 0.697028 0.811708
O O14 0.042489 0.616124 0.981084
O O15 0.500000 0.679271 0.250000
#
# Coordination Sequence:
#
# PCOD9258630 Si02
#       7
#     8   8   8   8   8   8   8
#     4  10  22  37  57  85 124 158 200 247 312 373
#     4  10  18  33  62  85 115 152 205 249 299 367
#     4  12  23  35  56  92 125 157 198 264 315 350
#     4  10  20  36  59  84 115 154 209 249 300 364
#     4  10  19  35  56  89 115 155 199 248 306 368
#     4   9  20  39  59  81 111 163 207 242 293 380
#     4  11  19  34  61  91 119 157 202 264 310 364
#
# _framework density 24.081619
#
# number of rings (size 3 to 8) (size 9 to 14) (size 15 to 20)
#    0.000    1.714    2.857    3.000    0.000    0.571 
#    0.000    1.429    0.000    5.143    0.000    0.000 
#    0.000    0.000    0.000    0.000    0.000    0.000 
#
# Total GULP energy -155994.539329 kJ/mol
# GULP energy per Si atom -5571.233547 kJ/mol
# Density = 2.402681 g / cm^3
# Si number density = 24.081619 Si / 1000 Ang^3
#
#
#
# Elastic Constant Matrix: (Units=GPa)
#
#
# Indices 1 2 3 4 5 6 
#
# 1 95.7008 28.0086 27.3506 0.0000 30.1297 0.0000
# 2 28.0086 76.8058 12.3472 0.0000 13.7266 0.0000
# 3 27.3506 12.3472 82.4034 0.0000 26.3779 0.0000
# 4 0.0000 0.0000 0.0000 20.3594 0.0000 1.2819
# 5 30.1297 13.7266 26.3779 0.0000 28.7674 0.0000
# 6 0.0000 0.0000 0.0000 1.2819 0.0000 35.6747
#
#
#
# Elastic Compliance Matrix: (Units=1/GPa)
#
#
# Indices 1 2 3 4 5 6 
#
# 1 0.016261 -0.003155 0.000064 0.000000 -0.015584 0.000000
# 2 -0.003155 0.014846 0.000046 0.000000 -0.003822 0.000000
# 3 0.000064 0.000046 0.017178 0.000000 -0.015840 0.000000
# 4 0.000000 0.000000 0.000000 0.049229 0.000000 -0.001769
# 5 -0.015584 -0.003822 -0.015840 0.000000 0.067432 0.000000
# 6 0.000000 0.000000 0.000000 -0.001769 0.000000 0.028095
#
#
# Mechanical properties :
#
#
# Convention : Reuss Voigt Hill
#
# Bulk Modulus (GPa) = 23.69945 43.36920 33.53432
# Shear Modulus (GPa) = 23.45286 29.44054 26.44670
#
# Velocity S-wave (km/s) = 3.12411 3.50027 3.31752
# Velocity P-wave (km/s) = 4.78289 5.86380 5.35071
#
# Compressibility (1/GPa) = 0.04219507
#
# Stress axis : x y z
#
# Youngs Moduli (GPa) = 61.49841 67.35840 58.21486
#
# Poissons Ratio (x) = 0.21251 -0.00374
# Poissons Ratio (y) = 0.19402 -0.00268
# Poissons Ratio (z) = -0.00395 -0.00310
#
# Static dielectric constant tensor:
#      x y z
#    x 1.924120 0.000000 -0.009860 
#    y 0.000000 2.032370 0.000000 
#    z -0.009860 0.000000 2.038790 
# 
# From -- ./inp_files/251954.got.cif
#   From: 2010.05.17/outbox.cif.g08.bks.cpg/sg15_126_cif.got.tgz:251954.got - 2010.06.03 18:47:42.
