data_PCOD9258454
_publ_section_title
;
Structure prediction by ZEFSAII (Michael W. Deem and Ramdas Pophale) SiO2 
 PCOD9258454
Probable space group: C 2/C
;
_chemical_formula_sum "Si O2"
_cell_formula_units_Z 48
_cell_length_a 16.210207
_cell_length_b 10.071747
_cell_length_c 13.645712
_cell_angle_alpha 90.000000
_cell_angle_beta 103.784672
_cell_angle_gamma 90.000000
_cell_volume 2163.701645
_symmetry_space_group_name_H-M "C 2/C"
_symmetry_group_IT_number 15
_symmetry_cell_setting 'monoclinic'
loop_
_space_group_symop_operation_xyz
x,y,z
-x,y,1/2-z
-x,-y,-z
x,-y,1/2+z
1/2+x,1/2+y,z
1/2-x,1/2+y,1/2-z
1/2-x,1/2-y,-z
1/2+x,1/2-y,1/2+z
loop_
_atom_site_type_symbol
_atom_site_label
_atom_site_fract_x
_atom_site_fract_y
_atom_site_fract_z
Si Si1 0.980549 0.855112 0.127457
Si Si2 0.794843 0.279010 0.380167
Si Si3 0.177412 0.364171 0.332059
Si Si4 0.645630 0.493428 0.123186
Si Si5 0.596547 0.593347 0.317345
Si Si6 0.861989 0.371037 0.591645
O O1 0.945631 0.712023 0.092480
O O2 0.000000 0.847527 0.250000
O O3 0.061976 0.905012 0.092135
O O4 0.915216 0.979000 0.106163
O O5 0.821031 0.340994 0.284689
O O6 0.810632 0.377219 0.474892
O O7 0.698809 0.221067 0.356483
O O8 0.849853 0.144429 0.414429
O O9 0.272692 0.410040 0.384863
O O10 0.142578 0.226285 0.363837
O O11 0.123234 0.489265 0.353275
O O12 0.648174 0.528828 0.241461
O O13 0.500000 0.625692 0.250000
#
# Coordination Sequence:
#
# PCOD9258454 Si02
#       6
#     8   8   8   8   8   8
#     4   9  17  32  52  78 105 141 184 218 261 317
#     4   9  18  34  53  81 114 143 178 219 275 328
#     4  10  18  33  57  80 106 142 178 219 272 321
#     4   8  16  30  54  78 104 143 181 217 261 317
#     4   8  16  31  51  72 102 141 174 210 265 316
#     4  10  20  32  56  83 108 142 180 227 271 314
#
# _framework density 22.184206
#
# number of rings (size 3 to 8) (size 9 to 14) (size 15 to 20)
#    0.000    3.333    0.000    2.000    0.000    1.333 
#    0.000    0.000    0.000   58.000    0.000    2.333 
#    0.000    0.000    0.000    0.000    0.000    0.000 
#
# Total GULP energy -133876.759858 kJ/mol
# GULP energy per Si atom -5578.198327 kJ/mol
# Density = 2.213371 g / cm^3
# Si number density = 22.184206 Si / 1000 Ang^3
#
#
#
# Elastic Constant Matrix: (Units=GPa)
#
#
# Indices 1 2 3 4 5 6 
#
# 1 65.4946 51.5752 -5.6318 0.0000 -10.0487 0.0000
# 2 51.5752 134.0904 16.4896 0.0000 4.3538 0.0000
# 3 -5.6318 16.4896 54.4399 0.0000 -1.3618 0.0000
# 4 0.0000 0.0000 0.0000 30.5030 0.0000 -5.9887
# 5 -10.0487 4.3538 -1.3618 0.0000 10.0516 0.0000
# 6 0.0000 0.0000 0.0000 -5.9887 0.0000 38.1548
#
#
#
# Elastic Compliance Matrix: (Units=1/GPa)
#
#
# Indices 1 2 3 4 5 6 
#
# 1 0.035836 -0.016425 0.009789 0.000000 0.044266 0.000000
# 2 -0.016425 0.015413 -0.006969 0.000000 -0.024040 0.000000
# 3 0.009789 -0.006969 0.021887 0.000000 0.015771 0.000000
# 4 0.000000 0.000000 0.000000 0.033826 0.000000 0.005309
# 5 0.044266 -0.024040 0.015771 0.000000 0.156290 0.000000
# 6 0.000000 0.000000 0.000000 0.005309 0.000000 0.027042
#
#
# Mechanical properties :
#
#
# Convention : Reuss Voigt Hill
#
# Bulk Modulus (GPa) = 21.77358 42.09900 31.93629
# Shear Modulus (GPa) = 15.02352 28.51466 21.76909
#
# Velocity S-wave (km/s) = 2.60516 3.58908 3.13595
# Velocity P-wave (km/s) = 4.34573 6.01611 5.24780
#
# Compressibility (1/GPa) = 0.04592722
#
# Stress axis : x y z
#
# Youngs Moduli (GPa) = 27.90499 64.88175 45.68933
#
# Poissons Ratio (x) = 1.06566 -0.44728
# Poissons Ratio (y) = 0.45833 0.31841
# Poissons Ratio (z) = -0.27318 0.45216
#
# Static dielectric constant tensor:
#      x y z
#    x 1.872320 0.000000 0.050780 
#    y 0.000000 1.814310 0.000000 
#    z 0.050780 0.000000 1.849060 
# 
# From -- ./inp_files/159745.got.cif
#   From: 2010.05.17/outbox.cif.g08.bks.cpg/sg15_80_cif.got.tgz:159745.got - 2010.06.03 18:47:42.
