data_PCOD9258180
_publ_section_title
;
Structure prediction by ZEFSAII (Michael W. Deem and Ramdas Pophale) SiO2 
 PCOD9258180
Probable space group: C 2/C
;
_chemical_formula_sum "Si O2"
_cell_formula_units_Z 40
_cell_length_a 19.230921
_cell_length_b 18.629513
_cell_length_c 5.491437
_cell_angle_alpha 90.000000
_cell_angle_beta 64.168779
_cell_angle_gamma 90.000000
_cell_volume 1770.799601
_symmetry_space_group_name_H-M "C 2/C"
_symmetry_group_IT_number 15
_symmetry_cell_setting 'monoclinic'
loop_
_space_group_symop_operation_xyz
x,y,z
-x,y,1/2-z
-x,-y,-z
x,-y,1/2+z
1/2+x,1/2+y,z
1/2-x,1/2+y,1/2-z
1/2-x,1/2-y,-z
1/2+x,1/2-y,1/2+z
loop_
_atom_site_type_symbol
_atom_site_label
_atom_site_fract_x
_atom_site_fract_y
_atom_site_fract_z
Si Si1 0.438241 0.169854 0.155972
Si Si2 0.294527 0.325651 0.889118
Si Si3 0.976398 0.177798 0.041801
Si Si4 0.734150 0.165807 0.980457
Si Si5 0.086209 0.474446 0.953908
O O1 0.500000 0.139714 0.250000
O O2 0.357253 0.169503 0.416934
O O3 0.422344 0.110462 0.975690
O O4 0.472028 0.247621 0.034899
O O5 0.384639 0.310759 0.698476
O O6 0.259171 0.365033 0.706015
O O7 0.250000 0.250000 0.000000
O O8 0.279690 0.361846 0.175160
O O9 0.000000 0.137490 0.250000
O O10 0.000000 0.143768 0.750000
O O11 0.750000 0.250000 0.000000
O O12 0.124549 0.488322 0.629358
O O13 0.000000 0.500000 0.000000
#
# Coordination Sequence:
#
# PCOD9258180 Si02
#       5
#     8   8   8   8   8
#     4  11  21  33  54  69  94 132 177 206 246 286
#     4  10  18  33  43  62  98 115 155 211 236 283
#     4  11  21  30  48  72  88 127 173 203 236 287
#     4  10  20  33  45  67  92 124 161 208 241 294
#     4  10  21  36  46  68  97 120 161 225 240 270
#
# _framework density 22.588666
#
# number of rings (size 3 to 8) (size 9 to 14) (size 15 to 20)
#    0.000    1.600    2.000    8.400    2.800    1.600 
#    0.000    0.000    0.000    0.000    0.000    0.000 
#    0.000    0.000    0.000    0.000    0.000  208.000 
#
# Total GULP energy -111358.629798 kJ/mol
# GULP energy per Si atom -5567.931490 kJ/mol
# Density = 2.253725 g / cm^3
# Si number density = 22.588666 Si / 1000 Ang^3
#
#
#
# Elastic Constant Matrix: (Units=GPa)
#
#
# Indices 1 2 3 4 5 6 
#
# 1 123.3391 -3.0945 80.9904 0.0000 3.4817 0.0000
# 2 -3.0945 9.7629 -5.4058 0.0000 -1.9671 0.0000
# 3 80.9904 -5.4058 203.9437 0.0000 22.7306 0.0000
# 4 0.0000 0.0000 0.0000 13.7583 0.0000 3.7210
# 5 3.4817 -1.9671 22.7306 0.0000 69.7032 0.0000
# 6 0.0000 0.0000 0.0000 3.7210 0.0000 -5.6702
#
#
#
# Elastic Compliance Matrix: (Units=1/GPa)
#
#
# Indices 1 2 3 4 5 6 
#
# 1 0.011037 0.001220 -0.004455 0.000000 0.000936 0.000000
# 2 0.001220 0.104390 0.002035 0.000000 0.002222 0.000000
# 3 -0.004455 0.002035 0.006948 0.000000 -0.001986 0.000000
# 4 0.000000 0.000000 0.000000 0.061728 0.000000 0.040508
# 5 0.000936 0.002222 -0.001986 0.000000 0.015010 0.000000
# 6 0.000000 0.000000 0.000000 0.040508 0.000000 -0.149779
#
#
# Mechanical properties :
#
#
# Convention : Reuss Voigt Hill
#
# Bulk Modulus (GPa) = 8.33508 53.55842 30.94675
# Shear Modulus (GPa) = 54.50998 33.19530 43.85264
#
# Velocity S-wave (km/s) = 4.91772 3.83764 4.41086
# Velocity P-wave (km/s) = 5.99527 6.58775 6.29848
#
# Compressibility (1/GPa) = 0.11997490
#
# Stress axis : x y z
#
# Youngs Moduli (GPa) = 90.60107 9.57946 143.93015
#
# Poissons Ratio (x) = -0.01169 0.64123
# Poissons Ratio (y) = -0.11055 -0.29288
# Poissons Ratio (z) = 0.40364 -0.01949
#
# Static dielectric constant tensor:
#      x y z
#    x 1.853890 0.000000 0.067590 
#    y 0.000000 1.846910 0.000000 
#    z 0.067590 0.000000 2.132000 
# 
# From -- ./inp_files/13302.got.cif
#   From: 2010.05.17/outbox.cif.g08.bks.cpg/sg15_7_cif.got.tgz:13302.got - 2010.06.03 18:47:42.
