data_PCOD9258368
_publ_section_title
;
Structure prediction by ZEFSAII (Michael W. Deem and Ramdas Pophale) SiO2 
 PCOD9258368
Probable space group: C 2/C
;
_chemical_formula_sum "Si O2"
_cell_formula_units_Z 48
_cell_length_a 12.346237
_cell_length_b 14.343665
_cell_length_c 20.232284
_cell_angle_alpha 90.000000
_cell_angle_beta 143.147090
_cell_angle_gamma 90.000000
_cell_volume 2148.914654
_symmetry_space_group_name_H-M "C 2/C"
_symmetry_group_IT_number 15
_symmetry_cell_setting 'monoclinic'
loop_
_space_group_symop_operation_xyz
x,y,z
-x,y,1/2-z
-x,-y,-z
x,-y,1/2+z
1/2+x,1/2+y,z
1/2-x,1/2+y,1/2-z
1/2-x,1/2-y,-z
1/2+x,1/2-y,1/2+z
loop_
_atom_site_type_symbol
_atom_site_label
_atom_site_fract_x
_atom_site_fract_y
_atom_site_fract_z
Si Si1 0.195763 0.971153 0.069247
Si Si2 0.271391 0.886579 0.508902
Si Si3 0.318026 0.759883 0.421894
Si Si4 0.040247 0.139583 0.202483
Si Si5 0.329382 0.108965 0.240882
Si Si6 0.774390 0.248539 0.914232
O O1 0.233686 0.862510 0.088061
O O2 0.212234 0.012043 0.003409
O O3 0.321461 0.029411 0.181147
O O4 0.000000 0.000000 0.000000
O O5 0.243269 0.851398 0.421228
O O6 0.174860 0.815121 0.513511
O O7 0.486325 0.885730 0.628665
O O8 0.197763 0.707609 0.309390
O O9 0.515495 0.775421 0.487354
O O10 0.153084 0.093826 0.200140
O O11 0.178894 0.217760 0.299295
O O12 0.000000 0.081339 0.250000
O O13 0.854889 0.195139 0.097740
#
# Coordination Sequence:
#
# PCOD9258368 Si02
#       6
#     8   8   8   8   8   8
#     4  11  20  33  53  85 107 142 184 233 276 324
#     4  10  20  32  52  84 117 140 182 232 274 324
#     4  10  18  33  55  79 111 147 180 230 268 334
#     4   8  20  34  55  78 111 143 186 233 267 331
#     4  11  20  34  57  86 109 149 189 223 281 332
#     4   9  18  36  51  81 108 138 186 225 275 315
#
# _framework density 22.336856999999998
#
# number of rings (size 3 to 8) (size 9 to 14) (size 15 to 20)
#    1.000    1.000    5.000    2.000    4.667    0.667 
#    0.000    0.000    0.000    3.000    0.000    0.000 
#    0.000    0.000    0.000    0.000    0.000    0.000 
#
# Total GULP energy -133828.222333 kJ/mol
# GULP energy per Si atom -5576.175931 kJ/mol
# Density = 2.228602 g / cm^3
# Si number density = 22.336857 Si / 1000 Ang^3
#
#
#
# Elastic Constant Matrix: (Units=GPa)
#
#
# Indices 1 2 3 4 5 6 
#
# 1 138.7938 30.8302 23.7873 0.0000 20.8556 0.0000
# 2 30.8302 61.8502 4.3796 0.0000 -4.6311 0.0000
# 3 23.7873 4.3796 58.0208 0.0000 15.7001 0.0000
# 4 0.0000 0.0000 0.0000 12.6014 0.0000 4.7582
# 5 20.8556 -4.6311 15.7001 0.0000 42.1841 0.0000
# 6 0.0000 0.0000 0.0000 4.7582 0.0000 28.8463
#
#
#
# Elastic Compliance Matrix: (Units=1/GPa)
#
#
# Indices 1 2 3 4 5 6 
#
# 1 0.009306 -0.004796 -0.002297 0.000000 -0.004272 0.000000
# 2 -0.004796 0.018966 -0.000745 0.000000 0.004731 0.000000
# 3 -0.002297 -0.000745 0.019958 0.000000 -0.006374 0.000000
# 4 0.000000 0.000000 0.000000 0.084627 0.000000 -0.013959
# 5 -0.004272 0.004731 -0.006374 0.000000 0.028710 0.000000
# 6 0.000000 0.000000 0.000000 -0.013959 0.000000 0.036969
#
#
# Mechanical properties :
#
#
# Convention : Reuss Voigt Hill
#
# Bulk Modulus (GPa) = 30.71948 41.85100 36.28524
# Shear Modulus (GPa) = 22.21601 30.03754 26.12678
#
# Velocity S-wave (km/s) = 3.15713 3.67106 3.42376
# Velocity P-wave (km/s) = 5.20314 6.06184 5.64883
#
# Compressibility (1/GPa) = 0.03255264
#
# Stress axis : x y z
#
# Youngs Moduli (GPa) = 107.45853 52.72677 50.10511
#
# Poissons Ratio (x) = 0.25287 0.11510
# Poissons Ratio (y) = 0.51536 0.03735
# Poissons Ratio (z) = 0.24685 0.03931
#
# Static dielectric constant tensor:
#      x y z
#    x 1.926310 0.000000 -0.044970 
#    y 0.000000 1.820940 0.000000 
#    z -0.044970 0.000000 1.877140 
# 
# From -- ./inp_files/239036.got.cif
#   From: 2010.05.17/outbox.cif.g08.bks.cpg/sg15_120_cif.got.tgz:239036.got - 2010.06.03 18:47:42.
