data_PCOD9258646
_publ_section_title
;
Structure prediction by ZEFSAII (Michael W. Deem and Ramdas Pophale) SiO2 
 PCOD9258646
Probable space group: C 2/C
;
_chemical_formula_sum "Si O2"
_cell_formula_units_Z 40
_cell_length_a 12.558147
_cell_length_b 12.278429
_cell_length_c 16.648073
_cell_angle_alpha 90.000000
_cell_angle_beta 141.859577
_cell_angle_gamma 90.000000
_cell_volume 1585.379493
_symmetry_space_group_name_H-M "C 2/C"
_symmetry_group_IT_number 15
_symmetry_cell_setting 'monoclinic'
loop_
_space_group_symop_operation_xyz
x,y,z
-x,y,1/2-z
-x,-y,-z
x,-y,1/2+z
1/2+x,1/2+y,z
1/2-x,1/2+y,1/2-z
1/2-x,1/2-y,-z
1/2+x,1/2-y,1/2+z
loop_
_atom_site_type_symbol
_atom_site_label
_atom_site_fract_x
_atom_site_fract_y
_atom_site_fract_z
Si Si1 0.493655 0.416383 0.071942
Si Si2 0.501804 0.971560 0.377603
Si Si3 0.188353 0.264089 0.256458
Si Si4 0.665979 0.827068 0.817358
Si Si5 0.711167 0.474226 0.834006
O O1 0.632427 0.327291 0.125296
O O2 0.553693 0.468149 0.192711
O O3 0.500000 0.500000 0.000000
O O4 0.305349 0.363692 0.964646
O O5 0.464167 0.850765 0.322057
O O6 0.695088 0.984680 0.524333
O O7 0.428061 0.068516 0.279055
O O8 0.365966 0.981220 0.369744
O O9 0.215787 0.227625 0.180196
O O10 0.179247 0.154097 0.301493
O O11 0.500000 0.760542 0.750000
#
# Coordination Sequence:
#
# PCOD9258646 Si02
#       5
#     8   8   8   8   8
#     4  11  19  37  56  87 115 159 199 242 287 359
#     4   9  18  34  54  84 114 156 197 240 283 354
#     4  10  18  33  63  86 115 153 208 237 289 358
#     4  11  23  38  58  91 126 156 188 251 309 344
#     4   9  18  30  56  85 107 147 212 242 271 337
#
# _framework density 25.230551999999999
#
# number of rings (size 3 to 8) (size 9 to 14) (size 15 to 20)
#    0.000    2.000    6.000    1.200    0.000    2.400 
#    0.000    1.000    0.000    4.800    0.000    1.400 
#    0.000    0.000    0.000    0.000    0.000    0.000 
#
# Total GULP energy -111622.979226 kJ/mol
# GULP energy per Si atom -5581.148961 kJ/mol
# Density = 2.517313 g / cm^3
# Si number density = 25.230552 Si / 1000 Ang^3
#
#
#
# Elastic Constant Matrix: (Units=GPa)
#
#
# Indices 1 2 3 4 5 6 
#
# 1 40.2074 15.5204 44.7916 -0.0001 14.8763 0.0002
# 2 15.5204 125.9277 49.9667 -0.0002 -16.8114 0.0006
# 3 44.7916 49.9667 219.5388 -0.0013 23.5344 0.0020
# 4 -0.0001 -0.0002 -0.0013 -471.6809 -0.0008 427.2382
# 5 14.8763 -16.8114 23.5344 -0.0008 34.2023 0.0011
# 6 0.0002 0.0006 0.0020 427.2382 0.0011 -343.1109
#
#
#
# Elastic Compliance Matrix: (Units=1/GPa)
#
#
# Indices 1 2 3 4 5 6 
#
# 1 0.037996 -0.004748 -0.005020 0.000000 -0.015406 0.000000
# 2 -0.004748 0.010690 -0.002428 0.000000 0.008990 0.000000
# 3 -0.005020 -0.002428 0.006506 0.000000 -0.003486 0.000000
# 4 0.000000 0.000000 0.000000 0.016581 0.000000 0.020646
# 5 -0.015406 0.008990 -0.003486 0.000000 0.042756 0.000000
# 6 0.000000 0.000000 0.000000 0.020646 0.000000 0.022794
#
#
# Mechanical properties :
#
#
# Convention : Reuss Voigt Hill
#
# Bulk Modulus (GPa) = 32.46772 67.35903 49.91338
# Shear Modulus (GPa) = 29.07304 -137.75822 -54.34259
#
# Velocity S-wave (km/s) = 3.39823 -7.39718 -4.64598
# Velocity P-wave (km/s) = 5.31918 6.79723 2.99238
#
# Compressibility (1/GPa) = 0.03079982
#
# Stress axis : x y z
#
# Youngs Moduli (GPa) = 26.31839 93.54691 153.71359
#
# Poissons Ratio (x) = 0.44413 0.77167
# Poissons Ratio (y) = 0.12495 0.37323
# Poissons Ratio (z) = 0.13212 0.22714
#
# Static dielectric constant tensor:
#      x y z
#    x 2.176170 0.000000 -0.047910 
#    y 0.000000 2.076630 0.000000 
#    z -0.047910 0.000000 2.053170 
# 
# From -- ./inp_files/248525.got.cif
#   From: 2010.05.17/outbox.cif.g08.bks.cpg/sg15_125_cif.got.tgz:248525.got - 2010.06.03 18:47:42.
