data_PCOD9258468
_publ_section_title
;
Structure prediction by ZEFSAII (Michael W. Deem and Ramdas Pophale) SiO2 
 PCOD9258468
Probable space group: C 2/C
;
_chemical_formula_sum "Si O2"
_cell_formula_units_Z 60
_cell_length_a 8.631520
_cell_length_b 15.599153
_cell_length_c 24.660673
_cell_angle_alpha 90.000000
_cell_angle_beta 90.238641
_cell_angle_gamma 90.000000
_cell_volume 3320.392746
_symmetry_space_group_name_H-M "C 2/C"
_symmetry_group_IT_number 15
_symmetry_cell_setting 'monoclinic'
loop_
_space_group_symop_operation_xyz
x,y,z
-x,y,1/2-z
-x,-y,-z
x,-y,1/2+z
1/2+x,1/2+y,z
1/2-x,1/2+y,1/2-z
1/2-x,1/2-y,-z
1/2+x,1/2-y,1/2+z
loop_
_atom_site_type_symbol
_atom_site_label
_atom_site_fract_x
_atom_site_fract_y
_atom_site_fract_z
Si Si1 0.342614 0.004111 0.785843
Si Si2 0.640110 0.632572 0.532256
Si Si3 0.077777 0.759422 0.935279
Si Si4 0.504520 0.325355 0.141868
Si Si5 0.670283 0.135345 0.617337
Si Si6 0.500000 0.435599 0.250000
Si Si7 0.651393 0.018750 0.035202
Si Si8 0.179367 0.647398 0.129235
O O1 0.500000 0.999075 0.750000
O O2 0.371270 0.082281 0.828381
O O3 0.169407 0.018103 0.759278
O O4 0.326651 0.917763 0.821236
O O5 0.787195 0.694187 0.545244
O O6 0.536726 0.685054 0.488557
O O7 0.563140 0.620342 0.590128
O O8 0.709529 0.549689 0.503115
O O9 0.151289 0.823613 0.891104
O O10 0.952082 0.700932 0.906898
O O11 0.323956 0.313148 0.131490
O O12 0.525109 0.377481 0.196910
O O13 0.589707 0.234557 0.141869
O O14 0.695546 0.062260 0.571871
O O15 0.615015 0.096831 0.076551
O O16 0.500000 0.000000 0.000000
#
# Coordination Sequence:
#
# PCOD9258468 Si02
#       8
#     8   8   8   8   8   4   8   8
#     4  10  23  42  63  86 113 159 201 251 304 358
#     4   9  18  32  56  82 115 158 189 232 298 343
#     4   9  17  34  56  83 118 154 189 235 292 358
#     4  10  22  38  59  85 119 151 195 254 295 348
#     4  10  21  36  58  88 120 152 200 241 298 361
#     4  10  24  44  62  86 120 148 200 260 298 350
#     4  10  18  33  57  83 116 158 194 233 285 359
#     4   9  21  38  57  82 117 150 195 243 294 352
#
# _framework density 18.070152
#
# number of rings (size 3 to 8) (size 9 to 14) (size 15 to 20)
#    0.000    2.400    1.333    0.800    4.667    1.067 
#    2.400    0.000    0.000    0.000    0.000    0.000 
#    0.000    0.000    0.000    0.000    0.000    0.000 
#
# Total GULP energy -167117.182511 kJ/mol
# GULP energy per Si atom -5570.572750 kJ/mol
# Density = 1.802902 g / cm^3
# Si number density = 18.070152 Si / 1000 Ang^3
#
#
#
# Elastic Constant Matrix: (Units=GPa)
#
#
# Indices 1 2 3 4 5 6 
#
# 1 81.2070 45.8769 73.5868 0.0000 5.4962 0.0000
# 2 45.8769 69.4648 57.8600 0.0000 -5.2425 0.0000
# 3 73.5868 57.8600 136.2603 0.0000 -10.1065 0.0000
# 4 0.0000 0.0000 0.0000 5.5543 0.0000 3.4989
# 5 5.4962 -5.2425 -10.1065 0.0000 27.7628 0.0000
# 6 0.0000 0.0000 0.0000 3.4989 0.0000 24.2007
#
#
#
# Elastic Compliance Matrix: (Units=1/GPa)
#
#
# Indices 1 2 3 4 5 6 
#
# 1 0.031251 -0.010460 -0.013403 0.000000 -0.013041 0.000000
# 2 -0.010460 0.025791 -0.004921 0.000000 0.005149 0.000000
# 3 -0.013403 -0.004921 0.017261 0.000000 0.008007 0.000000
# 4 0.000000 0.000000 0.000000 0.198083 0.000000 -0.028639
# 5 -0.013041 0.005149 0.008007 0.000000 0.042488 0.000000
# 6 0.000000 0.000000 0.000000 -0.028639 0.000000 0.045462
#
#
# Mechanical properties :
#
#
# Convention : Reuss Voigt Hill
#
# Bulk Modulus (GPa) = 59.75210 71.28662 65.51936
# Shear Modulus (GPa) = 11.80689 18.81078 15.30884
#
# Velocity S-wave (km/s) = 2.55893 3.22993 2.91381
# Velocity P-wave (km/s) = 6.47065 7.31064 6.90344
#
# Compressibility (1/GPa) = 0.01673581
#
# Stress axis : x y z
#
# Youngs Moduli (GPa) = 31.99905 38.77281 57.93567
#
# Poissons Ratio (x) = 0.40555 0.77650
# Poissons Ratio (y) = 0.33470 0.28511
# Poissons Ratio (z) = 0.42887 0.19080
#
# Static dielectric constant tensor:
#      x y z
#    x 1.632460 0.000000 -0.016820 
#    y 0.000000 1.614270 0.000000 
#    z -0.016820 0.000000 1.630530 
# 
# From -- ./inp_files/264322.got.cif
#   From: 2010.05.17/outbox.cif.g08.bks.cpg/sg15_133_cif.got.tgz:264322.got - 2010.06.03 18:47:42.
