data_PCOD9258729
_publ_section_title
;
Structure prediction by ZEFSAII (Michael W. Deem and Ramdas Pophale) SiO2 
 PCOD9258729
Probable space group: C 2/C
;
_chemical_formula_sum "Si O2"
_cell_formula_units_Z 64
_cell_length_a 21.836328
_cell_length_b 6.740332
_cell_length_c 16.035861
_cell_angle_alpha 90.000000
_cell_angle_beta 109.461503
_cell_angle_gamma 90.000000
_cell_volume 2225.373718
_symmetry_space_group_name_H-M "C 2/C"
_symmetry_group_IT_number 15
_symmetry_cell_setting 'monoclinic'
loop_
_space_group_symop_operation_xyz
x,y,z
-x,y,1/2-z
-x,-y,-z
x,-y,1/2+z
1/2+x,1/2+y,z
1/2-x,1/2+y,1/2-z
1/2-x,1/2-y,-z
1/2+x,1/2-y,1/2+z
loop_
_atom_site_type_symbol
_atom_site_label
_atom_site_fract_x
_atom_site_fract_y
_atom_site_fract_z
Si Si1 0.355435 0.878711 0.205732
Si Si2 0.476915 0.811564 0.334411
Si Si3 0.233960 0.128398 0.895862
Si Si4 0.135608 0.788517 0.222089
Si Si5 0.638437 0.780217 0.994687
Si Si6 0.496737 0.280104 0.148889
Si Si7 0.284058 0.725896 0.895593
Si Si8 0.898157 0.734711 0.542080
O O1 0.399805 0.782455 0.298197
O O2 0.278379 0.887046 0.166368
O O3 0.377479 0.782431 0.129043
O O4 0.379723 0.105691 0.222902
O O5 0.500000 0.766128 0.250000
O O6 0.525836 0.712606 0.421977
O O7 0.493360 0.043187 0.355241
O O8 0.185806 0.079507 0.796997
O O9 0.188900 0.245308 0.940455
O O10 0.256470 0.910523 0.936265
O O11 0.303061 0.236186 0.908731
O O12 0.067588 0.864286 0.154331
O O13 0.179017 0.696615 0.169248
O O14 0.570862 0.679964 0.930445
O O15 0.613294 0.008914 0.995954
O O16 0.500000 0.330202 0.250000
O O17 0.344404 0.630572 0.972602
#
# Coordination Sequence:
#
# PCOD9258729 Si02
#       8
#     8   8   8   8   8   8   8   8
#     4  10  18  34  54  74 100 143 175 207 261 317
#     4   7  13  26  52  73  92 122 172 213 247 291
#     4  10  19  33  52  76 109 133 168 215 261 312
#     4  11  20  35  53  74 106 143 173 215 266 312
#     4   9  16  31  56  80  97 127 179 224 248 295
#     4   9  14  28  53  78  93 129 180 217 249 299
#     4  11  23  31  48  82 113 132 169 219 270 316
#     4   9  16  33  54  79  99 134 178 219 252 307
#
# _framework density 28.759212999999999
#
# number of rings (size 3 to 8) (size 9 to 14) (size 15 to 20)
#    0.000    2.500    2.500    2.625    0.000    0.000 
#    0.000   11.250    8.250    0.000    0.000    3.500 
#    0.000    0.000    0.000    0.000    0.000    0.000 
#
# Total GULP energy -178451.170577 kJ/mol
# GULP energy per Si atom -5576.599081 kJ/mol
# Density = 2.869376 g / cm^3
# Si number density = 28.759213 Si / 1000 Ang^3
#
#
#
# Elastic Constant Matrix: (Units=GPa)
#
#
# Indices 1 2 3 4 5 6 
#
# 1 146.9823 13.0486 101.2509 0.0000 79.7341 0.0000
# 2 13.0486 81.7273 30.2695 0.0000 30.0915 0.0000
# 3 101.2509 30.2695 148.8099 0.0000 107.4165 0.0000
# 4 0.0000 0.0000 0.0000 35.8848 0.0000 23.4491
# 5 79.7341 30.0915 107.4165 0.0000 104.7463 0.0000
# 6 0.0000 0.0000 0.0000 23.4491 0.0000 24.4289
#
#
#
# Elastic Compliance Matrix: (Units=1/GPa)
#
#
# Indices 1 2 3 4 5 6 
#
# 1 0.013295 0.001739 -0.006675 0.000000 -0.003775 0.000000
# 2 0.001739 0.013912 -0.000665 0.000000 -0.004639 0.000000
# 3 -0.006675 -0.000665 0.029224 0.000000 -0.024697 0.000000
# 4 0.000000 0.000000 0.000000 0.074759 0.000000 -0.071761
# 5 -0.003775 -0.004639 -0.024697 0.000000 0.039080 0.000000
# 6 0.000000 0.000000 0.000000 -0.071761 0.000000 0.109818
#
#
# Mechanical properties :
#
#
# Convention : Reuss Voigt Hill
#
# Bulk Modulus (GPa) = 22.10862 74.07307 48.09085
# Shear Modulus (GPa) = 16.32033 48.54203 32.43118
#
# Velocity S-wave (km/s) = 2.38477 4.11284 3.36174
# Velocity P-wave (km/s) = 3.90986 6.95457 5.64150
#
# Compressibility (1/GPa) = 0.04523122
#
# Stress axis : x y z
#
# Youngs Moduli (GPa) = 75.21596 71.87831 34.21824
#
# Poissons Ratio (x) = -0.12503 0.22840
# Poissons Ratio (y) = -0.13083 0.02275
# Poissons Ratio (z) = 0.50206 0.04778
#
# Static dielectric constant tensor:
#      x y z
#    x 2.277150 0.000000 0.057160 
#    y 0.000000 2.380430 0.000000 
#    z 0.057160 0.000000 2.346340 
# 
# From -- ./inp_files/218977.got.cif
#   From: 2010.05.17/outbox.cif.g08.bks.cpg/sg15_110_cif.got.tgz:218977.got - 2010.06.03 18:47:42.
