data_PCOD9258107
_publ_section_title
;
Structure prediction by ZEFSAII (Michael W. Deem and Ramdas Pophale) SiO2 
 PCOD9258107
Probable space group: C 2/C
;
_chemical_formula_sum "Si O2"
_cell_formula_units_Z 40
_cell_length_a 9.235670
_cell_length_b 12.753413
_cell_length_c 18.303112
_cell_angle_alpha 90.000000
_cell_angle_beta 134.934308
_cell_angle_gamma 90.000000
_cell_volume 1526.167273
_symmetry_space_group_name_H-M "C 2/C"
_symmetry_group_IT_number 15
_symmetry_cell_setting 'monoclinic'
loop_
_space_group_symop_operation_xyz
x,y,z
-x,y,1/2-z
-x,-y,-z
x,-y,1/2+z
1/2+x,1/2+y,z
1/2-x,1/2+y,1/2-z
1/2-x,1/2-y,-z
1/2+x,1/2-y,1/2+z
loop_
_atom_site_type_symbol
_atom_site_label
_atom_site_fract_x
_atom_site_fract_y
_atom_site_fract_z
Si Si1 0.957280 0.441037 0.559541
Si Si2 0.078539 0.737139 0.855766
Si Si3 0.275464 0.032868 0.136332
Si Si4 0.100311 0.031768 0.216572
Si Si5 0.059228 0.746477 0.543125
O O1 0.176364 0.429770 0.677178
O O2 0.879712 0.330293 0.500365
O O3 0.000000 0.500000 0.500000
O O4 0.807796 0.498396 0.563542
O O5 0.952343 0.693758 0.879984
O O6 0.000000 0.697184 0.750000
O O7 0.033801 0.862649 0.841248
O O8 0.320889 0.722843 0.946796
O O9 0.500000 0.032953 0.250000
O O10 0.133441 0.981379 0.148467
O O11 0.196671 0.151735 0.100041
O O12 0.000000 0.972080 0.250000
#
# Coordination Sequence:
#
# PCOD9258107 Si02
#       5
#     8   8   8   8   8
#     4  11  21  35  53  83 122 154 189 236 300 359
#     4   9  16  31  59  84 102 141 203 243 283 334
#     4   9  20  35  58  87 112 151 199 241 293 343
#     4   9  16  35  60  76 106 152 194 230 284 358
#     4  10  18  32  60  82 108 147 199 248 280 339
#
# _framework density 26.209448999999999
#
# number of rings (size 3 to 8) (size 9 to 14) (size 15 to 20)
#    0.000    2.400    4.000    0.600    0.000    0.000 
#    0.000    5.000    0.000    0.000    0.000    0.000 
#    0.000    0.000    0.000    0.000    0.000    0.000 
#
# Total GULP energy -111816.291634 kJ/mol
# GULP energy per Si atom -5590.814582 kJ/mol
# Density = 2.614979 g / cm^3
# Si number density = 26.209449 Si / 1000 Ang^3
#
#
#
# Elastic Constant Matrix: (Units=GPa)
#
#
# Indices 1 2 3 4 5 6 
#
# 1 205.3892 31.5103 47.0847 0.0000 -76.2815 0.0000
# 2 31.5103 62.4642 13.3437 0.0000 -2.7973 0.0000
# 3 47.0847 13.3437 119.1867 0.0000 -13.2538 0.0000
# 4 0.0000 0.0000 0.0000 15.6683 0.0000 3.3814
# 5 -76.2815 -2.7973 -13.2538 0.0000 68.5445 0.0000
# 6 0.0000 0.0000 0.0000 3.3814 0.0000 39.6470
#
#
#
# Elastic Compliance Matrix: (Units=1/GPa)
#
#
# Indices 1 2 3 4 5 6 
#
# 1 0.009862 -0.004021 -0.002293 0.000000 0.010367 0.000000
# 2 -0.004021 0.018048 -0.000866 0.000000 -0.003906 0.000000
# 3 -0.002293 -0.000866 0.009305 0.000000 -0.000788 0.000000
# 4 0.000000 0.000000 0.000000 0.065020 0.000000 -0.005545
# 5 0.010367 -0.003906 -0.000788 0.000000 0.025815 0.000000
# 6 0.000000 0.000000 0.000000 -0.005545 0.000000 0.025696
#
#
# Mechanical properties :
#
#
# Convention : Reuss Voigt Hill
#
# Bulk Modulus (GPa) = 43.75468 63.43527 53.59498
# Shear Modulus (GPa) = 28.45373 44.44537 36.44955
#
# Velocity S-wave (km/s) = 3.29846 4.12245 3.73326
# Velocity P-wave (km/s) = 5.58900 6.84947 6.25109
#
# Compressibility (1/GPa) = 0.02285470
#
# Stress axis : x y z
#
# Youngs Moduli (GPa) = 101.40171 55.40892 107.46447
#
# Poissons Ratio (x) = 0.22278 0.24640
# Poissons Ratio (y) = 0.40771 0.09311
# Poissons Ratio (z) = 0.23250 0.04801
#
# Static dielectric constant tensor:
#      x y z
#    x 2.111360 0.000000 -0.085690 
#    y 0.000000 2.105860 0.000000 
#    z -0.085690 0.000000 2.027150 
# 
# From -- ./inp_files/190691.got.cif
#   From: 2010.05.17/outbox.cif.g08.bks.cpg/sg15_96_cif.got.tgz:190691.got - 2010.06.03 18:47:42.
