data_PCOD9258471
_publ_section_title
;
Structure prediction by ZEFSAII (Michael W. Deem and Ramdas Pophale) SiO2 
 PCOD9258471
Probable space group: C 2/C
;
_chemical_formula_sum "Si O2"
_cell_formula_units_Z 40
_cell_length_a 22.483533
_cell_length_b 6.990509
_cell_length_c 28.237523
_cell_angle_alpha 90.000000
_cell_angle_beta 21.908797
_cell_angle_gamma 90.000000
_cell_volume 1656.000237
_symmetry_space_group_name_H-M "C 2/C"
_symmetry_group_IT_number 15
_symmetry_cell_setting 'monoclinic'
loop_
_space_group_symop_operation_xyz
x,y,z
-x,y,1/2-z
-x,-y,-z
x,-y,1/2+z
1/2+x,1/2+y,z
1/2-x,1/2+y,1/2-z
1/2-x,1/2-y,-z
1/2+x,1/2-y,1/2+z
loop_
_atom_site_type_symbol
_atom_site_label
_atom_site_fract_x
_atom_site_fract_y
_atom_site_fract_z
Si Si1 0.201876 0.699358 0.849239
Si Si2 0.970033 0.091232 0.718222
Si Si3 0.153435 0.744971 0.361991
Si Si4 0.375153 0.138670 0.779236
Si Si5 0.282924 0.951328 0.450142
O O1 0.331715 0.707483 0.794761
O O2 0.170450 0.472931 0.866298
O O3 0.282430 0.751935 0.739266
O O4 0.032681 0.790320 0.990033
O O5 0.000000 0.145392 0.750000
O O6 0.919172 0.864798 0.754115
O O7 0.140677 0.093030 0.566912
O O8 0.272611 0.868831 0.307135
O O9 0.538531 0.017759 0.662436
O O10 0.279822 0.083278 0.896517
O O11 0.250000 0.750000 0.500000
#
# Coordination Sequence:
#
# PCOD9258471 Si02
#       5
#     8   8   8   8   8
#     4  10  24  41  63  90 126 172 210 262 314 379
#     4  10  18  33  57  84 120 160 201 255 313 371
#     4  10  23  41  62  93 128 168 212 256 322 383
#     4   9  17  29  55  86 119 147 199 274 307 344
#     4   9  15  27  49  87 117 142 195 258 317 342
#
# _framework density 24.154586999999999
#
# number of rings (size 3 to 8) (size 9 to 14) (size 15 to 20)
#    0.000    2.400    4.000    0.000    8.400    2.400 
#    0.000    1.000    0.000    0.000    0.000    0.000 
#    0.000    0.000    0.000    0.000    0.000    0.000 
#
# Total GULP energy -111840.860720 kJ/mol
# GULP energy per Si atom -5592.043036 kJ/mol
# Density = 2.409961 g / cm^3
# Si number density = 24.154587 Si / 1000 Ang^3
#
#
#
# Elastic Constant Matrix: (Units=GPa)
#
#
# Indices 1 2 3 4 5 6 
#
# 1 218.5899 19.7160 108.2347 -0.0835 -14.0065 -0.0884
# 2 19.7160 64.4607 19.3071 -0.0310 -12.0870 -0.0713
# 3 108.2347 19.3071 158.4715 -0.1016 15.7228 -0.2136
# 4 -0.0835 -0.0310 -0.1016 27.2370 -0.0139 -15.9357
# 5 -14.0065 -12.0870 15.7228 -0.0139 31.4196 -0.0455
# 6 -0.0884 -0.0713 -0.2136 -15.9357 -0.0455 38.8611
#
#
#
# Elastic Compliance Matrix: (Units=1/GPa)
#
#
# Indices 1 2 3 4 5 6 
#
# 1 0.008084 0.000739 -0.006311 0.000002 0.007046 -0.000006
# 2 0.000739 0.018072 -0.003608 0.000038 0.009087 0.000041
# 3 -0.006311 -0.003608 0.012076 0.000047 -0.010244 0.000053
# 4 0.000002 0.000038 0.000047 0.048305 0.000042 0.019809
# 5 0.007046 0.009087 -0.010244 0.000042 0.043590 0.000045
# 6 -0.000006 0.000041 0.000053 0.019809 0.000045 0.033856
#
#
# Mechanical properties :
#
#
# Convention : Reuss Voigt Hill
#
# Bulk Modulus (GPa) = 50.31886 81.78196 66.05041
# Shear Modulus (GPa) = 26.45960 39.12116 32.79038
#
# Velocity S-wave (km/s) = 3.31332 4.02881 3.68845
# Velocity P-wave (km/s) = 5.95942 7.45473 6.74862
#
# Compressibility (1/GPa) = 0.01987326
#
# Stress axis : x y z
#
# Youngs Moduli (GPa) = 123.69625 55.33449 82.80628
#
# Poissons Ratio (x) = -0.04087 0.52256
# Poissons Ratio (y) = -0.09137 0.29874
# Poissons Ratio (z) = 0.78060 0.19963
#
# Static dielectric constant tensor:
#      x y z
#    x 1.826820 0.000090 -0.106790 
#    y 0.000090 1.942120 0.000110 
#    z -0.106790 0.000110 1.725740 
# 
# From -- ./inp_files/318450.got.cif
#   From: 2010.05.17/outbox.cif.g08.bks.cpg/sg15_160_cif.got.tgz:318450.got - 2010.06.03 18:47:42.
