data_PCOD9258297
_publ_section_title
;
Structure prediction by ZEFSAII (Michael W. Deem and Ramdas Pophale) SiO2 
 PCOD9258297
Probable space group: C 2/C
;
_chemical_formula_sum "Si O2"
_cell_formula_units_Z 40
_cell_length_a 12.642034
_cell_length_b 8.134897
_cell_length_c 24.188547
_cell_angle_alpha 90.000000
_cell_angle_beta 146.423489
_cell_angle_gamma 90.000000
_cell_volume 1375.761717
_symmetry_space_group_name_H-M "C 2/C"
_symmetry_group_IT_number 15
_symmetry_cell_setting 'monoclinic'
loop_
_space_group_symop_operation_xyz
x,y,z
-x,y,1/2-z
-x,-y,-z
x,-y,1/2+z
1/2+x,1/2+y,z
1/2-x,1/2+y,1/2-z
1/2-x,1/2-y,-z
1/2+x,1/2-y,1/2+z
loop_
_atom_site_type_symbol
_atom_site_label
_atom_site_fract_x
_atom_site_fract_y
_atom_site_fract_z
Si Si1 0.704654 0.746948 0.544616
Si Si2 0.022280 0.437702 0.576209
Si Si3 0.586674 0.878398 0.207111
Si Si4 0.889498 0.113668 0.756136
Si Si5 0.015220 0.934916 0.081928
O O1 0.750000 0.750000 0.500000
O O2 0.587356 0.913818 0.502322
O O3 0.916802 0.722452 0.659343
O O4 0.580877 0.581617 0.492523
O O5 0.252741 0.465586 0.675005
O O6 0.990166 0.475539 0.628656
O O7 0.963899 0.250440 0.541364
O O8 0.753146 0.941880 0.318977
O O9 0.716385 0.790338 0.214495
O O10 0.000000 0.177336 0.750000
O O11 0.019336 0.063337 0.865548
#
# Coordination Sequence:
#
# PCOD9258297 Si02
#       5
#     8   8   8   8   8
#     4  10  18  33  53  88 111 134 183 247 261 312
#     4   8  18  31  55  78 100 140 187 220 268 314
#     4   7  19  28  53  79 109 138 175 223 282 303
#     4   8  18  33  53  80 113 147 180 222 285 327
#     4   9  19  33  56  81 104 144 189 219 268 335
#
# _framework density 29.0748
#
# number of rings (size 3 to 8) (size 9 to 14) (size 15 to 20)
#    2.400    0.800    0.000    0.000   16.800    3.200 
#    0.000    3.000    0.000    6.000    0.000    0.000 
#    0.000    0.000    0.000    0.000    0.000    0.000 
#
# Total GULP energy -111610.806894 kJ/mol
# GULP energy per Si atom -5580.540345 kJ/mol
# Density = 2.900862 g / cm^3
# Si number density = 29.074800 Si / 1000 Ang^3
#
#
#
# Elastic Constant Matrix: (Units=GPa)
#
#
# Indices 1 2 3 4 5 6 
#
# 1 170.8215 117.0719 81.3016 0.0000 8.4434 0.0000
# 2 117.0719 248.5386 75.2040 0.0000 24.7199 0.0000
# 3 81.3016 75.2040 151.0628 0.0000 8.6387 0.0000
# 4 0.0000 0.0000 0.0000 43.2892 0.0000 -2.2968
# 5 8.4434 24.7199 8.6387 0.0000 59.4827 0.0000
# 6 0.0000 0.0000 0.0000 -2.2968 0.0000 55.2441
#
#
#
# Elastic Compliance Matrix: (Units=1/GPa)
#
#
# Indices 1 2 3 4 5 6 
#
# 1 0.010097 -0.003725 -0.003616 0.000000 0.000640 0.000000
# 2 -0.003725 0.006276 -0.001009 0.000000 -0.001933 0.000000
# 3 -0.003616 -0.001009 0.009090 0.000000 -0.000388 0.000000
# 4 0.000000 0.000000 0.000000 0.023152 0.000000 0.000963
# 5 0.000640 -0.001933 -0.000388 0.000000 0.017580 0.000000
# 6 0.000000 0.000000 0.000000 0.000963 0.000000 0.018141
#
#
# Mechanical properties :
#
#
# Convention : Reuss Voigt Hill
#
# Bulk Modulus (GPa) = 114.12431 124.17534 119.14983
# Shear Modulus (GPa) = 48.09674 51.39289 49.74481
#
# Velocity S-wave (km/s) = 4.07165 4.20886 4.14082
# Velocity P-wave (km/s) = 7.83847 8.14990 7.99570
#
# Compressibility (1/GPa) = 0.00876237
#
# Stress axis : x y z
#
# Youngs Moduli (GPa) = 99.04267 159.34107 110.00847
#
# Poissons Ratio (x) = 0.59362 0.39778
# Poissons Ratio (y) = 0.36898 0.11097
# Poissons Ratio (z) = 0.35813 0.16073
#
# Static dielectric constant tensor:
#      x y z
#    x 2.548670 0.000000 -0.011000 
#    y 0.000000 2.358890 0.000000 
#    z -0.011000 0.000000 2.371480 
# 
# From -- ./inp_files/242956.got.cif
#   From: 2010.05.17/outbox.cif.g08.bks.cpg/sg15_122_cif.got.tgz:242956.got - 2010.06.03 18:47:42.
