data_PCOD9258859
_publ_section_title
;
Structure prediction by ZEFSAII (Michael W. Deem and Ramdas Pophale) SiO2 
 PCOD9258859
Probable space group: C 2/C
;
_chemical_formula_sum "Si O2"
_cell_formula_units_Z 60
_cell_length_a 9.070598
_cell_length_b 23.350918
_cell_length_c 23.163408
_cell_angle_alpha 90.000000
_cell_angle_beta 37.120598
_cell_angle_gamma 90.000000
_cell_volume 2960.845754
_symmetry_space_group_name_H-M "C 2/C"
_symmetry_group_IT_number 15
_symmetry_cell_setting 'monoclinic'
loop_
_space_group_symop_operation_xyz
x,y,z
-x,y,1/2-z
-x,-y,-z
x,-y,1/2+z
1/2+x,1/2+y,z
1/2-x,1/2+y,1/2-z
1/2-x,1/2-y,-z
1/2+x,1/2-y,1/2+z
loop_
_atom_site_type_symbol
_atom_site_label
_atom_site_fract_x
_atom_site_fract_y
_atom_site_fract_z
Si Si1 0.833420 0.061677 0.993539
Si Si2 0.000000 0.307015 0.750000
Si Si3 0.995269 0.374145 0.372586
Si Si4 0.957555 0.157912 0.042546
Si Si5 0.280619 0.869758 0.074313
Si Si6 0.495688 0.763644 0.546355
Si Si7 0.317371 0.284541 0.213340
Si Si8 0.869698 0.514178 0.846905
O O1 0.746154 0.074451 0.956647
O O2 0.092912 0.029781 0.915003
O O3 0.878726 0.122953 0.010155
O O4 0.651147 0.027163 0.091703
O O5 0.232198 0.342915 0.656253
O O6 0.092451 0.265585 0.772316
O O7 0.714258 0.368659 0.480855
O O8 0.000449 0.427493 0.327162
O O9 0.158014 0.381169 0.378557
O O10 0.083495 0.317350 0.311555
O O11 0.006789 0.223076 0.008545
O O12 0.029094 0.833377 0.148743
O O13 0.486165 0.828331 0.981396
O O14 0.750000 0.750000 0.500000
O O15 0.302020 0.743081 0.654517
O O16 0.000000 0.489817 0.750000
#
# Coordination Sequence:
#
# PCOD9258859 Si02
#       8
#     8   4   8   8   8   8   8   8
#     4  10  21  40  63  83 118 161 196 248 305 353
#     4  12  20  34  58  86 122 154 210 224 300 366
#     4  11  24  36  60  91 123 150 205 257 295 345
#     4  11  22  37  58  87 117 162 196 249 289 354
#     4  11  19  38  61  86 126 162 196 240 302 364
#     4  10  18  34  56  83 120 155 198 230 284 369
#     4  11  19  34  57  88 118 161 193 237 291 355
#     4  10  23  40  60  93 114 146 210 258 295 357
#
# _framework density 20.264479999999999
#
# number of rings (size 3 to 8) (size 9 to 14) (size 15 to 20)
#    0.000    1.333    6.667    0.800    2.800    2.667 
#    0.000    0.000    0.000    0.800    0.000    0.000 
#    0.000    0.000    0.000    0.000    0.000    0.000 
#
# Total GULP energy -167543.099659 kJ/mol
# GULP energy per Si atom -5584.769989 kJ/mol
# Density = 2.021836 g / cm^3
# Si number density = 20.264480 Si / 1000 Ang^3
#
#
#
# Elastic Constant Matrix: (Units=GPa)
#
#
# Indices 1 2 3 4 5 6 
#
# 1 43.9350 4.5863 19.2755 0.0011 12.1392 0.0003
# 2 4.5863 20.8218 2.7483 0.0004 -4.1040 -0.0001
# 3 19.2755 2.7483 117.9143 -0.0002 2.6921 0.0002
# 4 0.0011 0.0004 -0.0002 27.4481 -0.0002 5.9306
# 5 12.1392 -4.1040 2.6921 -0.0002 22.9002 -0.0003
# 6 0.0003 -0.0001 0.0002 5.9306 -0.0003 18.7887
#
#
#
# Elastic Compliance Matrix: (Units=1/GPa)
#
#
# Indices 1 2 3 4 5 6 
#
# 1 0.030465 -0.009554 -0.004361 -0.000001 -0.017349 0.000000
# 2 -0.009554 0.053003 -0.000006 0.000000 0.014564 0.000001
# 3 -0.004361 -0.000006 0.009166 0.000000 0.001233 0.000000
# 4 -0.000001 0.000000 0.000000 0.039099 0.000001 -0.012341
# 5 -0.017349 0.014564 0.001233 0.000001 0.055330 0.000001
# 6 0.000000 0.000001 0.000000 -0.012341 0.000001 0.057119
#
#
# Mechanical properties :
#
#
# Convention : Reuss Voigt Hill
#
# Bulk Modulus (GPa) = 15.43448 26.21014 20.82231
# Shear Modulus (GPa) = 17.02875 24.23145 20.63010
#
# Velocity S-wave (km/s) = 2.90198 3.46173 3.19414
# Velocity P-wave (km/s) = 4.34301 5.37961 4.88886
#
# Compressibility (1/GPa) = 0.06479001
#
# Stress axis : x y z
#
# Youngs Moduli (GPa) = 32.82428 18.86702 109.10268
#
# Poissons Ratio (x) = 0.18026 0.47584
# Poissons Ratio (y) = 0.31361 0.00066
# Poissons Ratio (z) = 0.14316 0.00011
#
# Static dielectric constant tensor:
#      x y z
#    x 1.714540 0.000000 -0.012520 
#    y 0.000000 1.727110 0.000000 
#    z -0.012520 0.000000 1.769310 
# 
# From -- ./inp_files/234555.got.cif
#   From: 2010.05.17/outbox.cif.g08.bks.cpg/sg15_118_cif.got.tgz:234555.got - 2010.06.03 18:47:42.
