data_PCOD9258804
_publ_section_title
;
Structure prediction by ZEFSAII (Michael W. Deem and Ramdas Pophale) SiO2 
 PCOD9258804
Probable space group: C 2/C
;
_chemical_formula_sum "Si O2"
_cell_formula_units_Z 40
_cell_length_a 21.865052
_cell_length_b 15.075947
_cell_length_c 4.871213
_cell_angle_alpha 90.000000
_cell_angle_beta 83.307276
_cell_angle_gamma 90.000000
_cell_volume 1594.786639
_symmetry_space_group_name_H-M "C 2/C"
_symmetry_group_IT_number 15
_symmetry_cell_setting 'monoclinic'
loop_
_space_group_symop_operation_xyz
x,y,z
-x,y,1/2-z
-x,-y,-z
x,-y,1/2+z
1/2+x,1/2+y,z
1/2-x,1/2+y,1/2-z
1/2-x,1/2-y,-z
1/2+x,1/2-y,1/2+z
loop_
_atom_site_type_symbol
_atom_site_label
_atom_site_fract_x
_atom_site_fract_y
_atom_site_fract_z
Si Si1 0.157283 0.330212 0.558366
Si Si2 0.538443 0.102653 0.960895
Si Si3 0.401555 0.445076 0.694452
Si Si4 0.246532 0.053649 0.206270
Si Si5 0.393759 0.745307 0.390271
O O1 0.108403 0.412749 0.538448
O O2 0.216824 0.367053 0.675718
O O3 0.163782 0.274840 0.275036
O O4 0.123834 0.262899 0.788424
O O5 0.500000 0.044968 0.750000
O O6 0.558913 0.182356 0.747318
O O7 0.500000 0.128770 0.250000
O O8 0.420334 0.474490 0.383460
O O9 0.326843 0.437990 0.735138
O O10 0.419497 0.350673 0.805497
O O11 0.262717 0.967495 0.384751
#
# Coordination Sequence:
#
# PCOD9258804 Si02
#       5
#     8   8   8   8   8
#     4  10  20  33  56  84 101 141 181 224 255 309
#     4  10  18  34  55  80 103 134 176 226 274 308
#     4  10  21  36  54  78 114 149 171 207 267 321
#     4  10  21  36  54  78 114 149 171 207 267 321
#     4  10  20  33  56  84 101 141 181 224 255 309
#
# _framework density 25.081724000000001
#
# number of rings (size 3 to 8) (size 9 to 14) (size 15 to 20)
#    1.200    0.800    2.000    2.400    0.000    1.600 
#    0.000    0.000    0.000    7.200    0.000    0.000 
#    0.000    0.000    0.000    0.000    0.000    0.000 
#
# Total GULP energy -111492.405716 kJ/mol
# GULP energy per Si atom -5574.620286 kJ/mol
# Density = 2.502464 g / cm^3
# Si number density = 25.081724 Si / 1000 Ang^3
#
#
#
# Elastic Constant Matrix: (Units=GPa)
#
#
# Indices 1 2 3 4 5 6 
#
# 1 51.0152 -10.2418 10.8218 0.0000 9.8526 0.0000
# 2 -10.2418 50.1715 -12.4411 0.0000 10.4579 0.0000
# 3 10.8218 -12.4411 127.1487 0.0000 20.5687 0.0000
# 4 0.0000 0.0000 0.0000 28.3889 0.0000 3.3495
# 5 9.8526 10.4579 20.5687 0.0000 18.7332 0.0000
# 6 0.0000 0.0000 0.0000 3.3495 0.0000 79.2865
#
#
#
# Elastic Compliance Matrix: (Units=1/GPa)
#
#
# Indices 1 2 3 4 5 6 
#
# 1 0.025344 0.010266 0.002348 0.000000 -0.021639 0.000000
# 2 0.010266 0.029892 0.006839 0.000000 -0.029596 0.000000
# 3 0.002348 0.006839 0.011128 0.000000 -0.017271 0.000000
# 4 0.000000 0.000000 0.000000 0.035402 0.000000 -0.001496
# 5 -0.021639 -0.029596 -0.017271 0.000000 0.100247 0.000000
# 6 0.000000 0.000000 0.000000 -0.001496 0.000000 0.012676
#
#
# Mechanical properties :
#
#
# Convention : Reuss Voigt Hill
#
# Bulk Modulus (GPa) = 9.49933 22.73480 16.11706
# Shear Modulus (GPa) = 23.71097 41.29481 32.50289
#
# Velocity S-wave (km/s) = 3.07799 4.06200 3.60374
# Velocity P-wave (km/s) = 4.05310 5.57528 4.87398
#
# Compressibility (1/GPa) = 0.10527059
#
# Stress axis : x y z
#
# Youngs Moduli (GPa) = 39.45679 33.45348 89.86321
#
# Poissons Ratio (x) = -0.34345 -0.21099
# Poissons Ratio (y) = -0.40508 -0.61455
# Poissons Ratio (z) = -0.09264 -0.22878
#
# Static dielectric constant tensor:
#      x y z
#    x 2.152060 0.000000 0.111320 
#    y 0.000000 2.072360 0.000000 
#    z 0.111320 0.000000 1.940340 
# 
# From -- ./inp_files/14993.got.cif
#   From: 2010.05.17/outbox.cif.g08.bks.cpg/sg15_8_cif.got.tgz:14993.got - 2010.06.03 18:47:42.
