data_PCOD9258567
_publ_section_title
;
Structure prediction by ZEFSAII (Michael W. Deem and Ramdas Pophale) SiO2 
 PCOD9258567
Probable space group: C 2/C
;
_chemical_formula_sum "Si O2"
_cell_formula_units_Z 60
_cell_length_a 23.435938
_cell_length_b 7.752726
_cell_length_c 12.828202
_cell_angle_alpha 90.000000
_cell_angle_beta 112.331481
_cell_angle_gamma 90.000000
_cell_volume 2155.980403
_symmetry_space_group_name_H-M "C 2/C"
_symmetry_group_IT_number 15
_symmetry_cell_setting 'monoclinic'
loop_
_space_group_symop_operation_xyz
x,y,z
-x,y,1/2-z
-x,-y,-z
x,-y,1/2+z
1/2+x,1/2+y,z
1/2-x,1/2+y,1/2-z
1/2-x,1/2-y,-z
1/2+x,1/2-y,1/2+z
loop_
_atom_site_type_symbol
_atom_site_label
_atom_site_fract_x
_atom_site_fract_y
_atom_site_fract_z
Si Si1 0.500000 0.460822 0.750000
Si Si2 0.654533 0.176153 0.754619
Si Si3 0.556665 0.847435 0.019744
Si Si4 0.674153 0.284407 0.374807
Si Si5 0.569441 0.728376 0.648006
Si Si6 0.899048 0.971729 0.530128
Si Si7 0.164700 0.450437 0.480762
Si Si8 0.255334 0.534777 0.213405
O O1 0.537806 0.576190 0.693255
O O2 0.449332 0.379098 0.640178
O O3 0.587615 0.151936 0.656265
O O4 0.685685 0.346525 0.726193
O O5 0.704931 0.029830 0.759862
O O6 0.653536 0.175105 0.877669
O O7 0.515473 0.147365 0.064452
O O8 0.571951 0.651556 0.992134
O O9 0.601998 0.976585 0.988479
O O10 0.614961 0.206391 0.270152
O O11 0.654517 0.446379 0.434825
O O12 0.695692 0.127575 0.460177
O O13 0.717023 0.359844 0.315737
O O14 0.605828 0.649621 0.574259
O O15 0.213393 0.375537 0.595754
#
# Coordination Sequence:
#
# PCOD9258567 Si02
#       8
#     4   8   8   8   8   8   8   8
#     4   8  14  24  44  74 114 158 194 240 290 338
#     4  11  23  41  65  92 123 162 209 265 322 376
#     4   9  19  36  60  89 121 163 207 254 308 369
#     4  10  21  37  63  96 128 168 208 253 311 373
#     4  10  18  33  59  91 126 164 205 248 302 372
#     4   9  17  30  53  87 124 157 201 250 298 355
#     4  10  22  40  60  88 128 167 210 260 313 373
#     4  11  23  40  65  94 124 162 211 265 320 373
#
# _framework density 27.829566
#
# number of rings (size 3 to 8) (size 9 to 14) (size 15 to 20)
#    0.000    2.133    0.000    4.800    0.000    4.267 
#    0.000    3.333    0.000    3.200    0.000    0.000 
#    0.000    0.000    0.000    0.000    0.000    0.000 
#
# Total GULP energy -167905.400733 kJ/mol
# GULP energy per Si atom -5596.846691 kJ/mol
# Density = 2.776622 g / cm^3
# Si number density = 27.829566 Si / 1000 Ang^3
#
#
#
# Elastic Constant Matrix: (Units=GPa)
#
#
# Indices 1 2 3 4 5 6 
#
# 1 105.8421 21.9455 36.5209 0.0000 17.4657 0.0000
# 2 21.9455 87.0488 6.3492 0.0000 14.4188 0.0000
# 3 36.5209 6.3492 154.0400 0.0000 25.7702 0.0000
# 4 0.0000 0.0000 0.0000 39.5408 0.0000 9.4285
# 5 17.4657 14.4188 25.7702 0.0000 43.2837 0.0000
# 6 0.0000 0.0000 0.0000 9.4285 0.0000 67.7846
#
#
#
# Elastic Compliance Matrix: (Units=1/GPa)
#
#
# Indices 1 2 3 4 5 6 
#
# 1 0.011044 -0.002223 -0.002116 0.000000 -0.002456 0.000000
# 2 -0.002223 0.012612 0.000622 0.000000 -0.003674 0.000000
# 3 -0.002116 0.000622 0.007619 0.000000 -0.003889 0.000000
# 4 0.000000 0.000000 0.000000 0.026158 0.000000 -0.003638
# 5 -0.002456 -0.003674 -0.003889 0.000000 0.027634 0.000000
# 6 0.000000 0.000000 0.000000 -0.003638 0.000000 0.015259
#
#
# Mechanical properties :
#
#
# Convention : Reuss Voigt Hill
#
# Bulk Modulus (GPa) = 41.94595 52.95135 47.44865
# Shear Modulus (GPa) = 43.21288 48.92951 46.07119
#
# Velocity S-wave (km/s) = 3.94479 4.19762 4.07317
# Velocity P-wave (km/s) = 5.98780 6.52393 6.26160
#
# Compressibility (1/GPa) = 0.02384021
#
# Stress axis : x y z
#
# Youngs Moduli (GPa) = 90.54340 79.29243 131.25935
#
# Poissons Ratio (x) = 0.17628 0.27774
# Poissons Ratio (y) = 0.20129 -0.08164
# Poissons Ratio (z) = 0.19158 -0.04932
#
# Static dielectric constant tensor:
#      x y z
#    x 2.165960 0.000000 -0.020340 
#    y 0.000000 2.241360 0.000000 
#    z -0.020340 0.000000 2.152970 
# 
# From -- ./inp_files/125599.got.cif
#   From: 2010.05.17/outbox.cif.g08.bks.cpg/sg15_63_cif.got.tgz:125599.got - 2010.06.03 18:47:42.
