data_PCOD9258860
_publ_section_title
;
Structure prediction by ZEFSAII (Michael W. Deem and Ramdas Pophale) SiO2 
 PCOD9258860
Probable space group: C 2/C
;
_chemical_formula_sum "Si O2"
_cell_formula_units_Z 56
_cell_length_a 24.774855
_cell_length_b 11.882674
_cell_length_c 9.971994
_cell_angle_alpha 90.000000
_cell_angle_beta 77.827829
_cell_angle_gamma 90.000000
_cell_volume 2869.672016
_symmetry_space_group_name_H-M "C 2/C"
_symmetry_group_IT_number 15
_symmetry_cell_setting 'monoclinic'
loop_
_space_group_symop_operation_xyz
x,y,z
-x,y,1/2-z
-x,-y,-z
x,-y,1/2+z
1/2+x,1/2+y,z
1/2-x,1/2+y,1/2-z
1/2-x,1/2-y,-z
1/2+x,1/2-y,1/2+z
loop_
_atom_site_type_symbol
_atom_site_label
_atom_site_fract_x
_atom_site_fract_y
_atom_site_fract_z
Si Si1 0.226244 0.277848 0.239430
Si Si2 0.213513 0.067305 0.632172
Si Si3 0.398386 0.741810 0.471424
Si Si4 0.639584 0.498311 0.917633
Si Si5 0.709234 0.108596 0.479970
Si Si6 0.004852 0.387081 0.410139
Si Si7 0.396105 0.276801 0.653759
O O1 0.273138 0.308065 0.321752
O O2 0.246116 0.180396 0.128382
O O3 0.167893 0.253348 0.336789
O O4 0.219093 0.378488 0.134187
O O5 0.176959 0.042188 0.522097
O O6 0.179536 0.009076 0.769294
O O7 0.274467 0.015540 0.573501
O O8 0.384961 0.622677 0.546489
O O9 0.349057 0.832412 0.518393
O O10 0.455317 0.802693 0.476008
O O11 0.400541 0.715082 0.312078
O O12 0.595298 0.399824 0.913958
O O13 0.000000 0.407788 0.250000
O O14 0.000000 0.500000 0.500000
O O15 0.061674 0.320491 0.408829
#
# Coordination Sequence:
#
# PCOD9258860 Si02
#       7
#     8   8   8   8   8   8   8
#     4  10  19  34  56  85 121 162 195 235 302 358
#     4  12  21  34  57  90 125 160 199 248 292 364
#     4  10  21  40  66  86 121 167 199 244 311 360
#     4  12  21  38  61  93 124 158 202 246 300 367
#     4  10  18  34  56  83 121 165 193 232 303 364
#     4  10  24  48  68  88 117 159 207 252 300 358
#     4  10  22  41  63  87 124 162 201 250 304 357
#
# _framework density 19.514424000000002
#
# number of rings (size 3 to 8) (size 9 to 14) (size 15 to 20)
#    0.000    1.429    5.714    0.857    2.000    1.143 
#    2.571    0.000    0.000    0.000    0.000    0.000 
#    0.000    0.000    0.000    0.000    0.000    0.000 
#
# Total GULP energy -156108.619033 kJ/mol
# GULP energy per Si atom -5575.307823 kJ/mol
# Density = 1.947001 g / cm^3
# Si number density = 19.514424 Si / 1000 Ang^3
#
#
#
# Elastic Constant Matrix: (Units=GPa)
#
#
# Indices 1 2 3 4 5 6 
#
# 1 86.4626 39.8916 35.8140 0.0000 -12.3009 0.0000
# 2 39.8916 95.1989 41.0953 0.0000 -4.9544 0.0000
# 3 35.8140 41.0953 80.5497 0.0000 -3.3048 0.0000
# 4 0.0000 0.0000 0.0000 34.1306 0.0000 -2.0555
# 5 -12.3009 -4.9544 -3.3048 0.0000 23.9151 0.0000
# 6 0.0000 0.0000 0.0000 -2.0555 0.0000 31.4842
#
#
#
# Elastic Compliance Matrix: (Units=1/GPa)
#
#
# Indices 1 2 3 4 5 6 
#
# 1 0.016635 -0.004539 -0.004796 0.000000 0.006954 0.000000
# 2 -0.004539 0.014792 -0.005530 0.000000 -0.000034 0.000000
# 3 -0.004796 -0.005530 0.017318 0.000000 -0.001219 0.000000
# 4 0.000000 0.000000 0.000000 0.029415 0.000000 0.001920
# 5 0.006954 -0.000034 -0.001219 0.000000 0.045216 0.000000
# 6 0.000000 0.000000 0.000000 0.001920 0.000000 0.031887
#
#
# Mechanical properties :
#
#
# Convention : Reuss Voigt Hill
#
# Bulk Modulus (GPa) = 52.58507 55.09034 53.83770
# Shear Modulus (GPa) = 26.13284 27.60000 26.86642
#
# Velocity S-wave (km/s) = 3.66342 3.76485 3.71448
# Velocity P-wave (km/s) = 6.70070 6.86954 6.78565
#
# Compressibility (1/GPa) = 0.01901681
#
# Stress axis : x y z
#
# Youngs Moduli (GPa) = 60.11264 67.60626 57.74311
#
# Poissons Ratio (x) = 0.30685 0.27691
# Poissons Ratio (y) = 0.27284 0.31931
# Poissons Ratio (z) = 0.28827 0.37385
#
# Static dielectric constant tensor:
#      x y z
#    x 1.690120 0.000000 0.001570 
#    y 0.000000 1.761200 0.000000 
#    z 0.001570 0.000000 1.683760 
# 
# From -- ./inp_files/65412.got.cif
#   From: 2010.05.17/outbox.cif.g08.bks.cpg/sg15_33_cif.got.tgz:65412.got - 2010.06.03 18:47:42.
