data_PCOD9258814
_publ_section_title
;
Structure prediction by ZEFSAII (Michael W. Deem and Ramdas Pophale) SiO2 
 PCOD9258814
Probable space group: C 2/C
;
_chemical_formula_sum "Si O2"
_cell_formula_units_Z 44
_cell_length_a 18.179694
_cell_length_b 8.668120
_cell_length_c 17.449162
_cell_angle_alpha 90.000000
_cell_angle_beta 132.210573
_cell_angle_gamma 90.000000
_cell_volume 2036.653018
_symmetry_space_group_name_H-M "C 2/C"
_symmetry_group_IT_number 15
_symmetry_cell_setting 'monoclinic'
loop_
_space_group_symop_operation_xyz
x,y,z
-x,y,1/2-z
-x,-y,-z
x,-y,1/2+z
1/2+x,1/2+y,z
1/2-x,1/2+y,1/2-z
1/2-x,1/2-y,-z
1/2+x,1/2-y,1/2+z
loop_
_atom_site_type_symbol
_atom_site_label
_atom_site_fract_x
_atom_site_fract_y
_atom_site_fract_z
Si Si1 0.000000 0.337112 0.750000
Si Si2 0.376429 0.636832 0.552596
Si Si3 0.026670 0.928488 0.602062
Si Si4 0.279836 0.381103 0.250555
Si Si5 0.805439 0.565695 0.179185
Si Si6 0.423105 0.864593 0.448122
O O1 0.083152 0.221628 0.843998
O O2 0.077088 0.443221 0.755844
O O3 0.432954 0.473613 0.587198
O O4 0.264515 0.607682 0.443649
O O5 0.422099 0.756709 0.521875
O O6 0.121632 0.023384 0.696576
O O7 0.054721 0.752976 0.606048
O O8 0.000000 0.000000 0.500000
O O9 0.245870 0.420348 0.313754
O O10 0.294089 0.205279 0.233315
O O11 0.186239 0.433830 0.135259
O O12 0.500000 0.000000 0.500000
#
# Coordination Sequence:
#
# PCOD9258814 Si02
#       6
#     4   8   8   8   8   8
#     4  12  22  36  60  86 128 160 196 254 298 350
#     4  10  21  37  56  85 119 159 201 242 296 362
#     4  10  18  34  55  82 118 151 199 246 294 344
#     4  11  19  36  58  87 117 155 194 248 298 351
#     4  11  23  36  62  91 119 156 202 247 306 359
#     4  10  21  32  57  90 118 149 198 251 298 350
#
# _framework density 21.604074000000001
#
# number of rings (size 3 to 8) (size 9 to 14) (size 15 to 20)
#    0.000    1.455    7.273    1.636    2.545    0.000 
#    0.000    0.000    0.000    9.818    0.000   15.273 
#    0.000    0.000    0.000    0.000    0.000    0.000 
#
# Total GULP energy -122522.161325 kJ/mol
# GULP energy per Si atom -5569.189151 kJ/mol
# Density = 2.155490 g / cm^3
# Si number density = 21.604074 Si / 1000 Ang^3
#
#
#
# Elastic Constant Matrix: (Units=GPa)
#
#
# Indices 1 2 3 4 5 6 
#
# 1 80.7855 13.2640 23.2966 0.0000 36.4420 0.0000
# 2 13.2640 53.5777 43.0659 0.0000 20.2121 0.0000
# 3 23.2966 43.0659 80.1114 0.0000 26.5482 0.0000
# 4 0.0000 0.0000 0.0000 20.5851 0.0000 1.8264
# 5 36.4420 20.2121 26.5482 0.0000 37.7286 0.0000
# 6 0.0000 0.0000 0.0000 1.8264 0.0000 21.3658
#
#
#
# Elastic Compliance Matrix: (Units=1/GPa)
#
#
# Indices 1 2 3 4 5 6 
#
# 1 0.022429 0.003960 -0.001003 0.000000 -0.023080 0.000000
# 2 0.003960 0.034938 -0.016253 0.000000 -0.011106 0.000000
# 3 -0.001003 -0.016253 0.023872 0.000000 -0.007122 0.000000
# 4 0.000000 0.000000 0.000000 0.048950 0.000000 -0.004184
# 5 -0.023080 -0.011106 -0.007122 0.000000 0.059759 0.000000
# 6 0.000000 0.000000 0.000000 -0.004184 0.000000 0.047161
#
#
# Mechanical properties :
#
#
# Convention : Reuss Voigt Hill
#
# Bulk Modulus (GPa) = 18.29931 41.52530 29.91231
# Shear Modulus (GPa) = 17.73582 24.92577 21.33079
#
# Velocity S-wave (km/s) = 2.86833 3.40038 3.14562
# Velocity P-wave (km/s) = 4.41117 5.88893 5.20279
#
# Compressibility (1/GPa) = 0.05464687
#
# Stress axis : x y z
#
# Youngs Moduli (GPa) = 44.58591 28.62221 41.89073
#
# Poissons Ratio (x) = -0.11335 0.04201
# Poissons Ratio (y) = -0.17657 0.68086
# Poissons Ratio (z) = 0.04471 0.46520
#
# Static dielectric constant tensor:
#      x y z
#    x 1.930260 0.000000 -0.058210 
#    y 0.000000 1.839230 0.000000 
#    z -0.058210 0.000000 1.858740 
# 
# From -- ./inp_files/159819.got.cif
#   From: 2010.05.17/outbox.cif.g08.bks.cpg/sg15_80_cif.got.tgz:159819.got - 2010.06.03 18:47:42.
