data_PCOD9258035
_publ_section_title
;
Structure prediction by ZEFSAII (Michael W. Deem and Ramdas Pophale) SiO2 
 PCOD9258035
Probable space group: C 2/C
;
_chemical_formula_sum "Si O2"
_cell_formula_units_Z 60
_cell_length_a 16.490254
_cell_length_b 9.877646
_cell_length_c 16.155656
_cell_angle_alpha 90.000000
_cell_angle_beta 111.782473
_cell_angle_gamma 90.000000
_cell_volume 2443.620683
_symmetry_space_group_name_H-M "C 2/C"
_symmetry_group_IT_number 15
_symmetry_cell_setting 'monoclinic'
loop_
_space_group_symop_operation_xyz
x,y,z
-x,y,1/2-z
-x,-y,-z
x,-y,1/2+z
1/2+x,1/2+y,z
1/2-x,1/2+y,1/2-z
1/2-x,1/2-y,-z
1/2+x,1/2-y,1/2+z
loop_
_atom_site_type_symbol
_atom_site_label
_atom_site_fract_x
_atom_site_fract_y
_atom_site_fract_z
Si Si1 0.765810 0.500529 0.796061
Si Si2 0.173687 0.794232 0.875558
Si Si3 0.000000 0.081602 0.250000
Si Si4 0.840792 0.164217 0.938675
Si Si5 0.868526 0.315688 0.552057
Si Si6 0.705134 0.383391 0.598750
Si Si7 0.613131 0.334796 0.278225
Si Si8 0.940538 0.620506 0.365598
O O1 0.730110 0.422105 0.864240
O O2 0.734935 0.412616 0.704408
O O3 0.709878 0.636624 0.781402
O O4 0.870409 0.500178 0.839354
O O5 0.238381 0.675504 0.871171
O O6 0.076440 0.819321 0.807724
O O7 0.162384 0.789433 0.968663
O O8 0.058534 0.965265 0.226160
O O9 0.903760 0.264264 0.913981
O O10 0.861594 0.006769 0.942695
O O11 0.789138 0.391121 0.568471
O O12 0.840121 0.252691 0.453581
O O13 0.885464 0.189210 0.622585
O O14 0.957493 0.401275 0.580565
O O15 0.574818 0.198501 0.226349
#
# Coordination Sequence:
#
# PCOD9258035 Si02
#       8
#     8   8   4   8   8   8   8   8
#     4  10  21  36  58  84 120 151 195 238 305 345
#     4   9  21  38  59  83 118 156 195 246 294 353
#     4  10  18  32  58  84 108 150 194 240 290 338
#     4  10  21  40  61  83 118 159 198 237 301 350
#     4  11  24  38  60  89 126 151 197 245 301 346
#     4  11  22  37  58  89 121 157 192 248 296 355
#     4  11  19  35  59  85 115 152 190 245 293 339
#     4  11  21  37  61  89 114 154 201 245 281 362
#
# _framework density 24.553728
#
# number of rings (size 3 to 8) (size 9 to 14) (size 15 to 20)
#    0.000    1.600    4.000    1.600    0.000    2.667 
#    0.000    1.333    0.000   16.800    0.000    0.000 
#    0.000    0.000    0.000    0.000    0.000    0.000 
#
# Total GULP energy -167286.947003 kJ/mol
# GULP energy per Si atom -5576.231567 kJ/mol
# Density = 2.449784 g / cm^3
# Si number density = 24.553728 Si / 1000 Ang^3
#
#
#
# Elastic Constant Matrix: (Units=GPa)
#
#
# Indices 1 2 3 4 5 6 
#
# 1 124.2867 5.2943 37.3302 0.0000 19.5254 0.0000
# 2 5.2943 39.3183 -7.2521 0.0000 -4.5054 0.0000
# 3 37.3302 -7.2521 61.5591 0.0000 -6.1487 0.0000
# 4 0.0000 0.0000 0.0000 22.1252 0.0000 -1.6841
# 5 19.5254 -4.5054 -6.1487 0.0000 53.3418 0.0000
# 6 0.0000 0.0000 0.0000 -1.6841 0.0000 28.2867
#
#
#
# Elastic Compliance Matrix: (Units=1/GPa)
#
#
# Indices 1 2 3 4 5 6 
#
# 1 0.011416 -0.003610 -0.007886 0.000000 -0.005393 0.000000
# 2 -0.003610 0.027495 0.005859 0.000000 0.004319 0.000000
# 3 -0.007886 0.005859 0.022312 0.000000 0.005954 0.000000
# 4 0.000000 0.000000 0.000000 0.045403 0.000000 0.002703
# 5 -0.005393 0.004319 0.005954 0.000000 0.021772 0.000000
# 6 0.000000 0.000000 0.000000 0.002703 0.000000 0.035513
#
#
# Mechanical properties :
#
#
# Convention : Reuss Voigt Hill
#
# Bulk Modulus (GPa) = 20.02022 32.87874 26.44948
# Shear Modulus (GPa) = 26.06420 33.40353 29.73387
#
# Velocity S-wave (km/s) = 3.26163 3.69240 3.48368
# Velocity P-wave (km/s) = 4.72817 5.62121 5.19392
#
# Compressibility (1/GPa) = 0.04994951
#
# Stress axis : x y z
#
# Youngs Moduli (GPa) = 87.59965 36.37000 44.81905
#
# Poissons Ratio (x) = 0.13128 0.35346
# Poissons Ratio (y) = 0.31621 -0.26262
# Poissons Ratio (z) = 0.69085 -0.21311
#
# Static dielectric constant tensor:
#      x y z
#    x 1.978420 0.000000 0.054330 
#    y 0.000000 1.946330 0.000000 
#    z 0.054330 0.000000 2.014110 
# 
# From -- ./inp_files/210646.got.cif
#   From: 2010.05.17/outbox.cif.g08.bks.cpg/sg15_106_cif.got.tgz:210646.got - 2010.06.03 18:47:42.
