data_PCOD9258572
_publ_section_title
;
Structure prediction by ZEFSAII (Michael W. Deem and Ramdas Pophale) SiO2 
 PCOD9258572
Probable space group: C 2/C
;
_chemical_formula_sum "Si O2"
_cell_formula_units_Z 52
_cell_length_a 13.082176
_cell_length_b 9.444915
_cell_length_c 28.007899
_cell_angle_alpha 90.000000
_cell_angle_beta 50.159638
_cell_angle_gamma 90.000000
_cell_volume 2657.204697
_symmetry_space_group_name_H-M "C 2/C"
_symmetry_group_IT_number 15
_symmetry_cell_setting 'monoclinic'
loop_
_space_group_symop_operation_xyz
x,y,z
-x,y,1/2-z
-x,-y,-z
x,-y,1/2+z
1/2+x,1/2+y,z
1/2-x,1/2+y,1/2-z
1/2-x,1/2-y,-z
1/2+x,1/2-y,1/2+z
loop_
_atom_site_type_symbol
_atom_site_label
_atom_site_fract_x
_atom_site_fract_y
_atom_site_fract_z
Si Si1 0.601597 0.510146 0.926044
Si Si2 0.500000 0.914370 0.250000
Si Si3 0.337732 0.659398 0.272527
Si Si4 0.119271 0.143511 0.739970
Si Si5 0.904131 0.498235 0.376446
Si Si6 0.052473 0.758080 0.361174
Si Si7 0.081903 0.239689 0.354421
O O1 0.751312 0.514332 0.903944
O O2 0.567878 0.648169 0.903798
O O3 0.576860 0.375706 0.898024
O O4 0.500000 0.500000 0.000000
O O5 0.376792 0.804726 0.286486
O O6 0.491964 0.996826 0.301458
O O7 0.371597 0.511708 0.285788
O O8 0.180240 0.657287 0.316089
O O9 0.415734 0.670572 0.199115
O O10 0.073997 0.142064 0.808605
O O11 0.266541 0.202457 0.689774
O O12 0.000000 0.224155 0.750000
O O13 0.929448 0.649523 0.394337
O O14 0.969268 0.364567 0.386296
#
# Coordination Sequence:
#
# PCOD9258572 Si02
#       7
#     8   4   8   8   8   8   8
#     4  12  27  47  66  89 131 182 224 264 318 388
#     4  10  20  34  62  96 136 160 202 254 340 390
#     4  10  18  33  59  94 130 155 197 260 321 390
#     4  11  20  33  63 100 133 161 202 267 335 391
#     4  11  24  41  67  96 130 172 211 273 328 377
#     4  11  23  40  61  96 133 163 216 266 324 387
#     4  10  23  40  60  97 127 165 218 260 323 390
#
# _framework density 19.569438000000002
#
# number of rings (size 3 to 8) (size 9 to 14) (size 15 to 20)
#    0.000    1.231    5.385    0.923    5.385    1.231 
#    0.000    0.769    0.000    0.000    0.000    0.000 
#    0.000    0.000    0.000    0.000    0.000    0.000 
#
# Total GULP energy -144735.782086 kJ/mol
# GULP energy per Si atom -5566.760849 kJ/mol
# Density = 1.952490 g / cm^3
# Si number density = 19.569438 Si / 1000 Ang^3
#
#
#
# Elastic Constant Matrix: (Units=GPa)
#
#
# Indices 1 2 3 4 5 6 
#
# 1 131.1941 58.9604 37.5420 0.0000 -1.4442 0.0000
# 2 58.9604 121.6724 38.9073 0.0000 2.0513 0.0000
# 3 37.5420 38.9073 87.7916 0.0000 7.9995 0.0000
# 4 0.0000 0.0000 0.0000 9.9817 0.0000 23.8545
# 5 -1.4442 2.0513 7.9995 0.0000 17.2744 0.0000
# 6 0.0000 0.0000 0.0000 23.8545 0.0000 17.9591
#
#
#
# Elastic Compliance Matrix: (Units=1/GPa)
#
#
# Indices 1 2 3 4 5 6 
#
# 1 0.010321 -0.004145 -0.002819 0.000000 0.002661 0.000000
# 2 -0.004145 0.011253 -0.003196 0.000000 -0.000203 0.000000
# 3 -0.002819 -0.003196 0.014616 0.000000 -0.006625 0.000000
# 4 0.000000 0.000000 0.000000 -0.046075 0.000000 0.061201
# 5 0.002661 -0.000203 -0.006625 0.000000 0.061203 0.000000
# 6 0.000000 0.000000 0.000000 0.061201 0.000000 -0.025609
#
#
# Mechanical properties :
#
#
# Convention : Reuss Voigt Hill
#
# Bulk Modulus (GPa) = 63.01178 67.94192 65.47685
# Shear Modulus (GPa) = 97.42974 22.72625 60.07800
#
# Velocity S-wave (km/s) = 7.06362 3.41150 5.54676
# Velocity P-wave (km/s) = 9.93958 7.09306 8.63443
#
# Compressibility (1/GPa) = 0.01587005
#
# Stress axis : x y z
#
# Youngs Moduli (GPa) = 96.88984 88.86749 68.41727
#
# Poissons Ratio (x) = 0.36834 0.19287
# Poissons Ratio (y) = 0.40159 0.21867
# Poissons Ratio (z) = 0.27314 0.28403
#
# Static dielectric constant tensor:
#      x y z
#    x 1.865650 0.000000 -0.022880 
#    y 0.000000 1.766150 0.000000 
#    z -0.022880 0.000000 1.664670 
# 
# From -- ./inp_files/295036.got.cif
#   From: 2010.05.17/outbox.cif.g08.bks.cpg/sg15_148_cif.got.tgz:295036.got - 2010.06.03 18:47:42.
