data_PCOD9258551
_publ_section_title
;
Structure prediction by ZEFSAII (Michael W. Deem and Ramdas Pophale) SiO2 
 PCOD9258551
Probable space group: C 2/C
;
_chemical_formula_sum "Si O2"
_cell_formula_units_Z 48
_cell_length_a 23.311513
_cell_length_b 17.973395
_cell_length_c 17.693944
_cell_angle_alpha 90.000000
_cell_angle_beta 163.933718
_cell_angle_gamma 90.000000
_cell_volume 2051.689318
_symmetry_space_group_name_H-M "C 2/C"
_symmetry_group_IT_number 15
_symmetry_cell_setting 'monoclinic'
loop_
_space_group_symop_operation_xyz
x,y,z
-x,y,1/2-z
-x,-y,-z
x,-y,1/2+z
1/2+x,1/2+y,z
1/2-x,1/2+y,1/2-z
1/2-x,1/2-y,-z
1/2+x,1/2-y,1/2+z
loop_
_atom_site_type_symbol
_atom_site_label
_atom_site_fract_x
_atom_site_fract_y
_atom_site_fract_z
Si Si1 0.145933 0.146697 0.048532
Si Si2 0.195586 0.321242 0.143202
Si Si3 0.714414 0.653622 0.416294
Si Si4 0.396686 0.421147 0.859783
Si Si5 0.715600 0.160698 0.445308
Si Si6 0.746722 0.187215 0.876811
O O1 0.223128 0.135812 0.061783
O O2 0.897573 0.129795 0.728179
O O3 0.193219 0.232803 0.127038
O O4 0.225118 0.098604 0.218376
O O5 0.417495 0.359780 0.413672
O O6 0.131997 0.326963 0.151937
O O7 0.031057 0.351255 0.872922
O O8 0.729469 0.586243 0.377589
O O9 0.758986 0.727131 0.421843
O O10 0.831667 0.649140 0.644871
O O11 0.478181 0.662851 0.146298
O O12 0.500000 0.500000 0.000000
O O13 0.750000 0.250000 0.500000
#
# Coordination Sequence:
#
# PCOD9258551 Si02
#       6
#     8   8   8   8   8   8
#     4  10  19  35  58  86 117 155 198 250 302 365
#     4  10  18  33  59  87 114 153 200 248 300 367
#     4   9  18  33  51  82 111 148 192 244 296 348
#     4  11  23  37  56  86 124 164 198 255 323 368
#     4   9  19  33  57  89 113 143 197 252 302 356
#     4   9  17  29  54  81 110 143 194 246 283 340
#
# _framework density 23.395356
#
# number of rings (size 3 to 8) (size 9 to 14) (size 15 to 20)
#    0.000    2.333    1.667    2.000    2.333    2.000 
#    0.000    7.500    0.000   10.000    0.000    0.000 
#    0.000    0.000    0.000    0.000    0.000    0.000 
#
# Total GULP energy -133760.668869 kJ/mol
# GULP energy per Si atom -5573.361203 kJ/mol
# Density = 2.334211 g / cm^3
# Si number density = 23.395356 Si / 1000 Ang^3
#
#
#
# Elastic Constant Matrix: (Units=GPa)
#
#
# Indices 1 2 3 4 5 6 
#
# 1 135.8791 16.6020 9.1560 -0.0001 -35.1746 -0.0001
# 2 16.6020 40.8050 -13.1369 0.0000 -9.8620 0.0001
# 3 9.1560 -13.1369 83.2455 -0.0003 -9.3089 -0.0003
# 4 -0.0001 0.0000 -0.0003 17.8255 -0.0005 -2.4953
# 5 -35.1746 -9.8620 -9.3089 -0.0005 50.0162 -0.0005
# 6 -0.0001 0.0001 -0.0003 -2.4953 -0.0005 11.5651
#
#
#
# Elastic Compliance Matrix: (Units=1/GPa)
#
#
# Indices 1 2 3 4 5 6 
#
# 1 0.009241 -0.002597 -0.000773 0.000000 0.005843 0.000000
# 2 -0.002597 0.028422 0.005304 0.000000 0.004765 0.000000
# 3 -0.000773 0.005304 0.013267 0.000000 0.002972 0.000000
# 4 0.000000 0.000000 0.000000 0.057846 0.000001 0.012481
# 5 0.005843 0.004765 0.002972 0.000001 0.025596 0.000001
# 6 0.000000 0.000000 0.000000 0.012481 0.000001 0.089160
#
#
# Mechanical properties :
#
#
# Convention : Reuss Voigt Hill
#
# Bulk Modulus (GPa) = 18.24819 31.68574 24.96697
# Shear Modulus (GPa) = 21.01456 32.36861 26.69158
#
# Velocity S-wave (km/s) = 3.00031 3.72364 3.38137
# Velocity P-wave (km/s) = 4.45189 5.66219 5.09312
#
# Compressibility (1/GPa) = 0.05479996
#
# Stress axis : x y z
#
# Youngs Moduli (GPa) = 108.20804 35.18340 75.37531
#
# Poissons Ratio (x) = 0.09135 0.05825
# Poissons Ratio (y) = 0.28096 -0.39978
# Poissons Ratio (z) = 0.08362 -0.18661
#
# Static dielectric constant tensor:
#      x y z
#    x 1.964400 0.000000 0.001610 
#    y 0.000000 1.826880 0.000000 
#    z 0.001610 0.000000 2.014420 
# 
# From -- ./inp_files/219988.got.cif
#   From: 2010.05.17/outbox.cif.g08.bks.cpg/sg15_110_cif.got.tgz:219988.got - 2010.06.03 18:47:42.
