data_PCOD9258309
_publ_section_title
;
Structure prediction by ZEFSAII (Michael W. Deem and Ramdas Pophale) SiO2 
 PCOD9258309
Probable space group: C 2/C
;
_chemical_formula_sum "Si O2"
_cell_formula_units_Z 56
_cell_length_a 7.010960
_cell_length_b 30.550655
_cell_length_c 15.228276
_cell_angle_alpha 90.000000
_cell_angle_beta 140.049759
_cell_angle_gamma 90.000000
_cell_volume 2094.432484
_symmetry_space_group_name_H-M "C 2/C"
_symmetry_group_IT_number 15
_symmetry_cell_setting 'monoclinic'
loop_
_space_group_symop_operation_xyz
x,y,z
-x,y,1/2-z
-x,-y,-z
x,-y,1/2+z
1/2+x,1/2+y,z
1/2-x,1/2+y,1/2-z
1/2-x,1/2-y,-z
1/2+x,1/2-y,1/2+z
loop_
_atom_site_type_symbol
_atom_site_label
_atom_site_fract_x
_atom_site_fract_y
_atom_site_fract_z
Si Si1 0.738710 0.008556 0.267304
Si Si2 0.244137 0.162138 0.997829
Si Si3 0.334739 0.676576 0.277772
Si Si4 0.899607 0.349047 0.062773
Si Si5 0.575865 0.424647 0.382161
Si Si6 0.820827 0.776817 0.278134
Si Si7 0.366154 0.053192 0.506870
O O1 0.500000 0.027628 0.250000
O O2 0.895819 0.964234 0.360347
O O3 0.550147 0.985416 0.121669
O O4 0.031237 0.039310 0.362549
O O5 0.030310 0.120629 0.914435
O O6 0.060316 0.206710 0.933222
O O7 0.502426 0.159215 0.158997
O O8 0.423303 0.159218 0.967344
O O9 0.500000 0.657731 0.250000
O O10 0.560204 0.665759 0.433921
O O11 0.304987 0.728691 0.255125
O O12 0.885828 0.401560 0.069467
O O13 0.074456 0.314763 0.184283
O O14 0.500000 0.420928 0.250000
O O15 0.927868 0.434863 0.504347
O O16 0.000000 0.775670 0.250000
#
# Coordination Sequence:
#
# PCOD9258309 Si02
#       7
#     8   8   8   8   8   8   8
#     4  11  22  37  57  85 116 143 175 229 288 329
#     4   9  17  32  55  79 104 136 182 229 263 305
#     4  10  20  33  52  81 109 136 175 226 272 310
#     4   9  19  36  55  74 104 145 183 219 265 320
#     4   9  18  36  60  83 107 146 192 224 263 329
#     4  10  18  33  54  75 104 142 178 217 267 324
#     4  10  21  39  60  81 107 148 193 226 266 331
#
# _framework density 26.737552999999998
#
# number of rings (size 3 to 8) (size 9 to 14) (size 15 to 20)
#    0.000    2.286    0.000    4.714    0.000    1.143 
#    0.000   11.429    0.000    0.000    0.000    0.000 
#    0.000    0.000    0.000    0.000    0.000    0.000 
#
# Total GULP energy -156552.236797 kJ/mol
# GULP energy per Si atom -5591.151314 kJ/mol
# Density = 2.667670 g / cm^3
# Si number density = 26.737553 Si / 1000 Ang^3
#
#
#
# Elastic Constant Matrix: (Units=GPa)
#
#
# Indices 1 2 3 4 5 6 
#
# 1 83.0633 -10.4072 21.7532 0.0000 5.8121 0.0000
# 2 -10.4072 94.5298 10.7567 0.0000 16.6613 0.0000
# 3 21.7532 10.7567 99.6680 0.0000 36.3588 0.0000
# 4 0.0000 0.0000 0.0000 2.0555 0.0000 -23.9555
# 5 5.8121 16.6613 36.3588 0.0000 42.0427 0.0000
# 6 0.0000 0.0000 0.0000 -23.9555 0.0000 -3.6481
#
#
#
# Elastic Compliance Matrix: (Units=1/GPa)
#
#
# Indices 1 2 3 4 5 6 
#
# 1 0.013060 0.001759 -0.003108 0.000000 0.000185 0.000000
# 2 0.001759 0.011635 0.000192 0.000000 -0.005020 0.000000
# 3 -0.003108 0.000192 0.015430 0.000000 -0.012990 0.000000
# 4 0.000000 0.000000 0.000000 0.006275 0.000000 -0.041206
# 5 0.000185 -0.005020 -0.012990 0.000000 0.036983 0.000000
# 6 0.000000 0.000000 0.000000 -0.041206 0.000000 -0.003536
#
#
# Mechanical properties :
#
#
# Convention : Reuss Voigt Hill
#
# Bulk Modulus (GPa) = 26.44769 35.71850 31.08309
# Shear Modulus (GPa) = 52.76153 25.10056 38.93105
#
# Velocity S-wave (km/s) = 4.44702 3.06727 3.81995
# Velocity P-wave (km/s) = 6.02337 5.09236 5.57733
#
# Compressibility (1/GPa) = 0.03781049
#
# Stress axis : x y z
#
# Youngs Moduli (GPa) = 76.56763 85.94549 64.81019
#
# Poissons Ratio (x) = -0.15117 0.20142
# Poissons Ratio (y) = -0.13467 -0.01242
# Poissons Ratio (z) = 0.23796 -0.01647
#
# Static dielectric constant tensor:
#      x y z
#    x 2.162560 0.000000 -0.026880 
#    y 0.000000 2.042660 0.000000 
#    z -0.026880 0.000000 2.134160 
# 
# From -- ./inp_files/234970.got.cif
#   From: 2010.05.17/outbox.cif.g08.bks.cpg/sg15_118_cif.got.tgz:234970.got - 2010.06.03 18:47:42.
