data_PCOD9258970
_publ_section_title
;
Structure prediction by ZEFSAII (Michael W. Deem and Ramdas Pophale) SiO2 
 PCOD9258970
Probable space group: C 2/C
;
_chemical_formula_sum "Si O2"
_cell_formula_units_Z 44
_cell_length_a 17.709982
_cell_length_b 20.037882
_cell_length_c 5.183630
_cell_angle_alpha 90.000000
_cell_angle_beta 105.668141
_cell_angle_gamma 90.000000
_cell_volume 1771.164848
_symmetry_space_group_name_H-M "C 2/C"
_symmetry_group_IT_number 15
_symmetry_cell_setting 'monoclinic'
loop_
_space_group_symop_operation_xyz
x,y,z
-x,y,1/2-z
-x,-y,-z
x,-y,1/2+z
1/2+x,1/2+y,z
1/2-x,1/2+y,1/2-z
1/2-x,1/2-y,-z
1/2+x,1/2-y,1/2+z
loop_
_atom_site_type_symbol
_atom_site_label
_atom_site_fract_x
_atom_site_fract_y
_atom_site_fract_z
Si Si1 0.228215 0.793472 0.236577
Si Si2 0.363186 0.124626 0.785208
Si Si3 0.574433 0.246346 0.947056
Si Si4 0.754319 0.545370 0.374232
Si Si5 0.911565 0.044899 0.145982
Si Si6 0.000000 0.636541 0.250000
O O1 0.250000 0.750000 0.500000
O O2 0.277717 0.860638 0.326436
O O3 0.134543 0.796514 0.131152
O O4 0.250000 0.750000 0.000000
O O5 0.390119 0.199849 0.745915
O O6 0.333957 0.086634 0.503073
O O7 0.435718 0.097195 0.017458
O O8 0.549219 0.187776 0.119288
O O9 0.500000 0.279802 0.750000
O O10 0.756392 0.510328 0.101351
O O11 0.669820 0.581784 0.344546
O O12 0.000000 0.072971 0.250000
O O13 0.907589 0.983637 0.351089
#
# Coordination Sequence:
#
# PCOD9258970 Si02
#       6
#     8   8   8   8   8   4
#     4  10  19  34  56  84 108 138 178 224 279 338
#     4  10  21  35  57  81 112 148 190 232 277 335
#     4   9  19  34  56  85 113 147 181 227 284 347
#     4  10  22  36  55  80 111 150 193 236 274 317
#     4   8  14  28  49  72  94 127 172 218 265 318
#     4  10  18  34  58  78 110 146 190 224 280 342
#
# _framework density 24.842407000000001
#
# number of rings (size 3 to 8) (size 9 to 14) (size 15 to 20)
#    0.000    2.545    1.818    0.000    2.545    0.000 
#    0.000    1.818    0.000    0.000    7.091    0.000 
#    0.000    0.000    0.000    0.000    0.000    0.000 
#
# Total GULP energy -122547.952116 kJ/mol
# GULP energy per Si atom -5570.361460 kJ/mol
# Density = 2.478586 g / cm^3
# Si number density = 24.842407 Si / 1000 Ang^3
#
#
#
# Elastic Constant Matrix: (Units=GPa)
#
#
# Indices 1 2 3 4 5 6 
#
# 1 91.4617 21.2462 48.4545 0.0000 38.5276 0.0000
# 2 21.2462 43.6662 15.7656 0.0000 5.1493 0.0000
# 3 48.4545 15.7656 151.4217 0.0000 31.0197 0.0000
# 4 0.0000 0.0000 0.0000 21.5784 0.0000 4.1937
# 5 38.5276 5.1493 31.0197 0.0000 67.8129 0.0000
# 6 0.0000 0.0000 0.0000 4.1937 0.0000 18.0007
#
#
#
# Elastic Compliance Matrix: (Units=1/GPa)
#
#
# Indices 1 2 3 4 5 6 
#
# 1 0.017525 -0.006393 -0.003312 0.000000 -0.007956 0.000000
# 2 -0.006393 0.026161 -0.001120 0.000000 0.002158 0.000000
# 3 -0.003312 -0.001120 0.008141 0.000000 -0.001757 0.000000
# 4 0.000000 0.000000 0.000000 0.048541 0.000000 -0.011309
# 5 -0.007956 0.002158 -0.001757 0.000000 0.019906 0.000000
# 6 0.000000 0.000000 0.000000 -0.011309 0.000000 0.058188
#
#
# Mechanical properties :
#
#
# Convention : Reuss Voigt Hill
#
# Bulk Modulus (GPa) = 33.13896 50.83137 41.98516
# Shear Modulus (GPa) = 23.79009 34.88393 29.33701
#
# Velocity S-wave (km/s) = 3.09793 3.75134 3.44019
# Velocity P-wave (km/s) = 5.11516 6.26653 5.71989
#
# Compressibility (1/GPa) = 0.03017596
#
# Stress axis : x y z
#
# Youngs Moduli (GPa) = 57.06183 38.22416 122.84164
#
# Poissons Ratio (x) = 0.24436 0.40691
# Poissons Ratio (y) = 0.36478 0.13762
# Poissons Ratio (z) = 0.18901 0.04282
#
# Static dielectric constant tensor:
#      x y z
#    x 2.247780 0.000000 0.055850 
#    y 0.000000 1.981600 0.000000 
#    z 0.055850 0.000000 2.039260 
# 
# From -- ./inp_files/7539.got.cif
#   From: 2010.05.17/outbox.cif.g08.bks.cpg/sg15_4_cif.got.tgz:7539.got - 2010.06.03 18:47:42.
