data_PCOD9258676
_publ_section_title
;
Structure prediction by ZEFSAII (Michael W. Deem and Ramdas Pophale) SiO2 
 PCOD9258676
Probable space group: C 2/C
;
_chemical_formula_sum "Si O2"
_cell_formula_units_Z 60
_cell_length_a 27.725209
_cell_length_b 24.988130
_cell_length_c 16.908194
_cell_angle_alpha 90.000000
_cell_angle_beta 164.020545
_cell_angle_gamma 90.000000
_cell_volume 3224.782477
_symmetry_space_group_name_H-M "C 2/C"
_symmetry_group_IT_number 15
_symmetry_cell_setting 'monoclinic'
loop_
_space_group_symop_operation_xyz
x,y,z
-x,y,1/2-z
-x,-y,-z
x,-y,1/2+z
1/2+x,1/2+y,z
1/2-x,1/2+y,1/2-z
1/2-x,1/2-y,-z
1/2+x,1/2-y,1/2+z
loop_
_atom_site_type_symbol
_atom_site_label
_atom_site_fract_x
_atom_site_fract_y
_atom_site_fract_z
Si Si1 0.142806 0.856190 0.785966
Si Si2 0.500000 0.531614 0.250000
Si Si3 0.681997 0.814121 0.587508
Si Si4 0.156405 0.405432 0.164439
Si Si5 0.919757 0.979182 0.792645
Si Si6 0.619710 0.306624 0.016366
Si Si7 0.014068 0.493245 0.179641
Si Si8 0.519549 0.883447 0.455849
O O1 0.179037 0.841157 0.752289
O O2 0.061354 0.914755 0.671625
O O3 0.018183 0.812477 0.629718
O O4 0.331102 0.861739 0.126265
O O5 0.677339 0.566999 0.529041
O O6 0.499973 0.502700 0.164835
O O7 0.704214 0.751446 0.639200
O O8 0.657757 0.844854 0.631750
O O9 0.500000 0.818398 0.250000
O O10 0.236122 0.352926 0.250173
O O11 0.010420 0.388589 0.998276
O O12 0.081091 0.451391 0.989458
O O13 0.716768 0.995276 0.474629
O O14 0.000000 0.000000 0.000000
O O15 0.500000 0.316535 0.750000
O O16 0.000000 0.480254 0.250000
O O17 0.943178 0.442791 0.018739
#
# Coordination Sequence:
#
# PCOD9258676 Si02
#       8
#     8   4   8   8   8   8   8   8
#     4  10  18  34  50  76 112 142 182 224 284 337
#     4  12  20  36  54  78 116 154 186 224 282 334
#     4   9  21  29  50  79 110 147 179 226 282 336
#     4  12  20  35  55  80 112 150 184 223 280 336
#     4  11  22  38  58  83 113 150 187 237 286 338
#     4  11  19  32  51  77 110 148 183 223 275 340
#     4  11  23  36  56  80 114 143 189 232 281 340
#     4  10  18  34  52  77 110 142 175 227 283 333
#
# _framework density 18.605905
#
# number of rings (size 3 to 8) (size 9 to 14) (size 15 to 20)
#    0.000    1.333    6.000    3.200    1.867    1.600 
#    0.000    0.000    0.000    0.000    0.000    3.733 
#    0.000    0.000    0.000    0.000    0.000    0.000 
#
# Total GULP energy -167335.875580 kJ/mol
# GULP energy per Si atom -5577.862519 kJ/mol
# Density = 1.856356 g / cm^3
# Si number density = 18.605905 Si / 1000 Ang^3
#
#
#
# Elastic Constant Matrix: (Units=GPa)
#
#
# Indices 1 2 3 4 5 6 
#
# 1 114.2010 12.1721 9.6455 0.0000 25.3916 0.0000
# 2 12.1721 62.3635 17.1900 0.0000 6.8800 0.0000
# 3 9.6455 17.1900 17.2991 -0.0001 3.6490 0.0000
# 4 0.0000 0.0000 -0.0001 14.3385 0.0000 -2.1551
# 5 25.3916 6.8800 3.6490 0.0000 17.8274 0.0000
# 6 0.0000 0.0000 0.0000 -2.1551 0.0000 24.1115
#
#
#
# Elastic Compliance Matrix: (Units=1/GPa)
#
#
# Indices 1 2 3 4 5 6 
#
# 1 0.013027 0.000545 -0.004020 0.000000 -0.017942 0.000000
# 2 0.000545 0.022414 -0.021517 0.000000 -0.005022 0.000000
# 3 -0.004020 -0.021517 0.082010 0.000000 -0.002756 0.000000
# 4 0.000000 0.000000 0.000000 0.070692 0.000000 0.006319
# 5 -0.017942 -0.005022 -0.002756 0.000000 0.084151 0.000000
# 6 0.000000 0.000000 0.000000 0.006319 0.000000 0.042039
#
#
# Mechanical properties :
#
#
# Convention : Reuss Voigt Hill
#
# Bulk Modulus (GPa) = 14.82210 30.20875 22.51543
# Shear Modulus (GPa) = 12.92637 21.57920 17.25279
#
# Velocity S-wave (km/s) = 2.63866 3.40928 3.04842
# Velocity P-wave (km/s) = 4.15536 5.63640 4.95157
#
# Compressibility (1/GPa) = 0.06746681
#
# Stress axis : x y z
#
# Youngs Moduli (GPa) = 76.76219 44.61577 12.19356
#
# Poissons Ratio (x) = -0.02431 0.04902
# Poissons Ratio (y) = -0.04183 0.26237
# Poissons Ratio (z) = 0.30862 0.95999
#
# Static dielectric constant tensor:
#      x y z
#    x 1.686790 0.000000 0.020190 
#    y 0.000000 1.646730 0.000000 
#    z 0.020190 0.000000 1.645660 
# 
# From -- ./inp_files/174938.got.cif
#   From: 2010.05.17/outbox.cif.g08.bks.cpg/sg15_88_cif.got.tgz:174938.got - 2010.06.03 18:47:42.
