data_PCOD9258803
_publ_section_title
;
Structure prediction by ZEFSAII (Michael W. Deem and Ramdas Pophale) SiO2 
 PCOD9258803
Probable space group: C 2/C
;
_chemical_formula_sum "Si O2"
_cell_formula_units_Z 60
_cell_length_a 11.666044
_cell_length_b 21.568513
_cell_length_c 14.413179
_cell_angle_alpha 90.000000
_cell_angle_beta 110.868176
_cell_angle_gamma 90.000000
_cell_volume 3388.734739
_symmetry_space_group_name_H-M "C 2/C"
_symmetry_group_IT_number 15
_symmetry_cell_setting 'monoclinic'
loop_
_space_group_symop_operation_xyz
x,y,z
-x,y,1/2-z
-x,-y,-z
x,-y,1/2+z
1/2+x,1/2+y,z
1/2-x,1/2+y,1/2-z
1/2-x,1/2-y,-z
1/2+x,1/2-y,1/2+z
loop_
_atom_site_type_symbol
_atom_site_label
_atom_site_fract_x
_atom_site_fract_y
_atom_site_fract_z
Si Si1 0.000000 0.237858 0.250000
Si Si2 0.829499 0.457483 0.883512
Si Si3 0.857174 0.264007 0.733219
Si Si4 0.205346 0.163344 0.422131
Si Si5 0.884484 0.419991 0.502328
Si Si6 0.118310 0.287288 0.094074
Si Si7 0.352670 0.094813 0.203633
Si Si8 0.604717 0.270318 0.055793
O O1 0.892548 0.195036 0.175890
O O2 0.942558 0.276248 0.320562
O O3 0.745487 0.405217 0.906979
O O4 0.821321 0.524508 0.927507
O O5 0.804213 0.453587 0.765703
O O6 0.971972 0.437123 0.939624
O O7 0.758175 0.234938 0.637145
O O8 0.820966 0.336462 0.732043
O O9 0.853517 0.225970 0.827213
O O10 0.000000 0.264458 0.750000
O O11 0.324521 0.208118 0.458658
O O12 0.145475 0.172151 0.505742
O O13 0.884888 0.356869 0.444268
O O14 0.823497 0.411902 0.586630
O O15 0.036807 0.245253 0.001658
O O16 0.500000 0.090370 0.250000
#
# Coordination Sequence:
#
# PCOD9258803 Si02
#       8
#     4   8   8   8   8   8   8   8
#     4  10  20  32  60  88 112 140 184 244 296 332
#     4  10  18  36  52  74 109 151 186 228 273 333
#     4  11  21  34  56  82 116 149 180 230 285 344
#     4  10  18  34  55  79 111 144 184 235 283 338
#     4  10  21  32  51  79 109 147 189 226 275 334
#     4  11  20  35  53  88 112 144 187 230 288 339
#     4   9  17  33  50  72 104 142 184 220 271 329
#     4  10  19  33  53  82 112 142 180 237 286 327
#
# _framework density 17.705722999999999
#
# number of rings (size 3 to 8) (size 9 to 14) (size 15 to 20)
#    0.000    1.867    4.000    1.600    0.000    2.133 
#    8.400    0.000    1.467    0.000    0.000    3.733 
#    0.000    0.000    0.000    0.000    0.000    0.000 
#
# Total GULP energy -167160.690552 kJ/mol
# GULP energy per Si atom -5572.023018 kJ/mol
# Density = 1.766542 g / cm^3
# Si number density = 17.705723 Si / 1000 Ang^3
#
#
#
# Elastic Constant Matrix: (Units=GPa)
#
#
# Indices 1 2 3 4 5 6 
#
# 1 55.0052 30.1784 34.1539 0.0000 1.7809 0.0000
# 2 30.1784 64.3438 36.0787 0.0000 -15.9450 0.0000
# 3 34.1539 36.0787 94.5502 0.0000 -4.7481 0.0000
# 4 0.0000 0.0000 0.0000 21.2387 0.0000 3.7250
# 5 1.7809 -15.9450 -4.7481 0.0000 31.4018 0.0000
# 6 0.0000 0.0000 0.0000 3.7250 0.0000 18.8770
#
#
#
# Elastic Compliance Matrix: (Units=1/GPa)
#
#
# Indices 1 2 3 4 5 6 
#
# 1 0.029128 -0.012353 -0.006253 0.000000 -0.008870 0.000000
# 2 -0.012353 0.027880 -0.005472 0.000000 0.014030 0.000000
# 3 -0.006253 -0.005472 0.014915 0.000000 -0.000169 0.000000
# 4 0.000000 0.000000 0.000000 0.048772 0.000000 -0.009624
# 5 -0.008870 0.014030 -0.000169 0.000000 0.039447 0.000000
# 6 0.000000 0.000000 0.000000 -0.009624 0.000000 0.054874
#
#
# Mechanical properties :
#
#
# Convention : Reuss Voigt Hill
#
# Bulk Modulus (GPa) = 42.07670 46.08014 44.07842
# Shear Modulus (GPa) = 18.44380 21.86937 20.15659
#
# Velocity S-wave (km/s) = 3.23102 3.51829 3.37771
# Velocity P-wave (km/s) = 6.14291 6.52584 6.33727
#
# Compressibility (1/GPa) = 0.02376612
#
# Stress axis : x y z
#
# Youngs Moduli (GPa) = 34.33167 35.86761 67.04782
#
# Poissons Ratio (x) = 0.44308 0.41927
# Poissons Ratio (y) = 0.42410 0.36687
# Poissons Ratio (z) = 0.21469 0.19626
#
# Static dielectric constant tensor:
#      x y z
#    x 1.652200 0.000000 -0.031240 
#    y 0.000000 1.565740 0.000000 
#    z -0.031240 0.000000 1.635570 
# 
# From -- ./inp_files/147188.got.cif
#   From: 2010.05.17/outbox.cif.g08.bks.cpg/sg15_74_cif.got.tgz:147188.got - 2010.06.03 18:47:42.
