data_PCOD9258909
_publ_section_title
;
Structure prediction by ZEFSAII (Michael W. Deem and Ramdas Pophale) SiO2 
 PCOD9258909
Probable space group: C 2/C
;
_chemical_formula_sum "Si O2"
_cell_formula_units_Z 52
_cell_length_a 23.879256
_cell_length_b 15.482045
_cell_length_c 11.188349
_cell_angle_alpha 90.000000
_cell_angle_beta 42.666979
_cell_angle_gamma 90.000000
_cell_volume 2803.339405
_symmetry_space_group_name_H-M "C 2/C"
_symmetry_group_IT_number 15
_symmetry_cell_setting 'monoclinic'
loop_
_space_group_symop_operation_xyz
x,y,z
-x,y,1/2-z
-x,-y,-z
x,-y,1/2+z
1/2+x,1/2+y,z
1/2-x,1/2+y,1/2-z
1/2-x,1/2-y,-z
1/2+x,1/2-y,1/2+z
loop_
_atom_site_type_symbol
_atom_site_label
_atom_site_fract_x
_atom_site_fract_y
_atom_site_fract_z
Si Si1 0.032790 0.633199 0.035994
Si Si2 0.156257 0.213033 0.368743
Si Si3 0.340929 0.212639 0.109976
Si Si4 0.602718 0.730991 0.721323
Si Si5 0.474363 0.599708 0.039234
Si Si6 0.440645 0.945110 0.451225
Si Si7 0.500000 0.691502 0.250000
O O1 0.070603 0.547973 0.036158
O O2 0.955196 0.685344 0.212759
O O3 0.101453 0.706223 0.908448
O O4 0.991861 0.591855 0.982687
O O5 0.252080 0.228590 0.192735
O O6 0.146941 0.209915 0.527937
O O7 0.113581 0.128006 0.379458
O O8 0.345604 0.246762 0.240119
O O9 0.357577 0.110013 0.081775
O O10 0.419117 0.254465 0.918232
O O11 0.541346 0.653890 0.856490
O O12 0.477381 0.635427 0.169487
O O13 0.500000 0.500000 0.000000
O O14 0.500000 0.923212 0.250000
#
# Coordination Sequence:
#
# PCOD9258909 Si02
#       7
#     8   8   8   8   8   8   4
#     4   9  19  34  58  85 103 149 193 226 288 343
#     4  11  21  37  60  89 117 150 206 240 290 355
#     4  10  21  37  59  86 121 153 189 242 301 351
#     4   9  19  38  61  83 113 155 189 244 299 346
#     4  10  22  38  62  84 114 164 203 241 295 357
#     4  10  18  34  57  79 115 147 182 232 290 347
#     4  10  22  42  58  80 120 164 194 242 314 350
#
# _framework density 18.549306000000001
#
# number of rings (size 3 to 8) (size 9 to 14) (size 15 to 20)
#    0.000    2.154    0.769    4.154    2.154    0.615 
#    5.538    0.000    0.000    0.000    0.000    0.000 
#    0.000    0.000    0.000    0.000    0.000    0.000 
#
# Total GULP energy -144864.309226 kJ/mol
# GULP energy per Si atom -5571.704201 kJ/mol
# Density = 1.850709 g / cm^3
# Si number density = 18.549306 Si / 1000 Ang^3
#
#
#
# Elastic Constant Matrix: (Units=GPa)
#
#
# Indices 1 2 3 4 5 6 
#
# 1 66.6379 41.5506 38.2829 0.0000 -20.8656 0.0000
# 2 41.5506 119.5795 33.6775 0.0000 -3.5156 0.0000
# 3 38.2829 33.6775 70.4208 0.0000 -4.3759 0.0000
# 4 0.0000 0.0000 0.0000 12.5349 0.0000 1.1794
# 5 -20.8656 -3.5156 -4.3759 0.0000 38.7997 0.0000
# 6 0.0000 0.0000 0.0000 1.1794 0.0000 26.2499
#
#
#
# Elastic Compliance Matrix: (Units=1/GPa)
#
#
# Indices 1 2 3 4 5 6 
#
# 1 0.031216 -0.006809 -0.012799 0.000000 0.014727 0.000000
# 2 -0.006809 0.011155 -0.001810 0.000000 -0.002855 0.000000
# 3 -0.012799 -0.001810 0.021738 0.000000 -0.004595 0.000000
# 4 0.000000 0.000000 0.000000 0.080116 0.000000 -0.003600
# 5 0.014727 -0.002855 -0.004595 0.000000 0.032916 0.000000
# 6 0.000000 0.000000 0.000000 -0.003600 0.000000 0.038257
#
#
# Mechanical properties :
#
#
# Convention : Reuss Voigt Hill
#
# Bulk Modulus (GPa) = 47.00807 53.74002 50.37405
# Shear Modulus (GPa) = 18.84480 25.05872 21.95176
#
# Velocity S-wave (km/s) = 3.19082 3.67948 3.44383
# Velocity P-wave (km/s) = 6.24279 6.86191 6.55966
#
# Compressibility (1/GPa) = 0.02127294
#
# Stress axis : x y z
#
# Youngs Moduli (GPa) = 32.03455 89.64961 46.00206
#
# Poissons Ratio (x) = 0.61045 0.58876
# Poissons Ratio (y) = 0.21813 0.08327
# Poissons Ratio (z) = 0.41000 0.16228
#
# Static dielectric constant tensor:
#      x y z
#    x 1.538880 0.000000 -0.071920 
#    y 0.000000 1.658750 0.000000 
#    z -0.071920 0.000000 1.576910 
# 
# From -- ./inp_files/118738.got.cif
#   From: 2010.05.17/outbox.cif.g08.bks.cpg/sg15_60_cif.got.tgz:118738.got - 2010.06.03 18:47:42.
