data_PCOD9258198
_publ_section_title
;
Structure prediction by ZEFSAII (Michael W. Deem and Ramdas Pophale) SiO2 
 PCOD9258198
Probable space group: C 2/C
;
_chemical_formula_sum "Si O2"
_cell_formula_units_Z 64
_cell_length_a 28.226720
_cell_length_b 15.115387
_cell_length_c 12.475115
_cell_angle_alpha 90.000000
_cell_angle_beta 44.229063
_cell_angle_gamma 90.000000
_cell_volume 3712.669601
_symmetry_space_group_name_H-M "C 2/C"
_symmetry_group_IT_number 15
_symmetry_cell_setting 'monoclinic'
loop_
_space_group_symop_operation_xyz
x,y,z
-x,y,1/2-z
-x,-y,-z
x,-y,1/2+z
1/2+x,1/2+y,z
1/2-x,1/2+y,1/2-z
1/2-x,1/2-y,-z
1/2+x,1/2-y,1/2+z
loop_
_atom_site_type_symbol
_atom_site_label
_atom_site_fract_x
_atom_site_fract_y
_atom_site_fract_z
Si Si1 0.352550 0.873339 0.245412
Si Si2 0.136123 0.821512 0.865850
Si Si3 0.845818 0.797158 0.420151
Si Si4 0.260374 0.926869 0.588005
Si Si5 0.855510 0.562033 0.134098
Si Si6 0.490579 0.737383 0.637578
Si Si7 0.501337 0.100913 0.536833
Si Si8 0.285611 0.120124 0.468924
O O1 0.345958 0.778747 0.199319
O O2 0.293125 0.886888 0.427271
O O3 0.355694 0.955258 0.155466
O O4 0.424009 0.878322 0.195872
O O5 0.184435 0.889672 0.725642
O O6 0.152183 0.836204 0.964742
O O7 0.054024 0.820238 0.992270
O O8 0.917902 0.808577 0.246418
O O9 0.785415 0.837014 0.449741
O O10 0.830304 0.692613 0.457410
O O11 0.306490 0.907994 0.617907
O O12 0.268254 0.031799 0.560183
O O13 0.931942 0.600348 0.996668
O O14 0.826385 0.597661 0.294157
O O15 0.500000 0.753999 0.750000
O O16 0.488233 0.829177 0.576492
O O17 0.500000 0.000000 0.500000
#
# Coordination Sequence:
#
# PCOD9258198 Si02
#       8
#     8   8   8   8   8   8   8   8
#     4   9  20  33  49  73 103 140 172 208 257 311
#     4  10  19  34  52  76 103 137 172 210 259 316
#     4  10  18  34  56  78  99 131 175 221 264 299
#     4  11  21  33  50  75 108 139 172 209 261 311
#     4  10  18  33  49  73 104 135 174 213 251 312
#     4   9  18  31  54  76 100 133 174 218 258 306
#     4   9  17  32  45  72 107 133 168 209 258 313
#     4  10  20  32  53  77 102 130 171 221 260 302
#
# _framework density 17.23827
#
# number of rings (size 3 to 8) (size 9 to 14) (size 15 to 20)
#    0.000    2.250    2.500    1.125    0.000    1.500 
#    0.000    0.625    0.000    0.000    0.000    0.000 
#    0.000    0.000    0.000    0.000    0.000    0.000 
#
# Total GULP energy -178162.510494 kJ/mol
# GULP energy per Si atom -5567.578453 kJ/mol
# Density = 1.719904 g / cm^3
# Si number density = 17.238270 Si / 1000 Ang^3
#
#
#
# Elastic Constant Matrix: (Units=GPa)
#
#
# Indices 1 2 3 4 5 6 
#
# 1 51.3870 0.4653 17.3340 0.0000 -19.6733 0.0000
# 2 0.4653 14.0589 14.9682 0.0000 -7.2488 0.0000
# 3 17.3340 14.9682 86.9428 0.0000 -26.2724 0.0000
# 4 0.0000 0.0000 0.0000 20.2387 0.0000 -4.3055
# 5 -19.6733 -7.2488 -26.2724 0.0000 26.0002 0.0000
# 6 0.0000 0.0000 0.0000 -4.3055 0.0000 17.3487
#
#
#
# Elastic Compliance Matrix: (Units=1/GPa)
#
#
# Indices 1 2 3 4 5 6 
#
# 1 0.029069 0.012335 -0.000336 0.000000 0.025095 0.000000
# 2 0.012335 0.095564 -0.011574 0.000000 0.024281 0.000000
# 3 -0.000336 -0.011574 0.018008 0.000000 0.014716 0.000000
# 4 0.000000 0.000000 0.000000 0.052164 0.000000 0.012946
# 5 0.025095 0.024281 0.014716 0.000000 0.079089 0.000000
# 6 0.000000 0.000000 0.000000 0.012946 0.000000 0.060854
#
#
# Mechanical properties :
#
#
# Convention : Reuss Voigt Hill
#
# Bulk Modulus (GPa) = 6.96912 24.21373 15.59143
# Shear Modulus (GPa) = 13.09827 20.69227 16.89527
#
# Velocity S-wave (km/s) = 2.75950 3.46839 3.13406
# Velocity P-wave (km/s) = 3.76892 5.48786 4.70752
#
# Compressibility (1/GPa) = 0.14349012
#
# Stress axis : x y z
#
# Youngs Moduli (GPa) = 34.40041 10.46423 55.53018
#
# Poissons Ratio (x) = -0.12907 0.01866
# Poissons Ratio (y) = -0.42432 0.64273
# Poissons Ratio (z) = 0.01156 0.12112
#
# Static dielectric constant tensor:
#      x y z
#    x 1.608730 0.000000 -0.029050 
#    y 0.000000 1.581590 0.000000 
#    z -0.029050 0.000000 1.598550 
# 
# From -- ./inp_files/126860.got.cif
#   From: 2010.05.17/outbox.cif.g08.bks.cpg/sg15_64_cif.got.tgz:126860.got - 2010.06.03 18:47:42.
