data_PCOD9258011
_publ_section_title
;
Structure prediction by ZEFSAII (Michael W. Deem and Ramdas Pophale) SiO2 
 PCOD9258011
Probable space group: C 2/C
;
_chemical_formula_sum "Si O2"
_cell_formula_units_Z 32
_cell_length_a 13.841625
_cell_length_b 10.692232
_cell_length_c 12.184395
_cell_angle_alpha 90.000000
_cell_angle_beta 45.926834
_cell_angle_gamma 90.000000
_cell_volume 1295.559214
_symmetry_space_group_name_H-M "C 2/C"
_symmetry_group_IT_number 15
_symmetry_cell_setting 'monoclinic'
loop_
_space_group_symop_operation_xyz
x,y,z
-x,y,1/2-z
-x,-y,-z
x,-y,1/2+z
1/2+x,1/2+y,z
1/2-x,1/2+y,1/2-z
1/2-x,1/2-y,-z
1/2+x,1/2-y,1/2+z
loop_
_atom_site_type_symbol
_atom_site_label
_atom_site_fract_x
_atom_site_fract_y
_atom_site_fract_z
Si Si1 0.627768 0.484012 0.981397
Si Si2 0.524813 0.778214 0.609572
Si Si3 0.728261 0.174177 0.778548
Si Si4 0.136483 0.814391 0.657623
O O1 0.745487 0.554664 0.821426
O O2 0.500000 0.500000 0.000000
O O3 0.625021 0.342449 0.025841
O O4 0.615751 0.559760 0.105316
O O5 0.500000 0.830954 0.750000
O O6 0.612293 0.862292 0.457239
O O7 0.377679 0.722661 0.693782
O O8 0.671857 0.295183 0.755669
O O9 0.250000 0.750000 0.500000
O O10 0.000000 0.738900 0.750000
#
# Coordination Sequence:
#
# PCOD9258011 Si02
#       4
#     8   8   8   8
#     4   9  19  35  59  90 124 163 209 255 314 388
#     4  11  22  39  63  91 127 170 214 267 324 380
#     4  10  21  38  61  93 128 167 212 264 320 388
#     4  10  18  32  57  88 122 160 204 256 310 372
#
# _framework density 24.699759
#
# number of rings (size 3 to 8) (size 9 to 14) (size 15 to 20)
#    0.000    2.000    0.000    6.000    0.000    2.000 
#    0.000    1.250    0.000   30.000    0.000    1.750 
#    0.000    0.000    0.000    0.000    0.000    0.000 
#
# Total GULP energy -89128.525809 kJ/mol
# GULP energy per Si atom -5570.532863 kJ/mol
# Density = 2.464354 g / cm^3
# Si number density = 24.699759 Si / 1000 Ang^3
#
#
#
# Elastic Constant Matrix: (Units=GPa)
#
#
# Indices 1 2 3 4 5 6 
#
# 1 72.5345 6.3234 33.9278 0.0000 -6.3394 0.0000
# 2 6.3234 42.6874 20.3833 0.0000 2.6823 0.0000
# 3 33.9278 20.3833 245.2282 0.0000 -11.9825 0.0000
# 4 0.0000 0.0000 0.0000 21.2618 0.0000 6.8498
# 5 -6.3394 2.6823 -11.9825 0.0000 40.6639 0.0000
# 6 0.0000 0.0000 0.0000 6.8498 0.0000 24.0173
#
#
#
# Elastic Compliance Matrix: (Units=1/GPa)
#
#
# Indices 1 2 3 4 5 6 
#
# 1 0.014945 -0.001446 -0.001856 0.000000 0.001878 0.000000
# 2 -0.001446 0.024737 -0.001975 0.000000 -0.002439 0.000000
# 3 -0.001856 -0.001975 0.004557 0.000000 0.001184 0.000000
# 4 0.000000 0.000000 0.000000 0.051792 0.000000 -0.014771
# 5 0.001878 -0.002439 0.001184 0.000000 0.025394 0.000000
# 6 0.000000 0.000000 0.000000 -0.014771 0.000000 0.045849
#
#
# Mechanical properties :
#
#
# Convention : Reuss Voigt Hill
#
# Bulk Modulus (GPa) = 29.68709 53.52434 41.60572
# Shear Modulus (GPa) = 26.44734 37.17631 31.81182
#
# Velocity S-wave (km/s) = 3.27579 3.88381 3.59268
# Velocity P-wave (km/s) = 5.13351 6.46753 5.83875
#
# Compressibility (1/GPa) = 0.03368467
#
# Stress axis : x y z
#
# Youngs Moduli (GPa) = 66.91320 40.42572 219.46218
#
# Poissons Ratio (x) = 0.05845 0.40725
# Poissons Ratio (y) = 0.09674 0.43350
# Poissons Ratio (z) = 0.12417 0.07985
#
# Static dielectric constant tensor:
#      x y z
#    x 2.072800 0.000000 0.045930 
#    y 0.000000 1.930080 0.000000 
#    z 0.045930 0.000000 2.092230 
# 
# From -- ./inp_files/93958.got.cif
#   From: 2010.05.17/outbox.cif.g08.bks.cpg/sg15_47_cif.got.tgz:93958.got - 2010.06.03 18:47:42.
