data_PCOD9258345
_publ_section_title
;
Structure prediction by ZEFSAII (Michael W. Deem and Ramdas Pophale) SiO2 
 PCOD9258345
Probable space group: C 2/C
;
_chemical_formula_sum "Si O2"
_cell_formula_units_Z 56
_cell_length_a 28.428319
_cell_length_b 19.991287
_cell_length_c 16.682673
_cell_angle_alpha 90.000000
_cell_angle_beta 19.677167
_cell_angle_gamma 90.000000
_cell_volume 3192.467924
_symmetry_space_group_name_H-M "C 2/C"
_symmetry_group_IT_number 15
_symmetry_cell_setting 'monoclinic'
loop_
_space_group_symop_operation_xyz
x,y,z
-x,y,1/2-z
-x,-y,-z
x,-y,1/2+z
1/2+x,1/2+y,z
1/2-x,1/2+y,1/2-z
1/2-x,1/2-y,-z
1/2+x,1/2-y,1/2+z
loop_
_atom_site_type_symbol
_atom_site_label
_atom_site_fract_x
_atom_site_fract_y
_atom_site_fract_z
Si Si1 0.887175 0.571720 0.492471
Si Si2 0.872068 0.225766 0.243751
Si Si3 0.060945 0.876198 0.736615
Si Si4 0.995087 0.427441 0.143408
Si Si5 0.096099 0.988771 0.423771
Si Si6 0.617000 0.130277 0.827081
Si Si7 0.230853 0.383247 0.866470
O O1 0.737779 0.556137 0.691137
O O2 0.876927 0.614596 0.589251
O O3 0.948363 0.499919 0.423225
O O4 0.000000 0.600162 0.250000
O O5 0.750000 0.250000 0.500000
O O6 0.964207 0.175561 0.149977
O O7 0.932453 0.294365 0.112571
O O8 0.804397 0.182661 0.280983
O O9 0.226057 0.880081 0.457713
O O10 0.000000 0.852020 0.750000
O O11 0.996055 0.947855 0.864354
O O12 0.974306 0.417774 0.082880
O O13 0.853145 0.413533 0.421385
O O14 0.110131 0.375943 0.994039
O O15 0.157626 0.062319 0.343444
O O16 0.000000 0.000000 0.500000
#
# Coordination Sequence:
#
# PCOD9258345 Si02
#       7
#     8   8   8   8   8   8   8
#     4  11  22  37  57  84 111 153 194 235 284 332
#     4  10  20  34  53  82 118 148 183 232 288 343
#     4  11  21  34  56  90 114 142 188 237 291 333
#     4  10  18  34  55  79 114 142 190 234 282 332
#     4  11  19  35  58  81 115 146 185 232 281 342
#     4  11  22  36  54  87 114 149 189 238 280 347
#     4  10  18  33  54  84 109 151 184 226 291 336
#
# _framework density 17.541288999999999
#
# number of rings (size 3 to 8) (size 9 to 14) (size 15 to 20)
#    0.000    1.429    8.571    0.429    0.000    2.286 
#    0.000    0.000    0.000    1.714    0.000    0.000 
#    0.000    0.000    0.000    0.000    0.000    0.000 
#
# Total GULP energy -155960.462997 kJ/mol
# GULP energy per Si atom -5570.016536 kJ/mol
# Density = 1.750136 g / cm^3
# Si number density = 17.541289 Si / 1000 Ang^3
#
#
#
# Elastic Constant Matrix: (Units=GPa)
#
#
# Indices 1 2 3 4 5 6 
#
# 1 102.5294 19.5648 35.0552 0.0001 -10.1782 -0.0001
# 2 19.5648 64.6945 23.8480 0.0042 5.2056 -0.0013
# 3 35.0552 23.8480 56.3742 0.0061 2.6988 -0.0012
# 4 0.0001 0.0042 0.0061 14.6666 -0.0013 8.2843
# 5 -10.1782 5.2056 2.6988 -0.0013 20.7418 0.0001
# 6 -0.0001 -0.0013 -0.0012 8.2843 0.0001 23.2674
#
#
#
# Elastic Compliance Matrix: (Units=1/GPa)
#
#
# Indices 1 2 3 4 5 6 
#
# 1 0.013702 -0.001801 -0.008153 0.000006 0.008237 -0.000003
# 2 -0.001801 0.018822 -0.006615 -0.000004 -0.004747 0.000002
# 3 -0.008153 -0.006615 0.025880 -0.000012 -0.005708 0.000005
# 4 0.000006 -0.000004 -0.000012 0.085346 0.000011 -0.030387
# 5 0.008237 -0.004747 -0.005708 0.000011 0.054188 -0.000005
# 6 -0.000003 0.000002 0.000005 -0.030387 -0.000005 0.053798
#
#
# Mechanical properties :
#
#
# Convention : Reuss Voigt Hill
#
# Bulk Modulus (GPa) = 39.57853 42.28158 40.93006
# Shear Modulus (GPa) = 17.04757 21.41047 19.22902
#
# Velocity S-wave (km/s) = 3.12084 3.49746 3.31451
# Velocity P-wave (km/s) = 5.96643 6.36129 6.16702
#
# Compressibility (1/GPa) = 0.02526623
#
# Stress axis : x y z
#
# Youngs Moduli (GPa) = 72.98130 53.12804 38.64001
#
# Poissons Ratio (x) = 0.09570 0.31502
# Poissons Ratio (y) = 0.13146 0.25561
# Poissons Ratio (z) = 0.59500 0.35145
#
# Static dielectric constant tensor:
#      x y z
#    x 1.630790 0.000000 -0.018370 
#    y 0.000000 1.620590 0.000000 
#    z -0.018370 0.000000 1.609550 
# 
# From -- ./inp_files/225678.got.cif
#   From: 2010.05.17/outbox.cif.g08.bks.cpg/sg15_113_cif.got.tgz:225678.got - 2010.06.03 18:47:42.
