data_PCOD9258531
_publ_section_title
;
Structure prediction by ZEFSAII (Michael W. Deem and Ramdas Pophale) SiO2 
 PCOD9258531
Probable space group: C 2/C
;
_chemical_formula_sum "Si O2"
_cell_formula_units_Z 56
_cell_length_a 9.124988
_cell_length_b 15.830305
_cell_length_c 26.396356
_cell_angle_alpha 90.000000
_cell_angle_beta 130.502269
_cell_angle_gamma 90.000000
_cell_volume 2899.321573
_symmetry_space_group_name_H-M "C 2/C"
_symmetry_group_IT_number 15
_symmetry_cell_setting 'monoclinic'
loop_
_space_group_symop_operation_xyz
x,y,z
-x,y,1/2-z
-x,-y,-z
x,-y,1/2+z
1/2+x,1/2+y,z
1/2-x,1/2+y,1/2-z
1/2-x,1/2-y,-z
1/2+x,1/2-y,1/2+z
loop_
_atom_site_type_symbol
_atom_site_label
_atom_site_fract_x
_atom_site_fract_y
_atom_site_fract_z
Si Si1 0.583893 0.136665 0.440252
Si Si2 0.886304 0.958392 0.142089
Si Si3 0.790714 0.895789 0.697867
Si Si4 0.214105 0.529292 0.287608
Si Si5 0.115231 0.136450 0.080996
Si Si6 0.405506 0.180641 0.942195
Si Si7 0.234818 0.456911 0.505165
O O1 0.369535 0.150681 0.371211
O O2 0.735852 0.154989 0.430516
O O3 0.612762 0.182196 0.500420
O O4 0.625918 0.036545 0.456916
O O5 0.785731 0.867587 0.120583
O O6 0.834749 0.015805 0.178711
O O7 0.794858 0.009512 0.074115
O O8 0.115469 0.961417 0.183546
O O9 0.710569 0.915892 0.735394
O O10 0.000000 0.853018 0.750000
O O11 0.282905 0.588600 0.349597
O O12 0.000000 0.495950 0.250000
O O13 0.050498 0.232371 0.076713
O O14 0.931648 0.078685 0.024834
O O15 0.583846 0.118023 0.973884
#
# Coordination Sequence:
#
# PCOD9258531 Si02
#       7
#     8   8   8   8   8   8   8
#     4  11  19  36  59  81 112 148 187 226 275 334
#     4   9  18  35  59  85 102 141 193 231 262 332
#     4  10  18  33  59  80 100 145 200 224 258 325
#     4  10  20  35  56  80 107 147 193 229 266 328
#     4  11  23  34  53  89 120 143 175 236 291 325
#     4  11  20  36  57  87 115 141 178 236 291 325
#     4  10  19  35  58  85 108 144 188 225 270 332
#
# _framework density 19.314864
#
# number of rings (size 3 to 8) (size 9 to 14) (size 15 to 20)
#    0.000    1.714    4.286    2.143    0.000    0.000 
#    0.000    2.143    0.000    0.857    0.000    0.000 
#    0.000    0.000    0.000    0.000    0.000    0.000 
#
# Total GULP energy -156089.394842 kJ/mol
# GULP energy per Si atom -5574.621244 kJ/mol
# Density = 1.927090 g / cm^3
# Si number density = 19.314864 Si / 1000 Ang^3
#
#
#
# Elastic Constant Matrix: (Units=GPa)
#
#
# Indices 1 2 3 4 5 6 
#
# 1 70.3902 0.9917 32.1882 0.0000 19.9772 0.0000
# 2 0.9917 48.9814 20.7173 0.0000 11.9451 0.0000
# 3 32.1882 20.7173 69.8892 0.0000 16.8570 0.0000
# 4 0.0000 0.0000 0.0000 5.7142 0.0000 -0.4701
# 5 19.9772 11.9451 16.8570 0.0000 30.7840 0.0000
# 6 0.0000 0.0000 0.0000 -0.4701 0.0000 20.6430
#
#
#
# Elastic Compliance Matrix: (Units=1/GPa)
#
#
# Indices 1 2 3 4 5 6 
#
# 1 0.021445 0.006128 -0.008944 0.000000 -0.011397 0.000000
# 2 0.006128 0.026122 -0.008252 0.000000 -0.009594 0.000000
# 3 -0.008944 -0.008252 0.021547 0.000000 -0.002793 0.000000
# 4 0.000000 0.000000 0.000000 0.175332 0.000000 0.003993
# 5 -0.011397 -0.009594 -0.002793 0.000000 0.045133 0.000000
# 6 0.000000 0.000000 0.000000 0.003993 0.000000 0.048534
#
#
# Mechanical properties :
#
#
# Convention : Reuss Voigt Hill
#
# Bulk Modulus (GPa) = 21.28633 33.00614 27.14623
# Shear Modulus (GPa) = 13.30115 20.45246 16.87681
#
# Velocity S-wave (km/s) = 2.62706 3.25760 2.95917
# Velocity P-wave (km/s) = 4.49962 5.59239 5.07550
#
# Compressibility (1/GPa) = 0.04697851
#
# Stress axis : x y z
#
# Youngs Moduli (GPa) = 46.63143 38.28228 46.40921
#
# Poissons Ratio (x) = -0.23460 0.41510
# Poissons Ratio (y) = -0.28577 0.38295
# Poissons Ratio (z) = 0.41709 0.31589
#
# Static dielectric constant tensor:
#      x y z
#    x 1.723310 0.000000 0.021620 
#    y 0.000000 1.675180 0.000000 
#    z 0.021620 0.000000 1.700080 
# 
# From -- ./inp_files/232176.got.cif
#   From: 2010.05.17/outbox.cif.g08.bks.cpg/sg15_117_cif.got.tgz:232176.got - 2010.06.03 18:47:42.
