data_PCOD9258563
_publ_section_title
;
Structure prediction by ZEFSAII (Michael W. Deem and Ramdas Pophale) SiO2 
 PCOD9258563
Probable space group: C 2/C
;
_chemical_formula_sum "Si O2"
_cell_formula_units_Z 64
_cell_length_a 20.272260
_cell_length_b 16.098116
_cell_length_c 8.622306
_cell_angle_alpha 90.000000
_cell_angle_beta 103.941415
_cell_angle_gamma 90.000000
_cell_volume 2730.959423
_symmetry_space_group_name_H-M "C 2/C"
_symmetry_group_IT_number 15
_symmetry_cell_setting 'monoclinic'
loop_
_space_group_symop_operation_xyz
x,y,z
-x,y,1/2-z
-x,-y,-z
x,-y,1/2+z
1/2+x,1/2+y,z
1/2-x,1/2+y,1/2-z
1/2-x,1/2-y,-z
1/2+x,1/2-y,1/2+z
loop_
_atom_site_type_symbol
_atom_site_label
_atom_site_fract_x
_atom_site_fract_y
_atom_site_fract_z
Si Si1 0.528298 0.134182 0.101246
Si Si2 0.683682 0.284441 0.782549
Si Si3 0.174854 0.490535 0.921134
Si Si4 0.313797 0.402117 0.982357
Si Si5 0.828203 0.336217 0.964814
Si Si6 0.921928 0.553483 0.885979
Si Si7 0.933681 0.109319 0.140721
Si Si8 0.389353 0.540747 0.815826
O O1 0.500000 0.166792 0.250000
O O2 0.600504 0.169878 0.085160
O O3 0.541280 0.034702 0.123784
O O4 0.474174 0.130064 0.926919
O O5 0.670796 0.316844 0.600853
O O6 0.764753 0.290046 0.852103
O O7 0.638062 0.347949 0.859219
O O8 0.663510 0.200044 0.856740
O O9 0.234675 0.425911 0.934118
O O10 0.142622 0.540070 0.760292
O O11 0.195601 0.567815 0.042069
O O12 0.111855 0.445185 0.964372
O O13 0.346702 0.478989 0.903832
O O14 0.342431 0.406466 0.172840
O O15 0.000000 0.153458 0.250000
O O16 0.930101 0.021870 0.229467
O O17 0.935302 0.094539 0.957930
#
# Coordination Sequence:
#
# PCOD9258563 Si02
#       8
#     8   8   8   8   8   8   8   8
#     4  10  19  35  56  85 122 162 203 268 312 373
#     4  10  22  40  58  85 117 171 215 257 321 397
#     4  11  19  33  57  92 122 166 201 272 311 375
#     4  10  18  33  59  90 129 161 217 261 322 384
#     4  10  22  38  61  80 125 172 216 257 322 388
#     4  10  20  30  53  88 123 150 209 254 321 362
#     4  10  19  35  59  88 121 155 206 268 330 383
#     4   9  18  31  56  91 120 155 205 276 323 376
#
# _framework density 23.434987
#
# number of rings (size 3 to 8) (size 9 to 14) (size 15 to 20)
#    0.000    2.000    1.250    4.875    0.000    0.000 
#    2.250    0.000    2.750    6.750    0.000    0.000 
#    0.000    0.000    0.000    0.000    0.000    0.125 
#
# Total GULP energy -178306.804303 kJ/mol
# GULP energy per Si atom -5572.087634 kJ/mol
# Density = 2.338165 g / cm^3
# Si number density = 23.434987 Si / 1000 Ang^3
#
#
#
# Elastic Constant Matrix: (Units=GPa)
#
#
# Indices 1 2 3 4 5 6 
#
# 1 123.2596 24.9512 49.8254 0.0000 -7.9206 0.0000
# 2 24.9512 38.2489 13.8375 0.0000 -4.2808 0.0000
# 3 49.8254 13.8375 133.9233 0.0000 13.0221 0.0000
# 4 0.0000 0.0000 0.0000 7.9123 0.0000 7.6159
# 5 -7.9206 -4.2808 13.0221 0.0000 27.7988 0.0000
# 6 0.0000 0.0000 0.0000 7.6159 0.0000 -20.2099
#
#
#
# Elastic Compliance Matrix: (Units=1/GPa)
#
#
# Indices 1 2 3 4 5 6 
#
# 1 0.011065 -0.005310 -0.003976 0.000000 0.004198 0.000000
# 2 -0.005310 0.030617 -0.001571 0.000000 0.003938 0.000000
# 3 -0.003976 -0.001571 0.009683 0.000000 -0.005911 0.000000
# 4 0.000000 0.000000 0.000000 0.092745 0.000000 0.034950
# 5 0.004198 0.003938 -0.005911 0.000000 0.040544 0.000000
# 6 0.000000 0.000000 0.000000 0.034950 0.000000 -0.036310
#
#
# Mechanical properties :
#
#
# Convention : Reuss Voigt Hill
#
# Bulk Modulus (GPa) = 33.72469 52.51777 43.12123
# Shear Modulus (GPa) = 27.78674 16.88809 22.33741
#
# Velocity S-wave (km/s) = 3.44713 2.68738 3.09069
# Velocity P-wave (km/s) = 5.50142 5.66462 5.58362
#
# Compressibility (1/GPa) = 0.02965186
#
# Stress axis : x y z
#
# Youngs Moduli (GPa) = 90.37659 32.66121 103.27036
#
# Poissons Ratio (x) = 0.17342 0.41062
# Poissons Ratio (y) = 0.47988 0.16223
# Poissons Ratio (z) = 0.35935 0.05131
#
# Static dielectric constant tensor:
#      x y z
#    x 1.900730 0.000000 0.053800 
#    y 0.000000 1.903140 0.000000 
#    z 0.053800 0.000000 2.032270 
# 
# From -- ./inp_files/57557.got.cif
#   From: 2010.05.17/outbox.cif.g08.bks.cpg/sg15_29_cif.got.tgz:57557.got - 2010.06.03 18:47:42.
