data_PCOD9258408
_publ_section_title
;
Structure prediction by ZEFSAII (Michael W. Deem and Ramdas Pophale) SiO2 
 PCOD9258408
Probable space group: C 2/C
;
_chemical_formula_sum "Si O2"
_cell_formula_units_Z 48
_cell_length_a 10.049863
_cell_length_b 15.764370
_cell_length_c 19.970948
_cell_angle_alpha 90.000000
_cell_angle_beta 35.580129
_cell_angle_gamma 90.000000
_cell_volume 1840.940356
_symmetry_space_group_name_H-M "C 2/C"
_symmetry_group_IT_number 15
_symmetry_cell_setting 'monoclinic'
loop_
_space_group_symop_operation_xyz
x,y,z
-x,y,1/2-z
-x,-y,-z
x,-y,1/2+z
1/2+x,1/2+y,z
1/2-x,1/2+y,1/2-z
1/2-x,1/2-y,-z
1/2+x,1/2-y,1/2+z
loop_
_atom_site_type_symbol
_atom_site_label
_atom_site_fract_x
_atom_site_fract_y
_atom_site_fract_z
Si Si1 0.106529 0.449896 0.344438
Si Si2 0.920090 0.897707 0.114569
Si Si3 0.635674 0.205174 0.356463
Si Si4 0.679972 0.924982 0.461097
Si Si5 0.796944 0.648973 0.376069
Si Si6 0.519564 0.248721 0.882551
O O1 0.245217 0.464985 0.218608
O O2 0.224113 0.460037 0.369198
O O3 0.886577 0.505941 0.454060
O O4 0.067624 0.350209 0.351514
O O5 0.839891 0.802005 0.129453
O O6 0.088653 0.883074 0.108968
O O7 0.094653 0.912940 0.982404
O O8 0.539172 0.138635 0.449683
O O9 0.435062 0.191008 0.382121
O O10 0.876733 0.192938 0.219961
O O11 0.671935 0.719927 0.382566
O O12 0.000000 0.609975 0.250000
O O13 0.250000 0.250000 0.000000
#
# Coordination Sequence:
#
# PCOD9258408 Si02
#       6
#     8   8   8   8   8   8
#     4  10  21  33  51  84 116 144 174 227 294 343
#     4  10  18  33  56  79 105 143 190 230 268 332
#     4   9  18  33  57  81 103 144 193 230 265 327
#     4  10  19  34  56  82 113 142 182 233 287 334
#     4   9  17  32  57  80 100 136 192 238 266 311
#     4  10  20  35  55  82 115 147 183 229 284 338
#
# _framework density 26.073630999999999
#
# number of rings (size 3 to 8) (size 9 to 14) (size 15 to 20)
#    0.000    2.333    0.000    4.500    0.000    4.000 
#    0.000    9.167    0.000   29.000    0.000    0.000 
#    0.000    0.000    0.000    0.000    0.000    0.000 
#
# Total GULP energy -133662.986208 kJ/mol
# GULP energy per Si atom -5569.291092 kJ/mol
# Density = 2.601429 g / cm^3
# Si number density = 26.073631 Si / 1000 Ang^3
#
#
#
# Elastic Constant Matrix: (Units=GPa)
#
#
# Indices 1 2 3 4 5 6 
#
# 1 19.2327 15.1015 27.1736 -0.0038 -5.5602 0.0008
# 2 15.1015 84.5974 39.0349 0.0005 2.7161 0.0029
# 3 27.1736 39.0349 191.0027 -0.0175 16.8920 0.0139
# 4 -0.0038 0.0005 -0.0175 35.2660 0.0104 -2.5500
# 5 -5.5602 2.7161 16.8920 0.0104 39.1973 -0.0021
# 6 0.0008 0.0029 0.0139 -2.5500 -0.0021 22.8858
#
#
#
# Elastic Compliance Matrix: (Units=1/GPa)
#
#
# Indices 1 2 3 4 5 6 
#
# 1 0.079788 -0.009783 -0.010826 -0.000001 0.016661 0.000007
# 2 -0.009783 0.014253 -0.001363 -0.000001 -0.001788 -0.000001
# 3 -0.010826 -0.001363 0.007466 0.000004 -0.004659 -0.000004
# 4 -0.000001 -0.000001 0.000004 0.028586 -0.000009 0.003185
# 5 0.016661 -0.001788 -0.004659 -0.000009 0.030007 0.000004
# 6 0.000007 -0.000001 -0.000004 0.003185 0.000004 0.044050
#
#
# Mechanical properties :
#
#
# Convention : Reuss Voigt Hill
#
# Bulk Modulus (GPa) = 17.37165 50.82808 34.09987
# Shear Modulus (GPa) = 18.70681 33.70466 26.20574
#
# Velocity S-wave (km/s) = 2.68145 3.59928 3.17372
# Velocity P-wave (km/s) = 4.03285 6.06708 5.15138
#
# Compressibility (1/GPa) = 0.05756506
#
# Stress axis : x y z
#
# Youngs Moduli (GPa) = 12.53318 70.15888 133.93656
#
# Poissons Ratio (x) = 0.68635 1.44993
# Poissons Ratio (y) = 0.12261 0.18256
# Poissons Ratio (z) = 0.13568 0.09563
#
# Static dielectric constant tensor:
#      x y z
#    x 2.054410 0.000000 0.078430 
#    y 0.000000 2.058920 0.000000 
#    z 0.078430 0.000000 2.283320 
# 
# From -- ./inp_files/270518.got.cif
#   From: 2010.05.17/outbox.cif.g08.bks.cpg/sg15_136_cif.got.tgz:270518.got - 2010.06.03 18:47:42.
