data_PCOD9258888
_publ_section_title
;
Structure prediction by ZEFSAII (Michael W. Deem and Ramdas Pophale) SiO2 
 PCOD9258888
Probable space group: C 2/C
;
_chemical_formula_sum "Si O2"
_cell_formula_units_Z 52
_cell_length_a 32.340881
_cell_length_b 8.502756
_cell_length_c 16.015692
_cell_angle_alpha 90.000000
_cell_angle_beta 141.600766
_cell_angle_gamma 90.000000
_cell_volume 2735.551423
_symmetry_space_group_name_H-M "C 2/C"
_symmetry_group_IT_number 15
_symmetry_cell_setting 'monoclinic'
loop_
_space_group_symop_operation_xyz
x,y,z
-x,y,1/2-z
-x,-y,-z
x,-y,1/2+z
1/2+x,1/2+y,z
1/2-x,1/2+y,1/2-z
1/2-x,1/2-y,-z
1/2+x,1/2-y,1/2+z
loop_
_atom_site_type_symbol
_atom_site_label
_atom_site_fract_x
_atom_site_fract_y
_atom_site_fract_z
Si Si1 0.108361 0.904353 0.463743
Si Si2 0.396575 0.173971 0.700924
Si Si3 0.286220 0.413290 0.121364
Si Si4 0.857140 0.320043 0.621826
Si Si5 0.782869 0.109638 0.945235
Si Si6 0.650212 0.289575 0.699415
Si Si7 0.000000 0.151152 0.250000
O O1 0.100571 0.795401 0.369583
O O2 0.113588 0.798783 0.553783
O O3 0.176611 0.000560 0.554129
O O4 0.051421 0.035045 0.377475
O O5 0.331367 0.248874 0.551837
O O6 0.393588 0.237369 0.790735
O O7 0.458804 0.243058 0.749347
O O8 0.391083 0.986565 0.690513
O O9 0.334699 0.272352 0.169858
O O10 0.321958 0.535551 0.237645
O O11 0.214514 0.351753 0.036731
O O12 0.271698 0.509031 0.012039
O O13 0.714371 0.176115 0.802087
#
# Coordination Sequence:
#
# PCOD9258888 Si02
#       7
#     8   8   8   8   8   8   4
#     4  10  24  35  58  84 122 158 192 245 287 344
#     4  10  19  37  62  78 114 156 205 234 283 355
#     4   9  17  31  55  85 124 142 182 224 304 365
#     4  10  18  34  56  89 110 159 180 237 297 350
#     4   9  17  34  53  84 119 152 181 231 304 358
#     4  11  19  34  58  92 116 151 188 249 293 350
#     4  10  24  46  56  76 112 174 208 228 286 348
#
# _framework density 19.008965
#
# number of rings (size 3 to 8) (size 9 to 14) (size 15 to 20)
#    0.000    2.154    3.077    1.846    2.154    1.231 
#    0.000    3.077    0.000    2.769    0.000    0.000 
#    0.000    0.000    0.000    0.000    0.000    0.000 
#
# Total GULP energy -145108.742061 kJ/mol
# GULP energy per Si atom -5581.105464 kJ/mol
# Density = 1.896570 g / cm^3
# Si number density = 19.008965 Si / 1000 Ang^3
#
#
#
# Elastic Constant Matrix: (Units=GPa)
#
#
# Indices 1 2 3 4 5 6 
#
# 1 93.1519 26.8634 25.6609 0.0000 9.2261 0.0000
# 2 26.8634 96.9296 1.4252 0.0000 9.4664 0.0000
# 3 25.6609 1.4252 22.8533 0.0000 -2.6313 0.0000
# 4 0.0000 0.0000 0.0000 14.4340 0.0000 11.1455
# 5 9.2261 9.4664 -2.6313 0.0000 20.1857 0.0000
# 6 0.0000 0.0000 0.0000 11.1455 0.0000 26.7873
#
#
#
# Elastic Compliance Matrix: (Units=1/GPa)
#
#
# Indices 1 2 3 4 5 6 
#
# 1 0.018936 -0.003978 -0.022128 0.000000 -0.009674 0.000000
# 2 -0.003978 0.011684 0.003367 0.000000 -0.003223 0.000000
# 3 -0.022128 0.003367 0.070434 0.000000 0.017716 0.000000
# 4 0.000000 0.000000 0.000000 0.102076 0.000000 -0.042471
# 5 -0.009674 -0.003223 0.017716 0.000000 0.057782 0.000000
# 6 0.000000 0.000000 0.000000 -0.042471 0.000000 0.055002
#
#
# Mechanical properties :
#
#
# Convention : Reuss Voigt Hill
#
# Bulk Modulus (GPa) = 17.99335 35.64818 26.82077
# Shear Modulus (GPa) = 13.16070 22.88042 18.02056
#
# Velocity S-wave (km/s) = 2.63409 3.47315 3.08231
# Velocity P-wave (km/s) = 4.32869 5.90574 5.17761
#
# Compressibility (1/GPa) = 0.05557609
#
# Stress axis : x y z
#
# Youngs Moduli (GPa) = 52.80881 85.58388 14.19766
#
# Poissons Ratio (x) = 0.34045 0.31417
# Poissons Ratio (y) = 0.21007 -0.04780
# Poissons Ratio (z) = 1.16857 -0.28815
#
# Static dielectric constant tensor:
#      x y z
#    x 1.673070 0.000000 0.007940 
#    y 0.000000 1.678490 0.000000 
#    z 0.007940 0.000000 1.641880 
# 
# From -- ./inp_files/180477.got.cif
#   From: 2010.05.17/outbox.cif.g08.bks.cpg/sg15_91_cif.got.tgz:180477.got - 2010.06.03 18:47:42.
