data_PCOD9258528
_publ_section_title
;
Structure prediction by ZEFSAII (Michael W. Deem and Ramdas Pophale) SiO2 
 PCOD9258528
Probable space group: C 2/C
;
_chemical_formula_sum "Si O2"
_cell_formula_units_Z 52
_cell_length_a 11.465685
_cell_length_b 16.250220
_cell_length_c 14.098225
_cell_angle_alpha 90.000000
_cell_angle_beta 75.625051
_cell_angle_gamma 90.000000
_cell_volume 2544.540177
_symmetry_space_group_name_H-M "C 2/C"
_symmetry_group_IT_number 15
_symmetry_cell_setting 'monoclinic'
loop_
_space_group_symop_operation_xyz
x,y,z
-x,y,1/2-z
-x,-y,-z
x,-y,1/2+z
1/2+x,1/2+y,z
1/2-x,1/2+y,1/2-z
1/2-x,1/2-y,-z
1/2+x,1/2-y,1/2+z
loop_
_atom_site_type_symbol
_atom_site_label
_atom_site_fract_x
_atom_site_fract_y
_atom_site_fract_z
Si Si1 0.456171 0.977007 0.654218
Si Si2 0.089942 0.378041 0.013248
Si Si3 0.079312 0.918306 0.909323
Si Si4 0.244979 0.899461 0.224206
Si Si5 0.176865 0.926100 0.451695
Si Si6 0.500000 0.466445 0.250000
Si Si7 0.063323 0.741699 0.840830
O O1 0.500000 0.956554 0.750000
O O2 0.453933 0.901717 0.582197
O O3 0.540137 0.048838 0.592419
O O4 0.325099 0.019422 0.688362
O O5 0.233312 0.387459 0.990466
O O6 0.035948 0.294779 0.066303
O O7 0.038508 0.975642 0.829282
O O8 0.177593 0.973838 0.943861
O O9 0.111946 0.830101 0.862154
O O10 0.961016 0.906720 0.997414
O O11 0.327597 0.823102 0.180084
O O12 0.218925 0.893172 0.341589
O O13 0.116018 0.911673 0.201849
O O14 0.000000 0.744453 0.750000
#
# Coordination Sequence:
#
# PCOD9258528 Si02
#       7
#     8   8   8   8   8   4   8
#     4  10  18  33  58  94 119 163 207 255 299 379
#     4  10  19  33  62  89 124 161 207 253 313 356
#     4  10  22  35  60  89 126 156 213 254 309 358
#     4  10  19  36  61  84 127 155 209 256 310 356
#     4  10  19  37  56  89 116 167 203 252 294 384
#     4  10  20  36  60  90 110 174 208 246 300 380
#     4  11  20  39  60  97 128 164 198 268 311 359
#
# _framework density 20.435911000000001
#
# number of rings (size 3 to 8) (size 9 to 14) (size 15 to 20)
#    0.000    1.846    3.846    1.846    0.000    0.615 
#    0.000    0.000    0.000   40.615    8.000    0.000 
#    0.000    0.000    0.000    0.000    0.000    0.000 
#
# Total GULP energy -145183.010038 kJ/mol
# GULP energy per Si atom -5583.961925 kJ/mol
# Density = 2.038940 g / cm^3
# Si number density = 20.435911 Si / 1000 Ang^3
#
#
#
# Elastic Constant Matrix: (Units=GPa)
#
#
# Indices 1 2 3 4 5 6 
#
# 1 81.9904 31.9475 3.8167 0.0000 -11.7270 0.0000
# 2 31.9475 100.7230 16.6559 0.0000 4.3564 0.0000
# 3 3.8167 16.6559 73.5254 0.0000 6.4456 0.0000
# 4 0.0000 0.0000 0.0000 15.6298 0.0000 3.6800
# 5 -11.7270 4.3564 6.4456 0.0000 29.0540 0.0000
# 6 0.0000 0.0000 0.0000 3.6800 0.0000 9.2669
#
#
#
# Elastic Compliance Matrix: (Units=1/GPa)
#
#
# Indices 1 2 3 4 5 6 
#
# 1 0.015178 -0.005073 -0.000247 0.000000 0.006942 0.000000
# 2 -0.005073 0.012042 -0.002169 0.000000 -0.003372 0.000000
# 3 -0.000247 -0.002169 0.014365 0.000000 -0.002961 0.000000
# 4 0.000000 0.000000 0.000000 0.070580 0.000000 -0.028028
# 5 0.006942 -0.003372 -0.002961 0.000000 0.038383 0.000000
# 6 0.000000 0.000000 0.000000 -0.028028 0.000000 0.119042
#
#
# Mechanical properties :
#
#
# Convention : Reuss Voigt Hill
#
# Bulk Modulus (GPa) = 37.58661 40.11990 38.85325
# Shear Modulus (GPa) = 17.03949 24.37805 20.70877
#
# Velocity S-wave (km/s) = 2.89069 3.45759 3.18677
# Velocity P-wave (km/s) = 5.43818 5.96779 5.70913
#
# Compressibility (1/GPa) = 0.02660522
#
# Stress axis : x y z
#
# Youngs Moduli (GPa) = 65.88564 83.04306 69.61606
#
# Poissons Ratio (x) = 0.42132 0.01720
# Poissons Ratio (y) = 0.33427 0.15099
# Poissons Ratio (z) = 0.01628 0.18011
#
# Static dielectric constant tensor:
#      x y z
#    x 1.760670 0.000000 -0.006180 
#    y 0.000000 1.719750 0.000000 
#    z -0.006180 0.000000 1.758590 
# 
# From -- ./inp_files/144184.got.cif
#   From: 2010.05.17/outbox.cif.g08.bks.cpg/sg15_73_cif.got.tgz:144184.got - 2010.06.03 18:47:42.
