data_PCOD9258971
_publ_section_title
;
Structure prediction by ZEFSAII (Michael W. Deem and Ramdas Pophale) SiO2 
 PCOD9258971
Probable space group: C 2/C
;
_chemical_formula_sum "Si O2"
_cell_formula_units_Z 52
_cell_length_a 18.670460
_cell_length_b 20.193005
_cell_length_c 8.473313
_cell_angle_alpha 90.000000
_cell_angle_beta 124.310752
_cell_angle_gamma 90.000000
_cell_volume 2638.671583
_symmetry_space_group_name_H-M "C 2/C"
_symmetry_group_IT_number 15
_symmetry_cell_setting 'monoclinic'
loop_
_space_group_symop_operation_xyz
x,y,z
-x,y,1/2-z
-x,-y,-z
x,-y,1/2+z
1/2+x,1/2+y,z
1/2-x,1/2+y,1/2-z
1/2-x,1/2-y,-z
1/2+x,1/2-y,1/2+z
loop_
_atom_site_type_symbol
_atom_site_label
_atom_site_fract_x
_atom_site_fract_y
_atom_site_fract_z
Si Si1 0.787980 0.159566 0.883878
Si Si2 0.835359 0.592145 0.357599
Si Si3 0.684212 0.969913 0.331483
Si Si4 0.843390 0.788247 0.129375
Si Si5 0.978003 0.417634 0.553152
Si Si6 0.500000 0.204240 0.250000
Si Si7 0.697975 0.700601 0.261419
O O1 0.747125 0.086727 0.842563
O O2 0.835253 0.167340 0.774923
O O3 0.718835 0.221151 0.800744
O O4 0.835655 0.173674 0.111635
O O5 0.792529 0.546516 0.168394
O O6 0.825229 0.546950 0.498369
O O7 0.787650 0.660386 0.337710
O O8 0.934935 0.598831 0.433303
O O9 0.591822 0.956327 0.132834
O O10 0.928550 0.743766 0.256953
O O11 0.750000 0.750000 0.000000
O O12 0.855492 0.814332 0.964405
O O13 0.945220 0.345905 0.571311
O O14 0.000000 0.450821 0.750000
#
# Coordination Sequence:
#
# PCOD9258971 Si02
#       7
#     8   8   8   8   8   4   8
#     4   9  19  34  54  77 104 142 188 238 286 329
#     4  11  22  34  51  77 113 154 196 235 284 348
#     4  11  22  34  51  77 113 154 196 235 284 348
#     4  10  18  34  58  78 116 148 182 243 288 333
#     4  10  20  32  49  71 113 153 194 224 266 348
#     4  10  22  34  58  92 108 158 200 222 306 350
#     4   9  19  34  54  77 104 142 188 238 286 329
#
# _framework density 19.706885
#
# number of rings (size 3 to 8) (size 9 to 14) (size 15 to 20)
#    0.462    1.538    0.000    5.538    4.308    0.000 
#    0.000    2.308    0.000    0.000    0.000    1.077 
#    0.000    0.000    0.000    0.000    0.000    0.000 
#
# Total GULP energy -144772.661127 kJ/mol
# GULP energy per Si atom -5568.179274 kJ/mol
# Density = 1.966203 g / cm^3
# Si number density = 19.706885 Si / 1000 Ang^3
#
#
#
# Elastic Constant Matrix: (Units=GPa)
#
#
# Indices 1 2 3 4 5 6 
#
# 1 57.2258 17.7158 7.8770 0.0000 -21.4477 0.0000
# 2 17.7158 44.5716 -8.9762 0.0000 3.1428 0.0000
# 3 7.8770 -8.9762 70.8703 0.0000 -28.3830 0.0000
# 4 0.0000 0.0000 0.0000 27.1834 0.0000 -8.4883
# 5 -21.4477 3.1428 -28.3830 0.0000 32.7535 0.0000
# 6 0.0000 0.0000 0.0000 -8.4883 0.0000 28.3572
#
#
#
# Elastic Compliance Matrix: (Units=1/GPa)
#
#
# Indices 1 2 3 4 5 6 
#
# 1 0.030332 -0.012801 0.005290 0.000000 0.025674 0.000000
# 2 -0.012801 0.028431 0.000879 0.000000 -0.010348 0.000000
# 3 0.005290 0.000879 0.022953 0.000000 0.023270 0.000000
# 4 0.000000 0.000000 0.000000 0.040580 0.000000 0.012147
# 5 0.025674 -0.010348 0.023270 0.000000 0.068500 0.000000
# 6 0.000000 0.000000 0.000000 0.012147 0.000000 0.038901
#
#
# Mechanical properties :
#
#
# Convention : Reuss Voigt Hill
#
# Bulk Modulus (GPa) = 14.60897 22.87787 18.74342
# Shear Modulus (GPa) = 18.81271 28.06223 23.43747
#
# Velocity S-wave (km/s) = 3.09305 3.77766 3.45237
# Velocity P-wave (km/s) = 4.49279 5.53732 5.04218
#
# Compressibility (1/GPa) = 0.06845111
#
# Stress axis : x y z
#
# Youngs Moduli (GPa) = 32.96871 35.17344 43.56725
#
# Poissons Ratio (x) = 0.45025 -0.23045
# Poissons Ratio (y) = 0.42203 -0.03831
# Poissons Ratio (z) = -0.17439 -0.03093
#
# Static dielectric constant tensor:
#      x y z
#    x 1.691250 0.000000 -0.043500 
#    y 0.000000 1.777770 0.000000 
#    z -0.043500 0.000000 1.756710 
# 
# From -- ./inp_files/49229.got.cif
#   From: 2010.05.17/outbox.cif.g08.bks.cpg/sg15_25_cif.got.tgz:49229.got - 2010.06.03 18:47:42.
