data_PCOD9258073
_publ_section_title
;
Structure prediction by ZEFSAII (Michael W. Deem and Ramdas Pophale) SiO2 
 PCOD9258073
Probable space group: C 2/C
;
_chemical_formula_sum "Si O2"
_cell_formula_units_Z 52
_cell_length_a 5.375652
_cell_length_b 32.313633
_cell_length_c 12.196704
_cell_angle_alpha 90.000000
_cell_angle_beta 77.012091
_cell_angle_gamma 90.000000
_cell_volume 2064.450623
_symmetry_space_group_name_H-M "C 2/C"
_symmetry_group_IT_number 15
_symmetry_cell_setting 'monoclinic'
loop_
_space_group_symop_operation_xyz
x,y,z
-x,y,1/2-z
-x,-y,-z
x,-y,1/2+z
1/2+x,1/2+y,z
1/2-x,1/2+y,1/2-z
1/2-x,1/2-y,-z
1/2+x,1/2-y,1/2+z
loop_
_atom_site_type_symbol
_atom_site_label
_atom_site_fract_x
_atom_site_fract_y
_atom_site_fract_z
Si Si1 0.871683 0.837478 0.408393
Si Si2 0.337981 0.607141 0.464964
Si Si3 0.888639 0.686834 0.072776
Si Si4 0.240465 0.728098 0.651971
Si Si5 0.500000 0.402155 0.250000
Si Si6 0.301044 0.042880 0.870862
Si Si7 0.284133 0.453360 0.677009
O O1 0.679269 0.826729 0.524179
O O2 0.791099 0.869095 0.319270
O O3 0.102611 0.863735 0.437396
O O4 0.991136 0.794910 0.358285
O O5 0.241566 0.642430 0.392478
O O6 0.150839 0.570310 0.525274
O O7 0.590221 0.584408 0.399204
O O8 0.797963 0.723178 0.160472
O O9 0.836155 0.710870 0.961565
O O10 0.000000 0.716510 0.750000
O O11 0.440046 0.434208 0.159062
O O12 0.500000 0.045760 0.750000
O O13 0.247736 0.994748 0.892759
O O14 0.500000 0.462517 0.750000
O O15 0.000000 0.444474 0.750000
#
# Coordination Sequence:
#
# PCOD9258073 Si02
#       7
#     8   8   8   8   4   8   8
#     4  10  20  35  60  89 122 158 214 263 335 386
#     4  10  23  39  62  92 124 171 215 269 328 394
#     4  10  21  38  58  85 122 159 209 269 316 401
#     4  10  21  37  57  85 119 160 207 263 335 389
#     4  10  18  32  58  92 120 158 208 270 332 384
#     4  10  20  39  61  93 127 165 216 273 333 394
#     4  11  25  45  66  95 136 180 225 277 328 395
#
# _framework density 25.188300000000002
#
# number of rings (size 3 to 8) (size 9 to 14) (size 15 to 20)
#    0.000    1.846    0.769    2.769    2.154    4.923 
#    0.000    2.308    0.000    0.000    0.000    0.000 
#    0.000    0.000    0.000    0.000    0.000    0.000 
#
# Total GULP energy -144880.667264 kJ/mol
# GULP energy per Si atom -5572.333356 kJ/mol
# Density = 2.513097 g / cm^3
# Si number density = 25.188300 Si / 1000 Ang^3
#
#
#
# Elastic Constant Matrix: (Units=GPa)
#
#
# Indices 1 2 3 4 5 6 
#
# 1 58.3529 37.1852 16.8627 0.0000 -33.4147 0.0000
# 2 37.1852 198.5716 38.4910 0.0000 -39.4958 0.0000
# 3 16.8627 38.4910 40.8211 0.0000 -32.2737 0.0000
# 4 0.0000 0.0000 0.0000 33.8745 0.0000 -16.7943
# 5 -33.4147 -39.4958 -32.2737 0.0000 42.7689 0.0000
# 6 0.0000 0.0000 0.0000 -16.7943 0.0000 27.5665
#
#
#
# Elastic Compliance Matrix: (Units=1/GPa)
#
#
# Indices 1 2 3 4 5 6 
#
# 1 0.036658 -0.002498 0.019911 0.000000 0.041359 0.000000
# 2 -0.002498 0.006519 -0.004706 0.000000 0.000517 0.000000
# 3 0.019911 -0.004706 0.073308 0.000000 0.066529 0.000000
# 4 0.000000 0.000000 0.000000 0.042296 0.000000 0.025768
# 5 0.041359 0.000517 0.066529 0.000000 0.106375 0.000000
# 6 0.000000 0.000000 0.000000 0.025768 0.000000 0.051974
#
#
# Mechanical properties :
#
#
# Convention : Reuss Voigt Hill
#
# Bulk Modulus (GPa) = 7.04725 53.64707 30.34716
# Shear Modulus (GPa) = 14.74853 34.52242 24.63547
#
# Velocity S-wave (km/s) = 2.42240 3.70614 3.13078
# Velocity P-wave (km/s) = 3.26005 6.29751 5.01431
#
# Compressibility (1/GPa) = 0.14189930
#
# Stress axis : x y z
#
# Youngs Moduli (GPa) = 27.27881 153.40202 13.64104
#
# Poissons Ratio (x) = 0.38322 -0.27161
# Poissons Ratio (y) = 0.06815 0.06420
# Poissons Ratio (z) = -0.54315 0.72192
#
# Static dielectric constant tensor:
#      x y z
#    x 2.132170 0.000000 0.116160 
#    y 0.000000 2.017830 0.000000 
#    z 0.116160 0.000000 2.165090 
# 
# From -- ./inp_files/130708.got.cif
#   From: 2010.05.17/outbox.cif.g08.bks.cpg/sg15_66_cif.got.tgz:130708.got - 2010.06.03 18:47:42.
