data_PCOD9258540
_publ_section_title
;
Structure prediction by ZEFSAII (Michael W. Deem and Ramdas Pophale) SiO2 
 PCOD9258540
Probable space group: C 2/C
;
_chemical_formula_sum "Si O2"
_cell_formula_units_Z 64
_cell_length_a 23.804726
_cell_length_b 21.469124
_cell_length_c 9.561273
_cell_angle_alpha 90.000000
_cell_angle_beta 131.667903
_cell_angle_gamma 90.000000
_cell_volume 3650.228635
_symmetry_space_group_name_H-M "C 2/C"
_symmetry_group_IT_number 15
_symmetry_cell_setting 'monoclinic'
loop_
_space_group_symop_operation_xyz
x,y,z
-x,y,1/2-z
-x,-y,-z
x,-y,1/2+z
1/2+x,1/2+y,z
1/2-x,1/2+y,1/2-z
1/2-x,1/2-y,-z
1/2+x,1/2-y,1/2+z
loop_
_atom_site_type_symbol
_atom_site_label
_atom_site_fract_x
_atom_site_fract_y
_atom_site_fract_z
Si Si1 0.103994 0.686837 0.049778
Si Si2 0.587021 0.954922 0.426093
Si Si3 0.018784 0.656440 0.427271
Si Si4 0.740536 0.341902 0.076697
Si Si5 0.234961 0.207581 0.254026
Si Si6 0.426166 0.692132 0.195489
Si Si7 0.637198 0.059406 0.719396
Si Si8 0.931050 0.209432 0.537051
O O1 0.192707 0.697356 0.223552
O O2 0.049595 0.685142 0.094887
O O3 0.093479 0.617695 0.973928
O O4 0.083616 0.740414 0.900641
O O5 0.500000 0.968512 0.250000
O O6 0.639275 0.964937 0.379280
O O7 0.615996 0.001169 0.591148
O O8 0.068928 0.609722 0.599953
O O9 0.065801 0.715694 0.453156
O O10 0.000000 0.622639 0.250000
O O11 0.767846 0.279678 0.201554
O O12 0.788980 0.401564 0.197289
O O13 0.750365 0.328567 0.926411
O O14 0.651468 0.344127 0.956195
O O15 0.153210 0.188960 0.061014
O O16 0.500000 0.663138 0.250000
O O17 0.438111 0.696627 0.382160
O O18 0.000000 0.187248 0.750000
#
# Coordination Sequence:
#
# PCOD9258540 Si02
#       8
#     8   8   8   8   8   8   8   8
#     4  11  20  34  57  82 107 147 194 223 265 328
#     4  12  24  35  54  77 110 152 193 226 256 314
#     4  11  22  34  51  74 115 151 184 226 270 312
#     4   9  18  32  56  80 106 139 185 228 273 324
#     4   9  17  33  56  80 104 143 183 226 277 332
#     4  10  18  33  59  85 109 138 178 225 277 343
#     4  12  23  38  52  77 111 153 191 229 259 318
#     4  10  19  32  51  80 111 142 169 220 282 325
#
# _framework density 17.533149000000002
#
# number of rings (size 3 to 8) (size 9 to 14) (size 15 to 20)
#    0.000    1.500    5.000    2.625    1.750    0.000 
#    0.000    3.750    0.000    0.000    0.000    1.750 
#    0.000    0.000    0.000    0.000    0.000    0.000 
#
# Total GULP energy -178363.829738 kJ/mol
# GULP energy per Si atom -5573.869679 kJ/mol
# Density = 1.749324 g / cm^3
# Si number density = 17.533149 Si / 1000 Ang^3
#
#
#
# Elastic Constant Matrix: (Units=GPa)
#
#
# Indices 1 2 3 4 5 6 
#
# 1 110.5913 23.3649 46.5513 0.0000 22.3971 0.0000
# 2 23.3649 36.9137 7.0713 0.0000 -3.8238 0.0000
# 3 46.5513 7.0713 74.5944 0.0000 14.2459 0.0000
# 4 0.0000 0.0000 0.0000 9.8895 0.0000 -13.6230
# 5 22.3971 -3.8238 14.2459 0.0000 28.7052 0.0000
# 6 0.0000 0.0000 0.0000 -13.6230 0.0000 -39.7564
#
#
#
# Elastic Compliance Matrix: (Units=1/GPa)
#
#
# Indices 1 2 3 4 5 6 
#
# 1 0.016335 -0.010039 -0.007239 0.000000 -0.010490 0.000000
# 2 -0.010039 0.034569 0.000677 0.000000 0.012102 0.000000
# 3 -0.007239 0.000677 0.018518 0.000000 -0.003452 0.000000
# 4 0.000000 0.000000 0.000000 0.068693 0.000000 -0.023538
# 5 -0.010490 0.012102 -0.003452 0.000000 0.046347 0.000000
# 6 0.000000 0.000000 0.000000 -0.023538 0.000000 -0.017087
#
#
# Mechanical properties :
#
#
# Convention : Reuss Voigt Hill
#
# Bulk Modulus (GPa) = 27.60952 41.78604 34.69778
# Shear Modulus (GPa) = 23.51288 9.44180 16.47734
#
# Velocity S-wave (km/s) = 3.66601 2.32310 3.06891
# Velocity P-wave (km/s) = 5.80523 5.57495 5.69126
#
# Compressibility (1/GPa) = 0.03621939
#
# Stress axis : x y z
#
# Youngs Moduli (GPa) = 61.21903 28.92802 54.00028
#
# Poissons Ratio (x) = 0.29041 0.39090
# Poissons Ratio (y) = 0.61459 -0.03655
# Poissons Ratio (z) = 0.44315 -0.01958
#
# Static dielectric constant tensor:
#      x y z
#    x 1.644610 0.000000 -0.004710 
#    y 0.000000 1.566180 0.000000 
#    z -0.004710 0.000000 1.688120 
# 
# From -- ./inp_files/63423.got.cif
#   From: 2010.05.17/outbox.cif.g08.bks.cpg/sg15_32_cif.got.tgz:63423.got - 2010.06.03 18:47:42.
