data_PCOD9258953
_publ_section_title
;
Structure prediction by ZEFSAII (Michael W. Deem and Ramdas Pophale) SiO2 
 PCOD9258953
Probable space group: C 2/C
;
_chemical_formula_sum "Si O2"
_cell_formula_units_Z 48
_cell_length_a 22.433409
_cell_length_b 9.536719
_cell_length_c 14.161963
_cell_angle_alpha 90.000000
_cell_angle_beta 38.645148
_cell_angle_gamma 90.000000
_cell_volume 1892.111996
_symmetry_space_group_name_H-M "C 2/C"
_symmetry_group_IT_number 15
_symmetry_cell_setting 'monoclinic'
loop_
_space_group_symop_operation_xyz
x,y,z
-x,y,1/2-z
-x,-y,-z
x,-y,1/2+z
1/2+x,1/2+y,z
1/2-x,1/2+y,1/2-z
1/2-x,1/2-y,-z
1/2+x,1/2-y,1/2+z
loop_
_atom_site_type_symbol
_atom_site_label
_atom_site_fract_x
_atom_site_fract_y
_atom_site_fract_z
Si Si1 0.693458 0.920884 0.518545
Si Si2 0.765019 0.341792 0.656000
Si Si3 0.948259 0.085015 0.150602
Si Si4 0.402572 0.684997 0.778927
Si Si5 0.227638 0.453715 0.185886
Si Si6 0.029215 0.341880 0.469724
O O1 0.618966 0.792831 0.611008
O O2 0.796051 0.847888 0.369889
O O3 0.667803 0.047782 0.482143
O O4 0.703737 0.990374 0.610891
O O5 0.662770 0.378389 0.733477
O O6 0.753968 0.409799 0.773635
O O7 0.798257 0.180800 0.599415
O O8 0.990130 0.241209 0.096347
O O9 0.944528 0.970522 0.237073
O O10 0.000000 0.000000 0.000000
O O11 0.470166 0.767868 0.624351
O O12 0.141908 0.365291 0.340907
O O13 0.000000 0.500000 0.500000
#
# Coordination Sequence:
#
# PCOD9258953 Si02
#       6
#     8   8   8   8   8   8
#     4  10  20  37  62  86 119 160 200 250 301 365
#     4  10  23  36  58  92 117 153 206 248 304 363
#     4   8  17  33  55  82 116 154 192 241 295 364
#     4   9  18  33  61  83 114 155 203 238 304 362
#     4  11  23  38  63  87 122 157 202 257 303 363
#     4  10  18  34  57  90 117 159 199 248 308 364
#
# _framework density 25.368476999999999
#
# number of rings (size 3 to 8) (size 9 to 14) (size 15 to 20)
#    0.000    2.333    1.667    0.500    7.000    0.000 
#    0.000    0.833    3.667    3.000   17.333    0.000 
#    0.000    0.000    0.000    0.000    0.000    0.000 
#
# Total GULP energy -133655.899355 kJ/mol
# GULP energy per Si atom -5568.995806 kJ/mol
# Density = 2.531074 g / cm^3
# Si number density = 25.368477 Si / 1000 Ang^3
#
#
#
# Elastic Constant Matrix: (Units=GPa)
#
#
# Indices 1 2 3 4 5 6 
#
# 1 60.1024 31.1434 26.1258 0.0000 15.8287 0.0000
# 2 31.1434 234.4031 26.1951 -0.0002 25.6157 0.0001
# 3 26.1258 26.1951 58.5666 0.0000 -4.4540 0.0000
# 4 0.0000 -0.0002 0.0000 49.9467 0.0000 3.5720
# 5 15.8287 25.6157 -4.4540 0.0000 35.2019 0.0000
# 6 0.0000 0.0001 0.0000 3.5720 0.0000 13.1611
#
#
#
# Elastic Compliance Matrix: (Units=1/GPa)
#
#
# Indices 1 2 3 4 5 6 
#
# 1 0.025509 -0.000680 -0.012026 0.000000 -0.012497 0.000000
# 2 -0.000680 0.004998 -0.002207 0.000000 -0.003610 0.000000
# 3 -0.012026 -0.002207 0.024192 0.000000 0.010074 0.000000
# 4 0.000000 0.000000 0.000000 0.020418 0.000000 -0.005542
# 5 -0.012497 -0.003610 0.010074 0.000000 0.037929 0.000000
# 6 0.000000 0.000000 0.000000 -0.005542 0.000000 0.077486
#
#
# Mechanical properties :
#
#
# Convention : Reuss Voigt Hill
#
# Bulk Modulus (GPa) = 40.20111 57.77785 48.98948
# Shear Modulus (GPa) = 21.86780 37.63580 29.75180
#
# Velocity S-wave (km/s) = 2.93918 3.85589 3.42831
# Velocity P-wave (km/s) = 5.23447 6.53060 5.91812
#
# Compressibility (1/GPa) = 0.02487494
#
# Stress axis : x y z
#
# Youngs Moduli (GPa) = 39.20153 200.09696 41.33557
#
# Poissons Ratio (x) = 0.13598 0.49709
# Poissons Ratio (y) = 0.02664 0.09121
# Poissons Ratio (z) = 0.47143 0.44155
#
# Static dielectric constant tensor:
#      x y z
#    x 1.918740 0.000000 0.265450 
#    y 0.000000 2.890640 0.000000 
#    z 0.265450 0.000000 1.762390 
# 
# From -- ./inp_files/180697.got.cif
#   From: 2010.05.17/outbox.cif.g08.bks.cpg/sg15_91_cif.got.tgz:180697.got - 2010.06.03 18:47:42.
