data_PCOD9258671
_publ_section_title
;
Structure prediction by ZEFSAII (Michael W. Deem and Ramdas Pophale) SiO2 
 PCOD9258671
Probable space group: C 2/C
;
_chemical_formula_sum "Si O2"
_cell_formula_units_Z 56
_cell_length_a 17.706106
_cell_length_b 17.131560
_cell_length_c 18.292871
_cell_angle_alpha 90.000000
_cell_angle_beta 33.527985
_cell_angle_gamma 90.000000
_cell_volume 3064.867139
_symmetry_space_group_name_H-M "C 2/C"
_symmetry_group_IT_number 15
_symmetry_cell_setting 'monoclinic'
loop_
_space_group_symop_operation_xyz
x,y,z
-x,y,1/2-z
-x,-y,-z
x,-y,1/2+z
1/2+x,1/2+y,z
1/2-x,1/2+y,1/2-z
1/2-x,1/2-y,-z
1/2+x,1/2-y,1/2+z
loop_
_atom_site_type_symbol
_atom_site_label
_atom_site_fract_x
_atom_site_fract_y
_atom_site_fract_z
Si Si1 0.236111 0.648244 0.294865
Si Si2 0.479701 0.591070 0.013546
Si Si3 0.737878 0.824174 0.424993
Si Si4 0.244937 0.332747 0.247964
Si Si5 0.958573 0.589614 0.180932
Si Si6 0.520116 0.939951 0.052358
Si Si7 0.713408 0.639868 0.463745
O O1 0.251483 0.741381 0.275573
O O2 0.142645 0.617529 0.302989
O O3 0.157306 0.610171 0.427160
O O4 0.385135 0.615292 0.157555
O O5 0.626441 0.630409 0.895947
O O6 0.500000 0.500000 0.000000
O O7 0.400619 0.614885 0.002495
O O8 0.765768 0.844345 0.318650
O O9 0.584224 0.850899 0.570107
O O10 0.746583 0.730919 0.422609
O O11 0.825475 0.862911 0.419394
O O12 0.105183 0.378902 0.343662
O O13 0.855615 0.595240 0.332201
O O14 0.012587 0.501960 0.124163
O O15 0.500000 0.000000 0.000000
#
# Coordination Sequence:
#
# PCOD9258671 Si02
#       7
#     8   8   8   8   8   8   8
#     4  10  19  32  49  74  99 135 178 215 260 308
#     4  11  22  33  49  72 106 139 170 223 264 296
#     4  11  20  31  51  71 108 145 175 204 248 315
#     4  12  19  32  52  75 105 142 168 212 259 313
#     4  10  18  34  50  68  99 141 185 217 251 298
#     4  10  19  32  53  71  97 141 182 221 255 305
#     4  10  22  33  46  76 105 144 179 207 248 317
#
# _framework density 18.271591999999998
#
# number of rings (size 3 to 8) (size 9 to 14) (size 15 to 20)
#    0.000    1.429    5.714    4.714    0.000    0.571 
#    0.000    0.000    0.000    0.000    0.000    0.000 
#    0.000   20.571    0.000    0.000    0.000    0.000 
#
# Total GULP energy -156058.502697 kJ/mol
# GULP energy per Si atom -5573.517953 kJ/mol
# Density = 1.823001 g / cm^3
# Si number density = 18.271592 Si / 1000 Ang^3
#
#
#
# Elastic Constant Matrix: (Units=GPa)
#
#
# Indices 1 2 3 4 5 6 
#
# 1 21.9028 11.2401 11.6692 0.0021 10.4717 0.0039
# 2 11.2401 137.1320 73.7655 0.0054 10.2127 0.0095
# 3 11.6692 73.7655 142.5088 0.0108 2.2904 0.0184
# 4 0.0021 0.0054 0.0108 182.6052 -0.0049 256.5749
# 5 10.4717 10.2127 2.2904 -0.0049 11.4477 -0.0085
# 6 0.0039 0.0095 0.0184 256.5749 -0.0085 494.6088
#
#
#
# Elastic Compliance Matrix: (Units=1/GPa)
#
#
# Indices 1 2 3 4 5 6 
#
# 1 0.086321 0.002760 -0.007212 -0.000001 -0.079982 -0.000001
# 2 0.002760 0.010981 -0.005730 0.000000 -0.011175 0.000000
# 3 -0.007212 -0.005730 0.010419 0.000000 0.009624 0.000000
# 4 -0.000001 0.000000 0.000000 0.020198 0.000002 -0.010478
# 5 -0.079982 -0.011175 0.009624 0.000002 0.168561 0.000003
# 6 -0.000001 0.000000 0.000000 -0.010478 0.000003 0.007457
#
#
# Mechanical properties :
#
#
# Convention : Reuss Voigt Hill
#
# Bulk Modulus (GPa) = 11.44715 54.98813 33.21764
# Shear Modulus (GPa) = 14.14749 151.39025 82.76887
#
# Velocity S-wave (km/s) = 2.78562 9.11238 6.73777
# Velocity P-wave (km/s) = 4.07736 11.86904 8.87409
#
# Compressibility (1/GPa) = 0.08735797
#
# Stress axis : x y z
#
# Youngs Moduli (GPa) = 11.58462 91.06999 95.97817
#
# Poissons Ratio (x) = -0.25140 0.69217
# Poissons Ratio (y) = -0.03198 0.54998
# Poissons Ratio (z) = 0.08355 0.52185
#
# Static dielectric constant tensor:
#      x y z
#    x 1.690400 0.000000 0.026750 
#    y 0.000000 1.537570 0.000000 
#    z 0.026750 0.000000 1.684440 
# 
# From -- ./inp_files/249208.got.cif
#   From: 2010.05.17/outbox.cif.g08.bks.cpg/sg15_125_cif.got.tgz:249208.got - 2010.06.03 18:47:42.
