data_PCOD9258831
_publ_section_title
;
Structure prediction by ZEFSAII (Michael W. Deem and Ramdas Pophale) SiO2 
 PCOD9258831
Probable space group: C 2/C
;
_chemical_formula_sum "Si O2"
_cell_formula_units_Z 44
_cell_length_a 16.568682
_cell_length_b 12.126582
_cell_length_c 12.785243
_cell_angle_alpha 90.000000
_cell_angle_beta 133.396805
_cell_angle_gamma 90.000000
_cell_volume 1866.545201
_symmetry_space_group_name_H-M "C 2/C"
_symmetry_group_IT_number 15
_symmetry_cell_setting 'monoclinic'
loop_
_space_group_symop_operation_xyz
x,y,z
-x,y,1/2-z
-x,-y,-z
x,-y,1/2+z
1/2+x,1/2+y,z
1/2-x,1/2+y,1/2-z
1/2-x,1/2-y,-z
1/2+x,1/2-y,1/2+z
loop_
_atom_site_type_symbol
_atom_site_label
_atom_site_fract_x
_atom_site_fract_y
_atom_site_fract_z
Si Si1 0.334910 0.353590 0.950760
Si Si2 0.081243 0.328883 0.131398
Si Si3 0.813503 0.095890 0.897071
Si Si4 0.000000 0.062408 0.750000
Si Si5 0.850939 0.328617 0.850740
Si Si6 0.643996 0.632822 0.320432
O O1 0.381033 0.249775 0.930140
O O2 0.362882 0.474971 0.929780
O O3 0.202326 0.347140 0.811319
O O4 0.400921 0.362958 0.116894
O O5 0.184031 0.407602 0.248542
O O6 0.077878 0.242097 0.225166
O O7 0.965029 0.378584 0.993154
O O8 0.865864 0.196209 0.879402
O O9 0.822154 0.128915 0.027537
O O10 0.933040 0.974372 0.762734
O O11 0.753842 0.363230 0.846256
#
# Coordination Sequence:
#
# PCOD9258831 Si02
#       6
#     8   8   8   4   8   8
#     4   9  20  35  52  75 100 137 179 213 255 310
#     4  10  19  32  52  76 108 137 166 218 267 302
#     4   9  18  32  51  76 105 135 172 210 254 315
#     4  10  18  34  56  74 102 140 176 216 252 300
#     4  10  20  31  49  80 106 134 173 212 265 313
#     4   9  18  30  51  80 102 130 172 215 261 305
#
# _framework density 23.572963000000001
#
# number of rings (size 3 to 8) (size 9 to 14) (size 15 to 20)
#    0.000    2.909    0.000    4.364    0.000    9.455 
#    0.000    0.909    0.000    4.364    0.000    5.091 
#    0.000    0.000    0.000    0.000    0.000    0.000 
#
# Total GULP energy -122631.964953 kJ/mol
# GULP energy per Si atom -5574.180225 kJ/mol
# Density = 2.351931 g / cm^3
# Si number density = 23.572963 Si / 1000 Ang^3
#
#
#
# Elastic Constant Matrix: (Units=GPa)
#
#
# Indices 1 2 3 4 5 6 
#
# 1 30.9900 1.2348 16.9605 0.0000 20.8729 0.0000
# 2 1.2348 61.0397 14.0215 0.0000 -6.6928 0.0000
# 3 16.9605 14.0215 190.1430 0.0000 42.2681 0.0000
# 4 0.0000 0.0000 0.0000 34.3729 0.0000 -0.8412
# 5 20.8729 -6.6928 42.2681 0.0000 36.9243 0.0000
# 6 0.0000 0.0000 0.0000 -0.8412 0.0000 5.2091
#
#
#
# Elastic Compliance Matrix: (Units=1/GPa)
#
#
# Indices 1 2 3 4 5 6 
#
# 1 0.054952 -0.005911 0.003592 0.000000 -0.036247 0.000000
# 2 -0.005911 0.018332 -0.003093 0.000000 0.010205 0.000000
# 3 0.003592 -0.003093 0.007703 0.000000 -0.011409 0.000000
# 4 0.000000 0.000000 0.000000 0.029208 0.000000 0.004717
# 5 -0.036247 0.010205 -0.011409 0.000000 0.062482 0.000000
# 6 0.000000 0.000000 0.000000 0.004717 0.000000 0.192734
#
#
# Mechanical properties :
#
#
# Convention : Reuss Voigt Hill
#
# Bulk Modulus (GPa) = 14.25275 38.51181 26.38228
# Shear Modulus (GPa) = 12.51181 31.96498 22.23840
#
# Velocity S-wave (km/s) = 2.30634 3.68639 3.07479
# Velocity P-wave (km/s) = 3.62652 5.87299 4.88076
#
# Compressibility (1/GPa) = 0.07016190
#
# Stress axis : x y z
#
# Youngs Moduli (GPa) = 18.19778 54.55002 129.81837
#
# Poissons Ratio (x) = 0.32245 -0.46628
# Poissons Ratio (y) = 0.10757 0.40154
# Poissons Ratio (z) = -0.06536 0.16873
#
# Static dielectric constant tensor:
#      x y z
#    x 1.929810 0.000000 -0.015970 
#    y 0.000000 1.903790 0.000000 
#    z -0.015970 0.000000 2.016020 
# 
# From -- ./inp_files/167754.got.cif
#   From: 2010.05.17/outbox.cif.g08.bks.cpg/sg15_84_cif.got.tgz:167754.got - 2010.06.03 18:47:42.
