data_PCOD9258890
_publ_section_title
;
Structure prediction by ZEFSAII (Michael W. Deem and Ramdas Pophale) SiO2 
 PCOD9258890
Probable space group: C 2/C
;
_chemical_formula_sum "Si O2"
_cell_formula_units_Z 36
_cell_length_a 5.054587
_cell_length_b 18.764222
_cell_length_c 18.834076
_cell_angle_alpha 90.000000
_cell_angle_beta 90.121916
_cell_angle_gamma 90.000000
_cell_volume 1786.321288
_symmetry_space_group_name_H-M "C 2/C"
_symmetry_group_IT_number 15
_symmetry_cell_setting 'monoclinic'
loop_
_space_group_symop_operation_xyz
x,y,z
-x,y,1/2-z
-x,-y,-z
x,-y,1/2+z
1/2+x,1/2+y,z
1/2-x,1/2+y,1/2-z
1/2-x,1/2-y,-z
1/2+x,1/2-y,1/2+z
loop_
_atom_site_type_symbol
_atom_site_label
_atom_site_fract_x
_atom_site_fract_y
_atom_site_fract_z
Si Si1 0.247993 0.990430 0.197733
Si Si2 0.000000 0.244467 0.750000
Si Si3 0.363647 0.345054 0.370790
Si Si4 0.887337 0.729263 0.927054
Si Si5 0.841794 0.850605 0.824808
O O1 0.500000 0.983506 0.250000
O O2 0.202315 0.927289 0.142112
O O3 0.000000 0.987040 0.250000
O O4 0.240937 0.068588 0.161869
O O5 0.193413 0.192787 0.706250
O O6 0.094886 0.300039 0.808679
O O7 0.666735 0.322326 0.388144
O O8 0.160841 0.313759 0.427805
O O9 0.965216 0.803645 0.887291
O O10 0.750000 0.750000 0.000000
O O11 0.000000 0.849556 0.750000
#
# Coordination Sequence:
#
# PCOD9258890 Si02
#       5
#     8   4   8   8   8
#     4  11  22  35  56  92 123 148 189 251 306 348
#     4  10  18  34  56  90 108 152 188 246 290 340
#     4  11  22  37  61  86 120 150 199 242 298 346
#     4  11  24  41  61  86 120 162 203 241 289 354
#     4  10  20  36  58  85 118 151 197 245 297 347
#
# _framework density 20.153148000000002
#
# number of rings (size 3 to 8) (size 9 to 14) (size 15 to 20)
#    0.000    1.333    4.444    2.000    3.111    0.000 
#    0.000    2.222    0.000    0.000    0.000    0.000 
#    0.000    0.000    0.000    0.000    0.000    0.000 
#
# Total GULP energy -100211.412121 kJ/mol
# GULP energy per Si atom -5567.300673 kJ/mol
# Density = 2.010728 g / cm^3
# Si number density = 20.153148 Si / 1000 Ang^3
#
#
#
# Elastic Constant Matrix: (Units=GPa)
#
#
# Indices 1 2 3 4 5 6 
#
# 1 77.9219 4.9799 -10.9647 0.0000 -11.2508 0.0000
# 2 4.9799 152.8042 21.7507 0.0000 0.3791 0.0000
# 3 -10.9647 21.7507 58.6510 0.0000 -20.2209 0.0000
# 4 0.0000 0.0000 0.0000 9.0589 0.0000 -4.5531
# 5 -11.2508 0.3791 -20.2209 0.0000 26.9829 0.0000
# 6 0.0000 0.0000 0.0000 -4.5531 0.0000 20.8832
#
#
#
# Elastic Compliance Matrix: (Units=1/GPa)
#
#
# Indices 1 2 3 4 5 6 
#
# 1 0.015873 -0.001677 0.007927 0.000000 0.012583 0.000000
# 2 -0.001677 0.007237 -0.004414 0.000000 -0.004109 0.000000
# 3 0.007927 -0.004414 0.028761 0.000000 0.024921 0.000000
# 4 0.000000 0.000000 0.000000 0.123974 0.000000 0.027030
# 5 0.012583 -0.004109 0.024921 0.000000 0.061040 0.000000
# 6 0.000000 0.000000 0.000000 0.027030 0.000000 0.053779
#
#
# Mechanical properties :
#
#
# Convention : Reuss Voigt Hill
#
# Bulk Modulus (GPa) = 18.00385 35.65655 26.83020
# Shear Modulus (GPa) = 16.36630 29.62575 22.99603
#
# Velocity S-wave (km/s) = 2.85282 3.83826 3.38163
# Velocity P-wave (km/s) = 4.45021 6.11344 5.34689
#
# Compressibility (1/GPa) = 0.05554367
#
# Stress axis : x y z
#
# Youngs Moduli (GPa) = 63.00097 138.16958 34.76959
#
# Poissons Ratio (x) = 0.23170 -0.27563
# Poissons Ratio (y) = 0.10565 0.15348
# Poissons Ratio (z) = -0.49943 0.60989
#
# Static dielectric constant tensor:
#      x y z
#    x 1.824990 0.000000 0.084090 
#    y 0.000000 1.734030 0.000000 
#    z 0.084090 0.000000 1.773760 
# 
# From -- ./inp_files/128666.got.cif
#   From: 2010.05.17/outbox.cif.g08.bks.cpg/sg15_65_cif.got.tgz:128666.got - 2010.06.03 18:47:42.
