data_PCOD9258407
_publ_section_title
;
Structure prediction by ZEFSAII (Michael W. Deem and Ramdas Pophale) SiO2 
 PCOD9258407
Probable space group: C 2/C
;
_chemical_formula_sum "Si O2"
_cell_formula_units_Z 44
_cell_length_a 6.654608
_cell_length_b 20.649747
_cell_length_c 15.991834
_cell_angle_alpha 90.000000
_cell_angle_beta 97.336718
_cell_angle_gamma 90.000000
_cell_volume 2179.541782
_symmetry_space_group_name_H-M "C 2/C"
_symmetry_group_IT_number 15
_symmetry_cell_setting 'monoclinic'
loop_
_space_group_symop_operation_xyz
x,y,z
-x,y,1/2-z
-x,-y,-z
x,-y,1/2+z
1/2+x,1/2+y,z
1/2-x,1/2+y,1/2-z
1/2-x,1/2-y,-z
1/2+x,1/2-y,1/2+z
loop_
_atom_site_type_symbol
_atom_site_label
_atom_site_fract_x
_atom_site_fract_y
_atom_site_fract_z
Si Si1 0.052865 0.901642 0.963073
Si Si2 0.285656 0.197302 0.074932
Si Si3 0.527141 0.125770 0.953022
Si Si4 0.178866 0.287914 0.202630
Si Si5 0.500000 0.610739 0.750000
Si Si6 0.700410 0.470476 0.408625
O O1 0.919313 0.843593 0.920643
O O2 0.158902 0.953201 0.907081
O O3 0.232765 0.875269 0.030590
O O4 0.897449 0.941458 0.012373
O O5 0.320522 0.236364 0.162112
O O6 0.250000 0.250000 0.000000
O O7 0.450749 0.150738 0.040286
O O8 0.433376 0.172812 0.878180
O O9 0.430443 0.055727 0.924977
O O10 0.313712 0.340593 0.258946
O O11 0.000000 0.260021 0.250000
O O12 0.418597 0.565430 0.671847
#
# Coordination Sequence:
#
# PCOD9258407 Si02
#       6
#     8   8   8   8   4   8
#     4  10  18  33  56  78 106 141 175 228 274 312
#     4   9  20  34  50  79 107 135 181 221 262 322
#     4   9  18  33  55  80 103 134 183 225 269 320
#     4  10  20  33  52  77 104 140 181 220 265 326
#     4  10  20  36  52  74 108 140 176 228 266 314
#     4   9  19  33  53  81 104 138 181 222 269 327
#
# _framework density 20.187730999999999
#
# number of rings (size 3 to 8) (size 9 to 14) (size 15 to 20)
#    0.000    2.545    0.000    2.727    0.000    4.364 
#    1.636    0.000    0.000    0.000    0.000    0.000 
#    0.000    0.000    0.000    0.000    0.000    0.000 
#
# Total GULP energy -122519.699201 kJ/mol
# GULP energy per Si atom -5569.077236 kJ/mol
# Density = 2.014178 g / cm^3
# Si number density = 20.187731 Si / 1000 Ang^3
#
#
#
# Elastic Constant Matrix: (Units=GPa)
#
#
# Indices 1 2 3 4 5 6 
#
# 1 30.8486 -3.0503 -6.7677 0.0000 2.2820 0.0000
# 2 -3.0503 76.8457 18.1440 0.0000 1.6955 0.0000
# 3 -6.7677 18.1440 48.6813 0.0000 -4.0547 0.0000
# 4 0.0000 0.0000 0.0000 17.5974 0.0000 3.0720
# 5 2.2820 1.6955 -4.0547 0.0000 27.1203 0.0000
# 6 0.0000 0.0000 0.0000 3.0720 0.0000 21.7725
#
#
#
# Elastic Compliance Matrix: (Units=1/GPa)
#
#
# Indices 1 2 3 4 5 6 
#
# 1 0.033569 0.000353 0.004352 0.000000 -0.002196 0.000000
# 2 0.000353 0.014351 -0.005445 0.000000 -0.001741 0.000000
# 3 0.004352 -0.005445 0.023466 0.000000 0.003483 0.000000
# 4 0.000000 0.000000 0.000000 0.058262 0.000000 -0.008220
# 5 -0.002196 -0.001741 0.003483 0.000000 0.037687 0.000000
# 6 0.000000 0.000000 0.000000 -0.008220 0.000000 0.047089
#
#
# Mechanical properties :
#
#
# Convention : Reuss Voigt Hill
#
# Bulk Modulus (GPa) = 14.30462 19.22526 16.76494
# Shear Modulus (GPa) = 20.90259 23.16801 22.03530
#
# Velocity S-wave (km/s) = 3.22127 3.39134 3.30740
# Velocity P-wave (km/s) = 4.57566 4.98787 4.78620
#
# Compressibility (1/GPa) = 0.06990748
#
# Stress axis : x y z
#
# Youngs Moduli (GPa) = 29.78977 69.68124 42.61457
#
# Poissons Ratio (x) = -0.02462 -0.18546
# Poissons Ratio (y) = -0.01053 0.23202
# Poissons Ratio (z) = -0.12965 0.37939
#
# Static dielectric constant tensor:
#      x y z
#    x 1.742510 0.000000 -0.014020 
#    y 0.000000 1.768730 0.000000 
#    z -0.014020 0.000000 1.712280 
# 
# From -- ./inp_files/184809.got.cif
#   From: 2010.05.17/outbox.cif.g08.bks.cpg/sg15_93_cif.got.tgz:184809.got - 2010.06.03 18:47:42.
