data_PCOD9258896
_publ_section_title
;
Structure prediction by ZEFSAII (Michael W. Deem and Ramdas Pophale) SiO2 
 PCOD9258896
Probable space group: C 2/C
;
_chemical_formula_sum "Si O2"
_cell_formula_units_Z 52
_cell_length_a 11.031631
_cell_length_b 28.481432
_cell_length_c 17.580882
_cell_angle_alpha 90.000000
_cell_angle_beta 28.010301
_cell_angle_gamma 90.000000
_cell_volume 2594.169288
_symmetry_space_group_name_H-M "C 2/C"
_symmetry_group_IT_number 15
_symmetry_cell_setting 'monoclinic'
loop_
_space_group_symop_operation_xyz
x,y,z
-x,y,1/2-z
-x,-y,-z
x,-y,1/2+z
1/2+x,1/2+y,z
1/2-x,1/2+y,1/2-z
1/2-x,1/2-y,-z
1/2+x,1/2-y,1/2+z
loop_
_atom_site_type_symbol
_atom_site_label
_atom_site_fract_x
_atom_site_fract_y
_atom_site_fract_z
Si Si1 0.000000 0.593189 0.250000
Si Si2 0.062578 0.123053 0.900152
Si Si3 0.645074 0.041448 0.324044
Si Si4 0.034108 0.185506 0.145733
Si Si5 0.407002 0.786645 0.214239
Si Si6 0.638970 0.592556 0.020576
Si Si7 0.419962 0.068173 0.607749
O O1 0.049412 0.560974 0.296473
O O2 0.741596 0.621683 0.414636
O O3 0.184400 0.175110 0.827565
O O4 0.153206 0.094467 0.775290
O O5 0.187385 0.094718 0.903685
O O6 0.518706 0.068363 0.466153
O O7 0.951112 0.051295 0.151011
O O8 0.596637 0.986520 0.361089
O O9 0.990888 0.141911 0.115409
O O10 0.000000 0.168954 0.250000
O O11 0.861958 0.231444 0.224498
O O12 0.334069 0.200463 0.974460
O O13 0.500000 0.789581 0.250000
O O14 0.876054 0.591802 0.947172
#
# Coordination Sequence:
#
# PCOD9258896 Si02
#       7
#     4   8   8   8   8   8   8
#     4  10  26  42  58  80 120 170 208 242 286 362
#     4  11  22  39  61  84 123 164 198 248 294 364
#     4  10  25  39  58  88 121 159 204 249 297 359
#     4  10  19  30  57  92 124 145 185 250 312 358
#     4  10  18  34  56  92 119 151 190 243 316 356
#     4  11  21  38  60  92 125 153 199 253 305 358
#     4  11  22  38  63  88 117 158 200 259 305 349
#
# _framework density 20.044953
#
# number of rings (size 3 to 8) (size 9 to 14) (size 15 to 20)
#    0.000    1.538    3.077    1.846    4.308    1.846 
#    0.000    0.000    0.000    3.692    0.000    0.000 
#    0.000    0.000    0.000    0.000    0.000    0.000 
#
# Total GULP energy -145043.167503 kJ/mol
# GULP energy per Si atom -5578.583366 kJ/mol
# Density = 1.999933 g / cm^3
# Si number density = 20.044953 Si / 1000 Ang^3
#
#
#
# Elastic Constant Matrix: (Units=GPa)
#
#
# Indices 1 2 3 4 5 6 
#
# 1 42.6372 7.9004 37.7120 0.0014 6.7331 -0.0017
# 2 7.9004 83.5189 30.1166 -0.0002 -3.5031 0.0006
# 3 37.7120 30.1166 117.1414 -0.0015 11.0677 0.0046
# 4 0.0014 -0.0002 -0.0015 33.0459 0.0024 2.1450
# 5 6.7331 -3.5031 11.0677 0.0024 35.9238 -0.0040
# 6 -0.0017 0.0006 0.0046 2.1450 -0.0040 8.9235
#
#
#
# Elastic Compliance Matrix: (Units=1/GPa)
#
#
# Indices 1 2 3 4 5 6 
#
# 1 0.033125 0.000541 -0.010528 -0.000002 -0.002912 0.000011
# 2 0.000541 0.013410 -0.003848 0.000000 0.002392 0.000002
# 3 -0.010528 -0.003848 0.013147 0.000002 -0.002452 -0.000010
# 4 -0.000002 0.000000 0.000002 0.030741 -0.000003 -0.007389
# 5 -0.002912 0.002392 -0.002452 -0.000003 0.029371 0.000015
# 6 0.000011 0.000002 -0.000010 -0.007389 0.000015 0.113839
#
#
# Mechanical properties :
#
#
# Convention : Reuss Voigt Hill
#
# Bulk Modulus (GPa) = 31.23802 43.86171 37.54987
# Shear Modulus (GPa) = 18.38407 26.74988 22.56698
#
# Velocity S-wave (km/s) = 3.03172 3.65704 3.35896
# Velocity P-wave (km/s) = 5.27948 6.30564 5.81524
#
# Compressibility (1/GPa) = 0.03201227
#
# Stress axis : x y z
#
# Youngs Moduli (GPa) = 30.18830 74.57131 76.06288
#
# Poissons Ratio (x) = -0.04033 0.80080
# Poissons Ratio (y) = -0.01633 0.29267
# Poissons Ratio (z) = 0.31783 0.28693
#
# Static dielectric constant tensor:
#      x y z
#    x 1.725320 0.000000 0.043590 
#    y 0.000000 1.726920 0.000000 
#    z 0.043590 0.000000 1.887720 
# 
# From -- ./inp_files/34078.got.cif
#   From: 2010.05.17/outbox.cif.g08.bks.cpg/sg15_18_cif.got.tgz:34078.got - 2010.06.03 18:47:42.
