data_PCOD9258958
_publ_section_title
;
Structure prediction by ZEFSAII (Michael W. Deem and Ramdas Pophale) SiO2 
 PCOD9258958
Probable space group: C 2/C
;
_chemical_formula_sum "Si O2"
_cell_formula_units_Z 60
_cell_length_a 22.393959
_cell_length_b 8.220142
_cell_length_c 14.044482
_cell_angle_alpha 90.000000
_cell_angle_beta 76.444058
_cell_angle_gamma 90.000000
_cell_volume 2513.306300
_symmetry_space_group_name_H-M "C 2/C"
_symmetry_group_IT_number 15
_symmetry_cell_setting 'monoclinic'
loop_
_space_group_symop_operation_xyz
x,y,z
-x,y,1/2-z
-x,-y,-z
x,-y,1/2+z
1/2+x,1/2+y,z
1/2-x,1/2+y,1/2-z
1/2-x,1/2-y,-z
1/2+x,1/2-y,1/2+z
loop_
_atom_site_type_symbol
_atom_site_label
_atom_site_fract_x
_atom_site_fract_y
_atom_site_fract_z
Si Si1 0.500000 0.968775 0.250000
Si Si2 0.404641 0.903536 0.018629
Si Si3 0.200174 0.200449 0.383845
Si Si4 0.973289 0.700608 0.082345
Si Si5 0.634130 0.320473 0.282426
Si Si6 0.258628 0.258874 0.834227
Si Si7 0.303482 0.443156 0.416403
Si Si8 0.131284 0.484522 0.172779
O O1 0.566812 0.887036 0.213580
O O2 0.495567 0.088187 0.161703
O O3 0.461905 0.777558 0.994285
O O4 0.371889 0.932137 0.929872
O O5 0.354226 0.831303 0.107303
O O6 0.431347 0.078662 0.036653
O O7 0.218911 0.149274 0.271174
O O8 0.259364 0.297173 0.399322
O O9 0.180737 0.085465 0.479159
O O10 0.929984 0.843156 0.137472
O O11 0.692156 0.312167 0.332293
O O12 0.643086 0.429211 0.183864
O O13 0.630307 0.135231 0.245201
O O14 0.265086 0.392642 0.913874
O O15 0.307930 0.119853 0.838312
#
# Coordination Sequence:
#
# PCOD9258958 Si02
#       8
#     4   8   8   8   8   8   8   8
#     4   8  16  32  56  82 110 150 192 242 296 336
#     4  10  18  34  57  92 112 151 199 249 303 343
#     4  10  20  38  60  76 121 157 194 235 298 358
#     4   9  18  30  57  89 114 141 197 260 284 339
#     4  10  18  37  57  83 115 155 199 242 296 352
#     4  11  22  36  59  88 121 158 193 244 304 356
#     4  10  21  37  57  82 115 158 194 234 297 363
#     4  10  19  34  59  86 118 150 200 249 290 351
#
# _framework density 23.872934000000001
#
# number of rings (size 3 to 8) (size 9 to 14) (size 15 to 20)
#    0.000    2.133    1.333    4.000    0.000    0.000 
#    2.400    1.333    2.933    0.800    0.000    0.000 
#    0.000    0.000    0.000    0.000    0.000    0.000 
#
# Total GULP energy -167517.291789 kJ/mol
# GULP energy per Si atom -5583.909726 kJ/mol
# Density = 2.381860 g / cm^3
# Si number density = 23.872934 Si / 1000 Ang^3
#
#
#
# Elastic Constant Matrix: (Units=GPa)
#
#
# Indices 1 2 3 4 5 6 
#
# 1 103.2948 -0.8919 27.7771 0.0000 -1.3027 0.0000
# 2 -0.8919 35.2866 17.1277 0.0000 16.1565 0.0000
# 3 27.7771 17.1277 52.3339 0.0000 -7.5814 0.0000
# 4 0.0000 0.0000 0.0000 20.1510 0.0000 -2.3287
# 5 -1.3027 16.1565 -7.5814 0.0000 40.9994 0.0000
# 6 0.0000 0.0000 0.0000 -2.3287 0.0000 12.7685
#
#
#
# Elastic Compliance Matrix: (Units=1/GPa)
#
#
# Indices 1 2 3 4 5 6 
#
# 1 0.012147 0.006517 -0.009141 0.000000 -0.003872 0.000000
# 2 0.006517 0.051171 -0.023733 0.000000 -0.024346 0.000000
# 3 -0.009141 -0.023733 0.033949 0.000000 0.015340 0.000000
# 4 0.000000 0.000000 0.000000 0.050694 0.000000 0.009245
# 5 -0.003872 -0.024346 0.015340 0.000000 0.036698 0.000000
# 6 0.000000 0.000000 0.000000 0.009245 0.000000 0.080004
#
#
# Mechanical properties :
#
#
# Convention : Reuss Voigt Hill
#
# Bulk Modulus (GPa) = 22.44520 30.99345 26.71933
# Shear Modulus (GPa) = 15.04990 24.57727 19.81359
#
# Velocity S-wave (km/s) = 2.51353 3.21207 2.88403
# Velocity P-wave (km/s) = 4.22447 5.17372 4.72300
#
# Compressibility (1/GPa) = 0.04455296
#
# Stress axis : x y z
#
# Youngs Moduli (GPa) = 82.32810 19.54220 29.45573
#
# Poissons Ratio (x) = -0.12735 0.26925
# Poissons Ratio (y) = -0.53652 0.69908
# Poissons Ratio (z) = 0.75254 0.46380
#
# Static dielectric constant tensor:
#      x y z
#    x 1.985280 0.000000 -0.031070 
#    y 0.000000 1.929580 0.000000 
#    z -0.031070 0.000000 2.058820 
# 
# From -- ./inp_files/171859.got.cif
#   From: 2010.05.17/outbox.cif.g08.bks.cpg/sg15_86_cif.got.tgz:171859.got - 2010.06.03 18:47:42.
