data_PCOD9258870
_publ_section_title
;
Structure prediction by ZEFSAII (Michael W. Deem and Ramdas Pophale) SiO2 
 PCOD9258870
Probable space group: C 2/C
;
_chemical_formula_sum "Si O2"
_cell_formula_units_Z 48
_cell_length_a 7.592969
_cell_length_b 18.249515
_cell_length_c 14.090003
_cell_angle_alpha 90.000000
_cell_angle_beta 74.557331
_cell_angle_gamma 90.000000
_cell_volume 1881.935940
_symmetry_space_group_name_H-M "C 2/C"
_symmetry_group_IT_number 15
_symmetry_cell_setting 'monoclinic'
loop_
_space_group_symop_operation_xyz
x,y,z
-x,y,1/2-z
-x,-y,-z
x,-y,1/2+z
1/2+x,1/2+y,z
1/2-x,1/2+y,1/2-z
1/2-x,1/2-y,-z
1/2+x,1/2-y,1/2+z
loop_
_atom_site_type_symbol
_atom_site_label
_atom_site_fract_x
_atom_site_fract_y
_atom_site_fract_z
Si Si1 0.217751 0.031033 0.610666
Si Si2 0.207817 0.861924 0.960086
Si Si3 0.683070 0.606486 0.802158
Si Si4 0.890364 0.880470 0.855871
Si Si5 0.205590 0.771082 0.147312
Si Si6 0.358929 0.776799 0.393838
O O1 0.289873 0.069969 0.505341
O O2 0.281339 0.060576 0.704401
O O3 0.998960 0.059414 0.644461
O O4 0.248084 0.944881 0.601416
O O5 0.332716 0.813668 0.871194
O O6 0.031639 0.880111 0.923018
O O7 0.146431 0.811443 0.058660
O O8 0.656860 0.684484 0.748892
O O9 0.796780 0.642495 0.870631
O O10 0.831590 0.798237 0.836281
O O11 0.000000 0.909778 0.750000
O O12 0.426261 0.778271 0.116961
O O13 0.250000 0.750000 0.500000
#
# Coordination Sequence:
#
# PCOD9258870 Si02
#       6
#     8   8   8   8   8   8
#     4  10  20  35  59  90 113 151 195 249 308 353
#     4   9  18  32  55  81 119 145 191 244 295 353
#     4  10  18  34  56  85 116 153 195 251 290 358
#     4  11  20  36  57  90 116 148 199 251 301 355
#     4   9  18  33  53  83 112 153 193 241 295 347
#     4  11  22  35  57  86 121 159 206 245 294 357
#
# _framework density 25.505651
#
# number of rings (size 3 to 8) (size 9 to 14) (size 15 to 20)
#    0.000    2.000    1.667    5.000    0.000    1.333 
#    0.000    0.000    0.000   11.000   17.333    0.000 
#    0.000    0.000    0.000    0.000    0.000    0.000 
#
# Total GULP energy -133649.191488 kJ/mol
# GULP energy per Si atom -5568.716312 kJ/mol
# Density = 2.544760 g / cm^3
# Si number density = 25.505651 Si / 1000 Ang^3
#
#
#
# Elastic Constant Matrix: (Units=GPa)
#
#
# Indices 1 2 3 4 5 6 
#
# 1 64.3641 14.7709 13.7898 0.0000 2.6833 0.0000
# 2 14.7709 112.4114 10.9690 0.0000 17.0633 0.0000
# 3 13.7898 10.9690 68.9909 0.0000 11.9592 0.0000
# 4 0.0000 0.0000 0.0000 5.8756 0.0000 -1.1165
# 5 2.6833 17.0633 11.9592 0.0000 25.1887 0.0000
# 6 0.0000 0.0000 0.0000 -1.1165 0.0000 24.7575
#
#
#
# Elastic Compliance Matrix: (Units=1/GPa)
#
#
# Indices 1 2 3 4 5 6 
#
# 1 0.016644 -0.002047 -0.003198 0.000000 0.001132 0.000000
# 2 -0.002047 0.010180 -0.000056 0.000000 -0.006651 0.000000
# 3 -0.003198 -0.000056 0.016429 0.000000 -0.007421 0.000000
# 4 0.000000 0.000000 0.000000 0.171666 0.000000 0.007742
# 5 0.001132 -0.006651 -0.007421 0.000000 0.047609 0.000000
# 6 0.000000 0.000000 0.000000 0.007742 0.000000 0.040741
#
#
# Mechanical properties :
#
#
# Convention : Reuss Voigt Hill
#
# Bulk Modulus (GPa) = 30.62622 36.09177 33.35899
# Shear Modulus (GPa) = 15.39621 24.91349 20.15485
#
# Velocity S-wave (km/s) = 2.45957 3.12874 2.81412
# Velocity P-wave (km/s) = 4.48327 5.21855 4.86482
#
# Compressibility (1/GPa) = 0.03265176
#
# Stress axis : x y z
#
# Youngs Moduli (GPa) = 60.08088 98.23206 60.86710
#
# Poissons Ratio (x) = 0.20106 0.19463
# Poissons Ratio (y) = 0.12297 0.00344
# Poissons Ratio (z) = 0.19211 0.00555
#
# Static dielectric constant tensor:
#      x y z
#    x 2.031300 0.000000 0.133370 
#    y 0.000000 2.157670 0.000000 
#    z 0.133370 0.000000 1.972820 
# 
# From -- ./inp_files/135479.got.cif
#   From: 2010.05.17/outbox.cif.g08.bks.cpg/sg15_68_cif.got.tgz:135479.got - 2010.06.03 18:47:42.
