data_PCOD9258679
_publ_section_title
;
Structure prediction by ZEFSAII (Michael W. Deem and Ramdas Pophale) SiO2 
 PCOD9258679
Probable space group: C 2/C
;
_chemical_formula_sum "Si O2"
_cell_formula_units_Z 52
_cell_length_a 13.638912
_cell_length_b 15.124589
_cell_length_c 19.007456
_cell_angle_alpha 90.000000
_cell_angle_beta 33.265751
_cell_angle_gamma 90.000000
_cell_volume 2150.711871
_symmetry_space_group_name_H-M "C 2/C"
_symmetry_group_IT_number 15
_symmetry_cell_setting 'monoclinic'
loop_
_space_group_symop_operation_xyz
x,y,z
-x,y,1/2-z
-x,-y,-z
x,-y,1/2+z
1/2+x,1/2+y,z
1/2-x,1/2+y,1/2-z
1/2-x,1/2-y,-z
1/2+x,1/2-y,1/2+z
loop_
_atom_site_type_symbol
_atom_site_label
_atom_site_fract_x
_atom_site_fract_y
_atom_site_fract_z
Si Si1 0.621450 0.679730 0.288018
Si Si2 0.094084 0.614386 0.782040
Si Si3 0.045126 0.889649 0.361935
Si Si4 0.077863 0.408115 0.980996
Si Si5 0.370532 0.545052 0.514285
Si Si6 0.849742 0.765581 0.580033
Si Si7 0.000000 0.781304 0.250000
O O1 0.588457 0.778467 0.277969
O O2 0.453520 0.627610 0.422066
O O3 0.721865 0.697807 0.302316
O O4 0.733317 0.619553 0.167458
O O5 0.253661 0.582554 0.740168
O O6 0.179227 0.571046 0.660929
O O7 0.924381 0.590836 0.932290
O O8 0.045908 0.839472 0.288990
O O9 0.998344 0.825782 0.455026
O O10 0.892857 0.963386 0.448693
O O11 0.948459 0.326868 0.034555
O O12 0.000000 0.500000 0.000000
O O13 0.500000 0.500000 0.500000
O O14 0.682623 0.769982 0.628003
#
# Coordination Sequence:
#
# PCOD9258679 Si02
#       7
#     8   8   8   8   8   8   4
#     4  11  18  32  53  78 109 138 176 227 272 319
#     4  10  18  34  50  78 106 137 174 226 274 318
#     4  11  20  35  52  73 106 154 186 214 261 331
#     4  11  20  29  50  79 105 135 179 230 269 304
#     4  10  19  32  55  74 105 144 183 224 276 318
#     4  11  21  36  52  75 116 153 180 215 269 333
#     4  12  22  34  52  78 114 152 192 208 258 338
#
# _framework density 24.178042000000001
#
# number of rings (size 3 to 8) (size 9 to 14) (size 15 to 20)
#    0.000    1.231    7.692    3.231    0.000    0.000 
#    0.000    0.000    0.000    0.000    0.000    1.077 
#    0.000    0.000    0.000    0.154    0.000    0.000 
#
# Total GULP energy -144960.295098 kJ/mol
# GULP energy per Si atom -5575.395965 kJ/mol
# Density = 2.412301 g / cm^3
# Si number density = 24.178042 Si / 1000 Ang^3
#
#
#
# Elastic Constant Matrix: (Units=GPa)
#
#
# Indices 1 2 3 4 5 6 
#
# 1 34.9107 -12.7734 20.8492 -0.0002 -4.3548 0.0002
# 2 -12.7734 116.9281 43.0217 -0.0009 6.5005 0.0012
# 3 20.8492 43.0217 179.2891 -0.0031 12.4375 0.0021
# 4 -0.0002 -0.0009 -0.0031 50.5715 0.0010 5.6741
# 5 -4.3548 6.5005 12.4375 0.0010 34.3597 -0.0010
# 6 0.0002 0.0012 0.0021 5.6741 -0.0010 3.5573
#
#
#
# Elastic Compliance Matrix: (Units=1/GPa)
#
#
# Indices 1 2 3 4 5 6 
#
# 1 0.034834 0.005629 -0.005779 0.000000 0.005442 0.000002
# 2 0.005629 0.010323 -0.003124 0.000000 -0.000109 -0.000002
# 3 -0.005779 -0.003124 0.007190 0.000001 -0.002744 -0.000005
# 4 0.000000 0.000000 0.000001 0.024084 -0.000002 -0.038415
# 5 0.005442 -0.000109 -0.002744 -0.000002 0.030807 0.000014
# 6 0.000002 -0.000002 -0.000005 -0.038415 0.000014 0.342386
#
#
# Mechanical properties :
#
#
# Convention : Reuss Voigt Hill
#
# Bulk Modulus (GPa) = 21.83476 48.14700 34.99088
# Shear Modulus (GPa) = 10.60585 36.36640 23.48612
#
# Velocity S-wave (km/s) = 2.09668 3.88249 3.12008
# Velocity P-wave (km/s) = 3.86159 6.32891 5.24247
#
# Compressibility (1/GPa) = 0.04579854
#
# Stress axis : x y z
#
# Youngs Moduli (GPa) = 28.70735 96.87401 139.08955
#
# Poissons Ratio (x) = -0.54532 0.80381
# Poissons Ratio (y) = -0.16160 0.43453
# Poissons Ratio (z) = 0.16590 0.30264
#
# Static dielectric constant tensor:
#      x y z
#    x 2.080100 0.000000 -0.026990 
#    y 0.000000 2.028240 0.000000 
#    z -0.026990 0.000000 1.999300 
# 
# From -- ./inp_files/104876.got.cif
#   From: 2010.05.17/outbox.cif.g08.bks.cpg/sg15_53_cif.got.tgz:104876.got - 2010.06.03 18:47:42.
