data_PCOD9258945
_publ_section_title
;
Structure prediction by ZEFSAII (Michael W. Deem and Ramdas Pophale) SiO2 
 PCOD9258945
Probable space group: C 2/C
;
_chemical_formula_sum "Si O2"
_cell_formula_units_Z 40
_cell_length_a 9.543234
_cell_length_b 16.056595
_cell_length_c 11.122301
_cell_angle_alpha 90.000000
_cell_angle_beta 86.388195
_cell_angle_gamma 90.000000
_cell_volume 1700.905571
_symmetry_space_group_name_H-M "C 2/C"
_symmetry_group_IT_number 15
_symmetry_cell_setting 'monoclinic'
loop_
_space_group_symop_operation_xyz
x,y,z
-x,y,1/2-z
-x,-y,-z
x,-y,1/2+z
1/2+x,1/2+y,z
1/2-x,1/2+y,1/2-z
1/2-x,1/2-y,-z
1/2+x,1/2-y,1/2+z
loop_
_atom_site_type_symbol
_atom_site_label
_atom_site_fract_x
_atom_site_fract_y
_atom_site_fract_z
Si Si1 0.185798 0.552277 0.068961
Si Si2 0.194420 0.281910 0.689635
Si Si3 0.957434 0.121156 0.119500
Si Si4 0.020465 0.383945 0.111205
Si Si5 0.569328 0.268199 0.440340
O O1 0.144484 0.621734 0.172608
O O2 0.353392 0.555886 0.063646
O O3 0.119947 0.464427 0.100831
O O4 0.123274 0.586891 0.947492
O O5 0.356396 0.296283 0.646388
O O6 0.170321 0.244907 0.821870
O O7 0.089087 0.231722 0.608913
O O8 0.000000 0.093987 0.250000
O O9 0.078419 0.151516 0.024580
O O10 0.000000 0.360498 0.250000
O O11 0.081232 0.311619 0.024713
#
# Coordination Sequence:
#
# PCOD9258945 Si02
#       5
#     8   8   8   8   8
#     4   8  20  32  51  82 118 150 184 244 297 343
#     4   8  19  33  53  81 120 148 187 244 304 332
#     4  10  20  35  56  81 122 159 191 231 307 359
#     4  10  19  31  58  85 109 144 204 248 283 332
#     4  10  18  34  57  88 110 154 197 252 283 345
#
# _framework density 23.516886
#
# number of rings (size 3 to 8) (size 9 to 14) (size 15 to 20)
#    1.200    1.600    0.000    1.200    8.400    0.800 
#    0.000    0.000    0.000    4.800    0.000    0.000 
#    0.000    0.000    0.000    1.400    0.000    0.000 
#
# Total GULP energy -111643.342821 kJ/mol
# GULP energy per Si atom -5582.167141 kJ/mol
# Density = 2.346336 g / cm^3
# Si number density = 23.516886 Si / 1000 Ang^3
#
#
#
# Elastic Constant Matrix: (Units=GPa)
#
#
# Indices 1 2 3 4 5 6 
#
# 1 84.6255 13.7308 33.1311 0.0000 15.4977 0.0000
# 2 13.7308 57.8637 36.3219 0.0000 12.4346 0.0000
# 3 33.1311 36.3219 167.1672 0.0000 6.2929 0.0000
# 4 0.0000 0.0000 0.0000 15.2382 0.0000 9.1225
# 5 15.4977 12.4346 6.2929 0.0000 28.2909 0.0000
# 6 0.0000 0.0000 0.0000 9.1225 0.0000 25.7110
#
#
#
# Elastic Compliance Matrix: (Units=1/GPa)
#
#
# Indices 1 2 3 4 5 6 
#
# 1 0.014124 -0.000282 -0.002472 0.000000 -0.007063 0.000000
# 2 -0.000282 0.021933 -0.004389 0.000000 -0.008509 0.000000
# 3 -0.002472 -0.004389 0.007364 0.000000 0.001645 0.000000
# 4 0.000000 0.000000 0.000000 0.083324 0.000000 -0.029564
# 5 -0.007063 -0.008509 0.001645 0.000000 0.042590 0.000000
# 6 0.000000 0.000000 0.000000 -0.029564 0.000000 0.049383
#
#
# Mechanical properties :
#
#
# Convention : Reuss Voigt Hill
#
# Bulk Modulus (GPa) = 34.32453 52.89155 43.60804
# Shear Modulus (GPa) = 20.60025 28.94618 24.77322
#
# Velocity S-wave (km/s) = 2.96290 3.51218 3.24917
# Velocity P-wave (km/s) = 5.13151 6.24395 5.71486
#
# Compressibility (1/GPa) = 0.02913368
#
# Stress axis : x y z
#
# Youngs Moduli (GPa) = 70.80230 45.59394 135.80047
#
# Poissons Ratio (x) = 0.01285 0.33571
# Poissons Ratio (y) = 0.01996 0.59607
# Poissons Ratio (z) = 0.17503 0.20013
#
# Static dielectric constant tensor:
#      x y z
#    x 1.985220 0.000000 -0.001040 
#    y 0.000000 1.856750 0.000000 
#    z -0.001040 0.000000 1.858390 
# 
# From -- ./inp_files/85519.got.cif
#   From: 2010.05.17/outbox.cif.g08.bks.cpg/sg15_43_cif.got.tgz:85519.got - 2010.06.03 18:47:42.
