data_PCOD9258166
_publ_section_title
;
Structure prediction by ZEFSAII (Michael W. Deem and Ramdas Pophale) SiO2 
 PCOD9258166
Probable space group: C 2/C
;
_chemical_formula_sum "Si O2"
_cell_formula_units_Z 64
_cell_length_a 14.178697
_cell_length_b 14.840692
_cell_length_c 13.858404
_cell_angle_alpha 90.000000
_cell_angle_beta 103.991621
_cell_angle_gamma 90.000000
_cell_volume 2829.590835
_symmetry_space_group_name_H-M "C 2/C"
_symmetry_group_IT_number 15
_symmetry_cell_setting 'monoclinic'
loop_
_space_group_symop_operation_xyz
x,y,z
-x,y,1/2-z
-x,-y,-z
x,-y,1/2+z
1/2+x,1/2+y,z
1/2-x,1/2+y,1/2-z
1/2-x,1/2-y,-z
1/2+x,1/2-y,1/2+z
loop_
_atom_site_type_symbol
_atom_site_label
_atom_site_fract_x
_atom_site_fract_y
_atom_site_fract_z
Si Si1 0.725478 0.029401 0.054192
Si Si2 0.239953 0.786140 0.651869
Si Si3 0.843741 0.393285 0.304875
Si Si4 0.912682 0.231041 0.561369
Si Si5 0.537841 0.148399 0.953409
Si Si6 0.049372 0.924533 0.079540
Si Si7 0.264828 0.514551 0.347371
Si Si8 0.657339 0.691861 0.446361
O O1 0.761661 0.985647 0.962853
O O2 0.623063 0.081060 0.008041
O O3 0.802250 0.107238 0.102844
O O4 0.712664 0.950274 0.126884
O O5 0.201831 0.706461 0.710502
O O6 0.158608 0.789604 0.546842
O O7 0.342999 0.763197 0.629198
O O8 0.248462 0.885725 0.694937
O O9 0.820986 0.447938 0.203847
O O10 0.953618 0.393890 0.368070
O O11 0.984981 0.307146 0.534901
O O12 0.969680 0.140798 0.605470
O O13 0.580058 0.231977 0.900363
O O14 0.109773 0.856255 0.026921
O O15 0.131982 0.974200 0.161009
O O16 0.000000 0.000000 0.000000
O O17 0.750000 0.750000 0.500000
#
# Coordination Sequence:
#
# PCOD9258166 Si02
#       8
#     8   8   8   8   8   8   8   8
#     4  10  20  39  66  90 126 167 208 256 318 374
#     4  10  20  38  59  89 123 161 204 262 319 368
#     4  11  24  39  63  92 126 165 215 260 314 386
#     4   9  17  34  66  92 118 158 209 253 315 378
#     4   9  18  36  61  94 122 165 210 249 305 384
#     4  10  18  32  63  90 118 159 207 254 311 370
#     4  11  23  41  62  91 127 165 207 269 318 371
#     4   8  17  33  57  90 119 158 199 245 307 367
#
# _framework density 22.618110999999999
#
# number of rings (size 3 to 8) (size 9 to 14) (size 15 to 20)
#    0.000    2.250    1.250    2.625    1.750    0.500 
#   13.500    0.625    0.000    0.000    0.000    0.000 
#    0.000    0.000    0.000    0.000    0.000    0.000 
#
# Total GULP energy -178720.836717 kJ/mol
# GULP energy per Si atom -5585.026147 kJ/mol
# Density = 2.256663 g / cm^3
# Si number density = 22.618111 Si / 1000 Ang^3
#
#
#
# Elastic Constant Matrix: (Units=GPa)
#
#
# Indices 1 2 3 4 5 6 
#
# 1 90.6032 35.1962 9.8715 0.0000 11.5823 0.0000
# 2 35.1962 132.8567 9.8171 0.0000 9.7536 0.0000
# 3 9.8715 9.8171 22.6216 0.0000 -5.5128 0.0000
# 4 0.0000 0.0000 0.0000 15.1965 0.0000 8.3701
# 5 11.5823 9.7536 -5.5128 0.0000 23.4471 0.0000
# 6 0.0000 0.0000 0.0000 8.3701 0.0000 42.6165
#
#
#
# Elastic Compliance Matrix: (Units=1/GPa)
#
#
# Indices 1 2 3 4 5 6 
#
# 1 0.013695 -0.002609 -0.006607 0.000000 -0.007233 0.000000
# 2 -0.002609 0.008699 -0.003399 0.000000 -0.003129 0.000000
# 3 -0.006607 -0.003399 0.052725 0.000000 0.017074 0.000000
# 4 0.000000 0.000000 0.000000 0.073787 0.000000 -0.014492
# 5 -0.007233 -0.003129 0.017074 0.000000 0.051538 0.000000
# 6 0.000000 0.000000 0.000000 -0.014492 0.000000 0.026311
#
#
# Mechanical properties :
#
#
# Convention : Reuss Voigt Hill
#
# Bulk Modulus (GPa) = 20.04447 39.53901 29.79174
# Shear Modulus (GPa) = 18.61402 28.99845 23.80624
#
# Velocity S-wave (km/s) = 2.87186 3.58451 3.24779
# Velocity P-wave (km/s) = 4.45849 5.88649 5.22153
#
# Compressibility (1/GPa) = 0.04988907
#
# Stress axis : x y z
#
# Youngs Moduli (GPa) = 73.01893 114.95652 18.96646
#
# Poissons Ratio (x) = 0.29991 0.12531
# Poissons Ratio (y) = 0.19050 0.06447
# Poissons Ratio (z) = 0.48242 0.39076
#
# Static dielectric constant tensor:
#      x y z
#    x 1.873030 0.000000 -0.015480 
#    y 0.000000 1.867640 0.000000 
#    z -0.015480 0.000000 1.823020 
# 
# From -- ./inp_files/205428.got.cif
#   From: 2010.05.17/outbox.cif.g08.bks.cpg/sg15_103_cif.got.tgz:205428.got - 2010.06.03 18:47:42.
