data_PCOD9258743
_publ_section_title
;
Structure prediction by ZEFSAII (Michael W. Deem and Ramdas Pophale) SiO2 
 PCOD9258743
Probable space group: C 2/C
;
_chemical_formula_sum "Si O2"
_cell_formula_units_Z 60
_cell_length_a 12.165770
_cell_length_b 8.718417
_cell_length_c 22.328361
_cell_angle_alpha 90.000000
_cell_angle_beta 110.831749
_cell_angle_gamma 90.000000
_cell_volume 2213.467882
_symmetry_space_group_name_H-M "C 2/C"
_symmetry_group_IT_number 15
_symmetry_cell_setting 'monoclinic'
loop_
_space_group_symop_operation_xyz
x,y,z
-x,y,1/2-z
-x,-y,-z
x,-y,1/2+z
1/2+x,1/2+y,z
1/2-x,1/2+y,1/2-z
1/2-x,1/2-y,-z
1/2+x,1/2-y,1/2+z
loop_
_atom_site_type_symbol
_atom_site_label
_atom_site_fract_x
_atom_site_fract_y
_atom_site_fract_z
Si Si1 0.216954 0.490693 0.149010
Si Si2 0.061333 0.157916 0.451941
Si Si3 0.000000 0.638822 0.250000
Si Si4 0.273344 0.081923 0.979779
Si Si5 0.574520 0.358720 0.084610
Si Si6 0.158838 0.106568 0.718175
Si Si7 0.964473 0.830840 0.682377
Si Si8 0.957180 0.601924 0.112450
O O1 0.230951 0.421807 0.218071
O O2 0.337329 0.588246 0.165610
O O3 0.092840 0.571482 0.124909
O O4 0.206772 0.391733 0.086961
O O5 0.077627 0.226450 0.521308
O O6 0.038711 0.243020 0.384451
O O7 0.176684 0.051414 0.466831
O O8 0.953949 0.035851 0.435650
O O9 0.903388 0.750255 0.261582
O O10 0.061605 0.567385 0.321157
O O11 0.376736 0.031707 0.045499
O O12 0.250000 0.250000 0.000000
O O13 0.681014 0.363279 0.152438
O O14 0.465324 0.287687 0.101646
O O15 0.064893 0.965646 0.700084
O O16 0.000000 0.742866 0.750000
#
# Coordination Sequence:
#
# PCOD9258743 Si02
#       8
#     8   8   4   8   8   8   8   8
#     4  10  19  32  51  80 109 141 174 226 278 320
#     4   9  17  31  53  78 102 139 179 224 270 309
#     4  10  18  34  54  78  98 140 184 226 260 316
#     4  11  20  34  54  77 109 143 182 220 268 325
#     4   9  18  32  52  80 108 132 181 232 261 315
#     4   9  15  31  56  73  97 136 182 225 264 307
#     4   8  14  28  53  72  95 133 178 218 264 311
#     4  11  22  33  52  83 114 137 180 226 276 328
#
# _framework density 27.106786
#
# number of rings (size 3 to 8) (size 9 to 14) (size 15 to 20)
#    0.000    2.400    3.333    1.200    0.000    1.067 
#    0.000    2.667    2.933    0.000    6.933    0.000 
#    0.000    0.000    0.000    0.000    0.000    0.000 
#
# Total GULP energy -167493.689817 kJ/mol
# GULP energy per Si atom -5583.122994 kJ/mol
# Density = 2.704509 g / cm^3
# Si number density = 27.106786 Si / 1000 Ang^3
#
#
#
# Elastic Constant Matrix: (Units=GPa)
#
#
# Indices 1 2 3 4 5 6 
#
# 1 36.2575 18.4044 66.6310 0.0000 -8.8107 0.0000
# 2 18.4044 45.6804 49.3864 0.0000 -4.2321 0.0000
# 3 66.6310 49.3864 365.0108 0.0000 -42.1186 0.0000
# 4 0.0000 0.0000 0.0000 44.1189 0.0000 -11.3930
# 5 -8.8107 -4.2321 -42.1186 0.0000 58.4312 0.0000
# 6 0.0000 0.0000 0.0000 -11.3930 0.0000 26.7910
#
#
#
# Elastic Compliance Matrix: (Units=1/GPa)
#
#
# Indices 1 2 3 4 5 6 
#
# 1 0.045886 -0.011095 -0.006729 0.000000 0.001265 0.000000
# 2 -0.011095 0.028351 -0.001927 0.000000 -0.001009 0.000000
# 3 -0.006729 -0.001927 0.004467 0.000000 0.002066 0.000000
# 4 0.000000 0.000000 0.000000 0.025462 0.000000 0.010828
# 5 0.001265 -0.001009 0.002066 0.000000 0.018721 0.000000
# 6 0.000000 0.000000 0.000000 0.010828 0.000000 0.041931
#
#
# Mechanical properties :
#
#
# Convention : Reuss Voigt Hill
#
# Bulk Modulus (GPa) = 25.50881 79.53247 52.52064
# Shear Modulus (GPa) = 23.00038 46.70333 34.85186
#
# Velocity S-wave (km/s) = 2.91608 4.15533 3.58959
# Velocity P-wave (km/s) = 4.55730 7.24062 6.04961
#
# Compressibility (1/GPa) = 0.03920215
#
# Stress axis : x y z
#
# Youngs Moduli (GPa) = 21.79313 35.27188 223.85822
#
# Poissons Ratio (x) = 0.39134 1.50638
# Poissons Ratio (y) = 0.24179 0.43138
# Poissons Ratio (z) = 0.14665 0.06797
#
# Static dielectric constant tensor:
#      x y z
#    x 2.128720 0.000000 -0.017490 
#    y 0.000000 2.356900 0.000000 
#    z -0.017490 0.000000 2.241220 
# 
# From -- ./inp_files/273874.got.cif
#   From: 2010.05.17/outbox.cif.g08.bks.cpg/sg15_137_cif.got.tgz:273874.got - 2010.06.03 18:47:42.
