data_PCOD9258071
_publ_section_title
;
Structure prediction by ZEFSAII (Michael W. Deem and Ramdas Pophale) SiO2 
 PCOD9258071
Probable space group: C 2/C
;
_chemical_formula_sum "Si O2"
_cell_formula_units_Z 52
_cell_length_a 30.389333
_cell_length_b 8.745784
_cell_length_c 15.541751
_cell_angle_alpha 90.000000
_cell_angle_beta 41.261327
_cell_angle_gamma 90.000000
_cell_volume 2724.149876
_symmetry_space_group_name_H-M "C 2/C"
_symmetry_group_IT_number 15
_symmetry_cell_setting 'monoclinic'
loop_
_space_group_symop_operation_xyz
x,y,z
-x,y,1/2-z
-x,-y,-z
x,-y,1/2+z
1/2+x,1/2+y,z
1/2-x,1/2+y,1/2-z
1/2-x,1/2-y,-z
1/2+x,1/2-y,1/2+z
loop_
_atom_site_type_symbol
_atom_site_label
_atom_site_fract_x
_atom_site_fract_y
_atom_site_fract_z
Si Si1 0.880957 0.913945 0.364207
Si Si2 0.500000 0.383531 0.750000
Si Si3 0.295733 0.432486 0.133931
Si Si4 0.839020 0.550181 0.233796
Si Si5 0.397927 0.164105 0.980162
Si Si6 0.711231 0.603516 0.660021
Si Si7 0.865834 0.436347 0.880662
O O1 0.836622 0.951792 0.513526
O O2 0.837312 0.954531 0.344025
O O3 0.895175 0.734076 0.338652
O O4 0.947105 0.012863 0.277208
O O5 0.458832 0.278816 0.876763
O O6 0.219208 0.441994 0.216859
O O7 0.300003 0.467344 0.229181
O O8 0.330866 0.268156 0.069390
O O9 0.804797 0.715378 0.305705
O O10 0.869074 0.496739 0.279757
O O11 0.891728 0.583691 0.081301
O O12 0.398947 0.042700 0.902499
O O13 0.787391 0.580333 0.520043
#
# Coordination Sequence:
#
# PCOD9258071 Si02
#       7
#     8   4   8   8   8   8   8
#     4  10  20  39  60  82 114 162 195 235 280 357
#     4  10  24  46  56  76 120 166 200 228 284 342
#     4  10  18  33  56  89 123 149 178 237 304 341
#     4  10  18  34  56  90 122 145 186 238 301 347
#     4  10  23  37  57  85 123 154 191 243 278 347
#     4  10  18  32  58  91 119 141 190 243 297 343
#     4  11  19  34  61  90 115 146 192 245 300 338
#
# _framework density 19.088522000000001
#
# number of rings (size 3 to 8) (size 9 to 14) (size 15 to 20)
#    0.000    1.846    4.615    0.923    0.000    1.231 
#    0.000   13.077    0.000    0.000    0.000    0.000 
#    0.000    0.000    0.000    0.000    0.000    0.000 
#
# Total GULP energy -145144.373882 kJ/mol
# GULP energy per Si atom -5582.475919 kJ/mol
# Density = 1.904508 g / cm^3
# Si number density = 19.088522 Si / 1000 Ang^3
#
#
#
# Elastic Constant Matrix: (Units=GPa)
#
#
# Indices 1 2 3 4 5 6 
#
# 1 85.3264 37.6980 59.6214 0.0000 29.6403 0.0000
# 2 37.6980 38.9591 36.3809 0.0001 4.6821 0.0000
# 3 59.6214 36.3809 96.4884 0.0000 20.4746 0.0000
# 4 0.0000 0.0001 0.0000 18.6719 0.0000 0.6109
# 5 29.6403 4.6821 20.4746 0.0000 35.8971 0.0000
# 6 0.0000 0.0000 0.0000 0.6109 0.0000 26.0719
#
#
#
# Elastic Compliance Matrix: (Units=1/GPa)
#
#
# Indices 1 2 3 4 5 6 
#
# 1 0.035773 -0.024165 -0.008412 0.000000 -0.021588 0.000000
# 2 -0.024165 0.056405 -0.010249 0.000000 0.018442 0.000000
# 3 -0.008412 -0.010249 0.020102 0.000000 -0.003182 0.000000
# 4 0.000000 0.000000 0.000000 0.053598 0.000000 -0.001256
# 5 -0.021588 0.018442 -0.003182 0.000000 0.045092 0.000000
# 6 0.000000 0.000000 0.000000 -0.001256 0.000000 0.038385
#
#
# Mechanical properties :
#
#
# Convention : Reuss Voigt Hill
#
# Bulk Modulus (GPa) = 37.55542 54.24161 45.89851
# Shear Modulus (GPa) = 14.53977 21.93307 18.23642
#
# Velocity S-wave (km/s) = 2.76289 3.39340 3.09424
# Velocity P-wave (km/s) = 5.46764 6.62050 6.07150
#
# Compressibility (1/GPa) = 0.02662732
#
# Stress axis : x y z
#
# Youngs Moduli (GPa) = 27.95370 17.72884 49.74690
#
# Poissons Ratio (x) = 0.42842 0.41849
# Poissons Ratio (y) = 0.67551 0.50985
# Poissons Ratio (z) = 0.23516 0.18170
#
# Static dielectric constant tensor:
#      x y z
#    x 1.655990 0.000000 0.012260 
#    y 0.000000 1.673460 0.000000 
#    z 0.012260 0.000000 1.672320 
# 
# From -- ./inp_files/166353.got.cif
#   From: 2010.05.17/outbox.cif.g08.bks.cpg/sg15_84_cif.got.tgz:166353.got - 2010.06.03 18:47:42.
