data_PCOD9258913
_publ_section_title
;
Structure prediction by ZEFSAII (Michael W. Deem and Ramdas Pophale) SiO2 
 PCOD9258913
Probable space group: C 2/C
;
_chemical_formula_sum "Si O2"
_cell_formula_units_Z 48
_cell_length_a 7.154355
_cell_length_b 16.964988
_cell_length_c 26.604509
_cell_angle_alpha 90.000000
_cell_angle_beta 45.335686
_cell_angle_gamma 90.000000
_cell_volume 2296.645155
_symmetry_space_group_name_H-M "C 2/C"
_symmetry_group_IT_number 15
_symmetry_cell_setting 'monoclinic'
loop_
_space_group_symop_operation_xyz
x,y,z
-x,y,1/2-z
-x,-y,-z
x,-y,1/2+z
1/2+x,1/2+y,z
1/2-x,1/2+y,1/2-z
1/2-x,1/2-y,-z
1/2+x,1/2-y,1/2+z
loop_
_atom_site_type_symbol
_atom_site_label
_atom_site_fract_x
_atom_site_fract_y
_atom_site_fract_z
Si Si1 0.823873 0.721586 0.589449
Si Si2 0.144175 0.307055 0.775637
Si Si3 0.522059 0.363062 0.484368
Si Si4 0.494131 0.948470 0.051580
Si Si5 0.936072 0.404699 0.612850
Si Si6 0.659347 0.748030 0.126609
O O1 0.534461 0.744421 0.661359
O O2 0.932346 0.781434 0.527853
O O3 0.842233 0.632075 0.570427
O O4 0.007280 0.740019 0.602854
O O5 0.130728 0.379587 0.817391
O O6 0.423821 0.268667 0.710183
O O7 0.000000 0.326699 0.750000
O O8 0.733074 0.414255 0.476206
O O9 0.659090 0.326841 0.408257
O O10 0.245405 0.408115 0.539527
O O11 0.346985 0.007011 0.117928
O O12 0.500000 0.000000 0.000000
O O13 0.818332 0.333896 0.601273
#
# Coordination Sequence:
#
# PCOD9258913 Si02
#       6
#     8   8   8   8   8   8
#     4   9  19  37  60  82 109 149 192 235 282 345
#     4   9  20  38  58  78 108 151 195 236 283 350
#     4  10  20  36  58  82 112 149 192 235 280 343
#     4  11  21  35  57  88 119 148 186 242 299 349
#     4  11  21  34  56  87 116 145 187 244 301 348
#     4  10  18  34  57  81 108 146 191 232 281 349
#
# _framework density 20.900048999999999
#
# number of rings (size 3 to 8) (size 9 to 14) (size 15 to 20)
#    0.000    2.000    0.000    5.500    0.000    1.333 
#    0.000    8.333    0.000   12.000    0.000    0.000 
#    0.000    0.000    0.000    0.000    0.000    0.000 
#
# Total GULP energy -133739.214535 kJ/mol
# GULP energy per Si atom -5572.467272 kJ/mol
# Density = 2.085248 g / cm^3
# Si number density = 20.900049 Si / 1000 Ang^3
#
#
#
# Elastic Constant Matrix: (Units=GPa)
#
#
# Indices 1 2 3 4 5 6 
#
# 1 58.3373 37.6283 37.6117 -0.0013 5.0176 0.0033
# 2 37.6283 156.4061 45.9558 -0.0011 13.8378 0.0019
# 3 37.6117 45.9558 118.6932 0.0004 -4.9599 0.0013
# 4 -0.0013 -0.0011 0.0004 20.9639 -0.0015 11.2098
# 5 5.0176 13.8378 -4.9599 -0.0015 45.1259 -0.0012
# 6 0.0033 0.0019 0.0013 11.2098 -0.0012 29.3295
#
#
#
# Elastic Compliance Matrix: (Units=1/GPa)
#
#
# Indices 1 2 3 4 5 6 
#
# 1 0.023688 -0.003694 -0.006167 0.000003 -0.002179 -0.000003
# 2 -0.003694 0.008090 -0.002058 0.000000 -0.002296 0.000000
# 3 -0.006167 -0.002058 0.011283 -0.000001 0.002557 0.000001
# 4 0.000003 0.000000 -0.000001 0.059954 0.000001 -0.022915
# 5 -0.002179 -0.002296 0.002557 0.000001 0.023388 0.000001
# 6 -0.000003 0.000000 0.000001 -0.022915 0.000001 0.042853
#
#
# Mechanical properties :
#
#
# Convention : Reuss Voigt Hill
#
# Bulk Modulus (GPa) = 52.02041 63.98092 58.00066
# Shear Modulus (GPa) = 25.06250 33.23323 29.14787
#
# Velocity S-wave (km/s) = 3.46665 3.99194 3.73853
# Velocity P-wave (km/s) = 6.40060 7.20602 6.81521
#
# Compressibility (1/GPa) = 0.01922322
#
# Stress axis : x y z
#
# Youngs Moduli (GPa) = 42.21568 123.60801 88.63000
#
# Poissons Ratio (x) = 0.45661 0.54659
# Poissons Ratio (y) = 0.15595 0.18238
# Poissons Ratio (z) = 0.26035 0.25435
#
# Static dielectric constant tensor:
#      x y z
#    x 1.888050 0.000000 -0.034710 
#    y 0.000000 1.742210 0.000000 
#    z -0.034710 0.000000 1.818840 
# 
# From -- ./inp_files/307925.got.cif
#   From: 2010.05.17/outbox.cif.g08.bks.cpg/sg15_154_cif.got.tgz:307925.got - 2010.06.03 18:47:42.
