data_PCOD9258653
_publ_section_title
;
Structure prediction by ZEFSAII (Michael W. Deem and Ramdas Pophale) SiO2 
 PCOD9258653
Probable space group: C 2/C
;
_chemical_formula_sum "Si O2"
_cell_formula_units_Z 52
_cell_length_a 17.802586
_cell_length_b 18.370457
_cell_length_c 9.266668
_cell_angle_alpha 90.000000
_cell_angle_beta 127.123795
_cell_angle_gamma 90.000000
_cell_volume 2416.387523
_symmetry_space_group_name_H-M "C 2/C"
_symmetry_group_IT_number 15
_symmetry_cell_setting 'monoclinic'
loop_
_space_group_symop_operation_xyz
x,y,z
-x,y,1/2-z
-x,-y,-z
x,-y,1/2+z
1/2+x,1/2+y,z
1/2-x,1/2+y,1/2-z
1/2-x,1/2-y,-z
1/2+x,1/2-y,1/2+z
loop_
_atom_site_type_symbol
_atom_site_label
_atom_site_fract_x
_atom_site_fract_y
_atom_site_fract_z
Si Si1 0.149115 0.286830 0.104801
Si Si2 0.000000 0.631187 0.250000
Si Si3 0.893471 0.884634 0.610549
Si Si4 0.671065 0.968717 0.848811
Si Si5 0.771867 0.138903 0.255476
Si Si6 0.240205 0.568312 0.723486
Si Si7 0.393347 0.214273 0.609944
O O1 0.179081 0.205535 0.101553
O O2 0.222438 0.349636 0.148733
O O3 0.148273 0.286047 0.277358
O O4 0.052645 0.316483 0.924809
O O5 0.922792 0.578047 0.233356
O O6 0.839960 0.883826 0.702490
O O7 0.835758 0.929285 0.424401
O O8 0.897378 0.799178 0.568226
O O9 0.000000 0.910617 0.750000
O O10 0.741925 0.923311 0.830427
O O11 0.660873 0.043637 0.748813
O O12 0.720451 0.979488 0.060035
O O13 0.675618 0.170132 0.073050
O O14 0.500000 0.186446 0.750000
#
# Coordination Sequence:
#
# PCOD9258653 Si02
#       7
#     8   4   8   8   8   8   8
#     4  10  20  38  62  88 130 166 208 262 312 373
#     4  10  24  42  58 100 128 168 218 256 316 384
#     4  10  20  39  66  93 125 166 216 263 311 382
#     4  11  26  41  66  89 133 166 214 260 325 375
#     4  11  20  41  63  98 127 170 209 265 322 373
#     4  11  22  43  60  90 124 173 204 267 318 371
#     4  10  18  33  64  97 124 163 212 257 322 378
#
# _framework density 21.519729000000002
#
# number of rings (size 3 to 8) (size 9 to 14) (size 15 to 20)
#    0.000    1.538    3.077    2.769    0.000    4.923 
#    9.692    3.077    0.000    0.000    0.000    0.000 
#    0.000    0.000    0.000    0.000    0.000    0.000 
#
# Total GULP energy -145207.751312 kJ/mol
# GULP energy per Si atom -5584.913512 kJ/mol
# Density = 2.147075 g / cm^3
# Si number density = 21.519729 Si / 1000 Ang^3
#
#
#
# Elastic Constant Matrix: (Units=GPa)
#
#
# Indices 1 2 3 4 5 6 
#
# 1 87.4837 20.6794 39.5317 0.0000 13.4497 0.0000
# 2 20.6794 71.0307 31.3340 0.0000 4.9064 0.0000
# 3 39.5317 31.3340 138.6673 0.0000 8.9425 0.0000
# 4 0.0000 0.0000 0.0000 22.2707 0.0000 -6.9724
# 5 13.4497 4.9064 8.9425 0.0000 36.9168 0.0000
# 6 0.0000 0.0000 0.0000 -6.9724 0.0000 31.1374
#
#
#
# Elastic Compliance Matrix: (Units=1/GPa)
#
#
# Indices 1 2 3 4 5 6 
#
# 1 0.014067 -0.002402 -0.003208 0.000000 -0.004029 0.000000
# 2 -0.002402 0.016104 -0.002918 0.000000 -0.000558 0.000000
# 3 -0.003208 -0.002918 0.008823 0.000000 -0.000581 0.000000
# 4 0.000000 0.000000 0.000000 0.048287 0.000000 0.010813
# 5 -0.004029 -0.000558 -0.000581 0.000000 0.028771 0.000000
# 6 0.000000 0.000000 0.000000 0.010813 0.000000 0.034537
#
#
# Mechanical properties :
#
#
# Convention : Reuss Voigt Hill
#
# Bulk Modulus (GPa) = 45.58325 53.36355 49.47340
# Shear Modulus (GPa) = 28.57844 31.77408 30.17626
#
# Velocity S-wave (km/s) = 3.64814 3.84671 3.74874
# Velocity P-wave (km/s) = 6.24286 6.67689 6.46352
#
# Compressibility (1/GPa) = 0.02193788
#
# Stress axis : x y z
#
# Youngs Moduli (GPa) = 71.08621 62.09807 113.34252
#
# Poissons Ratio (x) = 0.14917 0.36358
# Poissons Ratio (y) = 0.17076 0.33074
# Poissons Ratio (z) = 0.22803 0.18120
#
# Static dielectric constant tensor:
#      x y z
#    x 1.788090 0.000000 0.001930 
#    y 0.000000 1.864550 0.000000 
#    z 0.001930 0.000000 1.766800 
# 
# From -- ./inp_files/50731.got.cif
#   From: 2010.05.17/outbox.cif.g08.bks.cpg/sg15_26_cif.got.tgz:50731.got - 2010.06.03 18:47:42.
