data_PCOD9258045
_publ_section_title
;
Structure prediction by ZEFSAII (Michael W. Deem and Ramdas Pophale) SiO2 
 PCOD9258045
Probable space group: C 2/C
;
_chemical_formula_sum "Si O2"
_cell_formula_units_Z 44
_cell_length_a 25.820523
_cell_length_b 9.374135
_cell_length_c 10.268669
_cell_angle_alpha 90.000000
_cell_angle_beta 42.401636
_cell_angle_gamma 90.000000
_cell_volume 1676.017971
_symmetry_space_group_name_H-M "C 2/C"
_symmetry_group_IT_number 15
_symmetry_cell_setting 'monoclinic'
loop_
_space_group_symop_operation_xyz
x,y,z
-x,y,1/2-z
-x,-y,-z
x,-y,1/2+z
1/2+x,1/2+y,z
1/2-x,1/2+y,1/2-z
1/2-x,1/2-y,-z
1/2+x,1/2-y,1/2+z
loop_
_atom_site_type_symbol
_atom_site_label
_atom_site_fract_x
_atom_site_fract_y
_atom_site_fract_z
Si Si1 0.747586 0.782017 0.319996
Si Si2 0.500000 0.806377 0.250000
Si Si3 0.489416 0.737252 0.566220
Si Si4 0.385079 0.995742 0.851161
Si Si5 0.342905 0.428700 0.338613
Si Si6 0.156875 0.242628 0.248319
O O1 0.721013 0.642909 0.450234
O O2 0.824853 0.850292 0.232913
O O3 0.730764 0.745042 0.203474
O O4 0.683971 0.901881 0.469011
O O5 0.502279 0.729590 0.385330
O O6 0.574350 0.909166 0.114395
O O7 0.428019 0.618675 0.719444
O O8 0.573307 0.726434 0.474863
O O9 0.448392 0.887324 0.675560
O O10 0.354489 0.108594 0.803314
O O11 0.337474 0.596472 0.341394
#
# Coordination Sequence:
#
# PCOD9258045 Si02
#       6
#     8   4   8   8   8   8
#     4  10  23  42  60  85 126 162 194 254 306 350
#     4  10  18  32  58  86 114 152 196 250 292 342
#     4  10  21  38  59  90 123 154 200 251 301 361
#     4  10  20  36  60  89 120 158 203 242 297 365
#     4  10  24  41  59  88 122 157 202 248 304 364
#     4  11  22  38  65  90 116 162 207 244 300 364
#
# _framework density 26.252700999999998
#
# number of rings (size 3 to 8) (size 9 to 14) (size 15 to 20)
#    0.000    1.818    0.000    4.909    0.000   11.636 
#    0.000    0.000    0.000    0.000    0.000    0.000 
#    0.000    0.000    0.000    0.000    0.000    0.000 
#
# Total GULP energy -123299.600537 kJ/mol
# GULP energy per Si atom -5604.527297 kJ/mol
# Density = 2.619295 g / cm^3
# Si number density = 26.252701 Si / 1000 Ang^3
#
#
#
# Elastic Constant Matrix: (Units=GPa)
#
#
# Indices 1 2 3 4 5 6 
#
# 1 100.8129 18.0209 14.7806 0.0000 -3.0727 0.0000
# 2 18.0209 149.9853 37.7273 0.0000 4.3866 0.0000
# 3 14.7806 37.7273 65.0483 0.0000 -21.1358 0.0000
# 4 0.0000 0.0000 0.0000 21.9255 0.0000 -1.9236
# 5 -3.0727 4.3866 -21.1358 0.0000 42.2548 0.0000
# 6 0.0000 0.0000 0.0000 -1.9236 0.0000 15.4289
#
#
#
# Elastic Compliance Matrix: (Units=1/GPa)
#
#
# Indices 1 2 3 4 5 6 
#
# 1 0.010336 -0.000742 -0.001969 0.000000 -0.000156 0.000000
# 2 -0.000742 0.008368 -0.005952 0.000000 -0.003900 0.000000
# 3 -0.001969 -0.005952 0.023197 0.000000 0.012078 0.000000
# 4 0.000000 0.000000 0.000000 0.046114 0.000000 0.005749
# 5 -0.000156 -0.003900 0.012078 0.000000 0.030101 0.000000
# 6 0.000000 0.000000 0.000000 0.005749 0.000000 0.065530
#
#
# Mechanical properties :
#
#
# Convention : Reuss Voigt Hill
#
# Bulk Modulus (GPa) = 40.69153 50.76713 45.72933
# Shear Modulus (GPa) = 23.90498 32.27634 28.09066
#
# Velocity S-wave (km/s) = 3.02084 3.51015 3.27465
# Velocity P-wave (km/s) = 5.26317 5.98399 5.63511
#
# Compressibility (1/GPa) = 0.02457514
#
# Stress axis : x y z
#
# Youngs Moduli (GPa) = 96.74996 119.50872 43.10940
#
# Poissons Ratio (x) = 0.08868 0.08488
# Poissons Ratio (y) = 0.07179 0.25657
# Poissons Ratio (z) = 0.19050 0.71127
#
# Static dielectric constant tensor:
#      x y z
#    x 2.117850 0.000000 0.058800 
#    y 0.000000 1.976080 0.000000 
#    z 0.058800 0.000000 2.134110 
# 
# From -- ./inp_files/110120.got.cif
#   From: 2010.05.17/outbox.cif.g08.bks.cpg/sg15_56_cif.got.tgz:110120.got - 2010.06.03 18:47:42.
