data_PCOD9258111
_publ_section_title
;
Structure prediction by ZEFSAII (Michael W. Deem and Ramdas Pophale) SiO2 
 PCOD9258111
Probable space group: C 2/C
;
_chemical_formula_sum "Si O2"
_cell_formula_units_Z 56
_cell_length_a 22.399913
_cell_length_b 15.821466
_cell_length_c 9.051057
_cell_angle_alpha 90.000000
_cell_angle_beta 63.441426
_cell_angle_gamma 90.000000
_cell_volume 2869.207067
_symmetry_space_group_name_H-M "C 2/C"
_symmetry_group_IT_number 15
_symmetry_cell_setting 'monoclinic'
loop_
_space_group_symop_operation_xyz
x,y,z
-x,y,1/2-z
-x,-y,-z
x,-y,1/2+z
1/2+x,1/2+y,z
1/2-x,1/2+y,1/2-z
1/2-x,1/2-y,-z
1/2+x,1/2-y,1/2+z
loop_
_atom_site_type_symbol
_atom_site_label
_atom_site_fract_x
_atom_site_fract_y
_atom_site_fract_z
Si Si1 0.571453 0.689867 0.250271
Si Si2 0.930566 0.627588 0.735329
Si Si3 0.755409 0.472127 0.139586
Si Si4 0.161962 0.947898 0.496423
Si Si5 0.652915 0.954367 0.712324
Si Si6 0.014813 0.588887 0.403367
Si Si7 0.458467 0.569259 0.948133
O O1 0.500000 0.694734 0.250000
O O2 0.602715 0.783268 0.194177
O O3 0.616608 0.625110 0.110785
O O4 0.557534 0.648861 0.427533
O O5 0.883270 0.545207 0.788738
O O6 0.000000 0.614141 0.750000
O O7 0.961203 0.647055 0.539515
O O8 0.703798 0.424457 0.303536
O O9 0.713050 0.524950 0.068238
O O10 0.797721 0.528479 0.207412
O O11 0.808611 0.424265 0.976398
O O12 0.111902 0.025075 0.514695
O O13 0.592956 0.894752 0.832466
O O14 0.000000 0.582056 0.250000
O O15 0.000000 0.500000 0.500000
O O16 0.500000 0.586034 0.750000
O O17 0.500000 0.500000 0.000000
#
# Coordination Sequence:
#
# PCOD9258111 Si02
#       7
#     8   8   8   8   8   8   8
#     4  11  22  36  57  89 113 145 179 237 304 345
#     4  10  21  36  57  86 120 145 180 234 303 343
#     4  10  21  31  55  82 104 147 197 224 262 317
#     4  11  19  35  54  81 109 137 193 241 265 333
#     4  10  18  35  55  84 111 146 190 232 263 330
#     4  10  18  32  60  86 112 146 185 233 286 330
#     4  12  19  33  59  82 107 139 186 238 293 328
#
# _framework density 19.517588
#
# number of rings (size 3 to 8) (size 9 to 14) (size 15 to 20)
#    0.000    1.429    4.286    4.286    0.000    0.571 
#    0.000    2.857    0.000    0.857    0.000    0.000 
#    0.000    0.000    0.000    0.000    0.000    0.000 
#
# Total GULP energy -155987.351910 kJ/mol
# GULP energy per Si atom -5570.976854 kJ/mol
# Density = 1.947316 g / cm^3
# Si number density = 19.517588 Si / 1000 Ang^3
#
#
#
# Elastic Constant Matrix: (Units=GPa)
#
#
# Indices 1 2 3 4 5 6 
#
# 1 86.4159 6.5588 10.9288 0.0000 8.4652 0.0000
# 2 6.5588 56.5343 -2.8238 0.0000 1.3473 0.0000
# 3 10.9288 -2.8238 136.8676 0.0000 -7.5566 0.0000
# 4 0.0000 0.0000 0.0000 0.4643 0.0000 29.2329
# 5 8.4652 1.3473 -7.5566 0.0000 39.7448 0.0000
# 6 0.0000 0.0000 0.0000 29.2329 0.0000 -128.1971
#
#
#
# Elastic Compliance Matrix: (Units=1/GPa)
#
#
# Indices 1 2 3 4 5 6 
#
# 1 0.012092 -0.001395 -0.001146 0.000000 -0.002746 0.000000
# 2 -0.001395 0.017879 0.000468 0.000000 -0.000220 0.000000
# 3 -0.001146 0.000468 0.007499 0.000000 0.001654 0.000000
# 4 0.000000 0.000000 0.000000 0.140246 0.000000 0.031980
# 5 -0.002746 -0.000220 0.001654 0.000000 0.026067 0.000000
# 6 0.000000 0.000000 0.000000 0.031980 0.000000 -0.000508
#
#
# Mechanical properties :
#
#
# Convention : Reuss Voigt Hill
#
# Bulk Modulus (GPa) = 30.00802 34.34951 32.17876
# Shear Modulus (GPa) = 22.88036 0.07934 11.47985
#
# Velocity S-wave (km/s) = 3.42759 0.20184 2.42787
# Velocity P-wave (km/s) = 5.57430 4.20616 4.93784
#
# Compressibility (1/GPa) = 0.03332443
#
# Stress axis : x y z
#
# Youngs Moduli (GPa) = 82.70136 55.93218 133.35466
#
# Poissons Ratio (x) = 0.07800 0.15281
# Poissons Ratio (y) = 0.11534 -0.06242
# Poissons Ratio (z) = 0.09477 -0.02618
#
# Static dielectric constant tensor:
#      x y z
#    x 1.710570 0.000000 -0.010520 
#    y 0.000000 1.703770 0.000000 
#    z -0.010520 0.000000 1.755100 
# 
# From -- ./inp_files/62413.got.cif
#   From: 2010.05.17/outbox.cif.g08.bks.cpg/sg15_32_cif.got.tgz:62413.got - 2010.06.03 18:47:42.
