data_PCOD9258248
_publ_section_title
;
Structure prediction by ZEFSAII (Michael W. Deem and Ramdas Pophale) SiO2 
 PCOD9258248
Probable space group: C 2/C
;
_chemical_formula_sum "Si O2"
_cell_formula_units_Z 56
_cell_length_a 23.952094
_cell_length_b 13.682362
_cell_length_c 15.573809
_cell_angle_alpha 90.000000
_cell_angle_beta 143.440417
_cell_angle_gamma 90.000000
_cell_volume 3040.161725
_symmetry_space_group_name_H-M "C 2/C"
_symmetry_group_IT_number 15
_symmetry_cell_setting 'monoclinic'
loop_
_space_group_symop_operation_xyz
x,y,z
-x,y,1/2-z
-x,-y,-z
x,-y,1/2+z
1/2+x,1/2+y,z
1/2-x,1/2+y,1/2-z
1/2-x,1/2-y,-z
1/2+x,1/2-y,1/2+z
loop_
_atom_site_type_symbol
_atom_site_label
_atom_site_fract_x
_atom_site_fract_y
_atom_site_fract_z
Si Si1 0.155985 0.543955 0.909953
Si Si2 0.742263 0.813537 0.280484
Si Si3 0.459100 0.140699 0.287286
Si Si4 0.366695 0.013671 0.929832
Si Si5 0.181186 0.839397 0.946527
Si Si6 0.116849 0.318110 0.636969
Si Si7 0.930055 0.280297 0.304163
O O1 0.116505 0.438888 0.837071
O O2 0.091377 0.623787 0.781078
O O3 0.151158 0.550061 0.006696
O O4 0.261589 0.565588 0.011209
O O5 0.714612 0.910381 0.194318
O O6 0.816335 0.834859 0.448343
O O7 0.788031 0.732273 0.276805
O O8 0.647567 0.782393 0.214986
O O9 0.500000 0.186082 0.250000
O O10 0.542380 0.079527 0.436879
O O11 0.411842 0.206345 0.301229
O O12 0.378063 0.935840 0.867724
O O13 0.088672 0.812404 0.780383
O O14 0.250000 0.750000 0.000000
O O15 0.031297 0.286146 0.470364
#
# Coordination Sequence:
#
# PCOD9258248 Si02
#       7
#     8   8   8   8   8   8   8
#     4   9  17  31  51  78 110 145 168 221 280 314
#     4  10  21  32  50  84 115 140 183 224 268 333
#     4  10  20  32  51  79 107 143 185 227 269 322
#     4  11  19  32  53  83 116 137 181 227 268 335
#     4   8  16  30  46  74 114 138 166 219 274 326
#     4  12  20  33  59  80 111 148 176 226 286 318
#     4  10  18  33  52  82 112 137 174 227 288 323
#
# _framework density 18.420072999999999
#
# number of rings (size 3 to 8) (size 9 to 14) (size 15 to 20)
#    0.000    2.286    2.857    4.714    0.000    1.714 
#    0.000    2.857    0.000    3.429    0.000    2.000 
#    0.000    0.000    0.000    0.000    0.000    0.000 
#
# Total GULP energy -156049.132778 kJ/mol
# GULP energy per Si atom -5573.183314 kJ/mol
# Density = 1.837815 g / cm^3
# Si number density = 18.420073 Si / 1000 Ang^3
#
#
#
# Elastic Constant Matrix: (Units=GPa)
#
#
# Indices 1 2 3 4 5 6 
#
# 1 103.1527 25.9233 17.9855 0.0000 -18.9662 0.0000
# 2 25.9233 23.0675 26.5300 0.0000 0.8438 0.0000
# 3 17.9855 26.5300 56.5673 0.0000 -4.7621 0.0000
# 4 0.0000 0.0000 0.0000 23.8621 0.0000 -2.4949
# 5 -18.9662 0.8438 -4.7621 0.0000 23.6527 0.0000
# 6 0.0000 0.0000 0.0000 -2.4949 0.0000 24.8668
#
#
#
# Elastic Compliance Matrix: (Units=1/GPa)
#
#
# Indices 1 2 3 4 5 6 
#
# 1 0.021751 -0.042145 0.014694 0.000000 0.021903 0.000000
# 2 -0.042145 0.179531 -0.075463 0.000000 -0.055393 0.000000
# 3 0.014694 -0.075463 0.050472 0.000000 0.024637 0.000000
# 4 0.000000 0.000000 0.000000 0.042352 0.000000 0.004249
# 5 0.021903 -0.055393 0.024637 0.000000 0.066779 0.000000
# 6 0.000000 0.000000 0.000000 0.004249 0.000000 0.040641
#
#
# Mechanical properties :
#
#
# Convention : Reuss Voigt Hill
#
# Bulk Modulus (GPa) = 21.77405 35.96281 28.86843
# Shear Modulus (GPa) = 8.03002 21.96623 14.99813
#
# Velocity S-wave (km/s) = 2.09018 3.45703 2.85656
# Velocity P-wave (km/s) = 4.20376 5.95826 5.15618
#
# Compressibility (1/GPa) = 0.04592622
#
# Stress axis : x y z
#
# Youngs Moduli (GPa) = 45.97470 5.57006 19.81281
#
# Poissons Ratio (x) = 0.23475 -0.29114
# Poissons Ratio (y) = 1.93761 1.49514
# Poissons Ratio (z) = -0.67557 0.42034
#
# Static dielectric constant tensor:
#      x y z
#    x 1.705170 0.000000 -0.014940 
#    y 0.000000 1.639470 0.000000 
#    z -0.014940 0.000000 1.679770 
# 
# From -- ./inp_files/173507.got.cif
#   From: 2010.05.17/outbox.cif.g08.bks.cpg/sg15_87_cif.got.tgz:173507.got - 2010.06.03 18:47:42.
