data_PCOD9258226
_publ_section_title
;
Structure prediction by ZEFSAII (Michael W. Deem and Ramdas Pophale) SiO2 
 PCOD9258226
Probable space group: C 2/C
;
_chemical_formula_sum "Si O2"
_cell_formula_units_Z 40
_cell_length_a 7.301273
_cell_length_b 24.780119
_cell_length_c 11.359123
_cell_angle_alpha 90.000000
_cell_angle_beta 123.326693
_cell_angle_gamma 90.000000
_cell_volume 1717.196505
_symmetry_space_group_name_H-M "C 2/C"
_symmetry_group_IT_number 15
_symmetry_cell_setting 'monoclinic'
loop_
_space_group_symop_operation_xyz
x,y,z
-x,y,1/2-z
-x,-y,-z
x,-y,1/2+z
1/2+x,1/2+y,z
1/2-x,1/2+y,1/2-z
1/2-x,1/2-y,-z
1/2+x,1/2-y,1/2+z
loop_
_atom_site_type_symbol
_atom_site_label
_atom_site_fract_x
_atom_site_fract_y
_atom_site_fract_z
Si Si1 0.967342 0.307363 0.928901
Si Si2 0.290732 0.515697 0.536525
Si Si3 0.665657 0.389305 0.918218
Si Si4 0.126633 0.201325 0.099776
Si Si5 0.711622 0.970694 0.277967
O O1 0.188716 0.311612 0.931989
O O2 0.896534 0.363118 0.963342
O O3 0.764737 0.294441 0.769549
O O4 0.009733 0.257717 0.030662
O O5 0.320345 0.450965 0.543660
O O6 0.203724 0.521662 0.370831
O O7 0.529820 0.543474 0.627699
O O8 0.820997 0.476417 0.374962
O O9 0.500000 0.389995 0.750000
O O10 0.549857 0.346369 0.962220
O O11 0.500000 0.937391 0.250000
#
# Coordination Sequence:
#
# PCOD9258226 Si02
#       5
#     8   8   8   8   8
#     4   9  18  32  52  76 106 140 179 217 273 326
#     4  10  21  37  56  86 110 145 195 235 280 347
#     4  10  18  33  51  79 107 134 182 229 264 322
#     4   9  18  32  52  76 104 142 176 219 270 334
#     4  10  20  37  59  78 111 149 187 233 291 336
#
# _framework density 23.293780999999999
#
# number of rings (size 3 to 8) (size 9 to 14) (size 15 to 20)
#    0.000    2.400    2.000    1.200    0.000    1.600 
#    0.000    2.000    0.000   12.000    0.000    0.000 
#    0.000    0.000    0.000    0.000    0.000    0.000 
#
# Total GULP energy -111341.786373 kJ/mol
# GULP energy per Si atom -5567.089319 kJ/mol
# Density = 2.324076 g / cm^3
# Si number density = 23.293781 Si / 1000 Ang^3
#
#
#
# Elastic Constant Matrix: (Units=GPa)
#
#
# Indices 1 2 3 4 5 6 
#
# 1 114.6411 0.8172 50.9473 0.0000 -21.1363 0.0000
# 2 0.8172 66.3424 10.5302 0.0000 2.0754 0.0000
# 3 50.9473 10.5302 80.0558 0.0000 3.4485 0.0000
# 4 0.0000 0.0000 0.0000 18.7590 0.0000 -10.2249
# 5 -21.1363 2.0754 3.4485 0.0000 32.0570 0.0000
# 6 0.0000 0.0000 0.0000 -10.2249 0.0000 7.4216
#
#
#
# Elastic Compliance Matrix: (Units=1/GPa)
#
#
# Indices 1 2 3 4 5 6 
#
# 1 0.015428 0.001117 -0.010449 0.000000 0.011224 0.000000
# 2 0.001117 0.015495 -0.002750 0.000000 0.000029 0.000000
# 3 -0.010449 -0.002750 0.019884 0.000000 -0.008850 0.000000
# 4 0.000000 0.000000 0.000000 0.214051 0.000000 0.294904
# 5 0.011224 0.000029 -0.008850 0.000000 0.039545 0.000000
# 6 0.000000 0.000000 0.000000 0.294904 0.000000 0.541042
#
#
# Mechanical properties :
#
#
# Convention : Reuss Voigt Hill
#
# Bulk Modulus (GPa) = 37.53318 42.84765 40.19042
# Shear Modulus (GPa) = 5.69160 24.89715 15.29437
#
# Velocity S-wave (km/s) = 1.56483 3.27285 2.56517
# Velocity P-wave (km/s) = 4.40600 5.71983 5.10536
#
# Compressibility (1/GPa) = 0.02664309
#
# Stress axis : x y z
#
# Youngs Moduli (GPa) = 64.81897 64.53608 50.29245
#
# Poissons Ratio (x) = -0.07211 0.52548
# Poissons Ratio (y) = -0.07242 0.13833
# Poissons Ratio (z) = 0.67726 0.17751
#
# Static dielectric constant tensor:
#      x y z
#    x 1.974060 0.000000 -0.035250 
#    y 0.000000 1.850430 0.000000 
#    z -0.035250 0.000000 2.134490 
# 
# From -- ./inp_files/138361.got.cif
#   From: 2010.05.17/outbox.cif.g08.bks.cpg/sg15_70_cif.got.tgz:138361.got - 2010.06.03 18:47:42.
