data_PCOD9258756
_publ_section_title
;
Structure prediction by ZEFSAII (Michael W. Deem and Ramdas Pophale) SiO2 
 PCOD9258756
Probable space group: C 2/C
;
_chemical_formula_sum "Si O2"
_cell_formula_units_Z 52
_cell_length_a 8.402153
_cell_length_b 12.143156
_cell_length_c 25.570122
_cell_angle_alpha 90.000000
_cell_angle_beta 47.225232
_cell_angle_gamma 90.000000
_cell_volume 1914.997372
_symmetry_space_group_name_H-M "C 2/C"
_symmetry_group_IT_number 15
_symmetry_cell_setting 'monoclinic'
loop_
_space_group_symop_operation_xyz
x,y,z
-x,y,1/2-z
-x,-y,-z
x,-y,1/2+z
1/2+x,1/2+y,z
1/2-x,1/2+y,1/2-z
1/2-x,1/2-y,-z
1/2+x,1/2-y,1/2+z
loop_
_atom_site_type_symbol
_atom_site_label
_atom_site_fract_x
_atom_site_fract_y
_atom_site_fract_z
Si Si1 0.893668 0.900479 0.211488
Si Si2 0.269024 0.694665 0.408147
Si Si3 0.000000 0.100593 0.250000
Si Si4 0.261552 0.102472 0.402979
Si Si5 0.758098 0.034593 0.503432
Si Si6 0.782012 0.734805 0.666318
Si Si7 0.940157 0.179384 0.921169
O O1 0.852508 0.016402 0.247818
O O2 0.761956 0.798436 0.264237
O O3 0.888085 0.891212 0.151497
O O4 0.144142 0.862835 0.169303
O O5 0.362337 0.655223 0.329356
O O6 0.189970 0.606160 0.468500
O O7 0.461568 0.759138 0.395084
O O8 0.074710 0.773238 0.438410
O O9 0.302417 0.146500 0.334672
O O10 0.341994 0.215518 0.413238
O O11 0.352672 0.998815 0.415971
O O12 0.003908 0.077068 0.459488
O O13 0.774801 0.912117 0.475687
#
# Coordination Sequence:
#
# PCOD9258756 Si02
#       7
#     8   8   4   8   8   8   8
#     4   9  18  36  60  76 113 154 188 223 296 345
#     4  11  21  34  60  84 118 145 192 242 286 336
#     4  10  18  34  54  82 112 152 176 238 284 334
#     4   9  20  39  61  81 118 156 191 234 289 338
#     4  10  21  41  58  84 117 154 194 237 281 343
#     4   8  17  34  56  80 108 151 184 230 279 338
#     4  11  21  38  59  88 112 153 188 239 289 342
#
# _framework density 27.154084000000001
#
# number of rings (size 3 to 8) (size 9 to 14) (size 15 to 20)
#    0.000    2.462    1.538    1.385    0.000    0.615 
#    5.538    6.923    0.000    0.000    0.000    0.000 
#    0.000    0.000    0.000    0.000    0.000    0.000 
#
# Total GULP energy -144792.796085 kJ/mol
# GULP energy per Si atom -5568.953696 kJ/mol
# Density = 2.709228 g / cm^3
# Si number density = 27.154084 Si / 1000 Ang^3
#
#
#
# Elastic Constant Matrix: (Units=GPa)
#
#
# Indices 1 2 3 4 5 6 
#
# 1 94.8468 31.3606 -1.8993 0.0003 -6.5401 -0.0002
# 2 31.3606 99.1245 28.7007 0.0000 9.2144 0.0000
# 3 -1.8993 28.7007 92.3561 0.0000 27.7134 -0.0001
# 4 0.0003 0.0000 0.0000 47.7795 -0.0003 17.1645
# 5 -6.5401 9.2144 27.7134 -0.0003 37.2336 0.0002
# 6 -0.0002 0.0000 -0.0001 17.1645 0.0002 39.5019
#
#
#
# Elastic Compliance Matrix: (Units=1/GPa)
#
#
# Indices 1 2 3 4 5 6 
#
# 1 0.012170 -0.004328 0.000814 0.000000 0.002603 0.000000
# 2 -0.004328 0.012627 -0.003666 0.000000 -0.001156 0.000000
# 3 0.000814 -0.003666 0.015024 0.000000 -0.010132 0.000000
# 4 0.000000 0.000000 0.000000 0.024801 0.000000 -0.010777
# 5 0.002603 -0.001156 -0.010132 0.000000 0.035142 0.000000
# 6 0.000000 0.000000 0.000000 -0.010777 0.000000 0.029998
#
#
# Mechanical properties :
#
#
# Convention : Reuss Voigt Hill
#
# Bulk Modulus (GPa) = 39.27497 44.73903 42.00700
# Shear Modulus (GPa) = 32.76364 40.11404 36.43884
#
# Velocity S-wave (km/s) = 3.47736 3.84770 3.66721
# Velocity P-wave (km/s) = 5.53334 6.02092 5.78227
#
# Compressibility (1/GPa) = 0.02546151
#
# Stress axis : x y z
#
# Youngs Moduli (GPa) = 82.16836 79.19836 66.56004
#
# Poissons Ratio (x) = 0.34277 -0.05420
# Poissons Ratio (y) = 0.35563 0.24400
# Poissons Ratio (z) = -0.06691 0.29033
#
# Static dielectric constant tensor:
#      x y z
#    x 2.166530 0.000000 0.107820 
#    y 0.000000 2.100630 0.000000 
#    z 0.107820 0.000000 2.397920 
# 
# From -- ./inp_files/307045.got.cif
#   From: 2010.05.17/outbox.cif.g08.bks.cpg/sg15_154_cif.got.tgz:307045.got - 2010.06.03 18:47:42.
