data_PCOD9258655
_publ_section_title
;
Structure prediction by ZEFSAII (Michael W. Deem and Ramdas Pophale) SiO2 
 PCOD9258655
Probable space group: C 2/C
;
_chemical_formula_sum "Si O2"
_cell_formula_units_Z 56
_cell_length_a 23.753285
_cell_length_b 8.593069
_cell_length_c 33.258465
_cell_angle_alpha 90.000000
_cell_angle_beta 158.478937
_cell_angle_gamma 90.000000
_cell_volume 2490.317390
_symmetry_space_group_name_H-M "C 2/C"
_symmetry_group_IT_number 15
_symmetry_cell_setting 'monoclinic'
loop_
_space_group_symop_operation_xyz
x,y,z
-x,y,1/2-z
-x,-y,-z
x,-y,1/2+z
1/2+x,1/2+y,z
1/2-x,1/2+y,1/2-z
1/2-x,1/2-y,-z
1/2+x,1/2-y,1/2+z
loop_
_atom_site_type_symbol
_atom_site_label
_atom_site_fract_x
_atom_site_fract_y
_atom_site_fract_z
Si Si1 0.449170 0.312062 0.918368
Si Si2 0.680846 0.959218 0.123350
Si Si3 0.686780 0.591280 0.876727
Si Si4 0.563812 0.711262 0.183454
Si Si5 0.683124 0.070443 0.376659
Si Si6 0.709106 0.442382 0.135013
Si Si7 0.359070 0.732773 0.123640
O O1 0.326437 0.185948 0.851055
O O2 0.476018 0.301340 0.889390
O O3 0.385042 0.475306 0.892349
O O4 0.609564 0.303364 0.049021
O O5 0.742126 0.911486 0.120399
O O6 0.802452 0.084310 0.220219
O O7 0.500000 0.000000 0.000000
O O8 0.500000 0.588862 0.750000
O O9 0.733233 0.425322 0.927063
O O10 0.732333 0.759471 0.925903
O O11 0.638655 0.876302 0.244409
O O12 0.430447 0.699001 0.127573
O O13 0.500000 0.080177 0.250000
O O14 0.754369 0.048091 0.379422
O O15 0.709106 0.907380 0.417294
O O16 0.500000 0.737275 0.250000
#
# Coordination Sequence:
#
# PCOD9258655 Si02
#       7
#     8   8   8   8   8   8   8
#     4  11  26  38  63  96 125 176 211 261 343 392
#     4  12  22  39  65  94 128 170 217 273 325 391
#     4  10  19  35  61  95 121 170 222 260 331 390
#     4  12  22  42  64  92 130 165 220 272 326 398
#     4  10  18  33  65  91 120 169 218 263 329 388
#     4  11  21  43  62  87 135 165 210 273 325 396
#     4  10  18  35  64  88 121 174 214 264 326 384
#
# _framework density 22.487093999999999
#
# number of rings (size 3 to 8) (size 9 to 14) (size 15 to 20)
#    0.000    1.143    8.571    0.857    0.000    0.000 
#    0.000    0.714    0.000    0.857    0.000    0.000 
#    0.000    0.000    0.000    0.000    0.000    0.000 
#
# Total GULP energy -156260.934640 kJ/mol
# GULP energy per Si atom -5580.747666 kJ/mol
# Density = 2.243591 g / cm^3
# Si number density = 22.487094 Si / 1000 Ang^3
#
#
#
# Elastic Constant Matrix: (Units=GPa)
#
#
# Indices 1 2 3 4 5 6 
#
# 1 184.4052 51.6992 41.1155 -0.0028 -3.2152 0.0009
# 2 51.6992 160.4396 25.1180 -0.0078 -8.5798 0.0029
# 3 41.1155 25.1180 52.0138 -0.0256 1.5208 0.0105
# 4 -0.0028 -0.0078 -0.0256 -0.7549 0.0040 8.5678
# 5 -3.2152 -8.5798 1.5208 0.0040 35.8701 0.0013
# 6 0.0009 0.0029 0.0105 8.5678 0.0013 34.6312
#
#
#
# Elastic Compliance Matrix: (Units=1/GPa)
#
#
# Indices 1 2 3 4 5 6 
#
# 1 0.006901 -0.001452 -0.004768 0.000045 0.000473 -0.000010
# 2 -0.001452 0.007160 -0.002359 0.000006 0.001682 -0.000001
# 3 -0.004768 -0.002359 0.024193 -0.000228 -0.002017 0.000049
# 4 0.000045 0.000006 -0.000228 -0.347874 0.000051 0.086065
# 5 0.000473 0.001682 -0.002017 0.000051 0.028409 -0.000013
# 6 -0.000010 -0.000001 0.000049 0.086065 -0.000013 0.007583
#
#
# Mechanical properties :
#
#
# Convention : Reuss Voigt Hill
#
# Bulk Modulus (GPa) = 47.40236 70.30266 58.85251
# Shear Modulus (GPa) = -20.04502 32.54434 6.24966
#
# Velocity S-wave (km/s) = -2.98887 3.80839 1.66891
# Velocity P-wave (km/s) = 3.03553 7.11828 5.47194
#
# Compressibility (1/GPa) = 0.02109600
#
# Stress axis : x y z
#
# Youngs Moduli (GPa) = 144.90151 139.66326 41.33497
#
# Poissons Ratio (x) = 0.20280 0.19708
# Poissons Ratio (y) = 0.21041 0.09751
# Poissons Ratio (z) = 0.69087 0.32947
#
# Static dielectric constant tensor:
#      x y z
#    x 1.800450 -0.000020 0.064260 
#    y -0.000020 1.934060 -0.000050 
#    z 0.064260 -0.000050 1.917180 
# 
# From -- ./inp_files/317551.got.cif
#   From: 2010.05.17/outbox.cif.g08.bks.cpg/sg15_159_cif.got.tgz:317551.got - 2010.06.03 18:47:42.
