data_PCOD9258276
_publ_section_title
;
Structure prediction by ZEFSAII (Michael W. Deem and Ramdas Pophale) SiO2 
 PCOD9258276
Probable space group: C 2/C
;
_chemical_formula_sum "Si O2"
_cell_formula_units_Z 56
_cell_length_a 33.913933
_cell_length_b 12.911907
_cell_length_c 9.803261
_cell_angle_alpha 90.000000
_cell_angle_beta 137.971858
_cell_angle_gamma 90.000000
_cell_volume 2874.000229
_symmetry_space_group_name_H-M "C 2/C"
_symmetry_group_IT_number 15
_symmetry_cell_setting 'monoclinic'
loop_
_space_group_symop_operation_xyz
x,y,z
-x,y,1/2-z
-x,-y,-z
x,-y,1/2+z
1/2+x,1/2+y,z
1/2-x,1/2+y,1/2-z
1/2-x,1/2-y,-z
1/2+x,1/2-y,1/2+z
loop_
_atom_site_type_symbol
_atom_site_label
_atom_site_fract_x
_atom_site_fract_y
_atom_site_fract_z
Si Si1 0.837543 0.716125 0.134729
Si Si2 0.218233 0.103528 0.827187
Si Si3 0.462446 0.256960 0.517680
Si Si4 0.333531 0.219416 0.807485
Si Si5 0.219858 0.097060 0.511787
Si Si6 0.950471 0.784079 0.007901
Si Si7 0.456215 0.511107 0.011742
O O1 0.813308 0.798736 0.182719
O O2 0.905099 0.687348 0.342679
O O3 0.788397 0.626346 0.011583
O O4 0.836172 0.755776 0.973077
O O5 0.200938 0.091379 0.622798
O O6 0.205805 0.004375 0.888506
O O7 0.500000 0.238568 0.750000
O O8 0.512552 0.257251 0.530822
O O9 0.432242 0.372766 0.441576
O O10 0.290157 0.121377 0.692947
O O11 0.306482 0.305041 0.636538
O O12 0.399502 0.206382 0.921669
O O13 0.000000 0.789066 0.250000
O O14 0.923026 0.901401 0.929316
O O15 0.500000 0.514419 0.250000
O O16 0.500000 0.500000 0.000000
#
# Coordination Sequence:
#
# PCOD9258276 Si02
#       7
#     8   8   8   8   8   8   8
#     4  10  21  38  59  84 115 151 187 233 286 338
#     4  10  22  40  60  82 111 148 193 241 286 329
#     4  10  20  33  49  81 118 148 182 224 277 342
#     4  10  21  37  60  86 113 148 192 231 283 341
#     4  10  22  40  59  84 111 147 193 241 284 332
#     4  10  18  33  53  79 112 150 180 225 279 338
#     4   8  16  28  42  66 104 138 170 202 252 317
#
# _framework density 19.485036000000001
#
# number of rings (size 3 to 8) (size 9 to 14) (size 15 to 20)
#    0.000    2.286    1.429    0.857    4.000    1.143 
#    0.000    0.000    0.000    1.714    0.000    0.000 
#    0.000    0.000    0.000    0.000    0.000    0.000 
#
# Total GULP energy -155875.193806 kJ/mol
# GULP energy per Si atom -5566.971207 kJ/mol
# Density = 1.944069 g / cm^3
# Si number density = 19.485036 Si / 1000 Ang^3
#
#
#
# Elastic Constant Matrix: (Units=GPa)
#
#
# Indices 1 2 3 4 5 6 
#
# 1 108.6814 5.0179 57.0767 0.0000 -19.4124 0.0000
# 2 5.0179 15.3258 7.2031 0.0000 -14.0562 0.0000
# 3 57.0767 7.2031 89.4683 0.0000 -23.7640 0.0000
# 4 0.0000 0.0000 0.0000 19.1770 0.0000 3.2264
# 5 -19.4124 -14.0562 -23.7640 0.0000 54.0575 0.0000
# 6 0.0000 0.0000 0.0000 3.2264 0.0000 22.4380
#
#
#
# Elastic Compliance Matrix: (Units=1/GPa)
#
#
# Indices 1 2 3 4 5 6 
#
# 1 0.013917 0.000786 -0.008560 0.000000 0.001439 0.000000
# 2 0.000786 0.085826 -0.001595 0.000000 0.021898 0.000000
# 3 -0.008560 -0.001595 0.017934 0.000000 0.004395 0.000000
# 4 0.000000 0.000000 0.000000 0.053439 0.000000 -0.007684
# 5 0.001439 0.021898 0.004395 0.000000 0.026642 0.000000
# 6 0.000000 0.000000 0.000000 -0.007684 0.000000 0.045672
#
#
# Mechanical properties :
#
#
# Convention : Reuss Voigt Hill
#
# Bulk Modulus (GPa) = 10.10715 39.11899 24.61307
# Shear Modulus (GPa) = 16.94078 28.74635 22.84356
#
# Velocity S-wave (km/s) = 2.95180 3.84514 3.42770
# Velocity P-wave (km/s) = 4.10072 6.31137 5.32209
#
# Compressibility (1/GPa) = 0.09893983
#
# Stress axis : x y z
#
# Youngs Moduli (GPa) = 71.85320 11.65152 55.76134
#
# Poissons Ratio (x) = -0.00916 0.47729
# Poissons Ratio (y) = -0.05651 0.08895
# Poissons Ratio (z) = 0.61503 0.01859
#
# Static dielectric constant tensor:
#      x y z
#    x 1.945830 0.000000 -0.225540 
#    y 0.000000 1.693330 0.000000 
#    z -0.225540 0.000000 1.888620 
# 
# From -- ./inp_files/69987.got.cif
#   From: 2010.05.17/outbox.cif.g08.bks.cpg/sg15_35_cif.got.tgz:69987.got - 2010.06.03 18:47:42.
