data_PCOD9258863
_publ_section_title
;
Structure prediction by ZEFSAII (Michael W. Deem and Ramdas Pophale) SiO2 
 PCOD9258863
Probable space group: C 2/C
;
_chemical_formula_sum "Si O2"
_cell_formula_units_Z 40
_cell_length_a 10.305128
_cell_length_b 12.626176
_cell_length_c 15.486550
_cell_angle_alpha 90.000000
_cell_angle_beta 132.868282
_cell_angle_gamma 90.000000
_cell_volume 1476.849559
_symmetry_space_group_name_H-M "C 2/C"
_symmetry_group_IT_number 15
_symmetry_cell_setting 'monoclinic'
loop_
_space_group_symop_operation_xyz
x,y,z
-x,y,1/2-z
-x,-y,-z
x,-y,1/2+z
1/2+x,1/2+y,z
1/2-x,1/2+y,1/2-z
1/2-x,1/2-y,-z
1/2+x,1/2-y,1/2+z
loop_
_atom_site_type_symbol
_atom_site_label
_atom_site_fract_x
_atom_site_fract_y
_atom_site_fract_z
Si Si1 0.305646 0.546135 0.615239
Si Si2 0.524879 0.276988 0.414631
Si Si3 0.813501 0.425195 0.253088
Si Si4 0.000000 0.391388 0.750000
Si Si5 0.663162 0.167210 0.025574
Si Si6 0.500000 0.250021 0.750000
O O1 0.500000 0.536413 0.750000
O O2 0.323059 0.647679 0.559342
O O3 0.185596 0.547058 0.646530
O O4 0.213660 0.451987 0.520388
O O5 0.366516 0.364023 0.349068
O O6 0.497895 0.188635 0.329309
O O7 0.501872 0.217695 0.496171
O O8 0.845519 0.525442 0.206527
O O9 0.966753 0.336366 0.311044
O O10 0.826229 0.178848 0.172484
O O11 0.750000 0.250000 0.000000
#
# Coordination Sequence:
#
# PCOD9258863 Si02
#       6
#     8   8   8   4   8   4
#     4  10  18  34  56  84 109 149 190 231 287 337
#     4  10  20  33  55  85 114 148 188 238 282 335
#     4   9  18  30  55  86 107 144 192 231 282 342
#     4  11  16  29  56  82 110 143 190 231 282 344
#     4  11  22  37  59  84 115 154 191 233 288 341
#     4   9  20  37  56  84 110 147 190 237 280 334
#
# _framework density 27.084681
#
# number of rings (size 3 to 8) (size 9 to 14) (size 15 to 20)
#    0.000    2.000    6.000    0.000    0.000    0.800 
#    0.000    1.000    0.000    1.200    0.000    0.000 
#    0.000    0.000    0.000    0.000    0.000    0.000 
#
# Total GULP energy -111521.985620 kJ/mol
# GULP energy per Si atom -5576.099281 kJ/mol
# Density = 2.702304 g / cm^3
# Si number density = 27.084681 Si / 1000 Ang^3
#
#
#
# Elastic Constant Matrix: (Units=GPa)
#
#
# Indices 1 2 3 4 5 6 
#
# 1 190.4190 76.2070 25.6057 0.0000 -37.8989 0.0000
# 2 76.2070 186.8632 36.3784 0.0000 -37.7972 0.0000
# 3 25.6057 36.3784 29.0032 0.0000 -22.3999 0.0000
# 4 0.0000 0.0000 0.0000 39.4488 0.0000 -11.2895
# 5 -37.8989 -37.7972 -22.3999 0.0000 63.1223 0.0000
# 6 0.0000 0.0000 0.0000 -11.2895 0.0000 67.7754
#
#
#
# Elastic Compliance Matrix: (Units=1/GPa)
#
#
# Indices 1 2 3 4 5 6 
#
# 1 0.006711 -0.001941 -0.001758 0.000000 0.002243 0.000000
# 2 -0.001941 0.007746 -0.007329 0.000000 0.000872 0.000000
# 3 -0.001758 -0.007329 0.056505 0.000000 0.014608 0.000000
# 4 0.000000 0.000000 0.000000 0.026618 0.000000 0.004434
# 5 0.002243 0.000872 0.014608 0.000000 0.022895 0.000000
# 6 0.000000 0.000000 0.000000 0.004434 0.000000 0.015493
#
#
# Mechanical properties :
#
#
# Convention : Reuss Voigt Hill
#
# Bulk Modulus (GPa) = 20.44672 75.85195 48.14933
# Shear Modulus (GPa) = 28.68169 51.94228 40.31198
#
# Velocity S-wave (km/s) = 3.25770 4.38399 3.86212
# Velocity P-wave (km/s) = 4.66001 7.32749 6.14035
#
# Compressibility (1/GPa) = 0.04890759
#
# Stress axis : x y z
#
# Youngs Moduli (GPa) = 149.00327 129.09403 17.69747
#
# Poissons Ratio (x) = 0.25057 0.03111
# Poissons Ratio (y) = 0.28922 0.12970
# Poissons Ratio (z) = 0.26193 0.94609
#
# Static dielectric constant tensor:
#      x y z
#    x 2.146970 0.000000 0.031140 
#    y 0.000000 2.084580 0.000000 
#    z 0.031140 0.000000 3.508380 
# 
# From -- ./inp_files/141794.got.cif
#   From: 2010.05.17/outbox.cif.g08.bks.cpg/sg15_71_cif.got.tgz:141794.got - 2010.06.03 18:47:42.
