data_PCOD9258878
_publ_section_title
;
Structure prediction by ZEFSAII (Michael W. Deem and Ramdas Pophale) SiO2 
 PCOD9258878
Probable space group: C 2/C
;
_chemical_formula_sum "Si O2"
_cell_formula_units_Z 52
_cell_length_a 22.705149
_cell_length_b 8.751418
_cell_length_c 12.718566
_cell_angle_alpha 90.000000
_cell_angle_beta 119.900411
_cell_angle_gamma 90.000000
_cell_volume 2190.819082
_symmetry_space_group_name_H-M "C 2/C"
_symmetry_group_IT_number 15
_symmetry_cell_setting 'monoclinic'
loop_
_space_group_symop_operation_xyz
x,y,z
-x,y,1/2-z
-x,-y,-z
x,-y,1/2+z
1/2+x,1/2+y,z
1/2-x,1/2+y,1/2-z
1/2-x,1/2-y,-z
1/2+x,1/2-y,1/2+z
loop_
_atom_site_type_symbol
_atom_site_label
_atom_site_fract_x
_atom_site_fract_y
_atom_site_fract_z
Si Si1 0.676660 0.829029 0.353625
Si Si2 0.049893 0.596498 0.884512
Si Si3 0.947528 0.915822 0.526567
Si Si4 0.737773 0.493132 0.427912
Si Si5 0.638057 0.029842 0.619827
Si Si6 0.624898 0.294352 0.222488
Si Si7 0.000000 0.120221 0.750000
O O1 0.619220 0.843550 0.391362
O O2 0.710182 0.663788 0.382760
O O3 0.728163 0.969940 0.427597
O O4 0.641435 0.844399 0.210725
O O5 0.024985 0.747840 0.920493
O O6 0.000000 0.544173 0.750000
O O7 0.071916 0.471418 0.987907
O O8 0.882690 0.894658 0.392327
O O9 0.000000 0.000000 0.500000
O O10 0.949811 0.012414 0.635530
O O11 0.797848 0.457938 0.399680
O O12 0.680547 0.367570 0.350596
O O13 0.639275 0.871710 0.687019
O O14 0.552648 0.293369 0.220039
#
# Coordination Sequence:
#
# PCOD9258878 Si02
#       7
#     8   8   8   8   8   8   4
#     4  10  22  39  61  88 120 163 209 244 310 377
#     4  10  20  37  62  85 122 167 202 249 312 375
#     4   9  18  32  57  88 117 151 206 254 297 356
#     4  10  21  39  64  86 115 165 207 256 305 363
#     4  10  22  40  58  90 122 157 207 256 300 373
#     4  10  21  36  60  89 122 156 200 261 308 358
#     4  10  18  34  56  86 122 156 198 254 312 362
#
# _framework density 23.735413999999999
#
# number of rings (size 3 to 8) (size 9 to 14) (size 15 to 20)
#    0.000    2.154    0.769    1.846    2.154    4.923 
#    1.385    3.077    0.000    0.000    0.000    0.000 
#    0.000    0.000    0.000    0.000    0.000    0.000 
#
# Total GULP energy -145176.820134 kJ/mol
# GULP energy per Si atom -5583.723851 kJ/mol
# Density = 2.368139 g / cm^3
# Si number density = 23.735414 Si / 1000 Ang^3
#
#
#
# Elastic Constant Matrix: (Units=GPa)
#
#
# Indices 1 2 3 4 5 6 
#
# 1 66.2378 7.6341 16.5758 0.0000 2.9248 0.0000
# 2 7.6341 17.9909 22.6698 0.0000 10.1620 0.0000
# 3 16.5758 22.6698 143.0524 0.0000 12.3646 0.0000
# 4 0.0000 0.0000 0.0000 21.9521 0.0000 11.5000
# 5 2.9248 10.1620 12.3646 0.0000 31.1762 0.0000
# 6 0.0000 0.0000 0.0000 11.5000 0.0000 -6.7420
#
#
#
# Elastic Compliance Matrix: (Units=1/GPa)
#
#
# Indices 1 2 3 4 5 6 
#
# 1 0.015999 -0.006052 -0.000969 0.000000 0.000856 0.000000
# 2 -0.006052 0.084501 -0.010726 0.000000 -0.022722 0.000000
# 3 -0.000969 -0.010726 0.008794 0.000000 0.000099 0.000000
# 4 0.000000 0.000000 0.000000 0.024057 0.000000 0.041035
# 5 0.000856 -0.022722 0.000099 0.000000 0.039362 0.000000
# 6 0.000000 0.000000 0.000000 0.041035 0.000000 -0.078330
#
#
# Mechanical properties :
#
#
# Convention : Reuss Voigt Hill
#
# Bulk Modulus (GPa) = 13.54983 35.67115 24.61049
# Shear Modulus (GPa) = 32.36742 21.30403 26.83573
#
# Velocity S-wave (km/s) = 3.69681 2.99919 3.36612
# Velocity P-wave (km/s) = 4.89315 5.20142 5.04964
#
# Compressibility (1/GPa) = 0.07380164
#
# Stress axis : x y z
#
# Youngs Moduli (GPa) = 62.50301 11.83417 113.71547
#
# Poissons Ratio (x) = 0.07161 0.11017
# Poissons Ratio (y) = 0.37824 1.21970
# Poissons Ratio (z) = 0.06056 0.12693
#
# Static dielectric constant tensor:
#      x y z
#    x 1.904670 0.000000 0.015170 
#    y 0.000000 1.885070 0.000000 
#    z 0.015170 0.000000 1.894120 
# 
# From -- ./inp_files/122072.got.cif
#   From: 2010.05.17/outbox.cif.g08.bks.cpg/sg15_62_cif.got.tgz:122072.got - 2010.06.03 18:47:42.
