data_PCOD9258974
_publ_section_title
;
Structure prediction by ZEFSAII (Michael W. Deem and Ramdas Pophale) SiO2 
 PCOD9258974
Probable space group: C 2/C
;
_chemical_formula_sum "Si O2"
_cell_formula_units_Z 28
_cell_length_a 7.683088
_cell_length_b 14.216124
_cell_length_c 10.760111
_cell_angle_alpha 90.000000
_cell_angle_beta 123.295415
_cell_angle_gamma 90.000000
_cell_volume 982.342154
_symmetry_space_group_name_H-M "C 2/C"
_symmetry_group_IT_number 15
_symmetry_cell_setting 'monoclinic'
loop_
_space_group_symop_operation_xyz
x,y,z
-x,y,1/2-z
-x,-y,-z
x,-y,1/2+z
1/2+x,1/2+y,z
1/2-x,1/2+y,1/2-z
1/2-x,1/2-y,-z
1/2+x,1/2-y,1/2+z
loop_
_atom_site_type_symbol
_atom_site_label
_atom_site_fract_x
_atom_site_fract_y
_atom_site_fract_z
Si Si1 0.500000 0.135449 0.750000
Si Si2 0.720825 0.051833 0.282065
Si Si3 0.068100 0.127975 0.903831
Si Si4 0.047706 0.683973 0.036660
O O1 0.563010 0.194006 0.894460
O O2 0.321133 0.059282 0.718802
O O3 0.500000 0.090534 0.250000
O O4 0.897084 0.084838 0.445292
O O5 0.705292 0.101482 0.142577
O O6 0.306611 0.154841 0.962182
O O7 0.000000 0.074655 0.750000
O O8 0.934421 0.222542 0.873820
#
# Coordination Sequence:
#
# PCOD9258974 Si02
#       4
#     4   8   8   8
#     4  10  20  34  58  84 104 140 186 226 256 312
#     4   8  18  33  56  77 106 139 181 218 259 318
#     4  10  19  34  55  82 106 145 178 220 269 322
#     4  10  18  34  58  79 107 142 189 216 258 321
#
# _framework density 28.503308000000001
#
# number of rings (size 3 to 8) (size 9 to 14) (size 15 to 20)
#    0.857    1.714    0.000    5.143    0.000    0.000 
#    0.000    7.143    0.000    0.000    0.000    0.000 
#    0.000    0.000    0.000    0.000    0.000    0.000 
#
# Total GULP energy -78242.346579 kJ/mol
# GULP energy per Si atom -5588.739041 kJ/mol
# Density = 2.843843 g / cm^3
# Si number density = 28.503308 Si / 1000 Ang^3
#
#
#
# Elastic Constant Matrix: (Units=GPa)
#
#
# Indices 1 2 3 4 5 6 
#
# 1 62.3327 6.9769 23.7186 0.0000 -17.2638 0.0000
# 2 6.9769 128.3527 67.7402 0.0000 14.6192 0.0000
# 3 23.7186 67.7402 231.7728 0.0000 -12.5187 0.0000
# 4 0.0000 0.0000 0.0000 44.1876 0.0000 31.6465
# 5 -17.2638 14.6192 -12.5187 0.0000 46.1804 0.0000
# 6 0.0000 0.0000 0.0000 31.6465 0.0000 22.9167
#
#
#
# Elastic Compliance Matrix: (Units=1/GPa)
#
#
# Indices 1 2 3 4 5 6 
#
# 1 0.018560 -0.001185 -0.001175 0.000000 0.006995 0.000000
# 2 -0.001185 0.009956 -0.003027 0.000000 -0.004415 0.000000
# 3 -0.001175 -0.003027 0.005427 0.000000 0.001990 0.000000
# 4 0.000000 0.000000 0.000000 2.058872 0.000000 -2.843174
# 5 0.006995 -0.004415 0.001990 0.000000 0.026207 0.000000
# 6 0.000000 0.000000 0.000000 -2.843174 0.000000 3.969883
#
#
# Mechanical properties :
#
#
# Convention : Reuss Voigt Hill
#
# Bulk Modulus (GPa) = 43.16285 68.81440 55.98863
# Shear Modulus (GPa) = 0.81868 44.25843 22.53855
#
# Velocity S-wave (km/s) = 0.53651 3.94477 2.81505
# Velocity P-wave (km/s) = 3.94459 6.70397 5.50014
#
# Compressibility (1/GPa) = 0.02316807
#
# Stress axis : x y z
#
# Youngs Moduli (GPa) = 53.87884 100.44266 184.26341
#
# Poissons Ratio (x) = 0.11907 0.21652
# Poissons Ratio (y) = 0.06387 0.55776
# Poissons Ratio (z) = 0.06331 0.30404
#
# Static dielectric constant tensor:
#      x y z
#    x 2.511840 0.000000 0.041980 
#    y 0.000000 2.208650 0.000000 
#    z 0.041980 0.000000 2.128690 
# 
# From -- ./inp_files/85242.got.cif
#   From: 2010.05.17/outbox.cif.g08.bks.cpg/sg15_43_cif.got.tgz:85242.got - 2010.06.03 18:47:42.
