data_PCOD9258156
_publ_section_title
;
Structure prediction by ZEFSAII (Michael W. Deem and Ramdas Pophale) SiO2 
 PCOD9258156
Probable space group: C 2/C
;
_chemical_formula_sum "Si O2"
_cell_formula_units_Z 52
_cell_length_a 22.108287
_cell_length_b 7.175782
_cell_length_c 14.886996
_cell_angle_alpha 90.000000
_cell_angle_beta 118.318974
_cell_angle_gamma 90.000000
_cell_volume 2079.084410
_symmetry_space_group_name_H-M "C 2/C"
_symmetry_group_IT_number 15
_symmetry_cell_setting 'monoclinic'
loop_
_space_group_symop_operation_xyz
x,y,z
-x,y,1/2-z
-x,-y,-z
x,-y,1/2+z
1/2+x,1/2+y,z
1/2-x,1/2+y,1/2-z
1/2-x,1/2-y,-z
1/2+x,1/2-y,1/2+z
loop_
_atom_site_type_symbol
_atom_site_label
_atom_site_fract_x
_atom_site_fract_y
_atom_site_fract_z
Si Si1 0.299547 0.216228 0.742574
Si Si2 0.946291 0.239777 0.396400
Si Si3 0.179010 0.710583 0.291132
Si Si4 0.222625 0.013227 0.441804
Si Si5 0.500000 0.741419 0.250000
Si Si6 0.443534 0.177183 0.405699
Si Si7 0.633254 0.811947 0.457586
O O1 0.365273 0.279196 0.846993
O O2 0.232840 0.211817 0.756285
O O3 0.291683 0.358055 0.655925
O O4 0.313391 0.010716 0.714194
O O5 0.973173 0.147829 0.323362
O O6 0.959694 0.463740 0.390561
O O7 0.989947 0.208103 0.516678
O O8 0.102707 0.759423 0.205147
O O9 0.199281 0.809549 0.397003
O O10 0.303539 0.046949 0.512659
O O11 0.171993 0.111127 0.477495
O O12 0.571285 0.831343 0.341093
O O13 0.397702 0.166854 0.464644
#
# Coordination Sequence:
#
# PCOD9258156 Si02
#       7
#     8   8   8   8   4   8   8
#     4  11  19  35  59  89 119 160 195 250 293 360
#     4   9  18  32  57  91 117 158 206 237 301 356
#     4  11  21  36  64  90 120 155 207 248 303 357
#     4  11  21  37  59  89 120 157 200 252 305 359
#     4  10  18  32  62  88 118 166 202 244 300 362
#     4   9  18  35  58  86 121 155 200 253 292 359
#     4  10  20  36  59  89 118 164 202 244 309 366
#
# _framework density 25.011009999999999
#
# number of rings (size 3 to 8) (size 9 to 14) (size 15 to 20)
#    0.000    1.846    4.615    0.923    0.000    0.000 
#    0.000    3.846    3.385    3.692    0.000    0.000 
#    0.000    0.000    0.000    0.000    0.000    0.000 
#
# Total GULP energy -145309.763103 kJ/mol
# GULP energy per Si atom -5588.837042 kJ/mol
# Density = 2.495408 g / cm^3
# Si number density = 25.011010 Si / 1000 Ang^3
#
#
#
# Elastic Constant Matrix: (Units=GPa)
#
#
# Indices 1 2 3 4 5 6 
#
# 1 74.2461 31.1537 26.9575 0.0000 29.2879 0.0000
# 2 31.1537 89.4348 25.5206 0.0000 3.4064 0.0000
# 3 26.9575 25.5206 145.9307 0.0000 54.1163 0.0000
# 4 0.0000 0.0000 0.0000 31.1656 0.0000 -12.3311
# 5 29.2879 3.4064 54.1163 0.0000 61.5372 0.0000
# 6 0.0000 0.0000 0.0000 -12.3311 0.0000 9.6456
#
#
#
# Elastic Compliance Matrix: (Units=1/GPa)
#
#
# Indices 1 2 3 4 5 6 
#
# 1 0.019955 -0.006943 0.001347 0.000000 -0.010297 0.000000
# 2 -0.006943 0.014308 -0.003192 0.000000 0.005320 0.000000
# 3 0.001347 -0.003192 0.010884 0.000000 -0.010035 0.000000
# 4 0.000000 0.000000 0.000000 0.064930 0.000000 0.083007
# 5 -0.010297 0.005320 -0.010035 0.000000 0.029682 0.000000
# 6 0.000000 0.000000 0.000000 0.083007 0.000000 0.209793
#
#
# Mechanical properties :
#
#
# Convention : Reuss Voigt Hill
#
# Bulk Modulus (GPa) = 36.27311 52.98614 44.62962
# Shear Modulus (GPa) = 13.28659 35.53500 24.41079
#
# Velocity S-wave (km/s) = 2.30734 3.77341 3.12749
# Velocity P-wave (km/s) = 4.65110 6.34160 5.56097
#
# Compressibility (1/GPa) = 0.02756863
#
# Stress axis : x y z
#
# Youngs Moduli (GPa) = 50.11248 69.88960 91.88185
#
# Poissons Ratio (x) = 0.48526 -0.12372
# Poissons Ratio (y) = 0.34794 0.29333
# Poissons Ratio (z) = -0.06748 0.22312
#
# Static dielectric constant tensor:
#      x y z
#    x 1.944300 0.000000 0.048220 
#    y 0.000000 2.021970 0.000000 
#    z 0.048220 0.000000 2.036760 
# 
# From -- ./inp_files/172032.got.cif
#   From: 2010.05.17/outbox.cif.g08.bks.cpg/sg15_87_cif.got.tgz:172032.got - 2010.06.03 18:47:42.
