data_PCOD9258092
_publ_section_title
;
Structure prediction by ZEFSAII (Michael W. Deem and Ramdas Pophale) SiO2 
 PCOD9258092
Probable space group: C 2/C
;
_chemical_formula_sum "Si O2"
_cell_formula_units_Z 40
_cell_length_a 8.541705
_cell_length_b 16.796472
_cell_length_c 13.078811
_cell_angle_alpha 90.000000
_cell_angle_beta 114.389700
_cell_angle_gamma 90.000000
_cell_volume 1708.967698
_symmetry_space_group_name_H-M "C 2/C"
_symmetry_group_IT_number 15
_symmetry_cell_setting 'monoclinic'
loop_
_space_group_symop_operation_xyz
x,y,z
-x,y,1/2-z
-x,-y,-z
x,-y,1/2+z
1/2+x,1/2+y,z
1/2-x,1/2+y,1/2-z
1/2-x,1/2-y,-z
1/2+x,1/2-y,1/2+z
loop_
_atom_site_type_symbol
_atom_site_label
_atom_site_fract_x
_atom_site_fract_y
_atom_site_fract_z
Si Si1 0.528217 0.772877 0.470420
Si Si2 0.333621 0.657986 0.140824
Si Si3 0.790069 0.495680 0.452153
Si Si4 0.161340 0.410255 0.348382
Si Si5 0.191423 0.164488 0.816532
O O1 0.600907 0.688952 0.452317
O O2 0.646214 0.799612 0.597945
O O3 0.577928 0.842517 0.400381
O O4 0.324322 0.773901 0.404086
O O5 0.500000 0.682244 0.250000
O O6 0.293895 0.565433 0.138579
O O7 0.749076 0.524945 0.555983
O O8 0.714694 0.412331 0.396652
O O9 0.000000 0.500000 0.500000
O O10 0.259023 0.367883 0.282923
O O11 0.000000 0.452100 0.250000
O O12 0.000000 0.194059 0.750000
#
# Coordination Sequence:
#
# PCOD9258092 Si02
#       5
#     8   8   8   8   8
#     4   9  19  35  58  86 112 154 211 244 287 368
#     4  10  18  32  59  87 111 155 205 249 288 359
#     4  11  19  34  56  90 120 151 204 255 300 362
#     4   9  17  33  56  80 116 159 195 248 297 360
#     4  11  21  35  57  87 120 162 197 249 310 361
#
# _framework density 23.405942
#
# number of rings (size 3 to 8) (size 9 to 14) (size 15 to 20)
#    0.000    2.000    6.000    2.400    0.000    0.800 
#    0.000    0.000    0.000   19.200   20.800    0.000 
#    0.000    0.000    0.000    0.000    0.000    0.000 
#
# Total GULP energy -111418.256356 kJ/mol
# GULP energy per Si atom -5570.912818 kJ/mol
# Density = 2.335267 g / cm^3
# Si number density = 23.405942 Si / 1000 Ang^3
#
#
#
# Elastic Constant Matrix: (Units=GPa)
#
#
# Indices 1 2 3 4 5 6 
#
# 1 81.6641 9.0270 48.9942 0.0000 40.4786 0.0000
# 2 9.0270 67.8665 -1.8427 0.0000 9.9322 0.0000
# 3 48.9942 -1.8427 125.1494 0.0000 37.4199 0.0000
# 4 0.0000 0.0000 0.0000 10.4626 0.0000 3.8384
# 5 40.4786 9.9322 37.4199 0.0000 65.8986 0.0000
# 6 0.0000 0.0000 0.0000 3.8384 0.0000 24.9185
#
#
#
# Elastic Compliance Matrix: (Units=1/GPa)
#
#
# Indices 1 2 3 4 5 6 
#
# 1 0.020024 -0.001460 -0.005118 0.000000 -0.009174 0.000000
# 2 -0.001460 0.015297 0.001467 0.000000 -0.002242 0.000000
# 3 -0.005118 0.001467 0.011011 0.000000 -0.003330 0.000000
# 4 0.000000 0.000000 0.000000 0.101304 0.000000 -0.015605
# 5 -0.009174 -0.002242 -0.003330 0.000000 0.023039 0.000000
# 6 0.000000 0.000000 0.000000 -0.015605 0.000000 0.042535
#
#
# Mechanical properties :
#
#
# Convention : Reuss Voigt Hill
#
# Bulk Modulus (GPa) = 27.69192 43.00413 35.34802
# Shear Modulus (GPa) = 21.23432 34.82270 28.02851
#
# Velocity S-wave (km/s) = 3.01528 3.86135 3.46424
# Velocity P-wave (km/s) = 4.89687 6.18814 5.57998
#
# Compressibility (1/GPa) = 0.03611162
#
# Stress axis : x y z
#
# Youngs Moduli (GPa) = 49.93942 65.37270 90.81583
#
# Poissons Ratio (x) = 0.09543 0.46477
# Poissons Ratio (y) = 0.07290 -0.13323
# Poissons Ratio (z) = 0.25557 -0.09591
#
# Static dielectric constant tensor:
#      x y z
#    x 1.999340 0.000000 0.018670 
#    y 0.000000 1.840270 0.000000 
#    z 0.018670 0.000000 2.010000 
# 
# From -- ./inp_files/135344.got.cif
#   From: 2010.05.17/outbox.cif.g08.bks.cpg/sg15_68_cif.got.tgz:135344.got - 2010.06.03 18:47:42.
