data_PCOD9258687
_publ_section_title
;
Structure prediction by ZEFSAII (Michael W. Deem and Ramdas Pophale) SiO2 
 PCOD9258687
Probable space group: C 2/C
;
_chemical_formula_sum "Si O2"
_cell_formula_units_Z 64
_cell_length_a 13.536084
_cell_length_b 20.683777
_cell_length_c 12.548042
_cell_angle_alpha 90.000000
_cell_angle_beta 66.166412
_cell_angle_gamma 90.000000
_cell_volume 3213.574879
_symmetry_space_group_name_H-M "C 2/C"
_symmetry_group_IT_number 15
_symmetry_cell_setting 'monoclinic'
loop_
_space_group_symop_operation_xyz
x,y,z
-x,y,1/2-z
-x,-y,-z
x,-y,1/2+z
1/2+x,1/2+y,z
1/2-x,1/2+y,1/2-z
1/2-x,1/2-y,-z
1/2+x,1/2-y,1/2+z
loop_
_atom_site_type_symbol
_atom_site_label
_atom_site_fract_x
_atom_site_fract_y
_atom_site_fract_z
Si Si1 0.303899 0.314798 0.524606
Si Si2 0.726699 0.913354 0.187689
Si Si3 0.192345 0.717905 0.269998
Si Si4 0.625100 0.359277 0.216494
Si Si5 0.337933 0.772351 0.374406
Si Si6 0.586890 0.009454 0.616206
Si Si7 0.503617 0.770044 0.482281
Si Si8 0.429969 0.090228 0.553150
O O1 0.250000 0.250000 0.500000
O O2 0.227225 0.329852 0.659624
O O3 0.316610 0.366481 0.424194
O O4 0.423886 0.289945 0.509836
O O5 0.839751 0.899859 0.195053
O O6 0.681936 0.846366 0.154730
O O7 0.701303 0.968029 0.113060
O O8 0.655967 0.931197 0.321803
O O9 0.155984 0.786099 0.235259
O O10 0.302364 0.730221 0.288490
O O11 0.092636 0.707554 0.394494
O O12 0.500000 0.365892 0.250000
O O13 0.250000 0.750000 0.500000
O O14 0.449297 0.762693 0.389338
O O15 0.500000 0.006854 0.750000
O O16 0.542992 0.064275 0.552968
O O17 0.586425 0.943634 0.551666
O O18 0.577523 0.833146 0.446279
#
# Coordination Sequence:
#
# PCOD9258687 Si02
#       8
#     8   8   8   8   8   8   8   8
#     4  10  20  31  44  70 110 145 178 220 258 321
#     4  10  19  35  57  72 107 145 178 227 277 327
#     4   9  19  31  46  72 111 143 180 224 256 318
#     4  10  18  34  51  73 103 142 184 221 260 330
#     4   9  18  30  50  80 104 142 191 211 257 334
#     4   9  19  36  52  77 110 135 180 239 275 335
#     4  11  18  31  51  74 109 151 175 224 269 326
#     4  10  19  32  54  81 104 141 185 220 284 335
#
# _framework density 19.915516
#
# number of rings (size 3 to 8) (size 9 to 14) (size 15 to 20)
#    0.000    2.250    2.500    2.250    0.000    1.500 
#    6.750    0.000    0.000    0.750    0.000    0.000 
#    0.000    0.000    0.000    0.000    0.000    0.000 
#
# Total GULP energy -178185.063706 kJ/mol
# GULP energy per Si atom -5568.283241 kJ/mol
# Density = 1.987019 g / cm^3
# Si number density = 19.915516 Si / 1000 Ang^3
#
#
#
# Elastic Constant Matrix: (Units=GPa)
#
#
# Indices 1 2 3 4 5 6 
#
# 1 138.8062 14.3212 26.8440 0.0000 27.3350 0.0000
# 2 14.3212 15.5123 1.8907 0.0000 13.2591 0.0000
# 3 26.8440 1.8907 88.2078 0.0000 10.9620 0.0000
# 4 0.0000 0.0000 0.0000 23.9150 0.0000 6.0036
# 5 27.3350 13.2591 10.9620 0.0000 31.5128 0.0000
# 6 0.0000 0.0000 0.0000 6.0036 0.0000 17.2922
#
#
#
# Elastic Compliance Matrix: (Units=1/GPa)
#
#
# Indices 1 2 3 4 5 6 
#
# 1 0.009060 -0.003109 -0.001961 0.000000 -0.005868 0.000000
# 2 -0.003109 0.102634 0.003949 0.000000 -0.041860 0.000000
# 3 -0.001961 0.003949 0.012379 0.000000 -0.004266 0.000000
# 4 0.000000 0.000000 0.000000 0.045807 0.000000 -0.015904
# 5 -0.005868 -0.041860 -0.004266 0.000000 0.055920 0.000000
# 6 0.000000 0.000000 0.000000 -0.015904 0.000000 0.063351
#
#
# Mechanical properties :
#
#
# Convention : Reuss Voigt Hill
#
# Bulk Modulus (GPa) = 8.20824 36.51533 22.36179
# Shear Modulus (GPa) = 15.06000 27.84203 21.45102
#
# Velocity S-wave (km/s) = 2.75288 3.74305 3.28548
# Velocity P-wave (km/s) = 3.77292 6.08732 5.06411
#
# Compressibility (1/GPa) = 0.12182877
#
# Stress axis : x y z
#
# Youngs Moduli (GPa) = 110.37470 9.74340 80.77996
#
# Poissons Ratio (x) = 0.03030 0.15843
# Poissons Ratio (y) = 0.34319 -0.31896
# Poissons Ratio (z) = 0.21647 -0.03847
#
# Static dielectric constant tensor:
#      x y z
#    x 1.770830 0.000000 0.057710 
#    y 0.000000 1.703520 0.000000 
#    z 0.057710 0.000000 1.689830 
# 
# From -- ./inp_files/99773.got.cif
#   From: 2010.05.17/outbox.cif.g08.bks.cpg/sg15_50_cif.got.tgz:99773.got - 2010.06.03 18:47:42.
