data_PCOD9258994
_publ_section_title
;
Structure prediction by ZEFSAII (Michael W. Deem and Ramdas Pophale) SiO2 
 PCOD9258994
Probable space group: C 2/C
;
_chemical_formula_sum "Si O2"
_cell_formula_units_Z 60
_cell_length_a 21.479199
_cell_length_b 8.623587
_cell_length_c 31.797918
_cell_angle_alpha 90.000000
_cell_angle_beta 154.675433
_cell_angle_gamma 90.000000
_cell_volume 2519.359461
_symmetry_space_group_name_H-M "C 2/C"
_symmetry_group_IT_number 15
_symmetry_cell_setting 'monoclinic'
loop_
_space_group_symop_operation_xyz
x,y,z
-x,y,1/2-z
-x,-y,-z
x,-y,1/2+z
1/2+x,1/2+y,z
1/2-x,1/2+y,1/2-z
1/2-x,1/2-y,-z
1/2+x,1/2-y,1/2+z
loop_
_atom_site_type_symbol
_atom_site_label
_atom_site_fract_x
_atom_site_fract_y
_atom_site_fract_z
Si Si1 0.000000 0.391765 0.750000
Si Si2 0.983319 0.908187 0.691648
Si Si3 0.778819 0.364508 0.479477
Si Si4 0.961621 0.419224 0.146339
Si Si5 0.194747 0.978415 0.156442
Si Si6 0.320273 0.813946 0.796602
Si Si7 0.252705 0.570560 0.691372
Si Si8 0.309468 0.290175 0.914594
O O1 0.073866 0.495404 0.831327
O O2 0.132332 0.298196 0.810496
O O3 0.930223 0.761397 0.632295
O O4 0.000000 0.855758 0.750000
O O5 0.870594 0.049909 0.623526
O O6 0.135771 0.957891 0.764308
O O7 0.750000 0.250000 0.500000
O O8 0.881943 0.498289 0.559693
O O9 0.851376 0.266246 0.486346
O O10 0.131674 0.453633 0.243494
O O11 0.155409 0.810681 0.150658
O O12 0.178330 0.108163 0.183720
O O13 0.146153 0.050556 0.081770
O O14 0.353195 0.697324 0.777694
O O15 0.348379 0.975390 0.838162
O O16 0.158572 0.657148 0.599195
#
# Coordination Sequence:
#
# PCOD9258994 Si02
#       8
#     4   8   8   8   8   8   8   8
#     4  10  18  34  58  82 118 160 198 236 296 362
#     4  12  23  39  62  92 124 159 202 246 303 368
#     4  12  25  37  56  89 128 166 195 240 311 373
#     4  11  22  37  57  89 124 158 196 248 304 360
#     4   9  19  34  61  86 115 152 204 261 300 351
#     4   9  18  34  59  95 109 148 211 265 291 345
#     4  10  19  35  62  91 118 150 205 255 300 352
#     4  10  19  34  55  84 117 156 198 241 295 363
#
# _framework density 23.815577000000001
#
# number of rings (size 3 to 8) (size 9 to 14) (size 15 to 20)
#    0.000    1.600    4.667    1.200    3.733    0.000 
#    0.000    0.000    0.000    8.000    0.000    0.000 
#    0.000    0.000    0.000    0.000    0.000    0.000 
#
# Total GULP energy -167039.443222 kJ/mol
# GULP energy per Si atom -5567.981441 kJ/mol
# Density = 2.376137 g / cm^3
# Si number density = 23.815577 Si / 1000 Ang^3
#
#
#
# Elastic Constant Matrix: (Units=GPa)
#
#
# Indices 1 2 3 4 5 6 
#
# 1 97.4880 43.3119 33.1579 -0.0005 -20.6599 0.0000
# 2 43.3119 112.9909 26.5574 0.0004 -13.3264 -0.0010
# 3 33.1579 26.5574 44.2664 -0.0036 -20.2376 0.0000
# 4 -0.0005 0.0004 -0.0036 37.7254 -0.0013 -17.4927
# 5 -20.6599 -13.3264 -20.2376 -0.0013 42.6513 0.0001
# 6 0.0000 -0.0010 0.0000 -17.4927 0.0001 37.0553
#
#
#
# Elastic Compliance Matrix: (Units=1/GPa)
#
#
# Indices 1 2 3 4 5 6 
#
# 1 0.015109 -0.003617 -0.008069 -0.000001 0.002360 0.000000
# 2 -0.003617 0.011173 -0.004085 -0.000001 -0.000199 0.000000
# 3 -0.008069 -0.004085 0.036669 0.000005 0.012214 0.000002
# 4 -0.000001 -0.000001 0.000005 0.033936 0.000003 0.016020
# 5 0.002360 -0.000199 0.012214 0.000003 0.030323 0.000001
# 6 0.000000 0.000000 0.000002 0.016020 0.000001 0.034549
#
#
# Mechanical properties :
#
#
# Convention : Reuss Voigt Hill
#
# Bulk Modulus (GPa) = 31.83658 51.19996 41.51827
# Shear Modulus (GPa) = 24.53736 33.60094 29.06915
#
# Velocity S-wave (km/s) = 3.21332 3.76024 3.49749
# Velocity P-wave (km/s) = 5.21193 6.35592 5.81214
#
# Compressibility (1/GPa) = 0.03141041
#
# Stress axis : x y z
#
# Youngs Moduli (GPa) = 66.18559 89.49839 27.27065
#
# Poissons Ratio (x) = 0.32370 0.22004
# Poissons Ratio (y) = 0.23938 0.11141
# Poissons Ratio (z) = 0.53402 0.36563
#
# Static dielectric constant tensor:
#      x y z
#    x 1.943810 0.000000 0.033010 
#    y 0.000000 1.928340 0.000000 
#    z 0.033010 0.000000 2.004460 
# 
# From -- ./inp_files/171849.got.cif
#   From: 2010.05.17/outbox.cif.g08.bks.cpg/sg15_86_cif.got.tgz:171849.got - 2010.06.03 18:47:42.
