data_PCOD9258380
_publ_section_title
;
Structure prediction by ZEFSAII (Michael W. Deem and Ramdas Pophale) SiO2 
 PCOD9258380
Probable space group: C 2/C
;
_chemical_formula_sum "Si O2"
_cell_formula_units_Z 60
_cell_length_a 15.327376
_cell_length_b 18.305397
_cell_length_c 9.468836
_cell_angle_alpha 90.000000
_cell_angle_beta 113.203929
_cell_angle_gamma 90.000000
_cell_volume 2441.800942
_symmetry_space_group_name_H-M "C 2/C"
_symmetry_group_IT_number 15
_symmetry_cell_setting 'monoclinic'
loop_
_space_group_symop_operation_xyz
x,y,z
-x,y,1/2-z
-x,-y,-z
x,-y,1/2+z
1/2+x,1/2+y,z
1/2-x,1/2+y,1/2-z
1/2-x,1/2-y,-z
1/2+x,1/2-y,1/2+z
loop_
_atom_site_type_symbol
_atom_site_label
_atom_site_fract_x
_atom_site_fract_y
_atom_site_fract_z
Si Si1 0.357895 0.502271 0.608598
Si Si2 0.491165 0.723162 0.018471
Si Si3 0.309998 0.254958 0.876419
Si Si4 0.000000 0.104358 0.250000
Si Si5 0.338488 0.358361 0.228144
Si Si6 0.807647 0.531521 0.705376
Si Si7 0.133173 0.668712 0.874499
Si Si8 0.257452 0.896860 0.801801
O O1 0.442238 0.451406 0.610717
O O2 0.388181 0.584336 0.656094
O O3 0.259605 0.500482 0.461409
O O4 0.332353 0.449768 0.726771
O O5 0.584109 0.747829 0.992136
O O6 0.532781 0.663758 0.154462
O O7 0.443731 0.788727 0.079313
O O8 0.409788 0.684793 0.874705
O O9 0.230469 0.200766 0.884695
O O10 0.330385 0.219997 0.729427
O O11 0.265742 0.334361 0.822653
O O12 0.265576 0.414435 0.259556
O O13 0.887242 0.588395 0.705064
O O14 0.835001 0.458116 0.806979
O O15 0.215646 0.645737 0.037891
#
# Coordination Sequence:
#
# PCOD9258380 Si02
#       8
#     8   8   8   4   8   8   8   8
#     4  10  20  35  51  82 123 146 181 229 288 348
#     4  12  20  32  58  91 113 141 186 241 287 325
#     4  11  20  33  57  86 113 142 191 231 278 333
#     4  12  20  30  56  92 116 142 176 232 294 344
#     4  10  22  35  55  85 115 151 186 233 282 336
#     4   9  20  33  56  80 113 152 185 227 289 340
#     4  10  19  33  56  83 116 142 188 238 279 325
#     4  10  18  33  55  82 110 151 182 231 283 332
#
# _framework density 24.572028
#
# number of rings (size 3 to 8) (size 9 to 14) (size 15 to 20)
#    0.000    1.600    5.333    0.400    1.867    1.600 
#    0.000    0.667    0.000   21.600    0.000    0.000 
#    0.000    0.000    0.000    0.000    0.000    0.000 
#
# Total GULP energy -167237.510166 kJ/mol
# GULP energy per Si atom -5574.583672 kJ/mol
# Density = 2.451610 g / cm^3
# Si number density = 24.572028 Si / 1000 Ang^3
#
#
#
# Elastic Constant Matrix: (Units=GPa)
#
#
# Indices 1 2 3 4 5 6 
#
# 1 53.9266 31.3889 -0.8818 0.0000 9.2989 0.0000
# 2 31.3889 176.3013 34.0540 0.0000 12.7955 0.0000
# 3 -0.8818 34.0540 60.3855 0.0000 3.2697 0.0000
# 4 0.0000 0.0000 0.0000 23.3565 0.0000 -9.4158
# 5 9.2989 12.7955 3.2697 0.0000 23.1786 0.0000
# 6 0.0000 0.0000 0.0000 -9.4158 0.0000 30.6406
#
#
#
# Elastic Compliance Matrix: (Units=1/GPa)
#
#
# Indices 1 2 3 4 5 6 
#
# 1 0.022144 -0.004000 0.002963 0.000000 -0.007094 0.000000
# 2 -0.004000 0.007307 -0.004079 0.000000 -0.001853 0.000000
# 3 0.002963 -0.004079 0.018991 0.000000 -0.001616 0.000000
# 4 0.000000 0.000000 0.000000 0.048869 0.000000 0.015017
# 5 -0.007094 -0.001853 -0.001616 0.000000 0.047240 0.000000
# 6 0.000000 0.000000 0.000000 0.015017 0.000000 0.037251
#
#
# Mechanical properties :
#
#
# Convention : Reuss Voigt Hill
#
# Bulk Modulus (GPa) = 26.17066 46.63727 36.40397
# Shear Modulus (GPa) = 24.41776 30.50530 27.46153
#
# Velocity S-wave (km/s) = 3.15576 3.52726 3.34667
# Velocity P-wave (km/s) = 4.89409 5.96740 5.45719
#
# Compressibility (1/GPa) = 0.03821073
#
# Stress axis : x y z
#
# Youngs Moduli (GPa) = 45.15963 136.86242 52.65612
#
# Poissons Ratio (x) = 0.54746 -0.15603
# Poissons Ratio (y) = 0.18064 0.21476
# Poissons Ratio (z) = -0.13382 0.55820
#
# Static dielectric constant tensor:
#      x y z
#    x 2.296440 0.000000 -0.067850 
#    y 0.000000 1.964270 0.000000 
#    z -0.067850 0.000000 2.051380 
# 
# From -- ./inp_files/106717.got.cif
#   From: 2010.05.17/outbox.cif.g08.bks.cpg/sg15_54_cif.got.tgz:106717.got - 2010.06.03 18:47:42.
