data_PCOD9258666
_publ_section_title
;
Structure prediction by ZEFSAII (Michael W. Deem and Ramdas Pophale) SiO2 
 PCOD9258666
Probable space group: C 2/C
;
_chemical_formula_sum "Si O2"
_cell_formula_units_Z 60
_cell_length_a 16.674785
_cell_length_b 8.877162
_cell_length_c 22.710174
_cell_angle_alpha 90.000000
_cell_angle_beta 54.842455
_cell_angle_gamma 90.000000
_cell_volume 2748.405143
_symmetry_space_group_name_H-M "C 2/C"
_symmetry_group_IT_number 15
_symmetry_cell_setting 'monoclinic'
loop_
_space_group_symop_operation_xyz
x,y,z
-x,y,1/2-z
-x,-y,-z
x,-y,1/2+z
1/2+x,1/2+y,z
1/2-x,1/2+y,1/2-z
1/2-x,1/2-y,-z
1/2+x,1/2-y,1/2+z
loop_
_atom_site_type_symbol
_atom_site_label
_atom_site_fract_x
_atom_site_fract_y
_atom_site_fract_z
Si Si1 0.854439 0.946928 0.727028
Si Si2 0.633842 0.402321 0.912595
Si Si3 0.884279 0.694092 0.796889
Si Si4 0.494581 0.871757 0.453203
Si Si5 0.861853 0.579734 0.167661
Si Si6 0.680383 0.730313 0.931658
Si Si7 0.650565 0.841561 0.695206
Si Si8 0.500000 0.618858 0.750000
O O1 0.877510 0.960393 0.649369
O O2 0.851258 0.773744 0.750293
O O3 0.744268 0.002609 0.785949
O O4 0.937399 0.022254 0.731329
O O5 0.550743 0.276368 0.954254
O O6 0.648522 0.553862 0.944676
O O7 0.737690 0.316918 0.869170
O O8 0.798930 0.749443 0.878678
O O9 0.872845 0.515939 0.804593
O O10 0.000000 0.726581 0.750000
O O11 0.382250 0.818953 0.492640
O O12 0.500000 0.000000 0.500000
O O13 0.552479 0.955344 0.375999
O O14 0.856764 0.692481 0.114077
O O15 0.866661 0.671129 0.226903
O O16 0.580155 0.732098 0.689363
#
# Coordination Sequence:
#
# PCOD9258666 Si02
#       8
#     8   8   8   8   8   8   8   4
#     4  10  20  32  55  82 111 143 180 229 289 333
#     4  10  19  35  54  82 112 140 183 237 277 327
#     4  10  18  34  49  76 105 147 180 226 276 334
#     4  10  19  33  55  84 108 147 183 232 270 328
#     4   9  18  35  53  81 111 140 182 231 281 333
#     4   9  19  31  54  81 104 141 190 227 272 333
#     4  10  20  32  55  82 111 142 180 230 289 328
#     4  12  20  30  50  90 114 140 178 230 290 338
#
# _framework density 21.830842000000001
#
# number of rings (size 3 to 8) (size 9 to 14) (size 15 to 20)
#    0.000    2.133    1.333    2.800    0.000    4.267 
#    0.000    0.000    0.000    3.200    0.000   14.933 
#    0.000    0.000    0.000    0.000    0.000    0.000 
#
# Total GULP energy -167179.133998 kJ/mol
# GULP energy per Si atom -5572.637800 kJ/mol
# Density = 2.178115 g / cm^3
# Si number density = 21.830842 Si / 1000 Ang^3
#
#
#
# Elastic Constant Matrix: (Units=GPa)
#
#
# Indices 1 2 3 4 5 6 
#
# 1 53.4234 15.9568 22.6437 0.0001 -34.3112 0.0005
# 2 15.9568 83.7023 28.5639 0.0002 -17.7068 0.0010
# 3 22.6437 28.5639 77.0312 0.0000 -34.2198 0.0002
# 4 0.0001 0.0002 0.0000 -0.1443 0.0000 -121.3648
# 5 -34.3112 -17.7068 -34.2198 0.0000 31.9109 0.0000
# 6 0.0005 0.0010 0.0002 -121.3648 0.0000 -512.9717
#
#
#
# Elastic Compliance Matrix: (Units=1/GPa)
#
#
# Indices 1 2 3 4 5 6 
#
# 1 0.086457 -0.000335 0.030409 0.000000 0.125384 0.000000
# 2 -0.000335 0.013967 -0.003433 0.000000 0.003708 0.000000
# 3 0.030409 -0.003433 0.036275 0.000000 0.069691 0.000000
# 4 0.000000 0.000000 0.000000 0.035002 0.000000 -0.008281
# 5 0.125384 0.003708 0.069691 0.000000 0.242944 0.000000
# 6 0.000000 0.000000 0.000000 -0.008281 0.000000 0.000010
#
#
# Mechanical properties :
#
#
# Convention : Reuss Voigt Hill
#
# Bulk Modulus (GPa) = 5.26368 38.72064 21.99216
# Shear Modulus (GPa) = 11.77302 -86.44152 -37.33425
#
# Velocity S-wave (km/s) = 2.32477 -6.29937 -4.13990
# Velocity P-wave (km/s) = 3.10200 5.92741 3.57154
#
# Compressibility (1/GPa) = 0.18998115
#
# Stress axis : x y z
#
# Youngs Moduli (GPa) = 11.56643 71.59704 27.56725
#
# Poissons Ratio (x) = 0.02398 -0.83830
# Poissons Ratio (y) = 0.00387 0.09465
# Poissons Ratio (z) = -0.35173 0.24582
#
# Static dielectric constant tensor:
#      x y z
#    x 1.826740 0.000000 -0.025760 
#    y 0.000000 1.852480 0.000000 
#    z -0.025760 0.000000 1.875240 
# 
# From -- ./inp_files/276584.got.cif
#   From: 2010.05.17/outbox.cif.g08.bks.cpg/sg15_139_cif.got.tgz:276584.got - 2010.06.03 18:47:42.
