data_PCOD9258976
_publ_section_title
;
Structure prediction by ZEFSAII (Michael W. Deem and Ramdas Pophale) SiO2 
 PCOD9258976
Probable space group: C 2/C
;
_chemical_formula_sum "Si O2"
_cell_formula_units_Z 32
_cell_length_a 21.659562
_cell_length_b 6.792564
_cell_length_c 16.484655
_cell_angle_alpha 90.000000
_cell_angle_beta 45.745761
_cell_angle_gamma 90.000000
_cell_volume 1737.113110
_symmetry_space_group_name_H-M "C 2/C"
_symmetry_group_IT_number 15
_symmetry_cell_setting 'monoclinic'
loop_
_space_group_symop_operation_xyz
x,y,z
-x,y,1/2-z
-x,-y,-z
x,-y,1/2+z
1/2+x,1/2+y,z
1/2-x,1/2+y,1/2-z
1/2-x,1/2-y,-z
1/2+x,1/2-y,1/2+z
loop_
_atom_site_type_symbol
_atom_site_label
_atom_site_fract_x
_atom_site_fract_y
_atom_site_fract_z
Si Si1 0.345443 0.371168 0.830981
Si Si2 0.011724 0.893503 0.574533
Si Si3 0.151132 0.617682 0.507444
Si Si4 0.086401 0.782937 0.129379
O O1 0.420158 0.333916 0.697483
O O2 0.363781 0.889106 0.961068
O O3 0.359768 0.591576 0.854141
O O4 0.248456 0.347677 0.888389
O O5 0.078529 0.712103 0.516535
O O6 0.052603 0.055176 0.597296
O O7 0.000000 0.000000 0.500000
O O8 0.143636 0.725840 0.602093
O O9 0.000000 0.697019 0.250000
#
# Coordination Sequence:
#
# PCOD9258976 Si02
#       4
#     8   8   8   8
#     4   9  19  34  55  80 104 132 181 228 251 304
#     4  10  21  36  49  76 117 139 165 217 268 320
#     4  10  18  34  58  79  98 140 182 217 262 301
#     4   9  17  32  56  79 100 135 178 218 260 307
#
# _framework density 18.421368000000001
#
# number of rings (size 3 to 8) (size 9 to 14) (size 15 to 20)
#    0.000    2.500    0.000    4.500    0.000    1.000 
#    4.500    0.000    0.000    0.000    0.000    0.000 
#    0.000    0.000    0.000    0.000    0.000    0.000 
#
# Total GULP energy -89216.744433 kJ/mol
# GULP energy per Si atom -5576.046527 kJ/mol
# Density = 1.837944 g / cm^3
# Si number density = 18.421368 Si / 1000 Ang^3
#
#
#
# Elastic Constant Matrix: (Units=GPa)
#
#
# Indices 1 2 3 4 5 6 
#
# 1 68.1166 2.9652 61.5651 0.0052 -21.4909 0.0025
# 2 2.9652 39.8590 14.2534 0.0119 -21.4037 0.0024
# 3 61.5651 14.2534 94.2070 0.0055 -30.0353 -0.0007
# 4 0.0052 0.0119 0.0055 21.4101 -0.0041 -5.9124
# 5 -21.4909 -21.4037 -30.0353 -0.0041 23.6841 0.0003
# 6 0.0025 0.0024 -0.0007 -5.9124 0.0003 11.3601
#
#
#
# Elastic Compliance Matrix: (Units=1/GPa)
#
#
# Indices 1 2 3 4 5 6 
#
# 1 0.042647 0.020832 -0.021290 -0.000017 0.030524 -0.000025
# 2 0.020832 0.067139 0.002685 -0.000038 0.082981 -0.000041
# 3 -0.021290 0.002685 0.031453 0.000002 0.022996 0.000006
# 4 -0.000017 -0.000038 0.000002 0.054547 -0.000039 0.028389
# 5 0.030524 0.082981 0.022996 -0.000039 0.174074 -0.000047
# 6 -0.000025 -0.000041 0.000006 0.028389 -0.000047 0.102803
#
#
# Mechanical properties :
#
#
# Convention : Reuss Voigt Hill
#
# Bulk Modulus (GPa) = 6.86382 39.97223 23.41802
# Shear Modulus (GPa) = 9.67542 19.51745 14.59644
#
# Velocity S-wave (km/s) = 2.29427 3.25853 2.81795
# Velocity P-wave (km/s) = 3.27908 5.99194 4.82989
#
# Compressibility (1/GPa) = 0.14569151
#
# Stress axis : x y z
#
# Youngs Moduli (GPa) = 23.44853 14.89458 31.79305
#
# Poissons Ratio (x) = -0.31028 0.67687
# Poissons Ratio (y) = -0.48847 -0.08535
# Poissons Ratio (z) = 0.49922 -0.03999
#
# Static dielectric constant tensor:
#      x y z
#    x 1.639240 0.000000 -0.030840 
#    y 0.000000 1.632740 0.000000 
#    z -0.030840 0.000000 1.638490 
# 
# From -- ./inp_files/159836.got.cif
#   From: 2010.05.17/outbox.cif.g08.bks.cpg/sg15_80_cif.got.tgz:159836.got - 2010.06.03 18:47:42.
