data_PCOD9258989
_publ_section_title
;
Structure prediction by ZEFSAII (Michael W. Deem and Ramdas Pophale) SiO2 
 PCOD9258989
Probable space group: C 2/C
;
_chemical_formula_sum "Si O2"
_cell_formula_units_Z 56
_cell_length_a 8.852320
_cell_length_b 17.313391
_cell_length_c 22.283732
_cell_angle_alpha 90.000000
_cell_angle_beta 123.267094
_cell_angle_gamma 90.000000
_cell_volume 2855.598192
_symmetry_space_group_name_H-M "C 2/C"
_symmetry_group_IT_number 15
_symmetry_cell_setting 'monoclinic'
loop_
_space_group_symop_operation_xyz
x,y,z
-x,y,1/2-z
-x,-y,-z
x,-y,1/2+z
1/2+x,1/2+y,z
1/2-x,1/2+y,1/2-z
1/2-x,1/2-y,-z
1/2+x,1/2-y,1/2+z
loop_
_atom_site_type_symbol
_atom_site_label
_atom_site_fract_x
_atom_site_fract_y
_atom_site_fract_z
Si Si1 0.687741 0.644403 0.827132
Si Si2 0.387079 0.007065 0.813429
Si Si3 0.538185 0.764049 0.941378
Si Si4 0.775333 0.025838 0.345818
Si Si5 0.021736 0.429432 0.957823
Si Si6 0.075086 0.096157 0.936898
Si Si7 0.855831 0.688575 0.165949
O O1 0.500000 0.644084 0.750000
O O2 0.825694 0.589429 0.824076
O O3 0.643905 0.614367 0.884128
O O4 0.749123 0.732790 0.843299
O O5 0.248904 0.980099 0.731676
O O6 0.587662 0.008278 0.830183
O O7 0.402371 0.951997 0.874434
O O8 0.475884 0.839834 0.964793
O O9 0.472875 0.675586 0.934664
O O10 0.534934 0.791849 0.871213
O O11 0.750000 0.750000 0.000000
O O12 0.772677 0.115009 0.364531
O O13 0.941212 0.975673 0.404948
O O14 0.236630 0.424270 0.989176
O O15 0.000000 0.500000 0.000000
O O16 0.000000 0.672099 0.250000
#
# Coordination Sequence:
#
# PCOD9258989 Si02
#       7
#     8   8   8   8   8   8   8
#     4  10  19  34  59  82 110 146 194 238 277 340
#     4  11  21  36  56  83 116 148 184 235 291 337
#     4   9  19  36  54  83 113 149 192 233 277 346
#     4  11  21  37  59  85 115 149 189 240 287 337
#     4  11  20  35  59  85 116 151 191 237 287 339
#     4  10  21  35  59  85 112 151 192 234 286 337
#     4  10  18  34  58  82 110 151 194 234 279 343
#
# _framework density 19.610602
#
# number of rings (size 3 to 8) (size 9 to 14) (size 15 to 20)
#    0.000    1.714    5.714    0.000    0.000    0.571 
#    0.000    1.429    0.000    1.714    0.000    0.000 
#    0.000    0.000    0.000    0.000    0.000    0.000 
#
# Total GULP energy -156032.066886 kJ/mol
# GULP energy per Si atom -5572.573817 kJ/mol
# Density = 1.956597 g / cm^3
# Si number density = 19.610602 Si / 1000 Ang^3
#
#
#
# Elastic Constant Matrix: (Units=GPa)
#
#
# Indices 1 2 3 4 5 6 
#
# 1 18.8655 40.7262 -3.1290 0.0000 -2.2011 0.0000
# 2 40.7262 197.1850 12.0390 0.0000 12.1058 0.0000
# 3 -3.1290 12.0390 56.2516 0.0000 -2.1894 0.0000
# 4 0.0000 0.0000 0.0000 29.3708 0.0000 4.7277
# 5 -2.2011 12.1058 -2.1894 0.0000 23.1496 0.0000
# 6 0.0000 0.0000 0.0000 4.7277 0.0000 33.7795
#
#
#
# Elastic Compliance Matrix: (Units=1/GPa)
#
#
# Indices 1 2 3 4 5 6 
#
# 1 0.114109 -0.025929 0.012894 0.000000 0.025628 0.000000
# 2 -0.025929 0.011218 -0.004183 0.000000 -0.008727 0.000000
# 3 0.012894 -0.004183 0.019595 0.000000 0.005267 0.000000
# 4 0.000000 0.000000 0.000000 0.034832 0.000000 -0.004875
# 5 0.025628 -0.008727 0.005267 0.000000 0.050696 0.000000
# 6 0.000000 0.000000 0.000000 -0.004875 0.000000 0.030286
#
#
# Mechanical properties :
#
#
# Convention : Reuss Voigt Hill
#
# Bulk Modulus (GPa) = 9.05082 41.28603 25.16842
# Shear Modulus (GPa) = 15.06027 32.10438 23.58232
#
# Velocity S-wave (km/s) = 2.77423 4.05049 3.47151
# Velocity P-wave (km/s) = 3.85838 6.55545 5.37871
#
# Compressibility (1/GPa) = 0.11048725
#
# Stress axis : x y z
#
# Youngs Moduli (GPa) = 8.76353 89.14434 51.03422
#
# Poissons Ratio (x) = 2.31138 -0.65804
# Poissons Ratio (y) = 0.22723 0.21346
# Poissons Ratio (z) = -0.11300 0.37287
#
# Static dielectric constant tensor:
#      x y z
#    x 1.679880 0.000000 -0.063750 
#    y 0.000000 1.764880 0.000000 
#    z -0.063750 0.000000 1.798950 
# 
# From -- ./inp_files/265584.got.cif
#   From: 2010.05.17/outbox.cif.g08.bks.cpg/sg15_133_cif.got.tgz:265584.got - 2010.06.03 18:47:42.
