data_PCOD9258010
_publ_section_title
;
Structure prediction by ZEFSAII (Michael W. Deem and Ramdas Pophale) SiO2 
 PCOD9258010
Probable space group: C 2/C
;
_chemical_formula_sum "Si O2"
_cell_formula_units_Z 56
_cell_length_a 20.778474
_cell_length_b 6.879254
_cell_length_c 18.224045
_cell_angle_alpha 90.000000
_cell_angle_beta 122.033182
_cell_angle_gamma 90.000000
_cell_volume 2208.325012
_symmetry_space_group_name_H-M "C 2/C"
_symmetry_group_IT_number 15
_symmetry_cell_setting 'monoclinic'
loop_
_space_group_symop_operation_xyz
x,y,z
-x,y,1/2-z
-x,-y,-z
x,-y,1/2+z
1/2+x,1/2+y,z
1/2-x,1/2+y,1/2-z
1/2-x,1/2-y,-z
1/2+x,1/2-y,1/2+z
loop_
_atom_site_type_symbol
_atom_site_label
_atom_site_fract_x
_atom_site_fract_y
_atom_site_fract_z
Si Si1 0.384077 0.533018 0.806037
Si Si2 0.354305 0.070043 0.815882
Si Si3 0.535831 0.619465 0.351330
Si Si4 0.514649 0.012680 0.421651
Si Si5 0.718627 0.584744 0.629928
Si Si6 0.801132 0.956546 0.611735
Si Si7 0.166344 0.310584 0.031651
O O1 0.474242 0.533793 0.845781
O O2 0.350628 0.640827 0.857032
O O3 0.333289 0.569409 0.703412
O O4 0.370066 0.299648 0.809993
O O5 0.430486 0.957813 0.838135
O O6 0.282431 0.008236 0.725451
O O7 0.338774 0.073691 0.893053
O O8 0.500000 0.675711 0.250000
O O9 0.622464 0.566928 0.388065
O O10 0.538372 0.801653 0.406962
O O11 0.500000 0.000000 0.500000
O O12 0.584371 0.154141 0.447200
O O13 0.761246 0.753278 0.610900
O O14 0.686115 0.408220 0.563645
O O15 0.735113 0.080058 0.534631
#
# Coordination Sequence:
#
# PCOD9258010 Si02
#       7
#     8   8   8   8   8   8   8
#     4   8  15  29  53  80 109 147 192 244 284 342
#     4   8  15  29  53  81 106 150 193 234 286 345
#     4   9  18  34  57  83 117 159 196 240 302 359
#     4   9  18  34  57  84 119 157 197 238 299 361
#     4  10  18  32  57  88 114 147 205 249 283 354
#     4  10  19  31  54  84 112 154 191 239 303 348
#     4  10  19  31  54  84 114 151 194 246 292 347
#
# _framework density 25.358585000000001
#
# number of rings (size 3 to 8) (size 9 to 14) (size 15 to 20)
#    0.000    2.857    1.429    1.714    0.000    0.571 
#    0.000    0.714    0.000   53.143    0.000    0.000 
#    0.000    0.000    0.000    0.000    0.000    0.000 
#
# Total GULP energy -156648.699792 kJ/mol
# GULP energy per Si atom -5594.596421 kJ/mol
# Density = 2.530087 g / cm^3
# Si number density = 25.358585 Si / 1000 Ang^3
#
#
#
# Elastic Constant Matrix: (Units=GPa)
#
#
# Indices 1 2 3 4 5 6 
#
# 1 208.8391 66.2115 56.6886 0.0000 32.2266 0.0000
# 2 66.2115 93.8256 41.0843 0.0000 13.5151 0.0000
# 3 56.6886 41.0843 86.2273 0.0000 22.5453 0.0000
# 4 0.0000 0.0000 0.0000 32.0346 0.0000 7.7344
# 5 32.2266 13.5151 22.5453 0.0000 49.7437 0.0000
# 6 0.0000 0.0000 0.0000 7.7344 0.0000 49.2517
#
#
#
# Elastic Compliance Matrix: (Units=1/GPa)
#
#
# Indices 1 2 3 4 5 6 
#
# 1 0.006893 -0.003546 -0.002186 0.000000 -0.002512 0.000000
# 2 -0.003546 0.015324 -0.005085 0.000000 0.000438 0.000000
# 3 -0.002186 -0.005085 0.016705 0.000000 -0.004774 0.000000
# 4 0.000000 0.000000 0.000000 0.032446 0.000000 -0.005095
# 5 -0.002512 0.000438 -0.004774 0.000000 0.023775 0.000000
# 6 0.000000 0.000000 0.000000 -0.005095 0.000000 0.021104
#
#
# Mechanical properties :
#
#
# Convention : Reuss Voigt Hill
#
# Bulk Modulus (GPa) = 57.83774 79.65123 68.74448
# Shear Modulus (GPa) = 34.80849 41.19985 38.00417
#
# Velocity S-wave (km/s) = 3.70895 4.03512 3.87547
# Velocity P-wave (km/s) = 6.41866 7.29299 6.86975
#
# Compressibility (1/GPa) = 0.01728975
#
# Stress axis : x y z
#
# Youngs Moduli (GPa) = 145.06475 65.25898 59.86197
#
# Poissons Ratio (x) = 0.23139 0.13085
# Poissons Ratio (y) = 0.51435 0.30438
# Poissons Ratio (z) = 0.31709 0.33182
#
# Static dielectric constant tensor:
#      x y z
#    x 2.060450 0.000000 -0.002950 
#    y 0.000000 2.029400 0.000000 
#    z -0.002950 0.000000 1.977680 
# 
# From -- ./inp_files/276351.got.cif
#   From: 2010.05.17/outbox.cif.g08.bks.cpg/sg15_139_cif.got.tgz:276351.got - 2010.06.03 18:47:42.
