data_PCOD9258760
_publ_section_title
;
Structure prediction by ZEFSAII (Michael W. Deem and Ramdas Pophale) SiO2 
 PCOD9258760
Probable space group: C 2/C
;
_chemical_formula_sum "Si O2"
_cell_formula_units_Z 60
_cell_length_a 18.134772
_cell_length_b 13.693066
_cell_length_c 17.467585
_cell_angle_alpha 90.000000
_cell_angle_beta 133.752362
_cell_angle_gamma 90.000000
_cell_volume 3133.174607
_symmetry_space_group_name_H-M "C 2/C"
_symmetry_group_IT_number 15
_symmetry_cell_setting 'monoclinic'
loop_
_space_group_symop_operation_xyz
x,y,z
-x,y,1/2-z
-x,-y,-z
x,-y,1/2+z
1/2+x,1/2+y,z
1/2-x,1/2+y,1/2-z
1/2-x,1/2-y,-z
1/2+x,1/2-y,1/2+z
loop_
_atom_site_type_symbol
_atom_site_label
_atom_site_fract_x
_atom_site_fract_y
_atom_site_fract_z
Si Si1 0.475461 0.092473 0.897324
Si Si2 0.244457 0.454189 0.276519
Si Si3 0.340538 0.922046 0.571027
Si Si4 0.533485 0.212485 0.457045
Si Si5 0.293977 0.230520 0.310179
Si Si6 0.793193 0.455386 0.904821
Si Si7 0.308030 0.633338 0.409384
Si Si8 0.000000 0.574710 0.750000
O O1 0.377977 0.024046 0.810767
O O2 0.492357 0.134755 0.823727
O O3 0.445353 0.164157 0.944134
O O4 0.581166 0.042589 0.999855
O O5 0.264658 0.341394 0.306551
O O6 0.262967 0.483823 0.201894
O O7 0.305284 0.521981 0.378421
O O8 0.413092 0.854136 0.569860
O O9 0.272752 0.859382 0.579923
O O10 0.268593 0.989880 0.465727
O O11 0.407634 0.000099 0.666186
O O12 0.411853 0.221304 0.368891
O O13 0.586144 0.318043 0.491434
O O14 0.275139 0.157187 0.368286
O O15 0.231147 0.191812 0.192854
#
# Coordination Sequence:
#
# PCOD9258760 Si02
#       8
#     8   8   8   8   8   8   8   4
#     4  10  18  34  54  83 107 137 180 229 276 308
#     4  11  19  36  55  77 110 143 185 219 267 330
#     4  11  19  32  54  85 112 138 177 231 278 314
#     4  11  22  35  56  79 116 147 179 222 271 331
#     4  10  22  36  55  83 106 147 186 220 270 323
#     4   9  20  32  56  79 107 141 177 227 274 316
#     4  11  22  35  56  83 110 147 183 221 271 323
#     4  10  20  28  56  86 104 134 176 242 278 310
#
# _framework density 19.149906000000001
#
# number of rings (size 3 to 8) (size 9 to 14) (size 15 to 20)
#    0.000    1.600    4.000    1.600    7.467    0.533 
#    0.000    0.667    0.000    0.000    0.000    0.000 
#    0.000    0.000    0.000    0.000    0.000    0.000 
#
# Total GULP energy -167037.906167 kJ/mol
# GULP energy per Si atom -5567.930206 kJ/mol
# Density = 1.910632 g / cm^3
# Si number density = 19.149906 Si / 1000 Ang^3
#
#
#
# Elastic Constant Matrix: (Units=GPa)
#
#
# Indices 1 2 3 4 5 6 
#
# 1 26.7208 -10.8655 0.0604 0.0000 -14.7880 0.0000
# 2 -10.8655 93.6044 12.9252 0.0000 -0.9386 0.0000
# 3 0.0604 12.9252 46.2865 0.0000 -11.5363 0.0000
# 4 0.0000 0.0000 0.0000 18.9965 0.0000 8.6322
# 5 -14.7880 -0.9386 -11.5363 0.0000 27.6290 0.0000
# 6 0.0000 0.0000 0.0000 8.6322 0.0000 10.2621
#
#
#
# Elastic Compliance Matrix: (Units=1/GPa)
#
#
# Indices 1 2 3 4 5 6 
#
# 1 0.059189 0.006276 0.006830 0.000000 0.034745 0.000000
# 2 0.006276 0.011803 -0.002642 0.000000 0.002657 0.000000
# 3 0.006830 -0.002642 0.025920 0.000000 0.014389 0.000000
# 4 0.000000 0.000000 0.000000 0.085213 0.000000 -0.071679
# 5 0.034745 0.002657 0.014389 0.000000 0.060889 0.000000
# 6 0.000000 0.000000 0.000000 -0.071679 0.000000 0.157740
#
#
# Mechanical properties :
#
#
# Convention : Reuss Voigt Hill
#
# Bulk Modulus (GPa) = 8.48605 18.98355 13.73480
# Shear Modulus (GPa) = 11.93014 22.34362 17.13688
#
# Velocity S-wave (km/s) = 2.49868 3.41951 2.99470
# Velocity P-wave (km/s) = 3.57289 5.05227 4.37555
#
# Compressibility (1/GPa) = 0.11784047
#
# Stress axis : x y z
#
# Youngs Moduli (GPa) = 16.89489 84.72273 38.58084
#
# Poissons Ratio (x) = -0.53171 -0.26351
# Poissons Ratio (y) = -0.10603 0.10193
# Poissons Ratio (z) = -0.11539 0.22383
#
# Static dielectric constant tensor:
#      x y z
#    x 1.762760 0.000000 -0.017470 
#    y 0.000000 1.702940 0.000000 
#    z -0.017470 0.000000 1.688410 
# 
# From -- ./inp_files/168106.got.cif
#   From: 2010.05.17/outbox.cif.g08.bks.cpg/sg15_85_cif.got.tgz:168106.got - 2010.06.03 18:47:42.
