data_PCOD9258031
_publ_section_title
;
Structure prediction by ZEFSAII (Michael W. Deem and Ramdas Pophale) SiO2 
 PCOD9258031
Probable space group: C 2/C
;
_chemical_formula_sum "Si O2"
_cell_formula_units_Z 60
_cell_length_a 22.070564
_cell_length_b 13.927009
_cell_length_c 22.166010
_cell_angle_alpha 90.000000
_cell_angle_beta 20.104896
_cell_angle_gamma 90.000000
_cell_volume 2342.010348
_symmetry_space_group_name_H-M "C 2/C"
_symmetry_group_IT_number 15
_symmetry_cell_setting 'monoclinic'
loop_
_space_group_symop_operation_xyz
x,y,z
-x,y,1/2-z
-x,-y,-z
x,-y,1/2+z
1/2+x,1/2+y,z
1/2-x,1/2+y,1/2-z
1/2-x,1/2-y,-z
1/2+x,1/2-y,1/2+z
loop_
_atom_site_type_symbol
_atom_site_label
_atom_site_fract_x
_atom_site_fract_y
_atom_site_fract_z
Si Si1 0.070037 0.235742 0.748091
Si Si2 0.500000 0.735966 0.250000
Si Si3 0.020203 0.211762 0.416125
Si Si4 0.250280 0.635903 0.568726
Si Si5 0.736302 0.131463 0.763664
Si Si6 0.604499 0.126176 0.017060
Si Si7 0.067760 0.041824 0.617079
Si Si8 0.257884 0.460460 0.820443
O O1 0.240988 0.166931 0.583902
O O2 0.000000 0.273232 0.750000
O O3 0.925004 0.154319 0.902196
O O4 0.066332 0.320759 0.799718
O O5 0.345383 0.667928 0.417284
O O6 0.431174 0.807718 0.262937
O O7 0.877432 0.181431 0.499736
O O8 0.923730 0.170078 0.566068
O O9 0.086732 0.320438 0.361888
O O10 0.195762 0.148940 0.236461
O O11 0.259420 0.521693 0.557365
O O12 0.675991 0.165055 0.886229
O O13 0.743617 0.017430 0.769794
O O14 0.606292 0.011611 0.003069
O O15 0.000000 0.030593 0.750000
O O16 0.927090 0.997800 0.700883
#
# Coordination Sequence:
#
# PCOD9258031 Si02
#       8
#     8   4   8   8   8   8   8   8
#     4  10  18  32  58  82 115 159 206 247 307 370
#     4  10  20  36  60  88 118 154 188 262 314 364
#     4  11  20  38  60  88 119 168 210 253 305 366
#     4  10  20  35  60  86 121 151 204 245 310 372
#     4  10  21  35  60  84 122 160 214 255 299 357
#     4   9  19  34  54  84 115 157 200 258 301 353
#     4   9  17  33  58  86 113 159 201 243 300 379
#     4   8  20  34  59  85 119 159 212 249 304 366
#
# _framework density 25.619015999999998
#
# number of rings (size 3 to 8) (size 9 to 14) (size 15 to 20)
#    0.800    1.600    0.667    2.400    0.000    0.000 
#    0.000    0.667   10.267    0.000    0.000    0.000 
#    0.000    0.000    0.000    0.000    0.000    0.400 
#
# Total GULP energy -167130.249433 kJ/mol
# GULP energy per Si atom -5571.008314 kJ/mol
# Density = 2.556071 g / cm^3
# Si number density = 25.619016 Si / 1000 Ang^3
#
#
#
# Elastic Constant Matrix: (Units=GPa)
#
#
# Indices 1 2 3 4 5 6 
#
# 1 77.9123 24.1383 2.5844 0.0008 -5.4374 -0.0083
# 2 24.1383 108.0403 14.2207 -0.0469 -4.0364 0.0315
# 3 2.5844 14.2207 71.7196 0.0029 8.2011 0.0125
# 4 0.0008 -0.0469 0.0029 15.7243 0.0002 -7.9842
# 5 -5.4374 -4.0364 8.2011 0.0002 29.2701 0.0051
# 6 -0.0083 0.0315 0.0125 -7.9842 0.0051 11.5440
#
#
#
# Elastic Compliance Matrix: (Units=1/GPa)
#
#
# Indices 1 2 3 4 5 6 
#
# 1 0.013927 -0.003008 -0.000159 -0.000001 0.002217 0.000016
# 2 -0.003008 0.010257 -0.002090 0.000026 0.001441 -0.000011
# 3 -0.000159 -0.002090 0.014876 -0.000020 -0.004486 -0.000023
# 4 -0.000001 0.000026 -0.000020 0.098019 -0.000003 0.067793
# 5 0.002217 0.001441 -0.004486 -0.000003 0.036032 -0.000015
# 6 0.000016 -0.000011 -0.000023 0.067793 -0.000015 0.133513
#
#
# Mechanical properties :
#
#
# Convention : Reuss Voigt Hill
#
# Bulk Modulus (GPa) = 35.03108 37.72878 36.37993
# Shear Modulus (GPa) = 15.30679 25.75628 20.53154
#
# Velocity S-wave (km/s) = 2.44699 3.17418 2.83400
# Velocity P-wave (km/s) = 4.65695 5.30968 4.99399
#
# Compressibility (1/GPa) = 0.02854608
#
# Stress axis : x y z
#
# Youngs Moduli (GPa) = 71.80406 97.49651 67.22093
#
# Poissons Ratio (x) = 0.29325 0.01069
# Poissons Ratio (y) = 0.21597 0.14050
# Poissons Ratio (z) = 0.01141 0.20378
#
# Static dielectric constant tensor:
#      x y z
#    x 2.078540 -0.000020 -0.032640 
#    y -0.000020 2.087880 0.000050 
#    z -0.032640 0.000050 2.118420 
# 
# From -- ./inp_files/303349.got.cif
#   From: 2010.05.17/outbox.cif.g08.bks.cpg/sg15_152_cif.got.tgz:303349.got - 2010.06.03 18:47:42.
