data_PCOD9258210
_publ_section_title
;
Structure prediction by ZEFSAII (Michael W. Deem and Ramdas Pophale) SiO2 
 PCOD9258210
Probable space group: C 2/C
;
_chemical_formula_sum "Si O2"
_cell_formula_units_Z 60
_cell_length_a 22.831837
_cell_length_b 31.025474
_cell_length_c 8.639041
_cell_angle_alpha 90.000000
_cell_angle_beta 34.616972
_cell_angle_gamma 90.000000
_cell_volume 3476.482801
_symmetry_space_group_name_H-M "C 2/C"
_symmetry_group_IT_number 15
_symmetry_cell_setting 'monoclinic'
loop_
_space_group_symop_operation_xyz
x,y,z
-x,y,1/2-z
-x,-y,-z
x,-y,1/2+z
1/2+x,1/2+y,z
1/2-x,1/2+y,1/2-z
1/2-x,1/2-y,-z
1/2+x,1/2-y,1/2+z
loop_
_atom_site_type_symbol
_atom_site_label
_atom_site_fract_x
_atom_site_fract_y
_atom_site_fract_z
Si Si1 0.689203 0.681688 0.152313
Si Si2 0.536480 0.134844 0.347983
Si Si3 0.928762 0.270649 0.641911
Si Si4 0.843566 0.743272 0.000008
Si Si5 0.614510 0.929456 0.919149
Si Si6 0.500000 0.709587 0.750000
Si Si7 0.579716 0.021807 0.945684
Si Si8 0.175378 0.394151 0.085954
O O1 0.687340 0.709920 0.999925
O O2 0.577146 0.682888 0.474506
O O3 0.764787 0.708347 0.102695
O O4 0.734327 0.633974 0.038445
O O5 0.500000 0.131277 0.250000
O O6 0.589480 0.180460 0.263876
O O7 0.600463 0.095790 0.288074
O O8 0.428341 0.134097 0.674628
O O9 0.855395 0.258372 0.658758
O O10 0.044673 0.266819 0.318981
O O11 0.932295 0.240046 0.783833
O O12 0.500000 0.929827 0.250000
O O13 0.687838 0.904418 0.877878
O O14 0.645321 0.979641 0.847596
O O15 0.645196 0.061099 0.736516
O O16 0.500000 0.036893 0.250000
O O17 0.500000 0.000000 0.000000
#
# Coordination Sequence:
#
# PCOD9258210 Si02
#       8
#     8   8   8   8   8   4   8   8
#     4  10  20  36  50  75  96 142 182 227 262 308
#     4  11  19  26  46  76 104 135 178 202 246 314
#     4  10  18  33  50  76  98 144 168 223 268 314
#     4   9  19  32  55  68 105 131 181 217 273 316
#     4   9  19  30  46  71 107 141 164 197 256 315
#     4  10  22  36  52  68 104 136 190 234 262 294
#     4  11  18  32  50  77 112 145 162 192 262 328
#     4  11  20  32  51  71 105 143 171 210 249 320
#
# _framework density 17.258821999999999
#
# number of rings (size 3 to 8) (size 9 to 14) (size 15 to 20)
#    0.000    1.867    6.000    1.200    3.733    0.533 
#    0.000    1.333    0.000    0.000    0.000    0.933 
#    0.000    0.000    0.000    0.000    0.000    0.000 
#
# Total GULP energy -167193.734151 kJ/mol
# GULP energy per Si atom -5573.124472 kJ/mol
# Density = 1.721954 g / cm^3
# Si number density = 17.258822 Si / 1000 Ang^3
#
#
#
# Elastic Constant Matrix: (Units=GPa)
#
#
# Indices 1 2 3 4 5 6 
#
# 1 103.1165 55.1458 16.1339 0.0000 25.8627 0.0000
# 2 55.1458 133.0146 29.6721 0.0000 9.7019 0.0000
# 3 16.1339 29.6721 35.2620 0.0000 6.9861 0.0000
# 4 0.0000 0.0000 0.0000 14.9107 0.0000 -8.0532
# 5 25.8627 9.7019 6.9861 0.0000 25.1836 0.0000
# 6 0.0000 0.0000 0.0000 -8.0532 0.0000 19.7254
#
#
#
# Elastic Compliance Matrix: (Units=1/GPa)
#
#
# Indices 1 2 3 4 5 6 
#
# 1 0.016459 -0.005811 0.000280 0.000000 -0.014742 0.000000
# 2 -0.005811 0.011360 -0.007635 0.000000 0.003709 0.000000
# 3 0.000280 -0.007635 0.036115 0.000000 -0.007364 0.000000
# 4 0.000000 0.000000 0.000000 0.086038 0.000000 0.035126
# 5 -0.014742 0.003709 -0.007364 0.000000 0.055462 0.000000
# 6 0.000000 0.000000 0.000000 0.035126 0.000000 0.065037
#
#
# Mechanical properties :
#
#
# Convention : Reuss Voigt Hill
#
# Bulk Modulus (GPa) = 26.59499 52.58851 39.59175
# Shear Modulus (GPa) = 16.16365 23.32669 19.74517
#
# Velocity S-wave (km/s) = 3.06362 3.68037 3.38607
# Velocity P-wave (km/s) = 5.28747 6.97114 6.18685
#
# Compressibility (1/GPa) = 0.03760107
#
# Stress axis : x y z
#
# Youngs Moduli (GPa) = 60.75717 88.03086 27.68933
#
# Poissons Ratio (x) = 0.51152 -0.00774
# Poissons Ratio (y) = 0.35304 0.21141
# Poissons Ratio (z) = -0.01698 0.67212
#
# Static dielectric constant tensor:
#      x y z
#    x 1.664520 0.000000 0.048130 
#    y 0.000000 1.655510 0.000000 
#    z 0.048130 0.000000 1.614380 
# 
# From -- ./inp_files/64156.got.cif
#   From: 2010.05.17/outbox.cif.g08.bks.cpg/sg15_33_cif.got.tgz:64156.got - 2010.06.03 18:47:42.
