data_PCOD9258828
_publ_section_title
;
Structure prediction by ZEFSAII (Michael W. Deem and Ramdas Pophale) SiO2 
 PCOD9258828
Probable space group: C 2/C
;
_chemical_formula_sum "Si O2"
_cell_formula_units_Z 64
_cell_length_a 9.517411
_cell_length_b 10.764779
_cell_length_c 27.068477
_cell_angle_alpha 90.000000
_cell_angle_beta 75.300519
_cell_angle_gamma 90.000000
_cell_volume 2682.473899
_symmetry_space_group_name_H-M "C 2/C"
_symmetry_group_IT_number 15
_symmetry_cell_setting 'monoclinic'
loop_
_space_group_symop_operation_xyz
x,y,z
-x,y,1/2-z
-x,-y,-z
x,-y,1/2+z
1/2+x,1/2+y,z
1/2-x,1/2+y,1/2-z
1/2-x,1/2-y,-z
1/2+x,1/2-y,1/2+z
loop_
_atom_site_type_symbol
_atom_site_label
_atom_site_fract_x
_atom_site_fract_y
_atom_site_fract_z
Si Si1 0.481532 0.714818 0.954387
Si Si2 0.554503 0.796292 0.300906
Si Si3 0.622127 0.055155 0.089648
Si Si4 0.305880 0.014127 0.156602
Si Si5 0.119063 0.605905 0.504722
Si Si6 0.666646 0.561539 0.341900
Si Si7 0.728695 0.707767 0.847290
Si Si8 0.121295 0.975078 0.579464
O O1 0.372952 0.818649 0.942101
O O2 0.536981 0.765142 0.001924
O O3 0.614682 0.709474 0.902854
O O4 0.404598 0.584148 0.957321
O O5 0.500000 0.806474 0.250000
O O6 0.660350 0.908392 0.306836
O O7 0.634590 0.666550 0.304890
O O8 0.400317 0.803190 0.344380
O O9 0.693012 0.078066 0.136241
O O10 0.454411 0.023151 0.112717
O O11 0.678653 0.940728 0.051688
O O12 0.182697 0.979967 0.127595
O O13 0.280951 0.155858 0.176821
O O14 0.252357 0.606733 0.454792
O O15 0.000000 0.500000 0.500000
O O16 0.680587 0.418060 0.323135
O O17 0.534393 0.577156 0.392492
#
# Coordination Sequence:
#
# PCOD9258828 Si02
#       8
#     8   8   8   8   8   8   8   8
#     4   9  19  35  61  88 128 176 218 266 317 377
#     4  12  26  44  71 101 127 162 219 276 331 405
#     4  10  20  37  62  91 130 180 214 261 322 382
#     4  11  21  44  70  90 132 179 211 264 338 387
#     4  10  18  34  55  92 135 168 228 270 304 369
#     4  11  23  43  67  93 135 173 216 270 333 390
#     4  10  21  44  65  94 134 168 209 269 329 383
#     4  11  20  37  64  90 127 180 217 266 325 375
#
# _framework density 23.858574000000001
#
# number of rings (size 3 to 8) (size 9 to 14) (size 15 to 20)
#    0.000    1.500    6.250    0.750    0.000    3.500 
#    2.250    3.125    0.000    0.000    0.000    0.000 
#    0.000    0.000    0.000    0.000    0.000    0.000 
#
# Total GULP energy -178690.845758 kJ/mol
# GULP energy per Si atom -5584.088930 kJ/mol
# Density = 2.380427 g / cm^3
# Si number density = 23.858574 Si / 1000 Ang^3
#
#
#
# Elastic Constant Matrix: (Units=GPa)
#
#
# Indices 1 2 3 4 5 6 
#
# 1 64.4403 27.6410 0.9871 0.0000 6.9779 0.0000
# 2 27.6410 149.7573 25.1737 0.0000 25.9659 0.0000
# 3 0.9871 25.1737 53.4303 0.0000 14.8902 0.0000
# 4 0.0000 0.0000 0.0000 8.2740 0.0000 16.7098
# 5 6.9779 25.9659 14.8902 0.0000 34.3210 0.0000
# 6 0.0000 0.0000 0.0000 16.7098 0.0000 48.3788
#
#
#
# Elastic Compliance Matrix: (Units=1/GPa)
#
#
# Indices 1 2 3 4 5 6 
#
# 1 0.017022 -0.003103 0.001658 0.000000 -0.001833 0.000000
# 2 -0.003103 0.008502 -0.002652 0.000000 -0.004651 0.000000
# 3 0.001658 -0.002652 0.022148 0.000000 -0.007939 0.000000
# 4 0.000000 0.000000 0.000000 0.399588 0.000000 -0.138015
# 5 -0.001833 -0.004651 -0.007939 0.000000 0.036472 0.000000
# 6 0.000000 0.000000 0.000000 -0.138015 0.000000 0.068340
#
#
# Mechanical properties :
#
#
# Convention : Reuss Voigt Hill
#
# Bulk Modulus (GPa) = 25.33051 41.69239 33.51145
# Shear Modulus (GPa) = 8.71953 32.44985 20.58469
#
# Velocity S-wave (km/s) = 1.91379 3.69194 2.94050
# Velocity P-wave (km/s) = 3.93998 5.97383 5.06014
#
# Compressibility (1/GPa) = 0.03947808
#
# Stress axis : x y z
#
# Youngs Moduli (GPa) = 58.74680 117.61317 45.15173
#
# Poissons Ratio (x) = 0.36493 -0.07487
# Poissons Ratio (y) = 0.18228 0.11976
# Poissons Ratio (z) = -0.09741 0.31196
#
# Static dielectric constant tensor:
#      x y z
#    x 1.878090 0.000000 -0.000750 
#    y 0.000000 1.989320 0.000000 
#    z -0.000750 0.000000 1.960040 
# 
# From -- ./inp_files/307488.got.cif
#   From: 2010.05.17/outbox.cif.g08.bks.cpg/sg15_154_cif.got.tgz:307488.got - 2010.06.03 18:47:42.
