data_PCOD9258573
_publ_section_title
;
Structure prediction by ZEFSAII (Michael W. Deem and Ramdas Pophale) SiO2 
 PCOD9258573
Probable space group: C 2/C
;
_chemical_formula_sum "Si O2"
_cell_formula_units_Z 44
_cell_length_a 9.166691
_cell_length_b 16.914253
_cell_length_c 16.602518
_cell_angle_alpha 90.000000
_cell_angle_beta 53.641529
_cell_angle_gamma 90.000000
_cell_volume 2073.050386
_symmetry_space_group_name_H-M "C 2/C"
_symmetry_group_IT_number 15
_symmetry_cell_setting 'monoclinic'
loop_
_space_group_symop_operation_xyz
x,y,z
-x,y,1/2-z
-x,-y,-z
x,-y,1/2+z
1/2+x,1/2+y,z
1/2-x,1/2+y,1/2-z
1/2-x,1/2-y,-z
1/2+x,1/2-y,1/2+z
loop_
_atom_site_type_symbol
_atom_site_label
_atom_site_fract_x
_atom_site_fract_y
_atom_site_fract_z
Si Si1 0.091136 0.695968 0.088551
Si Si2 0.659259 0.909256 0.948816
Si Si3 0.000000 0.420229 0.750000
Si Si4 0.887210 0.768255 0.884744
Si Si5 0.624324 0.041999 0.839754
Si Si6 0.249591 0.203441 0.763218
O O1 0.988633 0.643400 0.053158
O O2 0.123560 0.634198 0.150946
O O3 0.943112 0.756057 0.173246
O O4 0.250000 0.750000 0.000000
O O5 0.842831 0.859419 0.881927
O O6 0.687677 0.993170 0.896805
O O7 0.570829 0.923730 0.065500
O O8 0.106377 0.478119 0.775133
O O9 0.821666 0.715002 0.831092
O O10 0.094692 0.751117 0.835878
O O11 0.750000 0.750000 0.000000
O O12 0.742387 0.115010 0.771488
#
# Coordination Sequence:
#
# PCOD9258573 Si02
#       6
#     8   8   4   8   8   8
#     4  10  23  40  62  89 119 164 208 244 293 358
#     4   9  20  36  61  86 127 156 190 250 311 351
#     4  10  22  38  66  84 122 158 196 252 302 356
#     4  10  18  33  59  95 116 150 199 252 294 354
#     4  10  19  37  61  91 119 159 193 246 310 355
#     4  10  21  35  64  91 115 158 206 245 294 356
#
# _framework density 21.224761999999998
#
# number of rings (size 3 to 8) (size 9 to 14) (size 15 to 20)
#    0.000    2.182    1.818    1.091    2.545    0.000 
#    0.000    0.909   64.000    0.000    0.000    0.000 
#    0.000    0.000    0.000    0.000    0.000    0.000 
#
# Total GULP energy -122718.877129 kJ/mol
# GULP energy per Si atom -5578.130779 kJ/mol
# Density = 2.117645 g / cm^3
# Si number density = 21.224762 Si / 1000 Ang^3
#
#
#
# Elastic Constant Matrix: (Units=GPa)
#
#
# Indices 1 2 3 4 5 6 
#
# 1 33.6110 35.1487 31.5946 0.0000 -14.9060 0.0001
# 2 35.1487 157.8492 62.0277 0.0000 -17.5866 0.0000
# 3 31.5946 62.0277 134.3882 0.0000 -13.5173 0.0000
# 4 0.0000 0.0000 0.0000 51.7794 0.0000 6.5702
# 5 -14.9060 -17.5866 -13.5173 0.0000 32.7828 0.0000
# 6 0.0001 0.0000 0.0000 6.5702 0.0000 13.4597
#
#
#
# Elastic Compliance Matrix: (Units=1/GPa)
#
#
# Indices 1 2 3 4 5 6 
#
# 1 0.050828 -0.006634 -0.007220 0.000000 0.016575 0.000000
# 2 -0.006634 0.008858 -0.002456 0.000000 0.000723 0.000000
# 3 -0.007220 -0.002456 0.010234 0.000000 -0.000381 0.000000
# 4 0.000000 0.000000 0.000000 0.020588 0.000000 -0.010050
# 5 0.016575 0.000723 -0.000381 0.000000 0.038271 0.000000
# 6 0.000000 0.000000 0.000000 -0.010050 0.000000 0.079202
#
#
# Mechanical properties :
#
#
# Convention : Reuss Voigt Hill
#
# Bulk Modulus (GPa) = 26.81069 64.82116 45.81593
# Shear Modulus (GPa) = 19.76019 32.74286 26.25152
#
# Velocity S-wave (km/s) = 3.05453 3.93195 3.52068
# Velocity P-wave (km/s) = 5.00994 7.15683 6.17737
#
# Compressibility (1/GPa) = 0.03729855
#
# Stress axis : x y z
#
# Youngs Moduli (GPa) = 19.67439 112.89175 97.71368
#
# Poissons Ratio (x) = 0.74892 0.70553
# Poissons Ratio (y) = 0.13052 0.24000
# Poissons Ratio (z) = 0.14206 0.27728
#
# Static dielectric constant tensor:
#      x y z
#    x 1.837990 0.000000 0.027210 
#    y 0.000000 1.840030 0.000000 
#    z 0.027210 0.000000 1.827960 
# 
# From -- ./inp_files/198625.got.cif
#   From: 2010.05.17/outbox.cif.g08.bks.cpg/sg15_100_cif.got.tgz:198625.got - 2010.06.03 18:47:42.
