data_PCOD9258084
_publ_section_title
;
Structure prediction by ZEFSAII (Michael W. Deem and Ramdas Pophale) SiO2 
 PCOD9258084
Probable space group: C 2/C
;
_chemical_formula_sum "Si O2"
_cell_formula_units_Z 56
_cell_length_a 22.044075
_cell_length_b 7.321109
_cell_length_c 27.080219
_cell_angle_alpha 90.000000
_cell_angle_beta 30.176267
_cell_angle_gamma 90.000000
_cell_volume 2196.832259
_symmetry_space_group_name_H-M "C 2/C"
_symmetry_group_IT_number 15
_symmetry_cell_setting 'monoclinic'
loop_
_space_group_symop_operation_xyz
x,y,z
-x,y,1/2-z
-x,-y,-z
x,-y,1/2+z
1/2+x,1/2+y,z
1/2-x,1/2+y,1/2-z
1/2-x,1/2-y,-z
1/2+x,1/2-y,1/2+z
loop_
_atom_site_type_symbol
_atom_site_label
_atom_site_fract_x
_atom_site_fract_y
_atom_site_fract_z
Si Si1 0.891851 0.156478 0.134774
Si Si2 0.728365 0.332204 0.321365
Si Si3 0.531044 0.922667 0.844863
Si Si4 0.147840 0.872587 0.480905
Si Si5 0.129819 0.296963 0.457645
Si Si6 0.605055 0.321102 0.207453
Si Si7 0.886811 0.564031 0.858279
O O1 0.774367 0.186468 0.250534
O O2 0.881283 0.951070 0.122352
O O3 0.888489 0.282301 0.088360
O O4 0.009690 0.182374 0.085153
O O5 0.843572 0.467974 0.245962
O O6 0.691156 0.269264 0.401143
O O7 0.477308 0.888093 0.936270
O O8 0.556073 0.736377 0.796044
O O9 0.430160 0.023588 0.882683
O O10 0.141083 0.086770 0.469316
O O11 0.254689 0.852687 0.444746
O O12 0.259035 0.387355 0.380547
O O13 0.500000 0.420851 0.250000
O O14 0.620938 0.132163 0.164773
O O15 0.000000 0.656754 0.750000
#
# Coordination Sequence:
#
# PCOD9258084 Si02
#       7
#     8   8   8   8   8   8   8
#     4  11  25  37  60  86 118 158 198 240 292 355
#     4  11  22  41  58  85 116 156 194 242 295 350
#     4  10  18  32  59  82 114 149 195 239 292 338
#     4  10  20  38  60  83 117 155 201 232 295 365
#     4  10  19  33  55  86 117 153 190 244 292 359
#     4   8  15  28  48  81 109 144 184 230 283 340
#     4   8  14  32  56  83 109 150 194 235 284 348
#
# _framework density 25.491249
#
# number of rings (size 3 to 8) (size 9 to 14) (size 15 to 20)
#    0.000    2.571    5.714    1.714    4.000    5.714 
#    0.000    0.714    0.000    0.000    0.000    0.000 
#    0.000    0.000    0.000    0.000    0.000    0.000 
#
# Total GULP energy -156542.439078 kJ/mol
# GULP energy per Si atom -5590.801396 kJ/mol
# Density = 2.543323 g / cm^3
# Si number density = 25.491249 Si / 1000 Ang^3
#
#
#
# Elastic Constant Matrix: (Units=GPa)
#
#
# Indices 1 2 3 4 5 6 
#
# 1 98.2137 26.0749 39.0973 0.0039 -36.0015 -0.0072
# 2 26.0749 57.7568 13.3314 -0.0004 0.3415 0.0079
# 3 39.0973 13.3314 111.6007 0.0089 -33.6210 -0.0236
# 4 0.0039 -0.0004 0.0089 23.7265 0.0052 2.6530
# 5 -36.0015 0.3415 -33.6210 0.0052 52.8673 -0.0130
# 6 -0.0072 0.0079 -0.0236 2.6530 -0.0130 4.5719
#
#
#
# Elastic Compliance Matrix: (Units=1/GPa)
#
#
# Indices 1 2 3 4 5 6 
#
# 1 0.016513 -0.007075 -0.001903 -0.000011 0.010081 0.000064
# 2 -0.007075 0.020978 -0.001880 0.000013 -0.006149 -0.000082
# 3 -0.001903 -0.001880 0.011708 -0.000015 0.006162 0.000087
# 4 -0.000011 0.000013 -0.000015 0.045071 -0.000028 -0.026154
# 5 0.010081 -0.006149 0.006162 -0.000028 0.029738 0.000159
# 6 0.000064 -0.000082 0.000087 -0.026154 0.000159 0.233907
#
#
# Mechanical properties :
#
#
# Convention : Reuss Voigt Hill
#
# Bulk Modulus (GPa) = 36.38554 47.17536 41.78045
# Shear Modulus (GPa) = 12.86027 28.83765 20.84896
#
# Velocity S-wave (km/s) = 2.24854 3.36709 2.86297
# Velocity P-wave (km/s) = 4.58759 5.80199 5.23016
#
# Compressibility (1/GPa) = 0.02748344
#
# Stress axis : x y z
#
# Youngs Moduli (GPa) = 60.55830 47.66791 85.41058
#
# Poissons Ratio (x) = 0.33727 0.16253
# Poissons Ratio (y) = 0.42847 0.16056
# Poissons Ratio (z) = 0.11524 0.08961
#
# Static dielectric constant tensor:
#      x y z
#    x 2.005710 -0.000010 -0.027860 
#    y -0.000010 2.081310 0.000000 
#    z -0.027860 0.000000 2.004480 
# 
# From -- ./inp_files/300715.got.cif
#   From: 2010.05.17/outbox.cif.g08.bks.cpg/sg15_151_cif.got.tgz:300715.got - 2010.06.03 18:47:42.
