data_PCOD9258588
_publ_section_title
;
Structure prediction by ZEFSAII (Michael W. Deem and Ramdas Pophale) SiO2 
 PCOD9258588
Probable space group: C 2/C
;
_chemical_formula_sum "Si O2"
_cell_formula_units_Z 60
_cell_length_a 29.032144
_cell_length_b 7.877169
_cell_length_c 25.012250
_cell_angle_alpha 90.000000
_cell_angle_beta 28.136613
_cell_angle_gamma 90.000000
_cell_volume 2697.449036
_symmetry_space_group_name_H-M "C 2/C"
_symmetry_group_IT_number 15
_symmetry_cell_setting 'monoclinic'
loop_
_space_group_symop_operation_xyz
x,y,z
-x,y,1/2-z
-x,-y,-z
x,-y,1/2+z
1/2+x,1/2+y,z
1/2-x,1/2+y,1/2-z
1/2-x,1/2-y,-z
1/2+x,1/2-y,1/2+z
loop_
_atom_site_type_symbol
_atom_site_label
_atom_site_fract_x
_atom_site_fract_y
_atom_site_fract_z
Si Si1 0.159093 0.669040 0.912482
Si Si2 0.540796 0.028025 0.398273
Si Si3 0.739090 0.510693 0.603387
Si Si4 0.500000 0.683375 0.250000
Si Si5 0.821865 0.838163 0.056870
Si Si6 0.542191 0.297494 0.822319
Si Si7 0.287715 0.435027 0.981725
Si Si8 0.258444 0.030775 0.268191
O O1 0.222291 0.665309 0.901334
O O2 0.171688 0.837635 0.864711
O O3 0.208717 0.526389 0.823614
O O4 0.046363 0.631342 0.039685
O O5 0.556490 0.852458 0.350255
O O6 0.500000 0.000000 0.500000
O O7 0.645793 0.109462 0.301258
O O8 0.810240 0.354614 0.548145
O O9 0.631802 0.431194 0.726877
O O10 0.746228 0.548802 0.532923
O O11 0.471497 0.777276 0.224228
O O12 0.594860 0.572516 0.140294
O O13 0.773294 0.870518 0.163406
O O14 0.767163 0.944538 0.065784
O O15 0.936685 0.878599 0.943249
O O16 0.250000 0.250000 0.000000
#
# Coordination Sequence:
#
# PCOD9258588 Si02
#       8
#     8   8   8   4   8   8   8   8
#     4  11  24  40  58  80 113 151 193 236 286 337
#     4  10  22  37  57  79 113 147 187 235 288 329
#     4  10  18  34  57  84 112 146 185 232 280 333
#     4   8  16  28  50  88 116 140 184 230 278 330
#     4  10  18  34  57  84 112 146 185 232 280 333
#     4  10  18  33  60  88 115 148 187 237 281 337
#     4   8  16  28  51  82 111 139 181 227 275 331
#     4  11  24  40  58  80 113 151 193 236 286 337
#
# _framework density 22.243238000000002
#
# number of rings (size 3 to 8) (size 9 to 14) (size 15 to 20)
#    0.000    2.133    2.667    0.800    3.733    1.067 
#    0.000    2.000    0.000    0.000    0.000    0.000 
#    0.000    0.000    0.000    0.000    0.000    0.000 
#
# Total GULP energy -167135.560498 kJ/mol
# GULP energy per Si atom -5571.185350 kJ/mol
# Density = 2.219261 g / cm^3
# Si number density = 22.243238 Si / 1000 Ang^3
#
#
#
# Elastic Constant Matrix: (Units=GPa)
#
#
# Indices 1 2 3 4 5 6 
#
# 1 84.4007 -5.5049 -4.0778 -0.0029 12.9706 0.0012
# 2 -5.5049 28.6104 -17.1468 -0.0053 4.0606 0.0026
# 3 -4.0778 -17.1468 50.3173 -0.0002 -6.1595 -0.0003
# 4 -0.0029 -0.0053 -0.0002 16.6288 -0.0013 7.7700
# 5 12.9706 4.0606 -6.1595 -0.0013 40.0940 0.0010
# 6 0.0012 0.0026 -0.0003 7.7700 0.0010 21.2525
#
#
#
# Elastic Compliance Matrix: (Units=1/GPa)
#
#
# Indices 1 2 3 4 5 6 
#
# 1 0.012883 0.004271 0.001974 0.000005 -0.004297 -0.000003
# 2 0.004271 0.045528 0.015417 0.000021 -0.003624 -0.000013
# 3 0.001974 0.015417 0.025498 0.000008 0.001717 -0.000005
# 4 0.000005 0.000021 0.000008 0.072526 0.000001 -0.026516
# 5 -0.004297 -0.003624 0.001717 0.000001 0.026962 -0.000001
# 6 -0.000003 -0.000013 -0.000005 -0.026516 -0.000001 0.056748
#
#
# Mechanical properties :
#
#
# Convention : Reuss Voigt Hill
#
# Bulk Modulus (GPa) = 7.85957 12.20773 10.03365
# Shear Modulus (GPa) = 20.90023 28.26559 24.58291
#
# Velocity S-wave (km/s) = 3.06865 3.56862 3.32804
# Velocity P-wave (km/s) = 4.01206 4.74134 4.39186
#
# Compressibility (1/GPa) = 0.12723334
#
# Stress axis : x y z
#
# Youngs Moduli (GPa) = 77.62440 21.96432 39.21899
#
# Poissons Ratio (x) = -0.09382 -0.07740
# Poissons Ratio (y) = -0.33156 -0.60465
# Poissons Ratio (z) = -0.15320 -0.33863
#
# Static dielectric constant tensor:
#      x y z
#    x 1.889820 0.000000 -0.005250 
#    y 0.000000 1.865820 0.000000 
#    z -0.005250 0.000000 1.853060 
# 
# From -- ./inp_files/304190.got.cif
#   From: 2010.05.17/outbox.cif.g08.bks.cpg/sg15_153_cif.got.tgz:304190.got - 2010.06.03 18:47:42.
