data_PCOD9258820
_publ_section_title
;
Structure prediction by ZEFSAII (Michael W. Deem and Ramdas Pophale) SiO2 
 PCOD9258820
Probable space group: C 2/C
;
_chemical_formula_sum "Si O2"
_cell_formula_units_Z 40
_cell_length_a 20.686051
_cell_length_b 9.566958
_cell_length_c 22.715770
_cell_angle_alpha 90.000000
_cell_angle_beta 22.232605
_cell_angle_gamma 90.000000
_cell_volume 1700.955172
_symmetry_space_group_name_H-M "C 2/C"
_symmetry_group_IT_number 15
_symmetry_cell_setting 'monoclinic'
loop_
_space_group_symop_operation_xyz
x,y,z
-x,y,1/2-z
-x,-y,-z
x,-y,1/2+z
1/2+x,1/2+y,z
1/2-x,1/2+y,1/2-z
1/2-x,1/2-y,-z
1/2+x,1/2-y,1/2+z
loop_
_atom_site_type_symbol
_atom_site_label
_atom_site_fract_x
_atom_site_fract_y
_atom_site_fract_z
Si Si1 0.852311 0.883081 0.622675
Si Si2 0.182384 0.983033 0.581995
Si Si3 0.012005 0.514935 0.359182
Si Si4 0.279019 0.817238 0.387813
Si Si5 0.597443 0.836590 0.940776
O O1 0.758254 0.874088 0.765287
O O2 0.947187 0.737161 0.531013
O O3 0.693412 0.908253 0.712456
O O4 0.000000 0.000000 0.500000
O O5 0.340940 0.073004 0.473486
O O6 0.207260 0.929592 0.494439
O O7 0.184449 0.834378 0.615554
O O8 0.000000 0.049272 0.750000
O O9 0.051658 0.382209 0.283424
O O10 0.969997 0.457651 0.459851
O O11 0.156382 0.783517 0.436834
#
# Coordination Sequence:
#
# PCOD9258820 Si02
#       5
#     8   8   8   8   8
#     4  12  23  40  59  84 123 163 200 247 300 367
#     4  10  20  31  54  88 125 161 191 243 310 363
#     4  11  22  35  58  87 123 163 201 235 302 364
#     4  10  18  34  55  84 125 159 191 245 312 365
#     4  11  22  38  57  87 125 158 199 251 298 359
#
# _framework density 23.516200000000001
#
# number of rings (size 3 to 8) (size 9 to 14) (size 15 to 20)
#    0.000    1.200    4.000    4.800    2.800    0.000 
#    0.000    0.000    0.000    0.000    0.000    9.800 
#    0.000    0.000    0.000    0.600    0.000    0.000 
#
# Total GULP energy -111752.445544 kJ/mol
# GULP energy per Si atom -5587.622277 kJ/mol
# Density = 2.346268 g / cm^3
# Si number density = 23.516200 Si / 1000 Ang^3
#
#
#
# Elastic Constant Matrix: (Units=GPa)
#
#
# Indices 1 2 3 4 5 6 
#
# 1 91.5842 28.0597 60.0921 -0.0006 -16.7291 -0.0001
# 2 28.0597 38.5267 41.4716 -0.0031 -3.3773 0.0000
# 3 60.0921 41.4716 191.4013 -0.0051 -18.3800 0.0004
# 4 -0.0006 -0.0031 -0.0051 26.0872 0.0005 -13.0537
# 5 -16.7291 -3.3773 -18.3800 0.0005 62.4364 0.0003
# 6 -0.0001 0.0000 0.0004 -13.0537 0.0003 11.1202
#
#
#
# Elastic Compliance Matrix: (Units=1/GPa)
#
#
# Indices 1 2 3 4 5 6 
#
# 1 0.015881 -0.008145 -0.002938 -0.000003 0.002950 -0.000003
# 2 -0.008145 0.038036 -0.005862 0.000008 -0.001851 0.000010
# 3 -0.002938 -0.005862 0.007524 0.000001 0.001111 0.000001
# 4 -0.000003 0.000008 0.000001 0.092903 -0.000001 0.109056
# 5 0.002950 -0.001851 0.001111 -0.000001 0.017033 -0.000002
# 6 -0.000003 0.000010 0.000001 0.109056 -0.000002 0.217943
#
#
# Mechanical properties :
#
#
# Convention : Reuss Voigt Hill
#
# Bulk Modulus (GPa) = 36.29671 64.52878 50.41274
# Shear Modulus (GPa) = 11.56353 32.72135 22.14244
#
# Velocity S-wave (km/s) = 2.21990 3.73425 3.07185
# Velocity P-wave (km/s) = 4.69456 6.78915 5.83658
#
# Compressibility (1/GPa) = 0.02755071
#
# Stress axis : x y z
#
# Youngs Moduli (GPa) = 62.96857 26.29075 132.91303
#
# Poissons Ratio (x) = 0.21415 0.39047
# Poissons Ratio (y) = 0.51291 0.77911
# Poissons Ratio (z) = 0.18499 0.15411
#
# Static dielectric constant tensor:
#      x y z
#    x 1.986670 0.000000 -0.065650 
#    y 0.000000 1.978670 0.000000 
#    z -0.065650 0.000000 1.935090 
# 
# From -- ./inp_files/279944.got.cif
#   From: 2010.05.17/outbox.cif.g08.bks.cpg/sg15_140_cif.got.tgz:279944.got - 2010.06.03 18:47:42.
