data_PCOD9258806
_publ_section_title
;
Structure prediction by ZEFSAII (Michael W. Deem and Ramdas Pophale) SiO2 
 PCOD9258806
Probable space group: C 2/C
;
_chemical_formula_sum "Si O2"
_cell_formula_units_Z 52
_cell_length_a 6.390879
_cell_length_b 30.038586
_cell_length_c 12.129852
_cell_angle_alpha 90.000000
_cell_angle_beta 103.271250
_cell_angle_gamma 90.000000
_cell_volume 2266.416436
_symmetry_space_group_name_H-M "C 2/C"
_symmetry_group_IT_number 15
_symmetry_cell_setting 'monoclinic'
loop_
_space_group_symop_operation_xyz
x,y,z
-x,y,1/2-z
-x,-y,-z
x,-y,1/2+z
1/2+x,1/2+y,z
1/2-x,1/2+y,1/2-z
1/2-x,1/2-y,-z
1/2+x,1/2-y,1/2+z
loop_
_atom_site_type_symbol
_atom_site_label
_atom_site_fract_x
_atom_site_fract_y
_atom_site_fract_z
Si Si1 0.500000 0.122503 0.250000
Si Si2 0.615190 0.055332 0.092437
Si Si3 0.734850 0.670046 0.030639
Si Si4 0.077942 0.782619 0.874442
Si Si5 0.361604 0.396360 0.423046
Si Si6 0.402371 0.183242 0.585215
Si Si7 0.842986 0.028213 0.560152
O O1 0.646237 0.088622 0.197152
O O2 0.383586 0.152614 0.146585
O O3 0.721850 0.077963 0.998104
O O4 0.728535 0.007717 0.125532
O O5 0.361879 0.047984 0.033169
O O6 0.613876 0.713817 0.059841
O O7 0.550691 0.633187 0.997655
O O8 0.859584 0.674575 0.930861
O O9 0.132663 0.730932 0.862943
O O10 0.000000 0.802479 0.750000
O O11 0.272272 0.808733 0.954277
O O12 0.200014 0.357886 0.360706
O O13 0.499647 0.433434 0.375286
O O14 0.000000 0.000000 0.500000
#
# Coordination Sequence:
#
# PCOD9258806 Si02
#       7
#     4   8   8   8   8   8   8
#     4  12  20  32  54  90 118 148 188 248 304 354
#     4  10  20  33  52  84 115 140 188 234 292 360
#     4  11  21  33  54  84 119 148 183 241 301 357
#     4  10  22  36  56  81 115 155 191 247 299 352
#     4  10  18  34  55  80 106 153 188 230 291 352
#     4  10  20  37  54  84 114 151 200 238 298 366
#     4   9  18  35  53  78 106 150 184 229 287 348
#
# _framework density 22.943709999999999
#
# number of rings (size 3 to 8) (size 9 to 14) (size 15 to 20)
#    0.000    1.846    3.077    1.385    2.154    0.000 
#    0.000    0.000    0.000    0.000   48.000    0.000 
#    0.000    0.000    0.000    0.000    0.000    0.000 
#
# Total GULP energy -144974.048118 kJ/mol
# GULP energy per Si atom -5575.924928 kJ/mol
# Density = 2.289149 g / cm^3
# Si number density = 22.943710 Si / 1000 Ang^3
#
#
#
# Elastic Constant Matrix: (Units=GPa)
#
#
# Indices 1 2 3 4 5 6 
#
# 1 115.2574 34.0179 7.7579 0.0000 2.1996 0.0000
# 2 34.0179 111.5911 -12.7145 0.0000 0.1063 0.0000
# 3 7.7579 -12.7145 45.5161 0.0000 3.2032 0.0000
# 4 0.0000 0.0000 0.0000 -10.9940 0.0000 -9.7203
# 5 2.1996 0.1063 3.2032 0.0000 10.4622 0.0000
# 6 0.0000 0.0000 0.0000 -9.7203 0.0000 49.3720
#
#
#
# Elastic Compliance Matrix: (Units=1/GPa)
#
#
# Indices 1 2 3 4 5 6 
#
# 1 0.009838 -0.003283 -0.002505 0.000000 -0.001268 0.000000
# 2 -0.003283 0.010360 0.003488 0.000000 -0.000483 0.000000
# 3 -0.002505 0.003488 0.023851 0.000000 -0.006811 0.000000
# 4 0.000000 0.000000 0.000000 -0.077473 0.000000 -0.015253
# 5 -0.001268 -0.000483 -0.006811 0.000000 0.097939 0.000000
# 6 0.000000 0.000000 0.000000 -0.015253 0.000000 0.017251
#
#
# Mechanical properties :
#
#
# Convention : Reuss Voigt Hill
#
# Bulk Modulus (GPa) = 25.34985 36.72077 31.03531
# Shear Modulus (GPa) = 50.24318 25.98829 38.11573
#
# Velocity S-wave (km/s) = 4.68466 3.36921 4.08029
# Velocity P-wave (km/s) = 6.35091 5.58345 5.97950
#
# Compressibility (1/GPa) = 0.03944796
#
# Stress axis : x y z
#
# Youngs Moduli (GPa) = 101.64600 96.52517 41.92742
#
# Poissons Ratio (x) = 0.31692 0.10502
# Poissons Ratio (y) = 0.33373 -0.14622
# Poissons Ratio (z) = 0.25460 -0.33664
#
# Static dielectric constant tensor:
#      x y z
#    x 1.893040 0.000000 0.014260 
#    y 0.000000 1.924600 0.000000 
#    z 0.014260 0.000000 1.846200 
# 
# From -- ./inp_files/130885.got.cif
#   From: 2010.05.17/outbox.cif.g08.bks.cpg/sg15_66_cif.got.tgz:130885.got - 2010.06.03 18:47:42.
