data_PCOD9258641
_publ_section_title
;
Structure prediction by ZEFSAII (Michael W. Deem and Ramdas Pophale) SiO2 
 PCOD9258641
Probable space group: C 2/C
;
_chemical_formula_sum "Si O2"
_cell_formula_units_Z 64
_cell_length_a 12.248828
_cell_length_b 22.994075
_cell_length_c 12.002483
_cell_angle_alpha 90.000000
_cell_angle_beta 106.371748
_cell_angle_gamma 90.000000
_cell_volume 3243.435902
_symmetry_space_group_name_H-M "C 2/C"
_symmetry_group_IT_number 15
_symmetry_cell_setting 'monoclinic'
loop_
_space_group_symop_operation_xyz
x,y,z
-x,y,1/2-z
-x,-y,-z
x,-y,1/2+z
1/2+x,1/2+y,z
1/2-x,1/2+y,1/2-z
1/2-x,1/2-y,-z
1/2+x,1/2-y,1/2+z
loop_
_atom_site_type_symbol
_atom_site_label
_atom_site_fract_x
_atom_site_fract_y
_atom_site_fract_z
Si Si1 0.382480 0.645881 0.390600
Si Si2 0.414127 0.737264 0.825331
Si Si3 0.778258 0.092487 0.152764
Si Si4 0.473756 0.866160 0.873228
Si Si5 0.883083 0.883224 0.447254
Si Si6 0.795822 0.259812 0.388485
Si Si7 0.864187 0.036127 0.731247
Si Si8 0.707912 0.883974 0.034242
O O1 0.353363 0.632149 0.256096
O O2 0.488220 0.610748 0.469407
O O3 0.399051 0.715383 0.404450
O O4 0.274458 0.632030 0.438980
O O5 0.500000 0.717844 0.750000
O O6 0.465349 0.796103 0.894719
O O7 0.384652 0.681286 0.891877
O O8 0.299953 0.756949 0.728559
O O9 0.646118 0.104833 0.135488
O O10 0.815425 0.028408 0.203221
O O11 0.806041 0.107375 0.033262
O O12 0.500000 0.868661 0.750000
O O13 0.578667 0.897737 0.964288
O O14 0.852105 0.931139 0.345979
O O15 0.750000 0.250000 0.500000
O O16 0.807944 0.328542 0.388961
O O17 0.791031 0.072450 0.620944
O O18 0.000000 0.036041 0.750000
#
# Coordination Sequence:
#
# PCOD9258641 Si02
#       8
#     8   8   8   8   8   8   8   8
#     4  11  20  41  65  99 133 165 221 276 335 394
#     4  11  19  38  67 101 132 175 218 271 332 398
#     4  12  28  43  64  98 135 181 224 275 339 390
#     4  11  22  44  69  96 133 173 224 271 325 409
#     4  12  25  41  68 100 140 170 217 285 341 394
#     4  10  18  33  63 100 128 161 219 274 320 388
#     4  12  26  45  68  97 132 177 230 272 330 397
#     4  11  21  39  71  97 122 172 226 276 318 391
#
# _framework density 19.732161000000001
#
# number of rings (size 3 to 8) (size 9 to 14) (size 15 to 20)
#    0.000    0.750    5.000    6.000    1.750    2.000 
#    0.000    0.625    0.000    0.000    0.000    0.000 
#    0.000    0.000    0.000    0.000    0.000    0.000 
#
# Total GULP energy -178591.743666 kJ/mol
# GULP energy per Si atom -5580.991990 kJ/mol
# Density = 1.968725 g / cm^3
# Si number density = 19.732161 Si / 1000 Ang^3
#
#
#
# Elastic Constant Matrix: (Units=GPa)
#
#
# Indices 1 2 3 4 5 6 
#
# 1 111.2883 59.8897 68.7557 0.0000 7.2289 0.0000
# 2 59.8897 111.2169 42.6370 0.0000 -9.4275 0.0000
# 3 68.7557 42.6370 95.6176 0.0000 -4.3285 0.0000
# 4 0.0000 0.0000 0.0000 -29.0855 0.0000 -23.4304
# 5 7.2289 -9.4275 -4.3285 0.0000 37.5487 0.0000
# 6 0.0000 0.0000 0.0000 -23.4304 0.0000 4.2394
#
#
#
# Elastic Compliance Matrix: (Units=1/GPa)
#
#
# Indices 1 2 3 4 5 6 
#
# 1 0.020756 -0.007164 -0.012056 0.000000 -0.007184 0.000000
# 2 -0.007164 0.013498 -0.000655 0.000000 0.004693 0.000000
# 3 -0.012056 -0.000655 0.019619 0.000000 0.004418 0.000000
# 4 0.000000 0.000000 0.000000 -0.006306 0.000000 -0.034852
# 5 -0.007184 0.004693 0.004418 0.000000 0.029703 0.000000
# 6 0.000000 0.000000 0.000000 -0.034852 0.000000 0.043263
#
#
# Mechanical properties :
#
#
# Convention : Reuss Voigt Hill
#
# Bulk Modulus (GPa) = 70.80271 73.40974 72.10623
# Shear Modulus (GPa) = 30.30466 12.32988 21.31727
#
# Velocity S-wave (km/s) = 3.92318 2.50244 3.29041
# Velocity P-wave (km/s) = 7.51542 6.75525 7.14545
#
# Compressibility (1/GPa) = 0.01412375
#
# Stress axis : x y z
#
# Youngs Moduli (GPa) = 48.17906 74.08377 50.97045
#
# Poissons Ratio (x) = 0.53075 0.61448
# Poissons Ratio (y) = 0.34517 0.03339
# Poissons Ratio (z) = 0.58083 0.04852
#
# Static dielectric constant tensor:
#      x y z
#    x 1.691630 0.000000 0.015370 
#    y 0.000000 1.742490 0.000000 
#    z 0.015370 0.000000 1.738990 
# 
# From -- ./inp_files/91292.got.cif
#   From: 2010.05.17/outbox.cif.g08.bks.cpg/sg15_46_cif.got.tgz:91292.got - 2010.06.03 18:47:42.
