data_PCOD9258579
_publ_section_title
;
Structure prediction by ZEFSAII (Michael W. Deem and Ramdas Pophale) SiO2 
 PCOD9258579
Probable space group: C 2/C
;
_chemical_formula_sum "Si O2"
_cell_formula_units_Z 60
_cell_length_a 19.041220
_cell_length_b 20.327400
_cell_length_c 8.361321
_cell_angle_alpha 90.000000
_cell_angle_beta 132.498611
_cell_angle_gamma 90.000000
_cell_volume 2386.118635
_symmetry_space_group_name_H-M "C 2/C"
_symmetry_group_IT_number 15
_symmetry_cell_setting 'monoclinic'
loop_
_space_group_symop_operation_xyz
x,y,z
-x,y,1/2-z
-x,-y,-z
x,-y,1/2+z
1/2+x,1/2+y,z
1/2-x,1/2+y,1/2-z
1/2-x,1/2-y,-z
1/2+x,1/2-y,1/2+z
loop_
_atom_site_type_symbol
_atom_site_label
_atom_site_fract_x
_atom_site_fract_y
_atom_site_fract_z
Si Si1 0.721083 0.850894 0.808447
Si Si2 0.000000 0.576590 0.250000
Si Si3 0.854582 0.540928 0.517926
Si Si4 0.411687 0.598309 0.528970
Si Si5 0.924408 0.647842 0.861064
Si Si6 0.152656 0.996531 0.285869
Si Si7 0.725093 0.367729 0.242894
Si Si8 0.152870 0.752527 0.956563
O O1 0.674944 0.921605 0.690214
O O2 0.664234 0.795252 0.627987
O O3 0.823842 0.853129 0.877695
O O4 0.746667 0.844021 0.033388
O O5 0.911972 0.526611 0.088625
O O6 0.994539 0.625200 0.392317
O O7 0.915985 0.591792 0.714548
O O8 0.755693 0.530623 0.459850
O O9 0.500000 0.632376 0.750000
O O10 0.418990 0.553392 0.383318
O O11 0.382652 0.543805 0.617492
O O12 0.824666 0.640835 0.803505
O O13 0.925326 0.718822 0.778497
O O14 0.180184 0.939482 0.199738
O O15 0.649302 0.324053 0.028751
O O16 0.250000 0.750000 0.000000
#
# Coordination Sequence:
#
# PCOD9258579 Si02
#       8
#     8   4   8   8   8   8   8   8
#     4   9  20  35  58  88 116 151 203 246 295 365
#     4  12  22  32  58  88 128 166 198 244 298 358
#     4  10  21  35  54  85 128 161 193 241 296 360
#     4  10  20  34  56  87 116 149 180 239 301 354
#     4  10  21  35  52  85 118 159 206 242 294 351
#     4  10  19  33  55  86 119 148 192 231 291 360
#     4  10  18  33  60  85 113 155 205 243 293 352
#     4   9  19  37  59  83 110 156 209 251 294 345
#
# _framework density 25.145437999999999
#
# number of rings (size 3 to 8) (size 9 to 14) (size 15 to 20)
#    0.000    2.133    1.333    2.000    3.733    2.133 
#    0.000    0.000    5.867    0.000   45.067    0.000 
#    0.000    0.000    0.000    0.000    0.000    0.000 
#
# Total GULP energy -167691.005999 kJ/mol
# GULP energy per Si atom -5589.700200 kJ/mol
# Density = 2.508821 g / cm^3
# Si number density = 25.145438 Si / 1000 Ang^3
#
#
#
# Elastic Constant Matrix: (Units=GPa)
#
#
# Indices 1 2 3 4 5 6 
#
# 1 37.8715 5.8671 5.2498 0.0000 -11.8210 0.0000
# 2 5.8671 47.3898 41.9261 0.0000 -9.8512 0.0000
# 3 5.2498 41.9261 109.5751 0.0000 -2.2293 0.0000
# 4 0.0000 0.0000 0.0000 30.0072 0.0000 -6.3437
# 5 -11.8210 -9.8512 -2.2293 0.0000 35.0318 0.0000
# 6 0.0000 0.0000 0.0000 -6.3437 0.0000 23.9049
#
#
#
# Elastic Compliance Matrix: (Units=1/GPa)
#
#
# Indices 1 2 3 4 5 6 
#
# 1 0.029697 -0.000865 -0.000894 0.000000 0.009721 0.000000
# 2 -0.000865 0.034468 -0.012972 0.000000 0.008575 0.000000
# 3 -0.000894 -0.012972 0.014070 0.000000 -0.003054 0.000000
# 4 0.000000 0.000000 0.000000 0.035306 0.000000 0.009369
# 5 0.009721 0.008575 -0.003054 0.000000 0.034043 0.000000
# 6 0.000000 0.000000 0.000000 0.009369 0.000000 0.044319
#
#
# Mechanical properties :
#
#
# Convention : Reuss Voigt Hill
#
# Bulk Modulus (GPa) = 20.50326 33.43583 26.96954
# Shear Modulus (GPa) = 21.04168 27.24167 24.14167
#
# Velocity S-wave (km/s) = 2.89589 3.29502 3.10188
# Velocity P-wave (km/s) = 4.39922 5.27277 4.85568
#
# Compressibility (1/GPa) = 0.04877273
#
# Stress axis : x y z
#
# Youngs Moduli (GPa) = 33.67323 29.01241 71.07115
#
# Poissons Ratio (x) = 0.02509 0.06354
# Poissons Ratio (y) = 0.02913 0.92196
# Poissons Ratio (z) = 0.03011 0.37636
#
# Static dielectric constant tensor:
#      x y z
#    x 2.053180 0.000000 0.044720 
#    y 0.000000 1.956170 0.000000 
#    z 0.044720 0.000000 2.041650 
# 
# From -- ./inp_files/63930.got.cif
#   From: 2010.05.17/outbox.cif.g08.bks.cpg/sg15_32_cif.got.tgz:63930.got - 2010.06.03 18:47:42.
