data_PCOD9258926
_publ_section_title
;
Structure prediction by ZEFSAII (Michael W. Deem and Ramdas Pophale) SiO2 
 PCOD9258926
Probable space group: C 2/C
;
_chemical_formula_sum "Si O2"
_cell_formula_units_Z 48
_cell_length_a 15.240142
_cell_length_b 9.175090
_cell_length_c 13.300440
_cell_angle_alpha 90.000000
_cell_angle_beta 93.823870
_cell_angle_gamma 90.000000
_cell_volume 1855.655864
_symmetry_space_group_name_H-M "C 2/C"
_symmetry_group_IT_number 15
_symmetry_cell_setting 'monoclinic'
loop_
_space_group_symop_operation_xyz
x,y,z
-x,y,1/2-z
-x,-y,-z
x,-y,1/2+z
1/2+x,1/2+y,z
1/2-x,1/2+y,1/2-z
1/2-x,1/2-y,-z
1/2+x,1/2-y,1/2+z
loop_
_atom_site_type_symbol
_atom_site_label
_atom_site_fract_x
_atom_site_fract_y
_atom_site_fract_z
Si Si1 0.305512 0.087496 0.607673
Si Si2 0.404054 0.051660 0.957896
Si Si3 0.098078 0.963770 0.304931
Si Si4 0.898435 0.261134 0.281238
Si Si5 0.919251 0.702798 0.312945
Si Si6 0.881899 0.133775 0.993060
O O1 0.345188 0.950968 0.551931
O O2 0.339342 0.119166 0.720470
O O3 0.203721 0.090361 0.576663
O O4 0.351682 0.225593 0.554883
O O5 0.376087 0.928228 0.872960
O O6 0.403516 0.202232 0.898559
O O7 0.500000 0.000000 0.000000
O O8 0.138957 0.103287 0.250559
O O9 0.096961 0.012971 0.421340
O O10 0.000000 0.960660 0.250000
O O11 0.133261 0.807520 0.269125
O O12 0.000000 0.271869 0.250000
O O13 0.946438 0.806701 0.410879
O O14 0.000000 0.646301 0.250000
#
# Coordination Sequence:
#
# PCOD9258926 Si02
#       6
#     8   8   8   8   8   8
#     4   9  19  35  58  82 116 164 193 233 298 367
#     4  11  21  35  58  88 118 151 195 249 295 351
#     4   9  20  36  57  84 112 154 200 242 292 355
#     4  10  18  34  57  83 114 150 205 241 289 355
#     4  10  22  37  58  89 116 151 195 253 293 345
#     4   9  19  38  57  81 120 160 195 233 304 361
#
# _framework density 25.866864
#
# number of rings (size 3 to 8) (size 9 to 14) (size 15 to 20)
#    0.000    2.333    1.667    0.500    2.333    4.000 
#    0.000    0.000    0.000    2.000    0.000    0.000 
#    0.000    0.000    0.000    0.000    0.000    0.000 
#
# Total GULP energy -133909.866032 kJ/mol
# GULP energy per Si atom -5579.577751 kJ/mol
# Density = 2.580799 g / cm^3
# Si number density = 25.866864 Si / 1000 Ang^3
#
#
#
# Elastic Constant Matrix: (Units=GPa)
#
#
# Indices 1 2 3 4 5 6 
#
# 1 38.2453 -7.2755 15.3103 0.0000 13.9560 0.0000
# 2 -7.2755 77.5955 47.0011 0.0000 1.9800 0.0000
# 3 15.3103 47.0011 129.0638 0.0000 13.4979 0.0000
# 4 0.0000 0.0000 0.0000 54.7926 0.0000 4.9831
# 5 13.9560 1.9800 13.4979 0.0000 30.6077 0.0000
# 6 0.0000 0.0000 0.0000 4.9831 0.0000 11.8487
#
#
#
# Elastic Compliance Matrix: (Units=1/GPa)
#
#
# Indices 1 2 3 4 5 6 
#
# 1 0.034528 0.006660 -0.005063 0.000000 -0.013942 0.000000
# 2 0.006660 0.017900 -0.007202 0.000000 -0.001019 0.000000
# 3 -0.005063 -0.007202 0.011198 0.000000 -0.002164 0.000000
# 4 0.000000 0.000000 0.000000 0.018976 0.000000 -0.007981
# 5 -0.013942 -0.001019 -0.002164 0.000000 0.040048 0.000000
# 6 0.000000 0.000000 0.000000 -0.007981 0.000000 0.087754
#
#
# Mechanical properties :
#
#
# Convention : Reuss Voigt Hill
#
# Bulk Modulus (GPa) = 19.07828 39.44181 29.26005
# Shear Modulus (GPa) = 20.91276 32.10771 26.51024
#
# Velocity S-wave (km/s) = 2.84646 3.52699 3.20484
# Velocity P-wave (km/s) = 4.26552 5.64511 5.00310
#
# Compressibility (1/GPa) = 0.05241563
#
# Stress axis : x y z
#
# Youngs Moduli (GPa) = 28.96174 55.86471 89.30254
#
# Poissons Ratio (x) = -0.37207 0.45217
# Poissons Ratio (y) = -0.19289 0.64319
# Poissons Ratio (z) = 0.14664 0.40236
#
# Static dielectric constant tensor:
#      x y z
#    x 2.066310 0.000000 -0.023220 
#    y 0.000000 2.217850 0.000000 
#    z -0.023220 0.000000 2.040440 
# 
# From -- ./inp_files/103841.got.cif
#   From: 2010.05.17/outbox.cif.g08.bks.cpg/sg15_52_cif.got.tgz:103841.got - 2010.06.03 18:47:42.
