data_PCOD9258046
_publ_section_title
;
Structure prediction by ZEFSAII (Michael W. Deem and Ramdas Pophale) SiO2 
 PCOD9258046
Probable space group: C 2/C
;
_chemical_formula_sum "Si O2"
_cell_formula_units_Z 56
_cell_length_a 17.922758
_cell_length_b 9.056764
_cell_length_c 16.806715
_cell_angle_alpha 90.000000
_cell_angle_beta 117.392144
_cell_angle_gamma 90.000000
_cell_volume 2422.223736
_symmetry_space_group_name_H-M "C 2/C"
_symmetry_group_IT_number 15
_symmetry_cell_setting 'monoclinic'
loop_
_space_group_symop_operation_xyz
x,y,z
-x,y,1/2-z
-x,-y,-z
x,-y,1/2+z
1/2+x,1/2+y,z
1/2-x,1/2+y,1/2-z
1/2-x,1/2-y,-z
1/2+x,1/2-y,1/2+z
loop_
_atom_site_type_symbol
_atom_site_label
_atom_site_fract_x
_atom_site_fract_y
_atom_site_fract_z
Si Si1 0.547400 0.461081 0.345918
Si Si2 0.484976 0.145128 0.439908
Si Si3 0.570028 0.351409 0.607322
Si Si4 0.128584 0.513852 0.415105
Si Si5 0.311494 0.547623 0.464483
Si Si6 0.318110 0.791075 0.916807
Si Si7 0.876065 0.753032 0.703988
O O1 0.500000 0.379321 0.250000
O O2 0.478080 0.510828 0.376876
O O3 0.627326 0.403651 0.433993
O O4 0.581352 0.611166 0.321137
O O5 0.513529 0.274034 0.513733
O O6 0.386485 0.179097 0.381015
O O7 0.500000 0.000000 0.500000
O O8 0.549158 0.114332 0.399554
O O9 0.653975 0.392779 0.601942
O O10 0.589008 0.244087 0.689963
O O11 0.215497 0.589916 0.431775
O O12 0.159159 0.414009 0.505899
O O13 0.108029 0.395323 0.336839
O O14 0.322983 0.369529 0.461643
O O15 0.222460 0.793921 0.841424
#
# Coordination Sequence:
#
# PCOD9258046 Si02
#       7
#     8   8   8   8   8   8   8
#     4  10  18  32  58  86 115 154 203 247 286 356
#     4  10  21  38  60  87 117 161 199 247 310 365
#     4  11  23  35  60  92 120 151 205 257 303 354
#     4  10  19  37  64  84 116 166 202 240 305 373
#     4  11  19  36  60  89 120 160 201 248 309 358
#     4  10  18  37  62  86 119 159 206 244 307 366
#     4  10  19  38  62  89 114 155 212 247 288 370
#
# _framework density 23.119253
#
# number of rings (size 3 to 8) (size 9 to 14) (size 15 to 20)
#    0.000    1.714    4.286    2.143    0.000    0.571 
#   10.286    0.000    0.000    1.714    0.000    0.000 
#    0.000    0.000    0.000    0.000    0.000    0.000 
#
# Total GULP energy -156451.010014 kJ/mol
# GULP energy per Si atom -5587.536072 kJ/mol
# Density = 2.306663 g / cm^3
# Si number density = 23.119253 Si / 1000 Ang^3
#
#
#
# Elastic Constant Matrix: (Units=GPa)
#
#
# Indices 1 2 3 4 5 6 
#
# 1 211.8179 26.2856 49.7751 0.0000 -10.1973 0.0000
# 2 26.2856 33.1943 15.9791 0.0000 -6.2686 0.0000
# 3 49.7751 15.9791 98.0502 0.0000 -4.6709 0.0000
# 4 0.0000 0.0000 0.0000 20.5411 0.0000 -7.8540
# 5 -10.1973 -6.2686 -4.6709 0.0000 29.8105 0.0000
# 6 0.0000 0.0000 0.0000 -7.8540 0.0000 24.6512
#
#
#
# Elastic Compliance Matrix: (Units=1/GPa)
#
#
# Indices 1 2 3 4 5 6 
#
# 1 0.005713 -0.003231 -0.002331 0.000000 0.000910 0.000000
# 2 -0.003231 0.035650 -0.003894 0.000000 0.005781 0.000000
# 3 -0.002331 -0.003894 0.012029 0.000000 0.000269 0.000000
# 4 0.000000 0.000000 0.000000 0.055436 0.000000 0.017662
# 5 0.000910 0.005781 0.000269 0.000000 0.035114 0.000000
# 6 0.000000 0.000000 0.000000 0.017662 0.000000 0.046193
#
#
# Mechanical properties :
#
#
# Convention : Reuss Voigt Hill
#
# Bulk Modulus (GPa) = 29.00062 58.57132 43.78597
# Shear Modulus (GPa) = 22.67140 31.73539 27.20340
#
# Velocity S-wave (km/s) = 3.13490 3.70899 3.43396
# Velocity P-wave (km/s) = 5.06701 6.61299 5.89093
#
# Compressibility (1/GPa) = 0.03448202
#
# Stress axis : x y z
#
# Youngs Moduli (GPa) = 175.02718 28.05018 83.12926
#
# Poissons Ratio (x) = 0.09062 0.19374
# Poissons Ratio (y) = 0.56543 0.32375
# Poissons Ratio (z) = 0.40792 0.10924
#
# Static dielectric constant tensor:
#      x y z
#    x 1.926300 0.000000 -0.014090 
#    y 0.000000 1.922510 0.000000 
#    z -0.014090 0.000000 1.846140 
# 
# From -- ./inp_files/160996.got.cif
#   From: 2010.05.17/outbox.cif.g08.bks.cpg/sg15_81_cif.got.tgz:160996.got - 2010.06.03 18:47:42.
