data_PCOD9258951
_publ_section_title
;
Structure prediction by ZEFSAII (Michael W. Deem and Ramdas Pophale) SiO2 
 PCOD9258951
Probable space group: C 2/C
;
_chemical_formula_sum "Si O2"
_cell_formula_units_Z 60
_cell_length_a 18.609116
_cell_length_b 22.780247
_cell_length_c 12.387173
_cell_angle_alpha 90.000000
_cell_angle_beta 138.910854
_cell_angle_gamma 90.000000
_cell_volume 3451.241841
_symmetry_space_group_name_H-M "C 2/C"
_symmetry_group_IT_number 15
_symmetry_cell_setting 'monoclinic'
loop_
_space_group_symop_operation_xyz
x,y,z
-x,y,1/2-z
-x,-y,-z
x,-y,1/2+z
1/2+x,1/2+y,z
1/2-x,1/2+y,1/2-z
1/2-x,1/2-y,-z
1/2+x,1/2-y,1/2+z
loop_
_atom_site_type_symbol
_atom_site_label
_atom_site_fract_x
_atom_site_fract_y
_atom_site_fract_z
Si Si1 0.420968 0.586760 0.376613
Si Si2 0.500000 0.837388 0.750000
Si Si3 0.750415 0.669878 0.203165
Si Si4 0.991168 0.300978 0.975966
Si Si5 0.242665 0.632127 0.529827
Si Si6 0.454500 0.691739 0.086285
Si Si7 0.579673 0.534174 0.738048
Si Si8 0.729653 0.195338 0.741697
O O1 0.321506 0.620868 0.320249
O O2 0.481804 0.632398 0.367602
O O3 0.507856 0.567644 0.566352
O O4 0.387834 0.528464 0.274820
O O5 0.496349 0.797262 0.852051
O O6 0.389083 0.875127 0.621200
O O7 0.880395 0.663033 0.372699
O O8 0.720885 0.734653 0.212687
O O9 0.731463 0.666183 0.052425
O O10 0.976791 0.238967 0.017727
O O11 0.109640 0.326513 0.140306
O O12 0.316065 0.574065 0.615268
O O13 0.263399 0.667688 0.664205
O O14 0.500000 0.715841 0.250000
O O15 0.324427 0.682317 0.934476
O O16 0.500000 0.526180 0.750000
#
# Coordination Sequence:
#
# PCOD9258951 Si02
#       8
#     8   4   8   8   8   8   8   8
#     4  11  22  38  55  81 116 151 197 242 282 335
#     4   8  18  34  60  86 120 142 180 240 300 350
#     4  10  19  34  57  86 120 147 182 240 297 346
#     4   9  19  35  54  85 114 149 182 232 294 349
#     4  10  18  34  57  90 114 148 182 243 296 350
#     4  11  22  36  53  78 117 161 194 230 279 343
#     4  11  22  37  60  82 111 152 199 245 290 330
#     4  10  19  34  56  86 118 150 190 231 290 356
#
# _framework density 17.385047
#
# number of rings (size 3 to 8) (size 9 to 14) (size 15 to 20)
#    0.000    1.867    4.000    0.800    0.000    1.600 
#    1.200    0.000    0.000   10.400    0.000    0.000 
#    0.000    0.000    0.000    0.000    0.000    0.000 
#
# Total GULP energy -167235.800255 kJ/mol
# GULP energy per Si atom -5574.526675 kJ/mol
# Density = 1.734548 g / cm^3
# Si number density = 17.385047 Si / 1000 Ang^3
#
#
#
# Elastic Constant Matrix: (Units=GPa)
#
#
# Indices 1 2 3 4 5 6 
#
# 1 61.7197 36.9761 35.6058 0.0000 15.9747 0.0000
# 2 36.9761 72.9080 28.6610 0.0000 8.3072 0.0000
# 3 35.6058 28.6610 108.5180 0.0000 17.8045 0.0000
# 4 0.0000 0.0000 0.0000 15.9974 0.0000 -0.7072
# 5 15.9747 8.3072 17.8045 0.0000 17.0679 0.0000
# 6 0.0000 0.0000 0.0000 -0.7072 0.0000 31.0302
#
#
#
# Elastic Compliance Matrix: (Units=1/GPa)
#
#
# Indices 1 2 3 4 5 6 
#
# 1 0.030225 -0.011725 -0.003759 0.000000 -0.018662 0.000000
# 2 -0.011725 0.020072 -0.001993 0.000000 0.003284 0.000000
# 3 -0.003759 -0.001993 0.012352 0.000000 -0.008398 0.000000
# 4 0.000000 0.000000 0.000000 0.062573 0.000000 0.001426
# 5 -0.018662 0.003284 -0.008398 0.000000 0.083218 0.000000
# 6 0.000000 0.000000 0.000000 0.001426 0.000000 0.032259
#
#
# Mechanical properties :
#
#
# Convention : Reuss Voigt Hill
#
# Bulk Modulus (GPa) = 36.10606 49.51460 42.81033
# Shear Modulus (GPa) = 17.55096 22.27931 19.91513
#
# Velocity S-wave (km/s) = 3.18078 3.58372 3.38824
# Velocity P-wave (km/s) = 5.85691 6.75774 6.32338
#
# Compressibility (1/GPa) = 0.02769618
#
# Stress axis : x y z
#
# Youngs Moduli (GPa) = 33.08482 49.82136 80.95573
#
# Poissons Ratio (x) = 0.58417 0.30428
# Poissons Ratio (y) = 0.38793 0.16133
# Poissons Ratio (z) = 0.12435 0.09928
#
# Static dielectric constant tensor:
#      x y z
#    x 1.614530 0.000000 0.015970 
#    y 0.000000 1.553130 0.000000 
#    z 0.015970 0.000000 1.626420 
# 
# From -- ./inp_files/107629.got.cif
#   From: 2010.05.17/outbox.cif.g08.bks.cpg/sg15_54_cif.got.tgz:107629.got - 2010.06.03 18:47:42.
