data_PCOD9258405
_publ_section_title
;
Structure prediction by ZEFSAII (Michael W. Deem and Ramdas Pophale) SiO2 
 PCOD9258405
Probable space group: C 2/C
;
_chemical_formula_sum "Si O2"
_cell_formula_units_Z 48
_cell_length_a 17.478837
_cell_length_b 8.141303
_cell_length_c 17.049309
_cell_angle_alpha 90.000000
_cell_angle_beta 64.218365
_cell_angle_gamma 90.000000
_cell_volume 2184.624523
_symmetry_space_group_name_H-M "C 2/C"
_symmetry_group_IT_number 15
_symmetry_cell_setting 'monoclinic'
loop_
_space_group_symop_operation_xyz
x,y,z
-x,y,1/2-z
-x,-y,-z
x,-y,1/2+z
1/2+x,1/2+y,z
1/2-x,1/2+y,1/2-z
1/2-x,1/2-y,-z
1/2+x,1/2-y,1/2+z
loop_
_atom_site_type_symbol
_atom_site_label
_atom_site_fract_x
_atom_site_fract_y
_atom_site_fract_z
Si Si1 0.097712 0.162810 0.176335
Si Si2 0.096291 0.901702 0.388074
Si Si3 0.243949 0.593396 0.161343
Si Si4 0.514816 0.740004 0.065252
Si Si5 0.900111 0.202415 0.791736
Si Si6 0.348761 0.139390 0.696089
O O1 0.119598 0.971087 0.158167
O O2 0.000000 0.163305 0.250000
O O3 0.090578 0.244144 0.094522
O O4 0.146410 0.259279 0.223156
O O5 0.182506 0.963879 0.392324
O O6 0.049777 0.768487 0.462246
O O7 0.115968 0.838529 0.292792
O O8 0.035438 0.062790 0.404421
O O9 0.161638 0.653769 0.150512
O O10 0.296422 0.756154 0.157409
O O11 0.201256 0.522254 0.259422
O O12 0.444082 0.872173 0.120884
O O13 0.000000 0.243798 0.750000
#
# Coordination Sequence:
#
# PCOD9258405 Si02
#       6
#     8   8   8   8   8   8
#     4   9  15  32  53  77 102 141 181 216 260 326
#     4  10  18  34  56  80 107 143 180 225 269 322
#     4  11  20  33  57  80 108 143 187 225 268 320
#     4   9  18  32  58  79 104 144 183 217 272 330
#     4  11  19  34  56  81 111 142 182 228 264 322
#     4  10  18  33  56  78 104 145 186 220 267 328
#
# _framework density 21.971737999999998
#
# number of rings (size 3 to 8) (size 9 to 14) (size 15 to 20)
#    0.000    2.000    8.333    0.000    0.000    2.000 
#    0.000    2.500    3.667    0.000    0.000    0.000 
#    0.000    0.000    0.000    0.000    0.000    0.000 
#
# Total GULP energy -133728.030321 kJ/mol
# GULP energy per Si atom -5572.001263 kJ/mol
# Density = 2.192173 g / cm^3
# Si number density = 21.971738 Si / 1000 Ang^3
#
#
#
# Elastic Constant Matrix: (Units=GPa)
#
#
# Indices 1 2 3 4 5 6 
#
# 1 88.9354 8.9796 0.9398 0.0000 -13.5157 0.0000
# 2 8.9796 27.6167 -0.0726 0.0000 -12.6465 0.0001
# 3 0.9398 -0.0726 27.4560 0.0000 -0.5789 0.0000
# 4 0.0000 0.0000 0.0000 9.9089 0.0000 -4.9192
# 5 -13.5157 -12.6465 -0.5789 0.0000 17.2682 0.0000
# 6 0.0000 0.0001 0.0000 -4.9192 0.0000 22.3595
#
#
#
# Elastic Compliance Matrix: (Units=1/GPa)
#
#
# Indices 1 2 3 4 5 6 
#
# 1 0.012771 0.000633 -0.000215 0.000000 0.010452 0.000000
# 2 0.000633 0.054540 0.000976 0.000000 0.040471 0.000000
# 3 -0.000215 0.000976 0.036469 0.000000 0.001769 0.000000
# 4 0.000000 0.000000 0.000000 0.113294 0.000000 0.024925
# 5 0.010452 0.040471 0.001769 0.000000 0.095790 0.000000
# 6 0.000000 0.000000 0.000000 0.024925 0.000000 0.050207
#
#
# Mechanical properties :
#
#
# Convention : Reuss Voigt Hill
#
# Bulk Modulus (GPa) = 9.38368 18.18907 13.78637
# Shear Modulus (GPa) = 12.63250 18.85141 15.74195
#
# Velocity S-wave (km/s) = 2.40040 2.93231 2.67959
# Velocity P-wave (km/s) = 3.45870 4.44533 3.98269
#
# Compressibility (1/GPa) = 0.10656803
#
# Stress axis : x y z
#
# Youngs Moduli (GPa) = 78.30307 18.33533 27.42041
#
# Poissons Ratio (x) = -0.01161 0.00590
# Poissons Ratio (y) = -0.04960 -0.02676
# Poissons Ratio (z) = 0.01684 -0.01789
#
# Static dielectric constant tensor:
#      x y z
#    x 1.871440 0.000000 -0.008140 
#    y 0.000000 1.862760 0.000000 
#    z -0.008140 0.000000 1.784050 
# 
# From -- ./inp_files/246856.got.cif
#   From: 2010.05.17/outbox.cif.g08.bks.cpg/sg15_124_cif.got.tgz:246856.got - 2010.06.03 18:47:42.
