data_PCOD9258093
_publ_section_title
;
Structure prediction by ZEFSAII (Michael W. Deem and Ramdas Pophale) SiO2 
 PCOD9258093
Probable space group: C 2/C
;
_chemical_formula_sum "Si O2"
_cell_formula_units_Z 48
_cell_length_a 27.766999
_cell_length_b 10.825085
_cell_length_c 18.427953
_cell_angle_alpha 90.000000
_cell_angle_beta 26.618293
_cell_angle_gamma 90.000000
_cell_volume 2481.752964
_symmetry_space_group_name_H-M "C 2/C"
_symmetry_group_IT_number 15
_symmetry_cell_setting 'monoclinic'
loop_
_space_group_symop_operation_xyz
x,y,z
-x,y,1/2-z
-x,-y,-z
x,-y,1/2+z
1/2+x,1/2+y,z
1/2-x,1/2+y,1/2-z
1/2-x,1/2-y,-z
1/2+x,1/2-y,1/2+z
loop_
_atom_site_type_symbol
_atom_site_label
_atom_site_fract_x
_atom_site_fract_y
_atom_site_fract_z
Si Si1 0.306609 0.579032 0.914740
Si Si2 0.348618 0.946198 0.738874
Si Si3 0.663875 0.631985 0.396502
Si Si4 0.546295 0.205612 0.937786
Si Si5 0.382879 0.199607 0.402683
Si Si6 0.003702 0.938724 0.914684
O O1 0.372605 0.700778 0.850959
O O2 0.390428 0.480646 0.771516
O O3 0.235350 0.549523 0.081676
O O4 0.219116 0.612116 0.971329
O O5 0.285630 0.905489 0.750647
O O6 0.443667 0.846012 0.620890
O O7 0.397451 0.081578 0.664895
O O8 0.628719 0.710348 0.373454
O O9 0.630882 0.720756 0.506716
O O10 0.596380 0.504651 0.489156
O O11 0.503944 0.293824 0.930464
O O12 0.500000 0.139339 0.250000
O O13 0.000000 0.000000 0.000000
#
# Coordination Sequence:
#
# PCOD9258093 Si02
#       6
#     8   8   8   8   8   8
#     4  10  21  35  57  88 121 154 200 246 304 350
#     4  10  23  39  61  87 121 165 197 248 300 362
#     4  10  21  34  62  86 117 152 205 240 301 353
#     4  10  23  41  58  88 125 156 200 254 300 358
#     4  10  18  32  59  87 117 149 200 257 286 353
#     4  10  22  37  57  87 119 153 195 252 301 351
#
# _framework density 19.341168
#
# number of rings (size 3 to 8) (size 9 to 14) (size 15 to 20)
#    0.000    2.000    1.667    1.000   14.000    2.000 
#    0.000    0.000    0.000    0.000    0.000    0.000 
#    0.000    0.000    0.000    0.000    0.000    0.000 
#
# Total GULP energy -133764.262723 kJ/mol
# GULP energy per Si atom -5573.510947 kJ/mol
# Density = 1.929715 g / cm^3
# Si number density = 19.341168 Si / 1000 Ang^3
#
#
#
# Elastic Constant Matrix: (Units=GPa)
#
#
# Indices 1 2 3 4 5 6 
#
# 1 49.3462 9.7196 4.9185 0.0000 -6.8980 0.0000
# 2 9.7196 92.3459 30.6818 0.0001 0.8045 0.0000
# 3 4.9185 30.6818 89.3349 0.0001 5.9928 0.0000
# 4 0.0000 0.0001 0.0001 15.4756 0.0000 6.9032
# 5 -6.8980 0.8045 5.9928 0.0000 26.5989 0.0000
# 6 0.0000 0.0000 0.0000 6.9032 0.0000 12.5499
#
#
#
# Elastic Compliance Matrix: (Units=1/GPa)
#
#
# Indices 1 2 3 4 5 6 
#
# 1 0.021571 -0.002028 -0.000884 0.000000 0.005855 0.000000
# 2 -0.002028 0.012423 -0.004157 0.000000 0.000035 0.000000
# 3 -0.000884 -0.004157 0.012872 0.000000 -0.003004 0.000000
# 4 0.000000 0.000000 0.000000 0.085628 0.000000 -0.047100
# 5 0.005855 0.000035 -0.003004 0.000000 0.039789 0.000000
# 6 0.000000 0.000000 0.000000 -0.047100 0.000000 0.105590
#
#
# Mechanical properties :
#
#
# Convention : Reuss Voigt Hill
#
# Bulk Modulus (GPa) = 30.55508 35.74076 33.14792
# Shear Modulus (GPa) = 16.50596 23.30535 19.90566
#
# Velocity S-wave (km/s) = 2.92449 3.47502 3.21157
# Velocity P-wave (km/s) = 5.21879 5.88390 5.56130
#
# Compressibility (1/GPa) = 0.03272778
#
# Stress axis : x y z
#
# Youngs Moduli (GPa) = 46.35885 80.49413 77.68893
#
# Poissons Ratio (x) = 0.16322 0.06867
# Poissons Ratio (y) = 0.09400 0.32299
# Poissons Ratio (z) = 0.04098 0.33465
#
# Static dielectric constant tensor:
#      x y z
#    x 1.729910 0.000000 -0.023330 
#    y 0.000000 1.674770 0.000000 
#    z -0.023330 0.000000 1.692400 
# 
# From -- ./inp_files/222276.got.cif
#   From: 2010.05.17/outbox.cif.g08.bks.cpg/sg15_112_cif.got.tgz:222276.got - 2010.06.03 18:47:42.
