data_PCOD9258622
_publ_section_title
;
Structure prediction by ZEFSAII (Michael W. Deem and Ramdas Pophale) SiO2 
 PCOD9258622
Probable space group: C 2/C
;
_chemical_formula_sum "Si O2"
_cell_formula_units_Z 56
_cell_length_a 27.919244
_cell_length_b 10.255181
_cell_length_c 19.235991
_cell_angle_alpha 90.000000
_cell_angle_beta 29.364316
_cell_angle_gamma 90.000000
_cell_volume 2700.707358
_symmetry_space_group_name_H-M "C 2/C"
_symmetry_group_IT_number 15
_symmetry_cell_setting 'monoclinic'
loop_
_space_group_symop_operation_xyz
x,y,z
-x,y,1/2-z
-x,-y,-z
x,-y,1/2+z
1/2+x,1/2+y,z
1/2-x,1/2+y,1/2-z
1/2-x,1/2-y,-z
1/2+x,1/2-y,1/2+z
loop_
_atom_site_type_symbol
_atom_site_label
_atom_site_fract_x
_atom_site_fract_y
_atom_site_fract_z
Si Si1 0.048847 0.448103 0.336149
Si Si2 0.851556 0.526354 0.639532
Si Si3 0.911283 0.070239 0.913662
Si Si4 0.948562 0.228358 0.389423
Si Si5 0.306812 0.305920 0.671049
Si Si6 0.233657 0.813882 0.628340
Si Si7 0.738732 0.037459 0.540223
O O1 0.100570 0.455696 0.345311
O O2 0.126704 0.508782 0.184052
O O3 0.945131 0.519183 0.471355
O O4 0.017665 0.300787 0.356236
O O5 0.785271 0.398523 0.727633
O O6 0.787822 0.650988 0.698034
O O7 0.000000 0.107684 0.750000
O O8 0.934520 0.925882 0.915365
O O9 0.884554 0.160684 0.012755
O O10 0.815425 0.047414 0.986343
O O11 0.844674 0.300318 0.516277
O O12 0.000000 0.245007 0.250000
O O13 0.331894 0.333994 0.720519
O O14 0.224938 0.926766 0.582344
O O15 0.227024 0.676679 0.595407
#
# Coordination Sequence:
#
# PCOD9258622 Si02
#       7
#     8   8   8   8   8   8   8
#     4  11  20  38  62 100 125 166 211 274 317 384
#     4  11  25  38  69  93 133 166 218 259 333 376
#     4  10  23  39  61  88 131 182 213 263 334 388
#     4  10  18  33  61  94 124 160 218 271 310 374
#     4  12  22  44  63  96 125 178 211 271 313 405
#     4  10  19  32  60  95 126 157 216 268 322 363
#     4  10  19  37  63  93 128 165 213 279 317 382
#
# _framework density 20.735308
#
# number of rings (size 3 to 8) (size 9 to 14) (size 15 to 20)
#    0.000    1.429    5.714    0.857    2.000    0.000 
#    0.000    5.000    0.000    1.714    0.000    0.000 
#    0.000    0.000    0.000    0.000    0.000    0.000 
#
# Total GULP energy -156105.535586 kJ/mol
# GULP energy per Si atom -5575.197700 kJ/mol
# Density = 2.068811 g / cm^3
# Si number density = 20.735308 Si / 1000 Ang^3
#
#
#
# Elastic Constant Matrix: (Units=GPa)
#
#
# Indices 1 2 3 4 5 6 
#
# 1 59.5394 19.1756 18.4619 -0.0001 4.1323 0.0001
# 2 19.1756 49.3254 20.9569 -0.0003 -12.6071 0.0002
# 3 18.4619 20.9569 113.2314 0.0000 12.2762 0.0001
# 4 -0.0001 -0.0003 0.0000 29.2404 0.0000 3.3463
# 5 4.1323 -12.6071 12.2762 0.0000 39.2086 0.0000
# 6 0.0001 0.0002 0.0001 3.3463 0.0000 17.6937
#
#
#
# Elastic Compliance Matrix: (Units=1/GPa)
#
#
# Indices 1 2 3 4 5 6 
#
# 1 0.020220 -0.008474 -0.001244 0.000000 -0.004466 0.000000
# 2 -0.008474 0.028802 -0.005227 0.000000 0.011791 0.000000
# 3 -0.001244 -0.005227 0.010527 0.000000 -0.004846 0.000000
# 4 0.000000 0.000000 0.000000 0.034956 0.000000 -0.006611
# 5 -0.004466 0.011791 -0.004846 0.000000 0.031284 0.000000
# 6 0.000000 0.000000 0.000000 -0.006611 0.000000 0.057768
#
#
# Mechanical properties :
#
#
# Convention : Reuss Voigt Hill
#
# Bulk Modulus (GPa) = 33.71652 37.69835 35.70743
# Shear Modulus (GPa) = 22.38794 28.12865 25.25829
#
# Velocity S-wave (km/s) = 3.28945 3.68714 3.49396
# Velocity P-wave (km/s) = 5.54283 6.02884 5.79094
#
# Compressibility (1/GPa) = 0.02965906
#
# Stress axis : x y z
#
# Youngs Moduli (GPa) = 49.45479 34.71937 94.99182
#
# Poissons Ratio (x) = 0.29420 0.11820
# Poissons Ratio (y) = 0.41906 0.49657
# Poissons Ratio (z) = 0.06154 0.18149
#
# Static dielectric constant tensor:
#      x y z
#    x 1.748270 0.000000 -0.001290 
#    y 0.000000 1.772030 0.000000 
#    z -0.001290 0.000000 1.852160 
# 
# From -- ./inp_files/258964.got.cif
#   From: 2010.05.17/outbox.cif.g08.bks.cpg/sg15_130_cif.got.tgz:258964.got - 2010.06.03 18:47:42.
