data_PCOD9258473
_publ_section_title
;
Structure prediction by ZEFSAII (Michael W. Deem and Ramdas Pophale) SiO2 
 PCOD9258473
Probable space group: C 2/C
;
_chemical_formula_sum "Si O2"
_cell_formula_units_Z 40
_cell_length_a 21.379841
_cell_length_b 7.017138
_cell_length_c 11.055100
_cell_angle_alpha 90.000000
_cell_angle_beta 97.490822
_cell_angle_gamma 90.000000
_cell_volume 1644.390213
_symmetry_space_group_name_H-M "C 2/C"
_symmetry_group_IT_number 15
_symmetry_cell_setting 'monoclinic'
loop_
_space_group_symop_operation_xyz
x,y,z
-x,y,1/2-z
-x,-y,-z
x,-y,1/2+z
1/2+x,1/2+y,z
1/2-x,1/2+y,1/2-z
1/2-x,1/2-y,-z
1/2+x,1/2-y,1/2+z
loop_
_atom_site_type_symbol
_atom_site_label
_atom_site_fract_x
_atom_site_fract_y
_atom_site_fract_z
Si Si1 0.298111 0.575379 0.659918
Si Si2 0.062105 0.843833 0.337594
Si Si3 0.906474 0.391973 0.190302
Si Si4 0.731570 0.015816 0.901008
Si Si5 0.979440 0.301620 0.432841
O O1 0.373384 0.549930 0.676571
O O2 0.272941 0.554382 0.790751
O O3 0.262608 0.462120 0.542001
O O4 0.286234 0.793769 0.618727
O O5 0.074642 0.617275 0.312315
O O6 0.043565 0.843518 0.472973
O O7 0.000000 0.901104 0.250000
O O8 0.835146 0.376920 0.129678
O O9 0.920065 0.338182 0.331492
O O10 0.956926 0.269180 0.126931
O O11 0.000000 0.500000 0.500000
#
# Coordination Sequence:
#
# PCOD9258473 Si02
#       5
#     8   8   8   8   8
#     4  10  24  41  63  88 125 164 208 255 304 367
#     4  10  18  33  57  85 116 158 198 250 302 358
#     4   9  17  28  54  84 118 147 191 258 300 345
#     4  10  23  40  62  92 125 164 203 253 312 367
#     4   9  15  27  49  86 115 140 192 251 308 340
#
# _framework density 24.325126999999998
#
# number of rings (size 3 to 8) (size 9 to 14) (size 15 to 20)
#    0.000    2.400    4.000    0.000   11.200    0.800 
#    0.000    1.000    0.000    0.000    0.000    0.000 
#    0.000    0.000    0.000    0.000    0.000    0.000 
#
# Total GULP energy -111863.796481 kJ/mol
# GULP energy per Si atom -5593.189824 kJ/mol
# Density = 2.426976 g / cm^3
# Si number density = 24.325127 Si / 1000 Ang^3
#
#
#
# Elastic Constant Matrix: (Units=GPa)
#
#
# Indices 1 2 3 4 5 6 
#
# 1 193.8225 29.9275 64.2303 0.0000 22.8839 0.0000
# 2 29.9275 68.1546 10.2921 0.0000 7.6977 0.0000
# 3 64.2303 10.2921 134.4191 0.0000 17.4211 0.0000
# 4 0.0000 0.0000 0.0000 27.5303 0.0000 -1.1078
# 5 22.8839 7.6977 17.4211 0.0000 32.4822 0.0000
# 6 0.0000 0.0000 0.0000 -1.1078 0.0000 47.3003
#
#
#
# Elastic Compliance Matrix: (Units=1/GPa)
#
#
# Indices 1 2 3 4 5 6 
#
# 1 0.006719 -0.002233 -0.002681 0.000000 -0.002767 0.000000
# 2 -0.002233 0.015888 0.000145 0.000000 -0.002269 0.000000
# 3 -0.002681 0.000145 0.009102 0.000000 -0.003027 0.000000
# 4 0.000000 0.000000 0.000000 0.036358 0.000000 0.000852
# 5 -0.002767 -0.002269 -0.003027 0.000000 0.034896 0.000000
# 6 0.000000 0.000000 0.000000 0.000852 0.000000 0.021161
#
#
# Mechanical properties :
#
#
# Convention : Reuss Voigt Hill
#
# Bulk Modulus (GPa) = 45.10704 67.25511 56.18107
# Shear Modulus (GPa) = 35.44753 40.92565 38.18659
#
# Velocity S-wave (km/s) = 3.82152 4.10621 3.96642
# Velocity P-wave (km/s) = 6.16893 7.08447 6.64249
#
# Compressibility (1/GPa) = 0.02216949
#
# Stress axis : x y z
#
# Youngs Moduli (GPa) = 148.82430 62.94217 109.86827
#
# Poissons Ratio (x) = 0.14056 0.29458
# Poissons Ratio (y) = 0.33235 -0.01590
# Poissons Ratio (z) = 0.39903 -0.00911
#
# Static dielectric constant tensor:
#      x y z
#    x 1.892300 0.000000 -0.017650 
#    y 0.000000 2.023390 0.000000 
#    z -0.017650 0.000000 2.050390 
# 
# From -- ./inp_files/109682.got.cif
#   From: 2010.05.17/outbox.cif.g08.bks.cpg/sg15_55_cif.got.tgz:109682.got - 2010.06.03 18:47:42.
