data_PCOD9258131
_publ_section_title
;
Structure prediction by ZEFSAII (Michael W. Deem and Ramdas Pophale) SiO2 
 PCOD9258131
Probable space group: C 2/C
;
_chemical_formula_sum "Si O2"
_cell_formula_units_Z 36
_cell_length_a 12.344034
_cell_length_b 13.802952
_cell_length_c 13.232504
_cell_angle_alpha 90.000000
_cell_angle_beta 37.472228
_cell_angle_gamma 90.000000
_cell_volume 1371.651465
_symmetry_space_group_name_H-M "C 2/C"
_symmetry_group_IT_number 15
_symmetry_cell_setting 'monoclinic'
loop_
_space_group_symop_operation_xyz
x,y,z
-x,y,1/2-z
-x,-y,-z
x,-y,1/2+z
1/2+x,1/2+y,z
1/2-x,1/2+y,1/2-z
1/2-x,1/2-y,-z
1/2+x,1/2-y,1/2+z
loop_
_atom_site_type_symbol
_atom_site_label
_atom_site_fract_x
_atom_site_fract_y
_atom_site_fract_z
Si Si1 0.345423 0.702860 0.661881
Si Si2 0.672272 0.548675 0.160559
Si Si3 0.750000 0.750000 0.000000
Si Si4 0.055506 0.561768 0.810919
Si Si5 0.294669 0.611747 0.136644
O O1 0.341894 0.739436 0.547894
O O2 0.175400 0.631075 0.790181
O O3 0.525968 0.645948 0.548323
O O4 0.319816 0.792920 0.754584
O O5 0.500000 0.490503 0.250000
O O6 0.650519 0.571095 0.294031
O O7 0.670612 0.645462 0.093111
O O8 0.879657 0.519662 0.992496
O O9 0.178343 0.475337 0.678380
O O10 0.000000 0.624773 0.750000
#
# Coordination Sequence:
#
# PCOD9258131 Si02
#       5
#     8   8   4   8   8
#     4  11  22  39  65  93 131 163 210 267 319 371
#     4  11  21  35  59  95 127 157 204 266 322 370
#     4  10  18  32  60  94 114 152 202 258 318 356
#     4  12  24  41  64  96 129 171 212 263 317 382
#     4  11  24  39  63  98 131 164 214 264 323 375
#
# _framework density 26.245733999999999
#
# number of rings (size 3 to 8) (size 9 to 14) (size 15 to 20)
#    0.000    0.889    4.444    4.000    3.111    0.000 
#    0.000    1.111    0.000    1.333    0.000    0.000 
#    0.000    0.000    0.000    0.000    0.000    0.000 
#
# Total GULP energy -100344.801595 kJ/mol
# GULP energy per Si atom -5574.711200 kJ/mol
# Density = 2.618600 g / cm^3
# Si number density = 26.245734 Si / 1000 Ang^3
#
#
#
# Elastic Constant Matrix: (Units=GPa)
#
#
# Indices 1 2 3 4 5 6 
#
# 1 31.7807 9.8904 21.7244 -0.0004 -0.5160 0.0001
# 2 9.8904 95.0398 23.1760 -0.0003 -5.7367 0.0001
# 3 21.7244 23.1760 115.6148 -0.0011 -39.4191 0.0004
# 4 -0.0004 -0.0003 -0.0011 16.2031 0.0005 9.3590
# 5 -0.5160 -5.7367 -39.4191 0.0005 40.7989 -0.0001
# 6 0.0001 0.0001 0.0004 9.3590 -0.0001 50.5446
#
#
#
# Elastic Compliance Matrix: (Units=1/GPa)
#
#
# Indices 1 2 3 4 5 6 
#
# 1 0.038930 -0.002153 -0.010169 0.000000 -0.009635 0.000000
# 2 -0.002153 0.011203 -0.001958 0.000000 -0.000344 0.000000
# 3 -0.010169 -0.001958 0.016128 0.000001 0.015178 0.000000
# 4 0.000000 0.000000 0.000001 0.069108 0.000000 -0.012796
# 5 -0.009635 -0.000344 0.015178 0.000000 0.039005 0.000000
# 6 0.000000 0.000000 0.000000 -0.012796 0.000000 0.022154
#
#
# Mechanical properties :
#
#
# Convention : Reuss Voigt Hill
#
# Bulk Modulus (GPa) = 26.52499 39.11298 32.81898
# Shear Modulus (GPa) = 21.03887 34.01894 27.52891
#
# Velocity S-wave (km/s) = 2.83435 3.60414 3.24217
# Velocity P-wave (km/s) = 4.56505 5.67933 5.15240
#
# Compressibility (1/GPa) = 0.03770030
#
# Stress axis : x y z
#
# Youngs Moduli (GPa) = 25.68695 89.26349 62.00458
#
# Poissons Ratio (x) = 0.19220 0.63050
# Poissons Ratio (y) = 0.05531 0.12143
# Poissons Ratio (z) = 0.26120 0.17482
#
# Static dielectric constant tensor:
#      x y z
#    x 2.026250 0.000000 -0.042320 
#    y 0.000000 2.146660 0.000000 
#    z -0.042320 0.000000 2.498700 
# 
# From -- ./inp_files/55588.got.cif
#   From: 2010.05.17/outbox.cif.g08.bks.cpg/sg15_28_cif.got.tgz:55588.got - 2010.06.03 18:47:42.
