data_PCOD9258104
_publ_section_title
;
Structure prediction by ZEFSAII (Michael W. Deem and Ramdas Pophale) SiO2 
 PCOD9258104
Probable space group: C 2/C
;
_chemical_formula_sum "Si O2"
_cell_formula_units_Z 56
_cell_length_a 7.806014
_cell_length_b 11.210352
_cell_length_c 26.615370
_cell_angle_alpha 90.000000
_cell_angle_beta 83.036581
_cell_angle_gamma 90.000000
_cell_volume 2311.882454
_symmetry_space_group_name_H-M "C 2/C"
_symmetry_group_IT_number 15
_symmetry_cell_setting 'monoclinic'
loop_
_space_group_symop_operation_xyz
x,y,z
-x,y,1/2-z
-x,-y,-z
x,-y,1/2+z
1/2+x,1/2+y,z
1/2-x,1/2+y,1/2-z
1/2-x,1/2-y,-z
1/2+x,1/2-y,1/2+z
loop_
_atom_site_type_symbol
_atom_site_label
_atom_site_fract_x
_atom_site_fract_y
_atom_site_fract_z
Si Si1 0.003390 0.674899 0.581442
Si Si2 0.783411 0.709346 0.792875
Si Si3 0.377278 0.719619 0.183903
Si Si4 0.935776 0.063870 0.052061
Si Si5 0.579621 0.952455 0.694089
Si Si6 0.027465 0.580316 0.081671
Si Si7 0.603391 0.667659 0.893728
O O1 0.955574 0.544675 0.560715
O O2 0.197233 0.657209 0.595589
O O3 0.879054 0.706101 0.632707
O O4 0.008671 0.801736 0.552889
O O5 0.775779 0.720553 0.733782
O O6 0.893025 0.591159 0.799074
O O7 0.617027 0.697770 0.833692
O O8 0.923570 0.806350 0.807630
O O9 0.268609 0.601624 0.179711
O O10 0.980486 0.960656 0.091794
O O11 0.729859 0.081137 0.061723
O O12 0.000000 0.000000 0.000000
O O13 0.500000 0.907907 0.750000
O O14 0.491630 0.935788 0.643165
O O15 0.965022 0.715462 0.074699
#
# Coordination Sequence:
#
# PCOD9258104 Si02
#       7
#     8   8   8   8   8   8   8
#     4  10  20  42  61  88 124 163 199 256 312 366
#     4  10  18  36  56  83 120 160 201 245 300 366
#     4  10  18  32  60  81 115 164 198 237 303 361
#     4  11  24  44  66  88 124 166 206 259 315 364
#     4  12  19  34  60  85 124 166 199 247 304 361
#     4  11  22  39  64  92 122 161 206 257 306 368
#     4  10  22  39  62  93 122 159 206 255 308 371
#
# _framework density 24.222683
#
# number of rings (size 3 to 8) (size 9 to 14) (size 15 to 20)
#    0.000    1.429    7.143    0.857    0.000    4.000 
#    0.000    1.429    9.429    0.000    0.000    0.000 
#    0.000    0.000    0.000    0.000    0.000    0.000 
#
# Total GULP energy -156057.770839 kJ/mol
# GULP energy per Si atom -5573.491816 kJ/mol
# Density = 2.416755 g / cm^3
# Si number density = 24.222683 Si / 1000 Ang^3
#
#
#
# Elastic Constant Matrix: (Units=GPa)
#
#
# Indices 1 2 3 4 5 6 
#
# 1 20.6615 12.1243 2.5241 0.0000 -12.1658 0.0000
# 2 12.1243 92.0073 14.4537 0.0000 0.8955 0.0000
# 3 2.5241 14.4537 94.1484 0.0000 -8.9201 0.0000
# 4 0.0000 0.0000 0.0000 34.1897 0.0000 -2.0698
# 5 -12.1658 0.8955 -8.9201 0.0000 16.1182 0.0000
# 6 0.0000 0.0000 0.0000 -2.0698 0.0000 2.3157
#
#
#
# Elastic Compliance Matrix: (Units=1/GPa)
#
#
# Indices 1 2 3 4 5 6 
#
# 1 0.108210 -0.016338 0.007843 0.000000 0.086923 0.000000
# 2 -0.016338 0.013646 -0.003057 0.000000 -0.014781 0.000000
# 3 0.007843 -0.003057 0.012092 0.000000 0.012781 0.000000
# 4 0.000000 0.000000 0.000000 0.030922 0.000000 0.027638
# 5 0.086923 -0.014781 0.012781 0.000000 0.135544 0.000000
# 6 0.000000 0.000000 0.000000 0.027638 0.000000 0.456533
#
#
# Mechanical properties :
#
#
# Convention : Reuss Voigt Hill
#
# Bulk Modulus (GPa) = 9.02180 29.44684 19.23432
# Shear Modulus (GPa) = 6.11996 22.37241 14.24618
#
# Velocity S-wave (km/s) = 1.59123 3.04240 2.42778
# Velocity P-wave (km/s) = 2.66620 4.95224 3.97702
#
# Compressibility (1/GPa) = 0.11084261
#
# Stress axis : x y z
#
# Youngs Moduli (GPa) = 9.24129 73.28284 82.70229
#
# Poissons Ratio (x) = 1.19726 -0.64860
# Poissons Ratio (y) = 0.15098 0.25285
# Poissons Ratio (z) = -0.07248 0.22405
#
# Static dielectric constant tensor:
#      x y z
#    x 1.954950 0.000000 0.030860 
#    y 0.000000 1.985740 0.000000 
#    z 0.030860 0.000000 2.012440 
# 
# From -- ./inp_files/307066.got.cif
#   From: 2010.05.17/outbox.cif.g08.bks.cpg/sg15_154_cif.got.tgz:307066.got - 2010.06.03 18:47:42.
