data_PCOD9258221
_publ_section_title
;
Structure prediction by ZEFSAII (Michael W. Deem and Ramdas Pophale) SiO2 
 PCOD9258221
Probable space group: C 2/C
;
_chemical_formula_sum "Si O2"
_cell_formula_units_Z 52
_cell_length_a 26.788816
_cell_length_b 5.011436
_cell_length_c 16.407647
_cell_angle_alpha 90.000000
_cell_angle_beta 78.525045
_cell_angle_gamma 90.000000
_cell_volume 2158.705003
_symmetry_space_group_name_H-M "C 2/C"
_symmetry_group_IT_number 15
_symmetry_cell_setting 'monoclinic'
loop_
_space_group_symop_operation_xyz
x,y,z
-x,y,1/2-z
-x,-y,-z
x,-y,1/2+z
1/2+x,1/2+y,z
1/2-x,1/2+y,1/2-z
1/2-x,1/2-y,-z
1/2+x,1/2-y,1/2+z
loop_
_atom_site_type_symbol
_atom_site_label
_atom_site_fract_x
_atom_site_fract_y
_atom_site_fract_z
Si Si1 0.270343 0.631098 0.345351
Si Si2 0.354230 0.761491 0.426145
Si Si3 0.570184 0.221237 0.465437
Si Si4 0.601975 0.264249 0.176989
Si Si5 0.000000 0.511160 0.250000
Si Si6 0.030949 0.215542 0.395565
Si Si7 0.685955 0.131080 0.258086
O O1 0.295547 0.696630 0.423986
O O2 0.284443 0.332363 0.313177
O O3 0.211849 0.671945 0.337615
O O4 0.301574 0.832842 0.275636
O O5 0.376776 0.718402 0.508114
O O6 0.385083 0.558785 0.357046
O O7 0.369569 0.058971 0.393703
O O8 0.553452 0.424648 0.400806
O O9 0.525615 0.265767 0.547446
O O10 0.565235 0.920385 0.436469
O O11 0.628111 0.201404 0.255989
O O12 0.542983 0.193583 0.195149
O O13 0.972805 0.322653 0.193680
#
# Coordination Sequence:
#
# PCOD9258221 Si02
#       7
#     8   8   8   8   4   8   8
#     4   8  14  24  46  67  95 121 158 202 254 296
#     4  10  18  33  51  75  97 131 168 211 252 300
#     4  10  20  38  52  73  96 137 167 218 250 297
#     4  10  21  30  49  72 105 133 167 207 250 299
#     4  12  24  38  50  80 102 144 172 210 246 310
#     4  10  23  34  54  69 102 133 175 207 254 294
#     4   8  14  27  40  68  97 126 153 201 256 293
#
# _framework density 24.088515000000001
#
# number of rings (size 3 to 8) (size 9 to 14) (size 15 to 20)
#    0.000    2.462    1.538    0.923    4.308    2.462 
#    0.000    0.000    0.000    0.000    0.000    2.154 
#    0.000    0.000    0.000    0.000    0.000    0.000 
#
# Total GULP energy -145334.841348 kJ/mol
# GULP energy per Si atom -5589.801590 kJ/mol
# Density = 2.403369 g / cm^3
# Si number density = 24.088515 Si / 1000 Ang^3
#
#
#
# Elastic Constant Matrix: (Units=GPa)
#
#
# Indices 1 2 3 4 5 6 
#
# 1 80.4839 11.4306 53.9861 0.0000 38.2480 0.0000
# 2 11.4306 79.7760 3.4519 0.0000 -5.6165 0.0000
# 3 53.9861 3.4519 55.4228 0.0000 24.5972 0.0000
# 4 0.0000 0.0000 0.0000 20.8083 0.0000 10.7643
# 5 38.2480 -5.6165 24.5972 0.0000 52.9998 0.0000
# 6 0.0000 0.0000 0.0000 10.7643 0.0000 15.5186
#
#
#
# Elastic Compliance Matrix: (Units=1/GPa)
#
#
# Indices 1 2 3 4 5 6 
#
# 1 0.046211 -0.006190 -0.037197 0.000000 -0.016741 0.000000
# 2 -0.006190 0.013593 0.003226 0.000000 0.004411 0.000000
# 3 -0.037197 0.003226 0.052908 0.000000 0.002631 0.000000
# 4 0.000000 0.000000 0.000000 0.074953 0.000000 -0.051990
# 5 -0.016741 0.004411 0.002631 0.000000 0.030196 0.000000
# 6 0.000000 0.000000 0.000000 -0.051990 0.000000 0.100501
#
#
# Mechanical properties :
#
#
# Convention : Reuss Voigt Hill
#
# Bulk Modulus (GPa) = 30.87629 39.26888 35.07259
# Shear Modulus (GPa) = 12.21058 27.65295 19.93176
#
# Velocity S-wave (km/s) = 2.25390 3.39185 2.87964
# Velocity P-wave (km/s) = 4.42934 5.62822 5.06438
#
# Compressibility (1/GPa) = 0.03238731
#
# Stress axis : x y z
#
# Youngs Moduli (GPa) = 21.63996 73.56707 18.90090
#
# Poissons Ratio (x) = 0.45541 0.70306
# Poissons Ratio (y) = 0.13396 -0.06097
# Poissons Ratio (z) = 0.80495 -0.23731
#
# Static dielectric constant tensor:
#      x y z
#    x 1.950430 0.000000 0.046010 
#    y 0.000000 1.842820 0.000000 
#    z 0.046010 0.000000 1.939230 
# 
# From -- ./inp_files/223439.got.cif
#   From: 2010.05.17/outbox.cif.g08.bks.cpg/sg15_112_cif.got.tgz:223439.got - 2010.06.03 18:47:42.
