data_PCOD9258631
_publ_section_title
;
Structure prediction by ZEFSAII (Michael W. Deem and Ramdas Pophale) SiO2 
 PCOD9258631
Probable space group: C 2/C
;
_chemical_formula_sum "Si O2"
_cell_formula_units_Z 52
_cell_length_a 17.666739
_cell_length_b 9.212688
_cell_length_c 16.771452
_cell_angle_alpha 90.000000
_cell_angle_beta 57.143771
_cell_angle_gamma 90.000000
_cell_volume 2293.034465
_symmetry_space_group_name_H-M "C 2/C"
_symmetry_group_IT_number 15
_symmetry_cell_setting 'monoclinic'
loop_
_space_group_symop_operation_xyz
x,y,z
-x,y,1/2-z
-x,-y,-z
x,-y,1/2+z
1/2+x,1/2+y,z
1/2-x,1/2+y,1/2-z
1/2-x,1/2-y,-z
1/2+x,1/2-y,1/2+z
loop_
_atom_site_type_symbol
_atom_site_label
_atom_site_fract_x
_atom_site_fract_y
_atom_site_fract_z
Si Si1 0.045126 0.186742 0.477756
Si Si2 0.333700 0.730118 0.597880
Si Si3 0.664308 0.953882 0.205723
Si Si4 0.326314 0.944039 0.106544
Si Si5 0.347547 0.718933 0.780916
Si Si6 0.013953 0.006299 0.356109
Si Si7 0.500000 0.751148 0.250000
O O1 0.938158 0.196171 0.522973
O O2 0.051410 0.095438 0.555187
O O3 0.087897 0.343985 0.462044
O O4 0.079609 0.090559 0.383183
O O5 0.256731 0.615376 0.618330
O O6 0.327645 0.737323 0.697770
O O7 0.320424 0.894539 0.575640
O O8 0.672534 0.954714 0.297456
O O9 0.582327 0.848715 0.230794
O O10 0.640736 0.118443 0.193516
O O11 0.239276 0.853657 0.130975
O O12 0.427343 0.601084 0.732500
O O13 0.969789 0.138347 0.335037
#
# Coordination Sequence:
#
# PCOD9258631 Si02
#       7
#     8   8   8   8   8   8   4
#     4  10  20  35  62  91 119 147 196 251 292 336
#     4   9  19  34  58  91 119 148 193 248 295 337
#     4  10  21  35  57  85 116 155 199 240 289 350
#     4  10  18  33  62  87 117 146 199 245 291 336
#     4   9  20  34  58  89 114 151 198 249 284 345
#     4  10  22  37  59  85 118 154 196 235 299 340
#     4  12  22  40  60  80 118 164 198 234 288 374
#
# _framework density 22.677374
#
# number of rings (size 3 to 8) (size 9 to 14) (size 15 to 20)
#    0.000    2.154    1.538    1.385   10.769    0.615 
#    0.000    0.769    0.000    1.846    0.000    0.000 
#    0.000    0.000    0.000    0.000    0.000    0.000 
#
# Total GULP energy -145083.942823 kJ/mol
# GULP energy per Si atom -5580.151647 kJ/mol
# Density = 2.262576 g / cm^3
# Si number density = 22.677374 Si / 1000 Ang^3
#
#
#
# Elastic Constant Matrix: (Units=GPa)
#
#
# Indices 1 2 3 4 5 6 
#
# 1 45.2499 47.0686 19.4634 0.0000 -13.6306 0.0000
# 2 47.0686 187.4253 30.0097 0.0000 -22.7723 0.0000
# 3 19.4634 30.0097 38.9161 0.0000 -20.0883 0.0000
# 4 0.0000 0.0000 0.0000 23.2543 0.0000 -0.3120
# 5 -13.6306 -22.7723 -20.0883 0.0000 23.0676 0.0000
# 6 0.0000 0.0000 0.0000 -0.3120 0.0000 15.5119
#
#
#
# Elastic Compliance Matrix: (Units=1/GPa)
#
#
# Indices 1 2 3 4 5 6 
#
# 1 0.034625 -0.006489 -0.009190 0.000000 0.006051 0.000000
# 2 -0.006489 0.007462 -0.001245 0.000000 0.002448 0.000000
# 3 -0.009190 -0.001245 0.050530 0.000000 0.037344 0.000000
# 4 0.000000 0.000000 0.000000 0.043014 0.000000 0.000865
# 5 0.006051 0.002448 0.037344 0.000000 0.081863 0.000000
# 6 0.000000 0.000000 0.000000 0.000865 0.000000 0.064484
#
#
# Mechanical properties :
#
#
# Convention : Reuss Voigt Hill
#
# Bulk Modulus (GPa) = 17.01613 51.63053 34.32333
# Shear Modulus (GPa) = 14.90693 24.03674 19.47183
#
# Velocity S-wave (km/s) = 2.56666 3.25921 2.93344
# Velocity P-wave (km/s) = 4.03776 6.08113 5.16157
#
# Compressibility (1/GPa) = 0.05876776
#
# Stress axis : x y z
#
# Youngs Moduli (GPa) = 28.88122 134.01648 19.79041
#
# Poissons Ratio (x) = 0.86959 0.18187
# Poissons Ratio (y) = 0.18740 0.02465
# Poissons Ratio (z) = 0.26542 0.16691
#
# Static dielectric constant tensor:
#      x y z
#    x 1.849860 0.000000 0.031510 
#    y 0.000000 1.863860 0.000000 
#    z 0.031510 0.000000 1.930580 
# 
# From -- ./inp_files/214222.got.cif
#   From: 2010.05.17/outbox.cif.g08.bks.cpg/sg15_108_cif.got.tgz:214222.got - 2010.06.03 18:47:42.
