data_PCOD9258193
_publ_section_title
;
Structure prediction by ZEFSAII (Michael W. Deem and Ramdas Pophale) SiO2 
 PCOD9258193
Probable space group: C 2/C
;
_chemical_formula_sum "Si O2"
_cell_formula_units_Z 40
_cell_length_a 11.615832
_cell_length_b 18.169394
_cell_length_c 7.767007
_cell_angle_alpha 90.000000
_cell_angle_beta 82.582833
_cell_angle_gamma 90.000000
_cell_volume 1625.530886
_symmetry_space_group_name_H-M "C 2/C"
_symmetry_group_IT_number 15
_symmetry_cell_setting 'monoclinic'
loop_
_space_group_symop_operation_xyz
x,y,z
-x,y,1/2-z
-x,-y,-z
x,-y,1/2+z
1/2+x,1/2+y,z
1/2-x,1/2+y,1/2-z
1/2-x,1/2-y,-z
1/2+x,1/2-y,1/2+z
loop_
_atom_site_type_symbol
_atom_site_label
_atom_site_fract_x
_atom_site_fract_y
_atom_site_fract_z
Si Si1 0.557069 0.575121 0.053851
Si Si2 0.126467 0.164846 0.508893
Si Si3 0.660253 0.811328 0.319391
Si Si4 0.650514 0.921277 0.615001
Si Si5 0.664739 0.913706 0.002915
O O1 0.500000 0.589103 0.250000
O O2 0.694855 0.577398 0.030636
O O3 0.500000 0.500000 0.000000
O O4 0.501685 0.636331 0.941562
O O5 0.202362 0.192038 0.656131
O O6 0.121054 0.229617 0.369294
O O7 0.211118 0.098211 0.428677
O O8 0.606805 0.867649 0.471870
O O9 0.640618 0.847456 0.139104
O O10 0.620499 0.903461 0.817245
O O11 0.625538 0.006524 0.582261
#
# Coordination Sequence:
#
# PCOD9258193 Si02
#       5
#     8   8   8   8   8
#     4  12  21  31  48  78 107 139 170 207 254 313
#     4   9  19  35  45  67 110 138 173 218 245 305
#     4   9  20  35  47  67 103 145 175 212 250 304
#     4  10  18  33  48  75 102 138 174 213 248 307
#     4  12  19  31  54  73 103 139 175 207 261 308
#
# _framework density 24.607344999999999
#
# number of rings (size 3 to 8) (size 9 to 14) (size 15 to 20)
#    1.200    0.400    6.000    0.000    2.800    0.800 
#    0.000    0.000    0.000    0.000    0.000    0.000 
#    0.000    6.400    0.400    0.400    0.000    0.000 
#
# Total GULP energy -111736.846311 kJ/mol
# GULP energy per Si atom -5586.842316 kJ/mol
# Density = 2.455134 g / cm^3
# Si number density = 24.607345 Si / 1000 Ang^3
#
#
#
# Elastic Constant Matrix: (Units=GPa)
#
#
# Indices 1 2 3 4 5 6 
#
# 1 97.6795 15.7665 31.1258 0.0000 8.5851 0.0000
# 2 15.7665 98.0575 20.6245 0.0000 7.7440 0.0000
# 3 31.1258 20.6245 145.8722 0.0000 19.6393 0.0000
# 4 0.0000 0.0000 0.0000 38.5451 0.0000 -2.3453
# 5 8.5851 7.7440 19.6393 0.0000 32.7694 0.0000
# 6 0.0000 0.0000 0.0000 -2.3453 0.0000 18.5805
#
#
#
# Elastic Compliance Matrix: (Units=1/GPa)
#
#
# Indices 1 2 3 4 5 6 
#
# 1 0.011211 -0.001265 -0.002021 0.000000 -0.001427 0.000000
# 2 -0.001265 0.010745 -0.001036 0.000000 -0.001587 0.000000
# 3 -0.002021 -0.001036 0.007972 0.000000 -0.004004 0.000000
# 4 0.000000 0.000000 0.000000 0.026144 0.000000 0.003300
# 5 -0.001427 -0.001587 -0.004004 0.000000 0.033665 0.000000
# 6 0.000000 0.000000 0.000000 0.003300 0.000000 0.054237
#
#
# Mechanical properties :
#
#
# Convention : Reuss Voigt Hill
#
# Bulk Modulus (GPa) = 46.98251 52.96030 49.97140
# Shear Modulus (GPa) = 31.30643 36.25181 33.77912
#
# Velocity S-wave (km/s) = 3.57072 3.84241 3.70905
# Velocity P-wave (km/s) = 6.01119 6.42295 6.22048
#
# Compressibility (1/GPa) = 0.02128452
#
# Stress axis : x y z
#
# Youngs Moduli (GPa) = 89.19640 93.06976 125.43842
#
# Poissons Ratio (x) = 0.11772 0.25355
# Poissons Ratio (y) = 0.11282 0.12990
# Poissons Ratio (z) = 0.18029 0.09638
#
# Static dielectric constant tensor:
#      x y z
#    x 2.009220 0.000000 0.033050 
#    y 0.000000 1.901600 0.000000 
#    z 0.033050 0.000000 1.969190 
# 
# From -- ./inp_files/38599.got.cif
#   From: 2010.05.17/outbox.cif.g08.bks.cpg/sg15_20_cif.got.tgz:38599.got - 2010.06.03 18:47:42.
