data_PCOD9258432
_publ_section_title
;
Structure prediction by ZEFSAII (Michael W. Deem and Ramdas Pophale) SiO2 
 PCOD9258432
Probable space group: C 2/C
;
_chemical_formula_sum "Si O2"
_cell_formula_units_Z 52
_cell_length_a 8.338713
_cell_length_b 12.958759
_cell_length_c 31.005109
_cell_angle_alpha 90.000000
_cell_angle_beta 38.824617
_cell_angle_gamma 90.000000
_cell_volume 2100.490434
_symmetry_space_group_name_H-M "C 2/C"
_symmetry_group_IT_number 15
_symmetry_cell_setting 'monoclinic'
loop_
_space_group_symop_operation_xyz
x,y,z
-x,y,1/2-z
-x,-y,-z
x,-y,1/2+z
1/2+x,1/2+y,z
1/2-x,1/2+y,1/2-z
1/2-x,1/2-y,-z
1/2+x,1/2-y,1/2+z
loop_
_atom_site_type_symbol
_atom_site_label
_atom_site_fract_x
_atom_site_fract_y
_atom_site_fract_z
Si Si1 0.443100 0.114048 0.357094
Si Si2 0.000000 0.636133 0.250000
Si Si3 0.427267 0.304182 0.998737
Si Si4 0.451618 0.721305 0.361033
Si Si5 0.263943 0.810082 0.317433
Si Si6 0.268441 0.382675 0.445862
Si Si7 0.390277 0.029866 0.087774
O O1 0.514593 0.080451 0.293677
O O2 0.572880 0.229569 0.333577
O O3 0.571112 0.050896 0.370020
O O4 0.136189 0.120682 0.432324
O O5 0.255208 0.704831 0.189348
O O6 0.628073 0.226603 0.979880
O O7 0.250000 0.250000 0.000000
O O8 0.203326 0.311923 0.081805
O O9 0.426700 0.740463 0.315730
O O10 0.299805 0.612299 0.395826
O O11 0.500000 0.874352 0.250000
O O12 0.068526 0.879291 0.384313
O O13 0.200464 0.421708 0.411940
O O14 0.157612 0.451930 0.507125
#
# Coordination Sequence:
#
# PCOD9258432 Si02
#       7
#     8   4   8   8   8   8   8
#     4  10  20  33  58  84 117 157 201 245 301 360
#     4  12  20  32  54  88 120 154 196 248 294 362
#     4  10  18  33  56  86 116 145 196 249 295 346
#     4  10  20  33  57  82 115 155 198 246 291 359
#     4  10  18  33  56  86 113 150 199 249 302 352
#     4   9  19  35  60  82 113 153 200 250 303 358
#     4   9  19  38  57  79 114 158 201 245 299 361
#
# _framework density 24.756122000000001
#
# number of rings (size 3 to 8) (size 9 to 14) (size 15 to 20)
#    0.000    2.154    3.077    0.923    0.000    3.692 
#    1.385    0.769    3.385    9.231    0.000    0.000 
#    0.000    0.000    0.000    0.000    0.000    0.000 
#
# Total GULP energy -144737.520985 kJ/mol
# GULP energy per Si atom -5566.827730 kJ/mol
# Density = 2.469978 g / cm^3
# Si number density = 24.756122 Si / 1000 Ang^3
#
#
#
# Elastic Constant Matrix: (Units=GPa)
#
#
# Indices 1 2 3 4 5 6 
#
# 1 122.3352 11.4571 69.7813 -0.0021 11.1630 0.0015
# 2 11.4571 33.9325 18.2404 -0.0007 2.5964 -0.0001
# 3 69.7813 18.2404 145.1920 -0.0036 -23.4549 0.0031
# 4 -0.0021 -0.0007 -0.0036 9.0646 0.0022 -0.6096
# 5 11.1630 2.5964 -23.4549 0.0022 66.4379 -0.0021
# 6 0.0015 -0.0001 0.0031 -0.6096 -0.0021 16.3458
#
#
#
# Elastic Compliance Matrix: (Units=1/GPa)
#
#
# Indices 1 2 3 4 5 6 
#
# 1 0.012384 -0.000280 -0.006629 0.000001 -0.004410 0.000000
# 2 -0.000280 0.032108 -0.004342 0.000001 -0.002740 0.000001
# 3 -0.006629 -0.004342 0.011481 0.000001 0.005337 -0.000001
# 4 0.000001 0.000001 0.000001 0.110597 -0.000003 0.004124
# 5 -0.004410 -0.002740 0.005337 -0.000003 0.017784 0.000001
# 6 0.000000 0.000001 -0.000001 0.004124 0.000001 0.061331
#
#
# Mechanical properties :
#
#
# Convention : Reuss Voigt Hill
#
# Bulk Modulus (GPa) = 29.87653 55.60194 42.73923
# Shear Modulus (GPa) = 17.89896 31.83506 24.86701
#
# Velocity S-wave (km/s) = 2.69180 3.58990 3.17279
# Velocity P-wave (km/s) = 4.66429 6.30014 5.54290
#
# Compressibility (1/GPa) = 0.03347109
#
# Stress axis : x y z
#
# Youngs Moduli (GPa) = 80.74667 31.14440 87.09927
#
# Poissons Ratio (x) = 0.00874 0.57741
# Poissons Ratio (y) = 0.02265 0.37815
# Poissons Ratio (z) = 0.53530 0.13522
#
# Static dielectric constant tensor:
#      x y z
#    x 2.017560 0.000000 -0.005680 
#    y 0.000000 2.084760 0.000020 
#    z -0.005680 0.000020 2.230810 
# 
# From -- ./inp_files/308496.got.cif
#   From: 2010.05.17/outbox.cif.g08.bks.cpg/sg15_155_cif.got.tgz:308496.got - 2010.06.03 18:47:42.
