data_PCOD9258577
_publ_section_title
;
Structure prediction by ZEFSAII (Michael W. Deem and Ramdas Pophale) SiO2 
 PCOD9258577
Probable space group: C 2/C
;
_chemical_formula_sum "Si O2"
_cell_formula_units_Z 32
_cell_length_a 16.564378
_cell_length_b 17.965002
_cell_length_c 4.844203
_cell_angle_alpha 90.000000
_cell_angle_beta 66.519132
_cell_angle_gamma 90.000000
_cell_volume 1322.164675
_symmetry_space_group_name_H-M "C 2/C"
_symmetry_group_IT_number 15
_symmetry_cell_setting 'monoclinic'
loop_
_space_group_symop_operation_xyz
x,y,z
-x,y,1/2-z
-x,-y,-z
x,-y,1/2+z
1/2+x,1/2+y,z
1/2-x,1/2+y,1/2-z
1/2-x,1/2-y,-z
1/2+x,1/2-y,1/2+z
loop_
_atom_site_type_symbol
_atom_site_label
_atom_site_fract_x
_atom_site_fract_y
_atom_site_fract_z
Si Si1 0.749643 0.132778 0.934093
Si Si2 0.941023 0.824277 0.064628
Si Si3 0.354076 0.816704 0.389836
Si Si4 0.600310 0.045506 0.952692
O O1 0.853722 0.133659 0.786092
O O2 0.710842 0.198046 0.782659
O O3 0.703775 0.144443 0.291507
O O4 0.705781 0.060631 0.848426
O O5 0.903754 0.751706 0.956429
O O6 0.000000 0.805569 0.250000
O O7 0.000000 0.864057 0.750000
O O8 0.421363 0.875890 0.156023
O O9 0.576223 0.023257 0.292825
#
# Coordination Sequence:
#
# PCOD9258577 Si02
#       4
#     8   8   8   8
#     4  10  20  36  60  82 113 142 190 228 272 324
#     4  12  24  36  56  86 120 146 176 226 288 336
#     4  10  20  36  60  82 113 142 190 228 272 324
#     4  10  18  33  60  85 104 138 194 238 262 308
#
# _framework density 24.202735000000001
#
# number of rings (size 3 to 8) (size 9 to 14) (size 15 to 20)
#    1.500    0.000    2.500    4.500    0.000    0.000 
#    0.000    0.000    0.000    9.000    0.000    0.000 
#    0.000    0.000    0.000    0.000    0.000    0.000 
#
# Total GULP energy -89273.476525 kJ/mol
# GULP energy per Si atom -5579.592283 kJ/mol
# Density = 2.414765 g / cm^3
# Si number density = 24.202735 Si / 1000 Ang^3
#
#
#
# Elastic Constant Matrix: (Units=GPa)
#
#
# Indices 1 2 3 4 5 6 
#
# 1 142.9028 13.0003 45.8208 0.0000 1.1058 0.0000
# 2 13.0003 29.0228 20.2345 0.0000 -2.0371 0.0000
# 3 45.8208 20.2345 156.7528 0.0000 6.7254 0.0000
# 4 0.0000 0.0000 0.0000 30.0298 0.0000 -1.7320
# 5 1.1058 -2.0371 6.7254 0.0000 49.6312 0.0000
# 6 0.0000 0.0000 0.0000 -1.7320 0.0000 17.0948
#
#
#
# Elastic Compliance Matrix: (Units=1/GPa)
#
#
# Indices 1 2 3 4 5 6 
#
# 1 0.007837 -0.002101 -0.002020 0.000000 0.000013 0.000000
# 2 -0.002101 0.038673 -0.004474 0.000000 0.002240 0.000000
# 3 -0.002020 -0.004474 0.007598 0.000000 -0.001168 0.000000
# 4 0.000000 0.000000 0.000000 0.033496 0.000000 0.003394
# 5 0.000013 0.002240 -0.001168 0.000000 0.020399 0.000000
# 6 0.000000 0.000000 0.000000 0.003394 0.000000 0.058841
#
#
# Mechanical properties :
#
#
# Convention : Reuss Voigt Hill
#
# Bulk Modulus (GPa) = 27.08766 54.08773 40.58770
# Shear Modulus (GPa) = 25.46611 35.99268 30.72939
#
# Velocity S-wave (km/s) = 3.24728 3.86052 3.56710
# Velocity P-wave (km/s) = 5.02753 6.50137 5.81136
#
# Compressibility (1/GPa) = 0.03691718
#
# Stress axis : x y z
#
# Youngs Moduli (GPa) = 127.60778 25.85756 131.61994
#
# Poissons Ratio (x) = 0.05433 0.26588
# Poissons Ratio (y) = 0.26810 0.58889
# Poissons Ratio (z) = 0.25778 0.11569
#
# Static dielectric constant tensor:
#      x y z
#    x 2.035420 0.000000 -0.076030 
#    y 0.000000 1.973050 0.000000 
#    z -0.076030 0.000000 1.974950 
# 
# From -- ./inp_files/4164.got.cif
#   From: 2010.05.17/outbox.cif.g08.bks.cpg/sg15_3_cif.got.tgz:4164.got - 2010.06.03 18:47:42.
