data_PCOD9258113
_publ_section_title
;
Structure prediction by ZEFSAII (Michael W. Deem and Ramdas Pophale) SiO2 
 PCOD9258113
Probable space group: C 2/C
;
_chemical_formula_sum "Si O2"
_cell_formula_units_Z 52
_cell_length_a 11.284313
_cell_length_b 19.127380
_cell_length_c 18.641244
_cell_angle_alpha 90.000000
_cell_angle_beta 140.744628
_cell_angle_gamma 90.000000
_cell_volume 2545.990776
_symmetry_space_group_name_H-M "C 2/C"
_symmetry_group_IT_number 15
_symmetry_cell_setting 'monoclinic'
loop_
_space_group_symop_operation_xyz
x,y,z
-x,y,1/2-z
-x,-y,-z
x,-y,1/2+z
1/2+x,1/2+y,z
1/2-x,1/2+y,1/2-z
1/2-x,1/2-y,-z
1/2+x,1/2-y,1/2+z
loop_
_atom_site_type_symbol
_atom_site_label
_atom_site_fract_x
_atom_site_fract_y
_atom_site_fract_z
Si Si1 0.335231 0.024116 0.070881
Si Si2 0.971548 0.921507 0.322953
Si Si3 0.628699 0.895317 0.516720
Si Si4 0.008594 0.820972 0.841217
Si Si5 0.159033 0.672645 0.697933
Si Si6 0.500000 0.924378 0.250000
Si Si7 0.732320 0.938531 0.725746
O O1 0.530926 0.065725 0.168958
O O2 0.335819 0.974524 0.141414
O O3 0.153727 0.064672 0.957881
O O4 0.372451 0.968273 0.025011
O O5 0.875990 0.847468 0.297102
O O6 0.000000 0.925783 0.250000
O O7 0.824955 0.984856 0.270430
O O8 0.429526 0.858576 0.416593
O O9 0.690814 0.914613 0.624897
O O10 0.774735 0.842134 0.546736
O O11 0.914975 0.750274 0.825051
O O12 0.891752 0.883888 0.822237
O O13 0.000000 0.818664 0.750000
O O14 0.072751 0.625570 0.721405
#
# Coordination Sequence:
#
# PCOD9258113 Si02
#       7
#     8   8   8   8   8   4   8
#     4  11  21  36  59  88 119 146 193 238 289 346
#     4  12  21  36  63  89 114 150 195 246 290 335
#     4  10  18  32  60  86 116 141 191 250 289 319
#     4  10  20  35  57  85 117 149 193 237 291 339
#     4  11  22  37  56  86 121 152 192 237 285 350
#     4  10  22  38  58  82 120 158 186 234 290 342
#     4  11  19  36  59  90 113 146 191 249 285 330
#
# _framework density 20.424268999999999
#
# number of rings (size 3 to 8) (size 9 to 14) (size 15 to 20)
#    0.000    1.231    6.923    2.308    0.000    0.615 
#    0.000    0.769    1.692    0.000    0.000    0.000 
#    0.000    0.000    0.000    0.000    0.000    0.000 
#
# Total GULP energy -144903.348277 kJ/mol
# GULP energy per Si atom -5573.205703 kJ/mol
# Density = 2.037778 g / cm^3
# Si number density = 20.424269 Si / 1000 Ang^3
#
#
#
# Elastic Constant Matrix: (Units=GPa)
#
#
# Indices 1 2 3 4 5 6 
#
# 1 36.4239 19.4485 9.9638 0.0000 9.3575 0.0000
# 2 19.4485 78.7251 -1.1888 0.0000 16.7141 0.0000
# 3 9.9638 -1.1888 58.1680 -0.0001 18.0222 0.0000
# 4 0.0000 0.0000 -0.0001 7.8842 0.0000 6.2822
# 5 9.3575 16.7141 18.0222 0.0000 32.5885 0.0000
# 6 0.0000 0.0000 0.0000 6.2822 0.0000 26.1564
#
#
#
# Elastic Compliance Matrix: (Units=1/GPa)
#
#
# Indices 1 2 3 4 5 6 
#
# 1 0.033741 -0.007795 -0.005039 0.000000 -0.002904 0.000000
# 2 -0.007795 0.016530 0.004352 0.000000 -0.008646 0.000000
# 3 -0.005039 0.004352 0.022189 0.000000 -0.013056 0.000000
# 4 0.000000 0.000000 0.000000 0.156853 0.000000 -0.037672
# 5 -0.002904 -0.008646 -0.013056 0.000000 0.043174 0.000000
# 6 0.000000 0.000000 0.000000 -0.037672 0.000000 0.047280
#
#
# Mechanical properties :
#
#
# Convention : Reuss Voigt Hill
#
# Bulk Modulus (GPa) = 18.01986 25.52935 21.77461
# Shear Modulus (GPa) = 14.07541 22.99872 18.53707
#
# Velocity S-wave (km/s) = 2.62802 3.35931 3.01591
# Velocity P-wave (km/s) = 4.24859 5.25102 4.77618
#
# Compressibility (1/GPa) = 0.05549432
#
# Stress axis : x y z
#
# Youngs Moduli (GPa) = 29.63736 60.49767 45.06766
#
# Poissons Ratio (x) = 0.47159 0.22711
# Poissons Ratio (y) = 0.23103 -0.19613
# Poissons Ratio (z) = 0.14935 -0.26328
#
# Static dielectric constant tensor:
#      x y z
#    x 1.772030 0.000000 0.024550 
#    y 0.000000 1.727100 0.000000 
#    z 0.024550 0.000000 1.793210 
# 
# From -- ./inp_files/145492.got.cif
#   From: 2010.05.17/outbox.cif.g08.bks.cpg/sg15_73_cif.got.tgz:145492.got - 2010.06.03 18:47:42.
