data_PCOD9258006
_publ_section_title
;
Structure prediction by ZEFSAII (Michael W. Deem and Ramdas Pophale) SiO2 
 PCOD9258006
Probable space group: C 2/C
;
_chemical_formula_sum "Si O2"
_cell_formula_units_Z 56
_cell_length_a 30.786234
_cell_length_b 9.611290
_cell_length_c 16.685362
_cell_angle_alpha 90.000000
_cell_angle_beta 26.105195
_cell_angle_gamma 90.000000
_cell_volume 2172.435454
_symmetry_space_group_name_H-M "C 2/C"
_symmetry_group_IT_number 15
_symmetry_cell_setting 'monoclinic'
loop_
_space_group_symop_operation_xyz
x,y,z
-x,y,1/2-z
-x,-y,-z
x,-y,1/2+z
1/2+x,1/2+y,z
1/2-x,1/2+y,1/2-z
1/2-x,1/2-y,-z
1/2+x,1/2-y,1/2+z
loop_
_atom_site_type_symbol
_atom_site_label
_atom_site_fract_x
_atom_site_fract_y
_atom_site_fract_z
Si Si1 0.891873 0.977693 0.259453
Si Si2 0.158655 0.746329 0.912172
Si Si3 0.795236 0.366158 0.986912
Si Si4 0.347575 0.795691 0.527909
Si Si5 0.494585 0.821510 0.571023
Si Si6 0.463664 0.209729 0.676003
Si Si7 0.606521 0.492928 0.567234
O O1 0.793909 0.978005 0.367774
O O2 0.957776 0.842883 0.129232
O O3 0.854402 0.958678 0.412589
O O4 0.944877 0.127344 0.181155
O O5 0.244737 0.844296 0.732726
O O6 0.187583 0.676579 0.948814
O O7 0.082780 0.870791 0.058620
O O8 0.094491 0.658695 0.956630
O O9 0.902422 0.393529 0.769763
O O10 0.750000 0.250000 0.000000
O O11 0.436992 0.824788 0.439371
O O12 0.378590 0.819890 0.384301
O O13 0.325378 0.629377 0.575741
O O14 0.520885 0.858640 0.436219
O O15 0.500000 0.418097 0.750000
#
# Coordination Sequence:
#
# PCOD9258006 Si02
#       7
#     8   8   8   8   8   8   8
#     4  10  18  32  57  87 114 140 189 246 287 330
#     4  12  21  33  55  84 121 150 187 237 292 340
#     4  10  19  31  51  86 108 142 186 236 282 333
#     4  10  21  36  56  87 118 153 188 238 287 340
#     4  11  20  31  53  82 114 147 183 230 282 341
#     4  10  20  36  55  82 116 148 191 238 285 335
#     4  11  17  36  58  86 116 146 186 242 289 326
#
# _framework density 25.777522000000001
#
# number of rings (size 3 to 8) (size 9 to 14) (size 15 to 20)
#    0.000    1.429    7.143    2.571    0.000    1.714 
#    0.000    0.000    0.000    3.429   18.571    0.000 
#    0.000    0.000    0.000    0.000    0.000    0.000 
#
# Total GULP energy -156106.285606 kJ/mol
# GULP energy per Si atom -5575.224486 kJ/mol
# Density = 2.571885 g / cm^3
# Si number density = 25.777522 Si / 1000 Ang^3
#
#
#
# Elastic Constant Matrix: (Units=GPa)
#
#
# Indices 1 2 3 4 5 6 
#
# 1 207.7533 29.9373 78.9616 0.0000 18.7207 0.0000
# 2 29.9373 59.8675 12.0328 0.0000 11.0072 0.0000
# 3 78.9616 12.0328 132.6504 0.0000 8.1692 0.0000
# 4 0.0000 0.0000 0.0000 11.6821 0.0000 2.0900
# 5 18.7207 11.0072 8.1692 0.0000 54.6922 0.0000
# 6 0.0000 0.0000 0.0000 2.0900 0.0000 16.3012
#
#
#
# Elastic Compliance Matrix: (Units=1/GPa)
#
#
# Indices 1 2 3 4 5 6 
#
# 1 0.006664 -0.002363 -0.003675 0.000000 -0.001257 0.000000
# 2 -0.002363 0.018434 -0.000088 0.000000 -0.002888 0.000000
# 3 -0.003675 -0.000088 0.009745 0.000000 -0.000180 0.000000
# 4 0.000000 0.000000 0.000000 0.087611 0.000000 -0.011233
# 5 -0.001257 -0.002888 -0.000180 0.000000 0.019322 0.000000
# 6 0.000000 0.000000 0.000000 -0.011233 0.000000 0.062785
#
#
# Mechanical properties :
#
#
# Convention : Reuss Voigt Hill
#
# Bulk Modulus (GPa) = 44.26406 71.34827 57.80617
# Shear Modulus (GPa) = 22.28731 35.15774 28.72252
#
# Velocity S-wave (km/s) = 2.94360 3.69710 3.34166
# Velocity P-wave (km/s) = 5.36301 6.77962 6.11249
#
# Compressibility (1/GPa) = 0.02259169
#
# Stress axis : x y z
#
# Youngs Moduli (GPa) = 150.06280 54.24857 102.61380
#
# Poissons Ratio (x) = 0.12817 0.37711
# Poissons Ratio (y) = 0.35455 0.00902
# Poissons Ratio (z) = 0.55149 0.00477
#
# Static dielectric constant tensor:
#      x y z
#    x 2.012120 0.000000 0.022560 
#    y 0.000000 2.117100 0.000000 
#    z 0.022560 0.000000 2.003890 
# 
# From -- ./inp_files/178351.got.cif
#   From: 2010.05.17/outbox.cif.g08.bks.cpg/sg15_90_cif.got.tgz:178351.got - 2010.06.03 18:47:42.
