data_PCOD9258149
_publ_section_title
;
Structure prediction by ZEFSAII (Michael W. Deem and Ramdas Pophale) SiO2 
 PCOD9258149
Probable space group: C 2/C
;
_chemical_formula_sum "Si O2"
_cell_formula_units_Z 48
_cell_length_a 12.866716
_cell_length_b 26.067180
_cell_length_c 8.434932
_cell_angle_alpha 90.000000
_cell_angle_beta 55.204007
_cell_angle_gamma 90.000000
_cell_volume 2323.199677
_symmetry_space_group_name_H-M "C 2/C"
_symmetry_group_IT_number 15
_symmetry_cell_setting 'monoclinic'
loop_
_space_group_symop_operation_xyz
x,y,z
-x,y,1/2-z
-x,-y,-z
x,-y,1/2+z
1/2+x,1/2+y,z
1/2-x,1/2+y,1/2-z
1/2-x,1/2-y,-z
1/2+x,1/2-y,1/2+z
loop_
_atom_site_type_symbol
_atom_site_label
_atom_site_fract_x
_atom_site_fract_y
_atom_site_fract_z
Si Si1 0.315395 0.397019 0.176639
Si Si2 0.000000 0.148366 0.750000
Si Si3 0.161042 0.696890 0.726113
Si Si4 0.154497 0.811137 0.834378
Si Si5 0.083722 0.341544 0.939679
Si Si6 0.000000 0.889095 0.750000
Si Si7 0.464164 0.944811 0.096472
O O1 0.395065 0.389578 0.266216
O O2 0.280582 0.337351 0.167184
O O3 0.182821 0.427674 0.297722
O O4 0.409000 0.416993 0.956137
O O5 0.063668 0.184797 0.563655
O O6 0.166509 0.757841 0.729023
O O7 0.123714 0.674005 0.586331
O O8 0.052175 0.684789 0.950491
O O9 0.296925 0.824389 0.764017
O O10 0.094973 0.853748 0.769976
O O11 0.053506 0.401059 0.944083
O O12 0.500000 0.943177 0.250000
O O13 0.500000 0.000000 0.000000
#
# Coordination Sequence:
#
# PCOD9258149 Si02
#       7
#     8   4   8   8   8   4   8
#     4  10  21  41  59  92 126 168 212 260 307 389
#     4  10  26  38  54  89 144 174 203 246 324 378
#     4  10  19  33  61  87 123 157 222 265 293 371
#     4  11  21  34  57  89 127 176 211 256 316 376
#     4  10  19  37  61  94 120 157 220 270 308 368
#     4  10  18  32  62  85 122 170 213 250 310 368
#     4  11  22  42  71  98 122 155 213 280 332 372
#
# _framework density 20.661159000000001
#
# number of rings (size 3 to 8) (size 9 to 14) (size 15 to 20)
#    0.000    1.667    5.000    1.500    4.667    2.000 
#    0.000    1.667    0.000   17.000    0.000    0.000 
#    0.000    0.000    0.000    0.000    0.000    0.000 
#
# Total GULP energy -133770.561482 kJ/mol
# GULP energy per Si atom -5573.773395 kJ/mol
# Density = 2.061413 g / cm^3
# Si number density = 20.661159 Si / 1000 Ang^3
#
#
#
# Elastic Constant Matrix: (Units=GPa)
#
#
# Indices 1 2 3 4 5 6 
#
# 1 89.5306 13.7383 18.0118 0.0000 -10.8561 0.0000
# 2 13.7383 97.6604 16.2324 0.0000 -14.5168 0.0000
# 3 18.0118 16.2324 78.1531 0.0000 -23.5395 0.0000
# 4 0.0000 0.0000 0.0000 4.3811 0.0000 7.3116
# 5 -10.8561 -14.5168 -23.5395 0.0000 32.8465 0.0000
# 6 0.0000 0.0000 0.0000 7.3116 0.0000 8.5461
#
#
#
# Elastic Compliance Matrix: (Units=1/GPa)
#
#
# Indices 1 2 3 4 5 6 
#
# 1 0.011971 -0.001052 -0.001899 0.000000 0.002131 0.000000
# 2 -0.001052 0.011119 -0.000882 0.000000 0.003934 0.000000
# 3 -0.001899 -0.000882 0.016719 0.000000 0.010964 0.000000
# 4 0.000000 0.000000 0.000000 -0.533545 0.000000 0.456472
# 5 0.002131 0.003934 0.010964 0.000000 0.040745 0.000000
# 6 0.000000 0.000000 0.000000 0.456472 0.000000 -0.273519
#
#
# Mechanical properties :
#
#
# Convention : Reuss Voigt Hill
#
# Bulk Modulus (GPa) = 31.11003 40.14546 35.62774
# Shear Modulus (GPa) = -7.06083 23.64551 8.29234
#
# Velocity S-wave (km/s) = -1.85064 3.38663 2.00554
# Velocity P-wave (km/s) = 3.24399 5.89618 4.75859
#
# Compressibility (1/GPa) = 0.03214398
#
# Stress axis : x y z
#
# Youngs Moduli (GPa) = 83.53437 89.93666 59.81393
#
# Poissons Ratio (x) = 0.09458 0.11356
# Poissons Ratio (y) = 0.08785 0.05276
# Poissons Ratio (z) = 0.15860 0.07932
#
# Static dielectric constant tensor:
#      x y z
#    x 1.816200 0.000000 0.001310 
#    y 0.000000 1.767490 0.000000 
#    z 0.001310 0.000000 1.808030 
# 
# From -- ./inp_files/33446.got.cif
#   From: 2010.05.17/outbox.cif.g08.bks.cpg/sg15_17_cif.got.tgz:33446.got - 2010.06.03 18:47:42.
