data_PCOD9258253
_publ_section_title
;
Structure prediction by ZEFSAII (Michael W. Deem and Ramdas Pophale) SiO2 
 PCOD9258253
Probable space group: C 2/C
;
_chemical_formula_sum "Si O2"
_cell_formula_units_Z 60
_cell_length_a 10.899111
_cell_length_b 14.022095
_cell_length_c 19.028737
_cell_angle_alpha 90.000000
_cell_angle_beta 92.856281
_cell_angle_gamma 90.000000
_cell_volume 2904.518001
_symmetry_space_group_name_H-M "C 2/C"
_symmetry_group_IT_number 15
_symmetry_cell_setting 'monoclinic'
loop_
_space_group_symop_operation_xyz
x,y,z
-x,y,1/2-z
-x,-y,-z
x,-y,1/2+z
1/2+x,1/2+y,z
1/2-x,1/2+y,1/2-z
1/2-x,1/2-y,-z
1/2+x,1/2-y,1/2+z
loop_
_atom_site_type_symbol
_atom_site_label
_atom_site_fract_x
_atom_site_fract_y
_atom_site_fract_z
Si Si1 0.697653 0.851411 0.975934
Si Si2 0.645203 0.518602 0.928363
Si Si3 0.545530 0.996049 0.173845
Si Si4 0.396571 0.372680 0.461625
Si Si5 0.445765 0.818078 0.897711
Si Si6 0.209109 0.066001 0.780271
Si Si7 0.229987 0.507631 0.363972
Si Si8 0.500000 0.718236 0.750000
O O1 0.555045 0.842611 0.954647
O O2 0.748800 0.891897 0.903273
O O3 0.750000 0.750000 0.000000
O O4 0.735774 0.929784 0.034552
O O5 0.534998 0.590305 0.949202
O O6 0.644312 0.519448 0.845116
O O7 0.628692 0.414672 0.961872
O O8 0.500000 0.029531 0.250000
O O9 0.607620 0.081972 0.131555
O O10 0.413551 0.976699 0.135036
O O11 0.649187 0.916539 0.190832
O O12 0.376014 0.264100 0.438225
O O13 0.309960 0.433379 0.408787
O O14 0.494606 0.772954 0.824856
O O15 0.123722 0.154085 0.756151
O O16 0.226304 0.996687 0.714670
#
# Coordination Sequence:
#
# PCOD9258253 Si02
#       8
#     8   8   8   8   8   8   8   4
#     4  10  18  33  52  85 118 143 185 235 289 326
#     4  10  20  32  55  86 114 150 187 239 285 341
#     4   9  20  34  54  80 113 141 183 237 286 326
#     4  10  18  33  54  84 113 145 191 235 279 336
#     4  11  19  34  56  87 112 144 191 245 280 337
#     4  11  19  36  55  85 112 148 190 238 283 347
#     4   9  19  32  53  82 112 149 189 235 280 334
#     4  12  20  32  62  90 106 142 200 238 288 336
#
# _framework density 20.657471999999999
#
# number of rings (size 3 to 8) (size 9 to 14) (size 15 to 20)
#    0.000    1.867    4.667    0.000    0.000    0.000 
#    0.000    6.667    0.000    1.600    0.000    0.000 
#    0.000    0.000    0.000    0.000    0.000    0.000 
#
# Total GULP energy -167106.349885 kJ/mol
# GULP energy per Si atom -5570.211663 kJ/mol
# Density = 2.061045 g / cm^3
# Si number density = 20.657472 Si / 1000 Ang^3
#
#
#
# Elastic Constant Matrix: (Units=GPa)
#
#
# Indices 1 2 3 4 5 6 
#
# 1 69.7895 34.0564 21.6913 0.0000 24.3873 0.0000
# 2 34.0564 54.5312 4.1150 0.0000 6.0203 0.0000
# 3 21.6913 4.1150 70.8771 0.0000 -0.2132 0.0000
# 4 0.0000 0.0000 0.0000 28.7269 0.0000 -0.6945
# 5 24.3873 6.0203 -0.2132 0.0000 35.0104 0.0000
# 6 0.0000 0.0000 0.0000 -0.6945 0.0000 19.5748
#
#
#
# Elastic Compliance Matrix: (Units=1/GPa)
#
#
# Indices 1 2 3 4 5 6 
#
# 1 0.032542 -0.017467 -0.009004 0.000000 -0.019719 0.000000
# 2 -0.017467 0.028154 0.003733 0.000000 0.007348 0.000000
# 3 -0.009004 0.003733 0.016665 0.000000 0.005732 0.000000
# 4 0.000000 0.000000 0.000000 0.034840 0.000000 0.001236
# 5 -0.019719 0.007348 0.005732 0.000000 0.041070 0.000000
# 6 0.000000 0.000000 0.000000 0.001236 0.000000 0.051130
#
#
# Mechanical properties :
#
#
# Convention : Reuss Voigt Hill
#
# Bulk Modulus (GPa) = 31.36321 34.99146 33.17733
# Shear Modulus (GPa) = 19.19353 25.68477 22.43915
#
# Velocity S-wave (km/s) = 3.05147 3.52996 3.29940
# Velocity P-wave (km/s) = 5.25650 5.79567 5.53266
#
# Compressibility (1/GPa) = 0.03188450
#
# Stress axis : x y z
#
# Youngs Moduli (GPa) = 30.72998 35.51941 60.00563
#
# Poissons Ratio (x) = 0.62041 0.54031
# Poissons Ratio (y) = 0.53675 -0.22401
# Poissons Ratio (z) = 0.27670 -0.13260
#
# Static dielectric constant tensor:
#      x y z
#    x 1.785290 0.000000 -0.013780 
#    y 0.000000 1.752710 0.000000 
#    z -0.013780 0.000000 1.755580 
# 
# From -- ./inp_files/238375.got.cif
#   From: 2010.05.17/outbox.cif.g08.bks.cpg/sg15_120_cif.got.tgz:238375.got - 2010.06.03 18:47:42.
