data_PCOD9258112
_publ_section_title
;
Structure prediction by ZEFSAII (Michael W. Deem and Ramdas Pophale) SiO2 
 PCOD9258112
Probable space group: C 2/C
;
_chemical_formula_sum "Si O2"
_cell_formula_units_Z 52
_cell_length_a 10.221300
_cell_length_b 26.976537
_cell_length_c 11.576217
_cell_angle_alpha 90.000000
_cell_angle_beta 113.210550
_cell_angle_gamma 90.000000
_cell_volume 2933.622136
_symmetry_space_group_name_H-M "C 2/C"
_symmetry_group_IT_number 15
_symmetry_cell_setting 'monoclinic'
loop_
_space_group_symop_operation_xyz
x,y,z
-x,y,1/2-z
-x,-y,-z
x,-y,1/2+z
1/2+x,1/2+y,z
1/2-x,1/2+y,1/2-z
1/2-x,1/2-y,-z
1/2+x,1/2-y,1/2+z
loop_
_atom_site_type_symbol
_atom_site_label
_atom_site_fract_x
_atom_site_fract_y
_atom_site_fract_z
Si Si1 0.495992 0.590778 0.109706
Si Si2 0.907540 0.695933 0.493257
Si Si3 0.434489 0.702735 0.102218
Si Si4 0.500000 0.137968 0.750000
Si Si5 0.688153 0.061641 0.909340
Si Si6 0.030321 0.596198 0.084342
Si Si7 0.793772 0.552382 0.140575
O O1 0.500000 0.582834 0.250000
O O2 0.502179 0.650103 0.093247
O O3 0.628109 0.563990 0.095946
O O4 0.347076 0.572110 0.007459
O O5 0.735558 0.694528 0.441524
O O6 0.951573 0.753419 0.514647
O O7 0.952415 0.655829 0.413202
O O8 0.976079 0.672301 0.631921
O O9 0.500000 0.716884 0.250000
O O10 0.635507 0.101110 0.795781
O O11 0.676740 0.005812 0.862314
O O12 0.586060 0.073447 0.983374
O O13 0.130893 0.573794 0.218658
O O14 0.871817 0.579594 0.061458
#
# Coordination Sequence:
#
# PCOD9258112 Si02
#       7
#     8   8   8   4   8   8   8
#     4  11  20  38  56  84 116 146 191 233 279 338
#     4  10  19  34  56  87 114 142 188 241 276 332
#     4  10  18  32  60  86 112 147 187 233 284 331
#     4  10  18  34  54  88 108 142 192 234 280 322
#     4  11  21  37  58  80 115 149 190 236 274 338
#     4  10  20  38  55  83 113 146 187 237 273 337
#     4  11  22  35  59  83 112 153 189 228 291 328
#
# _framework density 17.725527
#
# number of rings (size 3 to 8) (size 9 to 14) (size 15 to 20)
#    0.000    1.538    5.385    2.769    0.000    1.231 
#    0.000    0.769    0.000    0.000    0.000    0.000 
#    0.000    0.000    0.000    0.000    0.000    0.000 
#
# Total GULP energy -144949.364082 kJ/mol
# GULP energy per Si atom -5574.975542 kJ/mol
# Density = 1.768518 g / cm^3
# Si number density = 17.725527 Si / 1000 Ang^3
#
#
#
# Elastic Constant Matrix: (Units=GPa)
#
#
# Indices 1 2 3 4 5 6 
#
# 1 95.7964 16.9141 27.0960 0.0000 6.5565 0.0000
# 2 16.9141 91.7209 16.2366 0.0000 -8.8098 0.0000
# 3 27.0960 16.2366 76.7078 0.0000 18.7771 0.0000
# 4 0.0000 0.0000 0.0000 30.5456 0.0000 7.7006
# 5 6.5565 -8.8098 18.7771 0.0000 21.7532 0.0000
# 6 0.0000 0.0000 0.0000 7.7006 0.0000 -210.4711
#
#
#
# Elastic Compliance Matrix: (Units=1/GPa)
#
#
# Indices 1 2 3 4 5 6 
#
# 1 0.011813 -0.001668 -0.003528 0.000000 -0.001191 0.000000
# 2 -0.001668 0.012933 -0.004505 0.000000 0.009629 0.000000
# 3 -0.003528 -0.004505 0.019555 0.000000 -0.017640 0.000000
# 4 0.000000 0.000000 0.000000 0.032439 0.000000 0.001187
# 5 -0.001191 0.009629 -0.017640 0.000000 0.065456 0.000000
# 6 0.000000 0.000000 0.000000 0.001187 0.000000 -0.004708
#
#
# Mechanical properties :
#
#
# Convention : Reuss Voigt Hill
#
# Bulk Modulus (GPa) = 40.16596 42.74650 41.45623
# Shear Modulus (GPa) = 30.26833 -18.03589 6.11622
#
# Velocity S-wave (km/s) = 4.13681 -3.19330 1.85957
# Velocity P-wave (km/s) = 6.74735 3.25144 5.29616
#
# Compressibility (1/GPa) = 0.02489671
#
# Stress axis : x y z
#
# Youngs Moduli (GPa) = 84.65422 77.32331 51.13897
#
# Poissons Ratio (x) = 0.12899 0.18043
# Poissons Ratio (y) = 0.14122 0.23040
# Poissons Ratio (z) = 0.29867 0.34837
#
# Static dielectric constant tensor:
#      x y z
#    x 1.596340 0.000000 0.004810 
#    y 0.000000 1.631490 0.000000 
#    z 0.004810 0.000000 1.627580 
# 
# From -- ./inp_files/80869.got.cif
#   From: 2010.05.17/outbox.cif.g08.bks.cpg/sg15_41_cif.got.tgz:80869.got - 2010.06.03 18:47:42.
