data_PCOD9258594
_publ_section_title
;
Structure prediction by ZEFSAII (Michael W. Deem and Ramdas Pophale) SiO2 
 PCOD9258594
Probable space group: C 2/C
;
_chemical_formula_sum "Si O2"
_cell_formula_units_Z 60
_cell_length_a 26.216334
_cell_length_b 8.789158
_cell_length_c 14.233317
_cell_angle_alpha 90.000000
_cell_angle_beta 80.467019
_cell_angle_gamma 90.000000
_cell_volume 3234.343486
_symmetry_space_group_name_H-M "C 2/C"
_symmetry_group_IT_number 15
_symmetry_cell_setting 'monoclinic'
loop_
_space_group_symop_operation_xyz
x,y,z
-x,y,1/2-z
-x,-y,-z
x,-y,1/2+z
1/2+x,1/2+y,z
1/2-x,1/2+y,1/2-z
1/2-x,1/2-y,-z
1/2+x,1/2-y,1/2+z
loop_
_atom_site_type_symbol
_atom_site_label
_atom_site_fract_x
_atom_site_fract_y
_atom_site_fract_z
Si Si1 0.693026 0.214362 0.230147
Si Si2 0.601584 0.587037 0.843939
Si Si3 0.500000 0.746307 0.250000
Si Si4 0.508240 0.471190 0.106988
Si Si5 0.613952 0.270402 0.731125
Si Si6 0.380290 0.516643 0.446301
Si Si7 0.810703 0.275908 0.975728
Si Si8 0.300399 0.099996 0.678173
O O1 0.644228 0.310406 0.281286
O O2 0.679685 0.152985 0.129588
O O3 0.744444 0.318875 0.205895
O O4 0.704801 0.076862 0.296671
O O5 0.540973 0.625661 0.844071
O O6 0.607695 0.415072 0.803328
O O7 0.611187 0.585051 0.952789
O O8 0.505585 0.632635 0.160126
O O9 0.442171 0.814464 0.258282
O O10 0.567580 0.424661 0.100494
O O11 0.500000 0.500000 0.000000
O O12 0.627629 0.351235 0.627845
O O13 0.659344 0.170003 0.759598
O O14 0.336472 0.390309 0.466099
O O15 0.750000 0.250000 0.000000
O O16 0.823164 0.366889 0.067022
#
# Coordination Sequence:
#
# PCOD9258594 Si02
#       8
#     8   8   4   8   8   8   8   8
#     4  11  24  40  59  84 116 151 198 238 288 350
#     4  10  18  34  58  86 115 147 191 238 283 339
#     4   8  16  28  52  82 110 142 190 230 272 338
#     4   8  16  28  51  87 112 140 186 236 276 326
#     4  10  18  34  58  84 113 151 192 233 287 337
#     4  10  18  33  60  90 112 149 191 241 280 343
#     4  10  22  37  58  82 117 147 190 236 296 329
#     4  11  24  40  60  82 116 155 192 241 293 343
#
# _framework density 18.550905
#
# number of rings (size 3 to 8) (size 9 to 14) (size 15 to 20)
#    0.000    2.133    2.667    0.800    3.733    1.067 
#    0.000    1.333    2.933    0.800    0.000    0.000 
#    0.000    0.000    0.000    0.000    0.000    0.000 
#
# Total GULP energy -167042.487877 kJ/mol
# GULP energy per Si atom -5568.082929 kJ/mol
# Density = 1.850868 g / cm^3
# Si number density = 18.550905 Si / 1000 Ang^3
#
#
#
# Elastic Constant Matrix: (Units=GPa)
#
#
# Indices 1 2 3 4 5 6 
#
# 1 134.7951 29.7114 25.4243 0.0000 -19.9387 0.0000
# 2 29.7114 34.6808 1.4898 0.0000 -9.4344 0.0000
# 3 25.4243 1.4898 94.6242 0.0000 -1.2958 0.0000
# 4 0.0000 0.0000 0.0000 10.4739 0.0000 0.7114
# 5 -19.9387 -9.4344 -1.2958 0.0000 31.3843 0.0000
# 6 0.0000 0.0000 0.0000 0.7114 0.0000 26.8232
#
#
#
# Elastic Compliance Matrix: (Units=1/GPa)
#
#
# Indices 1 2 3 4 5 6 
#
# 1 0.010154 -0.007475 -0.002555 0.000000 0.004099 0.000000
# 2 -0.007475 0.036917 0.001515 0.000000 0.006411 0.000000
# 3 -0.002555 0.001515 0.011221 0.000000 -0.000704 0.000000
# 4 0.000000 0.000000 0.000000 0.095647 0.000000 -0.002537
# 5 0.004099 0.006411 -0.000704 0.000000 0.036365 0.000000
# 6 0.000000 0.000000 0.000000 -0.002537 0.000000 0.037348
#
#
# Mechanical properties :
#
#
# Convention : Reuss Voigt Hill
#
# Bulk Modulus (GPa) = 24.23427 41.92792 33.08110
# Shear Modulus (GPa) = 19.34713 27.56794 23.45754
#
# Velocity S-wave (km/s) = 3.23293 3.85914 3.55983
# Velocity P-wave (km/s) = 5.19883 6.51981 5.89643
#
# Compressibility (1/GPa) = 0.04126388
#
# Stress axis : x y z
#
# Youngs Moduli (GPa) = 98.48043 27.08781 89.11867
#
# Poissons Ratio (x) = 0.20247 0.22766
# Poissons Ratio (y) = 0.73610 -0.13501
# Poissons Ratio (z) = 0.25157 -0.04104
#
# Static dielectric constant tensor:
#      x y z
#    x 1.695170 0.000000 0.002350 
#    y 0.000000 1.623970 0.000000 
#    z 0.002350 0.000000 1.690520 
# 
# From -- ./inp_files/171873.got.cif
#   From: 2010.05.17/outbox.cif.g08.bks.cpg/sg15_86_cif.got.tgz:171873.got - 2010.06.03 18:47:42.
