data_PCOD9258527
_publ_section_title
;
Structure prediction by ZEFSAII (Michael W. Deem and Ramdas Pophale) SiO2 
 PCOD9258527
Probable space group: C 2/C
;
_chemical_formula_sum "Si O2"
_cell_formula_units_Z 40
_cell_length_a 16.893713
_cell_length_b 12.999422
_cell_length_c 9.672241
_cell_angle_alpha 90.000000
_cell_angle_beta 59.712059
_cell_angle_gamma 90.000000
_cell_volume 1834.169511
_symmetry_space_group_name_H-M "C 2/C"
_symmetry_group_IT_number 15
_symmetry_cell_setting 'monoclinic'
loop_
_space_group_symop_operation_xyz
x,y,z
-x,y,1/2-z
-x,-y,-z
x,-y,1/2+z
1/2+x,1/2+y,z
1/2-x,1/2+y,1/2-z
1/2-x,1/2-y,-z
1/2+x,1/2-y,1/2+z
loop_
_atom_site_type_symbol
_atom_site_label
_atom_site_fract_x
_atom_site_fract_y
_atom_site_fract_z
Si Si1 0.099856 0.439780 0.204111
Si Si2 0.065603 0.705499 0.988238
Si Si3 0.826149 0.738368 0.048943
Si Si4 0.515180 0.600249 0.077948
Si Si5 0.860736 0.338449 0.792269
O O1 0.097716 0.380768 0.351690
O O2 0.119320 0.357714 0.066595
O O3 0.160207 0.541615 0.163411
O O4 0.000000 0.480597 0.250000
O O5 0.129056 0.713064 0.067308
O O6 0.962817 0.676872 0.133680
O O7 0.053808 0.811094 0.914700
O O8 0.886776 0.841188 0.011569
O O9 0.750000 0.750000 0.000000
O O10 0.796647 0.707714 0.229462
O O11 0.500000 0.573479 0.250000
O O12 0.500000 0.500000 0.000000
#
# Coordination Sequence:
#
# PCOD9258527 Si02
#       5
#     8   8   8   8   8
#     4  12  17  36  63  90 116 153 194 246 303 366
#     4  10  18  33  58  93 116 142 200 255 294 348
#     4  11  24  43  57  87 132 162 196 258 317 359
#     4  11  23  41  66  85 114 166 219 255 294 364
#     4  10  20  31  62  94 118 143 193 248 309 368
#
# _framework density 21.808235
#
# number of rings (size 3 to 8) (size 9 to 14) (size 15 to 20)
#    0.000    1.200    8.000    1.800    5.600    0.000 
#    3.600    1.000    0.000    0.000    0.000    0.000 
#    0.000    0.000    0.000    0.000    0.000    0.000 
#
# Total GULP energy -111670.738402 kJ/mol
# GULP energy per Si atom -5583.536920 kJ/mol
# Density = 2.175860 g / cm^3
# Si number density = 21.808235 Si / 1000 Ang^3
#
#
#
# Elastic Constant Matrix: (Units=GPa)
#
#
# Indices 1 2 3 4 5 6 
#
# 1 70.8623 37.8630 42.5294 0.0000 45.2283 0.0000
# 2 37.8630 133.9142 57.8602 0.0000 26.5052 0.0000
# 3 42.5294 57.8602 175.9999 0.0000 57.6560 0.0000
# 4 0.0000 0.0000 0.0000 42.8700 0.0000 22.2484
# 5 45.2283 26.5052 57.6560 0.0000 53.0726 0.0000
# 6 0.0000 0.0000 0.0000 22.2484 0.0000 14.0136
#
#
#
# Elastic Compliance Matrix: (Units=1/GPa)
#
#
# Indices 1 2 3 4 5 6 
#
# 1 0.034024 -0.005099 0.003290 0.000000 -0.030022 0.000000
# 2 -0.005099 0.009596 -0.002757 0.000000 0.002549 0.000000
# 3 0.003290 -0.002757 0.009720 0.000000 -0.011985 0.000000
# 4 0.000000 0.000000 0.000000 0.132490 0.000000 -0.210346
# 5 -0.030022 0.002549 -0.011985 0.000000 0.056175 0.000000
# 6 0.000000 0.000000 0.000000 -0.210346 0.000000 0.405312
#
#
# Mechanical properties :
#
#
# Convention : Reuss Voigt Hill
#
# Bulk Modulus (GPa) = 22.62133 73.03132 47.82633
# Shear Modulus (GPa) = 7.44950 38.15948 22.80449
#
# Velocity S-wave (km/s) = 1.85022 4.18757 3.23721
# Velocity P-wave (km/s) = 3.86779 7.54597 5.99589
#
# Compressibility (1/GPa) = 0.04420607
#
# Stress axis : x y z
#
# Youngs Moduli (GPa) = 29.39103 104.20810 102.88328
#
# Poissons Ratio (x) = 0.53137 -0.33845
# Poissons Ratio (y) = 0.14987 0.28370
# Poissons Ratio (z) = -0.09669 0.28735
#
# Static dielectric constant tensor:
#      x y z
#    x 1.957310 0.000000 -0.046910 
#    y 0.000000 1.811450 0.000000 
#    z -0.046910 0.000000 1.815160 
# 
# From -- ./inp_files/46189.got.cif
#   From: 2010.05.17/outbox.cif.g08.bks.cpg/sg15_24_cif.got.tgz:46189.got - 2010.06.03 18:47:42.
