data_PCOD9258008
_publ_section_title
;
Structure prediction by ZEFSAII (Michael W. Deem and Ramdas Pophale) SiO2 
 PCOD9258008
Probable space group: C 2/C
;
_chemical_formula_sum "Si O2"
_cell_formula_units_Z 40
_cell_length_a 12.881948
_cell_length_b 15.167502
_cell_length_c 16.922080
_cell_angle_alpha 90.000000
_cell_angle_beta 149.269040
_cell_angle_gamma 90.000000
_cell_volume 1689.571571
_symmetry_space_group_name_H-M "C 2/C"
_symmetry_group_IT_number 15
_symmetry_cell_setting 'monoclinic'
loop_
_space_group_symop_operation_xyz
x,y,z
-x,y,1/2-z
-x,-y,-z
x,-y,1/2+z
1/2+x,1/2+y,z
1/2-x,1/2+y,1/2-z
1/2-x,1/2-y,-z
1/2+x,1/2-y,1/2+z
loop_
_atom_site_type_symbol
_atom_site_label
_atom_site_fract_x
_atom_site_fract_y
_atom_site_fract_z
Si Si1 0.228780 0.833969 0.794388
Si Si2 0.669099 0.764737 0.794558
Si Si3 0.341314 0.555199 0.989844
Si Si4 0.524645 0.626075 0.590181
Si Si5 0.082368 0.321817 0.415833
O O1 0.346826 0.833041 0.789039
O O2 0.120300 0.736621 0.728486
O O3 0.365918 0.846285 0.960365
O O4 0.041460 0.901527 0.662685
O O5 0.500000 0.775584 0.750000
O O6 0.648237 0.666727 0.744065
O O7 0.387366 0.707693 0.471001
O O8 0.371832 0.451276 0.015462
O O9 0.145706 0.594523 0.905270
O O10 0.356891 0.585051 0.907790
O O11 0.250000 0.250000 0.500000
#
# Coordination Sequence:
#
# PCOD9258008 Si02
#       5
#     8   8   8   8   8
#     4  10  20  35  58  88 115 148 193 239 295 355
#     4  11  22  39  60  80 111 158 201 238 286 348
#     4   9  19  37  59  86 121 151 183 239 300 348
#     4  10  22  39  60  84 114 155 199 235 282 351
#     4  10  18  32  57  87 117 146 178 229 295 352
#
# _framework density 23.67464
#
# number of rings (size 3 to 8) (size 9 to 14) (size 15 to 20)
#    0.000    2.000    0.000    6.600    0.000    3.200 
#    0.000   10.000    0.000   14.400    0.000    0.000 
#    0.000    0.000    0.000    0.000    0.000    0.000 
#
# Total GULP energy -111710.191041 kJ/mol
# GULP energy per Si atom -5585.509552 kJ/mol
# Density = 2.362076 g / cm^3
# Si number density = 23.674640 Si / 1000 Ang^3
#
#
#
# Elastic Constant Matrix: (Units=GPa)
#
#
# Indices 1 2 3 4 5 6 
#
# 1 142.7110 12.5114 32.6583 -0.0017 -12.2408 0.0000
# 2 12.5114 104.1535 42.2495 -0.0031 -0.1835 -0.0001
# 3 32.6583 42.2495 103.6460 -0.0043 -17.4455 0.0005
# 4 -0.0017 -0.0031 -0.0043 32.1405 0.0019 11.1542
# 5 -12.2408 -0.1835 -17.4455 0.0019 14.0330 0.0019
# 6 0.0000 -0.0001 0.0005 11.1542 0.0019 26.9014
#
#
#
# Elastic Compliance Matrix: (Units=1/GPa)
#
#
# Indices 1 2 3 4 5 6 
#
# 1 0.007801 -0.000322 -0.001495 0.000000 0.004942 0.000000
# 2 -0.000322 0.012119 -0.006145 0.000001 -0.007762 0.000000
# 3 -0.001495 -0.006145 0.015670 0.000001 0.018096 -0.000002
# 4 0.000000 0.000001 0.000001 0.036343 -0.000001 -0.015069
# 5 0.004942 -0.007762 0.018096 -0.000001 0.097967 -0.000007
# 6 0.000000 0.000000 -0.000002 -0.015069 -0.000007 0.043421
#
#
# Mechanical properties :
#
#
# Convention : Reuss Voigt Hill
#
# Bulk Modulus (GPa) = 50.84832 58.37210 54.61021
# Shear Modulus (GPa) = 21.20425 32.15438 26.67932
#
# Velocity S-wave (km/s) = 2.99599 3.68935 3.36060
# Velocity P-wave (km/s) = 5.78728 6.54659 6.17861
#
# Compressibility (1/GPa) = 0.01966633
#
# Stress axis : x y z
#
# Youngs Moduli (GPa) = 128.18146 82.51539 63.81530
#
# Poissons Ratio (x) = 0.02657 0.09541
# Poissons Ratio (y) = 0.04127 0.39215
# Poissons Ratio (z) = 0.19164 0.50706
#
# Static dielectric constant tensor:
#      x y z
#    x 1.970400 0.000000 0.008690 
#    y 0.000000 1.902260 0.000000 
#    z 0.008690 0.000000 2.027830 
# 
# From -- ./inp_files/145260.got.cif
#   From: 2010.05.17/outbox.cif.g08.bks.cpg/sg15_73_cif.got.tgz:145260.got - 2010.06.03 18:47:42.
