data_PCOD9258361
_publ_section_title
;
Structure prediction by ZEFSAII (Michael W. Deem and Ramdas Pophale) SiO2 
 PCOD9258361
Probable space group: C 2/C
;
_chemical_formula_sum "Si O2"
_cell_formula_units_Z 48
_cell_length_a 9.102613
_cell_length_b 13.666254
_cell_length_c 18.823339
_cell_angle_alpha 90.000000
_cell_angle_beta 64.743528
_cell_angle_gamma 90.000000
_cell_volume 2117.756994
_symmetry_space_group_name_H-M "C 2/C"
_symmetry_group_IT_number 15
_symmetry_cell_setting 'monoclinic'
loop_
_space_group_symop_operation_xyz
x,y,z
-x,y,1/2-z
-x,-y,-z
x,-y,1/2+z
1/2+x,1/2+y,z
1/2-x,1/2+y,1/2-z
1/2-x,1/2-y,-z
1/2+x,1/2-y,1/2+z
loop_
_atom_site_type_symbol
_atom_site_label
_atom_site_fract_x
_atom_site_fract_y
_atom_site_fract_z
Si Si1 0.268537 0.649405 0.278986
Si Si2 0.827842 0.187429 0.805423
Si Si3 0.023287 0.698941 0.949401
Si Si4 0.076275 0.648413 0.100193
Si Si5 0.324764 0.975692 0.496417
Si Si6 0.030555 0.890903 0.626762
O O1 0.237649 0.754840 0.249810
O O2 0.369910 0.659717 0.329656
O O3 0.363772 0.583424 0.201860
O O4 0.095752 0.607917 0.337336
O O5 0.671651 0.143764 0.877298
O O6 0.872938 0.273364 0.852257
O O7 0.000000 0.136905 0.750000
O O8 0.008224 0.807962 0.922780
O O9 0.056147 0.699053 0.027064
O O10 0.862148 0.635966 0.967567
O O11 0.189062 0.555629 0.062114
O O12 0.154590 0.972333 0.573185
O O13 0.500000 0.000000 0.500000
#
# Coordination Sequence:
#
# PCOD9258361 Si02
#       6
#     8   8   8   8   8   8
#     4   9  18  32  55  74 102 142 182 202 263 316
#     4   9  19  35  55  73 106 146 178 207 260 323
#     4  10  19  32  55  82 100 133 178 224 257 301
#     4  10  19  35  56  78 107 139 175 215 266 316
#     4  10  19  32  52  79 105 132 171 218 269 305
#     4  10  18  33  55  78 103 139 179 219 256 316
#
# _framework density 22.665489999999998
#
# number of rings (size 3 to 8) (size 9 to 14) (size 15 to 20)
#    0.000    2.333    3.333    1.000    0.000    0.000 
#    0.000    6.667   22.000    0.000    0.000    0.000 
#    0.000    0.000    0.000    0.000    0.000    0.000 
#
# Total GULP energy -133747.637190 kJ/mol
# GULP energy per Si atom -5572.818216 kJ/mol
# Density = 2.261390 g / cm^3
# Si number density = 22.665490 Si / 1000 Ang^3
#
#
#
# Elastic Constant Matrix: (Units=GPa)
#
#
# Indices 1 2 3 4 5 6 
#
# 1 35.2022 9.4273 43.5983 0.0000 -12.9627 0.0000
# 2 9.4273 34.6405 18.0237 0.0000 5.4250 0.0000
# 3 43.5983 18.0237 143.6057 0.0000 -36.0541 0.0000
# 4 0.0000 0.0000 0.0000 17.4333 0.0000 -5.1993
# 5 -12.9627 5.4250 -36.0541 0.0000 52.3077 0.0000
# 6 0.0000 0.0000 0.0000 -5.1993 0.0000 23.5638
#
#
#
# Elastic Compliance Matrix: (Units=1/GPa)
#
#
# Indices 1 2 3 4 5 6 
#
# 1 0.047119 -0.006920 -0.012485 0.000000 0.003789 0.000000
# 2 -0.006920 0.034251 -0.004257 0.000000 -0.008201 0.000000
# 3 -0.012485 -0.004257 0.012845 0.000000 0.006201 0.000000
# 4 0.000000 0.000000 0.000000 0.061402 0.000000 0.013548
# 5 0.003789 -0.008201 0.006201 0.000000 0.025181 0.000000
# 6 0.000000 0.000000 0.000000 0.013548 0.000000 0.045427
#
#
# Mechanical properties :
#
#
# Convention : Reuss Voigt Hill
#
# Bulk Modulus (GPa) = 21.32665 39.50521 30.41593
# Shear Modulus (GPa) = 17.29022 28.15424 22.72223
#
# Velocity S-wave (km/s) = 2.76496 3.52826 3.16967
# Velocity P-wave (km/s) = 4.42979 5.83658 5.18115
#
# Compressibility (1/GPa) = 0.04688969
#
# Stress axis : x y z
#
# Youngs Moduli (GPa) = 21.22276 29.19662 77.85014
#
# Poissons Ratio (x) = 0.20205 0.97199
# Poissons Ratio (y) = 0.14687 0.33139
# Poissons Ratio (z) = 0.26498 0.12428
#
# Static dielectric constant tensor:
#      x y z
#    x 2.199190 0.000000 -0.138750 
#    y 0.000000 1.858340 0.000000 
#    z -0.138750 0.000000 1.924120 
# 
# From -- ./inp_files/239223.got.cif
#   From: 2010.05.17/outbox.cif.g08.bks.cpg/sg15_120_cif.got.tgz:239223.got - 2010.06.03 18:47:42.
