data_PCOD9258414
_publ_section_title
;
Structure prediction by ZEFSAII (Michael W. Deem and Ramdas Pophale) SiO2 
 PCOD9258414
Probable space group: C 2/C
;
_chemical_formula_sum "Si O2"
_cell_formula_units_Z 52
_cell_length_a 25.866018
_cell_length_b 16.087851
_cell_length_c 19.612605
_cell_angle_alpha 90.000000
_cell_angle_beta 16.498220
_cell_angle_gamma 90.000000
_cell_volume 2317.710273
_symmetry_space_group_name_H-M "C 2/C"
_symmetry_group_IT_number 15
_symmetry_cell_setting 'monoclinic'
loop_
_space_group_symop_operation_xyz
x,y,z
-x,y,1/2-z
-x,-y,-z
x,-y,1/2+z
1/2+x,1/2+y,z
1/2-x,1/2+y,1/2-z
1/2-x,1/2-y,-z
1/2+x,1/2-y,1/2+z
loop_
_atom_site_type_symbol
_atom_site_label
_atom_site_fract_x
_atom_site_fract_y
_atom_site_fract_z
Si Si1 0.717501 0.328414 0.991774
Si Si2 0.707097 0.871890 0.931923
Si Si3 0.997730 0.870594 0.062317
Si Si4 0.011522 0.238639 0.350500
Si Si5 0.000000 0.889415 0.750000
Si Si6 0.766796 0.253271 0.793379
Si Si7 0.793693 0.013253 0.915611
O O1 0.500000 0.336351 0.250000
O O2 0.789441 0.408066 0.941096
O O3 0.750000 0.250000 0.000000
O O4 0.805631 0.316079 0.806321
O O5 0.855879 0.886743 0.682880
O O6 0.523197 0.829018 0.138000
O O7 0.800417 0.802592 0.863616
O O8 0.689235 0.957917 0.993161
O O9 0.802004 0.837598 0.281885
O O10 0.960938 0.945994 0.160202
O O11 0.084864 0.791995 0.991990
O O12 0.933897 0.171003 0.394739
O O13 0.901870 0.248415 0.559200
O O14 0.140634 0.950603 0.608732
#
# Coordination Sequence:
#
# PCOD9258414 Si02
#       7
#     8   8   8   8   4   8   8
#     4  12  21  35  59  83 115 148 184 225 275 330
#     4   9  20  35  58  82 109 147 184 232 272 325
#     4  10  18  33  56  82 113 142 188 226 274 322
#     4   9  20  35  58  80 110 144 187 226 277 328
#     4  10  20  36  58  84 108 146 184 232 274 328
#     4  10  18  34  53  82 110 148 182 225 271 332
#     4  11  19  32  55  85 114 141 186 229 272 326
#
# _framework density 22.435935000000001
#
# number of rings (size 3 to 8) (size 9 to 14) (size 15 to 20)
#    0.000    1.846    3.846    0.462    0.000    2.462 
#    0.000    0.000    5.077    3.692    0.000   31.231 
#    0.000    0.000    0.000    0.000    0.000    0.000 
#
# Total GULP energy -144855.736492 kJ/mol
# GULP energy per Si atom -5571.374480 kJ/mol
# Density = 2.238487 g / cm^3
# Si number density = 22.435935 Si / 1000 Ang^3
#
#
#
# Elastic Constant Matrix: (Units=GPa)
#
#
# Indices 1 2 3 4 5 6 
#
# 1 128.3581 55.0276 40.8610 0.0013 33.5955 -0.0119
# 2 55.0276 114.4068 32.0063 -0.0062 14.5466 -0.0074
# 3 40.8610 32.0063 81.7747 -0.0069 18.1920 -0.0084
# 4 0.0013 -0.0062 -0.0069 27.2602 0.0014 9.7977
# 5 33.5955 14.5466 18.1920 0.0014 29.1266 0.0049
# 6 -0.0119 -0.0074 -0.0084 9.7977 0.0049 24.1997
#
#
#
# Elastic Compliance Matrix: (Units=1/GPa)
#
#
# Indices 1 2 3 4 5 6 
#
# 1 0.013538 -0.004316 -0.002417 -0.000005 -0.011950 0.000009
# 2 -0.004316 0.011408 -0.002495 0.000002 0.000839 -0.000001
# 3 -0.002417 -0.002495 0.015697 0.000002 -0.005770 0.000004
# 4 -0.000005 0.000002 0.000002 0.042931 0.000004 -0.017381
# 5 -0.011950 0.000839 -0.005770 0.000004 0.051301 -0.000019
# 6 0.000009 -0.000001 0.000004 -0.017381 -0.000019 0.048360
#
#
# Mechanical properties :
#
#
# Convention : Reuss Voigt Hill
#
# Bulk Modulus (GPa) = 45.07228 64.48103 54.77665
# Shear Modulus (GPa) = 23.91359 29.22695 26.57027
#
# Velocity S-wave (km/s) = 3.26829 3.61319 3.44506
# Velocity P-wave (km/s) = 5.86304 6.79774 6.34762
#
# Compressibility (1/GPa) = 0.02218659
#
# Stress axis : x y z
#
# Youngs Moduli (GPa) = 73.86546 87.65788 63.70812
#
# Poissons Ratio (x) = 0.37833 0.15398
# Poissons Ratio (y) = 0.31880 0.15896
# Poissons Ratio (z) = 0.17853 0.21872
#
# Static dielectric constant tensor:
#      x y z
#    x 1.908000 0.000000 -0.019560 
#    y 0.000000 1.812040 0.000010 
#    z -0.019560 0.000010 1.949030 
# 
# From -- ./inp_files/257784.got.cif
#   From: 2010.05.17/outbox.cif.g08.bks.cpg/sg15_129_cif.got.tgz:257784.got - 2010.06.03 18:47:42.
