data_PCOD9258991
_publ_section_title
;
Structure prediction by ZEFSAII (Michael W. Deem and Ramdas Pophale) SiO2 
 PCOD9258991
Probable space group: C 2/C
;
_chemical_formula_sum "Si O2"
_cell_formula_units_Z 60
_cell_length_a 14.982502
_cell_length_b 12.212471
_cell_length_c 17.326896
_cell_angle_alpha 90.000000
_cell_angle_beta 69.101425
_cell_angle_gamma 90.000000
_cell_volume 2961.793161
_symmetry_space_group_name_H-M "C 2/C"
_symmetry_group_IT_number 15
_symmetry_cell_setting 'monoclinic'
loop_
_space_group_symop_operation_xyz
x,y,z
-x,y,1/2-z
-x,-y,-z
x,-y,1/2+z
1/2+x,1/2+y,z
1/2-x,1/2+y,1/2-z
1/2-x,1/2-y,-z
1/2+x,1/2-y,1/2+z
loop_
_atom_site_type_symbol
_atom_site_label
_atom_site_fract_x
_atom_site_fract_y
_atom_site_fract_z
Si Si1 0.717791 0.208410 0.380651
Si Si2 0.180116 0.018266 0.071790
Si Si3 0.514875 0.546163 0.908427
Si Si4 0.497079 0.191672 0.078143
Si Si5 0.000000 0.682248 0.250000
Si Si6 0.291809 0.174644 0.295167
Si Si7 0.777496 0.965540 0.120093
Si Si8 0.300990 0.185901 0.555458
O O1 0.783071 0.135522 0.414249
O O2 0.605674 0.181245 0.431051
O O3 0.729798 0.177586 0.287632
O O4 0.741115 0.336617 0.378563
O O5 0.241955 0.923403 0.092202
O O6 0.200644 0.000406 0.974513
O O7 0.067048 0.006603 0.118001
O O8 0.496881 0.676521 0.910772
O O9 0.625789 0.523702 0.858671
O O10 0.500000 0.500000 0.000000
O O11 0.497899 0.134722 0.162678
O O12 0.590767 0.159902 0.001838
O O13 0.106624 0.734123 0.218633
O O14 0.209634 0.232819 0.369499
O O15 0.298880 0.049453 0.322201
O O16 0.250000 0.250000 0.500000
#
# Coordination Sequence:
#
# PCOD9258991 Si02
#       8
#     8   8   8   8   4   8   8   8
#     4  10  25  37  58  88 127 157 194 249 315 365
#     4  11  20  36  61  89 117 155 201 246 304 360
#     4   9  17  32  58  81 109 148 196 242 286 349
#     4  10  19  36  55  89 115 152 195 243 296 351
#     4  10  18  34  58  82 112 144 190 244 296 350
#     4  11  22  38  60  87 116 155 197 251 304 354
#     4  10  20  39  60  81 117 161 198 247 300 365
#     4  12  19  35  64  91 114 150 207 249 288 357
#
# _framework density 20.257997
#
# number of rings (size 3 to 8) (size 9 to 14) (size 15 to 20)
#    0.000    1.600    4.000    1.200    1.867    0.533 
#    2.400    0.000    2.933    0.000    0.000    0.000 
#    0.000    0.000    0.000    0.000    0.000    0.000 
#
# Total GULP energy -167212.323716 kJ/mol
# GULP energy per Si atom -5573.744124 kJ/mol
# Density = 2.021189 g / cm^3
# Si number density = 20.257997 Si / 1000 Ang^3
#
#
#
# Elastic Constant Matrix: (Units=GPa)
#
#
# Indices 1 2 3 4 5 6 
#
# 1 92.9928 37.8723 15.8781 0.0000 -8.2321 0.0000
# 2 37.8723 87.8133 2.3066 0.0000 -6.8872 0.0000
# 3 15.8781 2.3066 45.8433 0.0000 -12.3449 0.0000
# 4 0.0000 0.0000 0.0000 11.4993 0.0000 9.4117
# 5 -8.2321 -6.8872 -12.3449 0.0000 17.5372 0.0000
# 6 0.0000 0.0000 0.0000 9.4117 0.0000 27.1231
#
#
#
# Elastic Compliance Matrix: (Units=1/GPa)
#
#
# Indices 1 2 3 4 5 6 
#
# 1 0.013948 -0.005802 -0.004182 0.000000 0.001325 0.000000
# 2 -0.005802 0.014187 0.002545 0.000000 0.004640 0.000000
# 3 -0.004182 0.002545 0.028225 0.000000 0.018904 0.000000
# 4 0.000000 0.000000 0.000000 0.121455 0.000000 -0.042145
# 5 0.001325 0.004640 0.018904 0.000000 0.072773 0.000000
# 6 0.000000 0.000000 0.000000 -0.042145 0.000000 0.051493
#
#
# Mechanical properties :
#
#
# Convention : Reuss Voigt Hill
#
# Bulk Modulus (GPa) = 24.10704 37.64037 30.87370
# Shear Modulus (GPa) = 15.11552 22.60473 18.86013
#
# Velocity S-wave (km/s) = 2.73454 3.34405 3.05453
# Velocity P-wave (km/s) = 4.67933 5.79060 5.26437
#
# Compressibility (1/GPa) = 0.04148166
#
# Stress axis : x y z
#
# Youngs Moduli (GPa) = 71.69665 70.48713 35.43005
#
# Poissons Ratio (x) = 0.40894 0.14818
# Poissons Ratio (y) = 0.41596 -0.09017
# Poissons Ratio (z) = 0.29985 -0.17939
#
# Static dielectric constant tensor:
#      x y z
#    x 1.753780 0.000000 -0.017610 
#    y 0.000000 1.736310 0.000000 
#    z -0.017610 0.000000 1.731750 
# 
# From -- ./inp_files/204410.got.cif
#   From: 2010.05.17/outbox.cif.g08.bks.cpg/sg15_103_cif.got.tgz:204410.got - 2010.06.03 18:47:42.
