data_PCOD9258565
_publ_section_title
;
Structure prediction by ZEFSAII (Michael W. Deem and Ramdas Pophale) SiO2 
 PCOD9258565
Probable space group: C 2/C
;
_chemical_formula_sum "Si O2"
_cell_formula_units_Z 60
_cell_length_a 18.522436
_cell_length_b 11.057137
_cell_length_c 12.317416
_cell_angle_alpha 90.000000
_cell_angle_beta 72.081146
_cell_angle_gamma 90.000000
_cell_volume 2400.303162
_symmetry_space_group_name_H-M "C 2/C"
_symmetry_group_IT_number 15
_symmetry_cell_setting 'monoclinic'
loop_
_space_group_symop_operation_xyz
x,y,z
-x,y,1/2-z
-x,-y,-z
x,-y,1/2+z
1/2+x,1/2+y,z
1/2-x,1/2+y,1/2-z
1/2-x,1/2-y,-z
1/2+x,1/2-y,1/2+z
loop_
_atom_site_type_symbol
_atom_site_label
_atom_site_fract_x
_atom_site_fract_y
_atom_site_fract_z
Si Si1 0.205766 0.258415 0.322918
Si Si2 0.692033 0.334177 0.596558
Si Si3 0.291728 0.452922 0.558960
Si Si4 0.388326 0.926075 0.853673
Si Si5 0.500000 0.718676 0.750000
Si Si6 0.944372 0.612666 0.674992
Si Si7 0.361114 0.654130 0.686579
Si Si8 0.912564 0.332256 0.480466
O O1 0.209878 0.173117 0.214261
O O2 0.139202 0.344528 0.314785
O O3 0.288016 0.317630 0.294618
O O4 0.177891 0.181360 0.437844
O O5 0.750000 0.250000 0.500000
O O6 0.697850 0.470589 0.554208
O O7 0.614985 0.266584 0.597334
O O8 0.202350 0.427459 0.620904
O O9 0.332576 0.543995 0.624796
O O10 0.438122 0.804880 0.841212
O O11 0.426380 0.979206 0.725635
O O12 0.393193 0.032705 0.944070
O O13 0.442184 0.637398 0.705826
O O14 0.000000 0.653285 0.750000
O O15 0.997449 0.652525 0.551997
O O16 0.376082 0.772718 0.603535
#
# Coordination Sequence:
#
# PCOD9258565 Si02
#       8
#     8   8   8   8   4   8   8   8
#     4  12  20  36  67  88 118 170 211 256 317 372
#     4  11  17  35  63  92 117 157 219 260 300 378
#     4  11  22  37  60  93 120 163 213 253 309 388
#     4  11  17  34  61  88 115 146 203 263 304 363
#     4  12  24  36  56  92 128 162 200 262 330 372
#     4  10  18  33  59  91 115 140 201 272 302 341
#     4  11  23  40  58  85 126 166 201 252 323 384
#     4  10  18  34  62  88 116 147 205 272 301 351
#
# _framework density 24.996842000000001
#
# number of rings (size 3 to 8) (size 9 to 14) (size 15 to 20)
#    0.000    1.067   11.333    0.000    0.000    0.533 
#    1.200    4.000    0.000    1.600    0.000    0.000 
#    0.000    0.000    0.000    0.000    0.000    0.000 
#
# Total GULP energy -167144.778931 kJ/mol
# GULP energy per Si atom -5571.492631 kJ/mol
# Density = 2.493995 g / cm^3
# Si number density = 24.996842 Si / 1000 Ang^3
#
#
#
# Elastic Constant Matrix: (Units=GPa)
#
#
# Indices 1 2 3 4 5 6 
#
# 1 182.8916 33.1323 31.0276 0.0000 -3.7348 0.0000
# 2 33.1323 33.3381 28.6419 0.0000 4.0239 0.0000
# 3 31.0276 28.6419 47.5109 0.0000 -1.9918 0.0000
# 4 0.0000 0.0000 0.0000 33.9926 0.0000 7.8848
# 5 -3.7348 4.0239 -1.9918 0.0000 30.4522 0.0000
# 6 0.0000 0.0000 0.0000 7.8848 0.0000 27.6705
#
#
#
# Elastic Compliance Matrix: (Units=1/GPa)
#
#
# Indices 1 2 3 4 5 6 
#
# 1 0.006761 -0.006616 -0.000357 0.000000 0.001680 0.000000
# 2 -0.006616 0.072382 -0.039859 0.000000 -0.012983 0.000000
# 3 -0.000357 -0.039859 0.045654 0.000000 0.008209 0.000000
# 4 0.000000 0.000000 0.000000 0.031500 0.000000 -0.008976
# 5 0.001680 -0.012983 0.008209 0.000000 0.035297 0.000000
# 6 0.000000 0.000000 0.000000 -0.008976 0.000000 0.038697
#
#
# Mechanical properties :
#
#
# Convention : Reuss Voigt Hill
#
# Bulk Modulus (GPa) = 32.11935 49.92711 41.02323
# Shear Modulus (GPa) = 14.95519 29.81899 22.38709
#
# Velocity S-wave (km/s) = 2.44864 3.45760 2.99590
# Velocity P-wave (km/s) = 4.56855 5.99639 5.33050
#
# Compressibility (1/GPa) = 0.03113388
#
# Stress axis : x y z
#
# Youngs Moduli (GPa) = 147.90679 13.81561 21.90391
#
# Poissons Ratio (x) = 0.09140 0.00781
# Poissons Ratio (y) = 0.97849 0.87307
# Poissons Ratio (z) = 0.05277 0.55068
#
# Static dielectric constant tensor:
#      x y z
#    x 2.041040 0.000000 0.038750 
#    y 0.000000 2.002140 0.000000 
#    z 0.038750 0.000000 2.127070 
# 
# From -- ./inp_files/161286.got.cif
#   From: 2010.05.17/outbox.cif.g08.bks.cpg/sg15_81_cif.got.tgz:161286.got - 2010.06.03 18:47:42.
