data_PCOD9258661
_publ_section_title
;
Structure prediction by ZEFSAII (Michael W. Deem and Ramdas Pophale) SiO2 
 PCOD9258661
Probable space group: C 2/C
;
_chemical_formula_sum "Si O2"
_cell_formula_units_Z 56
_cell_length_a 17.512179
_cell_length_b 22.097935
_cell_length_c 9.393114
_cell_angle_alpha 90.000000
_cell_angle_beta 59.875258
_cell_angle_gamma 90.000000
_cell_volume 3144.016597
_symmetry_space_group_name_H-M "C 2/C"
_symmetry_group_IT_number 15
_symmetry_cell_setting 'monoclinic'
loop_
_space_group_symop_operation_xyz
x,y,z
-x,y,1/2-z
-x,-y,-z
x,-y,1/2+z
1/2+x,1/2+y,z
1/2-x,1/2+y,1/2-z
1/2-x,1/2-y,-z
1/2+x,1/2-y,1/2+z
loop_
_atom_site_type_symbol
_atom_site_label
_atom_site_fract_x
_atom_site_fract_y
_atom_site_fract_z
Si Si1 0.591762 0.286502 0.471095
Si Si2 0.917023 0.038360 0.219450
Si Si3 0.837043 0.208027 0.910879
Si Si4 0.595531 0.833831 0.146833
Si Si5 0.210461 0.143157 0.083135
Si Si6 0.101405 0.770557 0.861777
Si Si7 0.591866 0.418366 0.103809
O O1 0.622580 0.289623 0.282226
O O2 0.591597 0.217739 0.528307
O O3 0.660932 0.324978 0.497493
O O4 0.489487 0.305543 0.591240
O O5 0.838843 0.082076 0.337298
O O6 0.000000 0.051593 0.250000
O O7 0.890407 0.970881 0.296095
O O8 0.925577 0.052002 0.039087
O O9 0.837696 0.136368 0.956206
O O10 0.750000 0.250000 0.000000
O O11 0.899828 0.237221 0.970327
O O12 0.500000 0.865015 0.250000
O O13 0.606007 0.792527 0.277265
O O14 0.686652 0.867496 0.037253
O O15 0.185619 0.190756 0.231766
O O16 0.500000 0.391096 0.250000
#
# Coordination Sequence:
#
# PCOD9258661 Si02
#       7
#     8   8   8   8   8   8   8
#     4  10  20  30  53  75 114 150 190 234 292 340
#     4  11  23  38  60  85 119 155 196 238 293 352
#     4  12  23  34  52  80 117 157 194 232 286 347
#     4   9  19  34  51  76 110 146 194 240 284 341
#     4  11  19  32  55  79 107 147 193 237 284 350
#     4  10  18  34  47  79 110 150 185 236 289 344
#     4  11  24  40  58  85 121 157 198 239 296 351
#
# _framework density 17.811612
#
# number of rings (size 3 to 8) (size 9 to 14) (size 15 to 20)
#    0.000    1.429    1.429    8.571    4.000    0.000 
#    0.000    0.000    0.000    0.000    0.000    4.000 
#    0.000    0.000    0.000    0.000    0.000    0.000 
#
# Total GULP energy -155905.586067 kJ/mol
# GULP energy per Si atom -5568.056645 kJ/mol
# Density = 1.777107 g / cm^3
# Si number density = 17.811612 Si / 1000 Ang^3
#
#
#
# Elastic Constant Matrix: (Units=GPa)
#
#
# Indices 1 2 3 4 5 6 
#
# 1 74.9351 23.7904 47.7456 0.0000 -13.0502 0.0000
# 2 23.7904 60.1434 25.5682 0.0000 -5.0950 0.0000
# 3 47.7456 25.5682 122.0840 0.0000 12.5825 0.0000
# 4 0.0000 0.0000 0.0000 10.5893 0.0000 -15.7260
# 5 -13.0502 -5.0950 12.5825 0.0000 51.5735 0.0000
# 6 0.0000 0.0000 0.0000 -15.7260 0.0000 8.9118
#
#
#
# Elastic Compliance Matrix: (Units=1/GPa)
#
#
# Indices 1 2 3 4 5 6 
#
# 1 0.021022 -0.004325 -0.008021 0.000000 0.006849 0.000000
# 2 -0.004325 0.019547 -0.002553 0.000000 0.001459 0.000000
# 3 -0.008021 -0.002553 0.012410 0.000000 -0.005310 0.000000
# 4 0.000000 0.000000 0.000000 -0.058271 0.000000 -0.102827
# 5 0.006849 0.001459 -0.005310 0.000000 0.022562 0.000000
# 6 0.000000 0.000000 0.000000 -0.102827 0.000000 -0.069240
#
#
# Mechanical properties :
#
#
# Convention : Reuss Voigt Hill
#
# Bulk Modulus (GPa) = 43.14048 50.15230 46.64639
# Shear Modulus (GPa) = -346.12962 24.88547 -160.62207
#
# Velocity S-wave (km/s) = -13.95528 3.74190 -9.50653
# Velocity P-wave (km/s) = 15.34254 6.84743 9.70841
#
# Compressibility (1/GPa) = 0.02318008
#
# Stress axis : x y z
#
# Youngs Moduli (GPa) = 47.56990 51.15994 80.58026
#
# Poissons Ratio (x) = 0.22127 0.64637
# Poissons Ratio (y) = 0.20574 0.20569
# Poissons Ratio (z) = 0.38158 0.13059
#
# Static dielectric constant tensor:
#      x y z
#    x 1.689030 0.000000 0.017400 
#    y 0.000000 1.634190 0.000000 
#    z 0.017400 0.000000 1.643580 
# 
# From -- ./inp_files/42526.got.cif
#   From: 2010.05.17/outbox.cif.g08.bks.cpg/sg15_22_cif.got.tgz:42526.got - 2010.06.03 18:47:42.
