data_PCOD9258524
_publ_section_title
;
Structure prediction by ZEFSAII (Michael W. Deem and Ramdas Pophale) SiO2 
 PCOD9258524
Probable space group: C 2/C
;
_chemical_formula_sum "Si O2"
_cell_formula_units_Z 40
_cell_length_a 5.163301
_cell_length_b 23.568666
_cell_length_c 15.339669
_cell_angle_alpha 90.000000
_cell_angle_beta 96.633595
_cell_angle_gamma 90.000000
_cell_volume 1854.219499
_symmetry_space_group_name_H-M "C 2/C"
_symmetry_group_IT_number 15
_symmetry_cell_setting 'monoclinic'
loop_
_space_group_symop_operation_xyz
x,y,z
-x,y,1/2-z
-x,-y,-z
x,-y,1/2+z
1/2+x,1/2+y,z
1/2-x,1/2+y,1/2-z
1/2-x,1/2-y,-z
1/2+x,1/2-y,1/2+z
loop_
_atom_site_type_symbol
_atom_site_label
_atom_site_fract_x
_atom_site_fract_y
_atom_site_fract_z
Si Si1 0.029492 0.797205 0.388266
Si Si2 0.265816 0.580248 0.307624
Si Si3 0.786261 0.318112 0.571807
Si Si4 0.728030 0.016695 0.942395
Si Si5 0.041348 0.643721 0.910907
O O1 0.111471 0.733881 0.366214
O O2 0.068379 0.796010 0.495645
O O3 0.245264 0.843635 0.367018
O O4 0.735595 0.815847 0.365262
O O5 0.500000 0.574008 0.250000
O O6 0.322363 0.629632 0.378850
O O7 0.216321 0.522289 0.357028
O O8 0.000000 0.597046 0.250000
O O9 0.005967 0.340265 0.512295
O O10 0.670064 0.081748 0.914933
O O11 0.500000 0.000000 0.000000
O O12 0.000000 0.000000 0.000000
#
# Coordination Sequence:
#
# PCOD9258524 Si02
#       5
#     8   8   8   8   8
#     4   9  19  31  61  92 111 140 198 259 303 341
#     4  12  27  40  59  91 134 167 198 259 344 383
#     4   9  20  35  59  86 123 147 200 253 305 365
#     4  12  22  40  65  87 119 165 226 260 299 379
#     4  10  18  33  58  90 109 147 203 270 282 338
#
# _framework density 21.572420000000001
#
# number of rings (size 3 to 8) (size 9 to 14) (size 15 to 20)
#    1.200    0.400    2.000    4.200    2.800    0.000 
#    0.000    0.000    0.000    7.200    0.000    0.000 
#    0.000    0.000    0.000    0.000    0.000    0.000 
#
# Total GULP energy -111527.141466 kJ/mol
# GULP energy per Si atom -5576.357073 kJ/mol
# Density = 2.152332 g / cm^3
# Si number density = 21.572420 Si / 1000 Ang^3
#
#
#
# Elastic Constant Matrix: (Units=GPa)
#
#
# Indices 1 2 3 4 5 6 
#
# 1 121.7255 3.4482 19.9541 0.0000 -36.6085 0.0000
# 2 3.4482 121.3536 13.8032 0.0000 -26.7857 0.0000
# 3 19.9541 13.8032 33.6768 0.0000 -11.5517 0.0000
# 4 0.0000 0.0000 0.0000 8.9173 0.0000 1.6114
# 5 -36.6085 -26.7857 -11.5517 0.0000 23.4858 0.0000
# 6 0.0000 0.0000 0.0000 1.6114 0.0000 16.1190
#
#
#
# Elastic Compliance Matrix: (Units=1/GPa)
#
#
# Indices 1 2 3 4 5 6 
#
# 1 0.020691 0.008740 -0.001636 0.000000 0.041416 0.000000
# 2 0.008740 0.014706 -0.000938 0.000000 0.029933 0.000000
# 3 -0.001636 -0.000938 0.035856 0.000000 0.014016 0.000000
# 4 0.000000 0.000000 0.000000 0.114204 0.000000 -0.011417
# 5 0.041416 0.029933 0.014016 0.000000 0.148169 0.000000
# 6 0.000000 0.000000 0.000000 -0.011417 0.000000 0.063180
#
#
# Mechanical properties :
#
#
# Convention : Reuss Voigt Hill
#
# Bulk Modulus (GPa) = 11.96400 39.01852 25.49126
# Shear Modulus (GPa) = 12.12603 25.67445 18.90024
#
# Velocity S-wave (km/s) = 2.37345 3.45360 2.96316
# Velocity P-wave (km/s) = 3.61512 5.83349 4.85277
#
# Compressibility (1/GPa) = 0.08358406
#
# Stress axis : x y z
#
# Youngs Moduli (GPa) = 48.32919 68.00036 27.88963
#
# Poissons Ratio (x) = -0.59430 0.04562
# Poissons Ratio (y) = -0.42238 0.02616
# Poissons Ratio (z) = 0.07906 0.06380
#
# Static dielectric constant tensor:
#      x y z
#    x 1.779050 0.000000 0.053980 
#    y 0.000000 1.906780 0.000000 
#    z 0.053980 0.000000 1.931060 
# 
# From -- ./inp_files/129124.got.cif
#   From: 2010.05.17/outbox.cif.g08.bks.cpg/sg15_65_cif.got.tgz:129124.got - 2010.06.03 18:47:42.
