data_PCOD9258705
_publ_section_title
;
Structure prediction by ZEFSAII (Michael W. Deem and Ramdas Pophale) SiO2 
 PCOD9258705
Probable space group: C 2/C
;
_chemical_formula_sum "Si O2"
_cell_formula_units_Z 52
_cell_length_a 23.347962
_cell_length_b 11.950351
_cell_length_c 17.374046
_cell_angle_alpha 90.000000
_cell_angle_beta 153.197678
_cell_angle_gamma 90.000000
_cell_volume 2185.868593
_symmetry_space_group_name_H-M "C 2/C"
_symmetry_group_IT_number 15
_symmetry_cell_setting 'monoclinic'
loop_
_space_group_symop_operation_xyz
x,y,z
-x,y,1/2-z
-x,-y,-z
x,-y,1/2+z
1/2+x,1/2+y,z
1/2-x,1/2+y,1/2-z
1/2-x,1/2-y,-z
1/2+x,1/2-y,1/2+z
loop_
_atom_site_type_symbol
_atom_site_label
_atom_site_fract_x
_atom_site_fract_y
_atom_site_fract_z
Si Si1 0.389423 0.577416 0.962561
Si Si2 0.981732 0.157286 0.925154
Si Si3 0.141462 0.543024 0.150447
Si Si4 0.429865 0.136445 0.283947
Si Si5 0.500000 0.476085 0.750000
Si Si6 0.226331 0.083304 0.930353
Si Si7 0.408713 0.079611 0.576217
O O1 0.463779 0.660119 0.994775
O O2 0.239647 0.560682 0.769666
O O3 0.436892 0.451518 0.997276
O O4 0.434619 0.594480 0.103603
O O5 0.019987 0.266034 0.923398
O O6 0.840214 0.134973 0.723122
O O7 0.162793 0.611889 0.254500
O O8 0.140752 0.612275 0.069110
O O9 0.000000 0.500000 0.000000
O O10 0.510079 0.029872 0.352623
O O11 0.337250 0.156394 0.101146
O O12 0.611357 0.553368 0.849224
O O13 0.288390 0.965854 0.978807
O O14 0.500000 0.138317 0.750000
#
# Coordination Sequence:
#
# PCOD9258705 Si02
#       7
#     8   8   8   8   4   8   8
#     4  10  20  38  54  80 112 153 191 229 280 345
#     4  10  21  34  55  78 111 149 185 230 286 337
#     4  10  19  36  56  78 110 147 189 229 281 338
#     4  10  20  34  54  83 109 145 189 239 282 335
#     4  10  20  34  58  82 110 158 194 226 278 340
#     4  10  18  34  52  81 115 141 181 233 281 342
#     4   9  19  34  55  80 108 145 182 235 288 338
#
# _framework density 23.789171
#
# number of rings (size 3 to 8) (size 9 to 14) (size 15 to 20)
#    0.000    2.154    3.077    0.462    0.000    1.231 
#   16.615    0.000    1.692    0.000    0.000    6.462 
#    0.000    0.000    0.000    0.000    0.000    0.000 
#
# Total GULP energy -144876.517937 kJ/mol
# GULP energy per Si atom -5572.173767 kJ/mol
# Density = 2.373503 g / cm^3
# Si number density = 23.789171 Si / 1000 Ang^3
#
#
#
# Elastic Constant Matrix: (Units=GPa)
#
#
# Indices 1 2 3 4 5 6 
#
# 1 116.5299 0.4487 29.1660 0.0000 -14.2104 0.0000
# 2 0.4487 16.7943 -2.4582 0.0000 6.2557 0.0000
# 3 29.1660 -2.4582 95.7919 0.0000 -12.4044 0.0000
# 4 0.0000 0.0000 0.0000 15.0757 0.0000 -0.3312
# 5 -14.2104 6.2557 -12.4044 0.0000 46.6923 0.0000
# 6 0.0000 0.0000 0.0000 -0.3312 0.0000 14.9796
#
#
#
# Elastic Compliance Matrix: (Units=1/GPa)
#
#
# Indices 1 2 3 4 5 6 
#
# 1 0.009540 -0.001538 -0.002632 0.000000 0.002410 0.000000
# 2 -0.001538 0.062947 0.000964 0.000000 -0.008645 0.000000
# 3 -0.002632 0.000964 0.011542 0.000000 0.002136 0.000000
# 4 0.000000 0.000000 0.000000 0.066364 0.000000 0.001467
# 5 0.002410 -0.008645 0.002136 0.000000 0.023876 0.000000
# 6 0.000000 0.000000 0.000000 0.001467 0.000000 0.066790
#
#
# Mechanical properties :
#
#
# Convention : Reuss Voigt Hill
#
# Bulk Modulus (GPa) = 12.88377 31.49210 22.18794
# Shear Modulus (GPa) = 18.29204 28.81351 23.55277
#
# Velocity S-wave (km/s) = 2.77595 3.48401 3.14994
# Velocity P-wave (km/s) = 3.96259 5.42689 4.75149
#
# Compressibility (1/GPa) = 0.07761701
#
# Stress axis : x y z
#
# Youngs Moduli (GPa) = 104.82066 15.88647 86.63988
#
# Poissons Ratio (x) = 0.02443 0.22804
# Poissons Ratio (y) = 0.16121 -0.08353
# Poissons Ratio (z) = 0.27589 -0.01532
#
# Static dielectric constant tensor:
#      x y z
#    x 1.959580 0.000000 -0.066810 
#    y 0.000000 2.041990 0.000000 
#    z -0.066810 0.000000 1.998670 
# 
# From -- ./inp_files/211050.got.cif
#   From: 2010.05.17/outbox.cif.g08.bks.cpg/sg15_106_cif.got.tgz:211050.got - 2010.06.03 18:47:42.
