data_PCOD9258021
_publ_section_title
;
Structure prediction by ZEFSAII (Michael W. Deem and Ramdas Pophale) SiO2 
 PCOD9258021
Probable space group: C 2/C
;
_chemical_formula_sum "Si O2"
_cell_formula_units_Z 60
_cell_length_a 12.907154
_cell_length_b 16.608191
_cell_length_c 25.775084
_cell_angle_alpha 90.000000
_cell_angle_beta 141.907574
_cell_angle_gamma 90.000000
_cell_volume 3408.710351
_symmetry_space_group_name_H-M "C 2/C"
_symmetry_group_IT_number 15
_symmetry_cell_setting 'monoclinic'
loop_
_space_group_symop_operation_xyz
x,y,z
-x,y,1/2-z
-x,-y,-z
x,-y,1/2+z
1/2+x,1/2+y,z
1/2-x,1/2+y,1/2-z
1/2-x,1/2-y,-z
1/2+x,1/2-y,1/2+z
loop_
_atom_site_type_symbol
_atom_site_label
_atom_site_fract_x
_atom_site_fract_y
_atom_site_fract_z
Si Si1 0.097013 0.789976 0.409793
Si Si2 0.431357 0.432932 0.400069
Si Si3 0.779435 0.423031 0.414008
Si Si4 0.731198 0.993350 0.416786
Si Si5 0.024149 0.643784 0.202513
Si Si6 0.291611 0.450898 0.758923
Si Si7 0.016770 0.532555 0.923798
Si Si8 0.500000 0.535898 0.250000
O O1 0.250000 0.750000 0.500000
O O2 0.181124 0.848505 0.399978
O O3 0.980911 0.843620 0.401612
O O4 0.002266 0.715123 0.347771
O O5 0.288113 0.446556 0.387304
O O6 0.600485 0.471771 0.490476
O O7 0.378531 0.480084 0.327154
O O8 0.873243 0.471937 0.497152
O O9 0.641529 0.479683 0.332089
O O10 0.923211 0.407490 0.426975
O O11 0.609202 0.069629 0.356087
O O12 0.635317 0.940905 0.422908
O O13 0.210031 0.609932 0.267079
O O14 0.000000 0.677096 0.250000
O O15 0.416617 0.417088 0.764773
O O16 0.134120 0.485649 0.664440
#
# Coordination Sequence:
#
# PCOD9258021 Si02
#       8
#     8   8   8   8   8   8   8   4
#     4  12  22  36  54  84 120 150 184 242 303 341
#     4  11  20  34  59  82 115 148 199 235 285 346
#     4  10  19  33  53  83 113 146 181 235 288 341
#     4  10  19  36  57  84 107 149 194 239 281 344
#     4  11  22  35  55  84 118 149 189 244 292 345
#     4  10  19  33  55  81 109 148 192 235 282 338
#     4   9  18  32  54  81 111 140 190 234 275 336
#     4  10  18  32  58  80 104 138 194 240 270 334
#
# _framework density 17.601966000000001
#
# number of rings (size 3 to 8) (size 9 to 14) (size 15 to 20)
#    0.000    1.600    5.333    0.800    0.933    0.000 
#    0.000    0.000    0.000    5.600    0.000    0.000 
#    0.000    0.000    0.000    0.000    0.000    0.000 
#
# Total GULP energy -167079.916209 kJ/mol
# GULP energy per Si atom -5569.330540 kJ/mol
# Density = 1.756190 g / cm^3
# Si number density = 17.601966 Si / 1000 Ang^3
#
#
#
# Elastic Constant Matrix: (Units=GPa)
#
#
# Indices 1 2 3 4 5 6 
#
# 1 164.6686 29.4747 -4.2862 0.0000 -0.8867 0.0000
# 2 29.4747 54.7268 1.5676 0.0000 2.4331 0.0000
# 3 -4.2862 1.5676 54.7733 0.0000 -5.1629 0.0000
# 4 0.0000 0.0000 0.0000 22.8017 0.0000 -4.2799
# 5 -0.8867 2.4331 -5.1629 0.0000 25.1606 0.0000
# 6 0.0000 0.0000 0.0000 -4.2799 0.0000 29.7104
#
#
#
# Elastic Compliance Matrix: (Units=1/GPa)
#
#
# Indices 1 2 3 4 5 6 
#
# 1 0.006756 -0.003692 0.000704 0.000000 0.000740 0.000000
# 2 -0.003692 0.020396 -0.001092 0.000000 -0.002326 0.000000
# 3 0.000704 -0.001092 0.018718 0.000000 0.003971 0.000000
# 4 0.000000 0.000000 0.000000 0.045075 0.000000 0.006493
# 5 0.000740 -0.002326 0.003971 0.000000 0.040811 0.000000
# 6 0.000000 0.000000 0.000000 0.006493 0.000000 0.034594
#
#
# Mechanical properties :
#
#
# Convention : Reuss Voigt Hill
#
# Bulk Modulus (GPa) = 26.51802 36.40898 31.46350
# Shear Modulus (GPa) = 26.72687 32.02870 29.37779
#
# Velocity S-wave (km/s) = 3.90090 4.27032 4.08978
# Velocity P-wave (km/s) = 5.94873 6.71146 6.34157
#
# Compressibility (1/GPa) = 0.03771021
#
# Stress axis : x y z
#
# Youngs Moduli (GPa) = 148.01897 49.03035 53.42522
#
# Poissons Ratio (x) = 0.18100 -0.03761
# Poissons Ratio (y) = 0.54643 0.05833
# Poissons Ratio (z) = -0.10421 0.05354
#
# Static dielectric constant tensor:
#      x y z
#    x 1.674190 0.000000 -0.001180 
#    y 0.000000 1.492350 0.000000 
#    z -0.001180 0.000000 1.594710 
# 
# From -- ./inp_files/270602.got.cif
#   From: 2010.05.17/outbox.cif.g08.bks.cpg/sg15_136_cif.got.tgz:270602.got - 2010.06.03 18:47:42.
