data_PCOD9258211
_publ_section_title
;
Structure prediction by ZEFSAII (Michael W. Deem and Ramdas Pophale) SiO2 
 PCOD9258211
Probable space group: C 2/C
;
_chemical_formula_sum "Si O2"
_cell_formula_units_Z 56
_cell_length_a 22.803588
_cell_length_b 19.123389
_cell_length_c 12.072118
_cell_angle_alpha 90.000000
_cell_angle_beta 30.942683
_cell_angle_gamma 90.000000
_cell_volume 2706.867376
_symmetry_space_group_name_H-M "C 2/C"
_symmetry_group_IT_number 15
_symmetry_cell_setting 'monoclinic'
loop_
_space_group_symop_operation_xyz
x,y,z
-x,y,1/2-z
-x,-y,-z
x,-y,1/2+z
1/2+x,1/2+y,z
1/2-x,1/2+y,1/2-z
1/2-x,1/2-y,-z
1/2+x,1/2-y,1/2+z
loop_
_atom_site_type_symbol
_atom_site_label
_atom_site_fract_x
_atom_site_fract_y
_atom_site_fract_z
Si Si1 0.877632 0.278777 0.889404
Si Si2 0.265449 0.639890 0.725115
Si Si3 0.459191 0.728218 0.517574
Si Si4 0.337304 0.187374 0.833131
Si Si5 0.863675 0.128932 0.977769
Si Si6 0.372524 0.485721 0.911144
Si Si7 0.153125 0.110561 0.247659
O O1 0.819883 0.207326 0.031893
O O2 0.000000 0.288261 0.750000
O O3 0.899813 0.257722 0.725503
O O4 0.801967 0.345233 0.050353
O O5 0.377328 0.688277 0.564446
O O6 0.182492 0.670461 0.764036
O O7 0.306080 0.565938 0.605538
O O8 0.534921 0.791123 0.346735
O O9 0.557614 0.672052 0.392694
O O10 0.250000 0.250000 0.000000
O O11 0.279535 0.127863 0.998912
O O12 0.000000 0.138580 0.750000
O O13 0.826308 0.064093 0.963107
O O14 0.837697 0.097527 0.139149
O O15 0.500000 0.493366 0.750000
O O16 0.385778 0.448798 0.771886
#
# Coordination Sequence:
#
# PCOD9258211 Si02
#       7
#     8   8   8   8   8   8   8
#     4  11  19  35  54  81 108 144 179 221 268 321
#     4  11  21  34  53  81 110 139 186 221 269 318
#     4  11  19  33  53  81 113 141 180 220 270 321
#     4   9  19  31  51  74 108 144 173 223 266 314
#     4  10  20  34  54  75 111 147 169 218 277 326
#     4  10  21  33  51  81 109 139 174 222 271 323
#     4  10  18  33  50  77 106 142 179 214 266 328
#
# _framework density 20.688120999999999
#
# number of rings (size 3 to 8) (size 9 to 14) (size 15 to 20)
#    0.000    1.714    5.714    1.286    0.000    3.429 
#    0.000    0.000    0.000    0.000    3.714    3.000 
#    0.000    0.000    0.000    0.000    0.000    0.000 
#
# Total GULP energy -155894.378999 kJ/mol
# GULP energy per Si atom -5567.656393 kJ/mol
# Density = 2.064103 g / cm^3
# Si number density = 20.688121 Si / 1000 Ang^3
#
#
#
# Elastic Constant Matrix: (Units=GPa)
#
#
# Indices 1 2 3 4 5 6 
#
# 1 36.9265 6.0150 19.9485 0.0000 -3.7354 0.0000
# 2 6.0150 42.5617 18.9923 0.0000 -4.6966 0.0000
# 3 19.9485 18.9923 65.5427 0.0000 10.8046 0.0000
# 4 0.0000 0.0000 0.0000 -4.7769 0.0000 23.9767
# 5 -3.7354 -4.6966 10.8046 0.0000 33.0674 0.0000
# 6 0.0000 0.0000 0.0000 23.9767 0.0000 -70.8283
#
#
#
# Elastic Compliance Matrix: (Units=1/GPa)
#
#
# Indices 1 2 3 4 5 6 
#
# 1 0.034233 0.001485 -0.012177 0.000000 0.008057 0.000000
# 2 0.001485 0.028554 -0.009959 0.000000 0.007477 0.000000
# 3 -0.012177 -0.009959 0.023579 0.000000 -0.010495 0.000000
# 4 0.000000 0.000000 0.000000 0.299432 0.000000 0.101363
# 5 0.008057 0.007477 -0.010495 0.000000 0.035642 0.000000
# 6 0.000000 0.000000 0.000000 0.101363 0.000000 0.020195
#
#
# Mechanical properties :
#
#
# Convention : Reuss Voigt Hill
#
# Bulk Modulus (GPa) = 22.19073 26.10473 24.14773
# Shear Modulus (GPa) = 10.04099 -1.83589 4.10255
#
# Velocity S-wave (km/s) = 2.20546 -0.94305 1.40973
# Velocity P-wave (km/s) = 4.15150 3.38524 3.78780
#
# Compressibility (1/GPa) = 0.04506385
#
# Stress axis : x y z
#
# Youngs Moduli (GPa) = 29.21198 35.02075 42.41000
#
# Poissons Ratio (x) = -0.05201 0.51645
# Poissons Ratio (y) = -0.04338 0.42236
# Poissons Ratio (z) = 0.35573 0.34877
#
# Static dielectric constant tensor:
#      x y z
#    x 1.942600 0.000000 -0.005990 
#    y 0.000000 1.816120 0.000000 
#    z -0.005990 0.000000 1.820620 
# 
# From -- ./inp_files/90326.got.cif
#   From: 2010.05.17/outbox.cif.g08.bks.cpg/sg15_46_cif.got.tgz:90326.got - 2010.06.03 18:47:42.
