data_PCOD9258088
_publ_section_title
;
Structure prediction by ZEFSAII (Michael W. Deem and Ramdas Pophale) SiO2 
 PCOD9258088
Probable space group: C 2/C
;
_chemical_formula_sum "Si O2"
_cell_formula_units_Z 48
_cell_length_a 17.765709
_cell_length_b 8.135102
_cell_length_c 15.248880
_cell_angle_alpha 90.000000
_cell_angle_beta 98.201691
_cell_angle_gamma 90.000000
_cell_volume 2181.316410
_symmetry_space_group_name_H-M "C 2/C"
_symmetry_group_IT_number 15
_symmetry_cell_setting 'monoclinic'
loop_
_space_group_symop_operation_xyz
x,y,z
-x,y,1/2-z
-x,-y,-z
x,-y,1/2+z
1/2+x,1/2+y,z
1/2-x,1/2+y,1/2-z
1/2-x,1/2-y,-z
1/2+x,1/2-y,1/2+z
loop_
_atom_site_type_symbol
_atom_site_label
_atom_site_fract_x
_atom_site_fract_y
_atom_site_fract_z
Si Si1 0.006126 0.806839 0.978123
Si Si2 0.429900 0.438556 0.804687
Si Si3 0.792966 0.257901 0.216050
Si Si4 0.464965 0.807074 0.840215
Si Si5 0.174025 0.500679 0.634778
Si Si6 0.327521 0.150742 0.538215
O O1 0.092454 0.747888 0.967517
O O2 0.950423 0.810160 0.885431
O O3 0.984145 0.707873 0.062848
O O4 0.000000 0.000000 0.000000
O O5 0.500000 0.436340 0.750000
O O6 0.356659 0.379953 0.741154
O O7 0.423544 0.627602 0.834697
O O8 0.788034 0.352304 0.306511
O O9 0.719208 0.162236 0.173206
O O10 0.820201 0.375856 0.141058
O O11 0.500000 0.821732 0.750000
O O12 0.410170 0.959461 0.846669
O O13 0.174147 0.500855 0.529619
O O14 0.250000 0.250000 0.500000
#
# Coordination Sequence:
#
# PCOD9258088 Si02
#       6
#     8   8   8   8   8   8
#     4   9  17  33  56  87 113 146 196 234 281 346
#     4  10  18  32  59  86 108 147 189 230 283 338
#     4  11  21  38  60  82 115 150 192 237 289 347
#     4   9  19  36  56  83 116 147 187 235 287 336
#     4  10  22  39  58  83 112 151 192 236 289 342
#     4   9  19  37  59  83 112 154 189 240 292 342
#
# _framework density 22.00506
#
# number of rings (size 3 to 8) (size 9 to 14) (size 15 to 20)
#    0.000    2.333    1.667    1.000    0.000    2.000 
#    3.000    2.500    0.000    0.000    0.000    0.000 
#    0.000    0.000    0.000    0.000    0.000    0.000 
#
# Total GULP energy -133739.316273 kJ/mol
# GULP energy per Si atom -5572.471511 kJ/mol
# Density = 2.195498 g / cm^3
# Si number density = 22.005060 Si / 1000 Ang^3
#
#
#
# Elastic Constant Matrix: (Units=GPa)
#
#
# Indices 1 2 3 4 5 6 
#
# 1 43.9078 4.5540 3.0331 0.0000 7.5712 0.0000
# 2 4.5540 52.1452 5.8470 0.0000 2.3274 0.0000
# 3 3.0331 5.8470 57.8622 0.0000 12.5979 0.0000
# 4 0.0000 0.0000 0.0000 23.9408 0.0000 18.2644
# 5 7.5712 2.3274 12.5979 0.0000 24.4329 0.0000
# 6 0.0000 0.0000 0.0000 18.2644 0.0000 -1.0172
#
#
#
# Elastic Compliance Matrix: (Units=1/GPa)
#
#
# Indices 1 2 3 4 5 6 
#
# 1 0.024243 -0.001841 0.000577 0.000000 -0.007635 0.000000
# 2 -0.001841 0.019556 -0.001800 0.000000 -0.000364 0.000000
# 3 0.000577 -0.001800 0.019641 0.000000 -0.010134 0.000000
# 4 0.000000 0.000000 0.000000 0.002842 0.000000 0.051026
# 5 -0.007635 -0.000364 -0.010134 0.000000 0.048554 0.000000
# 6 0.000000 0.000000 0.000000 0.051026 0.000000 -0.066885
#
#
# Mechanical properties :
#
#
# Convention : Reuss Voigt Hill
#
# Bulk Modulus (GPa) = 17.44861 20.08704 18.76782
# Shear Modulus (GPa) = 68.32233 18.83671 43.57952
#
# Velocity S-wave (km/s) = 5.57816 2.92895 4.45503
# Velocity P-wave (km/s) = 7.03096 4.53724 5.91696
#
# Compressibility (1/GPa) = 0.05731117
#
# Stress axis : x y z
#
# Youngs Moduli (GPa) = 41.24985 51.13481 50.91492
#
# Poissons Ratio (x) = 0.09415 -0.02940
# Poissons Ratio (y) = 0.07595 0.09167
# Poissons Ratio (z) = -0.02382 0.09206
#
# Static dielectric constant tensor:
#      x y z
#    x 1.815260 0.000000 0.017900 
#    y 0.000000 1.838150 0.000000 
#    z 0.017900 0.000000 1.863520 
# 
# From -- ./inp_files/159736.got.cif
#   From: 2010.05.17/outbox.cif.g08.bks.cpg/sg15_80_cif.got.tgz:159736.got - 2010.06.03 18:47:42.
