data_PCOD9258664
_publ_section_title
;
Structure prediction by ZEFSAII (Michael W. Deem and Ramdas Pophale) SiO2 
 PCOD9258664
Probable space group: C 2/C
;
_chemical_formula_sum "Si O2"
_cell_formula_units_Z 64
_cell_length_a 32.558300
_cell_length_b 13.269065
_cell_length_c 34.167434
_cell_angle_alpha 90.000000
_cell_angle_beta 162.943088
_cell_angle_gamma 90.000000
_cell_volume 4329.704367
_symmetry_space_group_name_H-M "C 2/C"
_symmetry_group_IT_number 15
_symmetry_cell_setting 'monoclinic'
loop_
_space_group_symop_operation_xyz
x,y,z
-x,y,1/2-z
-x,-y,-z
x,-y,1/2+z
1/2+x,1/2+y,z
1/2-x,1/2+y,1/2-z
1/2-x,1/2-y,-z
1/2+x,1/2-y,1/2+z
loop_
_atom_site_type_symbol
_atom_site_label
_atom_site_fract_x
_atom_site_fract_y
_atom_site_fract_z
Si Si1 0.352341 0.842979 0.221460
Si Si2 0.854837 0.632200 0.635128
Si Si3 0.170913 0.061233 0.624302
Si Si4 0.861253 0.874186 0.853070
Si Si5 0.179015 0.641445 0.041737
Si Si6 0.857963 0.359238 0.360216
Si Si7 0.655979 0.623545 0.384884
Si Si8 0.354497 0.953096 0.907540
O O1 0.343897 0.891997 0.170691
O O2 0.271106 0.907809 0.180016
O O3 0.267399 0.738075 0.138050
O O4 0.517350 0.829763 0.383081
O O5 0.735714 0.597747 0.497288
O O6 0.853318 0.754481 0.629197
O O7 0.000000 0.595149 0.750000
O O8 0.224848 0.122577 0.711259
O O9 0.010350 0.091112 0.471281
O O10 0.175357 0.946556 0.643700
O O11 0.873380 0.759554 0.877980
O O12 0.747002 0.893278 0.715020
O O13 0.256656 0.596247 0.074322
O O14 0.178691 0.565783 0.077755
O O15 0.846493 0.429991 0.387735
O O16 0.991426 0.407496 0.459611
O O17 0.500000 0.585612 0.250000
#
# Coordination Sequence:
#
# PCOD9258664 Si02
#       8
#     8   8   8   8   8   8   8   8
#     4  11  21  30  46  65  94 124 158 192 230 268
#     4   9  16  28  41  60  85 123 152 186 224 273
#     4  10  21  32  46  70  91 121 158 194 228 272
#     4  10  20  34  49  65  94 123 155 193 234 272
#     4  11  21  31  44  67  93 125 155 195 227 270
#     4  10  18  34  49  67  89 126 152 191 232 271
#     4   9  18  28  43  61  89 120 156 185 225 276
#     4  10  21  30  49  69  92 118 161 190 225 275
#
# _framework density 14.781609
#
# number of rings (size 3 to 8) (size 9 to 14) (size 15 to 20)
#    0.000    2.000    2.500    2.250    7.000    0.000 
#    0.000    0.000    0.000    0.000    0.000    0.000 
#    0.000    2.000    0.000    0.125    0.000    0.000 
#
# Total GULP energy -178200.838798 kJ/mol
# GULP energy per Si atom -5568.776212 kJ/mol
# Density = 1.474797 g / cm^3
# Si number density = 14.781609 Si / 1000 Ang^3
#
#
#
# Elastic Constant Matrix: (Units=GPa)
#
#
# Indices 1 2 3 4 5 6 
#
# 1 111.1422 28.5465 28.7616 0.0125 -5.2359 0.0009
# 2 28.5465 60.9255 5.2537 0.0007 -8.4964 0.0031
# 3 28.7616 5.2537 84.9656 0.0310 -0.6797 0.0088
# 4 0.0125 0.0007 0.0310 9.3190 0.0039 -1.4885
# 5 -5.2359 -8.4964 -0.6797 0.0039 21.7757 -0.0001
# 6 0.0009 0.0031 0.0088 -1.4885 -0.0001 17.6305
#
#
#
# Elastic Compliance Matrix: (Units=1/GPa)
#
#
# Indices 1 2 3 4 5 6 
#
# 1 0.011173 -0.004839 -0.003477 -0.000003 0.000690 0.000002
# 2 -0.004839 0.019542 0.000481 0.000000 0.006477 -0.000003
# 3 -0.003477 0.000481 0.012915 -0.000040 -0.000245 -0.000010
# 4 -0.000003 0.000000 -0.000040 0.108775 -0.000021 0.009184
# 5 0.000690 0.006477 -0.000245 -0.000021 0.048608 -0.000002
# 6 0.000002 -0.000003 -0.000010 0.009184 -0.000002 0.057495
#
#
# Mechanical properties :
#
#
# Convention : Reuss Voigt Hill
#
# Bulk Modulus (GPa) = 35.76483 42.46189 39.11336
# Shear Modulus (GPa) = 17.63681 22.70979 20.17330
#
# Velocity S-wave (km/s) = 3.45796 3.92389 3.69827
# Velocity P-wave (km/s) = 6.33966 7.02266 6.68988
#
# Compressibility (1/GPa) = 0.02796043
#
# Stress axis : x y z
#
# Youngs Moduli (GPa) = 89.50382 51.17076 77.43015
#
# Poissons Ratio (x) = 0.24761 0.26925
# Poissons Ratio (y) = 0.43310 -0.03728
# Poissons Ratio (z) = 0.31124 -0.02464
#
# Static dielectric constant tensor:
#      x y z
#    x 1.498080 0.000000 0.013180 
#    y 0.000000 1.474160 -0.000010 
#    z 0.013180 -0.000010 1.456200 
# 
# From -- ./inp_files/320323.got.cif
#   From: 2010.05.17/outbox.cif.g08.bks.cpg/sg15_161_cif.got.tgz:320323.got - 2010.06.03 18:47:42.
