data_PCOD9258158
_publ_section_title
;
Structure prediction by ZEFSAII (Michael W. Deem and Ramdas Pophale) SiO2 
 PCOD9258158
Probable space group: C 2/C
;
_chemical_formula_sum "Si O2"
_cell_formula_units_Z 56
_cell_length_a 11.001940
_cell_length_b 8.285439
_cell_length_c 27.361758
_cell_angle_alpha 90.000000
_cell_angle_beta 65.588507
_cell_angle_gamma 90.000000
_cell_volume 2271.207485
_symmetry_space_group_name_H-M "C 2/C"
_symmetry_group_IT_number 15
_symmetry_cell_setting 'monoclinic'
loop_
_space_group_symop_operation_xyz
x,y,z
-x,y,1/2-z
-x,-y,-z
x,-y,1/2+z
1/2+x,1/2+y,z
1/2-x,1/2+y,1/2-z
1/2-x,1/2-y,-z
1/2+x,1/2-y,1/2+z
loop_
_atom_site_type_symbol
_atom_site_label
_atom_site_fract_x
_atom_site_fract_y
_atom_site_fract_z
Si Si1 0.811105 0.881142 0.926941
Si Si2 0.284289 0.024013 0.947185
Si Si3 0.500000 0.417961 0.750000
Si Si4 0.844716 0.659043 0.292256
Si Si5 0.978743 0.634910 0.045218
Si Si6 0.248470 0.801618 0.290127
Si Si7 0.031076 0.142857 0.652570
Si Si8 0.500000 0.500000 0.500000
O O1 0.847070 0.692038 0.917703
O O2 0.676815 0.894719 0.917713
O O3 0.916551 0.014874 0.894581
O O4 0.779906 0.925262 0.988762
O O5 0.402242 0.897847 0.936457
O O6 0.146900 0.966664 0.946303
O O7 0.628456 0.311059 0.716803
O O8 0.483763 0.530550 0.705869
O O9 0.768186 0.769153 0.265446
O O10 0.784116 0.482210 0.299765
O O11 0.000000 0.642372 0.250000
O O12 0.856053 0.743626 0.342771
O O13 0.994187 0.811059 0.019390
O O14 0.000000 0.500000 0.000000
O O15 0.104262 0.763061 0.337355
#
# Coordination Sequence:
#
# PCOD9258158 Si02
#       8
#     8   8   4   8   8   8   8   4
#     4   9  20  37  60  86 114 153 203 245 297 357
#     4   9  18  37  61  84 117 162 193 242 302 357
#     4  12  22  38  64  86 120 162 200 238 310 364
#     4  10  19  35  59  84 109 151 195 235 298 350
#     4   9  18  35  60  85 114 160 197 239 302 354
#     4  11  20  37  62  84 115 158 194 241 298 367
#     4  11  22  39  60  89 119 153 200 260 297 352
#     4  10  18  32  62  90 116 150 206 246 288 366
#
# _framework density 24.656489000000001
#
# number of rings (size 3 to 8) (size 9 to 14) (size 15 to 20)
#    0.000    2.000    4.286    1.286    0.000    1.143 
#    5.143    0.000    3.143    0.000    0.000    0.000 
#    0.000    0.000    0.000    0.000    0.000    0.000 
#
# Total GULP energy -156056.990461 kJ/mol
# GULP energy per Si atom -5573.463945 kJ/mol
# Density = 2.460037 g / cm^3
# Si number density = 24.656489 Si / 1000 Ang^3
#
#
#
# Elastic Constant Matrix: (Units=GPa)
#
#
# Indices 1 2 3 4 5 6 
#
# 1 67.9088 56.9479 19.1154 0.0000 -4.3985 0.0000
# 2 56.9479 116.0561 20.7322 0.0000 -7.3334 0.0000
# 3 19.1154 20.7322 51.5486 0.0000 0.9208 0.0000
# 4 0.0000 0.0000 0.0000 25.7038 0.0000 -6.1594
# 5 -4.3985 -7.3334 0.9208 0.0000 20.6657 0.0000
# 6 0.0000 0.0000 0.0000 -6.1594 0.0000 49.0209
#
#
#
# Elastic Compliance Matrix: (Units=1/GPa)
#
#
# Indices 1 2 3 4 5 6 
#
# 1 0.026164 -0.011852 -0.004964 0.000000 0.001584 0.000000
# 2 -0.011852 0.014907 -0.001651 0.000000 0.002841 0.000000
# 3 -0.004964 -0.001651 0.021951 0.000000 -0.002621 0.000000
# 4 0.000000 0.000000 0.000000 0.040113 0.000000 0.005040
# 5 0.001584 0.002841 -0.002621 0.000000 0.049851 0.000000
# 6 0.000000 0.000000 0.000000 0.005040 0.000000 0.021033
#
#
# Mechanical properties :
#
#
# Convention : Reuss Voigt Hill
#
# Bulk Modulus (GPa) = 38.33179 47.67826 43.00502
# Shear Modulus (GPa) = 22.76371 28.32596 25.54483
#
# Velocity S-wave (km/s) = 3.04177 3.39311 3.22223
# Velocity P-wave (km/s) = 5.28361 5.89321 5.59672
#
# Compressibility (1/GPa) = 0.02608801
#
# Stress axis : x y z
#
# Youngs Moduli (GPa) = 38.21994 67.08462 45.55648
#
# Poissons Ratio (x) = 0.79507 0.22614
# Poissons Ratio (y) = 0.45297 0.07522
# Poissons Ratio (z) = 0.18972 0.11076
#
# Static dielectric constant tensor:
#      x y z
#    x 1.822120 0.000000 0.042520 
#    y 0.000000 1.910180 0.000000 
#    z 0.042520 0.000000 2.012000 
# 
# From -- ./inp_files/310252.got.cif
#   From: 2010.05.17/outbox.cif.g08.bks.cpg/sg15_156_cif.got.tgz:310252.got - 2010.06.03 18:47:42.
