data_PCOD9258225
_publ_section_title
;
Structure prediction by ZEFSAII (Michael W. Deem and Ramdas Pophale) SiO2 
 PCOD9258225
Probable space group: C 2/C
;
_chemical_formula_sum "Si O2"
_cell_formula_units_Z 56
_cell_length_a 16.007341
_cell_length_b 16.635385
_cell_length_c 12.167611
_cell_angle_alpha 90.000000
_cell_angle_beta 110.239304
_cell_angle_gamma 90.000000
_cell_volume 3040.035738
_symmetry_space_group_name_H-M "C 2/C"
_symmetry_group_IT_number 15
_symmetry_cell_setting 'monoclinic'
loop_
_space_group_symop_operation_xyz
x,y,z
-x,y,1/2-z
-x,-y,-z
x,-y,1/2+z
1/2+x,1/2+y,z
1/2-x,1/2+y,1/2-z
1/2-x,1/2-y,-z
1/2+x,1/2-y,1/2+z
loop_
_atom_site_type_symbol
_atom_site_label
_atom_site_fract_x
_atom_site_fract_y
_atom_site_fract_z
Si Si1 0.734027 0.288634 0.874610
Si Si2 0.083223 0.322757 0.664463
Si Si3 0.593928 0.005451 0.101224
Si Si4 0.758510 0.051426 0.020245
Si Si5 0.890720 0.721514 0.074392
Si Si6 0.214675 0.874352 0.432463
Si Si7 0.707470 0.872004 0.262805
O O1 0.831735 0.298342 0.867074
O O2 0.698075 0.378147 0.884435
O O3 0.684565 0.221086 0.779416
O O4 0.750000 0.250000 0.000000
O O5 0.087034 0.418875 0.679306
O O6 0.095250 0.285693 0.789077
O O7 0.987970 0.297552 0.570464
O O8 0.666589 0.029662 0.041896
O O9 0.627654 0.926702 0.179698
O O10 0.500000 0.000000 0.000000
O O11 0.804463 0.964597 0.037391
O O12 0.741013 0.086851 0.891038
O O13 0.850784 0.810243 0.041006
O O14 0.814202 0.658030 0.007275
O O15 0.218598 0.873174 0.300851
#
# Coordination Sequence:
#
# PCOD9258225 Si02
#       7
#     8   8   8   8   8   8   8
#     4   9  18  33  53  76 102 143 191 221 266 334
#     4  10  18  33  51  79 106 144 178 224 279 322
#     4  10  20  31  49  78 114 141 175 226 285 340
#     4   9  19  32  52  77 105 144 187 225 268 335
#     4  10  20  31  53  79 112 141 178 229 274 332
#     4  10  19  34  51  83 110 143 185 228 277 329
#     4  10  18  33  52  73 107 144 183 224 270 334
#
# _framework density 18.420836000000001
#
# number of rings (size 3 to 8) (size 9 to 14) (size 15 to 20)
#    0.000    2.286    1.429    2.571    0.000    1.714 
#    0.000    1.429    0.000    3.429    0.000    4.000 
#    0.000    0.000    0.000    0.000    0.000    0.000 
#
# Total GULP energy -155904.468898 kJ/mol
# GULP energy per Si atom -5568.016746 kJ/mol
# Density = 1.837891 g / cm^3
# Si number density = 18.420836 Si / 1000 Ang^3
#
#
#
# Elastic Constant Matrix: (Units=GPa)
#
#
# Indices 1 2 3 4 5 6 
#
# 1 32.9385 29.3802 14.2640 0.0000 7.0368 0.0000
# 2 29.3802 171.6031 33.5720 0.0000 14.2328 0.0000
# 3 14.2640 33.5720 56.9976 0.0000 -1.4837 0.0000
# 4 0.0000 0.0000 0.0000 30.4026 0.0000 -3.7993
# 5 7.0368 14.2328 -1.4837 0.0000 15.7266 0.0000
# 6 0.0000 0.0000 0.0000 -3.7993 0.0000 18.7015
#
#
#
# Elastic Compliance Matrix: (Units=1/GPa)
#
#
# Indices 1 2 3 4 5 6 
#
# 1 0.040859 -0.004121 -0.008197 0.000000 -0.015326 0.000000
# 2 -0.004121 0.007700 -0.003646 0.000000 -0.005469 0.000000
# 3 -0.008197 -0.003646 0.021979 0.000000 0.009041 0.000000
# 4 0.000000 0.000000 0.000000 0.033749 0.000000 0.006856
# 5 -0.015326 -0.005469 0.009041 0.000000 0.076247 0.000000
# 6 0.000000 0.000000 0.000000 0.006856 0.000000 0.054864
#
#
# Mechanical properties :
#
#
# Convention : Reuss Voigt Hill
#
# Bulk Modulus (GPa) = 25.90019 46.21906 36.05963
# Shear Modulus (GPa) = 17.84462 25.25432 21.54947
#
# Velocity S-wave (km/s) = 3.11580 3.70667 3.42401
# Velocity P-wave (km/s) = 5.19953 6.59275 5.93715
#
# Compressibility (1/GPa) = 0.03860976
#
# Stress axis : x y z
#
# Youngs Moduli (GPa) = 24.47429 129.87264 45.49774
#
# Poissons Ratio (x) = 0.53516 0.37295
# Poissons Ratio (y) = 0.10085 0.16590
# Poissons Ratio (z) = 0.20062 0.47357
#
# Static dielectric constant tensor:
#      x y z
#    x 1.693190 0.000000 -0.001520 
#    y 0.000000 1.782130 0.000000 
#    z -0.001520 0.000000 1.652970 
# 
# From -- ./inp_files/105407.got.cif
#   From: 2010.05.17/outbox.cif.g08.bks.cpg/sg15_53_cif.got.tgz:105407.got - 2010.06.03 18:47:42.
