data_PCOD9258980
_publ_section_title
;
Structure prediction by ZEFSAII (Michael W. Deem and Ramdas Pophale) SiO2 
 PCOD9258980
Probable space group: C 2/C
;
_chemical_formula_sum "Si O2"
_cell_formula_units_Z 48
_cell_length_a 27.691928
_cell_length_b 10.373238
_cell_length_c 15.388258
_cell_angle_alpha 90.000000
_cell_angle_beta 28.263684
_cell_angle_gamma 90.000000
_cell_volume 2093.170127
_symmetry_space_group_name_H-M "C 2/C"
_symmetry_group_IT_number 15
_symmetry_cell_setting 'monoclinic'
loop_
_space_group_symop_operation_xyz
x,y,z
-x,y,1/2-z
-x,-y,-z
x,-y,1/2+z
1/2+x,1/2+y,z
1/2-x,1/2+y,1/2-z
1/2-x,1/2-y,-z
1/2+x,1/2-y,1/2+z
loop_
_atom_site_type_symbol
_atom_site_label
_atom_site_fract_x
_atom_site_fract_y
_atom_site_fract_z
Si Si1 0.954887 0.753582 0.465014
Si Si2 0.233870 0.643874 0.831179
Si Si3 0.480768 0.873572 0.470223
Si Si4 0.265695 0.107878 0.367455
Si Si5 0.111937 0.466966 0.658458
Si Si6 0.913779 0.973800 0.947296
O O1 0.840209 0.704234 0.624877
O O2 0.983647 0.739834 0.521278
O O3 0.960900 0.898919 0.419553
O O4 0.032238 0.654166 0.293569
O O5 0.233298 0.743857 0.913113
O O6 0.346558 0.609038 0.620862
O O7 0.172178 0.527662 0.973255
O O8 0.360374 0.884132 0.650266
O O9 0.500000 0.000000 0.500000
O O10 0.548383 0.903876 0.280169
O O11 0.308621 0.053648 0.388497
O O12 0.173901 0.025335 0.477808
O O13 0.000000 0.911520 0.750000
#
# Coordination Sequence:
#
# PCOD9258980 Si02
#       6
#     8   8   8   8   8   8
#     4   9  18  35  57  76 100 134 174 209 251 303
#     4  11  20  32  53  81 104 134 171 209 255 305
#     4   8  16  33  56  78  99 129 170 216 250 290
#     4   9  19  36  54  73 104 137 171 207 251 305
#     4  10  18  34  58  80  99 130 174 217 250 295
#     4  11  22  36  51  74 106 140 171 208 253 304
#
# _framework density 22.931723999999999
#
# number of rings (size 3 to 8) (size 9 to 14) (size 15 to 20)
#    0.000    2.667    0.000    6.000    0.000    1.333 
#    0.000   11.667    0.000    0.000    0.000    1.167 
#    0.000    0.000    0.000    0.000    0.000    0.000 
#
# Total GULP energy -133821.895627 kJ/mol
# GULP energy per Si atom -5575.912318 kJ/mol
# Density = 2.287953 g / cm^3
# Si number density = 22.931724 Si / 1000 Ang^3
#
#
#
# Elastic Constant Matrix: (Units=GPa)
#
#
# Indices 1 2 3 4 5 6 
#
# 1 69.4369 12.0876 27.8781 0.0000 -9.6681 0.0000
# 2 12.0876 26.9176 13.8855 0.0000 -0.0154 0.0000
# 3 27.8781 13.8855 131.2355 0.0000 1.0627 0.0000
# 4 0.0000 0.0000 0.0000 17.7617 0.0000 -7.4108
# 5 -9.6681 -0.0154 1.0627 0.0000 31.5771 0.0000
# 6 0.0000 0.0000 0.0000 -7.4108 0.0000 14.4909
#
#
#
# Elastic Compliance Matrix: (Units=1/GPa)
#
#
# Indices 1 2 3 4 5 6 
#
# 1 0.017494 -0.006254 -0.003099 0.000000 0.005458 0.000000
# 2 -0.006254 0.041532 -0.003051 0.000000 -0.001792 0.000000
# 3 -0.003099 -0.003051 0.008611 0.000000 -0.001240 0.000000
# 4 0.000000 0.000000 0.000000 0.071573 0.000000 0.036603
# 5 0.005458 -0.001792 -0.001240 0.000000 0.033380 0.000000
# 6 0.000000 0.000000 0.000000 0.036603 0.000000 0.087728
#
#
# Mechanical properties :
#
#
# Convention : Reuss Voigt Hill
#
# Bulk Modulus (GPa) = 23.34883 37.25471 30.30177
# Shear Modulus (GPa) = 16.69984 24.34851 20.52418
#
# Velocity S-wave (km/s) = 2.70152 3.26204 2.99492
# Velocity P-wave (km/s) = 4.46486 5.51988 5.02016
#
# Compressibility (1/GPa) = 0.04282870
#
# Stress axis : x y z
#
# Youngs Moduli (GPa) = 57.16137 24.07781 116.13019
#
# Poissons Ratio (x) = 0.15059 0.35986
# Poissons Ratio (y) = 0.35751 0.35434
# Poissons Ratio (z) = 0.17713 0.07347
#
# Static dielectric constant tensor:
#      x y z
#    x 1.899300 0.000000 0.039860 
#    y 0.000000 1.966590 0.000000 
#    z 0.039860 0.000000 1.974730 
# 
# From -- ./inp_files/177746.got.cif
#   From: 2010.05.17/outbox.cif.g08.bks.cpg/sg15_89_cif.got.tgz:177746.got - 2010.06.03 18:47:42.
