data_PCOD9258489
_publ_section_title
;
Structure prediction by ZEFSAII (Michael W. Deem and Ramdas Pophale) SiO2 
 PCOD9258489
Probable space group: C 2/C
;
_chemical_formula_sum "Si O2"
_cell_formula_units_Z 48
_cell_length_a 22.743334
_cell_length_b 9.571424
_cell_length_c 9.177600
_cell_angle_alpha 90.000000
_cell_angle_beta 89.362545
_cell_angle_gamma 90.000000
_cell_volume 1997.712240
_symmetry_space_group_name_H-M "C 2/C"
_symmetry_group_IT_number 15
_symmetry_cell_setting 'monoclinic'
loop_
_space_group_symop_operation_xyz
x,y,z
-x,y,1/2-z
-x,-y,-z
x,-y,1/2+z
1/2+x,1/2+y,z
1/2-x,1/2+y,1/2-z
1/2-x,1/2-y,-z
1/2+x,1/2-y,1/2+z
loop_
_atom_site_type_symbol
_atom_site_label
_atom_site_fract_x
_atom_site_fract_y
_atom_site_fract_z
Si Si1 0.650262 0.799255 0.998909
Si Si2 0.303316 0.427657 0.220987
Si Si3 0.870156 0.783963 0.446569
Si Si4 0.429566 0.262920 0.740960
Si Si5 0.230800 0.432489 0.507823
Si Si6 0.068006 0.572221 0.262406
O O1 0.616878 0.712295 0.125675
O O2 0.691294 0.929475 0.042988
O O3 0.688975 0.701732 0.891121
O O4 0.598214 0.864994 0.903948
O O5 0.359266 0.403746 0.325880
O O6 0.250831 0.436977 0.340116
O O7 0.286895 0.552747 0.112954
O O8 0.903751 0.824479 0.592106
O O9 0.808190 0.703119 0.466169
O O10 0.905915 0.657172 0.372533
O O11 0.500000 0.295330 0.750000
O O12 0.423979 0.093746 0.734086
O O13 0.000000 0.599219 0.250000
#
# Coordination Sequence:
#
# PCOD9258489 Si02
#       6
#     8   8   8   8   8   8
#     4  11  22  38  59  91 126 163 200 246 303 368
#     4  11  26  38  60  83 119 168 215 250 298 350
#     4  11  22  38  59  91 126 163 200 246 303 368
#     4  11  20  35  62  95 128 158 183 242 323 386
#     4  12  22  42  57  86 127 166 206 258 290 350
#     4  10  18  33  57  90 126 162 188 234 309 380
#
# _framework density 24.027484000000001
#
# number of rings (size 3 to 8) (size 9 to 14) (size 15 to 20)
#    0.000    1.000    3.333    5.000    0.000    4.000 
#    0.000    0.000    0.000    0.000    0.000   58.333 
#    0.000    0.000    0.000    0.000    0.000    0.000 
#
# Total GULP energy -134124.875045 kJ/mol
# GULP energy per Si atom -5588.536460 kJ/mol
# Density = 2.397280 g / cm^3
# Si number density = 24.027484 Si / 1000 Ang^3
#
#
#
# Elastic Constant Matrix: (Units=GPa)
#
#
# Indices 1 2 3 4 5 6 
#
# 1 114.4967 61.5732 55.6096 0.0000 26.9233 0.0000
# 2 61.5732 82.9189 30.2648 0.0000 -2.7124 0.0000
# 3 55.6096 30.2648 153.6512 0.0000 8.4273 0.0000
# 4 0.0000 0.0000 0.0000 32.6604 0.0000 10.2361
# 5 26.9233 -2.7124 8.4273 0.0000 40.0303 0.0000
# 6 0.0000 0.0000 0.0000 10.2361 0.0000 4.0257
#
#
#
# Elastic Compliance Matrix: (Units=1/GPa)
#
#
# Indices 1 2 3 4 5 6 
#
# 1 0.023322 -0.016242 -0.004371 0.000000 -0.015866 0.000000
# 2 -0.016242 0.024387 0.000389 0.000000 0.012494 0.000000
# 3 -0.004371 0.000389 0.007943 0.000000 0.001294 0.000000
# 4 0.000000 0.000000 0.000000 0.150762 0.000000 -0.383344
# 5 -0.015866 0.012494 0.001294 0.000000 0.036226 0.000000
# 6 0.000000 0.000000 0.000000 -0.383344 0.000000 1.223139
#
#
# Mechanical properties :
#
#
# Convention : Reuss Voigt Hill
#
# Bulk Modulus (GPa) = 65.77033 71.77356 68.77195
# Shear Modulus (GPa) = 3.30842 28.91788 16.11315
#
# Velocity S-wave (km/s) = 1.17470 3.47296 2.59243
# Velocity P-wave (km/s) = 5.41039 6.78367 6.13557
#
# Compressibility (1/GPa) = 0.01520442
#
# Stress axis : x y z
#
# Youngs Moduli (GPa) = 42.87732 41.00491 125.90225
#
# Poissons Ratio (x) = 0.66600 0.55038
# Poissons Ratio (y) = 0.69641 -0.04903
# Poissons Ratio (z) = 0.18744 -0.01597
#
# Static dielectric constant tensor:
#      x y z
#    x 1.956310 0.000000 -0.071780 
#    y 0.000000 1.918200 0.000000 
#    z -0.071780 0.000000 1.991150 
# 
# From -- ./inp_files/60605.got.cif
#   From: 2010.05.17/outbox.cif.g08.bks.cpg/sg15_31_cif.got.tgz:60605.got - 2010.06.03 18:47:42.
