data_PCOD9258865
_publ_section_title
;
Structure prediction by ZEFSAII (Michael W. Deem and Ramdas Pophale) SiO2 
 PCOD9258865
Probable space group: C 2/C
;
_chemical_formula_sum "Si O2"
_cell_formula_units_Z 52
_cell_length_a 5.661152
_cell_length_b 29.985705
_cell_length_c 17.236652
_cell_angle_alpha 90.000000
_cell_angle_beta 51.209674
_cell_angle_gamma 90.000000
_cell_volume 2280.640189
_symmetry_space_group_name_H-M "C 2/C"
_symmetry_group_IT_number 15
_symmetry_cell_setting 'monoclinic'
loop_
_space_group_symop_operation_xyz
x,y,z
-x,y,1/2-z
-x,-y,-z
x,-y,1/2+z
1/2+x,1/2+y,z
1/2-x,1/2+y,1/2-z
1/2-x,1/2-y,-z
1/2+x,1/2-y,1/2+z
loop_
_atom_site_type_symbol
_atom_site_label
_atom_site_fract_x
_atom_site_fract_y
_atom_site_fract_z
Si Si1 0.942677 0.082694 0.855030
Si Si2 0.127577 0.012782 0.312116
Si Si3 0.208568 0.195341 0.100604
Si Si4 0.779840 0.848863 0.494517
Si Si5 0.836036 0.890409 0.645494
Si Si6 0.632352 0.794502 0.112388
Si Si7 0.500000 0.861226 0.250000
O O1 0.238125 0.106113 0.830329
O O2 0.000000 0.083737 0.750000
O O3 0.697140 0.117101 0.940876
O O4 0.955541 0.031441 0.878158
O O5 0.500000 0.007100 0.250000
O O6 0.036149 0.060319 0.365978
O O7 0.000000 0.015329 0.250000
O O8 0.075202 0.243515 0.145936
O O9 0.996223 0.152611 0.149853
O O10 0.509801 0.181722 0.083148
O O11 0.334539 0.200575 0.986268
O O12 0.853921 0.880829 0.550795
O O13 0.045235 0.813348 0.422156
O O14 0.500000 0.892019 0.750000
O O15 0.403896 0.828462 0.200213
#
# Coordination Sequence:
#
# PCOD9258865 Si02
#       7
#     8   8   8   8   8   8   4
#     4  10  20  37  62  88 118 158 201 258 316 375
#     4  10  22  41  65  93 126 169 209 261 321 375
#     4  10  20  38  57  81 120 161 199 259 307 375
#     4  10  21  37  60  89 119 159 206 253 315 374
#     4  10  24  39  59  85 120 161 210 255 311 373
#     4   9  20  35  55  86 119 155 202 249 313 369
#     4  10  18  34  56  84 116 152 198 256 304 380
#
# _framework density 22.800613999999999
#
# number of rings (size 3 to 8) (size 9 to 14) (size 15 to 20)
#    0.000    2.154    0.769    1.385    4.308    1.846 
#    0.000    4.615    0.000    0.000    0.000    0.000 
#    0.000    0.000    0.000    0.000    0.000    0.000 
#
# Total GULP energy -144804.848364 kJ/mol
# GULP energy per Si atom -5569.417245 kJ/mol
# Density = 2.274872 g / cm^3
# Si number density = 22.800614 Si / 1000 Ang^3
#
#
#
# Elastic Constant Matrix: (Units=GPa)
#
#
# Indices 1 2 3 4 5 6 
#
# 1 46.9561 17.1019 -0.9035 0.0000 8.5033 0.0000
# 2 17.1019 201.8495 10.2792 0.0000 4.1543 0.0000
# 3 -0.9035 10.2792 49.3592 0.0000 13.7493 0.0000
# 4 0.0000 0.0000 0.0000 40.0474 0.0000 2.4299
# 5 8.5033 4.1543 13.7493 0.0000 23.1711 0.0000
# 6 0.0000 0.0000 0.0000 2.4299 0.0000 24.2691
#
#
#
# Elastic Compliance Matrix: (Units=1/GPa)
#
#
# Indices 1 2 3 4 5 6 
#
# 1 0.024051 -0.002013 0.003855 0.000000 -0.010753 0.000000
# 2 -0.002013 0.005178 -0.001273 0.000000 0.000565 0.000000
# 3 0.003855 -0.001273 0.025069 0.000000 -0.016062 0.000000
# 4 0.000000 0.000000 0.000000 0.025123 0.000000 -0.002515
# 5 -0.010753 0.000565 -0.016062 0.000000 0.056533 0.000000
# 6 0.000000 0.000000 0.000000 -0.002515 0.000000 0.041456
#
#
# Mechanical properties :
#
#
# Convention : Reuss Voigt Hill
#
# Bulk Modulus (GPa) = 18.03860 39.01333 28.52597
# Shear Modulus (GPa) = 25.67379 35.61000 30.64190
#
# Velocity S-wave (km/s) = 3.35925 3.95625 3.66991
# Velocity P-wave (km/s) = 4.79320 6.16579 5.52231
#
# Compressibility (1/GPa) = 0.05543667
#
# Stress axis : x y z
#
# Youngs Moduli (GPa) = 41.57850 193.12885 39.88914
#
# Poissons Ratio (x) = 0.38872 -0.15376
# Poissons Ratio (y) = 0.08369 0.05077
# Poissons Ratio (z) = -0.16027 0.24579
#
# Static dielectric constant tensor:
#      x y z
#    x 1.942300 0.000000 -0.036230 
#    y 0.000000 1.825800 0.000000 
#    z -0.036230 0.000000 2.057910 
# 
# From -- ./inp_files/130711.got.cif
#   From: 2010.05.17/outbox.cif.g08.bks.cpg/sg15_66_cif.got.tgz:130711.got - 2010.06.03 18:47:42.
