data_PCOD9258247
_publ_section_title
;
Structure prediction by ZEFSAII (Michael W. Deem and Ramdas Pophale) SiO2 
 PCOD9258247
Probable space group: C 2/C
;
_chemical_formula_sum "Si O2"
_cell_formula_units_Z 64
_cell_length_a 8.067181
_cell_length_b 21.559564
_cell_length_c 23.654546
_cell_angle_alpha 90.000000
_cell_angle_beta 122.508229
_cell_angle_gamma 90.000000
_cell_volume 3469.491601
_symmetry_space_group_name_H-M "C 2/C"
_symmetry_group_IT_number 15
_symmetry_cell_setting 'monoclinic'
loop_
_space_group_symop_operation_xyz
x,y,z
-x,y,1/2-z
-x,-y,-z
x,-y,1/2+z
1/2+x,1/2+y,z
1/2-x,1/2+y,1/2-z
1/2-x,1/2-y,-z
1/2+x,1/2-y,1/2+z
loop_
_atom_site_type_symbol
_atom_site_label
_atom_site_fract_x
_atom_site_fract_y
_atom_site_fract_z
Si Si1 0.184866 0.200934 0.405759
Si Si2 0.822373 0.157891 0.824882
Si Si3 0.516367 0.896627 0.530169
Si Si4 0.479678 0.690556 0.002794
Si Si5 0.693822 0.011307 0.971175
Si Si6 0.056745 0.698427 0.675315
Si Si7 0.060291 0.935085 0.076548
Si Si8 0.740738 0.201742 0.583501
O O1 0.324517 0.146808 0.410583
O O2 0.323546 0.259555 0.448886
O O3 0.094994 0.176438 0.447923
O O4 0.015148 0.229718 0.335955
O O5 0.728981 0.176606 0.748255
O O6 0.639960 0.165540 0.835760
O O7 0.897256 0.088619 0.852715
O O8 0.023943 0.196982 0.869417
O O9 0.601085 0.934722 0.491967
O O10 0.351595 0.851040 0.473818
O O11 0.440280 0.950697 0.556315
O O12 0.675120 0.731415 0.047442
O O13 0.488602 0.627437 0.969119
O O14 0.754581 0.036060 0.921550
O O15 0.887287 0.984645 0.038384
O O16 0.130929 0.691203 0.624163
#
# Coordination Sequence:
#
# PCOD9258247 Si02
#       8
#     8   8   8   8   8   8   8   8
#     4   9  16  31  53  78 112 143 172 228 290 338
#     4  11  21  34  52  81 113 148 188 226 284 336
#     4  10  18  33  52  82 111 148 180 226 291 340
#     4   9  17  29  53  79 113 140 168 230 302 330
#     4  10  21  30  50  78 119 147 180 221 280 339
#     4  10  21  34  53  80 113 145 181 234 285 331
#     4  11  19  34  48  79 120 139 185 234 275 341
#     4  10  20  35  56  82 117 141 182 235 293 346
#
# _framework density 18.446507
#
# number of rings (size 3 to 8) (size 9 to 14) (size 15 to 20)
#    0.000    2.000    3.750    1.875    0.000    1.500 
#    0.000    0.000    0.000    0.000    0.000   22.750 
#    0.000    0.000    0.000    0.000    0.000    0.000 
#
# Total GULP energy -178199.368732 kJ/mol
# GULP energy per Si atom -5568.730273 kJ/mol
# Density = 1.840452 g / cm^3
# Si number density = 18.446507 Si / 1000 Ang^3
#
#
#
# Elastic Constant Matrix: (Units=GPa)
#
#
# Indices 1 2 3 4 5 6 
#
# 1 78.9234 19.2972 15.0272 0.0000 7.9062 0.0000
# 2 19.2972 78.9502 30.2578 0.0000 6.5867 0.0000
# 3 15.0272 30.2578 72.3442 0.0000 7.0279 0.0000
# 4 0.0000 0.0000 0.0000 22.2227 0.0000 5.1952
# 5 7.9062 6.5867 7.0279 0.0000 24.1269 0.0000
# 6 0.0000 0.0000 0.0000 5.1952 0.0000 33.4865
#
#
#
# Elastic Compliance Matrix: (Units=1/GPa)
#
#
# Indices 1 2 3 4 5 6 
#
# 1 0.013921 -0.002543 -0.001494 0.000000 -0.003432 0.000000
# 2 -0.002543 0.015679 -0.005860 0.000000 -0.001740 0.000000
# 3 -0.001494 -0.005860 0.016858 0.000000 -0.002821 0.000000
# 4 0.000000 0.000000 0.000000 0.046693 0.000000 -0.007244
# 5 -0.003432 -0.001740 -0.002821 0.000000 0.043869 0.000000
# 6 0.000000 0.000000 0.000000 -0.007244 0.000000 0.030987
#
#
# Mechanical properties :
#
#
# Convention : Reuss Voigt Hill
#
# Bulk Modulus (GPa) = 37.50701 39.93134 38.71918
# Shear Modulus (GPa) = 25.42072 27.00959 26.21516
#
# Velocity S-wave (km/s) = 3.71627 3.83065 3.77390
# Velocity P-wave (km/s) = 6.22826 6.42334 6.32655
#
# Compressibility (1/GPa) = 0.02666168
#
# Stress axis : x y z
#
# Youngs Moduli (GPa) = 71.83515 63.77937 59.31781
#
# Poissons Ratio (x) = 0.16222 0.08864
# Poissons Ratio (y) = 0.18271 0.34762
# Poissons Ratio (z) = 0.10735 0.37377
#
# Static dielectric constant tensor:
#      x y z
#    x 1.725680 0.000000 0.016370 
#    y 0.000000 1.639460 0.000000 
#    z 0.016370 0.000000 1.654070 
# 
# From -- ./inp_files/289995.got.cif
#   From: 2010.05.17/outbox.cif.g08.bks.cpg/sg15_145_cif.got.tgz:289995.got - 2010.06.03 18:47:42.
