data_PCOD9258290
_publ_section_title
;
Structure prediction by ZEFSAII (Michael W. Deem and Ramdas Pophale) SiO2 
 PCOD9258290
Probable space group: C 2/C
;
_chemical_formula_sum "Si O2"
_cell_formula_units_Z 64
_cell_length_a 15.447881
_cell_length_b 12.217383
_cell_length_c 15.408243
_cell_angle_alpha 90.000000
_cell_angle_beta 57.812273
_cell_angle_gamma 90.000000
_cell_volume 2461.094588
_symmetry_space_group_name_H-M "C 2/C"
_symmetry_group_IT_number 15
_symmetry_cell_setting 'monoclinic'
loop_
_space_group_symop_operation_xyz
x,y,z
-x,y,1/2-z
-x,-y,-z
x,-y,1/2+z
1/2+x,1/2+y,z
1/2-x,1/2+y,1/2-z
1/2-x,1/2-y,-z
1/2+x,1/2-y,1/2+z
loop_
_atom_site_type_symbol
_atom_site_label
_atom_site_fract_x
_atom_site_fract_y
_atom_site_fract_z
Si Si1 0.020592 0.715319 0.526182
Si Si2 0.156724 0.393378 0.124720
Si Si3 0.086008 0.913494 0.834640
Si Si4 0.640287 0.800761 0.749759
Si Si5 0.942440 0.531186 0.656599
Si Si6 0.517770 0.641601 0.626022
Si Si7 0.747277 0.315627 0.640646
Si Si8 0.209920 0.917728 0.949334
O O1 0.949158 0.606161 0.567095
O O2 0.009552 0.792715 0.448790
O O3 0.140129 0.677132 0.463134
O O4 0.975482 0.797736 0.624582
O O5 0.050732 0.434540 0.141024
O O6 0.182436 0.267159 0.117975
O O7 0.249573 0.465694 0.039683
O O8 0.145291 0.426195 0.232670
O O9 0.171240 0.911052 0.712759
O O10 0.143719 0.932742 0.896027
O O11 0.010761 0.014211 0.861951
O O12 0.567848 0.699970 0.769995
O O13 0.723248 0.770260 0.778340
O O14 0.693252 0.849287 0.636439
O O15 0.575727 0.901830 0.827799
O O16 0.640091 0.641995 0.556334
#
# Coordination Sequence:
#
# PCOD9258290 Si02
#       8
#     8   8   8   8   8   8   8   8
#     4  10  19  34  56  84 114 148 190 241 291 342
#     4  10  19  36  58  82 110 154 195 234 283 352
#     4  10  18  33  53  83 115 144 184 242 291 342
#     4   9  20  35  52  84 115 147 189 240 289 341
#     4  10  21  36  56  82 117 151 191 239 287 340
#     4  10  19  33  54  82 116 149 185 238 295 341
#     4  10  19  32  54  84 111 146 189 239 291 333
#     4   9  17  32  55  80 105 152 191 225 279 349
#
# _framework density 26.004688999999999
#
# number of rings (size 3 to 8) (size 9 to 14) (size 15 to 20)
#    0.000    2.250    1.250    3.750    0.000    2.500 
#    2.250    0.625    0.000    0.000   13.000    0.000 
#    0.000    0.000    0.000    0.000    0.000    0.000 
#
# Total GULP energy -178615.316779 kJ/mol
# GULP energy per Si atom -5581.728649 kJ/mol
# Density = 2.594550 g / cm^3
# Si number density = 26.004689 Si / 1000 Ang^3
#
#
#
# Elastic Constant Matrix: (Units=GPa)
#
#
# Indices 1 2 3 4 5 6 
#
# 1 52.9263 9.4089 -6.8703 0.0000 -9.5944 0.0000
# 2 9.4089 116.9151 28.4588 0.0000 -22.2544 0.0000
# 3 -6.8703 28.4588 127.0005 0.0000 -21.6818 0.0000
# 4 0.0000 0.0000 0.0000 39.5039 0.0000 -16.9971
# 5 -9.5944 -22.2544 -21.6818 0.0000 30.0243 0.0000
# 6 0.0000 0.0000 0.0000 -16.9971 0.0000 19.2403
#
#
#
# Elastic Compliance Matrix: (Units=1/GPa)
#
#
# Indices 1 2 3 4 5 6 
#
# 1 0.020832 -0.000806 0.002671 0.000000 0.007989 0.000000
# 2 -0.000806 0.010128 -0.001227 0.000000 0.006363 0.000000
# 3 0.002671 -0.001227 0.009449 0.000000 0.006768 0.000000
# 4 0.000000 0.000000 0.000000 0.040836 0.000000 0.036075
# 5 0.007989 0.006363 0.006768 0.000000 0.045463 0.000000
# 6 0.000000 0.000000 0.000000 0.036075 0.000000 0.083843
#
#
# Mechanical properties :
#
#
# Convention : Reuss Voigt Hill
#
# Bulk Modulus (GPa) = 23.98865 39.87072 31.92969
# Shear Modulus (GPa) = 22.40451 35.47666 28.94059
#
# Velocity S-wave (km/s) = 2.93841 3.69757 3.33963
# Velocity P-wave (km/s) = 4.55600 5.79610 5.21306
#
# Compressibility (1/GPa) = 0.04168637
#
# Stress axis : x y z
#
# Youngs Moduli (GPa) = 48.00196 98.73651 105.83353
#
# Poissons Ratio (x) = 0.07960 -0.28273
# Poissons Ratio (y) = 0.03870 0.12983
# Poissons Ratio (z) = -0.12824 0.12112
#
# Static dielectric constant tensor:
#      x y z
#    x 2.082710 0.000000 0.093230 
#    y 0.000000 2.007990 0.000000 
#    z 0.093230 0.000000 2.155190 
# 
# From -- ./inp_files/279882.got.cif
#   From: 2010.05.17/outbox.cif.g08.bks.cpg/sg15_140_cif.got.tgz:279882.got - 2010.06.03 18:47:42.
