data_PCOD9258791
_publ_section_title
;
Structure prediction by ZEFSAII (Michael W. Deem and Ramdas Pophale) SiO2 
 PCOD9258791
Probable space group: C 2/C
;
_chemical_formula_sum "Si O2"
_cell_formula_units_Z 56
_cell_length_a 9.096048
_cell_length_b 26.538627
_cell_length_c 13.269616
_cell_angle_alpha 90.000000
_cell_angle_beta 129.253708
_cell_angle_gamma 90.000000
_cell_volume 2480.434727
_symmetry_space_group_name_H-M "C 2/C"
_symmetry_group_IT_number 15
_symmetry_cell_setting 'monoclinic'
loop_
_space_group_symop_operation_xyz
x,y,z
-x,y,1/2-z
-x,-y,-z
x,-y,1/2+z
1/2+x,1/2+y,z
1/2-x,1/2+y,1/2-z
1/2-x,1/2-y,-z
1/2+x,1/2-y,1/2+z
loop_
_atom_site_type_symbol
_atom_site_label
_atom_site_fract_x
_atom_site_fract_y
_atom_site_fract_z
Si Si1 0.312970 0.564677 0.049574
Si Si2 0.198999 0.222932 0.633091
Si Si3 0.180123 0.472668 0.690533
Si Si4 0.615648 0.913789 0.156343
Si Si5 0.991377 0.696206 0.580146
Si Si6 0.038442 0.876731 0.058594
Si Si7 0.253450 0.459293 0.958268
O O1 0.287931 0.562906 0.158436
O O2 0.435989 0.606022 0.046402
O O3 0.370349 0.508087 0.044375
O O4 0.098635 0.568634 0.910729
O O5 0.334368 0.199029 0.602954
O O6 0.328958 0.224154 0.789159
O O7 0.030937 0.182431 0.571048
O O8 0.110009 0.274351 0.554172
O O9 0.205713 0.531240 0.669875
O O10 0.227775 0.465186 0.827256
O O11 0.956902 0.458994 0.586564
O O12 0.559398 0.860023 0.080112
O O13 0.767697 0.893888 0.302772
O O14 0.867261 0.908670 0.029821
#
# Coordination Sequence:
#
# PCOD9258791 Si02
#       7
#     8   8   8   8   8   8   8
#     4  11  20  36  55  82 114 154 192 229 275 348
#     4   9  18  32  53  81 113 144 192 237 301 346
#     4  10  22  37  56  79 118 157 196 224 282 346
#     4  10  18  34  55  75 110 160 182 224 289 346
#     4   9  17  32  53  77 112 150 184 238 295 347
#     4  11  20  34  58  82 115 150 190 234 291 337
#     4  10  21  37  52  79 119 151 187 237 277 335
#
# _framework density 22.576688000000001
#
# number of rings (size 3 to 8) (size 9 to 14) (size 15 to 20)
#    0.000    2.000    2.857    2.571    0.000    0.571 
#    2.571    3.571    0.000    0.000    0.000    4.000 
#    0.000    0.000    0.000    0.000    0.000    0.000 
#
# Total GULP energy -156124.172516 kJ/mol
# GULP energy per Si atom -5575.863304 kJ/mol
# Density = 2.252530 g / cm^3
# Si number density = 22.576688 Si / 1000 Ang^3
#
#
#
# Elastic Constant Matrix: (Units=GPa)
#
#
# Indices 1 2 3 4 5 6 
#
# 1 44.5366 17.3835 16.8276 0.0000 4.6996 0.0000
# 2 17.3835 100.8493 38.6780 0.0000 20.9779 0.0000
# 3 16.8276 38.6780 57.7242 0.0000 3.2231 0.0000
# 4 0.0000 0.0000 0.0000 37.1724 0.0000 7.2167
# 5 4.6996 20.9779 3.2231 0.0000 17.2139 0.0000
# 6 0.0000 0.0000 0.0000 7.2167 0.0000 23.6780
#
#
#
# Elastic Compliance Matrix: (Units=1/GPa)
#
#
# Indices 1 2 3 4 5 6 
#
# 1 0.025819 -0.000932 -0.006642 0.000000 -0.004670 0.000000
# 2 -0.000932 0.018503 -0.010996 0.000000 -0.020236 0.000000
# 3 -0.006642 -0.010996 0.026051 0.000000 0.010336 0.000000
# 4 0.000000 0.000000 0.000000 0.028594 0.000000 -0.008715
# 5 -0.004670 -0.020236 0.010336 0.000000 0.082092 0.000000
# 6 0.000000 0.000000 0.000000 -0.008715 0.000000 0.044889
#
#
# Mechanical properties :
#
#
# Convention : Reuss Voigt Hill
#
# Bulk Modulus (GPa) = 30.09019 38.76537 34.42778
# Shear Modulus (GPa) = 18.23710 24.29426 21.26568
#
# Velocity S-wave (km/s) = 2.84524 3.28392 3.07242
# Velocity P-wave (km/s) = 4.91434 5.62020 5.27908
#
# Compressibility (1/GPa) = 0.03323343
#
# Stress axis : x y z
#
# Youngs Moduli (GPa) = 38.73054 54.04524 38.38646
#
# Poissons Ratio (x) = 0.05037 0.25495
# Poissons Ratio (y) = 0.03609 0.42211
# Poissons Ratio (z) = 0.25723 0.59430
#
# Static dielectric constant tensor:
#      x y z
#    x 1.909440 0.000000 -0.006490 
#    y 0.000000 1.837920 0.000000 
#    z -0.006490 0.000000 1.876390 
# 
# From -- ./inp_files/139571.got.cif
#   From: 2010.05.17/outbox.cif.g08.bks.cpg/sg15_70_cif.got.tgz:139571.got - 2010.06.03 18:47:42.
