data_PCOD9258258
_publ_section_title
;
Structure prediction by ZEFSAII (Michael W. Deem and Ramdas Pophale) SiO2 
 PCOD9258258
Probable space group: C 2/C
;
_chemical_formula_sum "Si O2"
_cell_formula_units_Z 56
_cell_length_a 12.442166
_cell_length_b 19.216963
_cell_length_c 12.988199
_cell_angle_alpha 90.000000
_cell_angle_beta 58.551598
_cell_angle_gamma 90.000000
_cell_volume 2649.322903
_symmetry_space_group_name_H-M "C 2/C"
_symmetry_group_IT_number 15
_symmetry_cell_setting 'monoclinic'
loop_
_space_group_symop_operation_xyz
x,y,z
-x,y,1/2-z
-x,-y,-z
x,-y,1/2+z
1/2+x,1/2+y,z
1/2-x,1/2+y,1/2-z
1/2-x,1/2-y,-z
1/2+x,1/2-y,1/2+z
loop_
_atom_site_type_symbol
_atom_site_label
_atom_site_fract_x
_atom_site_fract_y
_atom_site_fract_z
Si Si1 0.353689 0.807833 0.986311
Si Si2 0.240810 0.184308 0.752665
Si Si3 0.500000 0.270255 0.250000
Si Si4 0.404592 0.433852 0.652743
Si Si5 0.857402 0.197823 0.320203
Si Si6 0.500000 0.451257 0.250000
Si Si7 0.273032 0.553533 0.009486
Si Si8 0.691348 0.401983 0.470287
O O1 0.350008 0.808633 0.111816
O O2 0.325072 0.887055 0.969848
O O3 0.250000 0.750000 0.000000
O O4 0.467328 0.779098 0.862654
O O5 0.259219 0.250525 0.817098
O O6 0.240266 0.120799 0.833633
O O7 0.113620 0.185748 0.746205
O O8 0.376218 0.367660 0.736009
O O9 0.412128 0.499430 0.723308
O O10 0.305535 0.440009 0.612764
O O11 0.544323 0.424004 0.535713
O O12 0.811437 0.163723 0.450332
O O13 0.000000 0.229917 0.250000
O O14 0.600908 0.424147 0.116475
O O15 0.245301 0.471034 0.011714
#
# Coordination Sequence:
#
# PCOD9258258 Si02
#       8
#     8   8   4   8   8   4   8   8
#     4  10  24  41  59  88 118 165 204 251 298 366
#     4  11  24  37  67  94 120 164 212 256 301 369
#     4  10  24  45  60  90 129 166 206 248 320 369
#     4  10  18  33  54  85 127 158 188 247 331 362
#     4  10  20  39  62  89 129 162 203 256 319 366
#     4  10  18  33  52  96 117 156 188 256 320 363
#     4  11  22  34  60  87 128 156 204 253 315 378
#     4  10  21  35  57  94 121 162 201 260 316 357
#
# _framework density 21.137474999999998
#
# number of rings (size 3 to 8) (size 9 to 14) (size 15 to 20)
#    0.000    1.714    3.571    3.857   12.000    0.571 
#    0.000    0.000    1.571    1.714    0.000    0.000 
#    0.000    0.000    0.000    0.000    0.000    0.000 
#
# Total GULP energy -156049.423964 kJ/mol
# GULP energy per Si atom -5573.193713 kJ/mol
# Density = 2.108937 g / cm^3
# Si number density = 21.137475 Si / 1000 Ang^3
#
#
#
# Elastic Constant Matrix: (Units=GPa)
#
#
# Indices 1 2 3 4 5 6 
#
# 1 29.8249 14.6566 4.8155 0.0000 21.0157 0.0000
# 2 14.6566 89.0459 32.5221 0.0000 11.7781 0.0000
# 3 4.8155 32.5221 138.3245 0.0000 15.8153 0.0000
# 4 0.0000 0.0000 0.0000 29.0735 0.0000 2.6592
# 5 21.0157 11.7781 15.8153 0.0000 26.7990 0.0000
# 6 0.0000 0.0000 0.0000 2.6592 0.0000 16.7031
#
#
#
# Elastic Compliance Matrix: (Units=1/GPa)
#
#
# Indices 1 2 3 4 5 6 
#
# 1 0.081369 -0.007150 0.006203 0.000000 -0.064328 0.000000
# 2 -0.007150 0.013319 -0.003061 0.000000 0.001560 0.000000
# 3 0.006203 -0.003061 0.008724 0.000000 -0.008668 0.000000
# 4 0.000000 0.000000 0.000000 0.034904 0.000000 -0.005557
# 5 -0.064328 0.001560 -0.008668 0.000000 0.092190 0.000000
# 6 0.000000 0.000000 0.000000 -0.005557 0.000000 0.060754
#
#
# Mechanical properties :
#
#
# Convention : Reuss Voigt Hill
#
# Bulk Modulus (GPa) = 10.48259 40.13151 25.30705
# Shear Modulus (GPa) = 15.10241 28.19518 21.64879
#
# Velocity S-wave (km/s) = 2.67589 3.65622 3.20377
# Velocity P-wave (km/s) = 3.81014 6.07051 5.06795
#
# Compressibility (1/GPa) = 0.09539624
#
# Stress axis : x y z
#
# Youngs Moduli (GPa) = 12.28975 75.08295 114.62504
#
# Poissons Ratio (x) = 0.53684 -0.71104
# Poissons Ratio (y) = 0.08787 0.35085
# Poissons Ratio (z) = -0.07624 0.22982
#
# Static dielectric constant tensor:
#      x y z
#    x 1.824430 0.000000 -0.050570 
#    y 0.000000 1.828630 0.000000 
#    z -0.050570 0.000000 1.799600 
# 
# From -- ./inp_files/98277.got.cif
#   From: 2010.05.17/outbox.cif.g08.bks.cpg/sg15_50_cif.got.tgz:98277.got - 2010.06.03 18:47:42.
