data_PCOD9258246
_publ_section_title
;
Structure prediction by ZEFSAII (Michael W. Deem and Ramdas Pophale) SiO2 
 PCOD9258246
Probable space group: C 2/C
;
_chemical_formula_sum "Si O2"
_cell_formula_units_Z 60
_cell_length_a 24.700119
_cell_length_b 13.753987
_cell_length_c 13.557880
_cell_angle_alpha 90.000000
_cell_angle_beta 127.074171
_cell_angle_gamma 90.000000
_cell_volume 3674.885680
_symmetry_space_group_name_H-M "C 2/C"
_symmetry_group_IT_number 15
_symmetry_cell_setting 'monoclinic'
loop_
_space_group_symop_operation_xyz
x,y,z
-x,y,1/2-z
-x,-y,-z
x,-y,1/2+z
1/2+x,1/2+y,z
1/2-x,1/2+y,1/2-z
1/2-x,1/2-y,-z
1/2+x,1/2-y,1/2+z
loop_
_atom_site_type_symbol
_atom_site_label
_atom_site_fract_x
_atom_site_fract_y
_atom_site_fract_z
Si Si1 0.500000 0.516611 0.250000
Si Si2 0.644849 0.463223 0.361933
Si Si3 0.364964 0.672689 0.257261
Si Si4 0.153483 0.833924 0.186233
Si Si5 0.993060 0.891863 0.536319
Si Si6 0.811626 0.327759 0.071174
Si Si7 0.261380 0.472745 0.364681
Si Si8 0.719657 0.144916 0.183785
O O1 0.565633 0.452105 0.299945
O O2 0.517404 0.586627 0.359808
O O3 0.646840 0.571159 0.314560
O O4 0.667593 0.385791 0.305861
O O5 0.690400 0.466313 0.508889
O O6 0.434504 0.660656 0.393557
O O7 0.369357 0.761879 0.185152
O O8 0.297119 0.681495 0.248227
O O9 0.191167 0.897884 0.143484
O O10 0.181157 0.725871 0.204751
O O11 0.072847 0.840927 0.079414
O O12 0.000000 0.000000 0.500000
O O13 0.789447 0.412844 0.120864
O O14 0.750000 0.250000 0.000000
O O15 0.816470 0.362188 0.963470
O O16 0.225680 0.543896 0.247954
#
# Coordination Sequence:
#
# PCOD9258246 Si02
#       8
#     4   8   8   8   8   8   8   8
#     4  10  20  28  48  80 110 148 168 212 290 338
#     4  11  20  31  51  80 113 145 176 222 280 334
#     4  10  18  33  52  81 107 142 180 220 272 329
#     4  12  21  34  53  82 116 141 183 231 275 341
#     4  11  20  32  53  82 113 142 179 226 282 336
#     4  10  18  35  53  77 103 144 189 223 269 321
#     4  12  19  34  55  73 112 146 181 236 269 323
#     4  11  22  33  54  81 111 145 183 230 278 322
#
# _framework density 16.327038999999999
#
# number of rings (size 3 to 8) (size 9 to 14) (size 15 to 20)
#    0.000    1.067   10.667    0.000    1.867    0.533 
#    0.000    0.000    0.000    0.800    0.000    0.000 
#    0.000    0.000    0.000    0.000    0.000    0.000 
#
# Total GULP energy -167280.493678 kJ/mol
# GULP energy per Si atom -5576.016456 kJ/mol
# Density = 1.628988 g / cm^3
# Si number density = 16.327039 Si / 1000 Ang^3
#
#
#
# Elastic Constant Matrix: (Units=GPa)
#
#
# Indices 1 2 3 4 5 6 
#
# 1 45.3804 22.6873 1.7262 0.0000 7.8157 0.0000
# 2 22.6873 64.6570 31.5987 0.0000 7.1592 0.0000
# 3 1.7262 31.5987 49.2452 0.0000 8.7595 0.0000
# 4 0.0000 0.0000 0.0000 29.8232 0.0000 -5.0522
# 5 7.8157 7.1592 8.7595 0.0000 24.3372 0.0000
# 6 0.0000 0.0000 0.0000 -5.0522 0.0000 29.0208
#
#
#
# Elastic Compliance Matrix: (Units=1/GPa)
#
#
# Indices 1 2 3 4 5 6 
#
# 1 0.030473 -0.014503 0.009850 0.000000 -0.009065 0.000000
# 2 -0.014503 0.029487 -0.018908 0.000000 0.002789 0.000000
# 3 0.009850 -0.018908 0.033833 0.000000 -0.009778 0.000000
# 4 0.000000 0.000000 0.000000 0.034550 0.000000 0.006015
# 5 -0.009065 0.002789 -0.009778 0.000000 0.046700 0.000000
# 6 0.000000 0.000000 0.000000 0.006015 0.000000 0.035505
#
#
# Mechanical properties :
#
#
# Convention : Reuss Voigt Hill
#
# Bulk Modulus (GPa) = 21.42639 30.14522 25.78580
# Shear Modulus (GPa) = 18.29980 23.52091 20.91036
#
# Velocity S-wave (km/s) = 3.35151 3.79966 3.58260
# Velocity P-wave (km/s) = 5.30364 6.14437 5.73942
#
# Compressibility (1/GPa) = 0.04667142
#
# Stress axis : x y z
#
# Youngs Moduli (GPa) = 32.81602 33.91329 29.55666
#
# Poissons Ratio (x) = 0.49183 -0.29113
# Poissons Ratio (y) = 0.47592 0.55887
# Poissons Ratio (z) = -0.32324 0.64124
#
# Static dielectric constant tensor:
#      x y z
#    x 1.587120 0.000000 -0.015630 
#    y 0.000000 1.538060 0.000000 
#    z -0.015630 0.000000 1.622230 
# 
# From -- ./inp_files/177366.got.cif
#   From: 2010.05.17/outbox.cif.g08.bks.cpg/sg15_89_cif.got.tgz:177366.got - 2010.06.03 18:47:42.
