data_PCOD9258585
_publ_section_title
;
Structure prediction by ZEFSAII (Michael W. Deem and Ramdas Pophale) SiO2 
 PCOD9258585
Probable space group: C 2/C
;
_chemical_formula_sum "Si O2"
_cell_formula_units_Z 56
_cell_length_a 9.056036
_cell_length_b 23.366060
_cell_length_c 14.238479
_cell_angle_alpha 90.000000
_cell_angle_beta 105.694576
_cell_angle_gamma 90.000000
_cell_volume 2900.587891
_symmetry_space_group_name_H-M "C 2/C"
_symmetry_group_IT_number 15
_symmetry_cell_setting 'monoclinic'
loop_
_space_group_symop_operation_xyz
x,y,z
-x,y,1/2-z
-x,-y,-z
x,-y,1/2+z
1/2+x,1/2+y,z
1/2-x,1/2+y,1/2-z
1/2-x,1/2-y,-z
1/2+x,1/2-y,1/2+z
loop_
_atom_site_type_symbol
_atom_site_label
_atom_site_fract_x
_atom_site_fract_y
_atom_site_fract_z
Si Si1 0.644103 0.016068 0.329703
Si Si2 0.889645 0.637250 0.137961
Si Si3 0.028124 0.247675 0.642529
Si Si4 0.044740 0.167053 0.026789
Si Si5 0.354586 0.710840 0.160313
Si Si6 0.323158 0.578271 0.192597
Si Si7 0.870403 0.047361 0.995104
O O1 0.500000 0.991599 0.250000
O O2 0.603431 0.070508 0.390522
O O3 0.736858 0.048533 0.263053
O O4 0.738831 0.968526 0.399427
O O5 0.707798 0.654164 0.106093
O O6 0.000000 0.636811 0.250000
O O7 0.962951 0.690805 0.096593
O O8 0.209731 0.248614 0.651936
O O9 0.000000 0.242635 0.750000
O O10 0.940814 0.199029 0.569451
O O11 0.932180 0.205428 0.071747
O O12 0.955868 0.107582 0.998173
O O13 0.500000 0.725124 0.250000
O O14 0.296301 0.646207 0.175630
O O15 0.500000 0.573947 0.250000
O O16 0.303308 0.548005 0.089026
O O17 0.000000 0.000000 0.000000
#
# Coordination Sequence:
#
# PCOD9258585 Si02
#       7
#     8   8   8   8   8   8   8
#     4  11  21  37  59  87 115 149 193 247 290 327
#     4  10  19  35  61  86 113 140 191 254 286 328
#     4  11  22  37  56  89 121 151 189 237 293 349
#     4  11  22  38  59  85 118 156 191 233 291 351
#     4  10  19  35  60  84 112 152 198 240 279 336
#     4  10  18  33  60  87 108 151 197 239 288 331
#     4  11  21  38  58  83 117 148 196 233 278 351
#
# _framework density 19.306432000000001
#
# number of rings (size 3 to 8) (size 9 to 14) (size 15 to 20)
#    0.000    1.429    2.857    6.857    0.000    0.571 
#    2.571    0.714    0.000    3.429    0.000    0.000 
#    0.000    0.000    0.000    0.000    0.000    0.000 
#
# Total GULP energy -156046.795119 kJ/mol
# GULP energy per Si atom -5573.099826 kJ/mol
# Density = 1.926249 g / cm^3
# Si number density = 19.306432 Si / 1000 Ang^3
#
#
#
# Elastic Constant Matrix: (Units=GPa)
#
#
# Indices 1 2 3 4 5 6 
#
# 1 80.8570 19.5006 50.1226 0.0000 24.5188 0.0000
# 2 19.5006 44.1250 31.4958 0.0000 11.3078 0.0000
# 3 50.1226 31.4958 103.4370 0.0000 18.7721 0.0000
# 4 0.0000 0.0000 0.0000 28.0499 0.0000 4.8148
# 5 24.5188 11.3078 18.7721 0.0000 23.7732 0.0000
# 6 0.0000 0.0000 0.0000 4.8148 0.0000 20.2845
#
#
#
# Elastic Compliance Matrix: (Units=1/GPa)
#
#
# Indices 1 2 3 4 5 6 
#
# 1 0.022276 -0.000003 -0.007732 0.000000 -0.016868 0.000000
# 2 -0.000003 0.030304 -0.007716 0.000000 -0.008318 0.000000
# 3 -0.007732 -0.007716 0.015934 0.000000 -0.000937 0.000000
# 4 0.000000 0.000000 0.000000 0.037165 0.000000 -0.008822
# 5 -0.016868 -0.008318 -0.000937 0.000000 0.064158 0.000000
# 6 0.000000 0.000000 0.000000 -0.008822 0.000000 0.051393
#
#
# Mechanical properties :
#
#
# Convention : Reuss Voigt Hill
#
# Bulk Modulus (GPa) = 26.58777 47.85077 37.21927
# Shear Modulus (GPa) = 18.89147 22.90817 20.89982
#
# Velocity S-wave (km/s) = 3.13150 3.44838 3.29375
# Velocity P-wave (km/s) = 5.18425 6.37917 5.81250
#
# Compressibility (1/GPa) = 0.03761128
#
# Stress axis : x y z
#
# Youngs Moduli (GPa) = 44.89046 32.99937 62.75801
#
# Poissons Ratio (x) = 0.00009 0.48527
# Poissons Ratio (y) = 0.00013 0.48426
# Poissons Ratio (z) = 0.34711 0.25463
#
# Static dielectric constant tensor:
#      x y z
#    x 1.787310 0.000000 -0.139470 
#    y 0.000000 1.670420 0.000000 
#    z -0.139470 0.000000 1.917670 
# 
# From -- ./inp_files/137446.got.cif
#   From: 2010.05.17/outbox.cif.g08.bks.cpg/sg15_69_cif.got.tgz:137446.got - 2010.06.03 18:47:42.
