data_PCOD9258507
_publ_section_title
;
Structure prediction by ZEFSAII (Michael W. Deem and Ramdas Pophale) SiO2 
 PCOD9258507
Probable space group: C 2/C
;
_chemical_formula_sum "Si O2"
_cell_formula_units_Z 56
_cell_length_a 8.929460
_cell_length_b 17.193175
_cell_length_c 19.402525
_cell_angle_alpha 90.000000
_cell_angle_beta 67.697991
_cell_angle_gamma 90.000000
_cell_volume 2755.963565
_symmetry_space_group_name_H-M "C 2/C"
_symmetry_group_IT_number 15
_symmetry_cell_setting 'monoclinic'
loop_
_space_group_symop_operation_xyz
x,y,z
-x,y,1/2-z
-x,-y,-z
x,-y,1/2+z
1/2+x,1/2+y,z
1/2-x,1/2+y,1/2-z
1/2-x,1/2-y,-z
1/2+x,1/2-y,1/2+z
loop_
_atom_site_type_symbol
_atom_site_label
_atom_site_fract_x
_atom_site_fract_y
_atom_site_fract_z
Si Si1 0.507888 0.034800 0.165511
Si Si2 0.240453 0.324771 0.649340
Si Si3 0.823866 0.891057 0.784362
Si Si4 0.501752 0.121001 0.603102
Si Si5 0.328353 0.335270 0.272324
Si Si6 0.256281 0.731422 0.634481
Si Si7 0.922275 0.258762 0.008544
O O1 0.500000 0.016054 0.250000
O O2 0.616220 0.112811 0.139794
O O3 0.327356 0.055202 0.172868
O O4 0.570213 0.964414 0.107402
O O5 0.291336 0.359195 0.713359
O O6 0.157374 0.242363 0.682250
O O7 0.392928 0.302477 0.575841
O O8 0.817013 0.815940 0.834910
O O9 0.000000 0.927910 0.750000
O O10 0.331626 0.122696 0.673516
O O11 0.626539 0.181752 0.614892
O O12 0.457285 0.156587 0.536286
O O13 0.500000 0.377060 0.250000
O O14 0.293155 0.309691 0.200710
O O15 0.424290 0.738924 0.564435
O O16 0.750000 0.250000 0.000000
#
# Coordination Sequence:
#
# PCOD9258507 Si02
#       7
#     8   8   8   8   8   8   8
#     4  10  20  37  58  83 115 148 181 234 292 338
#     4   9  19  36  56  79 111 150 189 226 281 347
#     4  10  19  34  59  85 111 147 191 232 281 346
#     4  11  23  37  57  87 116 144 188 242 289 329
#     4  10  18  33  58  84 109 145 189 232 277 336
#     4  11  20  35  59  85 113 149 191 236 279 334
#     4  11  22  38  58  83 114 155 197 236 281 342
#
# _framework density 20.319571
#
# number of rings (size 3 to 8) (size 9 to 14) (size 15 to 20)
#    0.000    1.714    0.000    9.000    0.000    0.571 
#    0.000    6.429    0.000    0.000    0.000    0.000 
#    0.000    0.000    0.000    0.000    0.000    0.000 
#
# Total GULP energy -156312.846992 kJ/mol
# GULP energy per Si atom -5582.601678 kJ/mol
# Density = 2.027332 g / cm^3
# Si number density = 20.319571 Si / 1000 Ang^3
#
#
#
# Elastic Constant Matrix: (Units=GPa)
#
#
# Indices 1 2 3 4 5 6 
#
# 1 113.6109 30.0955 4.0546 0.0000 -11.2982 0.0000
# 2 30.0955 94.2822 9.6677 0.0000 3.4433 0.0000
# 3 4.0546 9.6677 60.6012 0.0000 -15.8353 0.0000
# 4 0.0000 0.0000 0.0000 9.6728 0.0000 -5.7425
# 5 -11.2982 3.4433 -15.8353 0.0000 31.0664 0.0000
# 6 0.0000 0.0000 0.0000 -5.7425 0.0000 20.8065
#
#
#
# Elastic Compliance Matrix: (Units=1/GPa)
#
#
# Indices 1 2 3 4 5 6 
#
# 1 0.010158 -0.003525 0.001096 0.000000 0.004644 0.000000
# 2 -0.003525 0.012162 -0.002759 0.000000 -0.004036 0.000000
# 3 0.001096 -0.002759 0.019672 0.000000 0.010732 0.000000
# 4 0.000000 0.000000 0.000000 0.123641 0.000000 0.034124
# 5 0.004644 -0.004036 0.010732 0.000000 0.039796 0.000000
# 6 0.000000 0.000000 0.000000 0.034124 0.000000 0.057480
#
#
# Mechanical properties :
#
#
# Convention : Reuss Voigt Hill
#
# Bulk Modulus (GPa) = 31.62811 39.57000 35.59906
# Shear Modulus (GPa) = 17.61659 27.28758 22.45209
#
# Velocity S-wave (km/s) = 2.94764 3.66856 3.32768
# Velocity P-wave (km/s) = 5.21382 6.12051 5.68527
#
# Compressibility (1/GPa) = 0.03161744
#
# Stress axis : x y z
#
# Youngs Moduli (GPa) = 98.44160 82.22445 50.83260
#
# Poissons Ratio (x) = 0.28981 -0.05571
# Poissons Ratio (y) = 0.34696 0.14025
# Poissons Ratio (z) = -0.10789 0.22686
#
# Static dielectric constant tensor:
#      x y z
#    x 1.752100 0.000000 0.014920 
#    y 0.000000 1.734250 0.000000 
#    z 0.014920 0.000000 1.752820 
# 
# From -- ./inp_files/190902.got.cif
#   From: 2010.05.17/outbox.cif.g08.bks.cpg/sg15_96_cif.got.tgz:190902.got - 2010.06.03 18:47:42.
