data_PCOD9258543
_publ_section_title
;
Structure prediction by ZEFSAII (Michael W. Deem and Ramdas Pophale) SiO2 
 PCOD9258543
Probable space group: C 2/C
;
_chemical_formula_sum "Si O2"
_cell_formula_units_Z 36
_cell_length_a 11.464528
_cell_length_b 9.897720
_cell_length_c 11.292719
_cell_angle_alpha 90.000000
_cell_angle_beta 106.374234
_cell_angle_gamma 90.000000
_cell_volume 1229.442066
_symmetry_space_group_name_H-M "C 2/C"
_symmetry_group_IT_number 15
_symmetry_cell_setting 'monoclinic'
loop_
_space_group_symop_operation_xyz
x,y,z
-x,y,1/2-z
-x,-y,-z
x,-y,1/2+z
1/2+x,1/2+y,z
1/2-x,1/2+y,1/2-z
1/2-x,1/2-y,-z
1/2+x,1/2-y,1/2+z
loop_
_atom_site_type_symbol
_atom_site_label
_atom_site_fract_x
_atom_site_fract_y
_atom_site_fract_z
Si Si1 0.840672 0.726427 0.330150
Si Si2 0.746689 0.999914 0.047470
Si Si3 0.108921 0.001791 0.159160
Si Si4 0.500000 0.022064 0.250000
Si Si5 0.594692 0.202594 0.628872
O O1 0.821353 0.640441 0.442380
O O2 0.711031 0.784382 0.251662
O O3 0.888975 0.619331 0.248579
O O4 0.937288 0.847814 0.362670
O O5 0.659909 0.867735 0.035257
O O6 0.835197 0.999713 0.190630
O O7 0.809585 0.998067 0.938490
O O8 0.043590 0.145941 0.124021
O O9 0.494078 0.914503 0.353399
#
# Coordination Sequence:
#
# PCOD9258543 Si02
#       5
#     8   8   8   4   8
#     4   9  19  35  60  89 124 161 206 258 311 372
#     4   9  18  33  58  87 119 161 203 251 314 369
#     4  10  18  33  59  85 117 164 205 249 313 373
#     4  10  20  38  62  92 124 164 208 258 318 374
#     4   9  19  35  60  89 124 161 206 258 311 372
#
# _framework density 29.281573999999999
#
# number of rings (size 3 to 8) (size 9 to 14) (size 15 to 20)
#    0.000    2.667    0.000    2.667    0.000    0.889 
#    0.000    0.000    0.000  202.667    0.000    0.000 
#    0.000    0.000    0.000    0.000    0.000    0.000 
#
# Total GULP energy -100478.293110 kJ/mol
# GULP energy per Si atom -5582.127395 kJ/mol
# Density = 2.921493 g / cm^3
# Si number density = 29.281574 Si / 1000 Ang^3
#
#
#
# Elastic Constant Matrix: (Units=GPa)
#
#
# Indices 1 2 3 4 5 6 
#
# 1 55.1498 40.4032 79.8916 0.0000 -9.6221 0.0000
# 2 40.4032 262.4855 34.4642 0.0000 -14.7000 0.0000
# 3 79.8916 34.4642 200.4894 0.0000 -12.8722 0.0000
# 4 0.0000 0.0000 0.0000 14.4390 0.0000 -41.7612
# 5 -9.6221 -14.7000 -12.8722 0.0000 80.7841 0.0000
# 6 0.0000 0.0000 0.0000 -41.7612 0.0000 28.0253
#
#
#
# Elastic Compliance Matrix: (Units=1/GPa)
#
#
# Indices 1 2 3 4 5 6 
#
# 1 0.048987 -0.004996 -0.018535 0.000000 0.001972 0.000000
# 2 -0.004996 0.004437 0.001255 0.000000 0.000412 0.000000
# 3 -0.018535 0.001255 0.012155 0.000000 -0.000043 0.000000
# 4 0.000000 0.000000 0.000000 -0.020925 0.000000 -0.031180
# 5 0.001972 0.000412 -0.000043 0.000000 0.012682 0.000000
# 6 0.000000 0.000000 0.000000 -0.031180 0.000000 -0.010781
#
#
# Mechanical properties :
#
#
# Convention : Reuss Voigt Hill
#
# Bulk Modulus (GPa) = 47.55944 91.96029 69.75987
# Shear Modulus (GPa) = 50.95862 48.87407 49.91635
#
# Velocity S-wave (km/s) = 4.17621 4.08990 4.13328
# Velocity P-wave (km/s) = 6.28742 7.33326 6.83039
#
# Compressibility (1/GPa) = 0.02102632
#
# Stress axis : x y z
#
# Youngs Moduli (GPa) = 20.41338 225.37024 82.26842
#
# Poissons Ratio (x) = 1.12602 1.52486
# Poissons Ratio (y) = 0.10199 -0.10322
# Poissons Ratio (z) = 0.37837 -0.28276
#
# Static dielectric constant tensor:
#      x y z
#    x 2.425030 0.000000 0.033040 
#    y 0.000000 2.259360 0.000000 
#    z 0.033040 0.000000 2.207900 
# 
# From -- ./inp_files/103029.got.cif
#   From: 2010.05.17/outbox.cif.g08.bks.cpg/sg15_52_cif.got.tgz:103029.got - 2010.06.03 18:47:42.
