data_PCOD9258741
_publ_section_title
;
Structure prediction by ZEFSAII (Michael W. Deem and Ramdas Pophale) SiO2 
 PCOD9258741
Probable space group: C 2/C
;
_chemical_formula_sum "Si O2"
_cell_formula_units_Z 60
_cell_length_a 11.559842
_cell_length_b 13.807246
_cell_length_c 20.584648
_cell_angle_alpha 90.000000
_cell_angle_beta 50.724913
_cell_angle_gamma 90.000000
_cell_volume 2543.362075
_symmetry_space_group_name_H-M "C 2/C"
_symmetry_group_IT_number 15
_symmetry_cell_setting 'monoclinic'
loop_
_space_group_symop_operation_xyz
x,y,z
-x,y,1/2-z
-x,-y,-z
x,-y,1/2+z
1/2+x,1/2+y,z
1/2-x,1/2+y,1/2-z
1/2-x,1/2-y,-z
1/2+x,1/2-y,1/2+z
loop_
_atom_site_type_symbol
_atom_site_label
_atom_site_fract_x
_atom_site_fract_y
_atom_site_fract_z
Si Si1 0.817538 0.256336 0.744690
Si Si2 0.098639 0.824679 0.424050
Si Si3 0.685933 0.883292 0.916970
Si Si4 0.977120 0.810069 0.864934
Si Si5 0.130932 0.467179 0.796104
Si Si6 0.500000 0.610746 0.750000
Si Si7 0.138804 0.397568 0.077911
Si Si8 0.539287 0.485321 0.371232
O O1 0.861514 0.198543 0.665020
O O2 0.647147 0.283961 0.792259
O O3 0.901210 0.359152 0.718921
O O4 0.860404 0.183531 0.787081
O O5 0.079461 0.713065 0.453048
O O6 0.227978 0.877251 0.419071
O O7 0.985766 0.912099 0.446609
O O8 0.662637 0.948687 0.862011
O O9 0.855069 0.839707 0.854502
O O10 0.670147 0.933837 0.993073
O O11 0.912539 0.712540 0.916498
O O12 0.988899 0.905532 0.904443
O O13 0.280967 0.504065 0.706893
O O14 0.992156 0.539940 0.842738
O O15 0.521991 0.546926 0.677886
#
# Coordination Sequence:
#
# PCOD9258741 Si02
#       8
#     8   8   8   8   8   4   8   8
#     4   9  20  34  54  83 110 142 181 239 297 333
#     4   9  19  34  53  80 110 139 183 232 282 329
#     4  10  21  38  55  77 110 154 191 223 268 337
#     4  10  20  34  54  80 109 142 187 229 277 335
#     4  10  21  35  56  83 111 144 188 234 285 339
#     4  10  18  34  54  78 114 140 172 220 292 358
#     4  11  21  36  56  79 111 153 188 227 271 332
#     4  10  20  34  56  85 110 142 179 237 296 331
#
# _framework density 23.590821999999999
#
# number of rings (size 3 to 8) (size 9 to 14) (size 15 to 20)
#    0.000    2.133    0.000    4.400    0.000   13.867 
#    0.000    2.667    0.000    0.000    0.000   17.733 
#    0.000    0.000    0.000    0.000    0.000    0.000 
#
# Total GULP energy -167117.321962 kJ/mol
# GULP energy per Si atom -5570.577399 kJ/mol
# Density = 2.353713 g / cm^3
# Si number density = 23.590822 Si / 1000 Ang^3
#
#
#
# Elastic Constant Matrix: (Units=GPa)
#
#
# Indices 1 2 3 4 5 6 
#
# 1 40.4983 -0.7718 20.3251 0.0000 8.6080 0.0000
# 2 -0.7718 94.9969 11.9211 0.0000 3.1245 0.0000
# 3 20.3251 11.9211 35.2327 0.0000 6.3198 0.0000
# 4 0.0000 0.0000 0.0000 14.8562 0.0000 9.0148
# 5 8.6080 3.1245 6.3198 0.0000 29.5789 0.0000
# 6 0.0000 0.0000 0.0000 9.0148 0.0000 39.6910
#
#
#
# Elastic Compliance Matrix: (Units=1/GPa)
#
#
# Indices 1 2 3 4 5 6 
#
# 1 0.036718 0.003158 -0.021082 0.000000 -0.006515 0.000000
# 2 0.003158 0.011269 -0.005466 0.000000 -0.000942 0.000000
# 3 -0.021082 -0.005466 0.042831 0.000000 -0.002439 0.000000
# 4 0.000000 0.000000 0.000000 0.078072 0.000000 -0.017732
# 5 -0.006515 -0.000942 -0.002439 0.000000 0.036324 0.000000
# 6 0.000000 0.000000 0.000000 -0.017732 0.000000 0.029222
#
#
# Mechanical properties :
#
#
# Convention : Reuss Voigt Hill
#
# Bulk Modulus (GPa) = 22.70712 25.96409 24.33560
# Shear Modulus (GPa) = 16.89788 26.10878 21.50333
#
# Velocity S-wave (km/s) = 2.67926 3.33037 3.02240
# Velocity P-wave (km/s) = 4.38379 5.08118 4.74531
#
# Compressibility (1/GPa) = 0.04403905
#
# Stress axis : x y z
#
# Youngs Moduli (GPa) = 27.23484 88.73744 23.34747
#
# Poissons Ratio (x) = -0.28024 0.49220
# Poissons Ratio (y) = -0.08601 0.12762
# Poissons Ratio (z) = 0.57416 0.48503
#
# Static dielectric constant tensor:
#      x y z
#    x 1.975180 0.000000 -0.028000 
#    y 0.000000 1.985980 0.000000 
#    z -0.028000 0.000000 1.971970 
# 
# From -- ./inp_files/238686.got.cif
#   From: 2010.05.17/outbox.cif.g08.bks.cpg/sg15_120_cif.got.tgz:238686.got - 2010.06.03 18:47:42.
