data_PCOD9258733
_publ_section_title
;
Structure prediction by ZEFSAII (Michael W. Deem and Ramdas Pophale) SiO2 
 PCOD9258733
Probable space group: C 2/C
;
_chemical_formula_sum "Si O2"
_cell_formula_units_Z 44
_cell_length_a 9.546455
_cell_length_b 22.745947
_cell_length_c 9.393083
_cell_angle_alpha 90.000000
_cell_angle_beta 82.171833
_cell_angle_gamma 90.000000
_cell_volume 2020.636284
_symmetry_space_group_name_H-M "C 2/C"
_symmetry_group_IT_number 15
_symmetry_cell_setting 'monoclinic'
loop_
_space_group_symop_operation_xyz
x,y,z
-x,y,1/2-z
-x,-y,-z
x,-y,1/2+z
1/2+x,1/2+y,z
1/2-x,1/2+y,1/2-z
1/2-x,1/2-y,-z
1/2+x,1/2-y,1/2+z
loop_
_atom_site_type_symbol
_atom_site_label
_atom_site_fract_x
_atom_site_fract_y
_atom_site_fract_z
Si Si1 0.773271 0.671532 0.392295
Si Si2 0.648205 0.737800 0.164084
Si Si3 0.017709 0.234597 0.584361
Si Si4 0.331213 0.052289 0.267945
Si Si5 0.000000 0.351999 0.250000
Si Si6 0.113771 0.547194 0.543448
O O1 0.761831 0.701211 0.236434
O O2 0.917772 0.699341 0.432530
O O3 0.644403 0.695695 0.502705
O O4 0.766005 0.602450 0.374569
O O5 0.500000 0.711966 0.250000
O O6 0.630584 0.805400 0.221632
O O7 0.618837 0.730864 0.999394
O O8 0.000000 0.217665 0.750000
O O9 0.500000 0.065183 0.250000
O O10 0.311638 0.987711 0.337470
O O11 0.290982 0.059075 0.108002
O O12 0.968074 0.396841 0.383197
O O13 0.000000 0.500000 0.500000
#
# Coordination Sequence:
#
# PCOD9258733 Si02
#       6
#     8   8   8   8   4   8
#     4  10  21  36  56  84 116 157 189 229 285 350
#     4   8  20  35  54  79 116 151 181 232 283 335
#     4  10  21  36  53  82 115 150 192 231 289 331
#     4  10  21  34  55  83 118 147 187 226 283 348
#     4  10  18  34  54  76 124 146 180 228 294 346
#     4  10  19  32  51  80 112 154 178 227 293 336
#
# _framework density 21.775317999999999
#
# number of rings (size 3 to 8) (size 9 to 14) (size 15 to 20)
#    0.545    1.818    2.727    0.545    7.636    0.727 
#    0.000    0.000    0.000    0.000    0.000   16.545 
#    0.000    0.000    0.000    0.000    0.000    0.000 
#
# Total GULP energy -122603.357864 kJ/mol
# GULP energy per Si atom -5572.879903 kJ/mol
# Density = 2.172576 g / cm^3
# Si number density = 21.775318 Si / 1000 Ang^3
#
#
#
# Elastic Constant Matrix: (Units=GPa)
#
#
# Indices 1 2 3 4 5 6 
#
# 1 57.0187 16.0876 18.9941 0.0000 13.6411 0.0000
# 2 16.0876 100.2764 36.3362 0.0000 -4.1351 0.0000
# 3 18.9941 36.3362 162.7093 0.0000 0.9010 0.0000
# 4 0.0000 0.0000 0.0000 36.7565 0.0000 0.3096
# 5 13.6411 -4.1351 0.9010 0.0000 24.0450 0.0000
# 6 0.0000 0.0000 0.0000 0.3096 0.0000 13.8872
#
#
#
# Elastic Compliance Matrix: (Units=1/GPa)
#
#
# Indices 1 2 3 4 5 6 
#
# 1 0.022249 -0.003479 -0.001748 0.000000 -0.013155 0.000000
# 2 -0.003479 0.011487 -0.002182 0.000000 0.004031 0.000000
# 3 -0.001748 -0.002182 0.006835 0.000000 0.000360 0.000000
# 4 0.000000 0.000000 0.000000 0.027211 0.000000 -0.000607
# 5 -0.013155 0.004031 0.000360 0.000000 0.049731 0.000000
# 6 0.000000 0.000000 0.000000 -0.000607 0.000000 0.072022
#
#
# Mechanical properties :
#
#
# Convention : Reuss Voigt Hill
#
# Bulk Modulus (GPa) = 38.82635 51.42668 45.12651
# Shear Modulus (GPa) = 23.48112 31.51018 27.49565
#
# Velocity S-wave (km/s) = 3.28737 3.80815 3.55730
# Velocity P-wave (km/s) = 5.68139 6.55776 6.13524
#
# Compressibility (1/GPa) = 0.02575571
#
# Stress axis : x y z
#
# Youngs Moduli (GPa) = 44.94599 87.05293 146.30314
#
# Poissons Ratio (x) = 0.30283 0.25567
# Poissons Ratio (y) = 0.15635 0.31917
# Poissons Ratio (z) = 0.07855 0.18991
#
# Static dielectric constant tensor:
#      x y z
#    x 1.865520 0.000000 0.001920 
#    y 0.000000 1.784380 0.000000 
#    z 0.001920 0.000000 2.010930 
# 
# From -- ./inp_files/40232.got.cif
#   From: 2010.05.17/outbox.cif.g08.bks.cpg/sg15_21_cif.got.tgz:40232.got - 2010.06.03 18:47:42.
