data_PCOD9258501
_publ_section_title
;
Structure prediction by ZEFSAII (Michael W. Deem and Ramdas Pophale) SiO2 
 PCOD9258501
Probable space group: C 2/C
;
_chemical_formula_sum "Si O2"
_cell_formula_units_Z 60
_cell_length_a 14.339873
_cell_length_b 9.599292
_cell_length_c 21.143719
_cell_angle_alpha 90.000000
_cell_angle_beta 116.159575
_cell_angle_gamma 90.000000
_cell_volume 2612.366136
_symmetry_space_group_name_H-M "C 2/C"
_symmetry_group_IT_number 15
_symmetry_cell_setting 'monoclinic'
loop_
_space_group_symop_operation_xyz
x,y,z
-x,y,1/2-z
-x,-y,-z
x,-y,1/2+z
1/2+x,1/2+y,z
1/2-x,1/2+y,1/2-z
1/2-x,1/2-y,-z
1/2+x,1/2-y,1/2+z
loop_
_atom_site_type_symbol
_atom_site_label
_atom_site_fract_x
_atom_site_fract_y
_atom_site_fract_z
Si Si1 0.856243 0.069276 0.396240
Si Si2 0.848246 0.785977 0.761759
Si Si3 0.642275 0.330021 0.184766
Si Si4 0.635522 0.907921 0.871472
Si Si5 0.048816 0.422284 0.595401
Si Si6 0.974089 0.288684 0.042808
Si Si7 0.907067 0.726689 0.652679
Si Si8 0.000000 0.198573 0.750000
O O1 0.827714 0.116434 0.315551
O O2 0.758975 0.102885 0.411193
O O3 0.956912 0.152792 0.447355
O O4 0.873598 0.907524 0.386551
O O5 0.760951 0.667128 0.741954
O O6 0.845055 0.819255 0.684989
O O7 0.969694 0.750567 0.803999
O O8 0.615771 0.165910 0.165285
O O9 0.560953 0.382529 0.213231
O O10 0.570195 0.895191 0.916660
O O11 0.585705 0.795567 0.809451
O O12 0.614456 0.064300 0.839727
O O13 0.052510 0.588984 0.592550
O O14 0.068802 0.359263 0.532721
O O15 0.890781 0.255869 0.072761
#
# Coordination Sequence:
#
# PCOD9258501 Si02
#       8
#     8   8   8   8   8   8   8   4
#     4  11  22  33  60  87 116 143 192 236 286 328
#     4  10  19  33  53  85 112 148 184 223 274 350
#     4  11  22  35  56  88 116 147 185 240 285 331
#     4  10  18  33  58  83 109 154 188 226 275 344
#     4   9  21  40  61  77 112 151 198 230 283 336
#     4   9  20  40  61  80 106 155 195 235 278 338
#     4   9  18  33  59  79 113 149 192 221 277 343
#     4  10  20  34  50  80 124 148 176 224 284 336
#
# _framework density 22.967683999999998
#
# number of rings (size 3 to 8) (size 9 to 14) (size 15 to 20)
#    0.000    2.133    2.667    0.800    0.000    6.400 
#    0.000    0.667    0.000    0.000    0.000    0.000 
#    0.000    0.000    0.000    0.000    0.000    0.000 
#
# Total GULP energy -167203.107932 kJ/mol
# GULP energy per Si atom -5573.436931 kJ/mol
# Density = 2.291541 g / cm^3
# Si number density = 22.967684 Si / 1000 Ang^3
#
#
#
# Elastic Constant Matrix: (Units=GPa)
#
#
# Indices 1 2 3 4 5 6 
#
# 1 101.0564 -12.8048 8.3329 0.0000 -20.1775 0.0000
# 2 -12.8048 40.8360 -8.1429 0.0000 7.8584 0.0000
# 3 8.3329 -8.1429 44.0644 0.0000 -21.5421 0.0000
# 4 0.0000 0.0000 0.0000 28.8359 0.0000 -3.1787
# 5 -20.1775 7.8584 -21.5421 0.0000 26.5008 0.0000
# 6 0.0000 0.0000 0.0000 -3.1787 0.0000 21.2610
#
#
#
# Elastic Compliance Matrix: (Units=1/GPa)
#
#
# Indices 1 2 3 4 5 6 
#
# 1 0.012220 0.002341 0.003868 0.000000 0.011755 0.000000
# 2 0.002341 0.026497 0.002463 0.000000 -0.004073 0.000000
# 3 0.003868 0.002463 0.038999 0.000000 0.033917 0.000000
# 4 0.000000 0.000000 0.000000 0.035260 0.000000 0.005272
# 5 0.011755 -0.004073 0.033917 0.000000 0.075463 0.000000
# 6 0.000000 0.000000 0.000000 0.005272 0.000000 0.047823
#
#
# Mechanical properties :
#
#
# Convention : Reuss Voigt Hill
#
# Bulk Modulus (GPa) = 10.51966 17.85857 14.18911
# Shear Modulus (GPa) = 19.95177 28.55762 24.25470
#
# Velocity S-wave (km/s) = 2.95055 3.52999 3.25320
# Velocity P-wave (km/s) = 4.02465 4.94033 4.50581
#
# Compressibility (1/GPa) = 0.09506015
#
# Stress axis : x y z
#
# Youngs Moduli (GPa) = 81.83218 37.73990 25.64187
#
# Poissons Ratio (x) = -0.08835 -0.09919
# Poissons Ratio (y) = -0.19158 -0.06315
# Poissons Ratio (z) = -0.31655 -0.09294
#
# Static dielectric constant tensor:
#      x y z
#    x 1.855680 0.000000 -0.047020 
#    y 0.000000 1.918290 0.000000 
#    z -0.047020 0.000000 1.914350 
# 
# From -- ./inp_files/273210.got.cif
#   From: 2010.05.17/outbox.cif.g08.bks.cpg/sg15_137_cif.got.tgz:273210.got - 2010.06.03 18:47:42.
