data_PCOD9258973
_publ_section_title
;
Structure prediction by ZEFSAII (Michael W. Deem and Ramdas Pophale) SiO2 
 PCOD9258973
Probable space group: C 2/C
;
_chemical_formula_sum "Si O2"
_cell_formula_units_Z 28
_cell_length_a 8.441455
_cell_length_b 14.005482
_cell_length_c 9.072884
_cell_angle_alpha 90.000000
_cell_angle_beta 99.717594
_cell_angle_gamma 90.000000
_cell_volume 1057.265829
_symmetry_space_group_name_H-M "C 2/C"
_symmetry_group_IT_number 15
_symmetry_cell_setting 'monoclinic'
loop_
_space_group_symop_operation_xyz
x,y,z
-x,y,1/2-z
-x,-y,-z
x,-y,1/2+z
1/2+x,1/2+y,z
1/2-x,1/2+y,1/2-z
1/2-x,1/2-y,-z
1/2+x,1/2-y,1/2+z
loop_
_atom_site_type_symbol
_atom_site_label
_atom_site_fract_x
_atom_site_fract_y
_atom_site_fract_z
Si Si1 0.000000 0.444627 0.250000
Si Si2 0.331109 0.878710 0.772814
Si Si3 0.647364 0.347522 0.468008
Si Si4 0.285320 0.674581 0.858031
O O1 0.100730 0.519677 0.164830
O O2 0.117850 0.378488 0.364696
O O3 0.500000 0.830067 0.750000
O O4 0.222369 0.906290 0.614913
O O5 0.254915 0.789527 0.846366
O O6 0.750000 0.250000 0.500000
O O7 0.681364 0.366378 0.302592
O O8 0.456497 0.343734 0.460731
#
# Coordination Sequence:
#
# PCOD9258973 Si02
#       4
#     4   8   8   8
#     4  10  22  34  52  86 108 134 178 218 268 308
#     4   9  18  36  53  76 108 138 174 219 255 311
#     4   9  15  33  59  75 101 146 177 207 268 311
#     4  10  18  34  58  79 105 143 174 218 265 313
#
# _framework density 26.483405999999999
#
# number of rings (size 3 to 8) (size 9 to 14) (size 15 to 20)
#    0.857    1.714    5.714    0.000    0.000    2.286 
#    0.000    8.571    0.000    0.000    0.000    0.000 
#    0.000    0.000    0.000    0.000    0.000    0.000 
#
# Total GULP energy -77981.481013 kJ/mol
# GULP energy per Si atom -5570.105787 kJ/mol
# Density = 2.642313 g / cm^3
# Si number density = 26.483406 Si / 1000 Ang^3
#
#
#
# Elastic Constant Matrix: (Units=GPa)
#
#
# Indices 1 2 3 4 5 6 
#
# 1 137.4941 79.8592 80.5507 0.0000 38.7121 0.0000
# 2 79.8592 164.4007 24.9313 0.0000 28.5906 0.0000
# 3 80.5507 24.9313 111.6019 0.0000 51.2082 0.0000
# 4 0.0000 0.0000 0.0000 28.9943 0.0000 15.3788
# 5 38.7121 28.5906 51.2082 0.0000 54.0793 0.0000
# 6 0.0000 0.0000 0.0000 15.3788 0.0000 53.5173
#
#
#
# Elastic Compliance Matrix: (Units=1/GPa)
#
#
# Indices 1 2 3 4 5 6 
#
# 1 0.018378 -0.007499 -0.013036 0.000000 0.003153 0.000000
# 2 -0.007499 0.009761 0.005546 0.000000 -0.005045 0.000000
# 3 -0.013036 0.005546 0.025099 0.000000 -0.017367 0.000000
# 4 0.000000 0.000000 0.000000 0.040692 0.000000 -0.011693
# 5 0.003153 -0.005045 -0.017367 0.000000 0.035347 0.000000
# 6 0.000000 0.000000 0.000000 -0.011693 0.000000 0.022046
#
#
# Mechanical properties :
#
#
# Convention : Reuss Voigt Hill
#
# Bulk Modulus (GPa) = 42.98823 87.13101 65.05962
# Shear Modulus (GPa) = 26.44756 42.52854 34.48805
#
# Velocity S-wave (km/s) = 3.16356 4.01166 3.61259
# Velocity P-wave (km/s) = 5.44165 7.37764 6.48233
#
# Compressibility (1/GPa) = 0.02326218
#
# Stress axis : x y z
#
# Youngs Moduli (GPa) = 54.41350 102.44417 39.84177
#
# Poissons Ratio (x) = 0.76818 0.51938
# Poissons Ratio (y) = 0.40802 -0.22098
# Poissons Ratio (z) = 0.70933 -0.56819
#
# Static dielectric constant tensor:
#      x y z
#    x 2.234910 0.000000 -0.072680 
#    y 0.000000 2.104340 0.000000 
#    z -0.072680 0.000000 2.228450 
# 
# From -- ./inp_files/75419.got.cif
#   From: 2010.05.17/outbox.cif.g08.bks.cpg/sg15_38_cif.got.tgz:75419.got - 2010.06.03 18:47:42.
