data_PCOD9258695
_publ_section_title
;
Structure prediction by ZEFSAII (Michael W. Deem and Ramdas Pophale) SiO2 
 PCOD9258695
Probable space group: C 2/C
;
_chemical_formula_sum "Si O2"
_cell_formula_units_Z 56
_cell_length_a 24.842201
_cell_length_b 17.559113
_cell_length_c 20.235068
_cell_angle_alpha 90.000000
_cell_angle_beta 22.393178
_cell_angle_gamma 90.000000
_cell_volume 3362.614051
_symmetry_space_group_name_H-M "C 2/C"
_symmetry_group_IT_number 15
_symmetry_cell_setting 'monoclinic'
loop_
_space_group_symop_operation_xyz
x,y,z
-x,y,1/2-z
-x,-y,-z
x,-y,1/2+z
1/2+x,1/2+y,z
1/2-x,1/2+y,1/2-z
1/2-x,1/2-y,-z
1/2+x,1/2-y,1/2+z
loop_
_atom_site_type_symbol
_atom_site_label
_atom_site_fract_x
_atom_site_fract_y
_atom_site_fract_z
Si Si1 0.587860 0.403504 0.451625
Si Si2 0.281986 0.520717 0.288923
Si Si3 0.489803 0.241785 0.561151
Si Si4 0.312934 0.227021 0.041741
Si Si5 0.013162 0.420614 0.024836
Si Si6 0.730609 0.396784 0.429519
Si Si7 0.168334 0.435534 0.049622
O O1 0.696526 0.447462 0.281440
O O2 0.433028 0.438727 0.619322
O O3 0.578529 0.315708 0.440969
O O4 0.629796 0.412927 0.481148
O O5 0.163489 0.572729 0.389701
O O6 0.227785 0.510148 0.424812
O O7 0.550033 0.225642 0.566827
O O8 0.327424 0.266822 0.753351
O O9 0.506480 0.164154 0.500579
O O10 0.303941 0.308264 0.014939
O O11 0.312268 0.151504 0.998782
O O12 0.000000 0.500000 0.000000
O O13 0.884558 0.412584 0.222535
O O14 0.740305 0.441439 0.487124
O O15 0.000000 0.447204 0.250000
#
# Coordination Sequence:
#
# PCOD9258695 Si02
#       7
#     8   8   8   8   8   8   8
#     4  10  21  36  53  74 104 141 180 221 261 307
#     4  11  21  36  52  72 106 142 175 220 262 304
#     4  10  18  34  52  75 103 142 178 217 259 308
#     4  10  19  32  47  72 107 145 173 205 250 318
#     4  11  19  34  54  76 106 137 181 221 256 311
#     4  10  21  31  51  75 105 142 181 208 254 315
#     4  12  20  33  50  75 109 146 176 212 261 311
#
# _framework density 16.65371
#
# number of rings (size 3 to 8) (size 9 to 14) (size 15 to 20)
#    0.000    1.429    5.714    1.286    0.000    0.571 
#    0.000    0.000    0.000    0.000    0.000    1.000 
#    0.000    0.286    0.000    0.286    0.000    0.000 
#
# Total GULP energy -155909.969055 kJ/mol
# GULP energy per Si atom -5568.213181 kJ/mol
# Density = 1.661581 g / cm^3
# Si number density = 16.653710 Si / 1000 Ang^3
#
#
#
# Elastic Constant Matrix: (Units=GPa)
#
#
# Indices 1 2 3 4 5 6 
#
# 1 71.1657 27.0547 17.2077 -0.0004 -3.8516 0.0004
# 2 27.0547 65.9610 15.4901 -0.0007 8.0208 0.0007
# 3 17.2077 15.4901 49.7178 -0.0003 -10.3232 0.0003
# 4 -0.0004 -0.0007 -0.0003 30.6296 0.0003 3.2479
# 5 -3.8516 8.0208 -10.3232 0.0003 28.6229 -0.0002
# 6 0.0004 0.0007 0.0003 3.2479 -0.0002 23.5992
#
#
#
# Elastic Compliance Matrix: (Units=1/GPa)
#
#
# Indices 1 2 3 4 5 6 
#
# 1 0.017616 -0.006817 -0.003334 0.000000 0.003078 0.000000
# 2 -0.006817 0.020379 -0.005801 0.000000 -0.008720 -0.000001
# 3 -0.003334 -0.005801 0.025207 0.000000 0.010268 0.000000
# 4 0.000000 0.000000 0.000000 0.033132 0.000000 -0.004560
# 5 0.003078 -0.008720 0.010268 0.000000 0.041498 0.000001
# 6 0.000000 -0.000001 0.000000 -0.004560 0.000001 0.043002
#
#
# Mechanical properties :
#
#
# Convention : Reuss Voigt Hill
#
# Bulk Modulus (GPa) = 31.94998 34.03885 32.99442
# Shear Modulus (GPa) = 22.40455 25.04313 23.72384
#
# Velocity S-wave (km/s) = 3.67184 3.88204 3.77840
# Velocity P-wave (km/s) = 6.09943 6.37002 6.23620
#
# Compressibility (1/GPa) = 0.03129893
#
# Stress axis : x y z
#
# Youngs Moduli (GPa) = 56.76663 49.07011 39.67204
#
# Poissons Ratio (x) = 0.33450 0.13227
# Poissons Ratio (y) = 0.38697 0.23012
# Poissons Ratio (z) = 0.18926 0.28463
#
# Static dielectric constant tensor:
#      x y z
#    x 1.596460 0.000000 -0.011000 
#    y 0.000000 1.607550 0.000000 
#    z -0.011000 0.000000 1.574080 
# 
# From -- ./inp_files/57932.got.cif
#   From: 2010.05.17/outbox.cif.g08.bks.cpg/sg15_29_cif.got.tgz:57932.got - 2010.06.03 18:47:42.
