data_PCOD9258602
_publ_section_title
;
Structure prediction by ZEFSAII (Michael W. Deem and Ramdas Pophale) SiO2 
 PCOD9258602
Probable space group: C 2/C
;
_chemical_formula_sum "Si O2"
_cell_formula_units_Z 44
_cell_length_a 9.043565
_cell_length_b 16.851930
_cell_length_c 22.722464
_cell_angle_alpha 90.000000
_cell_angle_beta 144.639456
_cell_angle_gamma 90.000000
_cell_volume 2004.070554
_symmetry_space_group_name_H-M "C 2/C"
_symmetry_group_IT_number 15
_symmetry_cell_setting 'monoclinic'
loop_
_space_group_symop_operation_xyz
x,y,z
-x,y,1/2-z
-x,-y,-z
x,-y,1/2+z
1/2+x,1/2+y,z
1/2-x,1/2+y,1/2-z
1/2-x,1/2-y,-z
1/2+x,1/2-y,1/2+z
loop_
_atom_site_type_symbol
_atom_site_label
_atom_site_fract_x
_atom_site_fract_y
_atom_site_fract_z
Si Si1 0.835862 0.865397 0.140036
Si Si2 0.933410 0.981128 0.546185
Si Si3 0.376862 0.008266 0.365412
Si Si4 0.208110 0.592629 0.774937
Si Si5 0.252116 0.180693 0.453323
Si Si6 0.000000 0.149016 0.250000
O O1 0.000000 0.835309 0.250000
O O2 0.042704 0.854910 0.156060
O O3 0.781145 0.959380 0.136451
O O4 0.554056 0.832899 0.039108
O O5 0.869506 0.894545 0.551422
O O6 0.668735 0.026988 0.474338
O O7 0.000000 0.000000 0.500000
O O8 0.180066 0.014483 0.658517
O O9 0.226231 0.088298 0.303992
O O10 0.396255 0.941179 0.320480
O O11 0.000000 0.629074 0.750000
O O12 0.250000 0.250000 0.500000
O O13 0.104009 0.191454 0.343058
#
# Coordination Sequence:
#
# PCOD9258602 Si02
#       6
#     8   8   8   8   8   4
#     4   9  19  39  63  96 136 171 223 280 347 409
#     4  11  21  35  61  99 135 164 224 303 338 401
#     4  10  18  33  60  98 125 168 218 283 347 393
#     4  11  18  31  57 104 133 162 214 280 349 396
#     4  11  25  44  67 100 141 196 235 282 363 441
#     4  12  20  40  72  94 136 176 244 286 344 430
#
# _framework density 21.955314000000001
#
# number of rings (size 3 to 8) (size 9 to 14) (size 15 to 20)
#    0.000    1.455    6.364    1.091    0.000    2.909 
#    0.000    8.182    0.000    3.273    0.000    0.000 
#    0.000    0.000    0.000    0.000    0.000    0.000 
#
# Total GULP energy -122653.832498 kJ/mol
# GULP energy per Si atom -5575.174204 kJ/mol
# Density = 2.190534 g / cm^3
# Si number density = 21.955314 Si / 1000 Ang^3
#
#
#
# Elastic Constant Matrix: (Units=GPa)
#
#
# Indices 1 2 3 4 5 6 
#
# 1 165.0725 33.6440 61.3673 -0.0003 7.6554 0.0000
# 2 33.6440 50.4019 38.0089 -0.0002 -1.7089 -0.0001
# 3 61.3673 38.0089 148.6481 -0.0010 -9.9074 -0.0001
# 4 -0.0003 -0.0002 -0.0010 13.2132 -0.0004 -8.9293
# 5 7.6554 -1.7089 -9.9074 -0.0004 47.2985 0.0000
# 6 0.0000 -0.0001 -0.0001 -8.9293 0.0000 10.3905
#
#
#
# Elastic Compliance Matrix: (Units=1/GPa)
#
#
# Indices 1 2 3 4 5 6 
#
# 1 0.007750 -0.003381 -0.002461 0.000000 -0.001892 0.000000
# 2 -0.003381 0.026064 -0.005243 0.000000 0.000391 0.000000
# 3 -0.002461 -0.005243 0.009226 0.000002 0.002142 0.000002
# 4 0.000000 0.000000 0.000002 0.180519 0.000002 0.155132
# 5 -0.001892 0.000391 0.002142 0.000002 0.021911 0.000002
# 6 0.000000 0.000000 0.000002 0.155132 0.000002 0.229558
#
#
# Mechanical properties :
#
#
# Convention : Reuss Voigt Hill
#
# Bulk Modulus (GPa) = 47.91352 70.01810 58.96581
# Shear Modulus (GPa) = 9.91759 29.58726 19.75242
#
# Velocity S-wave (km/s) = 2.12767 3.67497 3.00270
# Velocity P-wave (km/s) = 5.28266 7.06878 6.23996
#
# Compressibility (1/GPa) = 0.02087094
#
# Stress axis : x y z
#
# Youngs Moduli (GPa) = 129.03727 38.36639 108.38389
#
# Poissons Ratio (x) = 0.12973 0.26671
# Poissons Ratio (y) = 0.43633 0.56821
# Poissons Ratio (z) = 0.31754 0.20114
#
# Static dielectric constant tensor:
#      x y z
#    x 1.888840 0.000000 -0.045290 
#    y 0.000000 1.818670 0.000000 
#    z -0.045290 0.000000 1.857500 
# 
# From -- ./inp_files/265647.got.cif
#   From: 2010.05.17/outbox.cif.g08.bks.cpg/sg15_133_cif.got.tgz:265647.got - 2010.06.03 18:47:42.
