data_PCOD9258559
_publ_section_title
;
Structure prediction by ZEFSAII (Michael W. Deem and Ramdas Pophale) SiO2 
 PCOD9258559
Probable space group: C 2/C
;
_chemical_formula_sum "Si O2"
_cell_formula_units_Z 56
_cell_length_a 14.629652
_cell_length_b 14.737391
_cell_length_c 17.754339
_cell_angle_alpha 90.000000
_cell_angle_beta 126.622890
_cell_angle_gamma 90.000000
_cell_volume 3072.182552
_symmetry_space_group_name_H-M "C 2/C"
_symmetry_group_IT_number 15
_symmetry_cell_setting 'monoclinic'
loop_
_space_group_symop_operation_xyz
x,y,z
-x,y,1/2-z
-x,-y,-z
x,-y,1/2+z
1/2+x,1/2+y,z
1/2-x,1/2+y,1/2-z
1/2-x,1/2-y,-z
1/2+x,1/2-y,1/2+z
loop_
_atom_site_type_symbol
_atom_site_label
_atom_site_fract_x
_atom_site_fract_y
_atom_site_fract_z
Si Si1 0.401607 0.362314 0.640935
Si Si2 0.465717 0.753282 0.039426
Si Si3 0.908233 0.644937 0.773909
Si Si4 0.079876 0.087049 0.021346
Si Si5 0.250008 0.474493 0.786463
Si Si6 0.775650 0.310143 0.836383
Si Si7 0.516868 0.448559 0.172514
O O1 0.500000 0.334883 0.750000
O O2 0.388789 0.293446 0.566336
O O3 0.286367 0.368576 0.629363
O O4 0.445781 0.457941 0.634195
O O5 0.529084 0.831153 0.116812
O O6 0.551235 0.672558 0.059305
O O7 0.393672 0.779322 0.931116
O O8 0.847542 0.548320 0.752007
O O9 0.808785 0.722912 0.715798
O O10 0.000000 0.644455 0.750000
O O11 0.201906 0.051817 0.107393
O O12 0.044943 0.112882 0.919771
O O13 0.000000 0.000000 0.000000
O O14 0.217701 0.380326 0.729262
O O15 0.355237 0.523074 0.791179
O O16 0.500000 0.416314 0.250000
#
# Coordination Sequence:
#
# PCOD9258559 Si02
#       7
#     8   8   8   8   8   8   8
#     4  11  16  33  57  92 124 152 194 266 301 358
#     4  12  21  35  61  92 128 158 211 256 315 372
#     4  12  25  40  61  99 130 162 209 262 314 377
#     4  10  18  34  58  89 119 160 213 255 300 367
#     4  11  22  38  60  90 131 168 199 257 326 369
#     4  12  21  36  62  91 128 166 197 261 322 359
#     4  10  18  33  59  88 121 154 215 258 299 365
#
# _framework density 18.228083000000002
#
# number of rings (size 3 to 8) (size 9 to 14) (size 15 to 20)
#    0.000    0.857   10.000    2.143    0.000    0.571 
#    0.000    0.000    0.000    4.286    0.000    0.000 
#    0.000    0.000    0.000    0.000    0.000    0.000 
#
# Total GULP energy -155919.063699 kJ/mol
# GULP energy per Si atom -5568.537989 kJ/mol
# Density = 1.818660 g / cm^3
# Si number density = 18.228083 Si / 1000 Ang^3
#
#
#
# Elastic Constant Matrix: (Units=GPa)
#
#
# Indices 1 2 3 4 5 6 
#
# 1 40.9318 30.1209 17.7916 0.0000 -2.1292 0.0000
# 2 30.1209 80.1632 37.1459 0.0000 8.5233 0.0000
# 3 17.7916 37.1459 118.4204 0.0000 -8.8935 0.0000
# 4 0.0000 0.0000 0.0000 20.4673 0.0000 -19.1458
# 5 -2.1292 8.5233 -8.8935 0.0000 29.4781 0.0000
# 6 0.0000 0.0000 0.0000 -19.1458 0.0000 -9.8653
#
#
#
# Elastic Compliance Matrix: (Units=1/GPa)
#
#
# Indices 1 2 3 4 5 6 
#
# 1 0.034968 -0.013564 -0.000527 0.000000 0.006289 0.000000
# 2 -0.013564 0.020869 -0.005152 0.000000 -0.008568 0.000000
# 3 -0.000527 -0.005152 0.010486 0.000000 0.004615 0.000000
# 4 0.000000 0.000000 0.000000 0.017354 0.000000 -0.033679
# 5 0.006289 -0.008568 0.004615 0.000000 0.038248 0.000000
# 6 0.000000 0.000000 0.000000 -0.033679 0.000000 -0.036004
#
#
# Mechanical properties :
#
#
# Convention : Reuss Voigt Hill
#
# Bulk Modulus (GPa) = 35.92064 45.51471 40.71767
# Shear Modulus (GPa) = 37.40107 18.31316 27.85712
#
# Velocity S-wave (km/s) = 4.53464 3.17309 3.91353
# Velocity P-wave (km/s) = 6.86777 6.20068 6.54273
#
# Compressibility (1/GPa) = 0.02783915
#
# Stress axis : x y z
#
# Youngs Moduli (GPa) = 28.59736 47.91715 95.36270
#
# Poissons Ratio (x) = 0.64993 0.05023
# Poissons Ratio (y) = 0.38789 0.49130
# Poissons Ratio (z) = 0.01506 0.24687
#
# Static dielectric constant tensor:
#      x y z
#    x 1.662470 0.000000 -0.037830 
#    y 0.000000 1.631100 0.000000 
#    z -0.037830 0.000000 1.723260 
# 
# From -- ./inp_files/205487.got.cif
#   From: 2010.05.17/outbox.cif.g08.bks.cpg/sg15_103_cif.got.tgz:205487.got - 2010.06.03 18:47:42.
