data_PCOD9258435
_publ_section_title
;
Structure prediction by ZEFSAII (Michael W. Deem and Ramdas Pophale) SiO2 
 PCOD9258435
Probable space group: C 2/C
;
_chemical_formula_sum "Si O2"
_cell_formula_units_Z 64
_cell_length_a 9.331846
_cell_length_b 16.693062
_cell_length_c 17.041100
_cell_angle_alpha 90.000000
_cell_angle_beta 89.504426
_cell_angle_gamma 90.000000
_cell_volume 2654.513566
_symmetry_space_group_name_H-M "C 2/C"
_symmetry_group_IT_number 15
_symmetry_cell_setting 'monoclinic'
loop_
_space_group_symop_operation_xyz
x,y,z
-x,y,1/2-z
-x,-y,-z
x,-y,1/2+z
1/2+x,1/2+y,z
1/2-x,1/2+y,1/2-z
1/2-x,1/2-y,-z
1/2+x,1/2-y,1/2+z
loop_
_atom_site_type_symbol
_atom_site_label
_atom_site_fract_x
_atom_site_fract_y
_atom_site_fract_z
Si Si1 0.661919 0.011601 0.474165
Si Si2 0.255190 0.908466 0.157541
Si Si3 0.345219 0.611133 0.076126
Si Si4 0.030541 0.999959 0.828822
Si Si5 0.911594 0.784719 0.442993
Si Si6 0.285844 0.630829 0.587204
Si Si7 0.348765 0.214545 0.774787
Si Si8 0.870013 0.666890 0.306106
O O1 0.673914 0.985013 0.384054
O O2 0.759772 0.945089 0.516844
O O3 0.500000 0.000000 0.500000
O O4 0.714710 0.095091 0.509481
O O5 0.212038 0.835777 0.100168
O O6 0.343828 0.867697 0.224907
O O7 0.099385 0.938294 0.182944
O O8 0.486822 0.561500 0.098574
O O9 0.255243 0.611295 0.157795
O O10 0.373323 0.696478 0.034676
O O11 0.000000 0.950741 0.750000
O O12 0.162283 0.056732 0.856503
O O13 0.922212 0.704935 0.389807
O O14 0.066561 0.825160 0.433097
O O15 0.179604 0.688459 0.635858
O O16 0.500000 0.252846 0.750000
O O17 0.213962 0.266888 0.745479
O O18 0.000000 0.637674 0.250000
#
# Coordination Sequence:
#
# PCOD9258435 Si02
#       8
#     8   8   8   8   8   8   8   8
#     4  10  20  36  54  83 122 154 185 243 308 365
#     4   9  18  32  56  85 115 148 188 243 301 348
#     4  10  22  37  57  88 115 157 199 244 300 360
#     4  10  18  33  56  87 120 150 192 241 297 361
#     4   9  18  35  63  83 105 147 206 248 284 349
#     4  10  18  33  60  88 115 150 200 244 296 352
#     4  11  21  34  59  91 118 154 206 255 294 349
#     4  11  22  40  61  82 117 163 207 251 293 352
#
# _framework density 24.10988
#
# number of rings (size 3 to 8) (size 9 to 14) (size 15 to 20)
#    0.000    2.000    2.500    1.875    0.000    3.500 
#    2.250    1.250    2.750    1.500    0.000    0.000 
#    0.000    0.000    0.000    0.000    0.000    0.000 
#
# Total GULP energy -178257.053071 kJ/mol
# GULP energy per Si atom -5570.532908 kJ/mol
# Density = 2.405500 g / cm^3
# Si number density = 24.109880 Si / 1000 Ang^3
#
#
#
# Elastic Constant Matrix: (Units=GPa)
#
#
# Indices 1 2 3 4 5 6 
#
# 1 65.2880 -2.4523 8.6218 0.0000 -9.7677 0.0000
# 2 -2.4523 30.1199 -2.4120 0.0000 0.1734 0.0000
# 3 8.6218 -2.4120 44.7453 0.0000 -20.3788 0.0000
# 4 0.0000 0.0000 0.0000 9.2551 0.0000 -14.0950
# 5 -9.7677 0.1734 -20.3788 0.0000 42.3367 0.0000
# 6 0.0000 0.0000 0.0000 -14.0950 0.0000 15.3697
#
#
#
# Elastic Compliance Matrix: (Units=1/GPa)
#
#
# Indices 1 2 3 4 5 6 
#
# 1 0.016015 0.001150 -0.001720 0.000000 0.002862 0.000000
# 2 0.001150 0.033456 0.002101 0.000000 0.001140 0.000000
# 3 -0.001720 0.002101 0.028957 0.000000 0.013533 0.000000
# 4 0.000000 0.000000 0.000000 -0.272402 0.000000 -0.249811
# 5 0.002862 0.001140 0.013533 0.000000 0.030790 0.000000
# 6 0.000000 0.000000 0.000000 -0.249811 0.000000 -0.164031
#
#
# Mechanical properties :
#
#
# Convention : Reuss Voigt Hill
#
# Bulk Modulus (GPa) = 12.27167 16.40756 14.33961
# Shear Modulus (GPa) = -16.49557 22.48534 2.99489
#
# Velocity S-wave (km/s) = -2.61853 3.05719 1.11574
# Velocity P-wave (km/s) = 2.01030 4.39113 2.76050
#
# Compressibility (1/GPa) = 0.08148852
#
# Stress axis : x y z
#
# Youngs Moduli (GPa) = 62.44015 29.89005 34.53414
#
# Poissons Ratio (x) = -0.03436 0.05941
# Poissons Ratio (y) = -0.07179 -0.07255
# Poissons Ratio (z) = 0.10742 -0.06280
#
# Static dielectric constant tensor:
#      x y z
#    x 1.925460 0.000000 -0.027290 
#    y 0.000000 2.070630 0.000000 
#    z -0.027290 0.000000 2.062060 
# 
# From -- ./inp_files/192140.got.cif
#   From: 2010.05.17/outbox.cif.g08.bks.cpg/sg15_97_cif.got.tgz:192140.got - 2010.06.03 18:47:42.
