data_PCOD9258153
_publ_section_title
;
Structure prediction by ZEFSAII (Michael W. Deem and Ramdas Pophale) SiO2 
 PCOD9258153
Probable space group: C 2/C
;
_chemical_formula_sum "Si O2"
_cell_formula_units_Z 44
_cell_length_a 14.027346
_cell_length_b 21.386950
_cell_length_c 9.386356
_cell_angle_alpha 90.000000
_cell_angle_beta 39.647577
_cell_angle_gamma 90.000000
_cell_volume 1796.740450
_symmetry_space_group_name_H-M "C 2/C"
_symmetry_group_IT_number 15
_symmetry_cell_setting 'monoclinic'
loop_
_space_group_symop_operation_xyz
x,y,z
-x,y,1/2-z
-x,-y,-z
x,-y,1/2+z
1/2+x,1/2+y,z
1/2-x,1/2+y,1/2-z
1/2-x,1/2-y,-z
1/2+x,1/2-y,1/2+z
loop_
_atom_site_type_symbol
_atom_site_label
_atom_site_fract_x
_atom_site_fract_y
_atom_site_fract_z
Si Si1 0.535291 0.383751 0.912750
Si Si2 0.855419 0.672864 0.317961
Si Si3 0.543987 0.126618 0.859451
Si Si4 0.707739 0.699727 0.759140
Si Si5 0.205912 0.952016 0.494588
Si Si6 0.000000 0.063227 0.750000
O O1 0.455317 0.317182 0.992796
O O2 0.406673 0.430802 0.001329
O O3 0.558022 0.398584 0.049439
O O4 0.674025 0.400876 0.655380
O O5 0.738285 0.659292 0.578830
O O6 0.792074 0.729915 0.296593
O O7 0.000000 0.692585 0.250000
O O8 0.919242 0.625613 0.126775
O O9 0.500000 0.144508 0.750000
O O10 0.666617 0.176591 0.776766
O O11 0.628184 0.059869 0.748466
O O12 0.140933 0.017258 0.622223
#
# Coordination Sequence:
#
# PCOD9258153 Si02
#       6
#     8   8   8   8   8   4
#     4   9  18  32  57  85 106 137 180 234 288 320
#     4   9  19  37  56  79 113 150 185 227 277 330
#     4  10  21  37  54  79 112 157 184 220 276 338
#     4   9  19  37  57  79 112 143 188 238 269 325
#     4   9  18  36  51  77 118 137 173 235 283 325
#     4  10  18  32  62  88 104 140 188 240 286 326
#
# _framework density 24.488790000000002
#
# number of rings (size 3 to 8) (size 9 to 14) (size 15 to 20)
#    0.000    2.909    0.000    2.182    1.273    2.182 
#   13.091    0.000    0.000   18.545    0.000    0.000 
#    0.000    0.000    0.000    0.000    0.000    0.000 
#
# Total GULP energy -122745.984915 kJ/mol
# GULP energy per Si atom -5579.362951 kJ/mol
# Density = 2.443305 g / cm^3
# Si number density = 24.488790 Si / 1000 Ang^3
#
#
#
# Elastic Constant Matrix: (Units=GPa)
#
#
# Indices 1 2 3 4 5 6 
#
# 1 107.0025 11.3332 17.4198 0.0000 28.0408 0.0000
# 2 11.3332 31.0914 13.8264 0.0000 -5.5641 0.0000
# 3 17.4198 13.8264 119.9111 0.0000 5.8647 0.0000
# 4 0.0000 0.0000 0.0000 5.1542 0.0000 17.4152
# 5 28.0408 -5.5641 5.8647 0.0000 34.6084 0.0000
# 6 0.0000 0.0000 0.0000 17.4152 0.0000 11.4299
#
#
#
# Elastic Compliance Matrix: (Units=1/GPa)
#
#
# Indices 1 2 3 4 5 6 
#
# 1 0.013200 -0.006641 -0.000581 0.000000 -0.011664 0.000000
# 2 -0.006641 0.038598 -0.004086 0.000000 0.012279 0.000000
# 3 -0.000581 -0.004086 0.008979 0.000000 -0.001707 0.000000
# 4 0.000000 0.000000 0.000000 -0.046771 0.000000 0.071263
# 5 -0.011664 0.012279 -0.001707 0.000000 0.040609 0.000000
# 6 0.000000 0.000000 0.000000 0.071263 0.000000 -0.021091
#
#
# Mechanical properties :
#
#
# Convention : Reuss Voigt Hill
#
# Bulk Modulus (GPa) = 26.20511 38.12931 32.16721
# Shear Modulus (GPa) = 72.60967 24.60019 48.60493
#
# Velocity S-wave (km/s) = 5.45110 3.17290 4.45992
# Velocity P-wave (km/s) = 7.09531 5.38767 6.29962
#
# Compressibility (1/GPa) = 0.03816050
#
# Stress axis : x y z
#
# Youngs Moduli (GPa) = 75.75561 25.90775 111.37495
#
# Poissons Ratio (x) = 0.17204 0.06476
# Poissons Ratio (y) = 0.50306 0.45513
# Poissons Ratio (z) = 0.04405 0.10587
#
# Static dielectric constant tensor:
#      x y z
#    x 1.974210 0.000000 -0.052260 
#    y 0.000000 1.985360 0.000000 
#    z -0.052260 0.000000 1.968790 
# 
# From -- ./inp_files/43353.got.cif
#   From: 2010.05.17/outbox.cif.g08.bks.cpg/sg15_22_cif.got.tgz:43353.got - 2010.06.03 18:47:42.
