data_PCOD9258901
_publ_section_title
;
Structure prediction by ZEFSAII (Michael W. Deem and Ramdas Pophale) SiO2 
 PCOD9258901
Probable space group: C 2/C
;
_chemical_formula_sum "Si O2"
_cell_formula_units_Z 56
_cell_length_a 13.235747
_cell_length_b 7.435691
_cell_length_c 24.121895
_cell_angle_alpha 90.000000
_cell_angle_beta 118.744120
_cell_angle_gamma 90.000000
_cell_volume 2081.468883
_symmetry_space_group_name_H-M "C 2/C"
_symmetry_group_IT_number 15
_symmetry_cell_setting 'monoclinic'
loop_
_space_group_symop_operation_xyz
x,y,z
-x,y,1/2-z
-x,-y,-z
x,-y,1/2+z
1/2+x,1/2+y,z
1/2-x,1/2+y,1/2-z
1/2-x,1/2-y,-z
1/2+x,1/2-y,1/2+z
loop_
_atom_site_type_symbol
_atom_site_label
_atom_site_fract_x
_atom_site_fract_y
_atom_site_fract_z
Si Si1 0.240194 0.280742 0.839530
Si Si2 0.486112 0.761934 0.186656
Si Si3 0.609646 0.575153 0.894807
Si Si4 0.116834 0.239782 0.615886
Si Si5 0.619479 0.587249 0.508597
Si Si6 0.485338 0.104634 0.919878
Si Si7 0.225609 0.051287 0.255506
O O1 0.163183 0.233797 0.872285
O O2 0.369287 0.226485 0.893202
O O3 0.232784 0.455172 0.797811
O O4 0.209584 0.133855 0.783776
O O5 0.500000 0.849036 0.250000
O O6 0.395638 0.604803 0.145116
O O7 0.487922 0.904646 0.138423
O O8 0.605030 0.650653 0.218234
O O9 0.479673 0.622224 0.878869
O O10 0.667511 0.530329 0.970081
O O11 0.180418 0.133820 0.582652
O O12 0.043667 0.405135 0.568361
O O13 0.193876 0.339232 0.681071
O O14 0.500000 0.500000 0.500000
O O15 0.586558 0.776496 0.471621
#
# Coordination Sequence:
#
# PCOD9258901 Si02
#       7
#     8   8   8   8   8   8   8
#     4  10  20  37  55  85 113 147 185 236 283 337
#     4  10  18  34  57  76 111 149 187 223 277 349
#     4  10  20  36  61  83 107 148 198 228 275 346
#     4  10  20  35  55  84 114 144 186 237 290 325
#     4   9  19  38  62  78 108 156 196 228 280 344
#     4   9  20  36  56  80 115 147 182 237 293 320
#     4  10  20  33  53  82 113 145 179 231 288 332
#
# _framework density 26.904076
#
# number of rings (size 3 to 8) (size 9 to 14) (size 15 to 20)
#    0.000    2.286    1.429    1.286    0.000    1.143 
#    7.714    5.714    3.143    0.000    0.000    0.000 
#    0.000    0.000    0.000    0.000    0.000    0.000 
#
# Total GULP energy -156475.525568 kJ/mol
# GULP energy per Si atom -5588.411627 kJ/mol
# Density = 2.684284 g / cm^3
# Si number density = 26.904076 Si / 1000 Ang^3
#
#
#
# Elastic Constant Matrix: (Units=GPa)
#
#
# Indices 1 2 3 4 5 6 
#
# 1 69.0170 3.2621 32.2406 0.0000 -21.1987 0.0000
# 2 3.2621 59.9350 10.5573 0.0000 -10.0347 0.0000
# 3 32.2406 10.5573 149.6354 0.0000 -53.7360 0.0000
# 4 0.0000 0.0000 0.0000 37.5498 0.0000 0.8843
# 5 -21.1987 -10.0347 -53.7360 0.0000 43.6499 0.0000
# 6 0.0000 0.0000 0.0000 0.8843 0.0000 25.5313
#
#
#
# Elastic Compliance Matrix: (Units=1/GPa)
#
#
# Indices 1 2 3 4 5 6 
#
# 1 0.017173 0.000441 -0.001254 0.000000 0.006897 0.000000
# 2 0.000441 0.017376 0.000341 0.000000 0.004629 0.000000
# 3 -0.001254 0.000341 0.012078 0.000000 0.014338 0.000000
# 4 0.000000 0.000000 0.000000 0.026653 0.000000 -0.000923
# 5 0.006897 0.004629 0.014338 0.000000 0.044975 0.000000
# 6 0.000000 0.000000 0.000000 -0.000923 0.000000 0.039200
#
#
# Mechanical properties :
#
#
# Convention : Reuss Voigt Hill
#
# Bulk Modulus (GPa) = 21.89004 41.18971 31.53988
# Shear Modulus (GPa) = 28.79762 36.84801 32.82282
#
# Velocity S-wave (km/s) = 3.27522 3.70484 3.49663
# Velocity P-wave (km/s) = 4.73885 5.80036 5.29627
#
# Compressibility (1/GPa) = 0.04568288
#
# Stress axis : x y z
#
# Youngs Moduli (GPa) = 58.23168 57.55194 82.79406
#
# Poissons Ratio (x) = -0.02538 0.10385
# Poissons Ratio (y) = -0.02568 -0.02826
# Poissons Ratio (z) = 0.07304 -0.01965
#
# Static dielectric constant tensor:
#      x y z
#    x 2.194280 0.000000 -0.040120 
#    y 0.000000 2.187860 0.000000 
#    z -0.040120 0.000000 2.159150 
# 
# From -- ./inp_files/272844.got.cif
#   From: 2010.05.17/outbox.cif.g08.bks.cpg/sg15_137_cif.got.tgz:272844.got - 2010.06.03 18:47:42.
