data_PCOD9258845
_publ_section_title
;
Structure prediction by ZEFSAII (Michael W. Deem and Ramdas Pophale) SiO2 
 PCOD9258845
Probable space group: C 2/C
;
_chemical_formula_sum "Si O2"
_cell_formula_units_Z 52
_cell_length_a 8.226153
_cell_length_b 21.613451
_cell_length_c 16.436284
_cell_angle_alpha 90.000000
_cell_angle_beta 121.271646
_cell_angle_gamma 90.000000
_cell_volume 2497.734531
_symmetry_space_group_name_H-M "C 2/C"
_symmetry_group_IT_number 15
_symmetry_cell_setting 'monoclinic'
loop_
_space_group_symop_operation_xyz
x,y,z
-x,y,1/2-z
-x,-y,-z
x,-y,1/2+z
1/2+x,1/2+y,z
1/2-x,1/2+y,1/2-z
1/2-x,1/2-y,-z
1/2+x,1/2-y,1/2+z
loop_
_atom_site_type_symbol
_atom_site_label
_atom_site_fract_x
_atom_site_fract_y
_atom_site_fract_z
Si Si1 0.906101 0.579134 0.554214
Si Si2 0.439419 0.799690 0.143977
Si Si3 0.076456 0.539123 0.355172
Si Si4 0.930772 0.342511 0.896579
Si Si5 0.500000 0.639914 0.250000
Si Si6 0.539490 0.594047 0.077102
Si Si7 0.007490 0.774521 0.504446
O O1 0.978575 0.627905 0.639903
O O2 0.980550 0.510597 0.591174
O O3 0.951432 0.615285 0.482878
O O4 0.677037 0.576980 0.498105
O O5 0.500000 0.783246 0.250000
O O6 0.538968 0.759554 0.099223
O O7 0.216801 0.789094 0.067292
O O8 0.302667 0.545515 0.407419
O O9 0.000000 0.515045 0.250000
O O10 0.998087 0.608695 0.347126
O O11 0.705556 0.329627 0.824602
O O12 0.040146 0.277915 0.943292
O O13 0.544184 0.604786 0.176281
O O14 0.589366 0.657243 0.040123
#
# Coordination Sequence:
#
# PCOD9258845 Si02
#       7
#     8   8   8   8   4   8   8
#     4   9  20  37  54  79 108 143 185 223 270 314
#     4   9  16  29  53  79 106 137 186 235 256 311
#     4  12  22  35  56  83 110 146 184 220 271 335
#     4  10  21  36  55  82 110 143 179 225 276 323
#     4  10  18  34  56  80 108 134 184 228 264 314
#     4  10  21  36  55  82 110 143 179 225 276 323
#     4   9  20  31  50  84 110 142 180 218 290 318
#
# _framework density 20.818864999999999
#
# number of rings (size 3 to 8) (size 9 to 14) (size 15 to 20)
#    0.000    2.154    1.538    4.154    4.308    0.615 
#    0.000    0.000    0.000    0.000    0.000    0.000 
#    0.000    0.000    0.000    0.000    0.000    0.000 
#
# Total GULP energy -144778.544913 kJ/mol
# GULP energy per Si atom -5568.405574 kJ/mol
# Density = 2.077148 g / cm^3
# Si number density = 20.818865 Si / 1000 Ang^3
#
#
#
# Elastic Constant Matrix: (Units=GPa)
#
#
# Indices 1 2 3 4 5 6 
#
# 1 10.1434 -3.0908 -2.4929 0.0000 -4.1208 0.0000
# 2 -3.0908 99.4261 27.9537 0.0000 -8.1715 0.0000
# 3 -2.4929 27.9537 94.7851 0.0000 -17.7891 0.0000
# 4 0.0000 0.0000 0.0000 -18.0906 0.0000 0.5900
# 5 -4.1208 -8.1715 -17.7891 0.0000 23.2604 0.0000
# 6 0.0000 0.0000 0.0000 0.5900 0.0000 10.9499
#
#
#
# Elastic Compliance Matrix: (Units=1/GPa)
#
#
# Indices 1 2 3 4 5 6 
#
# 1 0.112110 0.003742 0.006794 0.000000 0.026372 0.000000
# 2 0.003742 0.011144 -0.002719 0.000000 0.002498 0.000000
# 3 0.006794 -0.002719 0.013518 0.000000 0.010586 0.000000
# 4 0.000000 0.000000 0.000000 -0.055180 0.000000 0.002973
# 5 0.026372 0.002498 0.010586 0.000000 0.056638 0.000000
# 6 0.000000 0.000000 0.000000 0.002973 0.000000 0.091165
#
#
# Mechanical properties :
#
#
# Convention : Reuss Voigt Hill
#
# Bulk Modulus (GPa) = 6.56141 27.67720 17.11931
# Shear Modulus (GPa) = 18.89926 15.35626 17.12776
#
# Velocity S-wave (km/s) = 3.01623 2.71885 2.87139
# Velocity P-wave (km/s) = 3.91008 4.81449 4.38566
#
# Compressibility (1/GPa) = 0.15240620
#
# Stress axis : x y z
#
# Youngs Moduli (GPa) = 8.91983 89.73530 73.97727
#
# Poissons Ratio (x) = -0.33581 -0.50263
# Poissons Ratio (y) = -0.03338 0.20116
# Poissons Ratio (z) = -0.06060 0.24401
#
# Static dielectric constant tensor:
#      x y z
#    x 1.776980 0.000000 -0.020730 
#    y 0.000000 1.806030 0.000000 
#    z -0.020730 0.000000 1.732770 
# 
# From -- ./inp_files/192611.got.cif
#   From: 2010.05.17/outbox.cif.g08.bks.cpg/sg15_97_cif.got.tgz:192611.got - 2010.06.03 18:47:42.
