data_PCOD9258190
_publ_section_title
;
Structure prediction by ZEFSAII (Michael W. Deem and Ramdas Pophale) SiO2 
 PCOD9258190
Probable space group: C 2/C
;
_chemical_formula_sum "Si O2"
_cell_formula_units_Z 60
_cell_length_a 12.677324
_cell_length_b 17.052211
_cell_length_c 11.711206
_cell_angle_alpha 90.000000
_cell_angle_beta 80.532295
_cell_angle_gamma 90.000000
_cell_volume 2497.200966
_symmetry_space_group_name_H-M "C 2/C"
_symmetry_group_IT_number 15
_symmetry_cell_setting 'monoclinic'
loop_
_space_group_symop_operation_xyz
x,y,z
-x,y,1/2-z
-x,-y,-z
x,-y,1/2+z
1/2+x,1/2+y,z
1/2-x,1/2+y,1/2-z
1/2-x,1/2-y,-z
1/2+x,1/2-y,1/2+z
loop_
_atom_site_type_symbol
_atom_site_label
_atom_site_fract_x
_atom_site_fract_y
_atom_site_fract_z
Si Si1 0.161712 0.005291 0.055043
Si Si2 0.500000 0.432260 0.750000
Si Si3 0.785888 0.376789 0.927138
Si Si4 0.870195 0.630247 0.656948
Si Si5 0.635465 0.959569 0.813254
Si Si6 0.347687 0.704066 0.213744
Si Si7 0.158636 0.309766 0.925090
Si Si8 0.210357 0.855221 0.386758
O O1 0.058035 0.015187 0.147775
O O2 0.261027 0.024888 0.123605
O O3 0.163024 0.067873 0.952586
O O4 0.185343 0.921624 0.999387
O O5 0.579774 0.372150 0.797980
O O6 0.835089 0.434170 0.820821
O O7 0.741314 0.301581 0.869857
O O8 0.858797 0.363548 0.023119
O O9 0.920773 0.544410 0.671169
O O10 0.911395 0.715512 0.687901
O O11 0.759610 0.629672 0.752968
O O12 0.591291 0.878761 0.877082
O O13 0.274425 0.693825 0.339269
O O14 0.129416 0.218632 0.913541
O O15 0.187838 0.334111 0.048323
#
# Coordination Sequence:
#
# PCOD9258190 Si02
#       8
#     8   4   8   8   8   8   8   8
#     4  10  19  30  49  71  98 137 161 203 241 291
#     4  12  20  34  48  68 106 140 174 196 226 304
#     4  10  18  33  48  70 105 126 160 208 252 296
#     4  10  19  28  51  72 100 126 159 214 258 293
#     4   9  16  31  46  74  97 123 161 207 256 293
#     4  10  20  33  46  73  97 137 167 194 250 292
#     4   8  15  27  47  66  95 115 158 213 244 285
#     4   9  14  27  44  70  92 117 161 202 252 286
#
# _framework density 24.026900999999999
#
# number of rings (size 3 to 8) (size 9 to 14) (size 15 to 20)
#    0.000    2.400    5.333    0.400    0.000    0.533 
#    0.000    0.000    0.000    0.000    0.000    3.733 
#    0.000    0.000    0.000    0.133    0.000    0.000 
#
# Total GULP energy -167280.814904 kJ/mol
# GULP energy per Si atom -5576.027163 kJ/mol
# Density = 2.397221 g / cm^3
# Si number density = 24.026901 Si / 1000 Ang^3
#
#
#
# Elastic Constant Matrix: (Units=GPa)
#
#
# Indices 1 2 3 4 5 6 
#
# 1 33.1643 -1.3761 26.9842 0.0000 8.3749 0.0000
# 2 -1.3761 103.6915 12.3836 0.0000 7.5263 0.0000
# 3 26.9842 12.3836 136.8029 0.0000 17.2030 0.0000
# 4 0.0000 0.0000 0.0000 35.5462 0.0000 -2.4405
# 5 8.3749 7.5263 17.2030 0.0000 23.1180 0.0000
# 6 0.0000 0.0000 0.0000 -2.4405 0.0000 -5.3976
#
#
#
# Elastic Compliance Matrix: (Units=1/GPa)
#
#
# Indices 1 2 3 4 5 6 
#
# 1 0.037900 0.001968 -0.006450 0.000000 -0.009571 0.000000
# 2 0.001968 0.010016 -0.000877 0.000000 -0.003321 0.000000
# 3 -0.006450 -0.000877 0.009192 0.000000 -0.004218 0.000000
# 4 0.000000 0.000000 0.000000 0.027285 0.000000 -0.012337
# 5 -0.009571 -0.003321 -0.004218 0.000000 0.050943 0.000000
# 6 0.000000 0.000000 0.000000 -0.012337 0.000000 -0.179690
#
#
# Mechanical properties :
#
#
# Convention : Reuss Voigt Hill
#
# Bulk Modulus (GPa) = 21.55708 38.84913 30.20311
# Shear Modulus (GPa) = -275.15422 26.36446 -124.39488
#
# Velocity S-wave (km/s) = -10.71298 3.31613 -7.20316
# Velocity P-wave (km/s) = 12.00134 5.55575 7.52216
#
# Compressibility (1/GPa) = 0.04638846
#
# Stress axis : x y z
#
# Youngs Moduli (GPa) = 26.38540 99.84101 108.79162
#
# Poissons Ratio (x) = -0.19649 0.70174
# Poissons Ratio (y) = -0.05193 0.09544
# Poissons Ratio (z) = 0.17019 0.08758
#
# Static dielectric constant tensor:
#      x y z
#    x 2.001140 0.000000 0.024970 
#    y 0.000000 2.027570 0.000000 
#    z 0.024970 0.000000 1.901440 
# 
# From -- ./inp_files/99414.got.cif
#   From: 2010.05.17/outbox.cif.g08.bks.cpg/sg15_50_cif.got.tgz:99414.got - 2010.06.03 18:47:42.
