data_PCOD9258262
_publ_section_title
;
Structure prediction by ZEFSAII (Michael W. Deem and Ramdas Pophale) SiO2 
 PCOD9258262
Probable space group: C 2/C
;
_chemical_formula_sum "Si O2"
_cell_formula_units_Z 36
_cell_length_a 16.905811
_cell_length_b 16.883740
_cell_length_c 8.868598
_cell_angle_alpha 90.000000
_cell_angle_beta 147.403802
_cell_angle_gamma 90.000000
_cell_volume 1363.699266
_symmetry_space_group_name_H-M "C 2/C"
_symmetry_group_IT_number 15
_symmetry_cell_setting 'monoclinic'
loop_
_space_group_symop_operation_xyz
x,y,z
-x,y,1/2-z
-x,-y,-z
x,-y,1/2+z
1/2+x,1/2+y,z
1/2-x,1/2+y,1/2-z
1/2-x,1/2-y,-z
1/2+x,1/2-y,1/2+z
loop_
_atom_site_type_symbol
_atom_site_label
_atom_site_fract_x
_atom_site_fract_y
_atom_site_fract_z
Si Si1 0.500000 0.586682 0.250000
Si Si2 0.210773 0.610200 0.119712
Si Si3 0.537566 0.844708 0.063783
Si Si4 0.484645 0.667483 0.924807
Si Si5 0.763051 0.437179 0.351109
O O1 0.546035 0.642895 0.189374
O O2 0.634308 0.537232 0.525979
O O3 0.372282 0.637550 0.435342
O O4 0.196290 0.522624 0.022038
O O5 0.145412 0.666436 0.882089
O O6 0.098828 0.610486 0.079583
O O7 0.478114 0.761212 0.906540
O O8 0.618250 0.891375 0.058732
O O9 0.329631 0.621665 0.690374
#
# Coordination Sequence:
#
# PCOD9258262 Si02
#       5
#     4   8   8   8   8
#     4   8  18  30  52  72 108 126 174 208 254 292
#     4  11  20  30  52  79 109 137 163 211 272 300
#     4  11  20  32  52  79 109 129 169 223 255 296
#     4  10  18  33  53  75 106 131 171 214 258 293
#     4  10  20  33  48  80 109 134 169 212 261 307
#
# _framework density 26.398783999999999
#
# number of rings (size 3 to 8) (size 9 to 14) (size 15 to 20)
#    1.333    0.444    2.222    4.667    0.000    0.000 
#    0.000    0.000    0.000    0.000    0.000   48.222 
#    0.000    0.000    0.000    0.000    0.000    0.000 
#
# Total GULP energy -100481.704047 kJ/mol
# GULP energy per Si atom -5582.316892 kJ/mol
# Density = 2.633870 g / cm^3
# Si number density = 26.398784 Si / 1000 Ang^3
#
#
#
# Elastic Constant Matrix: (Units=GPa)
#
#
# Indices 1 2 3 4 5 6 
#
# 1 129.1044 28.3148 45.4251 0.0000 48.3724 0.0000
# 2 28.3148 170.8076 22.2989 0.0000 31.6912 0.0000
# 3 45.4251 22.2989 112.1659 0.0000 32.8980 0.0000
# 4 0.0000 0.0000 0.0000 26.1271 0.0000 2.3375
# 5 48.3724 31.6912 32.8980 0.0000 58.5745 0.0000
# 6 0.0000 0.0000 0.0000 2.3375 0.0000 15.0547
#
#
#
# Elastic Compliance Matrix: (Units=1/GPa)
#
#
# Indices 1 2 3 4 5 6 
#
# 1 0.011684 -0.000096 -0.002272 0.000000 -0.008320 0.000000
# 2 -0.000096 0.006518 -0.000294 0.000000 -0.003281 0.000000
# 3 -0.002272 -0.000294 0.011131 0.000000 -0.004216 0.000000
# 4 0.000000 0.000000 0.000000 0.038814 0.000000 -0.006026
# 5 -0.008320 -0.003281 -0.004216 0.000000 0.028087 0.000000
# 6 0.000000 0.000000 0.000000 -0.006026 0.000000 0.067360
#
#
# Mechanical properties :
#
#
# Convention : Reuss Voigt Hill
#
# Bulk Modulus (GPa) = 41.65562 67.12839 54.39200
# Shear Modulus (GPa) = 28.26132 41.02052 34.64092
#
# Velocity S-wave (km/s) = 3.27548 3.94620 3.62638
# Velocity P-wave (km/s) = 5.48805 6.80053 6.17923
#
# Compressibility (1/GPa) = 0.02400637
#
# Stress axis : x y z
#
# Youngs Moduli (GPa) = 85.58891 153.42655 89.84302
#
# Poissons Ratio (x) = 0.01480 0.20414
# Poissons Ratio (y) = 0.00825 0.02644
# Poissons Ratio (z) = 0.19447 0.04515
#
# Static dielectric constant tensor:
#      x y z
#    x 1.636980 0.000000 -0.441010 
#    y 0.000000 2.005900 0.000000 
#    z -0.441010 0.000000 1.754340 
# 
# From -- ./inp_files/117288.got.cif
#   From: 2010.05.17/outbox.cif.g08.bks.cpg/sg15_59_cif.got.tgz:117288.got - 2010.06.03 18:47:42.
