data_PCOD9258514
_publ_section_title
;
Structure prediction by ZEFSAII (Michael W. Deem and Ramdas Pophale) SiO2 
 PCOD9258514
Probable space group: C 2/C
;
_chemical_formula_sum "Si O2"
_cell_formula_units_Z 56
_cell_length_a 13.103513
_cell_length_b 15.066031
_cell_length_c 15.082527
_cell_angle_alpha 90.000000
_cell_angle_beta 61.818709
_cell_angle_gamma 90.000000
_cell_volume 2624.594366
_symmetry_space_group_name_H-M "C 2/C"
_symmetry_group_IT_number 15
_symmetry_cell_setting 'monoclinic'
loop_
_space_group_symop_operation_xyz
x,y,z
-x,y,1/2-z
-x,-y,-z
x,-y,1/2+z
1/2+x,1/2+y,z
1/2-x,1/2+y,1/2-z
1/2-x,1/2-y,-z
1/2+x,1/2-y,1/2+z
loop_
_atom_site_type_symbol
_atom_site_label
_atom_site_fract_x
_atom_site_fract_y
_atom_site_fract_z
Si Si1 0.424397 0.873625 0.522092
Si Si2 0.879507 0.219698 0.426022
Si Si3 0.839762 0.101278 0.074413
Si Si4 0.864141 0.929682 0.280186
Si Si5 0.836344 0.434023 0.999674
Si Si6 0.579563 0.399983 0.426224
Si Si7 0.307185 0.360233 0.781504
O O1 0.450528 0.801969 0.435091
O O2 0.542249 0.890006 0.526043
O O3 0.324966 0.845509 0.632717
O O4 0.368556 0.961655 0.499845
O O5 0.750000 0.250000 0.500000
O O6 0.895410 0.137985 0.486665
O O7 0.881403 0.193122 0.323340
O O8 0.827160 0.156751 0.169647
O O9 0.889648 0.003956 0.079510
O O10 0.720214 0.087637 0.071844
O O11 0.946217 0.130669 0.968442
O O12 0.764594 0.904764 0.390513
O O13 0.851605 0.877470 0.191793
O O14 0.000000 0.921312 0.250000
O O15 0.840138 0.035826 0.280134
#
# Coordination Sequence:
#
# PCOD9258514 Si02
#       7
#     8   8   8   8   8   8   8
#     4   9  20  38  60  85 119 162 200 244 298 356
#     4  10  20  38  59  82 123 155 197 249 299 353
#     4  10  19  32  56  90 114 151 199 246 297 344
#     4  10  18  33  58  86 116 146 198 251 294 342
#     4  10  19  37  63  87 118 159 203 246 292 363
#     4  10  20  32  56  86 117 151 196 249 299 345
#     4   9  20  32  57  88 114 150 197 248 291 353
#
# _framework density 21.33663
#
# number of rings (size 3 to 8) (size 9 to 14) (size 15 to 20)
#    0.000    2.286    1.429    2.571    4.000    0.571 
#    0.000    5.000    6.286    9.429    0.000    0.000 
#    0.000    0.000    0.000    0.000    0.000    0.000 
#
# Total GULP energy -155910.351525 kJ/mol
# GULP energy per Si atom -5568.226840 kJ/mol
# Density = 2.128807 g / cm^3
# Si number density = 21.336630 Si / 1000 Ang^3
#
#
#
# Elastic Constant Matrix: (Units=GPa)
#
#
# Indices 1 2 3 4 5 6 
#
# 1 120.7301 28.3264 74.4737 0.0000 -2.7624 0.0000
# 2 28.3264 40.1495 40.2861 0.0000 6.6036 0.0000
# 3 74.4737 40.2861 152.6425 0.0000 13.0954 0.0000
# 4 0.0000 0.0000 0.0000 14.1004 0.0000 0.2831
# 5 -2.7624 6.6036 13.0954 0.0000 33.0100 0.0000
# 6 0.0000 0.0000 0.0000 0.2831 0.0000 15.0000
#
#
#
# Elastic Compliance Matrix: (Units=1/GPa)
#
#
# Indices 1 2 3 4 5 6 
#
# 1 0.012718 -0.004169 -0.005453 0.000000 0.004062 0.000000
# 2 -0.004169 0.035606 -0.006959 0.000000 -0.004711 0.000000
# 3 -0.005453 -0.006959 0.011355 0.000000 -0.003569 0.000000
# 4 0.000000 0.000000 0.000000 0.070947 0.000000 -0.001339
# 5 0.004062 -0.004711 -0.003569 0.000000 0.032992 0.000000
# 6 0.000000 0.000000 0.000000 -0.001339 0.000000 0.066692
#
#
# Mechanical properties :
#
#
# Convention : Reuss Voigt Hill
#
# Bulk Modulus (GPa) = 37.71324 66.63274 52.17299
# Shear Modulus (GPa) = 18.36139 23.78446 21.07292
#
# Velocity S-wave (km/s) = 2.93671 3.34237 3.14608
# Velocity P-wave (km/s) = 5.40488 6.79649 6.14024
#
# Compressibility (1/GPa) = 0.02651588
#
# Stress axis : x y z
#
# Youngs Moduli (GPa) = 78.62947 28.08528 88.06983
#
# Poissons Ratio (x) = 0.11709 0.48026
# Poissons Ratio (y) = 0.32782 0.61288
# Poissons Ratio (z) = 0.42878 0.19545
#
# Static dielectric constant tensor:
#      x y z
#    x 0.691780 0.000000 -0.667170 
#    y 0.000000 1.915820 0.000000 
#    z -0.667170 0.000000 1.393480 
# 
# From -- ./inp_files/145560.got.cif
#   From: 2010.05.17/outbox.cif.g08.bks.cpg/sg15_73_cif.got.tgz:145560.got - 2010.06.03 18:47:42.
