data_PCOD9258612
_publ_section_title
;
Structure prediction by ZEFSAII (Michael W. Deem and Ramdas Pophale) SiO2 
 PCOD9258612
Probable space group: C 2/C
;
_chemical_formula_sum "Si O2"
_cell_formula_units_Z 56
_cell_length_a 18.958067
_cell_length_b 8.578152
_cell_length_c 20.311175
_cell_angle_alpha 90.000000
_cell_angle_beta 49.481361
_cell_angle_gamma 90.000000
_cell_volume 2511.005415
_symmetry_space_group_name_H-M "C 2/C"
_symmetry_group_IT_number 15
_symmetry_cell_setting 'monoclinic'
loop_
_space_group_symop_operation_xyz
x,y,z
-x,y,1/2-z
-x,-y,-z
x,-y,1/2+z
1/2+x,1/2+y,z
1/2-x,1/2+y,1/2-z
1/2-x,1/2-y,-z
1/2+x,1/2-y,1/2+z
loop_
_atom_site_type_symbol
_atom_site_label
_atom_site_fract_x
_atom_site_fract_y
_atom_site_fract_z
Si Si1 0.878436 0.473889 0.525421
Si Si2 0.877694 0.385135 0.271720
Si Si3 0.000000 0.124611 0.250000
Si Si4 0.638949 0.777489 0.562858
Si Si5 0.530284 0.508199 0.086421
Si Si6 0.000000 0.355214 0.750000
Si Si7 0.781135 0.190587 0.552515
Si Si8 0.427174 0.215715 0.598395
O O1 0.869227 0.547586 0.458893
O O2 0.799993 0.345498 0.584209
O O3 0.869089 0.622749 0.578779
O O4 0.975306 0.379699 0.467802
O O5 0.948394 0.528865 0.230841
O O6 0.782309 0.423410 0.365725
O O7 0.879004 0.322939 0.197158
O O8 0.914643 0.245123 0.296062
O O9 0.000695 0.034833 0.180617
O O10 0.750000 0.750000 0.500000
O O11 0.571371 0.667046 0.558349
O O12 0.584675 0.765884 0.664750
O O13 0.454287 0.599352 0.086818
O O14 0.622421 0.607130 0.019201
O O15 0.750000 0.250000 0.500000
#
# Coordination Sequence:
#
# PCOD9258612 Si02
#       8
#     8   8   4   8   8   4   8   8
#     4  10  21  40  62  88 120 164 207 259 312 381
#     4  10  18  33  61  87 113 161 210 257 306 382
#     4   9  17  30  54  82 114 144 206 252 298 368
#     4  12  24  37  59  93 131 161 202 271 334 372
#     4  10  20  34  54  87 119 160 201 253 311 384
#     4  11  21  38  58  94 128 162 210 264 326 384
#     4  11  19  34  60  89 121 155 207 263 320 371
#     4   9  20  40  64  82 114 167 218 243 303 394
#
# _framework density 22.301824
#
# number of rings (size 3 to 8) (size 9 to 14) (size 15 to 20)
#    0.000    1.714    2.857    3.000    0.000    0.571 
#    0.000    2.857    0.000    0.000    0.000    0.000 
#    0.000    0.000    0.000    0.000    0.000    0.000 
#
# Total GULP energy -155879.506379 kJ/mol
# GULP energy per Si atom -5567.125228 kJ/mol
# Density = 2.225106 g / cm^3
# Si number density = 22.301824 Si / 1000 Ang^3
#
#
#
# Elastic Constant Matrix: (Units=GPa)
#
#
# Indices 1 2 3 4 5 6 
#
# 1 22.9725 -0.4694 19.3957 0.0000 -5.7449 0.0000
# 2 -0.4694 70.5960 5.9673 0.0000 2.6106 0.0000
# 3 19.3957 5.9673 107.6493 0.0000 -8.2145 0.0000
# 4 0.0000 0.0000 0.0000 30.3912 0.0000 0.2951
# 5 -5.7449 2.6106 -8.2145 0.0000 25.8597 0.0000
# 6 0.0000 0.0000 0.0000 0.2951 0.0000 21.9519
#
#
#
# Elastic Compliance Matrix: (Units=1/GPa)
#
#
# Indices 1 2 3 4 5 6 
#
# 1 0.053356 0.000784 -0.008976 0.000000 0.008923 0.000000
# 2 0.000784 0.014319 -0.001058 0.000000 -0.001607 0.000000
# 3 -0.008976 -0.001058 0.011090 0.000000 0.001636 0.000000
# 4 0.000000 0.000000 0.000000 0.032909 0.000000 -0.000442
# 5 0.008923 -0.001607 0.001636 0.000000 0.041334 0.000000
# 6 0.000000 0.000000 0.000000 -0.000442 0.000000 0.045560
#
#
# Mechanical properties :
#
#
# Convention : Reuss Voigt Hill
#
# Bulk Modulus (GPa) = 16.59329 27.88945 22.24137
# Shear Modulus (GPa) = 21.08310 27.39550 24.23930
#
# Velocity S-wave (km/s) = 3.07799 3.50865 3.30036
# Velocity P-wave (km/s) = 4.48203 5.38022 4.95153
#
# Compressibility (1/GPa) = 0.06026534
#
# Stress axis : x y z
#
# Youngs Moduli (GPa) = 18.74200 69.83649 90.17052
#
# Poissons Ratio (x) = -0.05472 0.80937
# Poissons Ratio (y) = -0.01469 0.09536
# Poissons Ratio (z) = 0.16823 0.07386
#
# Static dielectric constant tensor:
#      x y z
#    x 1.929110 0.000000 -0.020140 
#    y 0.000000 1.925430 0.000000 
#    z -0.020140 0.000000 1.847510 
# 
# From -- ./inp_files/247607.got.cif
#   From: 2010.05.17/outbox.cif.g08.bks.cpg/sg15_124_cif.got.tgz:247607.got - 2010.06.03 18:47:42.
