data_PCOD9258844
_publ_section_title
;
Structure prediction by ZEFSAII (Michael W. Deem and Ramdas Pophale) SiO2 
 PCOD9258844
Probable space group: C 2/C
;
_chemical_formula_sum "Si O2"
_cell_formula_units_Z 60
_cell_length_a 16.390243
_cell_length_b 8.882075
_cell_length_c 22.697242
_cell_angle_alpha 90.000000
_cell_angle_beta 95.587135
_cell_angle_gamma 90.000000
_cell_volume 3288.552589
_symmetry_space_group_name_H-M "C 2/C"
_symmetry_group_IT_number 15
_symmetry_cell_setting 'monoclinic'
loop_
_space_group_symop_operation_xyz
x,y,z
-x,y,1/2-z
-x,-y,-z
x,-y,1/2+z
1/2+x,1/2+y,z
1/2-x,1/2+y,1/2-z
1/2-x,1/2-y,-z
1/2+x,1/2-y,1/2+z
loop_
_atom_site_type_symbol
_atom_site_label
_atom_site_fract_x
_atom_site_fract_y
_atom_site_fract_z
Si Si1 0.425849 0.409535 0.566707
Si Si2 0.644946 0.343079 0.359453
Si Si3 0.893409 0.310409 0.169968
Si Si4 0.500000 0.963365 0.750000
Si Si5 0.452852 0.708617 0.822418
Si Si6 0.151699 0.962346 0.749808
Si Si7 0.246424 0.546709 0.359370
Si Si8 0.900941 0.918529 0.432362
O O1 0.365690 0.539750 0.587741
O O2 0.424331 0.278353 0.614823
O O3 0.399496 0.364193 0.499292
O O4 0.517080 0.479956 0.569241
O O5 0.550563 0.302122 0.337215
O O6 0.681059 0.431208 0.305475
O O7 0.695173 0.192707 0.374449
O O8 0.879220 0.187867 0.220495
O O9 0.811040 0.400144 0.148263
O O10 0.955680 0.433256 0.199413
O O11 0.438043 0.852755 0.780529
O O12 0.419046 0.558784 0.788182
O O13 0.411281 0.710291 0.883434
O O14 0.217345 0.929717 0.703819
O O15 0.321565 0.512857 0.408225
#
# Coordination Sequence:
#
# PCOD9258844 Si02
#       8
#     8   8   8   4   8   8   8   8
#     4   9  21  42  61  83 108 159 208 231 275 360
#     4  10  18  34  56  79 116 152 188 233 296 343
#     4  11  24  34  58  91 118 149 199 240 285 347
#     4  12  22  32  58  90 120 144 184 242 286 354
#     4  10  18  36  59  81 112 160 187 225 299 345
#     4  10  20  34  56  81 118 156 190 233 288 359
#     4  11  21  35  55  89 119 146 189 253 297 331
#     4   9  21  39  66  79 112 155 205 237 281 343
#
# _framework density 18.245108999999999
#
# number of rings (size 3 to 8) (size 9 to 14) (size 15 to 20)
#    0.000    1.867    2.667    0.800    7.467    2.133 
#    0.000    0.667    0.000    0.000    0.000    0.000 
#    0.000    0.000    0.000    0.000    0.000    0.000 
#
# Total GULP energy -167384.442516 kJ/mol
# GULP energy per Si atom -5579.481417 kJ/mol
# Density = 1.820358 g / cm^3
# Si number density = 18.245109 Si / 1000 Ang^3
#
#
#
# Elastic Constant Matrix: (Units=GPa)
#
#
# Indices 1 2 3 4 5 6 
#
# 1 63.6314 33.3874 35.3965 0.0000 -0.2076 0.0000
# 2 33.3874 106.9947 50.4317 0.0000 -4.9242 0.0000
# 3 35.3965 50.4317 131.0053 0.0000 -15.0948 0.0000
# 4 0.0000 0.0000 0.0000 15.7951 0.0000 6.3050
# 5 -0.2076 -4.9242 -15.0948 0.0000 20.3410 0.0000
# 6 0.0000 0.0000 0.0000 6.3050 0.0000 21.6534
#
#
#
# Elastic Compliance Matrix: (Units=1/GPa)
#
#
# Indices 1 2 3 4 5 6 
#
# 1 0.020457 -0.004575 -0.004231 0.000000 -0.004039 0.000000
# 2 -0.004575 0.012447 -0.003514 0.000000 0.000359 0.000000
# 3 -0.004231 -0.003514 0.010964 0.000000 0.007242 0.000000
# 4 0.000000 0.000000 0.000000 0.071637 0.000000 -0.020859
# 5 -0.004039 0.000359 0.007242 0.000000 0.054582 0.000000
# 6 0.000000 0.000000 0.000000 -0.020859 0.000000 0.052256
#
#
# Mechanical properties :
#
#
# Convention : Reuss Voigt Hill
#
# Bulk Modulus (GPa) = 52.01168 60.00696 56.00932
# Shear Modulus (GPa) = 19.73234 23.71894 21.72564
#
# Velocity S-wave (km/s) = 3.29221 3.60949 3.45449
# Velocity P-wave (km/s) = 6.55901 7.09450 6.83200
#
# Compressibility (1/GPa) = 0.01922645
#
# Stress axis : x y z
#
# Youngs Moduli (GPa) = 48.88396 80.34275 91.20920
#
# Poissons Ratio (x) = 0.36756 0.38595
# Poissons Ratio (y) = 0.22364 0.32051
# Poissons Ratio (z) = 0.20685 0.28233
#
# Static dielectric constant tensor:
#      x y z
#    x 1.638240 0.000000 -0.002640 
#    y 0.000000 1.628790 0.000000 
#    z -0.002640 0.000000 1.642080 
# 
# From -- ./inp_files/272787.got.cif
#   From: 2010.05.17/outbox.cif.g08.bks.cpg/sg15_137_cif.got.tgz:272787.got - 2010.06.03 18:47:42.
