data_PCOD9258555
_publ_section_title
;
Structure prediction by ZEFSAII (Michael W. Deem and Ramdas Pophale) SiO2 
 PCOD9258555
Probable space group: C 2/C
;
_chemical_formula_sum "Si O2"
_cell_formula_units_Z 32
_cell_length_a 13.288627
_cell_length_b 17.084087
_cell_length_c 9.403809
_cell_angle_alpha 90.000000
_cell_angle_beta 136.975227
_cell_angle_gamma 90.000000
_cell_volume 1456.667040
_symmetry_space_group_name_H-M "C 2/C"
_symmetry_group_IT_number 15
_symmetry_cell_setting 'monoclinic'
loop_
_space_group_symop_operation_xyz
x,y,z
-x,y,1/2-z
-x,-y,-z
x,-y,1/2+z
1/2+x,1/2+y,z
1/2-x,1/2+y,1/2-z
1/2-x,1/2-y,-z
1/2+x,1/2-y,1/2+z
loop_
_atom_site_type_symbol
_atom_site_label
_atom_site_fract_x
_atom_site_fract_y
_atom_site_fract_z
Si Si1 0.008726 0.686293 0.926955
Si Si2 0.352804 0.953074 0.394400
Si Si3 0.687155 0.682672 0.326836
Si Si4 0.164106 0.987915 0.940409
O O1 0.895912 0.635278 0.900119
O O2 0.959553 0.776470 0.881502
O O3 0.000000 0.659109 0.750000
O O4 0.177951 0.673545 0.142948
O O5 0.500000 0.000000 0.500000
O O6 0.294657 0.967740 0.491731
O O7 0.216591 0.980719 0.155920
O O8 0.750000 0.750000 0.500000
O O9 0.661676 0.600214 0.373709
O O10 0.000000 0.021319 0.750000
#
# Coordination Sequence:
#
# PCOD9258555 Si02
#       4
#     8   8   8   8
#     4  10  18  34  57  92 116 155 197 258 299 347
#     4  12  22  40  61  90 129 162 204 245 312 373
#     4  10  18  33  59  87 121 145 208 253 297 338
#     4  12  24  39  60  95 123 162 202 258 306 359
#
# _framework density 21.967956999999998
#
# number of rings (size 3 to 8) (size 9 to 14) (size 15 to 20)
#    0.000    1.000    7.500    3.750    0.000    0.000 
#    0.000    0.000    0.000    1.500    0.000    0.000 
#    0.000    0.000    0.000    0.000    0.000    0.000 
#
# Total GULP energy -89339.211477 kJ/mol
# GULP energy per Si atom -5583.700717 kJ/mol
# Density = 2.191796 g / cm^3
# Si number density = 21.967957 Si / 1000 Ang^3
#
#
#
# Elastic Constant Matrix: (Units=GPa)
#
#
# Indices 1 2 3 4 5 6 
#
# 1 83.1548 9.4728 0.9337 0.0000 17.2949 0.0000
# 2 9.4728 62.5694 -16.1570 0.0000 -8.8493 0.0000
# 3 0.9337 -16.1570 37.7617 0.0000 18.6639 0.0000
# 4 0.0000 0.0000 0.0000 18.9970 0.0000 11.7798
# 5 17.2949 -8.8493 18.6639 0.0000 37.9605 0.0000
# 6 0.0000 0.0000 0.0000 11.7798 0.0000 27.9736
#
#
#
# Elastic Compliance Matrix: (Units=1/GPa)
#
#
# Indices 1 2 3 4 5 6 
#
# 1 0.014018 -0.002615 0.002632 0.000000 -0.008291 0.000000
# 2 -0.002615 0.018464 0.006933 0.000000 0.002087 0.000000
# 3 0.002632 0.006933 0.038543 0.000000 -0.018533 0.000000
# 4 0.000000 0.000000 0.000000 0.071243 0.000000 -0.030001
# 5 -0.008291 0.002087 -0.018533 0.000000 0.039719 0.000000
# 6 0.000000 0.000000 0.000000 -0.030001 0.000000 0.048381
#
#
# Mechanical properties :
#
#
# Convention : Reuss Voigt Hill
#
# Bulk Modulus (GPa) = 11.77503 19.10946 15.44225
# Shear Modulus (GPa) = 20.42669 29.60197 25.01433
#
# Velocity S-wave (km/s) = 3.05264 3.67482 3.37808
# Velocity P-wave (km/s) = 4.21859 5.16947 4.71805
#
# Compressibility (1/GPa) = 0.08492549
#
# Stress axis : x y z
#
# Youngs Moduli (GPa) = 71.33461 54.16046 25.94473
#
# Poissons Ratio (x) = 0.14164 -0.06829
# Poissons Ratio (y) = 0.18656 -0.17988
# Poissons Ratio (z) = -0.18776 -0.37550
#
# Static dielectric constant tensor:
#      x y z
#    x 1.884630 0.000000 0.061730 
#    y 0.000000 1.842880 0.000000 
#    z 0.061730 0.000000 1.891220 
# 
# From -- ./inp_files/29920.got.cif
#   From: 2010.05.17/outbox.cif.g08.bks.cpg/sg15_15_cif.got.tgz:29920.got - 2010.06.03 18:47:42.
