data_PCOD9258841
_publ_section_title
;
Structure prediction by ZEFSAII (Michael W. Deem and Ramdas Pophale) SiO2 
 PCOD9258841
Probable space group: C 2/C
;
_chemical_formula_sum "Si O2"
_cell_formula_units_Z 64
_cell_length_a 27.803448
_cell_length_b 18.747941
_cell_length_c 11.733726
_cell_angle_alpha 90.000000
_cell_angle_beta 153.031868
_cell_angle_gamma 90.000000
_cell_volume 2773.706716
_symmetry_space_group_name_H-M "C 2/C"
_symmetry_group_IT_number 15
_symmetry_cell_setting 'monoclinic'
loop_
_space_group_symop_operation_xyz
x,y,z
-x,y,1/2-z
-x,-y,-z
x,-y,1/2+z
1/2+x,1/2+y,z
1/2-x,1/2+y,1/2-z
1/2-x,1/2-y,-z
1/2+x,1/2-y,1/2+z
loop_
_atom_site_type_symbol
_atom_site_label
_atom_site_fract_x
_atom_site_fract_y
_atom_site_fract_z
Si Si1 0.658873 0.774998 0.966284
Si Si2 0.383403 0.214788 0.389002
Si Si3 0.118791 0.872796 0.478578
Si Si4 0.318890 0.394930 0.654088
Si Si5 0.205128 0.945220 0.328435
Si Si6 0.510424 0.353964 0.899666
Si Si7 0.827302 0.563546 0.305882
Si Si8 0.173019 0.409838 0.137335
O O1 0.784769 0.756006 0.240842
O O2 0.624464 0.839419 0.976454
O O3 0.643629 0.794284 0.802065
O O4 0.602810 0.700344 0.875261
O O5 0.480289 0.268968 0.591052
O O6 0.389902 0.136711 0.456658
O O7 0.173669 0.850500 0.714529
O O8 0.208127 0.921983 0.606139
O O9 0.000000 0.903078 0.250000
O O10 0.335043 0.475092 0.735809
O O11 0.414744 0.375536 0.775478
O O12 0.217839 0.391467 0.357452
O O13 0.305252 0.942442 0.624325
O O14 0.236920 0.927619 0.267018
O O15 0.117284 0.887576 0.176500
O O16 0.500000 0.383533 0.750000
O O17 0.875811 0.489306 0.451845
#
# Coordination Sequence:
#
# PCOD9258841 Si02
#       8
#     8   8   8   8   8   8   8   8
#     4  10  19  35  57  76 107 144 188 227 268 326
#     4  10  18  34  56  79 104 147 192 223 259 325
#     4  11  22  35  52  82 112 144 180 227 276 326
#     4  11  23  33  51  80 119 146 178 224 277 330
#     4  11  19  35  50  79 114 148 184 214 270 331
#     4  12  21  34  53  80 115 150 184 220 268 329
#     4  10  21  35  58  79 107 144 188 228 268 326
#     4  11  20  37  55  82 110 148 182 226 277 323
#
# _framework density 23.073816999999998
#
# number of rings (size 3 to 8) (size 9 to 14) (size 15 to 20)
#    0.000    1.250    5.000    3.375    0.000    2.000 
#    0.000    0.000    0.000    0.750    0.000    2.625 
#    0.000    0.000    0.000    0.000    0.000    0.000 
#
# Total GULP energy -178564.514838 kJ/mol
# GULP energy per Si atom -5580.141089 kJ/mol
# Density = 2.302130 g / cm^3
# Si number density = 23.073817 Si / 1000 Ang^3
#
#
#
# Elastic Constant Matrix: (Units=GPa)
#
#
# Indices 1 2 3 4 5 6 
#
# 1 54.9410 -0.7756 19.1873 0.0000 -24.1392 0.0000
# 2 -0.7756 104.0478 12.1618 0.0000 -5.2001 0.0000
# 3 19.1873 12.1618 48.8553 0.0000 -9.9519 0.0000
# 4 0.0000 0.0000 0.0000 11.7061 0.0000 -7.5460
# 5 -24.1392 -5.2001 -9.9519 0.0000 25.0107 0.0000
# 6 0.0000 0.0000 0.0000 -7.5460 0.0000 37.1946
#
#
#
# Elastic Compliance Matrix: (Units=1/GPa)
#
#
# Indices 1 2 3 4 5 6 
#
# 1 0.034518 0.002725 -0.007980 0.000000 0.030707 0.000000
# 2 0.002725 0.010146 -0.002862 0.000000 0.003600 0.000000
# 3 -0.007980 -0.002862 0.024621 0.000000 0.001500 0.000000
# 4 0.000000 0.000000 0.000000 0.098278 0.000000 0.019939
# 5 0.030707 0.003600 0.001500 0.000000 0.070965 0.000000
# 6 0.000000 0.000000 0.000000 0.019939 0.000000 0.030931
#
#
# Mechanical properties :
#
#
# Convention : Reuss Voigt Hill
#
# Bulk Modulus (GPa) = 18.85035 29.88790 24.36912
# Shear Modulus (GPa) = 16.48116 26.60031 21.54074
#
# Velocity S-wave (km/s) = 2.67550 3.39903 3.05873
# Velocity P-wave (km/s) = 4.21091 5.32783 4.80195
#
# Compressibility (1/GPa) = 0.05304942
#
# Stress axis : x y z
#
# Youngs Moduli (GPa) = 28.97034 98.56317 40.61631
#
# Poissons Ratio (x) = -0.26855 0.32411
# Poissons Ratio (y) = -0.07893 0.11626
# Poissons Ratio (z) = 0.23118 0.28212
#
# Static dielectric constant tensor:
#      x y z
#    x 1.854570 0.000000 -0.025170 
#    y 0.000000 1.904490 0.000000 
#    z -0.025170 0.000000 1.932750 
# 
# From -- ./inp_files/127310.got.cif
#   From: 2010.05.17/outbox.cif.g08.bks.cpg/sg15_64_cif.got.tgz:127310.got - 2010.06.03 18:47:42.
