data_PCOD9258446
_publ_section_title
;
Structure prediction by ZEFSAII (Michael W. Deem and Ramdas Pophale) SiO2 
 PCOD9258446
Probable space group: C 2/C
;
_chemical_formula_sum "Si O2"
_cell_formula_units_Z 56
_cell_length_a 11.495723
_cell_length_b 25.924636
_cell_length_c 24.717007
_cell_angle_alpha 90.000000
_cell_angle_beta 157.793281
_cell_angle_gamma 90.000000
_cell_volume 2784.059114
_symmetry_space_group_name_H-M "C 2/C"
_symmetry_group_IT_number 15
_symmetry_cell_setting 'monoclinic'
loop_
_space_group_symop_operation_xyz
x,y,z
-x,y,1/2-z
-x,-y,-z
x,-y,1/2+z
1/2+x,1/2+y,z
1/2-x,1/2+y,1/2-z
1/2-x,1/2-y,-z
1/2+x,1/2-y,1/2+z
loop_
_atom_site_type_symbol
_atom_site_label
_atom_site_fract_x
_atom_site_fract_y
_atom_site_fract_z
Si Si1 0.205981 0.312312 0.891243
Si Si2 0.203690 0.866282 0.161147
Si Si3 0.725883 0.236540 0.738327
Si Si4 0.874662 0.273776 0.973141
Si Si5 0.482205 0.029249 0.550064
Si Si6 0.175385 0.374003 0.079901
Si Si7 0.003342 0.046909 0.857174
O O1 0.494672 0.277831 0.996667
O O2 0.000000 0.324112 0.750000
O O3 0.004375 0.274466 0.842473
O O4 0.372263 0.361038 0.988997
O O5 0.500000 0.861882 0.250000
O O6 0.200633 0.817454 0.201103
O O7 0.207348 0.921170 0.192813
O O8 0.484338 0.267956 0.670998
O O9 0.547337 0.222554 0.605704
O O10 0.993731 0.322160 0.990535
O O11 0.466989 0.089660 0.528794
O O12 0.794380 0.025572 0.718379
O O13 0.500000 0.000000 0.500000
O O14 0.209697 0.001018 0.464544
O O15 0.500000 0.362375 0.250000
O O16 0.271914 0.408868 0.070798
#
# Coordination Sequence:
#
# PCOD9258446 Si02
#       7
#     8   8   8   8   8   8   8
#     4  10  21  39  58  82 125 164 208 264 300 353
#     4  12  23  40  59  86 124 173 211 244 302 379
#     4  10  20  33  57  84 125 164 206 251 297 354
#     4  10  18  33  56  92 121 160 205 244 307 370
#     4   9  18  37  64  90 119 146 193 261 320 369
#     4   9  16  31  57  89 121 153 189 240 318 376
#     4  10  21  38  62  89 118 159 198 252 323 368
#
# _framework density 20.114515000000001
#
# number of rings (size 3 to 8) (size 9 to 14) (size 15 to 20)
#    0.000    2.000    1.429    5.571    0.000    0.000 
#    2.571    0.714    3.143    0.000    0.000    0.000 
#    0.000    0.000    0.000    0.000    0.000    0.000 
#
# Total GULP energy -156208.013340 kJ/mol
# GULP energy per Si atom -5578.857619 kJ/mol
# Density = 2.006873 g / cm^3
# Si number density = 20.114515 Si / 1000 Ang^3
#
#
#
# Elastic Constant Matrix: (Units=GPa)
#
#
# Indices 1 2 3 4 5 6 
#
# 1 62.3639 13.5732 36.1472 -0.0159 13.3771 -0.0123
# 2 13.5732 54.8288 33.2834 -0.0433 -5.5391 -0.0109
# 3 36.1472 33.2834 76.4990 -0.0492 7.0661 -0.0316
# 4 -0.0159 -0.0433 -0.0492 31.3229 -0.0722 10.5140
# 5 13.3771 -5.5391 7.0661 -0.0722 19.9910 -0.0124
# 6 -0.0123 -0.0109 -0.0316 10.5140 -0.0124 27.7412
#
#
#
# Elastic Compliance Matrix: (Units=1/GPa)
#
#
# Indices 1 2 3 4 5 6 
#
# 1 0.025046 -0.001590 -0.009877 -0.000039 -0.013710 0.000008
# 2 -0.001590 0.027490 -0.012416 0.000054 0.013070 -0.000019
# 3 -0.009877 -0.012416 0.023620 -0.000002 -0.005180 0.000016
# 4 -0.000039 0.000054 -0.000002 0.036579 0.000166 -0.013864
# 5 -0.013710 0.013070 -0.005180 0.000166 0.064649 -0.000041
# 6 0.000008 -0.000019 0.000016 -0.013864 -0.000041 0.041302
#
#
# Mechanical properties :
#
#
# Convention : Reuss Voigt Hill
#
# Bulk Modulus (GPa) = 35.22381 39.96659 37.59520
# Shear Modulus (GPa) = 18.12147 23.19021 20.65584
#
# Velocity S-wave (km/s) = 3.00478 3.39914 3.20802
# Velocity P-wave (km/s) = 5.43948 5.94291 5.69676
#
# Compressibility (1/GPa) = 0.02838989
#
# Stress axis : x y z
#
# Youngs Moduli (GPa) = 39.92583 36.37710 42.33755
#
# Poissons Ratio (x) = 0.05783 0.41816
# Poissons Ratio (y) = 0.06347 0.52568
# Poissons Ratio (z) = 0.39434 0.45167
#
# Static dielectric constant tensor:
#      x y z
#    x 1.791570 0.000010 -0.023280 
#    y 0.000010 1.707280 -0.000060 
#    z -0.023280 -0.000060 1.732080 
# 
# From -- ./inp_files/293958.got.cif
#   From: 2010.05.17/outbox.cif.g08.bks.cpg/sg15_147_cif.got.tgz:293958.got - 2010.06.03 18:47:42.
