data_PCOD9258827
_publ_section_title
;
Structure prediction by ZEFSAII (Michael W. Deem and Ramdas Pophale) SiO2 
 PCOD9258827
Probable space group: C 2/C
;
_chemical_formula_sum "Si O2"
_cell_formula_units_Z 60
_cell_length_a 21.406811
_cell_length_b 8.466196
_cell_length_c 16.952602
_cell_angle_alpha 90.000000
_cell_angle_beta 126.554762
_cell_angle_gamma 90.000000
_cell_volume 2468.015741
_symmetry_space_group_name_H-M "C 2/C"
_symmetry_group_IT_number 15
_symmetry_cell_setting 'monoclinic'
loop_
_space_group_symop_operation_xyz
x,y,z
-x,y,1/2-z
-x,-y,-z
x,-y,1/2+z
1/2+x,1/2+y,z
1/2-x,1/2+y,1/2-z
1/2-x,1/2-y,-z
1/2+x,1/2-y,1/2+z
loop_
_atom_site_type_symbol
_atom_site_label
_atom_site_fract_x
_atom_site_fract_y
_atom_site_fract_z
Si Si1 0.045344 0.241600 0.649485
Si Si2 0.767753 0.857822 0.648662
Si Si3 0.561046 0.393278 0.731632
Si Si4 0.000000 0.522390 0.250000
Si Si5 0.796692 0.157422 0.438998
Si Si6 0.057978 0.854280 0.551248
Si Si7 0.785076 0.157246 0.762881
Si Si8 0.166184 0.523618 0.446083
O O1 0.038179 0.073873 0.691518
O O2 0.127078 0.218604 0.667473
O O3 0.038084 0.374734 0.708616
O O4 0.981438 0.274096 0.534398
O O5 0.851314 0.879448 0.670194
O O6 0.774148 0.978763 0.727222
O O7 0.698570 0.911706 0.540052
O O8 0.756368 0.696073 0.686730
O O9 0.500000 0.334169 0.750000
O O10 0.564179 0.310194 0.647642
O O11 0.082683 0.464593 0.351575
O O12 0.865651 0.089776 0.437630
O O13 0.747169 0.256113 0.339089
O O14 0.835335 0.291057 0.525792
O O15 0.739000 0.040021 0.440433
O O16 0.000000 0.000000 0.500000
#
# Coordination Sequence:
#
# PCOD9258827 Si02
#       8
#     8   8   8   4   8   8   8   8
#     4  10  20  32  57  87 121 154 207 263 309 364
#     4  10  22  38  62  94 125 163 206 259 315 378
#     4  10  20  33  57  93 123 155 204 272 319 364
#     4  12  18  34  54  88 120 162 204 266 318 344
#     4  10  18  34  55  90 118 153 202 262 319 355
#     4  10  20  31  53  88 121 154 197 262 317 371
#     4  10  20  39  60  90 123 162 203 252 314 376
#     4  10  22  31  58  87 124 157 206 270 305 367
#
# _framework density 24.311029000000001
#
# number of rings (size 3 to 8) (size 9 to 14) (size 15 to 20)
#    0.000    1.867    4.667    0.000    5.600    0.000 
#    0.000    0.667    0.000    3.200    3.467    0.000 
#    0.000    0.000    0.000    0.000    0.000    0.000 
#
# Total GULP energy -167465.460426 kJ/mol
# GULP energy per Si atom -5582.182014 kJ/mol
# Density = 2.425570 g / cm^3
# Si number density = 24.311029 Si / 1000 Ang^3
#
#
#
# Elastic Constant Matrix: (Units=GPa)
#
#
# Indices 1 2 3 4 5 6 
#
# 1 152.0077 27.9236 68.6471 0.0000 3.6529 0.0000
# 2 27.9236 23.9277 18.6790 0.0000 -1.8048 0.0000
# 3 68.6471 18.6790 130.0520 0.0000 22.0891 0.0000
# 4 0.0000 0.0000 0.0000 24.9564 0.0000 -0.3362
# 5 3.6529 -1.8048 22.0891 0.0000 44.3913 0.0000
# 6 0.0000 0.0000 0.0000 -0.3362 0.0000 24.4825
#
#
#
# Elastic Compliance Matrix: (Units=1/GPa)
#
#
# Indices 1 2 3 4 5 6 
#
# 1 0.009995 -0.008274 -0.004250 0.000000 0.000956 0.000000
# 2 -0.008274 0.055311 -0.004450 0.000000 0.005144 0.000000
# 3 -0.004250 -0.004450 0.011516 0.000000 -0.005562 0.000000
# 4 0.000000 0.000000 0.000000 0.040077 0.000000 0.000550
# 5 0.000956 0.005144 -0.005562 0.000000 0.025425 0.000000
# 6 0.000000 0.000000 0.000000 0.000550 0.000000 0.040853
#
#
# Mechanical properties :
#
#
# Convention : Reuss Voigt Hill
#
# Bulk Modulus (GPa) = 23.32450 59.60965 41.46708
# Shear Modulus (GPa) = 21.60604 31.48188 26.54396
#
# Velocity S-wave (km/s) = 2.98440 3.60246 3.30790
# Velocity P-wave (km/s) = 4.63579 6.47120 5.62881
#
# Compressibility (1/GPa) = 0.04287337
#
# Stress axis : x y z
#
# Youngs Moduli (GPa) = 100.05236 18.07960 86.83450
#
# Poissons Ratio (x) = 0.14960 0.36901
# Poissons Ratio (y) = 0.82788 0.38644
# Poissons Ratio (z) = 0.42518 0.08046
#
# Static dielectric constant tensor:
#      x y z
#    x 1.968660 0.000000 0.026200 
#    y 0.000000 2.035140 0.000000 
#    z 0.026200 0.000000 1.987160 
# 
# From -- ./inp_files/167698.got.cif
#   From: 2010.05.17/outbox.cif.g08.bks.cpg/sg15_84_cif.got.tgz:167698.got - 2010.06.03 18:47:42.
