data_PCOD9258938
_publ_section_title
;
Structure prediction by ZEFSAII (Michael W. Deem and Ramdas Pophale) SiO2 
 PCOD9258938
Probable space group: C 2/C
;
_chemical_formula_sum "Si O2"
_cell_formula_units_Z 52
_cell_length_a 10.236676
_cell_length_b 29.774534
_cell_length_c 15.959414
_cell_angle_alpha 90.000000
_cell_angle_beta 34.171476
_cell_angle_gamma 90.000000
_cell_volume 2732.142222
_symmetry_space_group_name_H-M "C 2/C"
_symmetry_group_IT_number 15
_symmetry_cell_setting 'monoclinic'
loop_
_space_group_symop_operation_xyz
x,y,z
-x,y,1/2-z
-x,-y,-z
x,-y,1/2+z
1/2+x,1/2+y,z
1/2-x,1/2+y,1/2-z
1/2-x,1/2-y,-z
1/2+x,1/2-y,1/2+z
loop_
_atom_site_type_symbol
_atom_site_label
_atom_site_fract_x
_atom_site_fract_y
_atom_site_fract_z
Si Si1 0.241240 0.806761 0.177320
Si Si2 0.000000 0.502570 0.250000
Si Si3 0.500000 0.469315 0.250000
Si Si4 0.814633 0.952973 0.965592
Si Si5 0.003140 0.270533 0.606649
Si Si6 0.916402 0.595682 0.571269
Si Si7 0.500000 0.845989 0.750000
Si Si8 0.307621 0.916919 0.745584
O O1 0.319156 0.857014 0.156979
O O2 0.000000 0.810386 0.250000
O O3 0.180214 0.769034 0.278680
O O4 0.454436 0.787510 0.009034
O O5 0.793219 0.470950 0.391111
O O6 0.908431 0.535795 0.225871
O O7 0.617964 0.502422 0.121090
O O8 0.299467 0.438307 0.318333
O O9 0.048781 0.924713 0.850878
O O10 0.618794 0.925349 0.020284
O O11 0.250000 0.250000 0.500000
O O12 0.987171 0.312190 0.678687
O O13 0.025223 0.599574 0.419018
O O14 0.304963 0.882176 0.825343
#
# Coordination Sequence:
#
# PCOD9258938 Si02
#       8
#     8   4   4   8   8   8   4   8
#     4  10  20  35  57  93 118 147 195 249 301 346
#     4  11  24  42  58  85 122 155 214 248 300 337
#     4  12  22  37  64  85 118 157 214 247 280 342
#     4  12  24  43  58  85 122 167 198 249 299 354
#     4  10  18  34  57  86 117 147 185 248 300 347
#     4  12  22  38  64  91 119 158 210 248 289 358
#     4  11  20  33  60  88 116 144 192 243 294 357
#     4  11  23  38  60  90 118 158 201 246 302 353
#
# _framework density 19.032684
#
# number of rings (size 3 to 8) (size 9 to 14) (size 15 to 20)
#    0.000    0.923    7.692    1.846    0.000    0.000 
#    5.538    0.000    0.000    0.923    4.000    0.000 
#    0.000    0.000    0.000    0.000    0.000    0.000 
#
# Total GULP energy -144928.605557 kJ/mol
# GULP energy per Si atom -5574.177137 kJ/mol
# Density = 1.898936 g / cm^3
# Si number density = 19.032684 Si / 1000 Ang^3
#
#
#
# Elastic Constant Matrix: (Units=GPa)
#
#
# Indices 1 2 3 4 5 6 
#
# 1 61.5003 40.1022 13.6586 0.0000 -25.7510 0.0000
# 2 40.1022 138.9550 55.8237 0.0000 -13.1107 0.0000
# 3 13.6586 55.8237 80.2849 0.0000 -0.8569 0.0000
# 4 0.0000 0.0000 0.0000 24.0440 0.0000 0.6478
# 5 -25.7510 -13.1107 -0.8569 0.0000 27.4089 0.0000
# 6 0.0000 0.0000 0.0000 0.6478 0.0000 -22.4428
#
#
#
# Elastic Compliance Matrix: (Units=1/GPa)
#
#
# Indices 1 2 3 4 5 6 
#
# 1 0.031785 -0.006365 -0.000695 0.000000 0.026796 0.000000
# 2 -0.006365 0.011865 -0.007173 0.000000 -0.000529 0.000000
# 3 -0.000695 -0.007173 0.017524 0.000000 -0.003537 0.000000
# 4 0.000000 0.000000 0.000000 0.041558 0.000000 0.001200
# 5 0.026796 -0.000529 -0.003537 0.000000 0.061296 0.000000
# 6 0.000000 0.000000 0.000000 0.001200 0.000000 -0.044523
#
#
# Mechanical properties :
#
#
# Convention : Reuss Voigt Hill
#
# Bulk Modulus (GPa) = 30.57516 55.54548 43.06032
# Shear Modulus (GPa) = 31.47143 17.21242 24.34193
#
# Velocity S-wave (km/s) = 4.07079 3.01052 3.58013
# Velocity P-wave (km/s) = 6.18018 6.42899 6.30581
#
# Compressibility (1/GPa) = 0.03270629
#
# Stress axis : x y z
#
# Youngs Moduli (GPa) = 31.46149 84.27875 57.06560
#
# Poissons Ratio (x) = 0.53647 0.03968
# Poissons Ratio (y) = 0.20027 0.40933
# Poissons Ratio (z) = 0.02188 0.60453
#
# Static dielectric constant tensor:
#      x y z
#    x 1.666840 0.000000 0.055650 
#    y 0.000000 1.683450 0.000000 
#    z 0.055650 0.000000 1.735630 
# 
# From -- ./inp_files/108348.got.cif
#   From: 2010.05.17/outbox.cif.g08.bks.cpg/sg15_55_cif.got.tgz:108348.got - 2010.06.03 18:47:42.
