data_PCOD9258633
_publ_section_title
;
Structure prediction by ZEFSAII (Michael W. Deem and Ramdas Pophale) SiO2 
 PCOD9258633
Probable space group: C 2/C
;
_chemical_formula_sum "Si O2"
_cell_formula_units_Z 60
_cell_length_a 28.598736
_cell_length_b 25.502233
_cell_length_c 15.694625
_cell_angle_alpha 90.000000
_cell_angle_beta 162.213095
_cell_angle_gamma 90.000000
_cell_volume 3496.676743
_symmetry_space_group_name_H-M "C 2/C"
_symmetry_group_IT_number 15
_symmetry_cell_setting 'monoclinic'
loop_
_space_group_symop_operation_xyz
x,y,z
-x,y,1/2-z
-x,-y,-z
x,-y,1/2+z
1/2+x,1/2+y,z
1/2-x,1/2+y,1/2-z
1/2-x,1/2-y,-z
1/2+x,1/2-y,1/2+z
loop_
_atom_site_type_symbol
_atom_site_label
_atom_site_fract_x
_atom_site_fract_y
_atom_site_fract_z
Si Si1 0.858109 0.465071 0.779195
Si Si2 0.435089 0.749320 0.318195
Si Si3 0.323361 0.977478 0.915531
Si Si4 0.000000 0.281553 0.250000
Si Si5 0.070890 0.155600 0.664806
Si Si6 0.849568 0.344325 0.769156
Si Si7 0.225867 0.142177 0.241510
Si Si8 0.359346 0.539152 0.761404
O O1 0.804894 0.482568 0.781203
O O2 0.907420 0.404091 0.866618
O O3 0.734307 0.468117 0.489234
O O4 0.000000 0.500000 0.000000
O O5 0.495540 0.747093 0.326405
O O6 0.506693 0.701240 0.494005
O O7 0.512826 0.803105 0.487151
O O8 0.250000 0.750000 0.000000
O O9 0.267134 0.917966 0.834552
O O10 0.236315 0.019857 0.822509
O O11 0.500000 0.980064 0.250000
O O12 0.147623 0.319471 0.497689
O O13 0.088770 0.099753 0.648260
O O14 0.943714 0.150571 0.518343
O O15 0.234567 0.167213 0.992163
O O16 0.749933 0.345248 0.683523
O O17 0.500000 0.500000 0.000000
#
# Coordination Sequence:
#
# PCOD9258633 Si02
#       8
#     8   8   8   4   8   8   8   8
#     4  10  21  37  60  88 119 156 200 241 290 353
#     4  11  22  38  62  83 115 153 194 241 295 349
#     4  11  20  35  62  87 121 158 197 243 298 354
#     4  10  20  36  56  94 108 142 198 244 282 346
#     4  11  21  38  59  85 119 154 189 243 305 342
#     4   9  22  36  58  89 117 144 198 247 287 341
#     4  10  18  33  62  88 113 144 197 249 287 333
#     4  11  23  37  58  89 122 154 196 249 298 353
#
# _framework density 17.15915
#
# number of rings (size 3 to 8) (size 9 to 14) (size 15 to 20)
#    0.000    1.600    4.667    0.800    0.000    1.600 
#    0.000    2.667    0.000    0.000    0.000    0.000 
#    0.000    0.000    0.000    0.000    0.000    0.000 
#
# Total GULP energy -167275.610879 kJ/mol
# GULP energy per Si atom -5575.853696 kJ/mol
# Density = 1.712010 g / cm^3
# Si number density = 17.159150 Si / 1000 Ang^3
#
#
#
# Elastic Constant Matrix: (Units=GPa)
#
#
# Indices 1 2 3 4 5 6 
#
# 1 93.5650 74.2099 46.8097 0.0000 -3.7158 0.0000
# 2 74.2099 123.2782 75.1381 0.0000 -7.6948 0.0000
# 3 46.8097 75.1381 97.3773 0.0000 3.3933 0.0000
# 4 0.0000 0.0000 0.0000 30.1273 0.0000 2.0193
# 5 -3.7158 -7.6948 3.3933 0.0000 25.4315 0.0000
# 6 0.0000 0.0000 0.0000 2.0193 0.0000 27.0088
#
#
#
# Elastic Compliance Matrix: (Units=1/GPa)
#
#
# Indices 1 2 3 4 5 6 
#
# 1 0.020481 -0.012038 -0.000536 0.000000 -0.000578 0.000000
# 2 -0.012038 0.023443 -0.012546 0.000000 0.007008 0.000000
# 3 -0.000536 -0.012546 0.020438 0.000000 -0.006602 0.000000
# 4 0.000000 0.000000 0.000000 0.033360 0.000000 -0.002494
# 5 -0.000578 0.007008 -0.006602 0.000000 0.042238 0.000000
# 6 0.000000 0.000000 0.000000 -0.002494 0.000000 0.037211
#
#
# Mechanical properties :
#
#
# Convention : Reuss Voigt Hill
#
# Bulk Modulus (GPa) = 70.81946 78.50400 74.66173
# Shear Modulus (GPa) = 21.54060 24.38436 22.96248
#
# Velocity S-wave (km/s) = 3.54692 3.77380 3.66212
# Velocity P-wave (km/s) = 7.62469 8.05224 7.84138
#
# Compressibility (1/GPa) = 0.01412041
#
# Stress axis : x y z
#
# Youngs Moduli (GPa) = 48.82550 42.65686 48.92823
#
# Poissons Ratio (x) = 0.51352 0.02624
# Poissons Ratio (y) = 0.58778 0.61387
# Poissons Ratio (z) = 0.02618 0.53519
#
# Static dielectric constant tensor:
#      x y z
#    x 1.569000 0.000000 -0.004600 
#    y 0.000000 1.566690 0.000000 
#    z -0.004600 0.000000 1.575570 
# 
# From -- ./inp_files/137792.got.cif
#   From: 2010.05.17/outbox.cif.g08.bks.cpg/sg15_69_cif.got.tgz:137792.got - 2010.06.03 18:47:42.
