data_PCOD9258004
_publ_section_title
;
Structure prediction by ZEFSAII (Michael W. Deem and Ramdas Pophale) SiO2 
 PCOD9258004
Probable space group: C 2/C
;
_chemical_formula_sum "Si O2"
_cell_formula_units_Z 56
_cell_length_a 9.758874
_cell_length_b 10.221080
_cell_length_c 30.713789
_cell_angle_alpha 90.000000
_cell_angle_beta 54.048474
_cell_angle_gamma 90.000000
_cell_volume 2480.014687
_symmetry_space_group_name_H-M "C 2/C"
_symmetry_group_IT_number 15
_symmetry_cell_setting 'monoclinic'
loop_
_space_group_symop_operation_xyz
x,y,z
-x,y,1/2-z
-x,-y,-z
x,-y,1/2+z
1/2+x,1/2+y,z
1/2-x,1/2+y,1/2-z
1/2-x,1/2-y,-z
1/2+x,1/2-y,1/2+z
loop_
_atom_site_type_symbol
_atom_site_label
_atom_site_fract_x
_atom_site_fract_y
_atom_site_fract_z
Si Si1 0.509618 0.858677 0.342181
Si Si2 0.395972 0.092661 0.309149
Si Si3 0.870431 0.173019 0.555912
Si Si4 0.469027 0.424528 0.656425
Si Si5 0.631732 0.857408 0.498090
Si Si6 0.619058 0.437198 0.536950
Si Si7 0.233344 0.851421 0.125612
O O1 0.315683 0.856554 0.394298
O O2 0.543303 0.713639 0.316176
O O3 0.638445 0.875990 0.358364
O O4 0.509720 0.979571 0.309114
O O5 0.500000 0.154381 0.250000
O O6 0.219932 0.035967 0.322574
O O7 0.343330 0.206383 0.352451
O O8 0.948613 0.315580 0.549985
O O9 0.989535 0.057684 0.552483
O O10 0.892537 0.161832 0.500005
O O11 0.565218 0.385013 0.593428
O O12 0.582944 0.540946 0.653823
O O13 0.750000 0.750000 0.500000
O O14 0.695641 0.999396 0.499685
O O15 0.676513 0.852424 0.438431
#
# Coordination Sequence:
#
# PCOD9258004 Si02
#       7
#     8   8   8   8   8   8   8
#     4  11  24  39  65  98 127 166 220 267 319 380
#     4  11  25  46  70  91 119 166 216 270 337 392
#     4  10  18  32  57  86 126 173 211 251 300 365
#     4  10  22  43  62  93 132 161 205 266 321 382
#     4   9  19  33  59  92 126 175 214 243 309 380
#     4   9  18  33  56  86 125 172 209 247 301 373
#     4  10  24  44  66  96 135 170 214 268 321 389
#
# _framework density 22.580511000000001
#
# number of rings (size 3 to 8) (size 9 to 14) (size 15 to 20)
#    0.000    2.000    1.429    1.714    4.000    6.857 
#    0.000    3.571    0.000    0.000    0.000    0.000 
#    0.000    0.000    0.000    0.000    0.000    0.000 
#
# Total GULP energy -156426.230187 kJ/mol
# GULP energy per Si atom -5586.651078 kJ/mol
# Density = 2.252912 g / cm^3
# Si number density = 22.580511 Si / 1000 Ang^3
#
#
#
# Elastic Constant Matrix: (Units=GPa)
#
#
# Indices 1 2 3 4 5 6 
#
# 1 71.3426 42.2053 9.4446 0.0000 3.3881 0.0000
# 2 42.2053 87.6078 -3.8032 0.0000 15.7675 0.0000
# 3 9.4446 -3.8032 24.2224 0.0000 -4.4696 0.0000
# 4 0.0000 0.0000 0.0000 12.5877 0.0000 1.0011
# 5 3.3881 15.7675 -4.4696 0.0000 10.1809 0.0000
# 6 0.0000 0.0000 0.0000 1.0011 0.0000 36.1375
#
#
#
# Elastic Compliance Matrix: (Units=1/GPa)
#
#
# Indices 1 2 3 4 5 6 
#
# 1 0.022298 -0.012589 -0.009187 0.000000 0.008043 0.000000
# 2 -0.012589 0.023043 0.002954 0.000000 -0.030201 0.000000
# 3 -0.009187 0.002954 0.049021 0.000000 0.020004 0.000000
# 4 0.000000 0.000000 0.000000 0.079618 0.000000 -0.002206
# 5 0.008043 -0.030201 0.020004 0.000000 0.151102 0.000000
# 6 0.000000 0.000000 0.000000 -0.002206 0.000000 0.027733
#
#
# Mechanical properties :
#
#
# Convention : Reuss Voigt Hill
#
# Bulk Modulus (GPa) = 17.63088 30.98511 24.30799
# Shear Modulus (GPa) = 12.21401 20.80298 16.50849
#
# Velocity S-wave (km/s) = 2.32827 3.03855 2.70681
# Velocity P-wave (km/s) = 3.87979 5.10512 4.53404
#
# Compressibility (1/GPa) = 0.05671868
#
# Stress axis : x y z
#
# Youngs Moduli (GPa) = 44.84636 43.39729 20.39936
#
# Poissons Ratio (x) = 0.54631 0.18741
# Poissons Ratio (y) = 0.56455 -0.06025
# Poissons Ratio (z) = 0.41200 -0.12818
#
# Static dielectric constant tensor:
#      x y z
#    x 1.918110 0.000000 -0.001800 
#    y 0.000000 1.890730 0.000000 
#    z -0.001800 0.000000 1.857310 
# 
# From -- ./inp_files/307424.got.cif
#   From: 2010.05.17/outbox.cif.g08.bks.cpg/sg15_154_cif.got.tgz:307424.got - 2010.06.03 18:47:42.
