data_PCOD9258048
_publ_section_title
;
Structure prediction by ZEFSAII (Michael W. Deem and Ramdas Pophale) SiO2 
 PCOD9258048
Probable space group: C 2/C
;
_chemical_formula_sum "Si O2"
_cell_formula_units_Z 48
_cell_length_a 20.397780
_cell_length_b 6.913740
_cell_length_c 19.390897
_cell_angle_alpha 90.000000
_cell_angle_beta 127.840443
_cell_angle_gamma 90.000000
_cell_volume 2159.574475
_symmetry_space_group_name_H-M "C 2/C"
_symmetry_group_IT_number 15
_symmetry_cell_setting 'monoclinic'
loop_
_space_group_symop_operation_xyz
x,y,z
-x,y,1/2-z
-x,-y,-z
x,-y,1/2+z
1/2+x,1/2+y,z
1/2-x,1/2+y,1/2-z
1/2-x,1/2-y,-z
1/2+x,1/2-y,1/2+z
loop_
_atom_site_type_symbol
_atom_site_label
_atom_site_fract_x
_atom_site_fract_y
_atom_site_fract_z
Si Si1 0.292213 0.062253 0.560260
Si Si2 0.186864 0.063597 0.114276
Si Si3 0.441012 0.044697 0.070692
Si Si4 0.062841 0.316507 0.241724
Si Si5 0.060823 0.740595 0.059162
Si Si6 0.330314 0.095855 0.805593
O O1 0.250000 0.250000 0.500000
O O2 0.222145 0.958839 0.560176
O O3 0.348181 0.949759 0.540408
O O4 0.361766 0.125577 0.660554
O O5 0.102621 0.944823 0.072545
O O6 0.252070 0.961049 0.209194
O O7 0.187806 0.284606 0.138038
O O8 0.503027 0.987512 0.173630
O O9 0.477960 0.225024 0.052173
O O10 0.448745 0.869031 0.020262
O O11 0.111017 0.262074 0.202876
O O12 0.000000 0.194831 0.250000
O O13 0.123239 0.599655 0.142154
#
# Coordination Sequence:
#
# PCOD9258048 Si02
#       6
#     8   8   8   8   8   8
#     4  10  18  32  58  87 109 151 195 234 289 351
#     4  11  20  34  59  85 116 152 196 243 291 347
#     4   9  18  35  56  81 114 154 193 232 298 347
#     4   8  17  33  56  78 107 152 190 227 288 355
#     4  10  19  35  59  82 116 152 191 248 287 351
#     4  10  20  34  57  87 113 149 195 238 293 343
#
# _framework density 22.226600000000001
#
# number of rings (size 3 to 8) (size 9 to 14) (size 15 to 20)
#    0.000    2.333    3.333    0.000    0.000    0.000 
#    0.000    8.333    3.667    0.000    0.000    0.000 
#    0.000    0.000    0.000    0.000    0.000    0.000 
#
# Total GULP energy -133738.410823 kJ/mol
# GULP energy per Si atom -5572.433784 kJ/mol
# Density = 2.217601 g / cm^3
# Si number density = 22.226600 Si / 1000 Ang^3
#
#
#
# Elastic Constant Matrix: (Units=GPa)
#
#
# Indices 1 2 3 4 5 6 
#
# 1 140.9990 43.2792 26.6358 0.0000 -21.0923 0.0000
# 2 43.2792 67.5851 27.8858 0.0000 0.6124 0.0001
# 3 26.6358 27.8858 105.8907 0.0000 -6.6603 0.0000
# 4 0.0000 0.0000 0.0000 29.2723 0.0000 -2.0568
# 5 -21.0923 0.6124 -6.6603 0.0000 35.7826 0.0000
# 6 0.0000 0.0001 0.0000 -2.0568 0.0000 20.0540
#
#
#
# Elastic Compliance Matrix: (Units=1/GPa)
#
#
# Indices 1 2 3 4 5 6 
#
# 1 0.009985 -0.006242 -0.000497 0.000000 0.005900 0.000000
# 2 -0.006242 0.020546 -0.004143 0.000000 -0.004802 0.000000
# 3 -0.000497 -0.004143 0.010772 0.000000 0.001783 0.000000
# 4 0.000000 0.000000 0.000000 0.034410 0.000000 0.003529
# 5 0.005900 -0.004802 0.001783 0.000000 0.031838 0.000000
# 6 0.000000 0.000000 0.000000 0.003529 0.000000 0.050227
#
#
# Mechanical properties :
#
#
# Convention : Reuss Voigt Hill
#
# Bulk Modulus (GPa) = 51.17821 56.67515 53.92668
# Shear Modulus (GPa) = 26.87378 31.46672 29.17025
#
# Velocity S-wave (km/s) = 3.48096 3.76669 3.62664
# Velocity P-wave (km/s) = 6.26352 6.66869 6.46928
#
# Compressibility (1/GPa) = 0.01953957
#
# Stress axis : x y z
#
# Youngs Moduli (GPa) = 100.15273 48.67035 92.83591
#
# Poissons Ratio (x) = 0.30382 0.04610
# Poissons Ratio (y) = 0.62520 0.38458
# Poissons Ratio (z) = 0.04973 0.20162
#
# Static dielectric constant tensor:
#      x y z
#    x 1.920780 0.000000 0.004870 
#    y 0.000000 1.756580 0.000000 
#    z 0.004870 0.000000 1.841520 
# 
# From -- ./inp_files/213261.got.cif
#   From: 2010.05.17/outbox.cif.g08.bks.cpg/sg15_107_cif.got.tgz:213261.got - 2010.06.03 18:47:42.
