data_PCOD9258484
_publ_section_title
;
Structure prediction by ZEFSAII (Michael W. Deem and Ramdas Pophale) SiO2 
 PCOD9258484
Probable space group: C 2/C
;
_chemical_formula_sum "Si O2"
_cell_formula_units_Z 48
_cell_length_a 26.308767
_cell_length_b 11.555170
_cell_length_c 13.066259
_cell_angle_alpha 90.000000
_cell_angle_beta 151.655816
_cell_angle_gamma 90.000000
_cell_volume 1885.856617
_symmetry_space_group_name_H-M "C 2/C"
_symmetry_group_IT_number 15
_symmetry_cell_setting 'monoclinic'
loop_
_space_group_symop_operation_xyz
x,y,z
-x,y,1/2-z
-x,-y,-z
x,-y,1/2+z
1/2+x,1/2+y,z
1/2-x,1/2+y,1/2-z
1/2-x,1/2-y,-z
1/2+x,1/2-y,1/2+z
loop_
_atom_site_type_symbol
_atom_site_label
_atom_site_fract_x
_atom_site_fract_y
_atom_site_fract_z
Si Si1 0.606973 0.231966 0.509501
Si Si2 0.197243 0.742618 0.296964
Si Si3 0.194374 0.862043 0.842625
Si Si4 0.983091 0.852764 0.830130
Si Si5 0.419249 0.915005 0.176362
Si Si6 0.917202 0.495594 0.921144
O O1 0.711478 0.233845 0.624549
O O2 0.617332 0.332742 0.610309
O O3 0.612467 0.122742 0.595434
O O4 0.500000 0.227384 0.250000
O O5 0.250000 0.750000 0.500000
O O6 0.160872 0.609443 0.236115
O O7 0.092762 0.821442 0.085016
O O8 0.111647 0.915341 0.776794
O O9 0.250000 0.750000 0.000000
O O10 0.290843 0.933314 0.964274
O O11 0.935847 0.723776 0.720927
O O12 0.000000 0.909803 0.750000
O O13 0.448852 0.973038 0.345289
O O14 0.436891 0.947883 0.084005
#
# Coordination Sequence:
#
# PCOD9258484 Si02
#       6
#     8   8   8   8   8   8
#     4  12  24  39  65 100 138 182 234 294 360 422
#     4  11  23  41  64  98 144 186 229 294 363 425
#     4  10  18  33  57  89 124 169 221 277 341 411
#     4   9  17  31  54  86 120 167 220 267 328 409
#     4   9  17  31  54  85 118 157 211 270 324 392
#     4  11  22  39  65 100 133 173 235 294 348 425
#
# _framework density 25.452624
#
# number of rings (size 3 to 8) (size 9 to 14) (size 15 to 20)
#    0.000    1.667    0.000    9.500    0.000    0.667 
#    0.000    3.333    0.000   10.000    0.000   44.333 
#    0.000    0.000    0.000    0.000    0.000    0.000 
#
# Total GULP energy -133987.928162 kJ/mol
# GULP energy per Si atom -5582.830340 kJ/mol
# Density = 2.539469 g / cm^3
# Si number density = 25.452624 Si / 1000 Ang^3
#
#
#
# Elastic Constant Matrix: (Units=GPa)
#
#
# Indices 1 2 3 4 5 6 
#
# 1 317.6129 47.4141 92.2353 0.0000 15.4662 0.0000
# 2 47.4141 33.8467 41.8131 0.0000 -0.3822 0.0000
# 3 92.2353 41.8131 183.5441 0.0000 -15.4785 0.0000
# 4 0.0000 0.0000 0.0000 11.5932 0.0000 2.3156
# 5 15.4662 -0.3822 -15.4785 0.0000 59.0595 0.0000
# 6 0.0000 0.0000 0.0000 2.3156 0.0000 35.0156
#
#
#
# Elastic Compliance Matrix: (Units=1/GPa)
#
#
# Indices 1 2 3 4 5 6 
#
# 1 0.004242 -0.004415 -0.001250 0.000000 -0.001467 0.000000
# 2 -0.004415 0.046003 -0.008323 0.000000 -0.000727 0.000000
# 3 -0.001250 -0.008323 0.008176 0.000000 0.002416 0.000000
# 4 0.000000 0.000000 0.000000 0.087412 0.000000 -0.005781
# 5 -0.001467 -0.000727 0.002416 0.000000 0.017945 0.000000
# 6 0.000000 0.000000 0.000000 -0.005781 0.000000 0.028941
#
#
# Mechanical properties :
#
#
# Convention : Reuss Voigt Hill
#
# Bulk Modulus (GPa) = 32.84452 99.76986 66.30719
# Shear Modulus (GPa) = 21.65981 44.70308 33.18144
#
# Velocity S-wave (km/s) = 2.92033 4.19540 3.61453
# Velocity P-wave (km/s) = 4.92984 7.92161 6.59754
#
# Compressibility (1/GPa) = 0.03044647
#
# Stress axis : x y z
#
# Youngs Moduli (GPa) = 235.74354 21.73760 122.31047
#
# Poissons Ratio (x) = 0.09598 0.15283
# Poissons Ratio (y) = 1.04085 1.01794
# Poissons Ratio (z) = 0.29457 0.18091
#
# Static dielectric constant tensor:
#      x y z
#    x 2.437510 0.000000 -0.082670 
#    y 0.000000 1.968270 0.000000 
#    z -0.082670 0.000000 2.066370 
# 
# From -- ./inp_files/123606.got.cif
#   From: 2010.05.17/outbox.cif.g08.bks.cpg/sg15_62_cif.got.tgz:123606.got - 2010.06.03 18:47:42.
