data_PCOD9258721
_publ_section_title
;
Structure prediction by ZEFSAII (Michael W. Deem and Ramdas Pophale) SiO2 
 PCOD9258721
Probable space group: C 2/C
;
_chemical_formula_sum "Si O2"
_cell_formula_units_Z 56
_cell_length_a 30.672405
_cell_length_b 7.362237
_cell_length_c 14.066517
_cell_angle_alpha 90.000000
_cell_angle_beta 117.347793
_cell_angle_gamma 90.000000
_cell_volume 2821.446114
_symmetry_space_group_name_H-M "C 2/C"
_symmetry_group_IT_number 15
_symmetry_cell_setting 'monoclinic'
loop_
_space_group_symop_operation_xyz
x,y,z
-x,y,1/2-z
-x,-y,-z
x,-y,1/2+z
1/2+x,1/2+y,z
1/2-x,1/2+y,1/2-z
1/2-x,1/2-y,-z
1/2+x,1/2-y,1/2+z
loop_
_atom_site_type_symbol
_atom_site_label
_atom_site_fract_x
_atom_site_fract_y
_atom_site_fract_z
Si Si1 0.117281 0.649092 0.503155
Si Si2 0.638092 0.956937 0.231837
Si Si3 0.693688 0.763231 0.915264
Si Si4 0.050562 0.091202 0.319018
Si Si5 0.557068 0.507935 0.024451
Si Si6 0.946987 0.508132 0.724116
Si Si7 0.631500 0.471154 0.766471
O O1 0.137821 0.547747 0.617391
O O2 0.161432 0.723657 0.480564
O O3 0.078187 0.800852 0.502722
O O4 0.087314 0.523370 0.400853
O O5 0.586051 0.041049 0.218004
O O6 0.641480 0.743305 0.264379
O O7 0.678576 0.068107 0.331584
O O8 0.678581 0.589613 0.836065
O O9 0.750000 0.750000 0.000000
O O10 0.045197 0.276258 0.254782
O O11 0.096945 0.994020 0.322712
O O12 0.000000 0.987191 0.250000
O O13 0.058468 0.126192 0.436795
O O14 0.596752 0.467001 0.145054
O O15 0.500000 0.500000 0.000000
O O16 0.000000 0.430210 0.750000
#
# Coordination Sequence:
#
# PCOD9258721 Si02
#       7
#     8   8   8   8   8   8   8
#     4  10  22  41  58  89 128 158 208 265 309 374
#     4   9  22  42  60  90 127 153 203 268 306 372
#     4  11  24  45  67  89 116 164 217 263 323 377
#     4  10  18  34  53  83 123 158 202 239 293 373
#     4  11  21  33  59  91 121 164 202 243 306 380
#     4   9  20  34  56  86 124 169 198 239 303 366
#     4  10  21  39  60  88 124 160 200 258 312 362
#
# _framework density 19.847977
#
# number of rings (size 3 to 8) (size 9 to 14) (size 15 to 20)
#    0.000    2.000    2.857    0.000    4.000    4.000 
#    5.143    0.000    0.000    0.000    0.000    0.000 
#    0.000    0.000    0.000    0.000    0.000    0.000 
#
# Total GULP energy -155912.930857 kJ/mol
# GULP energy per Si atom -5568.318959 kJ/mol
# Density = 1.980280 g / cm^3
# Si number density = 19.847977 Si / 1000 Ang^3
#
#
#
# Elastic Constant Matrix: (Units=GPa)
#
#
# Indices 1 2 3 4 5 6 
#
# 1 74.8612 20.7632 61.9283 0.0000 4.9722 0.0000
# 2 20.7632 62.2923 26.8449 0.0000 9.8710 0.0000
# 3 61.9283 26.8449 121.1953 0.0000 5.4619 0.0000
# 4 0.0000 0.0000 0.0000 27.7613 0.0000 -4.4515
# 5 4.9722 9.8710 5.4619 0.0000 46.5628 0.0000
# 6 0.0000 0.0000 0.0000 -4.4515 0.0000 5.4178
#
#
#
# Elastic Compliance Matrix: (Units=1/GPa)
#
#
# Indices 1 2 3 4 5 6 
#
# 1 0.023636 -0.002867 -0.011416 0.000000 -0.000577 0.000000
# 2 -0.002867 0.018620 -0.002509 0.000000 -0.003347 0.000000
# 3 -0.011416 -0.002509 0.014639 0.000000 0.000034 0.000000
# 4 0.000000 0.000000 0.000000 0.041487 0.000000 0.034088
# 5 -0.000577 -0.003347 0.000034 0.000000 0.022244 0.000000
# 6 0.000000 0.000000 0.000000 0.034088 0.000000 0.212586
#
#
# Mechanical properties :
#
#
# Convention : Reuss Voigt Hill
#
# Bulk Modulus (GPa) = 42.89807 53.04684 47.97245
# Shear Modulus (GPa) = 13.34878 25.86920 19.60899
#
# Velocity S-wave (km/s) = 2.59617 3.61413 3.14659
# Velocity P-wave (km/s) = 5.53598 6.64835 6.11750
#
# Compressibility (1/GPa) = 0.02331107
#
# Stress axis : x y z
#
# Youngs Moduli (GPa) = 42.30918 53.70448 68.31178
#
# Poissons Ratio (x) = 0.15397 0.77986
# Poissons Ratio (y) = 0.12130 0.17137
# Poissons Ratio (z) = 0.48301 0.13473
#
# Static dielectric constant tensor:
#      x y z
#    x 1.745670 0.000000 -0.010000 
#    y 0.000000 1.764830 0.000000 
#    z -0.010000 0.000000 1.692170 
# 
# From -- ./inp_files/180852.got.cif
#   From: 2010.05.17/outbox.cif.g08.bks.cpg/sg15_91_cif.got.tgz:180852.got - 2010.06.03 18:47:42.
