data_PCOD9258300
_publ_section_title
;
Structure prediction by ZEFSAII (Michael W. Deem and Ramdas Pophale) SiO2 
 PCOD9258300
Probable space group: C 2/C
;
_chemical_formula_sum "Si O2"
_cell_formula_units_Z 56
_cell_length_a 9.198214
_cell_length_b 15.224362
_cell_length_c 22.523639
_cell_angle_alpha 90.000000
_cell_angle_beta 75.075138
_cell_angle_gamma 90.000000
_cell_volume 3047.734660
_symmetry_space_group_name_H-M "C 2/C"
_symmetry_group_IT_number 15
_symmetry_cell_setting 'monoclinic'
loop_
_space_group_symop_operation_xyz
x,y,z
-x,y,1/2-z
-x,-y,-z
x,-y,1/2+z
1/2+x,1/2+y,z
1/2-x,1/2+y,1/2-z
1/2-x,1/2-y,-z
1/2+x,1/2-y,1/2+z
loop_
_atom_site_type_symbol
_atom_site_label
_atom_site_fract_x
_atom_site_fract_y
_atom_site_fract_z
Si Si1 0.626198 0.162932 0.896495
Si Si2 0.044399 0.792981 0.177864
Si Si3 0.049461 0.074108 0.914612
Si Si4 0.923539 0.234156 0.502330
Si Si5 0.372346 0.034559 0.912299
Si Si6 0.746632 0.014145 0.443730
Si Si7 0.437860 0.862227 0.610796
O O1 0.773532 0.201284 0.848865
O O2 0.490377 0.109162 0.879054
O O3 0.685793 0.083424 0.933024
O O4 0.540317 0.240901 0.939093
O O5 0.000000 0.808710 0.250000
O O6 0.985692 0.868773 0.139925
O O7 0.964457 0.703167 0.162990
O O8 0.049531 0.140066 0.970891
O O9 0.217251 0.039291 0.894405
O O10 0.922486 0.000778 0.934568
O O11 0.750000 0.250000 0.500000
O O12 0.960998 0.300325 0.551813
O O13 0.442453 0.939455 0.897643
O O14 0.335345 0.044458 0.987013
O O15 0.710184 0.081771 0.393946
#
# Coordination Sequence:
#
# PCOD9258300 Si02
#       7
#     8   8   8   8   8   8   8
#     4  10  19  34  58  82 117 153 182 221 290 336
#     4  10  24  43  57  74 107 153 208 243 268 319
#     4  10  22  32  59  85 119 150 179 226 286 340
#     4  11  18  32  54  91 119 146 175 224 281 356
#     4  11  18  35  54  96 119 140 174 224 294 358
#     4  10  18  33  53  90 122 147 166 221 287 358
#     4  10  20  35  57  78 117 146 186 226 289 335
#
# _framework density 18.374302
#
# number of rings (size 3 to 8) (size 9 to 14) (size 15 to 20)
#    0.000    1.714    4.286    1.286    2.000    1.714 
#    0.000    5.000    0.000    0.000    0.000    0.000 
#    0.000    0.000    0.000    0.000    0.000    0.000 
#
# Total GULP energy -156000.908400 kJ/mol
# GULP energy per Si atom -5571.461014 kJ/mol
# Density = 1.833248 g / cm^3
# Si number density = 18.374302 Si / 1000 Ang^3
#
#
#
# Elastic Constant Matrix: (Units=GPa)
#
#
# Indices 1 2 3 4 5 6 
#
# 1 152.6882 39.5066 42.7200 0.0000 1.1177 0.0000
# 2 39.5066 84.2732 33.2660 0.0000 4.7541 0.0000
# 3 42.7200 33.2660 80.8875 0.0000 -8.2114 0.0000
# 4 0.0000 0.0000 0.0000 13.0164 0.0000 5.3623
# 5 1.1177 4.7541 -8.2114 0.0000 15.4354 0.0000
# 6 0.0000 0.0000 0.0000 5.3623 0.0000 28.2825
#
#
#
# Elastic Compliance Matrix: (Units=1/GPa)
#
#
# Indices 1 2 3 4 5 6 
#
# 1 0.008151 -0.002332 -0.003523 0.000000 -0.001746 0.000000
# 2 -0.002332 0.015804 -0.006073 0.000000 -0.007929 0.000000
# 3 -0.003523 -0.006073 0.017904 0.000000 0.011650 0.000000
# 4 0.000000 0.000000 0.000000 0.083336 0.000000 -0.015800
# 5 -0.001746 -0.007929 0.011650 0.000000 0.073552 0.000000
# 6 0.000000 0.000000 0.000000 -0.015800 0.000000 0.038353
#
#
# Mechanical properties :
#
#
# Convention : Reuss Voigt Hill
#
# Bulk Modulus (GPa) = 55.54697 60.98156 58.26427
# Shear Modulus (GPa) = 18.72960 24.83728 21.78344
#
# Velocity S-wave (km/s) = 3.19617 3.68059 3.44690
# Velocity P-wave (km/s) = 6.62700 7.16400 6.90072
#
# Compressibility (1/GPa) = 0.01800278
#
# Stress axis : x y z
#
# Youngs Moduli (GPa) = 122.68142 63.27554 55.85398
#
# Poissons Ratio (x) = 0.14756 0.19679
# Poissons Ratio (y) = 0.28609 0.33920
# Poissons Ratio (z) = 0.43223 0.38427
#
# Static dielectric constant tensor:
#      x y z
#    x 1.686380 0.000000 0.031290 
#    y 0.000000 1.673300 0.000000 
#    z 0.031290 0.000000 1.610500 
# 
# From -- ./inp_files/231562.got.cif
#   From: 2010.05.17/outbox.cif.g08.bks.cpg/sg15_116_cif.got.tgz:231562.got - 2010.06.03 18:47:42.
