data_PCOD9258138
_publ_section_title
;
Structure prediction by ZEFSAII (Michael W. Deem and Ramdas Pophale) SiO2 
 PCOD9258138
Probable space group: C 2/C
;
_chemical_formula_sum "Si O2"
_cell_formula_units_Z 44
_cell_length_a 22.930361
_cell_length_b 11.629573
_cell_length_c 7.725500
_cell_angle_alpha 90.000000
_cell_angle_beta 113.392407
_cell_angle_gamma 90.000000
_cell_volume 1890.831120
_symmetry_space_group_name_H-M "C 2/C"
_symmetry_group_IT_number 15
_symmetry_cell_setting 'monoclinic'
loop_
_space_group_symop_operation_xyz
x,y,z
-x,y,1/2-z
-x,-y,-z
x,-y,1/2+z
1/2+x,1/2+y,z
1/2-x,1/2+y,1/2-z
1/2-x,1/2-y,-z
1/2+x,1/2-y,1/2+z
loop_
_atom_site_type_symbol
_atom_site_label
_atom_site_fract_x
_atom_site_fract_y
_atom_site_fract_z
Si Si1 0.855347 0.150486 0.871500
Si Si2 0.000000 0.451926 0.750000
Si Si3 0.811324 0.540765 0.097945
Si Si4 0.292678 0.818874 0.228347
Si Si5 0.668913 0.398270 0.548689
Si Si6 0.424553 0.132771 0.466013
O O1 0.783964 0.188195 0.846695
O O2 0.856945 0.151519 0.662842
O O3 0.907784 0.238770 0.002303
O O4 0.862900 0.017811 0.935444
O O5 0.943544 0.539562 0.632003
O O6 0.982029 0.376604 0.894487
O O7 0.811447 0.402141 0.093721
O O8 0.742120 0.571157 0.093106
O O9 0.864434 0.590916 0.284864
O O10 0.813281 0.605381 0.918773
O O11 0.326660 0.697251 0.295762
#
# Coordination Sequence:
#
# PCOD9258138 Si02
#       6
#     8   4   8   8   8   8
#     4  10  20  36  59  81 130 153 188 223 290 341
#     4  10  26  38  66  86 108 140 220 248 290 316
#     4  10  18  32  61  83 124 147 185 225 295 330
#     4  10  18  34  52  94 122 157 181 223 274 380
#     4  10  19  36  52  95 121 158 177 218 278 392
#     4  11  20  43  59  90 108 153 186 262 282 327
#
# _framework density 23.270191000000001
#
# number of rings (size 3 to 8) (size 9 to 14) (size 15 to 20)
#    0.000    1.818    3.636    2.182    0.000    0.000 
#    6.545    3.636    0.000    3.273    0.000    0.000 
#    0.000    0.000    0.000    0.000    0.000    0.000 
#
# Total GULP energy -123114.564990 kJ/mol
# GULP energy per Si atom -5596.116590 kJ/mol
# Density = 2.321723 g / cm^3
# Si number density = 23.270191 Si / 1000 Ang^3
#
#
#
# Elastic Constant Matrix: (Units=GPa)
#
#
# Indices 1 2 3 4 5 6 
#
# 1 44.9092 42.5621 10.1415 0.0000 -6.8255 0.0000
# 2 42.5621 184.2990 14.6236 0.0000 -2.9361 0.0000
# 3 10.1415 14.6236 69.6019 0.0000 3.1058 0.0000
# 4 0.0000 0.0000 0.0000 40.4967 0.0000 1.8470
# 5 -6.8255 -2.9361 3.1058 0.0000 23.1795 0.0000
# 6 0.0000 0.0000 0.0000 1.8470 0.0000 29.7982
#
#
#
# Elastic Compliance Matrix: (Units=1/GPa)
#
#
# Indices 1 2 3 4 5 6 
#
# 1 0.030689 -0.006675 -0.003455 0.000000 0.008654 0.000000
# 2 -0.006675 0.006987 -0.000450 0.000000 -0.001020 0.000000
# 3 -0.003455 -0.000450 0.015104 0.000000 -0.003098 0.000000
# 4 0.000000 0.000000 0.000000 0.024763 0.000000 -0.001535
# 5 0.008654 -0.001020 -0.003098 0.000000 0.045976 0.000000
# 6 0.000000 0.000000 0.000000 -0.001535 0.000000 0.033654
#
#
# Mechanical properties :
#
#
# Convention : Reuss Voigt Hill
#
# Bulk Modulus (GPa) = 31.62661 48.16273 39.89467
# Shear Modulus (GPa) = 26.47268 34.12707 30.29988
#
# Velocity S-wave (km/s) = 3.37652 3.83372 3.61236
# Velocity P-wave (km/s) = 5.36859 6.35127 5.88049
#
# Compressibility (1/GPa) = 0.03161894
#
# Stress axis : x y z
#
# Youngs Moduli (GPa) = 32.58465 143.12265 66.20922
#
# Poissons Ratio (x) = 0.95540 0.22877
# Poissons Ratio (y) = 0.21751 0.02978
# Poissons Ratio (z) = 0.11259 0.06438
#
# Static dielectric constant tensor:
#      x y z
#    x 1.933280 0.000000 -0.050690 
#    y 0.000000 1.922700 0.000000 
#    z -0.050690 0.000000 1.892180 
# 
# From -- ./inp_files/54372.got.cif
#   From: 2010.05.17/outbox.cif.g08.bks.cpg/sg15_28_cif.got.tgz:54372.got - 2010.06.03 18:47:42.
