data_PCOD9258923
_publ_section_title
;
Structure prediction by ZEFSAII (Michael W. Deem and Ramdas Pophale) SiO2 
 PCOD9258923
Probable space group: C 2/C
;
_chemical_formula_sum "Si O2"
_cell_formula_units_Z 60
_cell_length_a 20.991063
_cell_length_b 9.799206
_cell_length_c 17.640948
_cell_angle_alpha 90.000000
_cell_angle_beta 113.238726
_cell_angle_gamma 90.000000
_cell_volume 3334.270084
_symmetry_space_group_name_H-M "C 2/C"
_symmetry_group_IT_number 15
_symmetry_cell_setting 'monoclinic'
loop_
_space_group_symop_operation_xyz
x,y,z
-x,y,1/2-z
-x,-y,-z
x,-y,1/2+z
1/2+x,1/2+y,z
1/2-x,1/2+y,1/2-z
1/2-x,1/2-y,-z
1/2+x,1/2-y,1/2+z
loop_
_atom_site_type_symbol
_atom_site_label
_atom_site_fract_x
_atom_site_fract_y
_atom_site_fract_z
Si Si1 0.204956 0.915590 0.686256
Si Si2 0.602431 0.225198 0.688468
Si Si3 0.279312 0.135759 0.637151
Si Si4 0.378860 0.921736 0.617200
Si Si5 0.000000 0.595650 0.750000
Si Si6 0.272028 0.284670 0.096415
Si Si7 0.222834 0.418316 0.619312
Si Si8 0.580229 0.957666 0.032081
O O1 0.129409 0.876838 0.682534
O O2 0.227353 0.798162 0.637466
O O3 0.256955 0.912188 0.782175
O O4 0.216245 0.056153 0.647585
O O5 0.663702 0.163550 0.770088
O O6 0.533264 0.193579 0.702430
O O7 0.594774 0.146355 0.606485
O O8 0.254576 0.282308 0.597475
O O9 0.316079 0.032774 0.595696
O O10 0.348559 0.782680 0.638535
O O11 0.402532 0.898477 0.542530
O O12 0.441577 0.995943 0.689168
O O13 0.258884 0.443584 0.105485
O O14 0.250000 0.250000 0.000000
O O15 0.140036 0.427867 0.570621
O O16 0.500000 0.000000 0.000000
#
# Coordination Sequence:
#
# PCOD9258923 Si02
#       8
#     8   8   8   8   4   8   8   8
#     4  10  18  35  58  86 113 149 192 245 295 348
#     4  10  18  34  57  82 111 149 193 237 292 348
#     4   9  20  34  57  84 113 143 190 247 292 343
#     4  10  21  35  56  85 112 154 190 244 296 346
#     4  10  20  36  54  84 114 150 200 238 280 372
#     4  11  20  35  59  86 119 150 195 248 302 340
#     4  11  20  36  57  87 114 150 194 245 297 355
#     4  12  21  34  57  84 113 152 195 234 291 356
#
# _framework density 17.994942999999999
#
# number of rings (size 3 to 8) (size 9 to 14) (size 15 to 20)
#    0.000    1.600    5.333    0.800    0.000    0.533 
#    0.000    0.000    0.000   12.800    0.000    0.000 
#    0.000    0.000    0.000    0.000    0.000    0.000 
#
# Total GULP energy -167155.127099 kJ/mol
# GULP energy per Si atom -5571.837570 kJ/mol
# Density = 1.795399 g / cm^3
# Si number density = 17.994943 Si / 1000 Ang^3
#
#
#
# Elastic Constant Matrix: (Units=GPa)
#
#
# Indices 1 2 3 4 5 6 
#
# 1 121.6563 55.8041 34.5456 0.0000 -0.2735 0.0000
# 2 55.8041 110.6024 21.0653 0.0000 -0.7933 0.0000
# 3 34.5456 21.0653 66.7360 0.0000 -8.9323 0.0000
# 4 0.0000 0.0000 0.0000 19.4250 0.0000 -0.1789
# 5 -0.2735 -0.7933 -8.9323 0.0000 35.8972 0.0000
# 6 0.0000 0.0000 0.0000 -0.1789 0.0000 31.0376
#
#
#
# Elastic Compliance Matrix: (Units=1/GPa)
#
#
# Indices 1 2 3 4 5 6 
#
# 1 0.011900 -0.005117 -0.004705 0.000000 -0.001193 0.000000
# 2 -0.005117 0.011831 -0.001092 0.000000 -0.000049 0.000000
# 3 -0.004705 -0.001092 0.018368 0.000000 0.004511 0.000000
# 4 0.000000 0.000000 0.000000 0.051483 0.000000 0.000297
# 5 -0.001193 -0.000049 0.004511 0.000000 0.028969 0.000000
# 6 0.000000 0.000000 0.000000 0.000297 0.000000 0.032221
#
#
# Mechanical properties :
#
#
# Convention : Reuss Voigt Hill
#
# Bulk Modulus (GPa) = 49.32976 57.98052 53.65514
# Shear Modulus (GPa) = 27.26922 29.77727 28.52325
#
# Velocity S-wave (km/s) = 3.89701 4.07228 3.98561
# Velocity P-wave (km/s) = 6.90808 7.37575 7.14574
#
# Compressibility (1/GPa) = 0.02027174
#
# Stress axis : x y z
#
# Youngs Moduli (GPa) = 84.03232 84.52580 54.44161
#
# Poissons Ratio (x) = 0.43249 0.25613
# Poissons Ratio (y) = 0.42997 0.05947
# Poissons Ratio (z) = 0.39534 0.09233
#
# Static dielectric constant tensor:
#      x y z
#    x 1.647650 0.000000 -0.001170 
#    y 0.000000 1.627230 0.000000 
#    z -0.001170 0.000000 1.641340 
# 
# From -- ./inp_files/251627.got.cif
#   From: 2010.05.17/outbox.cif.g08.bks.cpg/sg15_126_cif.got.tgz:251627.got - 2010.06.03 18:47:42.
