data_PCOD9258052
_publ_section_title
;
Structure prediction by ZEFSAII (Michael W. Deem and Ramdas Pophale) SiO2 
 PCOD9258052
Probable space group: C 2/C
;
_chemical_formula_sum "Si O2"
_cell_formula_units_Z 40
_cell_length_a 17.795839
_cell_length_b 15.995939
_cell_length_c 8.851969
_cell_angle_alpha 90.000000
_cell_angle_beta 126.000589
_cell_angle_gamma 90.000000
_cell_volume 2038.555279
_symmetry_space_group_name_H-M "C 2/C"
_symmetry_group_IT_number 15
_symmetry_cell_setting 'monoclinic'
loop_
_space_group_symop_operation_xyz
x,y,z
-x,y,1/2-z
-x,-y,-z
x,-y,1/2+z
1/2+x,1/2+y,z
1/2-x,1/2+y,1/2-z
1/2-x,1/2-y,-z
1/2+x,1/2-y,1/2+z
loop_
_atom_site_type_symbol
_atom_site_label
_atom_site_fract_x
_atom_site_fract_y
_atom_site_fract_z
Si Si1 0.708305 0.413943 0.580143
Si Si2 0.500000 0.755807 0.250000
Si Si3 0.053415 0.120531 0.108343
Si Si4 0.593149 0.893415 0.564962
Si Si5 0.000000 0.470368 0.750000
Si Si6 0.359647 0.446988 0.305730
O O1 0.615397 0.369117 0.532336
O O2 0.799035 0.381454 0.770405
O O3 0.707466 0.410557 0.399827
O O4 0.695196 0.510091 0.622088
O O5 0.569627 0.693746 0.245088
O O6 0.548040 0.813883 0.431187
O O7 0.086626 0.028543 0.202500
O O8 0.943685 0.113337 0.948836
O O9 0.545654 0.917753 0.668489
O O10 0.573553 0.969074 0.423147
#
# Coordination Sequence:
#
# PCOD9258052 Si02
#       6
#     8   4   8   8   4   8
#     4  10  18  32  58  88 109 142 197 231 272 335
#     4  11  22  40  54  81 118 164 180 229 298 334
#     4   9  20  33  58  81 121 149 183 224 282 342
#     4  10  21  37  64  82 111 149 193 235 289 330
#     4   9  20  42  58  83 108 150 196 239 276 342
#     4   9  18  33  59  87 113 150 184 231 280 330
#
# _framework density 19.621739999999999
#
# number of rings (size 3 to 8) (size 9 to 14) (size 15 to 20)
#    1.200    1.200    0.000    3.000    0.000    0.800 
#    3.600    1.000    4.400    0.000    0.000    0.000 
#    0.000    0.000    0.000    0.000    0.000    0.000 
#
# Total GULP energy -111336.353358 kJ/mol
# GULP energy per Si atom -5566.817668 kJ/mol
# Density = 1.957708 g / cm^3
# Si number density = 19.621740 Si / 1000 Ang^3
#
#
#
# Elastic Constant Matrix: (Units=GPa)
#
#
# Indices 1 2 3 4 5 6 
#
# 1 21.0319 13.6160 11.3070 0.0000 -8.7282 0.0000
# 2 13.6160 63.7692 21.6282 0.0000 -8.7342 0.0000
# 3 11.3070 21.6282 111.1875 0.0000 -5.0777 0.0000
# 4 0.0000 0.0000 0.0000 13.5542 0.0000 -9.2740
# 5 -8.7282 -8.7342 -5.0777 0.0000 34.0385 0.0000
# 6 0.0000 0.0000 0.0000 -9.2740 0.0000 7.5387
#
#
#
# Elastic Compliance Matrix: (Units=1/GPa)
#
#
# Indices 1 2 3 4 5 6 
#
# 1 0.061297 -0.010114 -0.003692 0.000000 0.012572 0.000000
# 2 -0.010114 0.018974 -0.002576 0.000000 0.001891 0.000000
# 3 -0.003692 -0.002576 0.009864 0.000000 -0.000136 0.000000
# 4 0.000000 0.000000 0.000000 0.466077 0.000000 0.573358
# 5 0.012572 0.001891 -0.000136 0.000000 0.033067 0.000000
# 6 0.000000 0.000000 0.000000 0.573358 0.000000 0.837981
#
#
# Mechanical properties :
#
#
# Convention : Reuss Voigt Hill
#
# Bulk Modulus (GPa) = 17.43044 32.12121 24.77583
# Shear Modulus (GPa) = 3.38033 20.98879 12.18456
#
# Velocity S-wave (km/s) = 1.31396 3.27413 2.49463
# Velocity P-wave (km/s) = 3.34731 5.54067 4.57731
#
# Compressibility (1/GPa) = 0.05737088
#
# Stress axis : x y z
#
# Youngs Moduli (GPa) = 16.31411 52.70445 101.37771
#
# Poissons Ratio (x) = 0.53305 0.37428
# Poissons Ratio (y) = 0.16500 0.26114
# Poissons Ratio (z) = 0.06023 0.13576
#
# Static dielectric constant tensor:
#      x y z
#    x 1.713080 0.000000 -0.010880 
#    y 0.000000 1.684720 0.000000 
#    z -0.010880 0.000000 1.697730 
# 
# From -- ./inp_files/48811.got.cif
#   From: 2010.05.17/outbox.cif.g08.bks.cpg/sg15_25_cif.got.tgz:48811.got - 2010.06.03 18:47:42.
