data_PCOD9258816
_publ_section_title
;
Structure prediction by ZEFSAII (Michael W. Deem and Ramdas Pophale) SiO2 
 PCOD9258816
Probable space group: C 2/C
;
_chemical_formula_sum "Si O2"
_cell_formula_units_Z 48
_cell_length_a 8.907665
_cell_length_b 12.232427
_cell_length_c 29.704110
_cell_angle_alpha 90.000000
_cell_angle_beta 31.803402
_cell_angle_gamma 90.000000
_cell_volume 1705.724255
_symmetry_space_group_name_H-M "C 2/C"
_symmetry_group_IT_number 15
_symmetry_cell_setting 'monoclinic'
loop_
_space_group_symop_operation_xyz
x,y,z
-x,y,1/2-z
-x,-y,-z
x,-y,1/2+z
1/2+x,1/2+y,z
1/2-x,1/2+y,1/2-z
1/2-x,1/2-y,-z
1/2+x,1/2-y,1/2+z
loop_
_atom_site_type_symbol
_atom_site_label
_atom_site_fract_x
_atom_site_fract_y
_atom_site_fract_z
Si Si1 0.358029 0.722060 0.522742
Si Si2 0.110310 0.835885 0.151098
Si Si3 0.371191 0.017926 0.327578
Si Si4 0.519857 0.010329 0.606131
Si Si5 0.209499 0.973482 0.047120
Si Si6 0.000895 0.739025 0.801176
O O1 0.250000 0.750000 0.500000
O O2 0.679848 0.760155 0.432752
O O3 0.268703 0.597856 0.553765
O O4 0.198406 0.780813 0.606333
O O5 0.277285 0.910176 0.145729
O O6 0.028190 0.919971 0.132976
O O7 0.823197 0.775114 0.237712
O O8 0.500000 0.067128 0.250000
O O9 0.536079 0.044537 0.331897
O O10 0.395120 0.885656 0.320466
O O11 0.039727 0.050322 0.409157
O O12 0.650040 0.930557 0.535167
O O13 0.500000 0.000000 0.000000
O O14 0.000000 0.788548 0.750000
#
# Coordination Sequence:
#
# PCOD9258816 Si02
#       6
#     8   8   8   8   8   8
#     4   9  20  35  56  87 119 157 199 249 311 368
#     4  10  19  37  61  86 120 157 205 257 303 369
#     4  10  18  34  55  83 112 144 201 249 292 357
#     4   9  20  34  58  84 115 155 199 248 313 364
#     4  10  19  35  57  83 114 153 197 253 302 364
#     4  10  19  35  58  87 116 153 210 253 298 374
#
# _framework density 28.140540000000001
#
# number of rings (size 3 to 8) (size 9 to 14) (size 15 to 20)
#    0.000    2.333    3.333    0.500    0.000    6.667 
#    0.000    0.000   11.000    0.000    0.000    0.000 
#    0.000    0.000    0.000    0.000    0.000    0.000 
#
# Total GULP energy -133637.104228 kJ/mol
# GULP energy per Si atom -5568.212676 kJ/mol
# Density = 2.807649 g / cm^3
# Si number density = 28.140540 Si / 1000 Ang^3
#
#
#
# Elastic Constant Matrix: (Units=GPa)
#
#
# Indices 1 2 3 4 5 6 
#
# 1 218.1064 29.6973 110.8272 -0.0101 31.7562 0.0048
# 2 29.6973 62.9576 17.6736 -0.0018 -0.7373 0.0012
# 3 110.8272 17.6736 201.8007 -0.0110 13.0847 0.0094
# 4 -0.0101 -0.0018 -0.0110 29.5518 0.0093 -1.2907
# 5 31.7562 -0.7373 13.0847 0.0093 74.4480 -0.0046
# 6 0.0048 0.0012 0.0094 -1.2907 -0.0046 35.5687
#
#
#
# Elastic Compliance Matrix: (Units=1/GPa)
#
#
# Indices 1 2 3 4 5 6 
#
# 1 0.007037 -0.002365 -0.003501 0.000002 -0.002410 0.000000
# 2 -0.002365 0.017091 -0.000278 0.000000 0.001227 0.000000
# 3 -0.003501 -0.000278 0.006884 0.000001 0.000281 -0.000001
# 4 0.000002 0.000000 0.000001 0.033893 -0.000005 0.001230
# 5 -0.002410 0.001227 0.000281 -0.000005 0.014423 0.000002
# 6 0.000000 0.000000 -0.000001 0.001230 0.000002 0.028159
#
#
# Mechanical properties :
#
#
# Convention : Reuss Voigt Hill
#
# Bulk Modulus (GPa) = 53.40348 88.80678 71.10513
# Shear Modulus (GPa) = 39.67737 49.55813 44.61775
#
# Velocity S-wave (km/s) = 3.75903 4.20109 3.98619
# Velocity P-wave (km/s) = 6.15297 7.42691 6.81975
#
# Compressibility (1/GPa) = 0.01872537
#
# Stress axis : x y z
#
# Youngs Moduli (GPa) = 142.10955 58.50877 145.25701
#
# Poissons Ratio (x) = 0.13835 0.50858
# Poissons Ratio (y) = 0.33604 0.04035
# Poissons Ratio (z) = 0.49756 0.01625
#
# Static dielectric constant tensor:
#      x y z
#    x 2.860270 -0.000790 -1.748750 
#    y -0.000790 2.446530 0.002080 
#    z -1.748750 0.002080 6.976330 
# 
# From -- ./inp_files/308729.got.cif
#   From: 2010.05.17/outbox.cif.g08.bks.cpg/sg15_155_cif.got.tgz:308729.got - 2010.06.03 18:47:42.
