data_PCOD9258541
_publ_section_title
;
Structure prediction by ZEFSAII (Michael W. Deem and Ramdas Pophale) SiO2 
 PCOD9258541
Probable space group: C 2/C
;
_chemical_formula_sum "Si O2"
_cell_formula_units_Z 48
_cell_length_a 12.784800
_cell_length_b 20.257038
_cell_length_c 21.658753
_cell_angle_alpha 90.000000
_cell_angle_beta 27.759105
_cell_angle_gamma 90.000000
_cell_volume 2612.528251
_symmetry_space_group_name_H-M "C 2/C"
_symmetry_group_IT_number 15
_symmetry_cell_setting 'monoclinic'
loop_
_space_group_symop_operation_xyz
x,y,z
-x,y,1/2-z
-x,-y,-z
x,-y,1/2+z
1/2+x,1/2+y,z
1/2-x,1/2+y,1/2-z
1/2-x,1/2-y,-z
1/2+x,1/2-y,1/2+z
loop_
_atom_site_type_symbol
_atom_site_label
_atom_site_fract_x
_atom_site_fract_y
_atom_site_fract_z
Si Si1 0.370969 0.216610 0.252518
Si Si2 0.784447 0.381876 0.972540
Si Si3 0.767113 0.538795 0.604115
Si Si4 0.173304 0.916154 0.896193
Si Si5 0.270299 0.643699 0.769299
Si Si6 0.690327 0.947488 0.201048
O O1 0.500000 0.233745 0.250000
O O2 0.553406 0.181731 0.112194
O O3 0.208176 0.155556 0.350668
O O4 0.234956 0.279082 0.298803
O O5 0.799633 0.414139 0.896618
O O6 0.809434 0.435865 0.012617
O O7 0.531040 0.357717 0.113471
O O8 0.500000 0.512126 0.750000
O O9 0.759320 0.602620 0.652682
O O10 0.000000 0.500000 0.500000
O O11 0.257804 0.976029 0.809193
O O12 0.917066 0.927098 0.047530
O O13 0.148330 0.601533 0.779793
O O14 0.500000 0.944928 0.250000
#
# Coordination Sequence:
#
# PCOD9258541 Si02
#       6
#     8   8   8   8   8   8
#     4  10  18  33  59  85 111 139 181 240 286 332
#     4   9  18  34  57  85 110 138 185 238 288 330
#     4  10  22  37  55  84 121 152 188 231 288 349
#     4   9  20  34  58  84 105 137 189 233 283 326
#     4  10  21  34  54  84 114 145 184 233 288 336
#     4  10  20  36  55  79 109 144 182 232 277 331
#
# _framework density 18.373007999999999
#
# number of rings (size 3 to 8) (size 9 to 14) (size 15 to 20)
#    0.000    2.333    0.000    3.500    4.667    2.667 
#    0.000    0.833    0.000    2.000    0.000    0.000 
#    0.000    0.000    0.000    0.000    0.000    0.000 
#
# Total GULP energy -133604.627220 kJ/mol
# GULP energy per Si atom -5566.859468 kJ/mol
# Density = 1.833119 g / cm^3
# Si number density = 18.373008 Si / 1000 Ang^3
#
#
#
# Elastic Constant Matrix: (Units=GPa)
#
#
# Indices 1 2 3 4 5 6 
#
# 1 59.2013 46.8163 17.7541 -0.0608 0.0625 -0.0268
# 2 46.8163 138.7718 36.5168 0.0875 -1.7961 0.0921
# 3 17.7541 36.5168 74.7029 0.0664 3.5465 0.1160
# 4 -0.0608 0.0875 0.0664 22.7398 -0.0036 -4.2907
# 5 0.0625 -1.7961 3.5465 -0.0036 25.7216 -0.0551
# 6 -0.0268 0.0921 0.1160 -4.2907 -0.0551 8.9882
#
#
#
# Elastic Compliance Matrix: (Units=1/GPa)
#
#
# Indices 1 2 3 4 5 6 
#
# 1 0.023284 -0.007353 -0.001926 0.000140 -0.000304 0.000235
# 2 -0.007353 0.010625 -0.003505 -0.000071 0.001243 -0.000112
# 3 -0.001926 -0.003505 0.015672 -0.000080 -0.002401 -0.000225
# 4 0.000140 -0.000071 -0.000080 0.048330 0.000062 0.023074
# 5 -0.000304 0.001243 -0.002401 0.000062 0.039297 0.000288
# 6 0.000235 -0.000112 -0.000225 0.023074 0.000288 0.122278
#
#
# Mechanical properties :
#
#
# Convention : Reuss Voigt Hill
#
# Bulk Modulus (GPa) = 41.64211 52.76115 47.20163
# Shear Modulus (GPa) = 17.06149 22.92920 19.99535
#
# Velocity S-wave (km/s) = 3.05063 3.53651 3.30252
# Velocity P-wave (km/s) = 5.92642 6.74203 6.34734
#
# Compressibility (1/GPa) = 0.02401415
#
# Stress axis : x y z
#
# Youngs Moduli (GPa) = 42.94796 94.11654 63.80864
#
# Poissons Ratio (x) = 0.69200 0.12287
# Poissons Ratio (y) = 0.31578 0.22366
# Poissons Ratio (z) = 0.08270 0.32989
#
# Static dielectric constant tensor:
#      x y z
#    x 1.672180 0.000010 0.005470 
#    y 0.000010 1.668590 0.000020 
#    z 0.005470 0.000020 1.685980 
# 
# From -- ./inp_files/240363.got.cif
#   From: 2010.05.17/outbox.cif.g08.bks.cpg/sg15_121_cif.got.tgz:240363.got - 2010.06.03 18:47:42.
