data_PCOD9258243
_publ_section_title
;
Structure prediction by ZEFSAII (Michael W. Deem and Ramdas Pophale) SiO2 
 PCOD9258243
Probable space group: C 2/C
;
_chemical_formula_sum "Si O2"
_cell_formula_units_Z 56
_cell_length_a 21.688809
_cell_length_b 7.042375
_cell_length_c 16.413835
_cell_angle_alpha 90.000000
_cell_angle_beta 64.381943
_cell_angle_gamma 90.000000
_cell_volume 2260.607719
_symmetry_space_group_name_H-M "C 2/C"
_symmetry_group_IT_number 15
_symmetry_cell_setting 'monoclinic'
loop_
_space_group_symop_operation_xyz
x,y,z
-x,y,1/2-z
-x,-y,-z
x,-y,1/2+z
1/2+x,1/2+y,z
1/2-x,1/2+y,1/2-z
1/2-x,1/2-y,-z
1/2+x,1/2-y,1/2+z
loop_
_atom_site_type_symbol
_atom_site_label
_atom_site_fract_x
_atom_site_fract_y
_atom_site_fract_z
Si Si1 0.658373 0.243587 0.621715
Si Si2 0.515511 0.270636 0.985030
Si Si3 0.312229 0.315322 0.070747
Si Si4 0.335803 0.244912 0.540647
Si Si5 0.453533 0.335968 0.703624
Si Si6 0.101724 0.231114 0.829157
Si Si7 0.182096 0.806955 0.132402
O O1 0.658529 0.206227 0.524825
O O2 0.731122 0.173195 0.611431
O O3 0.596730 0.199256 0.717501
O O4 0.662667 0.474256 0.626698
O O5 0.591209 0.192945 0.963343
O O6 0.505569 0.239029 0.893778
O O7 0.500000 0.500000 0.000000
O O8 0.464723 0.195946 0.084531
O O9 0.339106 0.528065 0.049476
O O10 0.338409 0.235980 0.140135
O O11 0.261125 0.187673 0.617281
O O12 0.327154 0.206377 0.449257
O O13 0.500000 0.419865 0.750000
O O14 0.412871 0.506503 0.682180
O O15 0.131811 0.289537 0.725385
#
# Coordination Sequence:
#
# PCOD9258243 Si02
#       7
#     8   8   8   8   8   8   8
#     4   9  20  33  51  79 106 144 168 221 257 318
#     4  10  19  30  50  79 105 133 171 226 259 300
#     4  10  18  33  52  77 110 134 179 209 269 305
#     4  10  19  36  52  78 109 138 176 215 264 312
#     4  10  19  30  50  78 109 135 178 221 268 302
#     4  10  20  29  52  78 104 138 167 227 258 307
#     4   9  21  33  52  78 108 140 173 217 260 314
#
# _framework density 24.772098
#
# number of rings (size 3 to 8) (size 9 to 14) (size 15 to 20)
#    0.000    2.286    2.857    0.857   12.000    0.000 
#    0.000    0.000    0.000    0.857   14.857    0.000 
#    0.000    0.000    0.000    0.000    0.000    0.000 
#
# Total GULP energy -156207.120936 kJ/mol
# GULP energy per Si atom -5578.825748 kJ/mol
# Density = 2.471572 g / cm^3
# Si number density = 24.772098 Si / 1000 Ang^3
#
#
#
# Elastic Constant Matrix: (Units=GPa)
#
#
# Indices 1 2 3 4 5 6 
#
# 1 90.0494 1.8059 32.4742 0.0000 9.0501 0.0006
# 2 1.8059 64.5926 -3.9689 0.0000 11.9143 0.0010
# 3 32.4742 -3.9689 175.2911 0.0000 -5.3233 0.0001
# 4 0.0000 0.0000 0.0000 -2.2036 0.0000 -5.0411
# 5 9.0501 11.9143 -5.3233 0.0000 33.2292 0.0000
# 6 0.0006 0.0010 0.0001 -5.0411 0.0000 22.2895
#
#
#
# Elastic Compliance Matrix: (Units=1/GPa)
#
#
# Indices 1 2 3 4 5 6 
#
# 1 0.012350 0.000213 -0.002399 0.000000 -0.003824 0.000000
# 2 0.000213 0.016588 0.000155 0.000001 -0.005981 0.000000
# 3 -0.002399 0.000155 0.006201 0.000000 0.001591 0.000000
# 4 0.000000 0.000001 0.000000 -0.299070 -0.000001 -0.067639
# 5 -0.003824 -0.005981 0.001591 -0.000001 0.033535 0.000000
# 6 0.000000 0.000000 0.000000 -0.067639 0.000000 0.029567
#
#
# Mechanical properties :
#
#
# Convention : Reuss Voigt Hill
#
# Bulk Modulus (GPa) = 32.17951 43.39509 37.78730
# Shear Modulus (GPa) = -26.82320 30.63782 1.90731
#
# Velocity S-wave (km/s) = -3.29416 3.52061 0.87842
# Velocity P-wave (km/s) = 1.20426 5.83798 4.03930
#
# Compressibility (1/GPa) = 0.03107567
#
# Stress axis : x y z
#
# Youngs Moduli (GPa) = 80.96930 60.28309 161.26109
#
# Poissons Ratio (x) = -0.01282 0.38692
# Poissons Ratio (y) = -0.01722 -0.02492
# Poissons Ratio (z) = 0.19427 -0.00932
#
# Static dielectric constant tensor:
#      x y z
#    x 1.973510 0.000000 -0.046190 
#    y 0.000000 2.040460 0.000000 
#    z -0.046190 0.000000 2.012260 
# 
# From -- ./inp_files/214526.got.cif
#   From: 2010.05.17/outbox.cif.g08.bks.cpg/sg15_108_cif.got.tgz:214526.got - 2010.06.03 18:47:42.
