data_PCOD9258829
_publ_section_title
;
Structure prediction by ZEFSAII (Michael W. Deem and Ramdas Pophale) SiO2 
 PCOD9258829
Probable space group: C 2/C
;
_chemical_formula_sum "Si O2"
_cell_formula_units_Z 60
_cell_length_a 15.753751
_cell_length_b 23.466601
_cell_length_c 13.189739
_cell_angle_alpha 90.000000
_cell_angle_beta 48.187292
_cell_angle_gamma 90.000000
_cell_volume 3634.275866
_symmetry_space_group_name_H-M "C 2/C"
_symmetry_group_IT_number 15
_symmetry_cell_setting 'monoclinic'
loop_
_space_group_symop_operation_xyz
x,y,z
-x,y,1/2-z
-x,-y,-z
x,-y,1/2+z
1/2+x,1/2+y,z
1/2-x,1/2+y,1/2-z
1/2-x,1/2-y,-z
1/2+x,1/2-y,1/2+z
loop_
_atom_site_type_symbol
_atom_site_label
_atom_site_fract_x
_atom_site_fract_y
_atom_site_fract_z
Si Si1 0.874886 0.474517 0.803447
Si Si2 0.163888 0.581732 0.788070
Si Si3 0.753638 0.318572 0.622232
Si Si4 0.987891 0.144579 0.145955
Si Si5 0.599542 0.920506 0.936407
Si Si6 0.719672 0.685170 0.906905
Si Si7 0.757414 0.020578 0.902001
Si Si8 0.500000 0.533161 0.250000
O O1 0.824106 0.535604 0.811050
O O2 0.884261 0.437874 0.693701
O O3 0.000000 0.482062 0.750000
O O4 0.795963 0.451296 0.955469
O O5 0.199337 0.643340 0.720195
O O6 0.242673 0.561687 0.817980
O O7 0.032703 0.574936 0.928072
O O8 0.643707 0.343544 0.769131
O O9 0.858290 0.357060 0.574061
O O10 0.742220 0.325815 0.509133
O O11 0.762200 0.251231 0.631689
O O12 0.000000 0.171713 0.250000
O O13 0.011725 0.077842 0.147038
O O14 0.086529 0.169460 0.998379
O O15 0.678837 0.965098 0.936148
O O16 0.885663 0.001557 0.822120
#
# Coordination Sequence:
#
# PCOD9258829 Si02
#       8
#     8   8   8   8   8   8   8   4
#     4  11  19  34  55  80 111 141 172 225 281 311
#     4  11  22  32  56  84 111 135 182 227 265 326
#     4  10  20  34  55  76 109 142 182 216 269 322
#     4   8  16  33  48  69 108 136 171 213 250 322
#     4  11  20  35  55  82 108 142 183 227 266 325
#     4  10  21  34  52  81 108 148 174 220 274 313
#     4  11  20  37  52  81 110 143 181 219 273 322
#     4  10  18  34  56  68 114 144 168 220 260 328
#
# _framework density 16.509478999999999
#
# number of rings (size 3 to 8) (size 9 to 14) (size 15 to 20)
#    0.400    1.333    4.000    2.400    1.867    0.000 
#    2.400    2.000    0.000    0.800    1.733    0.000 
#    0.000    0.000    0.000    0.000    0.000    0.000 
#
# Total GULP energy -167173.496458 kJ/mol
# GULP energy per Si atom -5572.449882 kJ/mol
# Density = 1.647190 g / cm^3
# Si number density = 16.509479 Si / 1000 Ang^3
#
#
#
# Elastic Constant Matrix: (Units=GPa)
#
#
# Indices 1 2 3 4 5 6 
#
# 1 71.8294 27.2142 42.4152 0.0000 -12.9216 0.0000
# 2 27.2142 82.9085 28.2870 0.0000 3.1425 0.0000
# 3 42.4152 28.2870 63.0886 0.0000 -2.0026 0.0000
# 4 0.0000 0.0000 0.0000 7.5224 0.0000 -1.9310
# 5 -12.9216 3.1425 -2.0026 0.0000 27.3766 0.0000
# 6 0.0000 0.0000 0.0000 -1.9310 0.0000 8.5116
#
#
#
# Elastic Compliance Matrix: (Units=1/GPa)
#
#
# Indices 1 2 3 4 5 6 
#
# 1 0.027029 -0.003847 -0.016065 0.000000 0.012024 0.000000
# 2 -0.003847 0.014910 -0.004221 0.000000 -0.003836 0.000000
# 3 -0.016065 -0.004221 0.028385 0.000000 -0.005022 0.000000
# 4 0.000000 0.000000 0.000000 0.141158 0.000000 0.032025
# 5 0.012024 -0.003836 -0.005022 0.000000 0.042276 0.000000
# 6 0.000000 0.000000 0.000000 0.032025 0.000000 0.124753
#
#
# Mechanical properties :
#
#
# Convention : Reuss Voigt Hill
#
# Bulk Modulus (GPa) = 45.33551 45.96216 45.64883
# Shear Modulus (GPa) = 11.51737 16.67611 14.09674
#
# Velocity S-wave (km/s) = 2.64412 3.18164 2.92525
# Velocity P-wave (km/s) = 6.06974 6.43408 6.25456
#
# Compressibility (1/GPa) = 0.02205776
#
# Stress axis : x y z
#
# Youngs Moduli (GPa) = 36.99753 67.07129 35.23022
#
# Poissons Ratio (x) = 0.25799 0.56599
# Poissons Ratio (y) = 0.14231 0.14870
# Poissons Ratio (z) = 0.59438 0.28309
#
# Static dielectric constant tensor:
#      x y z
#    x 1.568190 0.000000 -0.015590 
#    y 0.000000 1.548730 0.000000 
#    z -0.015590 0.000000 1.574120 
# 
# From -- ./inp_files/100662.got.cif
#   From: 2010.05.17/outbox.cif.g08.bks.cpg/sg15_51_cif.got.tgz:100662.got - 2010.06.03 18:47:42.
