data_PCOD9258492
_publ_section_title
;
Structure prediction by ZEFSAII (Michael W. Deem and Ramdas Pophale) SiO2 
 PCOD9258492
Probable space group: C 2/C
;
_chemical_formula_sum "Si O2"
_cell_formula_units_Z 64
_cell_length_a 26.570733
_cell_length_b 11.492001
_cell_length_c 22.632709
_cell_angle_alpha 90.000000
_cell_angle_beta 151.010494
_cell_angle_gamma 90.000000
_cell_volume 3349.372332
_symmetry_space_group_name_H-M "C 2/C"
_symmetry_group_IT_number 15
_symmetry_cell_setting 'monoclinic'
loop_
_space_group_symop_operation_xyz
x,y,z
-x,y,1/2-z
-x,-y,-z
x,-y,1/2+z
1/2+x,1/2+y,z
1/2-x,1/2+y,1/2-z
1/2-x,1/2-y,-z
1/2+x,1/2-y,1/2+z
loop_
_atom_site_type_symbol
_atom_site_label
_atom_site_fract_x
_atom_site_fract_y
_atom_site_fract_z
Si Si1 0.624563 0.515855 0.823372
Si Si2 0.782958 0.281634 0.320910
Si Si3 0.606994 0.552469 0.437197
Si Si4 0.237408 0.831365 0.584860
Si Si5 0.267215 0.025720 0.361525
Si Si6 0.626538 0.741066 0.551522
Si Si7 0.113619 0.717335 0.357884
Si Si8 0.563780 0.382910 0.583136
O O1 0.516211 0.472606 0.683798
O O2 0.632840 0.448945 0.894136
O O3 0.721731 0.498972 0.880132
O O4 0.609541 0.652154 0.825069
O O5 0.721883 0.221311 0.312704
O O6 0.805650 0.410011 0.368118
O O7 0.711413 0.288118 0.189454
O O8 0.883278 0.200688 0.411800
O O9 0.668085 0.442810 0.526162
O O10 0.640978 0.664668 0.507727
O O11 0.167615 0.738677 0.476375
O O12 0.323219 0.858673 0.623692
O O13 0.353545 0.125434 0.444907
O O14 0.163903 0.071966 0.221783
O O15 0.515680 0.700227 0.463210
O O16 0.000000 0.671454 0.250000
O O17 0.500000 0.500000 0.500000
#
# Coordination Sequence:
#
# PCOD9258492 Si02
#       8
#     8   8   8   8   8   8   8   8
#     4  10  18  36  64  91 114 155 212 261 304 375
#     4  11  24  36  61  95 124 164 210 257 309 369
#     4  10  20  37  64  91 115 162 211 255 314 370
#     4  10  20  32  58  89 124 150 199 259 309 364
#     4  11  23  39  61  91 126 154 213 261 306 375
#     4  11  24  39  61  89 124 168 209 254 306 379
#     4  10  18  33  57  92 120 150 201 257 315 370
#     4  11  22  41  65  86 123 166 208 251 310 373
#
# _framework density 19.108058
#
# number of rings (size 3 to 8) (size 9 to 14) (size 15 to 20)
#    0.000    1.500    6.250    0.750    1.750    2.000 
#    0.000    0.000    5.500    0.000    0.000    0.000 
#    0.000    0.000    0.000    0.000    0.000    0.000 
#
# Total GULP energy -178449.468736 kJ/mol
# GULP energy per Si atom -5576.545898 kJ/mol
# Density = 1.906457 g / cm^3
# Si number density = 19.108058 Si / 1000 Ang^3
#
#
#
# Elastic Constant Matrix: (Units=GPa)
#
#
# Indices 1 2 3 4 5 6 
#
# 1 80.9353 43.5006 13.3943 0.0000 9.5334 0.0000
# 2 43.5006 98.7926 25.1036 0.0000 -1.8802 0.0000
# 3 13.3943 25.1036 54.3028 0.0000 4.4423 0.0000
# 4 0.0000 0.0000 0.0000 28.0272 0.0000 4.3579
# 5 9.5334 -1.8802 4.4423 0.0000 30.2473 0.0000
# 6 0.0000 0.0000 0.0000 4.3579 0.0000 32.3236
#
#
#
# Elastic Compliance Matrix: (Units=1/GPa)
#
#
# Indices 1 2 3 4 5 6 
#
# 1 0.017177 -0.007614 -0.000238 0.000000 -0.005852 0.000000
# 2 -0.007614 0.014913 -0.005353 0.000000 0.004113 0.000000
# 3 -0.000238 -0.005353 0.021225 0.000000 -0.003375 0.000000
# 4 0.000000 0.000000 0.000000 0.036444 0.000000 -0.004913
# 5 -0.005852 0.004113 -0.003375 0.000000 0.035657 0.000000
# 6 0.000000 0.000000 0.000000 -0.004913 0.000000 0.031600
#
#
# Mechanical properties :
#
#
# Convention : Reuss Voigt Hill
#
# Bulk Modulus (GPa) = 37.16815 44.22530 40.69672
# Shear Modulus (GPa) = 25.98857 28.25510 27.12184
#
# Velocity S-wave (km/s) = 3.69193 3.84956 3.77157
# Velocity P-wave (km/s) = 6.13739 6.55392 6.34908
#
# Compressibility (1/GPa) = 0.02690476
#
# Stress axis : x y z
#
# Youngs Moduli (GPa) = 58.21850 67.05429 47.11524
#
# Poissons Ratio (x) = 0.51056 0.01122
# Poissons Ratio (y) = 0.44328 0.25219
# Poissons Ratio (z) = 0.01386 0.35892
#
# Static dielectric constant tensor:
#      x y z
#    x 1.702180 0.000000 -0.006650 
#    y 0.000000 1.668020 0.000000 
#    z -0.006650 0.000000 1.690330 
# 
# From -- ./inp_files/283505.got.cif
#   From: 2010.05.17/outbox.cif.g08.bks.cpg/sg15_142_cif.got.tgz:283505.got - 2010.06.03 18:47:42.
