data_PCOD9258403
_publ_section_title
;
Structure prediction by ZEFSAII (Michael W. Deem and Ramdas Pophale) SiO2 
 PCOD9258403
Probable space group: C 2/C
;
_chemical_formula_sum "Si O2"
_cell_formula_units_Z 64
_cell_length_a 11.774625
_cell_length_b 16.768911
_cell_length_c 16.970059
_cell_angle_alpha 90.000000
_cell_angle_beta 67.884145
_cell_angle_gamma 90.000000
_cell_volume 3104.168744
_symmetry_space_group_name_H-M "C 2/C"
_symmetry_group_IT_number 15
_symmetry_cell_setting 'monoclinic'
loop_
_space_group_symop_operation_xyz
x,y,z
-x,y,1/2-z
-x,-y,-z
x,-y,1/2+z
1/2+x,1/2+y,z
1/2-x,1/2+y,1/2-z
1/2-x,1/2-y,-z
1/2+x,1/2-y,1/2+z
loop_
_atom_site_type_symbol
_atom_site_label
_atom_site_fract_x
_atom_site_fract_y
_atom_site_fract_z
Si Si1 0.384124 0.226008 0.603169
Si Si2 0.653581 0.443168 0.486897
Si Si3 0.917682 0.147672 0.654761
Si Si4 0.292921 0.745241 0.303912
Si Si5 0.820798 0.101686 0.851586
Si Si6 0.853295 0.065449 0.285071
Si Si7 0.844423 0.318189 0.448525
Si Si8 0.382250 0.409097 0.597779
O O1 0.355850 0.237591 0.703891
O O2 0.292218 0.158043 0.597854
O O3 0.522484 0.198348 0.552332
O O4 0.365617 0.316783 0.579766
O O5 0.620245 0.401232 0.411922
O O6 0.776894 0.400996 0.482559
O O7 0.529034 0.425934 0.567513
O O8 0.665051 0.534844 0.459940
O O9 0.852238 0.233661 0.662355
O O10 0.854540 0.115483 0.750532
O O11 0.060728 0.134035 0.632616
O O12 0.316831 0.654156 0.321178
O O13 0.351791 0.803489 0.352811
O O14 0.801484 0.006182 0.852827
O O15 0.824017 0.067662 0.197979
O O16 0.000000 0.056061 0.250000
O O17 0.750000 0.250000 0.500000
#
# Coordination Sequence:
#
# PCOD9258403 Si02
#       8
#     8   8   8   8   8   8   8   8
#     4  10  20  35  53  80 112 144 183 226 276 330
#     4  10  19  32  55  78 112 136 180 228 279 324
#     4   9  17  34  51  78 103 146 174 222 275 325
#     4   9  20  32  55  80 110 136 184 234 272 321
#     4  10  18  33  56  76 107 141 187 219 269 333
#     4  11  18  31  56  84 106 136 193 235 270 317
#     4  11  20  34  53  82 113 146 176 226 289 333
#     4  10  19  33  51  82 106 139 181 233 268 328
#
# _framework density 20.617436000000001
#
# number of rings (size 3 to 8) (size 9 to 14) (size 15 to 20)
#    0.000    2.000    3.750    1.875    0.000    0.000 
#    0.000    1.875    0.000    2.250    0.000    0.000 
#    0.000    0.000    0.000    0.000    0.000    0.000 
#
# Total GULP energy -178578.636466 kJ/mol
# GULP energy per Si atom -5580.582390 kJ/mol
# Density = 2.057051 g / cm^3
# Si number density = 20.617436 Si / 1000 Ang^3
#
#
#
# Elastic Constant Matrix: (Units=GPa)
#
#
# Indices 1 2 3 4 5 6 
#
# 1 76.4833 54.2573 13.5534 0.0000 -32.5386 0.0000
# 2 54.2573 157.4457 20.0841 0.0000 -31.2576 0.0000
# 3 13.5534 20.0841 57.9857 0.0000 -6.4069 0.0000
# 4 0.0000 0.0000 0.0000 28.7192 0.0000 -5.1269
# 5 -32.5386 -31.2576 -6.4069 0.0000 25.7163 0.0000
# 6 0.0000 0.0000 0.0000 -5.1269 0.0000 30.8870
#
#
#
# Elastic Compliance Matrix: (Units=1/GPa)
#
#
# Indices 1 2 3 4 5 6 
#
# 1 0.030101 -0.003485 -0.002148 0.000000 0.033316 0.000000
# 2 -0.003485 0.008967 -0.001619 0.000000 0.006087 0.000000
# 3 -0.002148 -0.001619 0.018294 0.000000 -0.000127 0.000000
# 4 0.000000 0.000000 0.000000 0.035883 0.000000 0.005956
# 5 0.033316 0.006087 -0.000127 0.000000 0.088407 0.000000
# 6 0.000000 0.000000 0.000000 0.005956 0.000000 0.033365
#
#
# Mechanical properties :
#
#
# Convention : Reuss Voigt Hill
#
# Bulk Modulus (GPa) = 23.33182 51.96715 37.64948
# Shear Modulus (GPa) = 20.50799 30.66582 25.58690
#
# Velocity S-wave (km/s) = 3.15729 3.86083 3.52665
# Velocity P-wave (km/s) = 4.96311 6.71825 5.90624
#
# Compressibility (1/GPa) = 0.04285993
#
# Stress axis : x y z
#
# Youngs Moduli (GPa) = 33.22102 111.51693 54.66200
#
# Poissons Ratio (x) = 0.38864 0.11739
# Poissons Ratio (y) = 0.11578 0.08849
# Poissons Ratio (z) = 0.07135 0.18053
#
# Static dielectric constant tensor:
#      x y z
#    x 1.735880 0.000000 0.045830 
#    y 0.000000 1.792360 0.000000 
#    z 0.045830 0.000000 1.808340 
# 
# From -- ./inp_files/199201.got.cif
#   From: 2010.05.17/outbox.cif.g08.bks.cpg/sg15_100_cif.got.tgz:199201.got - 2010.06.03 18:47:42.
