data_PCOD9258451
_publ_section_title
;
Structure prediction by ZEFSAII (Michael W. Deem and Ramdas Pophale) SiO2 
 PCOD9258451
Probable space group: C 2/C
;
_chemical_formula_sum "Si O2"
_cell_formula_units_Z 32
_cell_length_a 12.380721
_cell_length_b 7.271869
_cell_length_c 16.145840
_cell_angle_alpha 90.000000
_cell_angle_beta 113.384159
_cell_angle_gamma 90.000000
_cell_volume 1334.231379
_symmetry_space_group_name_H-M "C 2/C"
_symmetry_group_IT_number 15
_symmetry_cell_setting 'monoclinic'
loop_
_space_group_symop_operation_xyz
x,y,z
-x,y,1/2-z
-x,-y,-z
x,-y,1/2+z
1/2+x,1/2+y,z
1/2-x,1/2+y,1/2-z
1/2-x,1/2-y,-z
1/2+x,1/2-y,1/2+z
loop_
_atom_site_type_symbol
_atom_site_label
_atom_site_fract_x
_atom_site_fract_y
_atom_site_fract_z
Si Si1 0.359392 0.073512 0.354835
Si Si2 0.129281 0.915973 0.020757
Si Si3 0.238735 0.805656 0.657107
Si Si4 0.006460 0.270297 0.349345
O O1 0.355212 0.249284 0.410525
O O2 0.334000 0.130300 0.252066
O O3 0.267918 0.913520 0.354826
O O4 0.483090 0.963756 0.389286
O O5 0.226180 0.070147 0.071784
O O6 0.115055 0.831263 0.924958
O O7 0.000000 0.000000 0.000000
O O8 0.114203 0.839242 0.666850
O O9 0.000000 0.294004 0.250000
#
# Coordination Sequence:
#
# PCOD9258451 Si02
#       4
#     8   8   8   8
#     4  10  18  34  56  79 105 140 182 212 260 324
#     4  10  18  33  57  80 101 144 183 212 260 321
#     4   9  19  32  59  75 107 141 183 207 265 321
#     4   9  20  34  54  80 112 136 172 233 266 297
#
# _framework density 23.983847000000001
#
# number of rings (size 3 to 8) (size 9 to 14) (size 15 to 20)
#    1.500    1.000    2.500    0.750    0.000    0.000 
#    0.000   10.000    0.000    3.000    0.000    0.000 
#    0.000    0.000    0.000    0.000    0.000    0.000 
#
# Total GULP energy -89203.608183 kJ/mol
# GULP energy per Si atom -5575.225511 kJ/mol
# Density = 2.392926 g / cm^3
# Si number density = 23.983847 Si / 1000 Ang^3
#
#
#
# Elastic Constant Matrix: (Units=GPa)
#
#
# Indices 1 2 3 4 5 6 
#
# 1 42.3210 10.6954 10.3701 0.0000 -0.5244 0.0000
# 2 10.6954 161.3398 64.3247 0.0000 6.9333 0.0000
# 3 10.3701 64.3247 121.2349 0.0000 5.2011 0.0000
# 4 0.0000 0.0000 0.0000 54.4921 0.0000 6.7674
# 5 -0.5244 6.9333 5.2011 0.0000 20.2033 0.0000
# 6 0.0000 0.0000 0.0000 6.7674 0.0000 22.8353
#
#
#
# Elastic Compliance Matrix: (Units=1/GPa)
#
#
# Indices 1 2 3 4 5 6 
#
# 1 0.024297 -0.001038 -0.001588 0.000000 0.001395 0.000000
# 2 -0.001038 0.007960 -0.004061 0.000000 -0.001713 0.000000
# 3 -0.001588 -0.004061 0.010598 0.000000 -0.001376 0.000000
# 4 0.000000 0.000000 0.000000 0.019052 0.000000 -0.005646
# 5 0.001395 -0.001713 -0.001376 0.000000 0.050475 0.000000
# 6 0.000000 0.000000 0.000000 -0.005646 0.000000 0.045465
#
#
# Mechanical properties :
#
#
# Convention : Reuss Voigt Hill
#
# Bulk Modulus (GPa) = 33.91846 55.07510 44.49678
# Shear Modulus (GPa) = 27.61703 35.47319 31.54511
#
# Velocity S-wave (km/s) = 3.39703 3.85001 3.63059
# Velocity P-wave (km/s) = 5.43685 6.54039 6.01399
#
# Compressibility (1/GPa) = 0.02948247
#
# Stress axis : x y z
#
# Youngs Moduli (GPa) = 41.15653 125.63518 94.35822
#
# Poissons Ratio (x) = 0.13037 0.14981
# Poissons Ratio (y) = 0.04271 0.38318
# Poissons Ratio (z) = 0.06534 0.51019
#
# Static dielectric constant tensor:
#      x y z
#    x 1.926950 0.000000 -0.002910 
#    y 0.000000 1.929280 0.000000 
#    z -0.002910 0.000000 1.929930 
# 
# From -- ./inp_files/165320.got.cif
#   From: 2010.05.17/outbox.cif.g08.bks.cpg/sg15_83_cif.got.tgz:165320.got - 2010.06.03 18:47:42.
