data_PCOD9258796
_publ_section_title
;
Structure prediction by ZEFSAII (Michael W. Deem and Ramdas Pophale) SiO2 
 PCOD9258796
Probable space group: C 2/C
;
_chemical_formula_sum "Si O2"
_cell_formula_units_Z 40
_cell_length_a 17.335106
_cell_length_b 20.062415
_cell_length_c 5.082332
_cell_angle_alpha 90.000000
_cell_angle_beta 111.620837
_cell_angle_gamma 90.000000
_cell_volume 1643.193600
_symmetry_space_group_name_H-M "C 2/C"
_symmetry_group_IT_number 15
_symmetry_cell_setting 'monoclinic'
loop_
_space_group_symop_operation_xyz
x,y,z
-x,y,1/2-z
-x,-y,-z
x,-y,1/2+z
1/2+x,1/2+y,z
1/2-x,1/2+y,1/2-z
1/2-x,1/2-y,-z
1/2+x,1/2-y,1/2+z
loop_
_atom_site_type_symbol
_atom_site_label
_atom_site_fract_x
_atom_site_fract_y
_atom_site_fract_z
Si Si1 0.812148 0.647205 0.313369
Si Si2 0.609608 0.969603 0.317392
Si Si3 0.945822 0.089036 0.921176
Si Si4 0.555963 0.745146 0.581711
Si Si5 0.764830 0.085142 0.812803
O O1 0.887015 0.600042 0.524636
O O2 0.856640 0.717444 0.335186
O O3 0.741906 0.638209 0.451316
O O4 0.777905 0.619464 0.994478
O O5 0.707216 0.973459 0.358203
O O6 0.576074 0.022319 0.483420
O O7 0.928019 0.167276 0.840058
O O8 0.855481 0.060044 0.858951
O O9 0.000000 0.061366 0.750000
O O10 0.000000 0.087319 0.250000
O O11 0.500000 0.772939 0.750000
O O12 0.500000 0.749904 0.250000
#
# Coordination Sequence:
#
# PCOD9258796 Si02
#       5
#     8   8   8   8   8
#     4  10  20  33  56  84 100 141 178 223 254 307
#     4  10  18  34  55  78 103 134 176 222 274 304
#     4  10  21  36  54  78 113 147 170 206 265 320
#     4  10  21  36  54  78 113 147 170 206 265 320
#     4  10  20  33  56  84 100 141 178 223 254 307
#
# _framework density 24.342839999999999
#
# number of rings (size 3 to 8) (size 9 to 14) (size 15 to 20)
#    1.200    0.800    2.000    2.400    0.000    1.600 
#    0.000    0.000    0.000    7.200    0.000    0.000 
#    0.000    0.000    0.000    0.000    0.000    0.000 
#
# Total GULP energy -111576.406251 kJ/mol
# GULP energy per Si atom -5578.820313 kJ/mol
# Density = 2.428744 g / cm^3
# Si number density = 24.342840 Si / 1000 Ang^3
#
#
#
# Elastic Constant Matrix: (Units=GPa)
#
#
# Indices 1 2 3 4 5 6 
#
# 1 160.9738 12.7746 47.1764 0.0000 -13.3592 0.0000
# 2 12.7746 61.5085 13.8963 0.0000 -4.3294 0.0000
# 3 47.1764 13.8963 101.0340 0.0000 -30.0429 0.0000
# 4 0.0000 0.0000 0.0000 18.7445 0.0000 0.4249
# 5 -13.3592 -4.3294 -30.0429 0.0000 51.7533 0.0000
# 6 0.0000 0.0000 0.0000 0.4249 0.0000 40.1553
#
#
#
# Elastic Compliance Matrix: (Units=1/GPa)
#
#
# Indices 1 2 3 4 5 6 
#
# 1 0.007232 -0.000763 -0.003307 0.000000 -0.000116 0.000000
# 2 -0.000763 0.016860 -0.001936 0.000000 0.000090 0.000000
# 3 -0.003307 -0.001936 0.013786 0.000000 0.006987 0.000000
# 4 0.000000 0.000000 0.000000 0.053362 0.000000 -0.000565
# 5 -0.000116 0.000090 0.006987 0.000000 0.023356 0.000000
# 6 0.000000 0.000000 0.000000 -0.000565 0.000000 0.024909
#
#
# Mechanical properties :
#
#
# Convention : Reuss Voigt Hill
#
# Bulk Modulus (GPa) = 38.66039 52.35678 45.50859
# Shear Modulus (GPa) = 31.22299 38.77521 34.99910
#
# Velocity S-wave (km/s) = 3.58528 3.99542 3.79589
# Velocity P-wave (km/s) = 5.74935 6.54517 6.16013
#
# Compressibility (1/GPa) = 0.02586627
#
# Stress axis : x y z
#
# Youngs Moduli (GPa) = 138.27129 59.31164 72.53982
#
# Poissons Ratio (x) = 0.04527 0.23986
# Poissons Ratio (y) = 0.10553 0.14043
# Poissons Ratio (z) = 0.45721 0.11482
#
# Static dielectric constant tensor:
#      x y z
#    x 1.986850 0.000000 0.060050 
#    y 0.000000 1.993710 0.000000 
#    z 0.060050 0.000000 1.981900 
# 
# From -- ./inp_files/7273.got.cif
#   From: 2010.05.17/outbox.cif.g08.bks.cpg/sg15_4_cif.got.tgz:7273.got - 2010.06.03 18:47:42.
