data_PCOD9258145
_publ_section_title
;
Structure prediction by ZEFSAII (Michael W. Deem and Ramdas Pophale) SiO2 
 PCOD9258145
Probable space group: C 2/C
;
_chemical_formula_sum "Si O2"
_cell_formula_units_Z 48
_cell_length_a 12.033565
_cell_length_b 20.037385
_cell_length_c 8.777582
_cell_angle_alpha 90.000000
_cell_angle_beta 74.417906
_cell_angle_gamma 90.000000
_cell_volume 2038.673671
_symmetry_space_group_name_H-M "C 2/C"
_symmetry_group_IT_number 15
_symmetry_cell_setting 'monoclinic'
loop_
_space_group_symop_operation_xyz
x,y,z
-x,y,1/2-z
-x,-y,-z
x,-y,1/2+z
1/2+x,1/2+y,z
1/2-x,1/2+y,1/2-z
1/2-x,1/2-y,-z
1/2+x,1/2-y,1/2+z
loop_
_atom_site_type_symbol
_atom_site_label
_atom_site_fract_x
_atom_site_fract_y
_atom_site_fract_z
Si Si1 0.691963 0.296049 0.723433
Si Si2 0.309284 0.845961 0.367043
Si Si3 0.465072 0.076324 0.029173
Si Si4 0.898860 0.927780 0.180457
Si Si5 0.595235 0.573165 0.378052
Si Si6 0.676313 0.879781 0.623452
O O1 0.648160 0.221015 0.731892
O O2 0.746980 0.317346 0.542424
O O3 0.605878 0.355890 0.793023
O O4 0.786873 0.307633 0.823333
O O5 0.403071 0.895616 0.402691
O O6 0.214482 0.884865 0.302933
O O7 0.380577 0.085059 0.206200
O O8 0.580685 0.117015 0.029965
O O9 0.500000 0.000000 0.000000
O O10 0.000000 0.898940 0.250000
O O11 0.877756 0.005871 0.224557
O O12 0.969475 0.931794 0.995469
O O13 0.704411 0.581053 0.455034
#
# Coordination Sequence:
#
# PCOD9258145 Si02
#       6
#     8   8   8   8   8   8
#     4   8  19  40  65  89 124 177 214 265 330 387
#     4  10  20  39  62  99 128 166 224 267 327 401
#     4  10  18  32  61  97 130 166 213 273 329 390
#     4  11  24  37  62 102 126 170 218 278 331 396
#     4   9  21  39  66  92 130 170 217 271 336 392
#     4   8  18  36  60  93 121 174 208 261 334 386
#
# _framework density 23.544720999999999
#
# number of rings (size 3 to 8) (size 9 to 14) (size 15 to 20)
#    1.000    1.667    0.000    1.000    4.667    1.333 
#    9.000    0.833    0.000   26.000    0.000    0.000 
#    0.000    0.000    0.000    0.000    0.000    0.000 
#
# Total GULP energy -133890.402166 kJ/mol
# GULP energy per Si atom -5578.766757 kJ/mol
# Density = 2.349113 g / cm^3
# Si number density = 23.544721 Si / 1000 Ang^3
#
#
#
# Elastic Constant Matrix: (Units=GPa)
#
#
# Indices 1 2 3 4 5 6 
#
# 1 162.9625 64.7945 32.0155 0.0000 45.3124 0.0000
# 2 64.7945 183.6373 44.6359 0.0000 20.4576 0.0000
# 3 32.0155 44.6359 41.1989 0.0000 7.3716 0.0000
# 4 0.0000 0.0000 0.0000 17.6013 0.0000 -6.8320
# 5 45.3124 20.4576 7.3716 0.0000 49.5995 0.0000
# 6 0.0000 0.0000 0.0000 -6.8320 0.0000 23.1215
#
#
#
# Elastic Compliance Matrix: (Units=1/GPa)
#
#
# Indices 1 2 3 4 5 6 
#
# 1 0.009743 -0.001467 -0.004621 0.000000 -0.007609 0.000000
# 2 -0.001467 0.007793 -0.007159 0.000000 -0.000810 0.000000
# 3 -0.004621 -0.007159 0.035273 0.000000 0.001931 0.000000
# 4 0.000000 0.000000 0.000000 0.064174 0.000000 0.018962
# 5 -0.007609 -0.000810 0.001931 0.000000 0.027160 0.000000
# 6 0.000000 0.000000 0.000000 0.018962 0.000000 0.048853
#
#
# Mechanical properties :
#
#
# Convention : Reuss Voigt Hill
#
# Bulk Modulus (GPa) = 37.99726 74.52120 56.25923
# Shear Modulus (GPa) = 21.90468 34.48800 28.19634
#
# Velocity S-wave (km/s) = 3.05346 3.83141 3.46434
# Velocity P-wave (km/s) = 5.34835 7.16188 6.32050
#
# Compressibility (1/GPa) = 0.02631769
#
# Stress axis : x y z
#
# Youngs Moduli (GPa) = 102.63573 128.31352 28.35006
#
# Poissons Ratio (x) = 0.18824 0.13099
# Poissons Ratio (y) = 0.15057 0.20295
# Poissons Ratio (z) = 0.47423 0.91854
#
# Static dielectric constant tensor:
#      x y z
#    x 1.935450 0.000000 0.013540 
#    y 0.000000 1.842730 0.000000 
#    z 0.013540 0.000000 2.036160 
# 
# From -- ./inp_files/87223.got.cif
#   From: 2010.05.17/outbox.cif.g08.bks.cpg/sg15_44_cif.got.tgz:87223.got - 2010.06.03 18:47:42.
