data_PCOD9258654
_publ_section_title
;
Structure prediction by ZEFSAII (Michael W. Deem and Ramdas Pophale) SiO2 
 PCOD9258654
Probable space group: C 2/C
;
_chemical_formula_sum "Si O2"
_cell_formula_units_Z 60
_cell_length_a 7.142994
_cell_length_b 23.256017
_cell_length_c 17.546388
_cell_angle_alpha 90.000000
_cell_angle_beta 75.572216
_cell_angle_gamma 90.000000
_cell_volume 2822.839186
_symmetry_space_group_name_H-M "C 2/C"
_symmetry_group_IT_number 15
_symmetry_cell_setting 'monoclinic'
loop_
_space_group_symop_operation_xyz
x,y,z
-x,y,1/2-z
-x,-y,-z
x,-y,1/2+z
1/2+x,1/2+y,z
1/2-x,1/2+y,1/2-z
1/2-x,1/2-y,-z
1/2+x,1/2-y,1/2+z
loop_
_atom_site_type_symbol
_atom_site_label
_atom_site_fract_x
_atom_site_fract_y
_atom_site_fract_z
Si Si1 0.304717 0.424678 0.719130
Si Si2 0.519586 0.509198 0.587957
Si Si3 0.787404 0.798364 0.651524
Si Si4 0.412410 0.835465 0.980072
Si Si5 0.165108 0.177548 0.044965
Si Si6 0.000000 0.787039 0.250000
Si Si7 0.476035 0.355888 0.403144
Si Si8 0.160720 0.569772 0.392138
O O1 0.500000 0.423842 0.750000
O O2 0.357193 0.472394 0.650442
O O3 0.271253 0.362119 0.687852
O O4 0.147544 0.434532 0.802242
O O5 0.500000 0.500000 0.500000
O O6 0.498775 0.576093 0.607780
O O7 0.735168 0.487528 0.589480
O O8 0.673421 0.802036 0.583208
O O9 0.682887 0.753579 0.715537
O O10 0.009997 0.786866 0.608582
O O11 0.469922 0.900751 0.947090
O O12 0.612019 0.804307 0.982131
O O13 0.249360 0.840646 0.059660
O O14 0.188096 0.118474 0.091988
O O15 0.083405 0.163114 0.970028
O O16 0.040020 0.824276 0.320669
#
# Coordination Sequence:
#
# PCOD9258654 Si02
#       8
#     8   8   8   8   8   4   8   8
#     4  10  18  33  65 101 122 157 229 280 334 372
#     4  11  18  35  66  95 129 181 213 267 342 406
#     4  11  20  42  64  89 136 163 220 292 316 386
#     4   9  20  41  69  95 121 165 230 279 333 389
#     4   9  19  42  69  92 126 165 233 277 328 398
#     4  12  30  40  62 102 138 190 218 256 354 422
#     4  11  24  44  61  94 144 179 212 268 345 425
#     4   9  18  34  60 102 115 154 226 272 323 383
#
# _framework density 21.255195000000001
#
# number of rings (size 3 to 8) (size 9 to 14) (size 15 to 20)
#    0.800    1.067    4.000    1.600    2.800    2.667 
#    0.000    6.000    0.000    0.000    0.000    0.000 
#    0.000    0.000    0.000    0.000    0.000    0.000 
#
# Total GULP energy -167439.170901 kJ/mol
# GULP energy per Si atom -5581.305697 kJ/mol
# Density = 2.120682 g / cm^3
# Si number density = 21.255195 Si / 1000 Ang^3
#
#
#
# Elastic Constant Matrix: (Units=GPa)
#
#
# Indices 1 2 3 4 5 6 
#
# 1 75.1209 29.7170 39.4631 0.0000 -0.1368 0.0000
# 2 29.7170 126.9291 74.1987 0.0000 -17.7667 0.0000
# 3 39.4631 74.1987 159.5121 0.0000 -10.2862 0.0000
# 4 0.0000 0.0000 0.0000 32.5406 0.0000 -25.7656
# 5 -0.1368 -17.7667 -10.2862 0.0000 20.3781 0.0000
# 6 0.0000 0.0000 0.0000 -25.7656 0.0000 2.7351
#
#
#
# Elastic Compliance Matrix: (Units=1/GPa)
#
#
# Indices 1 2 3 4 5 6 
#
# 1 0.015857 -0.002448 -0.003013 0.000000 -0.003549 0.000000
# 2 -0.002448 0.012302 -0.004575 0.000000 0.008399 0.000000
# 3 -0.003013 -0.004575 0.009183 0.000000 0.000626 0.000000
# 4 0.000000 0.000000 0.000000 -0.004758 0.000000 -0.044820
# 5 -0.003549 0.008399 0.000626 0.000000 0.056688 0.000000
# 6 0.000000 0.000000 0.000000 -0.044820 0.000000 -0.056606
#
#
# Mechanical properties :
#
#
# Convention : Reuss Voigt Hill
#
# Bulk Modulus (GPa) = 57.90553 72.03554 64.97054
# Shear Modulus (GPa) = 85.47945 25.67631 55.57788
#
# Velocity S-wave (km/s) = 6.34847 3.47940 5.11905
# Velocity P-wave (km/s) = 9.00220 7.07856 8.09770
#
# Compressibility (1/GPa) = 0.01726951
#
# Stress axis : x y z
#
# Youngs Moduli (GPa) = 63.06524 81.29050 108.89597
#
# Poissons Ratio (x) = 0.19897 0.32812
# Poissons Ratio (y) = 0.15436 0.49820
# Poissons Ratio (z) = 0.19003 0.37190
#
# Static dielectric constant tensor:
#      x y z
#    x 1.836920 0.000000 -0.036630 
#    y 0.000000 1.793720 0.000000 
#    z -0.036630 0.000000 1.766470 
# 
# From -- ./inp_files/192106.got.cif
#   From: 2010.05.17/outbox.cif.g08.bks.cpg/sg15_97_cif.got.tgz:192106.got - 2010.06.03 18:47:42.
