data_PCOD9258284
_publ_section_title
;
Structure prediction by ZEFSAII (Michael W. Deem and Ramdas Pophale) SiO2 
 PCOD9258284
Probable space group: C 2/C
;
_chemical_formula_sum "Si O2"
_cell_formula_units_Z 60
_cell_length_a 5.119057
_cell_length_b 29.559412
_cell_length_c 21.649012
_cell_angle_alpha 90.000000
_cell_angle_beta 86.320145
_cell_angle_gamma 90.000000
_cell_volume 3269.094723
_symmetry_space_group_name_H-M "C 2/C"
_symmetry_group_IT_number 15
_symmetry_cell_setting 'monoclinic'
loop_
_space_group_symop_operation_xyz
x,y,z
-x,y,1/2-z
-x,-y,-z
x,-y,1/2+z
1/2+x,1/2+y,z
1/2-x,1/2+y,1/2-z
1/2-x,1/2-y,-z
1/2+x,1/2-y,1/2+z
loop_
_atom_site_type_symbol
_atom_site_label
_atom_site_fract_x
_atom_site_fract_y
_atom_site_fract_z
Si Si1 0.634771 0.709403 0.651728
Si Si2 0.806705 0.799866 0.970859
Si Si3 0.161431 0.414585 0.182067
Si Si4 0.764653 0.112034 0.205921
Si Si5 0.329885 0.192074 0.386903
Si Si6 0.500000 0.352800 0.250000
Si Si7 0.872276 0.665858 0.903216
Si Si8 0.236238 0.989162 0.793713
O O1 0.653631 0.762976 0.655581
O O2 0.696366 0.682136 0.713922
O O3 0.345710 0.693583 0.633854
O O4 0.856424 0.693262 0.600778
O O5 0.603220 0.809783 0.919105
O O6 0.098075 0.801723 0.940022
O O7 0.750000 0.750000 0.000000
O O8 0.750171 0.834786 0.027094
O O9 0.418501 0.387184 0.198027
O O10 0.062261 0.382637 0.128708
O O11 0.221397 0.466419 0.165399
O O12 0.000000 0.413501 0.250000
O O13 0.500000 0.112508 0.250000
O O14 0.734848 0.148742 0.153193
O O15 0.808737 0.060941 0.179247
O O16 0.000000 0.121656 0.250000
O O17 0.500000 0.985704 0.750000
O O18 0.000000 0.999266 0.750000
#
# Coordination Sequence:
#
# PCOD9258284 Si02
#       8
#     8   8   8   8   8   4   8   8
#     4  11  21  34  49  79 109 149 171 221 270 323
#     4  12  22  39  56  78 108 151 199 229 256 321
#     4  10  18  33  53  81 110 138 173 220 285 333
#     4  10  22  40  58  86 111 141 186 228 276 334
#     4  12  23  38  59  77 111 153 187 229 275 310
#     4  10  20  30  48  80 118 134 172 212 280 350
#     4  11  22  34  54  78 112 141 184 225 265 320
#     4   9  18  33  57  79 107 139 176 222 271 332
#
# _framework density 18.353704
#
# number of rings (size 3 to 8) (size 9 to 14) (size 15 to 20)
#    0.000    1.333    4.667    2.000    0.933    0.000 
#    2.400    0.000    0.000    1.600    0.000    0.000 
#    0.000    0.000    0.000    0.000    0.000    0.000 
#
# Total GULP energy -167172.461713 kJ/mol
# GULP energy per Si atom -5572.415390 kJ/mol
# Density = 1.831193 g / cm^3
# Si number density = 18.353704 Si / 1000 Ang^3
#
#
#
# Elastic Constant Matrix: (Units=GPa)
#
#
# Indices 1 2 3 4 5 6 
#
# 1 71.0575 -2.9753 -5.0172 0.0000 -0.6568 0.0000
# 2 -2.9753 145.3216 36.5086 0.0000 13.1912 0.0000
# 3 -5.0172 36.5086 38.7147 0.0000 -0.2870 0.0000
# 4 0.0000 0.0000 0.0000 22.2012 0.0000 -1.0455
# 5 -0.6568 13.1912 -0.2870 0.0000 27.6976 0.0000
# 6 0.0000 0.0000 0.0000 -1.0455 0.0000 21.5821
#
#
#
# Elastic Compliance Matrix: (Units=1/GPa)
#
#
# Indices 1 2 3 4 5 6 
#
# 1 0.014215 -0.000285 0.002115 0.000000 0.000495 0.000000
# 2 -0.000285 0.009589 -0.009114 0.000000 -0.004668 0.000000
# 3 0.002115 -0.009114 0.034734 0.000000 0.004751 0.000000
# 4 0.000000 0.000000 0.000000 0.045146 0.000000 0.002187
# 5 0.000495 -0.004668 0.004751 0.000000 0.038388 0.000000
# 6 0.000000 0.000000 0.000000 0.002187 0.000000 0.046441
#
#
# Mechanical properties :
#
#
# Convention : Reuss Voigt Hill
#
# Bulk Modulus (GPa) = 22.74325 34.68065 28.71195
# Shear Modulus (GPa) = 22.96343 29.40138 26.18240
#
# Velocity S-wave (km/s) = 3.54101 4.00676 3.78106
# Velocity P-wave (km/s) = 5.39786 6.35155 5.89403
#
# Compressibility (1/GPa) = 0.04396909
#
# Stress axis : x y z
#
# Youngs Moduli (GPa) = 70.34794 104.28779 28.79027
#
# Poissons Ratio (x) = 0.02974 -0.06089
# Poissons Ratio (y) = 0.02006 0.26239
# Poissons Ratio (z) = -0.14877 0.95048
#
# Static dielectric constant tensor:
#      x y z
#    x 1.658530 0.000000 0.006560 
#    y 0.000000 1.658610 0.000000 
#    z 0.006560 0.000000 1.653970 
# 
# From -- ./inp_files/228474.got.cif
#   From: 2010.05.17/outbox.cif.g08.bks.cpg/sg15_115_cif.got.tgz:228474.got - 2010.06.03 18:47:42.
