data_PCOD9258955
_publ_section_title
;
Structure prediction by ZEFSAII (Michael W. Deem and Ramdas Pophale) SiO2 
 PCOD9258955
Probable space group: C 2/C
;
_chemical_formula_sum "Si O2"
_cell_formula_units_Z 44
_cell_length_a 9.087745
_cell_length_b 10.843364
_cell_length_c 20.420343
_cell_angle_alpha 90.000000
_cell_angle_beta 106.683572
_cell_angle_gamma 90.000000
_cell_volume 1927.549649
_symmetry_space_group_name_H-M "C 2/C"
_symmetry_group_IT_number 15
_symmetry_cell_setting 'monoclinic'
loop_
_space_group_symop_operation_xyz
x,y,z
-x,y,1/2-z
-x,-y,-z
x,-y,1/2+z
1/2+x,1/2+y,z
1/2-x,1/2+y,1/2-z
1/2-x,1/2-y,-z
1/2+x,1/2-y,1/2+z
loop_
_atom_site_type_symbol
_atom_site_label
_atom_site_fract_x
_atom_site_fract_y
_atom_site_fract_z
Si Si1 0.966785 0.133165 0.174933
Si Si2 0.818116 0.206004 0.862436
Si Si3 0.500000 0.076605 0.250000
Si Si4 0.873050 0.031080 0.430758
Si Si5 0.307683 0.868220 0.292135
Si Si6 0.653602 0.759443 0.879696
O O1 0.793014 0.177728 0.142470
O O2 0.000000 0.073641 0.250000
O O3 0.036525 0.057311 0.125002
O O4 0.063542 0.261085 0.189139
O O5 0.797495 0.166559 0.783794
O O6 0.996670 0.233272 0.897094
O O7 0.771960 0.090299 0.902041
O O8 0.392838 0.992474 0.282158
O O9 0.395202 0.157249 0.189275
O O10 0.773410 0.153129 0.432592
O O11 0.000000 0.000000 0.500000
O O12 0.225823 0.859348 0.352198
#
# Coordination Sequence:
#
# PCOD9258955 Si02
#       6
#     8   8   4   8   8   8
#     4   9  20  39  63  91 121 154 205 257 303 358
#     4  11  20  38  58  87 115 157 203 249 302 358
#     4  12  18  34  60  86 124 148 198 252 312 358
#     4  11  25  42  60  87 128 170 199 244 310 372
#     4  10  18  34  57  90 121 150 190 253 313 352
#     4  11  23  36  60  91 120 157 203 257 302 360
#
# _framework density 22.826908
#
# number of rings (size 3 to 8) (size 9 to 14) (size 15 to 20)
#    0.000    1.455    6.364    0.000    0.000    4.364 
#    0.000    0.909    0.000    0.000    0.000    0.000 
#    0.000    0.000    0.000    0.000    0.000    0.000 
#
# Total GULP energy -123103.315265 kJ/mol
# GULP energy per Si atom -5595.605239 kJ/mol
# Density = 2.277495 g / cm^3
# Si number density = 22.826908 Si / 1000 Ang^3
#
#
#
# Elastic Constant Matrix: (Units=GPa)
#
#
# Indices 1 2 3 4 5 6 
#
# 1 97.8049 18.8172 1.1175 0.0000 13.9911 0.0000
# 2 18.8172 75.8171 19.2897 0.0000 3.1311 0.0000
# 3 1.1175 19.2897 66.0493 0.0000 14.7728 0.0000
# 4 0.0000 0.0000 0.0000 21.7906 0.0000 7.7813
# 5 13.9911 3.1311 14.7728 0.0000 20.5247 0.0000
# 6 0.0000 0.0000 0.0000 7.7813 0.0000 35.9544
#
#
#
# Elastic Compliance Matrix: (Units=1/GPa)
#
#
# Indices 1 2 3 4 5 6 
#
# 1 0.012280 -0.003404 0.003030 0.000000 -0.010033 0.000000
# 2 -0.003404 0.015209 -0.005225 0.000000 0.003762 0.000000
# 3 0.003030 -0.005225 0.020141 0.000000 -0.015766 0.000000
# 4 0.000000 0.000000 0.000000 0.049735 0.000000 -0.010764
# 5 -0.010033 0.003762 -0.015766 0.000000 0.066335 0.000000
# 6 0.000000 0.000000 0.000000 -0.010764 0.000000 0.030142
#
#
# Mechanical properties :
#
#
# Convention : Reuss Voigt Hill
#
# Bulk Modulus (GPa) = 27.44912 35.34667 31.39789
# Shear Modulus (GPa) = 23.02189 29.01707 26.01948
#
# Velocity S-wave (km/s) = 3.17920 3.56923 3.37984
# Velocity P-wave (km/s) = 5.05247 5.70124 5.38663
#
# Compressibility (1/GPa) = 0.03643104
#
# Stress axis : x y z
#
# Youngs Moduli (GPa) = 81.43307 65.75165 49.64944
#
# Poissons Ratio (x) = 0.22385 -0.15046
# Poissons Ratio (y) = 0.27724 0.25944
# Poissons Ratio (z) = -0.24678 0.34358
#
# Static dielectric constant tensor:
#      x y z
#    x 1.917490 0.000000 0.006540 
#    y 0.000000 1.912040 0.000000 
#    z 0.006540 0.000000 1.818920 
# 
# From -- ./inp_files/230129.got.cif
#   From: 2010.05.17/outbox.cif.g08.bks.cpg/sg15_116_cif.got.tgz:230129.got - 2010.06.03 18:47:42.
