data_PCOD9258670
_publ_section_title
;
Structure prediction by ZEFSAII (Michael W. Deem and Ramdas Pophale) SiO2 
 PCOD9258670
Probable space group: C 2/C
;
_chemical_formula_sum "Si O2"
_cell_formula_units_Z 56
_cell_length_a 28.362536
_cell_length_b 8.697260
_cell_length_c 12.395556
_cell_angle_alpha 90.000000
_cell_angle_beta 134.131259
_cell_angle_gamma 90.000000
_cell_volume 2194.646722
_symmetry_space_group_name_H-M "C 2/C"
_symmetry_group_IT_number 15
_symmetry_cell_setting 'monoclinic'
loop_
_space_group_symop_operation_xyz
x,y,z
-x,y,1/2-z
-x,-y,-z
x,-y,1/2+z
1/2+x,1/2+y,z
1/2-x,1/2+y,1/2-z
1/2-x,1/2-y,-z
1/2+x,1/2-y,1/2+z
loop_
_atom_site_type_symbol
_atom_site_label
_atom_site_fract_x
_atom_site_fract_y
_atom_site_fract_z
Si Si1 0.152060 0.696552 0.345633
Si Si2 0.129149 0.260377 0.201327
Si Si3 0.489194 0.781425 0.913727
Si Si4 0.857064 0.637233 0.557142
Si Si5 0.500000 0.521837 0.750000
Si Si6 0.213678 0.451031 0.761446
Si Si7 0.500000 0.041348 0.750000
Si Si8 0.858140 0.046316 0.483581
O O1 0.150376 0.533794 0.403586
O O2 0.209227 0.675245 0.349930
O O3 0.145752 0.824029 0.428113
O O4 0.085427 0.711985 0.167295
O O5 0.156974 0.247364 0.366085
O O6 0.161759 0.412560 0.201621
O O7 0.137634 0.126912 0.127464
O O8 0.050419 0.279830 0.090809
O O9 0.494422 0.632046 0.845856
O O10 0.499823 0.926861 0.852298
O O11 0.807037 0.635106 0.379684
O O12 0.932742 0.634392 0.640736
O O13 0.426224 0.456956 0.614893
O O14 0.285756 0.523059 0.870175
#
# Coordination Sequence:
#
# PCOD9258670 Si02
#       8
#     8   8   8   8   4   8   4   8
#     4   9  18  30  47  70  99 124 159 197 239 281
#     4  10  19  31  45  70 101 131 158 193 238 280
#     4   8  13  26  45  64  95 128 146 188 231 280
#     4  10  19  27  43  70 102 130 161 177 235 297
#     4   7  14  28  48  66  85 120 154 201 238 260
#     4  11  20  29  47  72  97 132 160 192 242 292
#     4   9  14  24  40  64  99 130 158 175 216 296
#     4  10  18  34  50  68 100 119 165 206 238 280
#
# _framework density 25.516634
#
# number of rings (size 3 to 8) (size 9 to 14) (size 15 to 20)
#    0.000    2.571    2.857    2.143    2.000    2.286 
#    0.000    0.000    0.000    0.000    0.000    5.000 
#    0.000    0.000    0.000    0.000    0.000    0.000 
#
# Total GULP energy -156471.045901 kJ/mol
# GULP energy per Si atom -5588.251639 kJ/mol
# Density = 2.545856 g / cm^3
# Si number density = 25.516634 Si / 1000 Ang^3
#
#
#
# Elastic Constant Matrix: (Units=GPa)
#
#
# Indices 1 2 3 4 5 6 
#
# 1 79.4171 -0.3455 64.2634 0.0000 18.3586 0.0000
# 2 -0.3455 48.6878 29.6832 0.0000 -7.3376 0.0000
# 3 64.2634 29.6832 141.2811 0.0000 0.8624 0.0000
# 4 0.0000 0.0000 0.0000 -0.7733 0.0000 -5.5394
# 5 18.3586 -7.3376 0.8624 0.0000 44.0745 0.0000
# 6 0.0000 0.0000 0.0000 -5.5394 0.0000 0.0054
#
#
#
# Elastic Compliance Matrix: (Units=1/GPa)
#
#
# Indices 1 2 3 4 5 6 
#
# 1 0.024976 0.006541 -0.012680 0.000000 -0.009066 0.000000
# 2 0.006541 0.026004 -0.008450 0.000000 0.001770 0.000000
# 3 -0.012680 -0.008450 0.014599 0.000000 0.003589 0.000000
# 4 0.000000 0.000000 0.000000 -0.000177 0.000000 -0.180500
# 5 -0.009066 0.001770 0.003589 0.000000 0.026690 0.000000
# 6 0.000000 0.000000 0.000000 -0.180500 0.000000 0.025198
#
#
# Mechanical properties :
#
#
# Convention : Reuss Voigt Hill
#
# Bulk Modulus (GPa) = 27.47041 50.73203 39.10122
# Shear Modulus (GPa) = 31.52573 20.38032 25.95303
#
# Velocity S-wave (km/s) = 3.51878 2.82921 3.19266
# Velocity P-wave (km/s) = 5.22476 5.53151 5.38032
#
# Compressibility (1/GPa) = 0.03640281
#
# Stress axis : x y z
#
# Youngs Moduli (GPa) = 40.03778 38.45634 68.49796
#
# Poissons Ratio (x) = -0.25155 0.86854
# Poissons Ratio (y) = -0.26190 0.57878
# Poissons Ratio (z) = 0.50767 0.32494
#
# Static dielectric constant tensor:
#      x y z
#    x 2.018870 0.000000 0.034340 
#    y 0.000000 2.023750 0.000000 
#    z 0.034340 0.000000 1.992970 
# 
# From -- ./inp_files/106081.got.cif
#   From: 2010.05.17/outbox.cif.g08.bks.cpg/sg15_54_cif.got.tgz:106081.got - 2010.06.03 18:47:42.
