data_PCOD9258857
_publ_section_title
;
Structure prediction by ZEFSAII (Michael W. Deem and Ramdas Pophale) SiO2 
 PCOD9258857
Probable space group: C 2/C
;
_chemical_formula_sum "Si O2"
_cell_formula_units_Z 52
_cell_length_a 13.277770
_cell_length_b 9.220673
_cell_length_c 20.979502
_cell_angle_alpha 90.000000
_cell_angle_beta 125.149574
_cell_angle_gamma 90.000000
_cell_volume 2100.155186
_symmetry_space_group_name_H-M "C 2/C"
_symmetry_group_IT_number 15
_symmetry_cell_setting 'monoclinic'
loop_
_space_group_symop_operation_xyz
x,y,z
-x,y,1/2-z
-x,-y,-z
x,-y,1/2+z
1/2+x,1/2+y,z
1/2-x,1/2+y,1/2-z
1/2-x,1/2-y,-z
1/2+x,1/2-y,1/2+z
loop_
_atom_site_type_symbol
_atom_site_label
_atom_site_fract_x
_atom_site_fract_y
_atom_site_fract_z
Si Si1 0.933643 0.210957 0.105607
Si Si2 0.510737 0.264930 0.022403
Si Si3 0.342121 0.195160 0.770006
Si Si4 0.903481 0.063654 0.826641
Si Si5 0.252490 0.760762 0.376959
Si Si6 0.000000 0.727171 0.250000
Si Si7 0.738661 0.102537 0.120675
O O1 0.947151 0.214373 0.035008
O O2 0.798250 0.183411 0.081915
O O3 0.012345 0.336917 0.170559
O O4 0.012362 0.072467 0.158421
O O5 0.362328 0.265636 0.967274
O O6 0.557533 0.384937 0.088662
O O7 0.590986 0.123244 0.071901
O O8 0.245477 0.063529 0.728139
O O9 0.313210 0.257534 0.829804
O O10 0.300491 0.308406 0.700929
O O11 0.941765 0.182026 0.787604
O O12 0.125840 0.670002 0.329661
O O13 0.227355 0.934089 0.371697
#
# Coordination Sequence:
#
# PCOD9258857 Si02
#       7
#     8   8   8   8   8   4   8
#     4  11  20  36  59  85 114 152 195 230 281 344
#     4  10  23  37  54  90 118 150 180 247 281 334
#     4   9  20  31  54  86 108 141 193 243 266 325
#     4  10  20  36  57  84 114 148 196 226 289 332
#     4  10  20  36  57  84 114 148 196 226 289 332
#     4  10  18  34  56  82  98 150 194 226 262 346
#     4  11  20  36  59  85 114 152 195 230 281 344
#
# _framework density 24.760075000000001
#
# number of rings (size 3 to 8) (size 9 to 14) (size 15 to 20)
#    0.000    1.846    1.538    3.692    0.000    0.615 
#    0.000    0.000    0.000    0.000  180.000    0.000 
#    0.000    0.000    0.000    0.000    0.000    0.000 
#
# Total GULP energy -144933.416897 kJ/mol
# GULP energy per Si atom -5574.362188 kJ/mol
# Density = 2.470372 g / cm^3
# Si number density = 24.760075 Si / 1000 Ang^3
#
#
#
# Elastic Constant Matrix: (Units=GPa)
#
#
# Indices 1 2 3 4 5 6 
#
# 1 82.5732 10.9847 34.3009 0.0000 30.4276 0.0000
# 2 10.9847 25.7750 5.9152 0.0000 7.3467 0.0000
# 3 34.3009 5.9152 119.9719 0.0000 12.8475 0.0000
# 4 0.0000 0.0000 0.0000 17.3096 0.0000 -5.0411
# 5 30.4276 7.3467 12.8475 0.0000 54.6174 0.0000
# 6 0.0000 0.0000 0.0000 -5.0411 0.0000 23.0222
#
#
#
# Elastic Compliance Matrix: (Units=1/GPa)
#
#
# Indices 1 2 3 4 5 6 
#
# 1 0.017271 -0.004150 -0.003860 0.000000 -0.008156 0.000000
# 2 -0.004150 0.041587 -0.000526 0.000000 -0.003158 0.000000
# 3 -0.003860 -0.000526 0.009465 0.000000 -0.000005 0.000000
# 4 0.000000 0.000000 0.000000 0.061707 0.000000 0.013512
# 5 -0.008156 -0.003158 -0.000005 0.000000 0.023279 0.000000
# 6 0.000000 0.000000 0.000000 0.013512 0.000000 0.046395
#
#
# Mechanical properties :
#
#
# Convention : Reuss Voigt Hill
#
# Bulk Modulus (GPa) = 19.51151 36.74687 28.12919
# Shear Modulus (GPa) = 21.38037 30.79780 26.08909
#
# Velocity S-wave (km/s) = 2.94173 3.53065 3.24956
# Velocity P-wave (km/s) = 4.40859 5.61196 5.04627
#
# Compressibility (1/GPa) = 0.05125180
#
# Stress axis : x y z
#
# Youngs Moduli (GPa) = 57.89938 24.04611 105.64808
#
# Poissons Ratio (x) = 0.09980 0.40780
# Poissons Ratio (y) = 0.24029 0.05553
# Poissons Ratio (z) = 0.22349 0.01264
#
# Static dielectric constant tensor:
#      x y z
#    x 2.024890 0.000000 0.087840 
#    y 0.000000 2.077460 0.000000 
#    z 0.087840 0.000000 2.017360 
# 
# From -- ./inp_files/237509.got.cif
#   From: 2010.05.17/outbox.cif.g08.bks.cpg/sg15_119_cif.got.tgz:237509.got - 2010.06.03 18:47:42.
