data_PCOD9259027
_publ_section_title
;
Structure prediction by ZEFSAII (Michael W. Deem and Ramdas Pophale) SiO2 
 PCOD9259027
Probable space group: C 2/C
;
_chemical_formula_sum "Si O2"
_cell_formula_units_Z 48
_cell_length_a 8.863271
_cell_length_b 17.668018
_cell_length_c 12.151297
_cell_angle_alpha 90.000000
_cell_angle_beta 83.249526
_cell_angle_gamma 90.000000
_cell_volume 1889.658214
_symmetry_space_group_name_H-M "C 2/C"
_symmetry_group_IT_number 15
_symmetry_cell_setting 'monoclinic'
loop_
_space_group_symop_operation_xyz
x,y,z
-x,y,1/2-z
-x,-y,-z
x,-y,1/2+z
1/2+x,1/2+y,z
1/2-x,1/2+y,1/2-z
1/2-x,1/2-y,-z
1/2+x,1/2-y,1/2+z
loop_
_atom_site_type_symbol
_atom_site_label
_atom_site_fract_x
_atom_site_fract_y
_atom_site_fract_z
Si Si1 0.225234 0.907100 0.888931
Si Si2 0.610224 0.236446 0.142770
Si Si3 0.339835 0.165157 0.043345
Si Si4 0.000000 0.966778 0.750000
Si Si5 0.825745 0.716854 0.802685
Si Si6 0.710777 0.009193 0.895282
Si Si7 0.500000 0.005446 0.250000
O O1 0.256507 0.819679 0.902437
O O2 0.066222 0.919596 0.844879
O O3 0.361993 0.943333 0.805420
O O4 0.241142 0.950006 0.000125
O O5 0.500000 0.207758 0.250000
O O6 0.487748 0.220093 0.053786
O O7 0.707490 0.297365 0.209783
O O8 0.217810 0.201020 0.139589
O O9 0.346232 0.076661 0.074218
O O10 0.299627 0.168212 0.916974
O O11 0.141623 0.012508 0.693377
O O12 0.000000 0.714540 0.750000
O O13 0.569635 0.043830 0.841665
#
# Coordination Sequence:
#
# PCOD9259027 Si02
#       7
#     8   8   8   4   8   8   4
#     4  11  20  36  60  93 118 156 200 236 295 363
#     4  10  19  37  64  89 117 155 198 245 294 356
#     4  10  22  39  62  90 116 151 204 255 283 355
#     4  10  22  36  56  84 126 164 198 230 290 360
#     4  10  22  40  63  87 113 158 205 243 298 344
#     4  11  22  37  61  91 120 158 197 244 296 348
#     4  10  18  34  58  86 118 154 186 228 296 354
#
# _framework density 25.401418
#
# number of rings (size 3 to 8) (size 9 to 14) (size 15 to 20)
#    0.000    1.667    2.500    4.000    4.667    0.667 
#    1.500    0.000    9.167    0.000    0.000    0.000 
#    0.000    0.000    0.000    0.000    0.000    0.000 
#
# Total GULP energy -133819.418265 kJ/mol
# GULP energy per Si atom -5575.809094 kJ/mol
# Density = 2.534360 g / cm^3
# Si number density = 25.401418 Si / 1000 Ang^3
#
#
#
# Elastic Constant Matrix: (Units=GPa)
#
#
# Indices 1 2 3 4 5 6 
#
# 1 125.4678 34.0355 52.8018 0.0000 27.6175 0.0000
# 2 34.0355 52.7400 30.3811 0.0000 12.9909 0.0000
# 3 52.8018 30.3811 92.5645 0.0000 26.2771 0.0000
# 4 0.0000 0.0000 0.0000 20.8492 0.0000 -2.5227
# 5 27.6175 12.9909 26.2771 0.0000 58.2463 0.0000
# 6 0.0000 0.0000 0.0000 -2.5227 0.0000 6.2566
#
#
#
# Elastic Compliance Matrix: (Units=1/GPa)
#
#
# Indices 1 2 3 4 5 6 
#
# 1 0.011567 -0.004262 -0.004487 0.000000 -0.002510 0.000000
# 2 -0.004262 0.025159 -0.005513 0.000000 -0.001103 0.000000
# 3 -0.004487 -0.005513 0.016308 0.000000 -0.004000 0.000000
# 4 0.000000 0.000000 0.000000 0.050423 0.000000 0.020331
# 5 -0.002510 -0.001103 -0.004000 0.000000 0.020409 0.000000
# 6 0.000000 0.000000 0.000000 0.020331 0.000000 0.168030
#
#
# Mechanical properties :
#
#
# Convention : Reuss Voigt Hill
#
# Bulk Modulus (GPa) = 40.80009 56.13437 48.46723
# Shear Modulus (GPa) = 15.21654 27.30735 21.26194
#
# Velocity S-wave (km/s) = 2.45019 3.28233 2.89630
# Velocity P-wave (km/s) = 4.90934 6.04250 5.50515
#
# Compressibility (1/GPa) = 0.02450975
#
# Stress axis : x y z
#
# Youngs Moduli (GPa) = 86.45305 39.74725 61.32033
#
# Poissons Ratio (x) = 0.16939 0.27514
# Poissons Ratio (y) = 0.36844 0.33808
# Poissons Ratio (z) = 0.38791 0.21914
#
# Static dielectric constant tensor:
#      x y z
#    x 2.063850 0.000000 0.130430 
#    y 0.000000 2.028790 0.000000 
#    z 0.130430 0.000000 2.124820 
# 
# From -- ./inp_files/79197.got.cif
#   From: 2010.05.17/outbox.cif.g08.bks.cpg/sg15_40_cif.got.tgz:79197.got - 2010.06.03 18:47:42.
