data_PCOD9259256
_publ_section_title
;
Structure prediction by ZEFSAII (Michael W. Deem and Ramdas Pophale) SiO2 
 PCOD9259256
Probable space group: C 2/C
;
_chemical_formula_sum "Si O2"
_cell_formula_units_Z 64
_cell_length_a 12.813327
_cell_length_b 12.277414
_cell_length_c 20.502280
_cell_angle_alpha 90.000000
_cell_angle_beta 67.886967
_cell_angle_gamma 90.000000
_cell_volume 2988.062574
_symmetry_space_group_name_H-M "C 2/C"
_symmetry_group_IT_number 15
_symmetry_cell_setting 'monoclinic'
loop_
_space_group_symop_operation_xyz
x,y,z
-x,y,1/2-z
-x,-y,-z
x,-y,1/2+z
1/2+x,1/2+y,z
1/2-x,1/2+y,1/2-z
1/2-x,1/2-y,-z
1/2+x,1/2-y,1/2+z
loop_
_atom_site_type_symbol
_atom_site_label
_atom_site_fract_x
_atom_site_fract_y
_atom_site_fract_z
Si Si1 0.133720 0.459693 0.373234
Si Si2 0.551968 0.538863 0.353811
Si Si3 0.904014 0.232235 0.079636
Si Si4 0.649425 0.366796 0.236584
Si Si5 0.614961 0.637529 0.952088
Si Si6 0.301959 0.522897 0.447565
Si Si7 0.922464 0.304555 0.639530
Si Si8 0.158194 0.208985 0.590386
O O1 0.060082 0.357407 0.414642
O O2 0.220894 0.400862 0.303832
O O3 0.200580 0.509176 0.420479
O O4 0.086000 0.566931 0.351794
O O5 0.609836 0.654507 0.354069
O O6 0.593447 0.472792 0.281668
O O7 0.584886 0.456877 0.406498
O O8 0.417702 0.558231 0.384582
O O9 0.781287 0.243138 0.075148
O O10 0.002315 0.171337 0.017486
O O11 0.621520 0.263049 0.287852
O O12 0.616665 0.336924 0.170542
O O13 0.644975 0.745098 0.903661
O O14 0.702590 0.593215 0.985404
O O15 0.326898 0.396504 0.458015
O O16 0.054715 0.282162 0.593430
#
# Coordination Sequence:
#
# PCOD9259256 Si02
#       8
#     8   8   8   8   8   8   8   8
#     4  10  24  36  57  86 117 155 189 234 297 344
#     4  10  18  34  63  90 109 148 195 248 278 326
#     4   9  20  36  57  87 116 146 191 232 290 335
#     4   9  20  36  60  83 108 144 200 237 280 333
#     4  10  20  36  63  84 117 149 197 244 282 333
#     4   9  17  35  56  85 109 144 196 233 277 340
#     4  11  22  37  59  84 117 154 190 237 292 344
#     4  10  20  35  59  89 112 151 190 244 286 336
#
# _framework density 21.418561
#
# number of rings (size 3 to 8) (size 9 to 14) (size 15 to 20)
#    0.000    2.500    2.500    1.875    5.250    1.500 
#    2.250    0.000   11.000    0.000    0.000    0.000 
#    0.000    0.000    0.000    0.000    0.000    0.000 
#
# Total GULP energy -178344.539440 kJ/mol
# GULP energy per Si atom -5573.266857 kJ/mol
# Density = 2.136981 g / cm^3
# Si number density = 21.418561 Si / 1000 Ang^3
#
#
#
# Elastic Constant Matrix: (Units=GPa)
#
#
# Indices 1 2 3 4 5 6 
#
# 1 24.1669 28.2220 -9.6272 0.0000 -2.8908 0.0000
# 2 28.2220 147.7277 19.4855 0.0000 4.1906 0.0000
# 3 -9.6272 19.4855 67.9058 0.0000 8.3941 0.0000
# 4 0.0000 0.0000 0.0000 25.8286 0.0000 0.7172
# 5 -2.8908 4.1906 8.3941 0.0000 9.6855 0.0000
# 6 0.0000 0.0000 0.0000 0.7172 0.0000 32.0596
#
#
#
# Elastic Compliance Matrix: (Units=1/GPa)
#
#
# Indices 1 2 3 4 5 6 
#
# 1 0.064343 -0.014222 0.011277 0.000000 0.015584 0.000000
# 2 -0.014222 0.010197 -0.004337 0.000000 -0.004898 0.000000
# 3 0.011277 -0.004337 0.018952 0.000000 -0.011183 0.000000
# 4 0.000000 0.000000 0.000000 0.038741 0.000000 -0.000867
# 5 0.015584 -0.004898 -0.011183 0.000000 0.119710 0.000000
# 6 0.000000 0.000000 0.000000 -0.000867 0.000000 0.031211
#
#
# Mechanical properties :
#
#
# Convention : Reuss Voigt Hill
#
# Bulk Modulus (GPa) = 12.66971 35.10678 23.88825
# Shear Modulus (GPa) = 15.43077 26.96274 21.19676
#
# Velocity S-wave (km/s) = 2.68701 3.55188 3.14927
# Velocity P-wave (km/s) = 3.94396 5.76606 4.93975
#
# Compressibility (1/GPa) = 0.07892839
#
# Stress axis : x y z
#
# Youngs Moduli (GPa) = 15.54162 98.06705 52.76545
#
# Poissons Ratio (x) = 1.39468 -0.59501
# Poissons Ratio (y) = 0.22103 0.22883
# Poissons Ratio (z) = -0.17526 0.42530
#
# Static dielectric constant tensor:
#      x y z
#    x 1.831120 0.000000 0.015910 
#    y 0.000000 1.812620 0.000000 
#    z 0.015910 0.000000 1.855910 
# 
# From -- ./inp_files/269229.got.cif
#   From: 2010.05.17/outbox.cif.g08.bks.cpg/sg15_135_cif.got.tgz:269229.got - 2010.06.03 18:47:42.
