data_PCOD9259384
_publ_section_title
;
Structure prediction by ZEFSAII (Michael W. Deem and Ramdas Pophale) SiO2 
 PCOD9259384
Probable space group: C 2/C
;
_chemical_formula_sum "Si O2"
_cell_formula_units_Z 64
_cell_length_a 9.576566
_cell_length_b 21.188706
_cell_length_c 26.361959
_cell_angle_alpha 90.000000
_cell_angle_beta 136.594725
_cell_angle_gamma 90.000000
_cell_volume 3675.752435
_symmetry_space_group_name_H-M "C 2/C"
_symmetry_group_IT_number 15
_symmetry_cell_setting 'monoclinic'
loop_
_space_group_symop_operation_xyz
x,y,z
-x,y,1/2-z
-x,-y,-z
x,-y,1/2+z
1/2+x,1/2+y,z
1/2-x,1/2+y,1/2-z
1/2-x,1/2-y,-z
1/2+x,1/2-y,1/2+z
loop_
_atom_site_type_symbol
_atom_site_label
_atom_site_fract_x
_atom_site_fract_y
_atom_site_fract_z
Si Si1 0.343995 0.786025 0.571578
Si Si2 0.510617 0.316091 0.556543
Si Si3 0.878111 0.848992 0.802266
Si Si4 0.264311 0.462648 0.704330
Si Si5 0.765226 0.897102 0.206133
Si Si6 0.445941 0.835917 0.045763
Si Si7 0.846163 0.627917 0.404978
Si Si8 0.890953 0.772964 0.276438
O O1 0.250000 0.750000 0.500000
O O2 0.168653 0.825821 0.553082
O O3 0.523298 0.827663 0.596510
O O4 0.437278 0.737252 0.636491
O O5 0.600739 0.347120 0.631265
O O6 0.493402 0.239428 0.557614
O O7 0.280163 0.340287 0.489575
O O8 0.760933 0.908319 0.746518
O O9 0.765421 0.784370 0.759220
O O10 0.110059 0.851019 0.843736
O O11 0.500000 0.465974 0.750000
O O12 0.201537 0.532491 0.704954
O O13 0.150892 0.439191 0.623260
O O14 0.616387 0.871899 0.122780
O O15 0.777717 0.839895 0.249427
O O16 0.000000 0.901738 0.250000
O O17 0.426835 0.863518 0.983596
O O18 0.000000 0.767663 0.250000
#
# Coordination Sequence:
#
# PCOD9259384 Si02
#       8
#     8   8   8   8   8   8   8   8
#     4  12  22  32  52  90 116 142 183 240 288 323
#     4  10  19  33  54  82 113 146 183 228 278 343
#     4  10  18  35  56  82 108 143 195 226 280 335
#     4   9  19  35  53  83 114 148 185 242 283 324
#     4  10  20  34  56  83 116 140 189 240 283 333
#     4  10  19  34  55  83 112 148 181 226 289 343
#     4  10  21  32  54  85 115 142 186 236 282 335
#     4  11  20  33  57  87 110 152 187 237 288 338
#
# _framework density 17.411401000000001
#
# number of rings (size 3 to 8) (size 9 to 14) (size 15 to 20)
#    0.000    1.750    5.000    0.750    0.000    0.500 
#    0.000    0.000    0.000    0.750   16.250    0.000 
#    0.000    0.000    0.000    0.000    0.000    0.000 
#
# Total GULP energy -178267.956042 kJ/mol
# GULP energy per Si atom -5570.873626 kJ/mol
# Density = 1.737177 g / cm^3
# Si number density = 17.411401 Si / 1000 Ang^3
#
#
#
# Elastic Constant Matrix: (Units=GPa)
#
#
# Indices 1 2 3 4 5 6 
#
# 1 86.3845 24.8885 36.4689 0.0000 -6.7371 -0.0001
# 2 24.8885 116.3943 43.5776 0.0000 1.7144 0.0000
# 3 36.4689 43.5776 124.9505 0.0000 -2.4172 -0.0001
# 4 0.0000 0.0000 0.0000 5.9067 0.0000 -4.7254
# 5 -6.7371 1.7144 -2.4172 0.0000 12.0211 -0.0001
# 6 -0.0001 0.0000 -0.0001 -4.7254 -0.0001 16.4342
#
#
#
# Elastic Compliance Matrix: (Units=1/GPa)
#
#
# Indices 1 2 3 4 5 6 
#
# 1 0.014104 -0.001886 -0.003314 0.000000 0.007507 0.000000
# 2 -0.001886 0.010188 -0.003063 0.000000 -0.003126 0.000000
# 3 -0.003314 -0.003063 0.010050 0.000000 0.000601 0.000000
# 4 0.000000 0.000000 0.000000 0.219878 0.000000 0.063222
# 5 0.007507 -0.003126 0.000601 0.000000 0.087961 0.000000
# 6 0.000000 0.000000 0.000000 0.063222 0.000000 0.079027
#
#
# Mechanical properties :
#
#
# Convention : Reuss Voigt Hill
#
# Bulk Modulus (GPa) = 56.12692 59.73325 57.93008
# Shear Modulus (GPa) = 11.26961 21.72535 16.49748
#
# Velocity S-wave (km/s) = 2.54688 3.53621 3.08150
# Velocity P-wave (km/s) = 6.39957 7.14524 6.78266
#
# Compressibility (1/GPa) = 0.01781676
#
# Stress axis : x y z
#
# Youngs Moduli (GPa) = 70.90279 98.15893 99.50086
#
# Poissons Ratio (x) = 0.18511 0.32970
# Poissons Ratio (y) = 0.13371 0.30478
# Poissons Ratio (z) = 0.23494 0.30067
#
# Static dielectric constant tensor:
#      x y z
#    x 1.601220 0.000000 0.008120 
#    y 0.000000 1.623960 0.000000 
#    z 0.008120 0.000000 1.632260 
# 
# From -- ./inp_files/266137.got.cif
#   From: 2010.05.17/outbox.cif.g08.bks.cpg/sg15_134_cif.got.tgz:266137.got - 2010.06.03 18:47:42.
