data_PCOD9259788
_publ_section_title
;
Structure prediction by ZEFSAII (Michael W. Deem and Ramdas Pophale) SiO2 
 PCOD9259788
Probable space group: C 2/C
;
_chemical_formula_sum "Si O2"
_cell_formula_units_Z 40
_cell_length_a 9.149144
_cell_length_b 24.201089
_cell_length_c 11.875564
_cell_angle_alpha 90.000000
_cell_angle_beta 42.075086
_cell_angle_gamma 90.000000
_cell_volume 1762.023822
_symmetry_space_group_name_H-M "C 2/C"
_symmetry_group_IT_number 15
_symmetry_cell_setting 'monoclinic'
loop_
_space_group_symop_operation_xyz
x,y,z
-x,y,1/2-z
-x,-y,-z
x,-y,1/2+z
1/2+x,1/2+y,z
1/2-x,1/2+y,1/2-z
1/2-x,1/2-y,-z
1/2+x,1/2-y,1/2+z
loop_
_atom_site_type_symbol
_atom_site_label
_atom_site_fract_x
_atom_site_fract_y
_atom_site_fract_z
Si Si1 0.287402 0.701721 0.791751
Si Si2 0.000000 0.986785 0.250000
Si Si3 0.213202 0.086181 0.794685
Si Si4 0.882448 0.434474 0.607507
Si Si5 0.894019 0.320533 0.686945
Si Si6 0.000000 0.509729 0.750000
O O1 0.500000 0.701475 0.750000
O O2 0.316686 0.652050 0.685158
O O3 0.260218 0.763736 0.762387
O O4 0.088844 0.689255 0.987806
O O5 0.799196 0.027381 0.344056
O O6 0.988795 0.944806 0.149599
O O7 0.419020 0.078130 0.590992
O O8 0.293373 0.051685 0.856287
O O9 0.784669 0.377381 0.710939
O O10 0.977277 0.468923 0.657873
O O11 0.000000 0.327874 0.750000
#
# Coordination Sequence:
#
# PCOD9259788 Si02
#       6
#     8   4   8   8   8   4
#     4  10  19  35  56  82 112 145 187 233 280 330
#     4  10  18  36  56  76 110 148 182 218 286 326
#     4  10  21  37  55  81 114 146 184 235 278 333
#     4  10  21  37  55  81 114 146 184 235 278 333
#     4  10  19  35  56  82 112 145 187 233 280 330
#     4  10  18  36  56  76 110 148 182 218 286 326
#
# _framework density 22.701167000000002
#
# number of rings (size 3 to 8) (size 9 to 14) (size 15 to 20)
#    0.000    2.000    2.000    4.800    0.000    0.000 
#    0.000   25.000    0.000    4.800    0.000    0.000 
#    0.000    0.000    0.000    0.000    0.000    0.000 
#
# Total GULP energy -111709.403811 kJ/mol
# GULP energy per Si atom -5585.470191 kJ/mol
# Density = 2.264950 g / cm^3
# Si number density = 22.701167 Si / 1000 Ang^3
#
#
#
# Elastic Constant Matrix: (Units=GPa)
#
#
# Indices 1 2 3 4 5 6 
#
# 1 98.7125 42.4855 12.7376 0.0000 10.6301 0.0000
# 2 42.4855 218.8038 24.1264 0.0000 12.8476 0.0000
# 3 12.7376 24.1264 44.1191 0.0000 11.3147 0.0000
# 4 0.0000 0.0000 0.0000 38.0992 0.0000 -3.2867
# 5 10.6301 12.8476 11.3147 0.0000 20.0424 0.0000
# 6 0.0000 0.0000 0.0000 -3.2867 0.0000 167.0265
#
#
#
# Elastic Compliance Matrix: (Units=1/GPa)
#
#
# Indices 1 2 3 4 5 6 
#
# 1 0.011545 -0.001857 -0.001231 0.000000 -0.004238 0.000000
# 2 -0.001857 0.005224 -0.002005 0.000000 -0.001232 0.000000
# 3 -0.001231 -0.002005 0.027619 0.000000 -0.013654 0.000000
# 4 0.000000 0.000000 0.000000 0.026292 0.000000 0.000517
# 5 -0.004238 -0.001232 -0.013654 0.000000 0.060640 0.000000
# 6 0.000000 0.000000 0.000000 0.000517 0.000000 0.005997
#
#
# Mechanical properties :
#
#
# Convention : Reuss Voigt Hill
#
# Bulk Modulus (GPa) = 29.23696 57.81493 43.52595
# Shear Modulus (GPa) = 31.46557 63.85269 47.65913
#
# Velocity S-wave (km/s) = 3.72704 5.30929 4.58691
# Velocity P-wave (km/s) = 5.60608 7.94405 6.87517
#
# Compressibility (1/GPa) = 0.03420328
#
# Stress axis : x y z
#
# Youngs Moduli (GPa) = 86.61819 191.41281 36.20666
#
# Poissons Ratio (x) = 0.35548 0.04456
# Poissons Ratio (y) = 0.16086 0.07258
# Poissons Ratio (z) = 0.10660 0.38373
#
# Static dielectric constant tensor:
#      x y z
#    x 1.825410 0.000000 -0.005550 
#    y 0.000000 1.915020 0.000000 
#    z -0.005550 0.000000 1.921340 
# 
# From -- ./inp_files/90590.got.cif
#   From: 2010.05.17/outbox.cif.g08.bks.cpg/sg15_46_cif.got.tgz:90590.got - 2010.06.03 18:47:42.
