data_PCOD9259099
_publ_section_title
;
Structure prediction by ZEFSAII (Michael W. Deem and Ramdas Pophale) SiO2 
 PCOD9259099
Probable space group: C 2/C
;
_chemical_formula_sum "Si O2"
_cell_formula_units_Z 56
_cell_length_a 14.968112
_cell_length_b 20.996266
_cell_length_c 10.735448
_cell_angle_alpha 90.000000
_cell_angle_beta 125.736988
_cell_angle_gamma 90.000000
_cell_volume 2738.598491
_symmetry_space_group_name_H-M "C 2/C"
_symmetry_group_IT_number 15
_symmetry_cell_setting 'monoclinic'
loop_
_space_group_symop_operation_xyz
x,y,z
-x,y,1/2-z
-x,-y,-z
x,-y,1/2+z
1/2+x,1/2+y,z
1/2-x,1/2+y,1/2-z
1/2-x,1/2-y,-z
1/2+x,1/2-y,1/2+z
loop_
_atom_site_type_symbol
_atom_site_label
_atom_site_fract_x
_atom_site_fract_y
_atom_site_fract_z
Si Si1 0.000000 0.205331 0.750000
Si Si2 0.370521 0.497945 0.108363
Si Si3 0.802393 0.902434 0.263418
Si Si4 0.218457 0.618680 0.948333
Si Si5 0.349495 0.702999 0.226069
Si Si6 0.500000 0.814346 0.250000
Si Si7 0.295037 0.258366 0.175332
Si Si8 0.052519 0.893825 0.508327
O O1 0.075421 0.251636 0.730696
O O2 0.054559 0.157070 0.894850
O O3 0.500000 0.509243 0.250000
O O4 0.312370 0.451946 0.161356
O O5 0.382560 0.455793 0.989976
O O6 0.291219 0.558718 0.051495
O O7 0.712611 0.900641 0.298239
O O8 0.789760 0.832917 0.197157
O O9 0.923828 0.908094 0.424309
O O10 0.095345 0.640494 0.886532
O O11 0.293792 0.679198 0.052154
O O12 0.429714 0.763495 0.275215
O O13 0.260085 0.721627 0.257450
O O14 0.407583 0.642348 0.337167
O O15 0.250000 0.250000 0.000000
#
# Coordination Sequence:
#
# PCOD9259099 Si02
#       8
#     4   8   8   8   8   4   8   8
#     4  10  18  34  59  99 128 160 204 276 360 354
#     4  10  22  42  69 101 129 163 231 289 345 388
#     4  10  21  41  62  92 131 169 214 288 340 381
#     4  12  28  42  67  96 132 188 217 276 340 402
#     4  12  25  40  68  98 135 176 234 262 340 414
#     4  12  28  48  59  97 146 188 218 268 332 418
#     4  11  20  37  64  93 128 170 212 276 335 395
#     4  10  19  38  68  98 128 164 215 292 337 386
#
# _framework density 20.448414
#
# number of rings (size 3 to 8) (size 9 to 14) (size 15 to 20)
#    0.000    1.143    6.429    1.286    9.000    1.143 
#    0.000    0.714    0.000    0.857    0.000    0.000 
#    0.000    0.000    0.000    0.000    0.000    0.000 
#
# Total GULP energy -155897.229086 kJ/mol
# GULP energy per Si atom -5567.758182 kJ/mol
# Density = 2.040187 g / cm^3
# Si number density = 20.448414 Si / 1000 Ang^3
#
#
#
# Elastic Constant Matrix: (Units=GPa)
#
#
# Indices 1 2 3 4 5 6 
#
# 1 59.3587 23.4622 -14.7778 0.0000 3.4035 0.0000
# 2 23.4622 95.9204 18.6678 0.0000 16.5595 0.0000
# 3 -14.7778 18.6678 27.5815 0.0000 2.4455 0.0000
# 4 0.0000 0.0000 0.0000 27.7451 0.0000 3.8526
# 5 3.4035 16.5595 2.4455 0.0000 21.8321 0.0000
# 6 0.0000 0.0000 0.0000 3.8526 0.0000 18.0203
#
#
#
# Elastic Compliance Matrix: (Units=1/GPa)
#
#
# Indices 1 2 3 4 5 6 
#
# 1 0.026379 -0.010917 0.021365 0.000000 0.001775 0.000000
# 2 -0.010917 0.018215 -0.017275 0.000000 -0.010179 0.000000
# 3 0.021365 -0.017275 0.059116 0.000000 0.003150 0.000000
# 4 0.000000 0.000000 0.000000 0.037145 0.000000 -0.007941
# 5 0.001775 -0.010179 0.003150 0.000000 0.052895 0.000000
# 6 0.000000 0.000000 0.000000 -0.007941 0.000000 0.057191
#
#
# Mechanical properties :
#
#
# Convention : Reuss Voigt Hill
#
# Bulk Modulus (GPa) = 11.10415 26.39610 18.75013
# Shear Modulus (GPa) = 16.97142 23.88671 20.42906
#
# Velocity S-wave (km/s) = 2.88403 3.42152 3.16421
# Velocity P-wave (km/s) = 4.06599 5.34282 4.74753
#
# Compressibility (1/GPa) = 0.09005642
#
# Stress axis : x y z
#
# Youngs Moduli (GPa) = 37.90909 54.90043 16.91592
#
# Poissons Ratio (x) = 0.59933 -0.36141
# Poissons Ratio (y) = 0.41384 0.29222
# Poissons Ratio (z) = -0.80992 0.94839
#
# Static dielectric constant tensor:
#      x y z
#    x 1.846220 0.000000 -0.026700 
#    y 0.000000 1.464560 0.000000 
#    z -0.026700 0.000000 1.821030 
# 
# From -- ./inp_files/98860.got.cif
#   From: 2010.05.17/outbox.cif.g08.bks.cpg/sg15_50_cif.got.tgz:98860.got - 2010.06.03 18:47:42.
