data_PCOD9259193
_publ_section_title
;
Structure prediction by ZEFSAII (Michael W. Deem and Ramdas Pophale) SiO2 
 PCOD9259193
Probable space group: C 2/C
;
_chemical_formula_sum "Si O2"
_cell_formula_units_Z 64
_cell_length_a 16.877015
_cell_length_b 7.092324
_cell_length_c 21.508054
_cell_angle_alpha 90.000000
_cell_angle_beta 94.411642
_cell_angle_gamma 90.000000
_cell_volume 2566.827358
_symmetry_space_group_name_H-M "C 2/C"
_symmetry_group_IT_number 15
_symmetry_cell_setting 'monoclinic'
loop_
_space_group_symop_operation_xyz
x,y,z
-x,y,1/2-z
-x,-y,-z
x,-y,1/2+z
1/2+x,1/2+y,z
1/2-x,1/2+y,1/2-z
1/2-x,1/2-y,-z
1/2+x,1/2-y,1/2+z
loop_
_atom_site_type_symbol
_atom_site_label
_atom_site_fract_x
_atom_site_fract_y
_atom_site_fract_z
Si Si1 0.848179 0.795073 0.288564
Si Si2 0.465898 0.695097 0.148327
Si Si3 0.831712 0.305545 0.650181
Si Si4 0.304574 0.760170 0.443271
Si Si5 0.626658 0.739269 0.231551
Si Si6 0.500107 0.248304 0.379985
Si Si7 0.233762 0.513346 0.153927
Si Si8 0.010073 0.216591 0.018079
O O1 0.842416 0.681052 0.224084
O O2 0.924828 0.719328 0.330758
O O3 0.773680 0.723238 0.323901
O O4 0.850665 0.017651 0.277364
O O5 0.548256 0.765866 0.184445
O O6 0.402281 0.749858 0.198178
O O7 0.481550 0.469784 0.136592
O O8 0.461567 0.767834 0.077098
O O9 0.749828 0.361624 0.609784
O O10 0.818225 0.077067 0.643461
O O11 0.916580 0.354686 0.628372
O O12 0.250000 0.750000 0.500000
O O13 0.308908 0.967527 0.412979
O O14 0.395434 0.718258 0.462040
O O15 0.692408 0.874917 0.203332
O O16 0.483987 0.195022 0.450774
O O17 0.000000 0.000000 0.000000
#
# Coordination Sequence:
#
# PCOD9259193 Si02
#       8
#     8   8   8   8   8   8   8   8
#     4  11  23  40  62  98 132 161 228 270 330 390
#     4   9  17  32  57  93 120 163 220 261 323 391
#     4  10  21  36  64  91 129 179 213 268 339 401
#     4  10  20  39  66  93 132 174 223 263 345 404
#     4  10  19  37  63  87 131 169 207 277 332 381
#     4  10  19  36  62  92 125 173 212 271 328 390
#     4  10  24  39  64  98 124 172 216 272 326 398
#     4  10  18  34  61  95 121 167 224 263 316 404
#
# _framework density 24.933503999999999
#
# number of rings (size 3 to 8) (size 9 to 14) (size 15 to 20)
#    0.750    1.250    3.750    0.375    1.750    0.000 
#    4.500    0.625    2.750    0.750    0.000    0.000 
#    0.000    0.000    0.000    0.000    0.000    0.000 
#
# Total GULP energy -178222.025914 kJ/mol
# GULP energy per Si atom -5569.438310 kJ/mol
# Density = 2.487675 g / cm^3
# Si number density = 24.933504 Si / 1000 Ang^3
#
#
#
# Elastic Constant Matrix: (Units=GPa)
#
#
# Indices 1 2 3 4 5 6 
#
# 1 108.2909 8.3501 54.9429 0.0000 13.5232 0.0000
# 2 8.3501 71.9163 18.0700 0.0000 -12.1093 0.0000
# 3 54.9429 18.0700 190.6187 0.0000 2.4863 0.0000
# 4 0.0000 0.0000 0.0000 19.2320 0.0000 -6.6549
# 5 13.5232 -12.1093 2.4863 0.0000 51.6612 0.0000
# 6 0.0000 0.0000 0.0000 -6.6549 0.0000 16.3837
#
#
#
# Elastic Compliance Matrix: (Units=1/GPa)
#
#
# Indices 1 2 3 4 5 6 
#
# 1 0.011273 -0.001040 -0.003111 0.000000 -0.003045 0.000000
# 2 -0.001040 0.014965 -0.001169 0.000000 0.003836 0.000000
# 3 -0.003111 -0.001169 0.006250 0.000000 0.000240 0.000000
# 4 0.000000 0.000000 0.000000 0.060500 0.000000 0.024575
# 5 -0.003045 0.003836 0.000240 0.000000 0.021042 0.000000
# 6 0.000000 0.000000 0.000000 0.024575 0.000000 0.071018
#
#
# Mechanical properties :
#
#
# Convention : Reuss Voigt Hill
#
# Bulk Modulus (GPa) = 45.76803 59.28354 52.52579
# Shear Modulus (GPa) = 24.63385 36.75290 30.69337
#
# Velocity S-wave (km/s) = 3.14663 3.84348 3.51238
# Velocity P-wave (km/s) = 5.62117 6.59733 6.12872
#
# Compressibility (1/GPa) = 0.02184931
#
# Stress axis : x y z
#
# Youngs Moduli (GPa) = 88.70546 66.82042 159.98786
#
# Poissons Ratio (x) = 0.06949 0.49773
# Poissons Ratio (y) = 0.09225 0.18702
# Poissons Ratio (z) = 0.27597 0.07811
#
# Static dielectric constant tensor:
#      x y z
#    x 1.955550 0.000000 -0.025680 
#    y 0.000000 2.111880 0.000000 
#    z -0.025680 0.000000 1.928920 
# 
# From -- ./inp_files/248167.got.cif
#   From: 2010.05.17/outbox.cif.g08.bks.cpg/sg15_125_cif.got.tgz:248167.got - 2010.06.03 18:47:42.
