data_PCOD9259735
_publ_section_title
;
Structure prediction by ZEFSAII (Michael W. Deem and Ramdas Pophale) SiO2 
 PCOD9259735
Probable space group: C 2/C
;
_chemical_formula_sum "Si O2"
_cell_formula_units_Z 44
_cell_length_a 11.448545
_cell_length_b 10.736446
_cell_length_c 32.434939
_cell_angle_alpha 90.000000
_cell_angle_beta 145.387375
_cell_angle_gamma 90.000000
_cell_volume 2264.599764
_symmetry_space_group_name_H-M "C 2/C"
_symmetry_group_IT_number 15
_symmetry_cell_setting 'monoclinic'
loop_
_space_group_symop_operation_xyz
x,y,z
-x,y,1/2-z
-x,-y,-z
x,-y,1/2+z
1/2+x,1/2+y,z
1/2-x,1/2+y,1/2-z
1/2-x,1/2-y,-z
1/2+x,1/2-y,1/2+z
loop_
_atom_site_type_symbol
_atom_site_label
_atom_site_fract_x
_atom_site_fract_y
_atom_site_fract_z
Si Si1 0.666256 0.544250 0.423705
Si Si2 0.117644 0.358552 0.062468
Si Si3 0.474623 0.215104 0.654035
Si Si4 0.420360 0.397217 0.507676
Si Si5 0.773402 0.051190 0.693246
Si Si6 0.000000 0.194334 0.250000
O O1 0.697775 0.408754 0.412671
O O2 0.510108 0.640720 0.356882
O O3 0.626584 0.549526 0.460678
O O4 0.892812 0.602071 0.480611
O O5 0.146407 0.424141 0.114812
O O6 0.090473 0.211776 0.060676
O O7 0.286489 0.158681 0.572797
O O8 0.664516 0.126076 0.697926
O O9 0.439755 0.225950 0.692706
O O10 0.500000 0.500000 0.500000
O O11 0.000000 0.105085 0.750000
O O12 0.818692 0.903496 0.710250
#
# Coordination Sequence:
#
# PCOD9259735 Si02
#       6
#     8   8   8   8   8   4
#     4  10  18  35  68  82 110 158 199 253 304 353
#     4  10  18  36  63  87 108 158 209 240 299 373
#     4  11  20  43  62  85 123 157 207 256 304 370
#     4  11  23  37  60  94 125 155 197 267 318 354
#     4  10  20  39  61  89 116 165 212 239 308 376
#     4  10  24  40  62  88 124 172 206 238 312 378
#
# _framework density 19.429482
#
# number of rings (size 3 to 8) (size 9 to 14) (size 15 to 20)
#    0.545    1.091    5.455    1.091    0.000    0.727 
#    9.818    0.000    0.000    0.000    0.000    0.000 
#    0.000    0.000    0.000    0.000    0.000    0.000 
#
# Total GULP energy -122490.183194 kJ/mol
# GULP energy per Si atom -5567.735600 kJ/mol
# Density = 1.938526 g / cm^3
# Si number density = 19.429482 Si / 1000 Ang^3
#
#
#
# Elastic Constant Matrix: (Units=GPa)
#
#
# Indices 1 2 3 4 5 6 
#
# 1 118.7902 52.5001 17.3123 0.0000 -29.3365 0.0000
# 2 52.5001 47.2923 -8.8153 0.0000 -5.5528 0.0000
# 3 17.3123 -8.8153 45.6464 0.0000 -20.1057 0.0000
# 4 0.0000 0.0000 0.0000 0.9891 0.0000 -5.6025
# 5 -29.3365 -5.5528 -20.1057 0.0000 38.2571 0.0000
# 6 0.0000 0.0000 0.0000 -5.6025 0.0000 38.8873
#
#
#
# Elastic Compliance Matrix: (Units=1/GPa)
#
#
# Indices 1 2 3 4 5 6 
#
# 1 0.024959 -0.028662 -0.010935 0.000000 0.009233 0.000000
# 2 -0.028662 0.056409 0.020416 0.000001 -0.003062 0.000000
# 3 -0.010935 0.020416 0.035926 0.000001 0.013458 0.000000
# 4 0.000000 0.000001 0.000001 5.497367 0.000001 0.792006
# 5 0.009233 -0.003062 0.013458 0.000001 0.039847 0.000000
# 6 0.000000 0.000000 0.000000 0.792006 0.000000 0.139820
#
#
# Mechanical properties :
#
#
# Convention : Reuss Voigt Hill
#
# Bulk Modulus (GPa) = 12.66914 37.08034 24.87474
# Shear Modulus (GPa) = 0.85339 25.67546 13.26443
#
# Velocity S-wave (km/s) = 0.66346 3.63915 2.61568
# Velocity P-wave (km/s) = 2.66864 6.06497 4.68538
#
# Compressibility (1/GPa) = 0.07893195
#
# Stress axis : x y z
#
# Youngs Moduli (GPa) = 40.06525 17.72755 27.83533
#
# Poissons Ratio (x) = 0.50811 0.30438
# Poissons Ratio (y) = 1.14835 -0.56828
# Poissons Ratio (z) = 0.43811 -0.36192
#
# Static dielectric constant tensor:
#      x y z
#    x 1.674860 0.000000 -0.062080 
#    y 0.000000 1.767270 0.000000 
#    z -0.062080 0.000000 1.448230 
# 
# From -- ./inp_files/268274.got.cif
#   From: 2010.05.17/outbox.cif.g08.bks.cpg/sg15_135_cif.got.tgz:268274.got - 2010.06.03 18:47:42.
