data_PCOD9259352
_publ_section_title
;
Structure prediction by ZEFSAII (Michael W. Deem and Ramdas Pophale) SiO2 
 PCOD9259352
Probable space group: C 2/C
;
_chemical_formula_sum "Si O2"
_cell_formula_units_Z 36
_cell_length_a 19.832353
_cell_length_b 6.913107
_cell_length_c 14.499401
_cell_angle_alpha 90.000000
_cell_angle_beta 140.927342
_cell_angle_gamma 90.000000
_cell_volume 1252.992905
_symmetry_space_group_name_H-M "C 2/C"
_symmetry_group_IT_number 15
_symmetry_cell_setting 'monoclinic'
loop_
_space_group_symop_operation_xyz
x,y,z
-x,y,1/2-z
-x,-y,-z
x,-y,1/2+z
1/2+x,1/2+y,z
1/2-x,1/2+y,1/2-z
1/2-x,1/2-y,-z
1/2+x,1/2-y,1/2+z
loop_
_atom_site_type_symbol
_atom_site_label
_atom_site_fract_x
_atom_site_fract_y
_atom_site_fract_z
Si Si1 0.000000 0.670601 0.750000
Si Si2 0.125765 0.492358 0.219091
Si Si3 0.590599 0.445597 0.219939
Si Si4 0.638871 0.453566 0.484504
Si Si5 0.174862 0.507970 0.563334
O O1 0.941859 0.652637 0.791070
O O2 0.884170 0.619300 0.575221
O O3 0.097488 0.710703 0.221957
O O4 0.251300 0.452581 0.369628
O O5 0.116652 0.493282 0.099589
O O6 0.605645 0.499735 0.344356
O O7 0.466711 0.491633 0.066917
O O8 0.697899 0.522895 0.285786
O O9 0.662571 0.225498 0.512286
#
# Coordination Sequence:
#
# PCOD9259352 Si02
#       5
#     4   8   8   8   8
#     4  12  18  34  50  80 106 128 168 214 258 292
#     4  11  20  31  53  82 101 132 170 210 257 298
#     4  10  18  35  55  76 102 132 169 215 252 292
#     4  10  18  35  55  76 102 132 169 215 252 292
#     4  11  20  31  53  82 101 132 170 210 257 298
#
# _framework density 28.731204999999999
#
# number of rings (size 3 to 8) (size 9 to 14) (size 15 to 20)
#    0.000    1.333    6.667    2.000    0.000    0.889 
#    0.000    0.000    0.000    5.333    0.000    0.000 
#    0.000    0.000    0.000    0.000    0.000    0.000 
#
# Total GULP energy -100592.571996 kJ/mol
# GULP energy per Si atom -5588.476222 kJ/mol
# Density = 2.866581 g / cm^3
# Si number density = 28.731205 Si / 1000 Ang^3
#
#
#
# Elastic Constant Matrix: (Units=GPa)
#
#
# Indices 1 2 3 4 5 6 
#
# 1 210.4350 8.2223 33.6020 0.0000 31.1099 0.0000
# 2 8.2223 112.6832 8.4321 0.0000 15.2430 0.0000
# 3 33.6020 8.4321 125.4134 0.0000 27.7056 0.0000
# 4 0.0000 0.0000 0.0000 -28.7958 0.0000 -16.4230
# 5 31.1099 15.2430 27.7056 0.0000 83.8574 0.0000
# 6 0.0000 0.0000 0.0000 -16.4230 0.0000 -243.8545
#
#
#
# Elastic Compliance Matrix: (Units=1/GPa)
#
#
# Indices 1 2 3 4 5 6 
#
# 1 0.005150 -0.000088 -0.001031 0.000000 -0.001554 0.000000
# 2 -0.000088 0.009108 -0.000248 0.000000 -0.001541 0.000000
# 3 -0.001031 -0.000248 0.008815 0.000000 -0.002485 0.000000
# 4 0.000000 0.000000 0.000000 -0.036114 0.000000 0.002432
# 5 -0.001554 -0.001541 -0.002485 0.000000 0.013603 0.000000
# 6 0.000000 0.000000 0.000000 0.002432 0.000000 -0.004265
#
#
# Mechanical properties :
#
#
# Convention : Reuss Voigt Hill
#
# Bulk Modulus (GPa) = 49.16778 61.00493 55.08635
# Shear Modulus (GPa) = 860.47108 -11.20691 424.63209
#
# Velocity S-wave (km/s) = 17.32456 -1.97714 12.17027
# Velocity P-wave (km/s) = 20.42883 4.00836 14.72080
#
# Compressibility (1/GPa) = 0.02033852
#
# Stress axis : x y z
#
# Youngs Moduli (GPa) = 194.18213 109.79493 113.43746
#
# Poissons Ratio (x) = 0.00971 0.11690
# Poissons Ratio (y) = 0.01718 0.02817
# Poissons Ratio (z) = 0.20011 0.02726
#
# Static dielectric constant tensor:
#      x y z
#    x 2.298980 0.000000 0.084500 
#    y 0.000000 2.491990 0.000000 
#    z 0.084500 0.000000 2.156230 
# 
# From -- ./inp_files/103510.got.cif
#   From: 2010.05.17/outbox.cif.g08.bks.cpg/sg15_52_cif.got.tgz:103510.got - 2010.06.03 18:47:42.
