data_PCOD9259549
_publ_section_title
;
Structure prediction by ZEFSAII (Michael W. Deem and Ramdas Pophale) SiO2 
 PCOD9259549
Probable space group: C 2/C
;
_chemical_formula_sum "Si O2"
_cell_formula_units_Z 40
_cell_length_a 17.368434
_cell_length_b 14.074385
_cell_length_c 15.050450
_cell_angle_alpha 90.000000
_cell_angle_beta 25.724981
_cell_angle_gamma 90.000000
_cell_volume 1596.912977
_symmetry_space_group_name_H-M "C 2/C"
_symmetry_group_IT_number 15
_symmetry_cell_setting 'monoclinic'
loop_
_space_group_symop_operation_xyz
x,y,z
-x,y,1/2-z
-x,-y,-z
x,-y,1/2+z
1/2+x,1/2+y,z
1/2-x,1/2+y,1/2-z
1/2-x,1/2-y,-z
1/2+x,1/2-y,1/2+z
loop_
_atom_site_type_symbol
_atom_site_label
_atom_site_fract_x
_atom_site_fract_y
_atom_site_fract_z
Si Si1 0.243720 0.544621 0.067173
Si Si2 0.168745 0.418519 0.455156
Si Si3 0.683655 0.406037 0.814635
Si Si4 0.819926 0.345032 0.385328
Si Si5 0.958382 0.716754 0.556356
O O1 0.343614 0.571418 0.053101
O O2 0.295697 0.438262 0.986169
O O3 0.034497 0.545238 0.314925
O O4 0.253375 0.600260 0.964111
O O5 0.269276 0.500581 0.292655
O O6 0.137191 0.322172 0.432908
O O7 0.533473 0.330677 0.942727
O O8 0.855441 0.337613 0.631748
O O9 0.750000 0.250000 0.500000
O O10 0.854056 0.324504 0.248024
O O11 0.000000 0.366325 0.250000
#
# Coordination Sequence:
#
# PCOD9259549 Si02
#       5
#     8   8   8   8   8
#     4  10  18  35  60  83 111 158 195 232 277 344
#     4  10  18  36  59  83 114 151 200 232 276 348
#     4  11  21  38  60  86 119 150 196 241 284 345
#     4  12  21  35  61  90 116 146 196 238 291 340
#     4  11  21  36  58  87 115 153 190 239 291 338
#
# _framework density 25.048328999999999
#
# number of rings (size 3 to 8) (size 9 to 14) (size 15 to 20)
#    0.000    1.200    6.000    3.600    0.000    0.800 
#    0.000    1.000    4.400    0.000    0.000    0.000 
#    0.000    0.000    0.000    0.000    0.000    0.000 
#
# Total GULP energy -111897.219075 kJ/mol
# GULP energy per Si atom -5594.860954 kJ/mol
# Density = 2.499132 g / cm^3
# Si number density = 25.048329 Si / 1000 Ang^3
#
#
#
# Elastic Constant Matrix: (Units=GPa)
#
#
# Indices 1 2 3 4 5 6 
#
# 1 110.3361 -1.6951 36.4744 -0.0007 33.4976 0.0004
# 2 -1.6951 62.8769 21.5438 -0.0001 3.3701 -0.0001
# 3 36.4744 21.5438 76.1495 0.0000 6.6151 0.0010
# 4 -0.0007 -0.0001 0.0000 31.9509 0.0008 6.1456
# 5 33.4976 3.3701 6.6151 0.0008 36.4795 -0.0017
# 6 0.0004 -0.0001 0.0010 6.1456 -0.0017 47.5184
#
#
#
# Elastic Compliance Matrix: (Units=1/GPa)
#
#
# Indices 1 2 3 4 5 6 
#
# 1 0.015592 0.003651 -0.007344 0.000001 -0.013323 -0.000001
# 2 0.003651 0.018485 -0.006643 0.000000 -0.003855 0.000000
# 3 -0.007344 -0.006643 0.018176 0.000000 0.004061 0.000000
# 4 0.000001 0.000000 0.000000 0.032096 -0.000002 -0.004151
# 5 -0.013323 -0.003855 0.004061 -0.000002 0.039266 0.000002
# 6 -0.000001 0.000000 0.000000 -0.004151 0.000002 0.021581
#
#
# Mechanical properties :
#
#
# Convention : Reuss Voigt Hill
#
# Bulk Modulus (GPa) = 31.66524 40.22318 35.94421
# Shear Modulus (GPa) = 28.34515 36.05905 32.20210
#
# Velocity S-wave (km/s) = 3.36760 3.79829 3.58941
# Velocity P-wave (km/s) = 5.27163 5.94383 5.61780
#
# Compressibility (1/GPa) = 0.03158037
#
# Stress axis : x y z
#
# Youngs Moduli (GPa) = 64.13692 54.09670 55.01674
#
# Poissons Ratio (x) = -0.19748 0.40402
# Poissons Ratio (y) = -0.23414 0.36550
# Poissons Ratio (z) = 0.47100 0.35939
#
# Static dielectric constant tensor:
#      x y z
#    x 2.019270 0.000000 -0.052680 
#    y 0.000000 2.011180 0.000000 
#    z -0.052680 0.000000 2.046910 
# 
# From -- ./inp_files/37825.got.cif
#   From: 2010.05.17/outbox.cif.g08.bks.cpg/sg15_19_cif.got.tgz:37825.got - 2010.06.03 18:47:42.
