data_PCOD9259303
_publ_section_title
;
Structure prediction by ZEFSAII (Michael W. Deem and Ramdas Pophale) SiO2 
 PCOD9259303
Probable space group: C 2/C
;
_chemical_formula_sum "Si O2"
_cell_formula_units_Z 52
_cell_length_a 19.845337
_cell_length_b 8.028461
_cell_length_c 17.048393
_cell_angle_alpha 90.000000
_cell_angle_beta 74.755895
_cell_angle_gamma 90.000000
_cell_volume 2620.704152
_symmetry_space_group_name_H-M "C 2/C"
_symmetry_group_IT_number 15
_symmetry_cell_setting 'monoclinic'
loop_
_space_group_symop_operation_xyz
x,y,z
-x,y,1/2-z
-x,-y,-z
x,-y,1/2+z
1/2+x,1/2+y,z
1/2-x,1/2+y,1/2-z
1/2-x,1/2-y,-z
1/2+x,1/2-y,1/2+z
loop_
_atom_site_type_symbol
_atom_site_label
_atom_site_fract_x
_atom_site_fract_y
_atom_site_fract_z
Si Si1 0.291688 0.764750 0.318355
Si Si2 0.986974 0.603640 0.161748
Si Si3 0.675127 0.903261 0.782765
Si Si4 0.916525 0.702446 0.897823
Si Si5 0.000000 0.927122 0.750000
Si Si6 0.136832 0.957580 0.281988
Si Si7 0.554018 0.368102 0.449707
O O1 0.219465 0.658136 0.345562
O O2 0.341151 0.785377 0.378667
O O3 0.330332 0.634902 0.248376
O O4 0.289388 0.947544 0.277723
O O5 0.905404 0.543038 0.179631
O O6 0.987057 0.753663 0.100110
O O7 0.000000 0.631699 0.250000
O O8 0.047038 0.476424 0.117844
O O9 0.670744 0.718330 0.744313
O O10 0.969528 0.814296 0.829128
O O11 0.916644 0.766080 0.986077
O O12 0.936265 0.034985 0.740470
O O13 0.116826 0.945544 0.379440
O O14 0.500000 0.500000 0.500000
#
# Coordination Sequence:
#
# PCOD9259303 Si02
#       7
#     8   8   8   8   4   8   8
#     4  11  22  41  66  89 132 166 222 270 325 395
#     4  11  22  40  66  96 125 166 223 272 321 390
#     4  11  22  37  64  96 120 170 218 271 320 386
#     4  11  21  41  63  96 127 170 211 272 334 388
#     4  10  18  34  66  88 120 160 208 268 312 380
#     4  10  22  37  61  92 125 162 212 264 319 390
#     4  11  24  36  60  97 136 163 209 274 339 385
#
# _framework density 19.841996000000002
#
# number of rings (size 3 to 8) (size 9 to 14) (size 15 to 20)
#    0.000    1.231    5.385    1.385    4.308    0.000 
#    0.000    3.077    0.000    0.923    0.000    0.000 
#    0.000    0.000    0.000    0.000    0.000    0.000 
#
# Total GULP energy -144756.523140 kJ/mol
# GULP energy per Si atom -5567.558582 kJ/mol
# Density = 1.979683 g / cm^3
# Si number density = 19.841996 Si / 1000 Ang^3
#
#
#
# Elastic Constant Matrix: (Units=GPa)
#
#
# Indices 1 2 3 4 5 6 
#
# 1 93.6479 20.4931 27.2653 0.0000 29.1794 0.0000
# 2 20.4931 93.6118 47.1553 0.0000 20.3600 0.0000
# 3 27.2653 47.1553 114.2877 0.0000 14.7218 0.0000
# 4 0.0000 0.0000 0.0000 39.7693 0.0000 -23.4968
# 5 29.1794 20.3600 14.7218 0.0000 25.6133 0.0000
# 6 0.0000 0.0000 0.0000 -23.4968 0.0000 112.6612
#
#
#
# Elastic Compliance Matrix: (Units=1/GPa)
#
#
# Indices 1 2 3 4 5 6 
#
# 1 0.017014 0.001614 -0.002228 0.000000 -0.019385 0.000000
# 2 0.001614 0.015408 -0.005322 0.000000 -0.011028 0.000000
# 3 -0.002228 -0.005322 0.011453 0.000000 0.000185 0.000000
# 4 0.000000 0.000000 0.000000 0.028679 0.000000 0.005981
# 5 -0.019385 -0.011028 0.000185 0.000000 0.069786 0.000000
# 6 0.000000 0.000000 0.000000 0.005981 0.000000 0.010124
#
#
# Mechanical properties :
#
#
# Convention : Reuss Voigt Hill
#
# Bulk Modulus (GPa) = 31.24656 54.59720 42.92188
# Shear Modulus (GPa) = 28.57080 49.38433 38.97756
#
# Velocity S-wave (km/s) = 3.79874 4.99428 4.43696
# Velocity P-wave (km/s) = 5.91798 7.79954 6.92298
#
# Compressibility (1/GPa) = 0.03200353
#
# Stress axis : x y z
#
# Youngs Moduli (GPa) = 58.77560 64.89937 87.31097
#
# Poissons Ratio (x) = -0.10473 0.19450
# Poissons Ratio (y) = -0.09485 0.46467
# Poissons Ratio (z) = 0.13093 0.34540
#
# Static dielectric constant tensor:
#      x y z
#    x 1.857890 0.000000 -0.010920 
#    y 0.000000 1.770530 0.000000 
#    z -0.010920 0.000000 1.674800 
# 
# From -- ./inp_files/166305.got.cif
#   From: 2010.05.17/outbox.cif.g08.bks.cpg/sg15_84_cif.got.tgz:166305.got - 2010.06.03 18:47:42.
