data_PCOD9259631
_publ_section_title
;
Structure prediction by ZEFSAII (Michael W. Deem and Ramdas Pophale) SiO2 
 PCOD9259631
Probable space group: C 2/C
;
_chemical_formula_sum "Si O2"
_cell_formula_units_Z 52
_cell_length_a 18.215489
_cell_length_b 7.655000
_cell_length_c 19.917577
_cell_angle_alpha 90.000000
_cell_angle_beta 135.802902
_cell_angle_gamma 90.000000
_cell_volume 1936.134632
_symmetry_space_group_name_H-M "C 2/C"
_symmetry_group_IT_number 15
_symmetry_cell_setting 'monoclinic'
loop_
_space_group_symop_operation_xyz
x,y,z
-x,y,1/2-z
-x,-y,-z
x,-y,1/2+z
1/2+x,1/2+y,z
1/2-x,1/2+y,1/2-z
1/2-x,1/2-y,-z
1/2+x,1/2-y,1/2+z
loop_
_atom_site_type_symbol
_atom_site_label
_atom_site_fract_x
_atom_site_fract_y
_atom_site_fract_z
Si Si1 0.962945 0.205167 0.874092
Si Si2 0.817391 0.639383 0.969223
Si Si3 0.871969 0.587129 0.853582
Si Si4 0.195605 0.923315 0.135000
Si Si5 0.088951 0.721415 0.945984
Si Si6 0.500000 0.160923 0.750000
Si Si7 0.854018 0.331093 0.684293
O O1 0.910984 0.390643 0.861948
O O2 0.906734 0.067849 0.884916
O O3 0.928513 0.203084 0.774525
O O4 0.086146 0.225722 0.961171
O O5 0.851829 0.462842 0.029723
O O6 0.824013 0.572619 0.895907
O O7 0.702461 0.716646 0.909072
O O8 0.786294 0.656705 0.743658
O O9 0.982518 0.687827 0.919298
O O10 0.248345 0.107260 0.153521
O O11 0.164353 0.833172 0.044051
O O12 0.044427 0.769360 0.842554
O O13 0.411872 0.016106 0.713136
#
# Coordination Sequence:
#
# PCOD9259631 Si02
#       7
#     8   8   8   8   8   4   8
#     4  10  18  36  60  92 125 153 192 251 314 369
#     4  11  19  37  66  92 120 159 198 255 321 358
#     4  10  18  35  61  95 122 155 195 247 322 369
#     4  11  20  36  64  98 121 154 202 254 318 360
#     4  11  22  40  65  86 121 173 206 240 300 372
#     4  12  24  46  62  78 128 176 218 236 284 382
#     4  11  25  38  61  94 123 161 207 252 301 362
#
# _framework density 26.857637
#
# number of rings (size 3 to 8) (size 9 to 14) (size 15 to 20)
#    0.000    1.231    9.231    0.923    0.000    1.846 
#    0.000    0.000    0.000    1.846    0.000    0.000 
#    0.000    0.000    0.000    0.000    0.000    0.000 
#
# Total GULP energy -145316.578181 kJ/mol
# GULP energy per Si atom -5589.099161 kJ/mol
# Density = 2.679651 g / cm^3
# Si number density = 26.857637 Si / 1000 Ang^3
#
#
#
# Elastic Constant Matrix: (Units=GPa)
#
#
# Indices 1 2 3 4 5 6 
#
# 1 64.6104 19.2414 30.5962 0.0000 -2.1065 0.0000
# 2 19.2414 55.1503 15.8338 0.0000 18.6762 0.0000
# 3 30.5962 15.8338 231.7660 0.0000 5.6745 0.0000
# 4 0.0000 0.0000 0.0000 42.0593 0.0000 14.8538
# 5 -2.1065 18.6762 5.6745 0.0000 49.4685 0.0000
# 6 0.0000 0.0000 0.0000 14.8538 0.0000 1.9022
#
#
#
# Elastic Compliance Matrix: (Units=1/GPa)
#
#
# Indices 1 2 3 4 5 6 
#
# 1 0.018729 -0.007212 -0.002072 0.000000 0.003758 0.000000
# 2 -0.007212 0.023924 -0.000455 0.000000 -0.009287 0.000000
# 3 -0.002072 -0.000455 0.004630 0.000000 -0.000448 0.000000
# 4 0.000000 0.000000 0.000000 -0.013526 0.000000 0.105623
# 5 0.003758 -0.009287 -0.000448 0.000000 0.023932 0.000000
# 6 0.000000 0.000000 0.000000 0.105623 0.000000 -0.299076
#
#
# Mechanical properties :
#
#
# Convention : Reuss Voigt Hill
#
# Bulk Modulus (GPa) = 35.96406 53.65216 44.80811
# Shear Modulus (GPa) = -23.51383 37.74302 7.11459
#
# Velocity S-wave (km/s) = -2.96209 3.75280 1.62934
# Velocity P-wave (km/s) = 1.31188 6.22879 4.50105
#
# Compressibility (1/GPa) = 0.02780554
#
# Stress axis : x y z
#
# Youngs Moduli (GPa) = 53.39375 41.79884 215.97172
#
# Poissons Ratio (x) = 0.30146 0.44744
# Poissons Ratio (y) = 0.38508 0.09826
# Poissons Ratio (z) = 0.11062 0.01902
#
# Static dielectric constant tensor:
#      x y z
#    x 2.209210 0.000000 -0.073060 
#    y 0.000000 2.121000 0.000000 
#    z -0.073060 0.000000 2.220820 
# 
# From -- ./inp_files/255096.got.cif
#   From: 2010.05.17/outbox.cif.g08.bks.cpg/sg15_128_cif.got.tgz:255096.got - 2010.06.03 18:47:42.
