data_PCOD9259652
_publ_section_title
;
Structure prediction by ZEFSAII (Michael W. Deem and Ramdas Pophale) SiO2 
 PCOD9259652
Probable space group: C 2/C
;
_chemical_formula_sum "Si O2"
_cell_formula_units_Z 64
_cell_length_a 8.809786
_cell_length_b 27.110619
_cell_length_c 14.099443
_cell_angle_alpha 90.000000
_cell_angle_beta 94.066704
_cell_angle_gamma 90.000000
_cell_volume 3359.014568
_symmetry_space_group_name_H-M "C 2/C"
_symmetry_group_IT_number 15
_symmetry_cell_setting 'monoclinic'
loop_
_space_group_symop_operation_xyz
x,y,z
-x,y,1/2-z
-x,-y,-z
x,-y,1/2+z
1/2+x,1/2+y,z
1/2-x,1/2+y,1/2-z
1/2-x,1/2-y,-z
1/2+x,1/2-y,1/2+z
loop_
_atom_site_type_symbol
_atom_site_label
_atom_site_fract_x
_atom_site_fract_y
_atom_site_fract_z
Si Si1 0.197182 0.597789 0.936420
Si Si2 0.377710 0.045411 0.876459
Si Si3 0.064900 0.148405 0.145729
Si Si4 0.165805 0.665078 0.230298
Si Si5 0.903917 0.569425 0.368220
Si Si6 0.780434 0.194729 0.032950
Si Si7 0.256139 0.060766 0.080633
Si Si8 0.656529 0.465599 0.200181
O O1 0.334519 0.575005 0.882290
O O2 0.032081 0.577769 0.891680
O O3 0.197473 0.576731 0.043272
O O4 0.216525 0.655939 0.952790
O O5 0.269531 0.057099 0.784216
O O6 0.419817 0.988648 0.855630
O O7 0.283577 0.045709 0.971514
O O8 0.213455 0.178696 0.184550
O O9 0.123896 0.100068 0.094055
O O10 0.000000 0.136686 0.250000
O O11 0.949982 0.178035 0.073448
O O12 0.167320 0.605289 0.212639
O O13 0.196326 0.686427 0.128699
O O14 0.000000 0.680453 0.250000
O O15 0.077896 0.585469 0.393154
O O16 0.750000 0.250000 0.000000
O O17 0.219415 0.014524 0.148509
O O18 0.500000 0.475414 0.250000
#
# Coordination Sequence:
#
# PCOD9259652 Si02
#       8
#     8   8   8   8   8   8   8   8
#     4  10  21  41  61  82 116 165 212 247 301 378
#     4  11  22  37  61  86 125 179 211 242 295 380
#     4  10  21  37  62  95 124 157 202 264 315 362
#     4  10  19  36  68  97 119 152 209 258 305 369
#     4  10  18  35  62  87 123 166 207 245 296 360
#     4  10  24  45  67  86 120 161 204 268 333 370
#     4  11  20  36  58  90 131 168 211 253 294 363
#     4  12  25  35  52  91 135 168 206 242 306 373
#
# _framework density 19.053207
#
# number of rings (size 3 to 8) (size 9 to 14) (size 15 to 20)
#    0.000    1.500    3.750    2.250    1.750    2.500 
#    0.000    5.000    0.000    0.000    0.000    0.000 
#    0.000    0.000    0.000    0.000    0.000    0.000 
#
# Total GULP energy -178269.158108 kJ/mol
# GULP energy per Si atom -5570.911191 kJ/mol
# Density = 1.900984 g / cm^3
# Si number density = 19.053207 Si / 1000 Ang^3
#
#
#
# Elastic Constant Matrix: (Units=GPa)
#
#
# Indices 1 2 3 4 5 6 
#
# 1 95.3748 36.0760 34.7516 0.0000 -11.3572 0.0000
# 2 36.0760 119.2120 30.3443 0.0000 -0.2031 0.0000
# 3 34.7516 30.3443 99.9275 0.0000 -16.1196 0.0000
# 4 0.0000 0.0000 0.0000 14.7896 0.0000 8.7250
# 5 -11.3572 -0.2031 -16.1196 0.0000 30.4330 0.0000
# 6 0.0000 0.0000 0.0000 8.7250 0.0000 13.0087
#
#
#
# Elastic Compliance Matrix: (Units=1/GPa)
#
#
# Indices 1 2 3 4 5 6 
#
# 1 0.013215 -0.003206 -0.003094 0.000000 0.003271 0.000000
# 2 -0.003206 0.009935 -0.002279 0.000000 -0.002337 0.000000
# 3 -0.003094 -0.002279 0.012669 0.000000 0.005541 0.000000
# 4 0.000000 0.000000 0.000000 0.111885 0.000000 -0.075041
# 5 0.003271 -0.002337 0.005541 0.000000 0.036999 0.000000
# 6 0.000000 0.000000 0.000000 -0.075041 0.000000 0.127202
#
#
# Mechanical properties :
#
#
# Convention : Reuss Voigt Hill
#
# Bulk Modulus (GPa) = 53.59031 57.42867 55.50949
# Shear Modulus (GPa) = 14.91281 25.86910 20.39096
#
# Velocity S-wave (km/s) = 2.80070 3.68874 3.27496
# Velocity P-wave (km/s) = 6.21661 6.95334 6.59527
#
# Compressibility (1/GPa) = 0.01866009
#
# Stress axis : x y z
#
# Youngs Moduli (GPa) = 75.67395 100.65785 78.93161
#
# Poissons Ratio (x) = 0.32269 0.24425
# Poissons Ratio (y) = 0.24259 0.17988
# Poissons Ratio (z) = 0.23417 0.22939
#
# Static dielectric constant tensor:
#      x y z
#    x 1.741720 0.000000 0.005330 
#    y 0.000000 1.659670 0.000000 
#    z 0.005330 0.000000 1.723520 
# 
# From -- ./inp_files/137844.got.cif
#   From: 2010.05.17/outbox.cif.g08.bks.cpg/sg15_69_cif.got.tgz:137844.got - 2010.06.03 18:47:42.
