data_PCOD9259533
_publ_section_title
;
Structure prediction by ZEFSAII (Michael W. Deem and Ramdas Pophale) SiO2 
 PCOD9259533
Probable space group: C 2/C
;
_chemical_formula_sum "Si O2"
_cell_formula_units_Z 56
_cell_length_a 21.480101
_cell_length_b 7.179280
_cell_length_c 21.694896
_cell_angle_alpha 90.000000
_cell_angle_beta 40.447215
_cell_angle_gamma 90.000000
_cell_volume 2170.452577
_symmetry_space_group_name_H-M "C 2/C"
_symmetry_group_IT_number 15
_symmetry_cell_setting 'monoclinic'
loop_
_space_group_symop_operation_xyz
x,y,z
-x,y,1/2-z
-x,-y,-z
x,-y,1/2+z
1/2+x,1/2+y,z
1/2-x,1/2+y,1/2-z
1/2-x,1/2-y,-z
1/2+x,1/2-y,1/2+z
loop_
_atom_site_type_symbol
_atom_site_label
_atom_site_fract_x
_atom_site_fract_y
_atom_site_fract_z
Si Si1 0.303291 0.875221 0.204551
Si Si2 0.051052 0.353802 0.849051
Si Si3 0.335678 0.625482 0.371012
Si Si4 0.710147 0.275162 0.150360
Si Si5 0.994406 0.271994 0.013533
Si Si6 0.493245 0.802105 0.321288
Si Si7 0.809481 0.117243 0.584442
O O1 0.250219 0.887519 0.179663
O O2 0.392271 0.735750 0.122621
O O3 0.239581 0.840616 0.311967
O O4 0.355457 0.065231 0.185838
O O5 0.100708 0.273463 0.751190
O O6 0.999838 0.220896 0.936581
O O7 0.000000 0.500000 0.000000
O O8 0.400035 0.676685 0.381487
O O9 0.412684 0.671602 0.256977
O O10 0.247980 0.758151 0.421188
O O11 0.296589 0.417657 0.400278
O O12 0.723545 0.593968 0.406391
O O13 0.006166 0.460433 0.128066
O O14 0.080880 0.178371 0.985670
O O15 0.500000 0.908160 0.250000
#
# Coordination Sequence:
#
# PCOD9259533 Si02
#       7
#     8   8   8   8   8   8   8
#     4  10  20  33  57  91 129 163 203 256 319 392
#     4  10  18  35  59  88 123 171 207 262 321 381
#     4   9  19  35  55  88 118 161 215 270 309 378
#     4  11  20  33  60  84 126 171 195 258 327 375
#     4  10  21  35  59  96 130 170 210 257 326 395
#     4   8  17  35  54  87 120 147 229 270 303 378
#     4  11  21  38  59  91 131 165 218 253 322 399
#
# _framework density 25.801069999999999
#
# number of rings (size 3 to 8) (size 9 to 14) (size 15 to 20)
#    0.857    1.143    4.286    1.714    2.000    0.571 
#    7.714    0.000    0.000    7.714    0.000    8.000 
#    0.000    0.143    0.000    0.000    0.000    0.000 
#
# Total GULP energy -156214.054828 kJ/mol
# GULP energy per Si atom -5579.073387 kJ/mol
# Density = 2.574235 g / cm^3
# Si number density = 25.801070 Si / 1000 Ang^3
#
#
#
# Elastic Constant Matrix: (Units=GPa)
#
#
# Indices 1 2 3 4 5 6 
#
# 1 108.6248 70.0520 23.2513 -0.0005 -23.4820 -0.0019
# 2 70.0520 141.9982 13.7037 0.0047 -11.6773 -0.0093
# 3 23.2513 13.7037 80.9605 0.0027 -27.1617 -0.0018
# 4 -0.0005 0.0047 0.0027 9.8125 -0.0010 -5.7108
# 5 -23.4820 -11.6773 -27.1617 -0.0010 23.3685 0.0005
# 6 -0.0019 -0.0093 -0.0018 -5.7108 0.0005 41.0111
#
#
#
# Elastic Compliance Matrix: (Units=1/GPa)
#
#
# Indices 1 2 3 4 5 6 
#
# 1 0.016747 -0.007174 0.001390 0.000005 0.014859 0.000000
# 2 -0.007174 0.010417 -0.000615 -0.000005 -0.002718 0.000001
# 3 0.001390 -0.000615 0.020362 -0.000003 0.024757 0.000000
# 4 0.000005 -0.000005 -0.000003 0.110899 0.000005 0.015443
# 5 0.014859 -0.002718 0.024757 0.000005 0.085141 0.000001
# 6 0.000000 0.000001 0.000000 0.015443 0.000001 0.026534
#
#
# Mechanical properties :
#
#
# Convention : Reuss Voigt Hill
#
# Bulk Modulus (GPa) = 28.79464 60.62197 44.70831
# Shear Modulus (GPa) = 16.97933 29.81016 23.39475
#
# Velocity S-wave (km/s) = 2.56810 3.40278 3.01447
# Velocity P-wave (km/s) = 4.46968 6.24384 5.42971
#
# Compressibility (1/GPa) = 0.03472869
#
# Stress axis : x y z
#
# Youngs Moduli (GPa) = 59.71137 95.99362 49.10995
#
# Poissons Ratio (x) = 0.68867 -0.06825
# Poissons Ratio (y) = 0.42838 0.03019
# Poissons Ratio (z) = -0.08298 0.05902
#
# Static dielectric constant tensor:
#      x y z
#    x 2.051660 0.000000 0.044020 
#    y 0.000000 2.079350 0.000000 
#    z 0.044020 0.000000 2.251820 
# 
# From -- ./inp_files/161690.got.cif
#   From: 2010.05.17/outbox.cif.g08.bks.cpg/sg15_81_cif.got.tgz:161690.got - 2010.06.03 18:47:42.
