data_PCOD9259084
_publ_section_title
;
Structure prediction by ZEFSAII (Michael W. Deem and Ramdas Pophale) SiO2 
 PCOD9259084
Probable space group: C 2/C
;
_chemical_formula_sum "Si O2"
_cell_formula_units_Z 56
_cell_length_a 16.810023
_cell_length_b 9.584123
_cell_length_c 25.358005
_cell_angle_alpha 90.000000
_cell_angle_beta 36.757997
_cell_angle_gamma 90.000000
_cell_volume 2444.858857
_symmetry_space_group_name_H-M "C 2/C"
_symmetry_group_IT_number 15
_symmetry_cell_setting 'monoclinic'
loop_
_space_group_symop_operation_xyz
x,y,z
-x,y,1/2-z
-x,-y,-z
x,-y,1/2+z
1/2+x,1/2+y,z
1/2-x,1/2+y,1/2-z
1/2-x,1/2-y,-z
1/2+x,1/2-y,1/2+z
loop_
_atom_site_type_symbol
_atom_site_label
_atom_site_fract_x
_atom_site_fract_y
_atom_site_fract_z
Si Si1 0.248434 0.134531 0.685409
Si Si2 0.957266 0.087466 0.181346
Si Si3 0.906487 0.941126 0.095914
Si Si4 0.694490 0.418057 0.040284
Si Si5 0.615500 0.096171 0.776690
Si Si6 0.620984 0.237881 0.990524
Si Si7 0.508606 0.183978 0.307922
O O1 0.142023 0.009806 0.731258
O O2 0.114075 0.947252 0.600293
O O3 0.339113 0.090056 0.686076
O O4 0.151539 0.261791 0.752547
O O5 0.924939 0.035962 0.138476
O O6 0.192325 0.876102 0.979414
O O7 0.932009 0.246983 0.206124
O O8 0.749386 0.931116 0.171471
O O9 0.830415 0.307375 0.092604
O O10 0.968850 0.786494 0.072106
O O11 0.829574 0.389995 0.999446
O O12 0.595517 0.294887 0.113943
O O13 0.507885 0.979186 0.820609
O O14 0.500000 0.500000 0.000000
O O15 0.500000 0.201569 0.250000
#
# Coordination Sequence:
#
# PCOD9259084 Si02
#       7
#     8   8   8   8   8   8   8
#     4  10  19  36  62  86 115 159 206 248 304 373
#     4   9  20  36  55  88 121 153 197 258 304 354
#     4  10  20  34  59  88 122 163 203 245 305 380
#     4   9  20  36  60  87 115 153 208 252 297 372
#     4  11  22  38  58  91 126 154 201 260 312 364
#     4  10  18  34  59  89 113 151 207 251 297 364
#     4  11  21  38  61  86 114 164 209 248 300 378
#
# _framework density 22.905207999999998
#
# number of rings (size 3 to 8) (size 9 to 14) (size 15 to 20)
#    0.000    2.000    1.429    4.286    0.000    0.000 
#    2.571    4.286    0.000    7.714    0.000    0.000 
#    0.000    0.000    0.000    0.000    0.000    0.000 
#
# Total GULP energy -156182.224623 kJ/mol
# GULP energy per Si atom -5577.936594 kJ/mol
# Density = 2.285307 g / cm^3
# Si number density = 22.905208 Si / 1000 Ang^3
#
#
#
# Elastic Constant Matrix: (Units=GPa)
#
#
# Indices 1 2 3 4 5 6 
#
# 1 43.2522 8.8723 24.5121 0.0000 13.7639 0.0000
# 2 8.8723 104.2659 31.4394 0.0000 4.9978 0.0000
# 3 24.5121 31.4394 113.9237 0.0000 26.5846 0.0000
# 4 0.0000 0.0000 0.0000 38.2413 0.0000 -2.1643
# 5 13.7639 4.9978 26.5846 0.0000 36.2140 0.0000
# 6 0.0000 0.0000 0.0000 -2.1643 0.0000 26.1385
#
#
#
# Elastic Compliance Matrix: (Units=1/GPa)
#
#
# Indices 1 2 3 4 5 6 
#
# 1 0.027977 -0.000802 -0.004034 0.000000 -0.007561 0.000000
# 2 -0.000802 0.010504 -0.002968 0.000000 0.001034 0.000000
# 3 -0.004034 -0.002968 0.012081 0.000000 -0.006926 0.000000
# 4 0.000000 0.000000 0.000000 0.026273 0.000000 0.002175
# 5 -0.007561 0.001034 -0.006926 0.000000 0.035429 0.000000
# 6 0.000000 0.000000 0.000000 0.002175 0.000000 0.038438
#
#
# Mechanical properties :
#
#
# Convention : Reuss Voigt Hill
#
# Bulk Modulus (GPa) = 28.60762 43.45440 36.03101
# Shear Modulus (GPa) = 28.09616 33.22665 30.66140
#
# Velocity S-wave (km/s) = 3.50612 3.81283 3.66269
# Velocity P-wave (km/s) = 5.37654 6.19646 5.80101
#
# Compressibility (1/GPa) = 0.03495572
#
# Stress axis : x y z
#
# Youngs Moduli (GPa) = 35.74368 95.19857 82.77562
#
# Poissons Ratio (x) = 0.07634 0.33390
# Poissons Ratio (y) = 0.02866 0.24564
# Poissons Ratio (z) = 0.14418 0.28250
#
# Static dielectric constant tensor:
#      x y z
#    x 1.943180 0.000000 -0.008950 
#    y 0.000000 1.864720 0.000000 
#    z -0.008950 0.000000 1.971540 
# 
# From -- ./inp_files/312866.got.cif
#   From: 2010.05.17/outbox.cif.g08.bks.cpg/sg15_157_cif.got.tgz:312866.got - 2010.06.03 18:47:42.
