data_PCOD9259245
_publ_section_title
;
Structure prediction by ZEFSAII (Michael W. Deem and Ramdas Pophale) SiO2 
 PCOD9259245
Probable space group: C 2/C
;
_chemical_formula_sum "Si O2"
_cell_formula_units_Z 60
_cell_length_a 21.526683
_cell_length_b 8.174786
_cell_length_c 29.993525
_cell_angle_alpha 90.000000
_cell_angle_beta 147.798023
_cell_angle_gamma 90.000000
_cell_volume 2812.750422
_symmetry_space_group_name_H-M "C 2/C"
_symmetry_group_IT_number 15
_symmetry_cell_setting 'monoclinic'
loop_
_space_group_symop_operation_xyz
x,y,z
-x,y,1/2-z
-x,-y,-z
x,-y,1/2+z
1/2+x,1/2+y,z
1/2-x,1/2+y,1/2-z
1/2-x,1/2-y,-z
1/2+x,1/2-y,1/2+z
loop_
_atom_site_type_symbol
_atom_site_label
_atom_site_fract_x
_atom_site_fract_y
_atom_site_fract_z
Si Si1 0.760655 0.296855 0.215015
Si Si2 0.242154 0.602940 0.881734
Si Si3 0.500000 0.892747 0.250000
Si Si4 0.376458 0.563465 0.787006
Si Si5 0.617081 0.396435 0.942750
Si Si6 0.004548 0.449736 0.353767
Si Si7 0.364820 0.734163 0.684518
Si Si8 0.279023 0.103159 0.983873
O O1 0.706474 0.338453 0.133797
O O2 0.676686 0.333383 0.204804
O O3 0.811159 0.113029 0.246103
O O4 0.870162 0.424062 0.284148
O O5 0.120677 0.703115 0.815524
O O6 0.191757 0.417015 0.849388
O O7 0.327672 0.615873 0.974847
O O8 0.518876 0.982209 0.309432
O O9 0.512721 0.527173 0.877431
O O10 0.360678 0.657771 0.731054
O O11 0.559288 0.227930 0.893971
O O12 0.716427 0.448829 0.968712
O O13 0.082731 0.571756 0.430046
O O14 0.500000 0.723568 0.750000
O O15 0.281329 0.638034 0.599519
O O16 0.250000 0.250000 0.000000
#
# Coordination Sequence:
#
# PCOD9259245 Si02
#       8
#     8   8   4   8   8   8   8   8
#     4  10  25  45  70  92 131 177 223 268 329 392
#     4  11  22  40  65  95 130 173 211 265 326 389
#     4  10  18  34  62  94 126 166 210 250 326 376
#     4  11  25  47  67  97 129 175 225 272 325 396
#     4  11  23  39  64  96 133 168 215 273 330 382
#     4  10  23  39  64  92 131 170 214 272 321 390
#     4  12  24  40  67  99 135 172 220 270 327 390
#     4  12  23  38  60 101 135 169 214 267 336 381
#
# _framework density 21.331433000000001
#
# number of rings (size 3 to 8) (size 9 to 14) (size 15 to 20)
#    0.000    1.067    4.667    1.200    3.733    3.733 
#    1.200    0.667    0.000    0.000    0.000    0.000 
#    0.000    0.000    0.000    0.000    0.000    0.000 
#
# Total GULP energy -167697.336947 kJ/mol
# GULP energy per Si atom -5589.911232 kJ/mol
# Density = 2.128288 g / cm^3
# Si number density = 21.331433 Si / 1000 Ang^3
#
#
#
# Elastic Constant Matrix: (Units=GPa)
#
#
# Indices 1 2 3 4 5 6 
#
# 1 113.8231 17.1709 40.8360 0.0000 -26.7608 -0.0001
# 2 17.1709 57.5997 19.4001 0.0000 -6.7430 -0.0002
# 3 40.8360 19.4001 147.8107 0.0000 -32.4373 0.0000
# 4 0.0000 0.0000 0.0000 37.8479 0.0000 -3.5081
# 5 -26.7608 -6.7430 -32.4373 0.0000 35.8979 0.0000
# 6 -0.0001 -0.0002 0.0000 -3.5081 0.0000 28.4910
#
#
#
# Elastic Compliance Matrix: (Units=1/GPa)
#
#
# Indices 1 2 3 4 5 6 
#
# 1 0.011160 -0.002091 -0.001334 0.000000 0.006721 0.000000
# 2 -0.002091 0.018627 -0.001798 0.000000 0.000316 0.000000
# 3 -0.001334 -0.001798 0.008828 0.000000 0.006645 0.000000
# 4 0.000000 0.000000 0.000000 0.026727 0.000000 0.003291
# 5 0.006721 0.000316 0.006645 0.000000 0.038931 0.000000
# 6 0.000000 0.000000 0.000000 0.003291 0.000000 0.035504
#
#
# Mechanical properties :
#
#
# Convention : Reuss Voigt Hill
#
# Bulk Modulus (GPa) = 35.49859 52.67197 44.08528
# Shear Modulus (GPa) = 31.32612 36.56914 33.94763
#
# Velocity S-wave (km/s) = 3.83631 4.14494 3.99361
# Velocity P-wave (km/s) = 6.02500 6.90313 6.47896
#
# Compressibility (1/GPa) = 0.02817014
#
# Stress axis : x y z
#
# Youngs Moduli (GPa) = 89.60814 53.68563 113.27419
#
# Poissons Ratio (x) = 0.11224 0.15107
# Poissons Ratio (y) = 0.18735 0.20365
# Poissons Ratio (z) = 0.11951 0.09652
#
# Static dielectric constant tensor:
#      x y z
#    x 1.802240 0.000000 0.039820 
#    y 0.000000 1.873800 0.000000 
#    z 0.039820 0.000000 1.775850 
# 
# From -- ./inp_files/213869.got.cif
#   From: 2010.05.17/outbox.cif.g08.bks.cpg/sg15_107_cif.got.tgz:213869.got - 2010.06.03 18:47:42.
