data_PCOD9259010
_publ_section_title
;
Structure prediction by ZEFSAII (Michael W. Deem and Ramdas Pophale) SiO2 
 PCOD9259010
Probable space group: C 2/C
;
_chemical_formula_sum "Si O2"
_cell_formula_units_Z 60
_cell_length_a 8.307492
_cell_length_b 10.783785
_cell_length_c 26.399890
_cell_angle_alpha 90.000000
_cell_angle_beta 71.750666
_cell_angle_gamma 90.000000
_cell_volume 2246.109748
_symmetry_space_group_name_H-M "C 2/C"
_symmetry_group_IT_number 15
_symmetry_cell_setting 'monoclinic'
loop_
_space_group_symop_operation_xyz
x,y,z
-x,y,1/2-z
-x,-y,-z
x,-y,1/2+z
1/2+x,1/2+y,z
1/2-x,1/2+y,1/2-z
1/2-x,1/2-y,-z
1/2+x,1/2-y,1/2+z
loop_
_atom_site_type_symbol
_atom_site_label
_atom_site_fract_x
_atom_site_fract_y
_atom_site_fract_z
Si Si1 0.259933 0.303548 0.114474
Si Si2 0.210873 0.819592 0.277719
Si Si3 0.639824 0.032030 0.923062
Si Si4 0.000000 0.521406 0.250000
Si Si5 0.587144 0.924713 0.629865
Si Si6 0.927546 0.223082 0.455956
Si Si7 0.179487 0.195458 0.670221
Si Si8 0.383507 0.361863 0.475636
O O1 0.250379 0.256006 0.172822
O O2 0.180341 0.442934 0.120444
O O3 0.133805 0.214126 0.095694
O O4 0.450258 0.326000 0.074314
O O5 0.332538 0.937859 0.265198
O O6 0.239516 0.760109 0.219690
O O7 0.012844 0.849180 0.303503
O O8 0.522574 0.924293 0.911135
O O9 0.517594 0.143228 0.951974
O O10 0.721978 0.080778 0.862693
O O11 0.777624 0.034076 0.954694
O O12 0.999154 0.586021 0.305235
O O13 0.699859 0.801865 0.625612
O O14 0.750000 0.250000 0.500000
O O15 0.034811 0.122141 0.476324
O O16 0.250000 0.250000 0.500000
#
# Coordination Sequence:
#
# PCOD9259010 Si02
#       8
#     8   8   8   4   8   8   8   8
#     4   9  17  33  56  87 113 155 194 238 299 358
#     4  10  20  33  58  82 118 155 199 238 297 362
#     4  10  18  34  58  84 114 154 195 235 300 349
#     4  10  18  36  56  80 114 160 186 246 298 342
#     4  10  21  35  57  80 122 154 193 239 297 351
#     4   8  16  30  56  87 109 148 198 237 298 361
#     4  11  21  36  55  86 119 158 198 243 291 363
#     4   9  16  30  58  87 110 146 198 247 294 360
#
# _framework density 26.712852999999999
#
# number of rings (size 3 to 8) (size 9 to 14) (size 15 to 20)
#    0.000    2.400    2.667    0.800    0.000    0.000 
#    0.000    1.333    2.933   25.600    0.000    0.000 
#    0.000    0.000    0.000    0.000    0.000    0.000 
#
# Total GULP energy -167567.725493 kJ/mol
# GULP energy per Si atom -5585.590850 kJ/mol
# Density = 2.665205 g / cm^3
# Si number density = 26.712853 Si / 1000 Ang^3
#
#
#
# Elastic Constant Matrix: (Units=GPa)
#
#
# Indices 1 2 3 4 5 6 
#
# 1 131.7830 33.2601 63.0614 0.0000 36.4238 0.0000
# 2 33.2601 79.9764 17.2074 0.0000 4.0274 0.0000
# 3 63.0614 17.2074 151.1994 0.0000 36.6254 0.0000
# 4 0.0000 0.0000 0.0000 33.4725 0.0000 13.9748
# 5 36.4238 4.0274 36.6254 0.0000 75.8641 0.0000
# 6 0.0000 0.0000 0.0000 13.9748 0.0000 34.6380
#
#
#
# Elastic Compliance Matrix: (Units=1/GPa)
#
#
# Indices 1 2 3 4 5 6 
#
# 1 0.011104 -0.003719 -0.003357 0.000000 -0.003513 0.000000
# 2 -0.003719 0.014063 -0.000341 0.000000 0.001204 0.000000
# 3 -0.003357 -0.000341 0.008672 0.000000 -0.002557 0.000000
# 4 0.000000 0.000000 0.000000 0.035927 0.000000 -0.014495
# 5 -0.003513 0.001204 -0.002557 0.000000 0.016039 0.000000
# 6 0.000000 0.000000 0.000000 -0.014495 0.000000 0.034718
#
#
# Mechanical properties :
#
#
# Convention : Reuss Voigt Hill
#
# Bulk Modulus (GPa) = 52.61580 65.55740 59.08660
# Shear Modulus (GPa) = 35.28789 45.42357 40.35573
#
# Velocity S-wave (km/s) = 3.63851 4.12811 3.89102
# Velocity P-wave (km/s) = 6.11484 6.87870 6.50799
#
# Compressibility (1/GPa) = 0.01900570
#
# Stress axis : x y z
#
# Youngs Moduli (GPa) = 90.05552 71.10864 115.31273
#
# Poissons Ratio (x) = 0.26444 0.38711
# Poissons Ratio (y) = 0.33489 0.03932
# Poissons Ratio (z) = 0.30232 0.02425
#
# Static dielectric constant tensor:
#      x y z
#    x 2.159510 0.000000 0.039230 
#    y 0.000000 2.137530 0.000000 
#    z 0.039230 0.000000 2.146180 
# 
# From -- ./inp_files/288406.got.cif
#   From: 2010.05.17/outbox.cif.g08.bks.cpg/sg15_145_cif.got.tgz:288406.got - 2010.06.03 18:47:42.
