data_PCOD9259770
_publ_section_title
;
Structure prediction by ZEFSAII (Michael W. Deem and Ramdas Pophale) SiO2 
 PCOD9259770
Probable space group: C 2/C
;
_chemical_formula_sum "Si O2"
_cell_formula_units_Z 60
_cell_length_a 18.701987
_cell_length_b 19.330927
_cell_length_c 9.248849
_cell_angle_alpha 90.000000
_cell_angle_beta 106.503487
_cell_angle_gamma 90.000000
_cell_volume 3205.953765
_symmetry_space_group_name_H-M "C 2/C"
_symmetry_group_IT_number 15
_symmetry_cell_setting 'monoclinic'
loop_
_space_group_symop_operation_xyz
x,y,z
-x,y,1/2-z
-x,-y,-z
x,-y,1/2+z
1/2+x,1/2+y,z
1/2-x,1/2+y,1/2-z
1/2-x,1/2-y,-z
1/2+x,1/2-y,1/2+z
loop_
_atom_site_type_symbol
_atom_site_label
_atom_site_fract_x
_atom_site_fract_y
_atom_site_fract_z
Si Si1 0.539959 0.812827 0.407269
Si Si2 0.721657 0.675897 0.413481
Si Si3 0.232587 0.266815 0.154977
Si Si4 0.620021 0.313160 0.100172
Si Si5 0.500000 0.302647 0.250000
Si Si6 0.586701 0.950161 0.761558
Si Si7 0.086916 0.679993 0.455258
Si Si8 0.644132 0.070357 0.973232
O O1 0.500000 0.775523 0.250000
O O2 0.590172 0.761804 0.530771
O O3 0.519589 0.844287 0.017180
O O4 0.589076 0.873440 0.371135
O O5 0.750000 0.750000 0.500000
O O6 0.714117 0.700055 0.243422
O O7 0.648849 0.655294 0.465004
O O8 0.780244 0.613703 0.461551
O O9 0.304808 0.304385 0.262878
O O10 0.157991 0.311439 0.098188
O O11 0.250000 0.250000 0.000000
O O12 0.552421 0.340746 0.161824
O O13 0.557640 0.252069 0.369140
O O14 0.500000 0.967896 0.750000
O O15 0.608006 0.949461 0.606428
O O16 0.599704 0.873920 0.835062
O O17 0.641716 0.003121 0.873685
#
# Coordination Sequence:
#
# PCOD9259770 Si02
#       8
#     8   8   8   8   4   8   8   8
#     4  11  21  34  54  79 110 159 203 241 284 338
#     4  10  21  37  56  77 110 151 203 254 293 343
#     4  11  19  32  55  80 111 158 194 242 303 346
#     4  10  20  36  54  79 112 147 198 247 296 355
#     4  10  18  36  54  82 118 154 192 240 286 362
#     4  12  24  39  54  81 122 168 208 243 263 342
#     4  11  21  32  55  80 119 159 202 235 286 336
#     4  12  24  38  54  78 115 158 213 239 282 330
#
# _framework density 18.715181000000001
#
# number of rings (size 3 to 8) (size 9 to 14) (size 15 to 20)
#    0.000    1.067    6.000    3.200    3.733    0.000 
#    0.000    0.000    0.000    0.000    0.000    0.000 
#    0.000    4.267    7.867    4.400    0.267    0.000 
#
# Total GULP energy -167250.128112 kJ/mol
# GULP energy per Si atom -5575.004270 kJ/mol
# Density = 1.867258 g / cm^3
# Si number density = 18.715181 Si / 1000 Ang^3
#
#
#
# Elastic Constant Matrix: (Units=GPa)
#
#
# Indices 1 2 3 4 5 6 
#
# 1 104.5839 20.5516 31.7253 0.0000 -17.3618 0.0000
# 2 20.5516 29.4689 16.7266 0.0000 1.5014 0.0000
# 3 31.7253 16.7266 98.3184 0.0000 -6.6829 0.0000
# 4 0.0000 0.0000 0.0000 26.9430 0.0000 6.7639
# 5 -17.3618 1.5014 -6.6829 0.0000 42.7226 0.0000
# 6 0.0000 0.0000 0.0000 6.7639 0.0000 14.4132
#
#
#
# Elastic Compliance Matrix: (Units=1/GPa)
#
#
# Indices 1 2 3 4 5 6 
#
# 1 0.012646 -0.007697 -0.002429 0.000000 0.005030 0.000000
# 2 -0.007697 0.042479 -0.005112 0.000000 -0.005420 0.000000
# 3 -0.002429 -0.005112 0.011896 0.000000 0.001053 0.000000
# 4 0.000000 0.000000 0.000000 0.042072 0.000000 -0.019744
# 5 0.005030 -0.005420 0.001053 0.000000 0.025806 0.000000
# 6 0.000000 0.000000 0.000000 -0.019744 0.000000 0.078646
#
#
# Mechanical properties :
#
#
# Convention : Reuss Voigt Hill
#
# Bulk Modulus (GPa) = 27.36277 41.15313 34.25795
# Shear Modulus (GPa) = 19.51576 27.70696 23.61136
#
# Velocity S-wave (km/s) = 3.23271 3.85184 3.55578
# Velocity P-wave (km/s) = 5.34661 6.46677 5.93319
#
# Compressibility (1/GPa) = 0.03654600
#
# Stress axis : x y z
#
# Youngs Moduli (GPa) = 79.07609 23.54090 84.06074
#
# Poissons Ratio (x) = 0.18119 0.20421
# Poissons Ratio (y) = 0.60862 0.42970
# Poissons Ratio (z) = 0.19210 0.12033
#
# Static dielectric constant tensor:
#      x y z
#    x 1.766510 0.000000 -0.024380 
#    y 0.000000 1.639670 0.000000 
#    z -0.024380 0.000000 1.700450 
# 
# From -- ./inp_files/56685.got.cif
#   From: 2010.05.17/outbox.cif.g08.bks.cpg/sg15_29_cif.got.tgz:56685.got - 2010.06.03 18:47:42.
