data_PCOD9259034
_publ_section_title
;
Structure prediction by ZEFSAII (Michael W. Deem and Ramdas Pophale) SiO2 
 PCOD9259034
Probable space group: C 2/C
;
_chemical_formula_sum "Si O2"
_cell_formula_units_Z 44
_cell_length_a 13.266081
_cell_length_b 9.446164
_cell_length_c 14.200426
_cell_angle_alpha 90.000000
_cell_angle_beta 67.470323
_cell_angle_gamma 90.000000
_cell_volume 1643.696386
_symmetry_space_group_name_H-M "C 2/C"
_symmetry_group_IT_number 15
_symmetry_cell_setting 'monoclinic'
loop_
_space_group_symop_operation_xyz
x,y,z
-x,y,1/2-z
-x,-y,-z
x,-y,1/2+z
1/2+x,1/2+y,z
1/2-x,1/2+y,1/2-z
1/2-x,1/2-y,-z
1/2+x,1/2-y,1/2+z
loop_
_atom_site_type_symbol
_atom_site_label
_atom_site_fract_x
_atom_site_fract_y
_atom_site_fract_z
Si Si1 0.672059 0.536659 0.048552
Si Si2 0.250945 0.703773 0.627375
Si Si3 0.992604 0.659786 0.037696
Si Si4 0.708708 0.590245 0.711043
Si Si5 0.954084 0.141281 0.161155
Si Si6 0.500000 0.782935 0.750000
O O1 0.679866 0.697051 0.087261
O O2 0.742241 0.442214 0.093115
O O3 0.542904 0.515715 0.100102
O O4 0.724934 0.553502 0.929847
O O5 0.367530 0.782709 0.589602
O O6 0.209488 0.660362 0.745088
O O7 0.027490 0.652398 0.136249
O O8 0.000000 0.500000 0.000000
O O9 0.043537 0.760390 0.934625
O O10 0.655895 0.446140 0.772444
O O11 0.607072 0.692538 0.733758
O O12 0.000000 0.190865 0.250000
#
# Coordination Sequence:
#
# PCOD9259034 Si02
#       6
#     8   8   8   8   8   4
#     4   9  17  35  52  79 109 140 179 224 283 330
#     4   9  20  34  55  80 109 149 176 233 287 326
#     4  10  22  36  53  80 117 148 185 230 285 347
#     4  10  18  34  58  88 104 139 195 239 271 336
#     4   9  18  34  60  82 103 147 190 231 277 331
#     4  10  20  34  58  86 102 144 194 242 278 314
#
# _framework density 26.768933000000001
#
# number of rings (size 3 to 8) (size 9 to 14) (size 15 to 20)
#    0.000    2.545    2.727    0.000    3.818    2.182 
#    6.545    5.455    0.000    2.182    0.000    0.000 
#    0.000    0.000    0.000    0.000    0.000    0.000 
#
# Total GULP energy -122525.032836 kJ/mol
# GULP energy per Si atom -5569.319674 kJ/mol
# Density = 2.670801 g / cm^3
# Si number density = 26.768933 Si / 1000 Ang^3
#
#
#
# Elastic Constant Matrix: (Units=GPa)
#
#
# Indices 1 2 3 4 5 6 
#
# 1 30.2645 1.6901 19.6336 0.0000 2.8632 0.0000
# 2 1.6901 78.9352 72.6421 0.0000 31.8607 0.0000
# 3 19.6336 72.6421 200.3955 0.0000 26.5335 0.0000
# 4 0.0000 0.0000 0.0000 43.4146 0.0000 12.3605
# 5 2.8632 31.8607 26.5335 0.0000 48.3067 0.0000
# 6 0.0000 0.0000 0.0000 12.3605 0.0000 25.7622
#
#
#
# Elastic Compliance Matrix: (Units=1/GPa)
#
#
# Indices 1 2 3 4 5 6 
#
# 1 0.036237 0.004846 -0.004960 0.000000 -0.002620 0.000000
# 2 0.004846 0.024711 -0.007804 0.000000 -0.012299 0.000000
# 3 -0.004960 -0.007804 0.008179 0.000000 0.000948 0.000000
# 4 0.000000 0.000000 0.000000 0.026678 0.000000 -0.012800
# 5 -0.002620 -0.012299 0.000948 0.000000 0.028447 0.000000
# 6 0.000000 0.000000 0.000000 -0.012800 0.000000 0.044958
#
#
# Mechanical properties :
#
#
# Convention : Reuss Voigt Hill
#
# Bulk Modulus (GPa) = 18.76470 55.28074 37.02272
# Shear Modulus (GPa) = 24.65371 37.87200 31.26286
#
# Velocity S-wave (km/s) = 3.03806 3.76543 3.42113
# Velocity P-wave (km/s) = 4.39676 6.29289 5.42826
#
# Compressibility (1/GPa) = 0.05329154
#
# Stress axis : x y z
#
# Youngs Moduli (GPa) = 27.59607 40.46836 122.25863
#
# Poissons Ratio (x) = -0.19612 0.60642
# Poissons Ratio (y) = -0.13374 0.95409
# Poissons Ratio (z) = 0.13688 0.31581
#
# Static dielectric constant tensor:
#      x y z
#    x 2.123450 0.000000 -0.034350 
#    y 0.000000 2.153650 0.000000 
#    z -0.034350 0.000000 2.289410 
# 
# From -- ./inp_files/165707.got.cif
#   From: 2010.05.17/outbox.cif.g08.bks.cpg/sg15_83_cif.got.tgz:165707.got - 2010.06.03 18:47:42.
