data_PCOD9259139
_publ_section_title
;
Structure prediction by ZEFSAII (Michael W. Deem and Ramdas Pophale) SiO2 
 PCOD9259139
Probable space group: C 2/C
;
_chemical_formula_sum "Si O2"
_cell_formula_units_Z 60
_cell_length_a 18.558476
_cell_length_b 8.726428
_cell_length_c 14.177763
_cell_angle_alpha 90.000000
_cell_angle_beta 92.169232
_cell_angle_gamma 90.000000
_cell_volume 2294.432041
_symmetry_space_group_name_H-M "C 2/C"
_symmetry_group_IT_number 15
_symmetry_cell_setting 'monoclinic'
loop_
_space_group_symop_operation_xyz
x,y,z
-x,y,1/2-z
-x,-y,-z
x,-y,1/2+z
1/2+x,1/2+y,z
1/2-x,1/2+y,1/2-z
1/2-x,1/2-y,-z
1/2+x,1/2-y,1/2+z
loop_
_atom_site_type_symbol
_atom_site_label
_atom_site_fract_x
_atom_site_fract_y
_atom_site_fract_z
Si Si1 0.895012 0.873721 0.009137
Si Si2 0.718856 0.265829 0.373687
Si Si3 0.000000 0.448023 0.250000
Si Si4 0.569666 0.027859 0.442115
Si Si5 0.642947 0.118745 0.690493
Si Si6 0.705171 0.898577 0.395659
Si Si7 0.843646 0.255233 0.835509
Si Si8 0.973132 0.961308 0.354152
O O1 0.816837 0.884559 0.054211
O O2 0.907028 0.694363 0.025420
O O3 0.954666 0.952624 0.079969
O O4 0.916204 0.931193 0.906922
O O5 0.803342 0.297601 0.375964
O O6 0.713804 0.082550 0.385742
O O7 0.681831 0.300401 0.270556
O O8 0.952725 0.534701 0.169504
O O9 0.941993 0.355395 0.307579
O O10 0.633047 0.900921 0.457795
O O11 0.500000 0.000000 0.500000
O O12 0.673130 0.161706 0.795054
O O13 0.655169 0.938617 0.670136
O O14 0.782668 0.814231 0.404169
O O15 0.925128 0.194442 0.851989
O O16 0.000000 0.997255 0.250000
#
# Coordination Sequence:
#
# PCOD9259139 Si02
#       8
#     8   8   4   8   8   8   8   8
#     4  10  22  40  63  92 121 162 208 259 313 366
#     4   9  17  37  60  84 123 162 206 255 306 368
#     4  10  20  38  66  92 116 172 216 246 312 368
#     4  10  21  42  63  89 123 164 209 257 306 374
#     4   9  18  32  62  89 114 159 214 255 297 367
#     4   8  18  35  58  85 123 158 199 257 315 366
#     4  10  18  34  60  89 117 161 206 252 315 366
#     4  11  22  39  63  91 124 160 206 259 312 374
#
# _framework density 26.150262000000001
#
# number of rings (size 3 to 8) (size 9 to 14) (size 15 to 20)
#    0.000    2.400    1.333    1.600    1.867    0.000 
#   10.800    3.333    0.000    0.000    0.000    0.000 
#    0.000    0.000    0.000    0.000    0.000    0.000 
#
# Total GULP energy -167704.751774 kJ/mol
# GULP energy per Si atom -5590.158392 kJ/mol
# Density = 2.609074 g / cm^3
# Si number density = 26.150262 Si / 1000 Ang^3
#
#
#
# Elastic Constant Matrix: (Units=GPa)
#
#
# Indices 1 2 3 4 5 6 
#
# 1 162.1566 16.8057 33.7615 0.0000 -51.1870 0.0000
# 2 16.8057 30.7050 -3.3486 0.0000 -16.9716 0.0000
# 3 33.7615 -3.3486 107.9051 0.0000 -18.1500 0.0000
# 4 0.0000 0.0000 0.0000 25.8585 0.0000 -5.4712
# 5 -51.1870 -16.9716 -18.1500 0.0000 60.4555 0.0000
# 6 0.0000 0.0000 0.0000 -5.4712 0.0000 35.9942
#
#
#
# Elastic Compliance Matrix: (Units=1/GPa)
#
#
# Indices 1 2 3 4 5 6 
#
# 1 0.008704 -0.001362 -0.001675 0.000000 0.006484 0.000000
# 2 -0.001362 0.039825 0.003527 0.000000 0.011085 0.000000
# 3 -0.001675 0.003527 0.010352 0.000000 0.002680 0.000000
# 4 0.000000 0.000000 0.000000 0.039957 0.000000 0.006074
# 5 0.006484 0.011085 0.002680 0.000000 0.025947 0.000000
# 6 0.000000 0.000000 0.000000 0.006074 0.000000 0.028705
#
#
# Mechanical properties :
#
#
# Convention : Reuss Voigt Hill
#
# Bulk Modulus (GPa) = 16.70578 43.91153 30.30866
# Shear Modulus (GPa) = 28.99142 41.36485 35.17814
#
# Velocity S-wave (km/s) = 3.33325 3.98152 3.67172
# Velocity P-wave (km/s) = 4.60612 6.16158 5.43973
#
# Compressibility (1/GPa) = 0.05985953
#
# Stress axis : x y z
#
# Youngs Moduli (GPa) = 114.89617 25.10955 96.60317
#
# Poissons Ratio (x) = 0.03421 0.16180
# Poissons Ratio (y) = 0.15655 -0.34070
# Poissons Ratio (z) = 0.19243 -0.08856
#
# Static dielectric constant tensor:
#      x y z
#    x 2.263550 0.000000 -0.192840 
#    y 0.000000 2.040130 0.000000 
#    z -0.192840 0.000000 2.362410 
# 
# From -- ./inp_files/160902.got.cif
#   From: 2010.05.17/outbox.cif.g08.bks.cpg/sg15_81_cif.got.tgz:160902.got - 2010.06.03 18:47:42.
