data_PCOD9259172
_publ_section_title
;
Structure prediction by ZEFSAII (Michael W. Deem and Ramdas Pophale) SiO2 
 PCOD9259172
Probable space group: C 2/C
;
_chemical_formula_sum "Si O2"
_cell_formula_units_Z 56
_cell_length_a 15.591091
_cell_length_b 16.222924
_cell_length_c 12.970213
_cell_angle_alpha 90.000000
_cell_angle_beta 119.794361
_cell_angle_gamma 90.000000
_cell_volume 2846.948303
_symmetry_space_group_name_H-M "C 2/C"
_symmetry_group_IT_number 15
_symmetry_cell_setting 'monoclinic'
loop_
_space_group_symop_operation_xyz
x,y,z
-x,y,1/2-z
-x,-y,-z
x,-y,1/2+z
1/2+x,1/2+y,z
1/2-x,1/2+y,1/2-z
1/2-x,1/2-y,-z
1/2+x,1/2-y,1/2+z
loop_
_atom_site_type_symbol
_atom_site_label
_atom_site_fract_x
_atom_site_fract_y
_atom_site_fract_z
Si Si1 0.469207 0.600727 0.112614
Si Si2 0.644468 0.052215 0.088443
Si Si3 0.091092 0.564052 0.725926
Si Si4 0.330858 0.397847 0.838657
Si Si5 0.883541 0.263383 0.003175
Si Si6 0.735032 0.499514 0.528281
Si Si7 0.327678 0.232390 0.713185
O O1 0.500000 0.616282 0.250000
O O2 0.565308 0.556335 0.121814
O O3 0.455553 0.685254 0.039939
O O4 0.364106 0.553180 0.050789
O O5 0.741103 0.071714 0.214507
O O6 0.576546 0.000410 0.125302
O O7 0.603082 0.140420 0.021953
O O8 0.692771 0.997704 0.026538
O O9 0.193058 0.543826 0.846809
O O10 0.114255 0.656005 0.703717
O O11 0.000000 0.561003 0.750000
O O12 0.299449 0.415352 0.937270
O O13 0.344040 0.307317 0.800340
O O14 0.865185 0.263162 0.116383
O O15 0.789202 0.233086 0.880221
#
# Coordination Sequence:
#
# PCOD9259172 Si02
#       7
#     8   8   8   8   8   8   8
#     4  12  19  33  61  95 121 157 201 247 298 357
#     4  10  21  40  59  88 125 160 199 248 302 363
#     4  11  24  38  62  89 119 160 206 250 303 355
#     4  10  22  33  60  92 119 160 198 245 304 357
#     4  10  18  34  61  85 120 152 196 257 297 330
#     4  11  21  40  55  86 132 157 194 252 301 357
#     4  10  18  36  56  88 116 150 204 248 292 349
#
# _framework density 19.670183999999999
#
# number of rings (size 3 to 8) (size 9 to 14) (size 15 to 20)
#    0.000    1.429    5.714    1.286    2.000    0.571 
#    0.000    0.714    0.000    3.429    0.000    0.000 
#    0.000    0.000    0.000    0.000    0.000    0.000 
#
# Total GULP energy -155869.749920 kJ/mol
# GULP energy per Si atom -5566.776783 kJ/mol
# Density = 1.962541 g / cm^3
# Si number density = 19.670184 Si / 1000 Ang^3
#
#
#
# Elastic Constant Matrix: (Units=GPa)
#
#
# Indices 1 2 3 4 5 6 
#
# 1 59.6961 45.5133 32.8973 0.0000 -8.7015 0.0000
# 2 45.5133 96.4586 50.2662 0.0000 -17.9644 0.0000
# 3 32.8973 50.2662 96.8090 0.0000 12.7200 0.0000
# 4 0.0000 0.0000 0.0000 24.2239 0.0000 -9.6061
# 5 -8.7015 -17.9644 12.7200 0.0000 40.3930 0.0000
# 6 0.0000 0.0000 0.0000 -9.6061 0.0000 13.8147
#
#
#
# Elastic Compliance Matrix: (Units=1/GPa)
#
#
# Indices 1 2 3 4 5 6 
#
# 1 0.027241 -0.010031 -0.004416 0.000000 0.002798 0.000000
# 2 -0.010031 0.021952 -0.009376 0.000000 0.010555 0.000000
# 3 -0.004416 -0.009376 0.018121 0.000000 -0.010828 0.000000
# 4 0.000000 0.000000 0.000000 0.056998 0.000000 0.039634
# 5 0.002798 0.010555 -0.010828 0.000000 0.033463 0.000000
# 6 0.000000 0.000000 0.000000 0.039634 0.000000 0.099946
#
#
# Mechanical properties :
#
#
# Convention : Reuss Voigt Hill
#
# Bulk Modulus (GPa) = 50.84530 56.70192 53.77361
# Shear Modulus (GPa) = 16.02954 23.97213 20.00084
#
# Velocity S-wave (km/s) = 2.85777 3.49478 3.19220
# Velocity P-wave (km/s) = 6.06582 6.72113 6.40186
#
# Compressibility (1/GPa) = 0.01966750
#
# Stress axis : x y z
#
# Youngs Moduli (GPa) = 36.70977 45.55379 55.18343
#
# Poissons Ratio (x) = 0.45695 0.24369
# Poissons Ratio (y) = 0.36824 0.51741
# Poissons Ratio (z) = 0.16211 0.42712
#
# Static dielectric constant tensor:
#      x y z
#    x 1.760850 0.000000 0.030800 
#    y 0.000000 1.778250 0.000000 
#    z 0.030800 0.000000 1.720400 
# 
# From -- ./inp_files/98830.got.cif
#   From: 2010.05.17/outbox.cif.g08.bks.cpg/sg15_50_cif.got.tgz:98830.got - 2010.06.03 18:47:42.
