data_PCOD9259224
_publ_section_title
;
Structure prediction by ZEFSAII (Michael W. Deem and Ramdas Pophale) SiO2 
 PCOD9259224
Probable space group: C 2/C
;
_chemical_formula_sum "Si O2"
_cell_formula_units_Z 64
_cell_length_a 28.979107
_cell_length_b 11.285188
_cell_length_c 18.179448
_cell_angle_alpha 90.000000
_cell_angle_beta 146.925403
_cell_angle_gamma 90.000000
_cell_volume 3244.536832
_symmetry_space_group_name_H-M "C 2/C"
_symmetry_group_IT_number 15
_symmetry_cell_setting 'monoclinic'
loop_
_space_group_symop_operation_xyz
x,y,z
-x,y,1/2-z
-x,-y,-z
x,-y,1/2+z
1/2+x,1/2+y,z
1/2-x,1/2+y,1/2-z
1/2-x,1/2-y,-z
1/2+x,1/2-y,1/2+z
loop_
_atom_site_type_symbol
_atom_site_label
_atom_site_fract_x
_atom_site_fract_y
_atom_site_fract_z
Si Si1 0.191293 0.366990 0.411484
Si Si2 0.791285 0.463701 0.319892
Si Si3 0.125622 0.064862 0.502443
Si Si4 0.372118 0.218855 0.817079
Si Si5 0.809611 0.672462 0.432828
Si Si6 0.303177 0.589953 0.516957
Si Si7 0.968464 0.126163 0.985525
Si Si8 0.796698 0.182630 0.672674
O O1 0.250000 0.250000 0.500000
O O2 0.125095 0.338064 0.260245
O O3 0.161081 0.389963 0.453252
O O4 0.243737 0.476811 0.451358
O O5 0.703301 0.479699 0.157946
O O6 0.848340 0.377818 0.346519
O O7 0.831866 0.590019 0.393801
O O8 0.766345 0.400215 0.363592
O O9 0.155520 0.194969 0.517018
O O10 0.046937 0.097708 0.448754
O O11 0.122094 0.967511 0.432987
O O12 0.292466 0.310372 0.708573
O O13 0.458929 0.284896 0.941852
O O14 0.251341 0.692704 0.405006
O O15 0.321182 0.636688 0.623468
O O16 0.881587 0.175631 0.834697
O O17 0.000000 0.000000 0.000000
#
# Coordination Sequence:
#
# PCOD9259224 Si02
#       8
#     8   8   8   8   8   8   8   8
#     4  10  18  34  62  89 117 155 206 261 303 348
#     4  10  19  33  60  91 115 156 209 260 291 365
#     4  10  22  35  63  91 114 160 210 258 301 365
#     4  10  21  35  59  89 125 162 197 256 320 362
#     4  10  19  36  63  90 113 155 217 261 297 351
#     4  11  20  40  63  93 117 157 215 261 296 357
#     4  11  25  41  59  92 131 166 199 248 322 382
#     4  10  24  37  63  90 125 160 206 256 309 367
#
# _framework density 19.725465
#
# number of rings (size 3 to 8) (size 9 to 14) (size 15 to 20)
#    0.000    1.750    5.000    1.500    8.750    0.000 
#    0.000    5.000    0.000    0.000    0.000    0.000 
#    0.000    0.000    0.000    0.000    0.000    0.000 
#
# Total GULP energy -178293.489928 kJ/mol
# GULP energy per Si atom -5571.671560 kJ/mol
# Density = 1.968057 g / cm^3
# Si number density = 19.725465 Si / 1000 Ang^3
#
#
#
# Elastic Constant Matrix: (Units=GPa)
#
#
# Indices 1 2 3 4 5 6 
#
# 1 94.8888 30.5862 29.6547 0.0000 -16.3364 0.0000
# 2 30.5862 77.8647 19.7883 0.0000 -11.2156 0.0000
# 3 29.6547 19.7883 28.1334 0.0000 -5.5862 0.0000
# 4 0.0000 0.0000 0.0000 16.7641 0.0000 -13.3375
# 5 -16.3364 -11.2156 -5.5862 0.0000 28.9587 0.0000
# 6 0.0000 0.0000 0.0000 -13.3375 0.0000 30.7344
#
#
#
# Elastic Compliance Matrix: (Units=1/GPa)
#
#
# Indices 1 2 3 4 5 6 
#
# 1 0.016971 -0.001913 -0.015379 0.000000 0.005867 0.000000
# 2 -0.001913 0.016334 -0.008766 0.000000 0.003556 0.000000
# 3 -0.015379 -0.008766 0.057736 0.000000 -0.000933 0.000000
# 4 0.000000 0.000000 0.000000 0.091107 0.000000 0.039537
# 5 0.005867 0.003556 -0.000933 0.000000 0.039038 0.000000
# 6 0.000000 0.000000 0.000000 0.039537 0.000000 0.049694
#
#
# Mechanical properties :
#
#
# Convention : Reuss Voigt Hill
#
# Bulk Modulus (GPa) = 25.69032 40.10504 32.89768
# Shear Modulus (GPa) = 14.88215 23.34863 19.11539
#
# Velocity S-wave (km/s) = 2.74973 3.44420 3.11637
# Velocity P-wave (km/s) = 4.80974 6.01601 5.44637
#
# Compressibility (1/GPa) = 0.03892517
#
# Stress axis : x y z
#
# Youngs Moduli (GPa) = 58.92234 61.22050 17.32029
#
# Poissons Ratio (x) = 0.11713 0.26636
# Poissons Ratio (y) = 0.11274 0.15184
# Poissons Ratio (z) = 0.90614 0.53668
#
# Static dielectric constant tensor:
#      x y z
#    x 1.854200 0.000000 -0.014370 
#    y 0.000000 1.760400 0.000000 
#    z -0.014370 0.000000 1.705840 
# 
# From -- ./inp_files/225197.got.cif
#   From: 2010.05.17/outbox.cif.g08.bks.cpg/sg15_113_cif.got.tgz:225197.got - 2010.06.03 18:47:42.
