data_PCOD9259376
_publ_section_title
;
Structure prediction by ZEFSAII (Michael W. Deem and Ramdas Pophale) SiO2 
 PCOD9259376
Probable space group: C 2/C
;
_chemical_formula_sum "Si O2"
_cell_formula_units_Z 44
_cell_length_a 7.864634
_cell_length_b 13.377366
_cell_length_c 23.383303
_cell_angle_alpha 90.000000
_cell_angle_beta 41.726746
_cell_angle_gamma 90.000000
_cell_volume 1637.398826
_symmetry_space_group_name_H-M "C 2/C"
_symmetry_group_IT_number 15
_symmetry_cell_setting 'monoclinic'
loop_
_space_group_symop_operation_xyz
x,y,z
-x,y,1/2-z
-x,-y,-z
x,-y,1/2+z
1/2+x,1/2+y,z
1/2-x,1/2+y,1/2-z
1/2-x,1/2-y,-z
1/2+x,1/2-y,1/2+z
loop_
_atom_site_type_symbol
_atom_site_label
_atom_site_fract_x
_atom_site_fract_y
_atom_site_fract_z
Si Si1 0.214752 0.939781 0.807634
Si Si2 0.873832 0.305045 0.686682
Si Si3 0.393947 0.359681 0.105238
Si Si4 0.874768 0.600396 0.556575
Si Si5 0.015974 0.178950 0.455039
Si Si6 0.000000 0.855592 0.250000
O O1 0.500000 0.902933 0.750000
O O2 0.210493 0.901366 0.744459
O O3 0.012333 0.882160 0.897346
O O4 0.217071 0.052034 0.828563
O O5 0.853502 0.218949 0.742067
O O6 0.792713 0.247708 0.649898
O O7 0.177489 0.328307 0.606379
O O8 0.687601 0.364364 0.052356
O O9 0.370933 0.373256 0.043747
O O10 0.029641 0.701620 0.534117
O O11 0.695899 0.586932 0.658466
O O12 0.000000 0.500000 0.500000
#
# Coordination Sequence:
#
# PCOD9259376 Si02
#       6
#     8   8   8   8   8   4
#     4  10  18  35  56  75 105 144 171 213 268 312
#     4   9  15  33  54  73  99 139 179 206 254 317
#     4  10  20  33  53  84 101 131 187 218 254 320
#     4  10  19  35  55  79 107 140 179 216 271 310
#     4   9  17  35  54  74 105 140 178 212 257 325
#     4   8  14  34  54  70 100 142 176 208 248 326
#
# _framework density 26.871887999999998
#
# number of rings (size 3 to 8) (size 9 to 14) (size 15 to 20)
#    0.000    2.909    4.545    2.727    0.000    0.000 
#   19.636    2.727    0.000    0.000    0.000    0.000 
#    0.000    0.000    0.000    0.000    0.000    0.000 
#
# Total GULP energy -122790.752612 kJ/mol
# GULP energy per Si atom -5581.397846 kJ/mol
# Density = 2.681073 g / cm^3
# Si number density = 26.871888 Si / 1000 Ang^3
#
#
#
# Elastic Constant Matrix: (Units=GPa)
#
#
# Indices 1 2 3 4 5 6 
#
# 1 39.1698 -4.5843 -0.6554 0.0004 -0.7728 -0.0001
# 2 -4.5843 132.2462 61.1735 0.0010 -6.2604 -0.0003
# 3 -0.6554 61.1735 121.6943 -0.0031 14.9286 0.0001
# 4 0.0004 0.0010 -0.0031 61.6499 0.0026 -0.4390
# 5 -0.7728 -6.2604 14.9286 0.0026 25.2616 -0.0004
# 6 -0.0001 -0.0003 0.0001 -0.4390 -0.0004 22.2889
#
#
#
# Elastic Compliance Matrix: (Units=1/GPa)
#
#
# Indices 1 2 3 4 5 6 
#
# 1 0.025698 0.001282 -0.000692 0.000000 0.001513 0.000000
# 2 0.001282 0.010770 -0.006188 -0.000001 0.006365 0.000000
# 3 -0.000692 -0.006188 0.012415 0.000001 -0.008891 0.000000
# 4 0.000000 -0.000001 0.000001 0.016223 -0.000003 0.000320
# 5 0.001513 0.006365 -0.008891 -0.000003 0.046464 0.000001
# 6 0.000000 0.000000 0.000000 0.000320 0.000001 0.044872
#
#
# Mechanical properties :
#
#
# Convention : Reuss Voigt Hill
#
# Bulk Modulus (GPa) = 26.53323 44.99755 35.76539
# Shear Modulus (GPa) = 27.74733 37.65185 32.69959
#
# Velocity S-wave (km/s) = 3.21686 3.74727 3.49215
# Velocity P-wave (km/s) = 4.86755 5.95855 5.44046
#
# Compressibility (1/GPa) = 0.03768859
#
# Stress axis : x y z
#
# Youngs Moduli (GPa) = 38.91321 92.85384 80.54987
#
# Poissons Ratio (x) = -0.11908 0.05573
# Poissons Ratio (y) = -0.04990 0.49841
# Poissons Ratio (z) = 0.02692 0.57454
#
# Static dielectric constant tensor:
#      x y z
#    x 2.338300 0.000000 -0.020980 
#    y 0.000000 2.123330 0.000000 
#    z -0.020980 0.000000 2.163340 
# 
# From -- ./inp_files/151338.got.cif
#   From: 2010.05.17/outbox.cif.g08.bks.cpg/sg15_76_cif.got.tgz:151338.got - 2010.06.03 18:47:42.
