data_PCOD9259396
_publ_section_title
;
Structure prediction by ZEFSAII (Michael W. Deem and Ramdas Pophale) SiO2 
 PCOD9259396
Probable space group: C 2/C
;
_chemical_formula_sum "Si O2"
_cell_formula_units_Z 44
_cell_length_a 17.797588
_cell_length_b 7.074059
_cell_length_c 14.884945
_cell_angle_alpha 90.000000
_cell_angle_beta 89.816645
_cell_angle_gamma 90.000000
_cell_volume 1874.022656
_symmetry_space_group_name_H-M "C 2/C"
_symmetry_group_IT_number 15
_symmetry_cell_setting 'monoclinic'
loop_
_space_group_symop_operation_xyz
x,y,z
-x,y,1/2-z
-x,-y,-z
x,-y,1/2+z
1/2+x,1/2+y,z
1/2-x,1/2+y,1/2-z
1/2-x,1/2-y,-z
1/2+x,1/2-y,1/2+z
loop_
_atom_site_type_symbol
_atom_site_label
_atom_site_fract_x
_atom_site_fract_y
_atom_site_fract_z
Si Si1 0.169352 0.661793 0.521861
Si Si2 0.010860 0.291830 0.954569
Si Si3 0.156118 0.463792 0.219314
Si Si4 0.234877 0.799528 0.144264
Si Si5 0.855234 0.208536 0.019242
Si Si6 0.500000 0.086368 0.250000
O O1 0.250000 0.750000 0.500000
O O2 0.097407 0.759336 0.474758
O O3 0.159761 0.659003 0.629477
O O4 0.160204 0.437920 0.493489
O O5 0.943498 0.180170 0.005073
O O6 0.996976 0.305591 0.846674
O O7 0.000000 0.500000 0.000000
O O8 0.171005 0.678209 0.191161
O O9 0.222963 0.428484 0.286986
O O10 0.073621 0.456357 0.259801
O O11 0.189737 0.886834 0.061945
O O12 0.304230 0.668853 0.106499
#
# Coordination Sequence:
#
# PCOD9259396 Si02
#       6
#     8   8   8   8   8   4
#     4  10  21  34  57  89 119 150 200 250 291 341
#     4  10  18  35  56  86 116 152 203 243 284 349
#     4  11  23  36  61  93 115 155 202 246 299 348
#     4  10  21  37  60  88 119 153 198 246 298 353
#     4   9  19  39  59  80 119 161 189 242 306 351
#     4  12  20  36  62  88 114 158 206 244 286 352
#
# _framework density 23.478907
#
# number of rings (size 3 to 8) (size 9 to 14) (size 15 to 20)
#    0.000    1.818    5.455    2.182    5.091    0.000 
#    0.000    0.000    0.000   17.455    0.000    0.000 
#    0.000    0.000    0.000    0.000    0.000    0.000 
#
# Total GULP energy -122709.007091 kJ/mol
# GULP energy per Si atom -5577.682140 kJ/mol
# Density = 2.342547 g / cm^3
# Si number density = 23.478907 Si / 1000 Ang^3
#
#
#
# Elastic Constant Matrix: (Units=GPa)
#
#
# Indices 1 2 3 4 5 6 
#
# 1 216.8923 22.1047 9.6411 0.0000 -7.9794 0.0000
# 2 22.1047 44.0934 0.6874 0.0000 -0.0032 0.0000
# 3 9.6411 0.6874 40.6910 0.0000 -1.2037 0.0000
# 4 0.0000 0.0000 0.0000 18.3249 0.0000 0.8462
# 5 -7.9794 -0.0032 -1.2037 0.0000 39.1294 0.0000
# 6 0.0000 0.0000 0.0000 0.8462 0.0000 37.4096
#
#
#
# Elastic Compliance Matrix: (Units=1/GPa)
#
#
# Indices 1 2 3 4 5 6 
#
# 1 0.004946 -0.002462 -0.001102 0.000000 0.000975 0.000000
# 2 -0.002462 0.023911 0.000165 0.000000 -0.000495 0.000000
# 3 -0.001102 0.000165 0.024850 0.000000 0.000540 0.000000
# 4 0.000000 0.000000 0.000000 0.054628 0.000000 -0.001236
# 5 0.000975 -0.000495 0.000540 0.000000 0.025772 0.000000
# 6 0.000000 0.000000 0.000000 -0.001236 0.000000 0.026759
#
#
# Mechanical properties :
#
#
# Convention : Reuss Voigt Hill
#
# Bulk Modulus (GPa) = 21.31799 40.72702 31.02251
# Shear Modulus (GPa) = 27.27771 36.92233 32.10002
#
# Velocity S-wave (km/s) = 3.41221 3.96987 3.70156
# Velocity P-wave (km/s) = 4.96222 6.19654 5.61341
#
# Compressibility (1/GPa) = 0.04690873
#
# Stress axis : x y z
#
# Youngs Moduli (GPa) = 202.16859 41.82175 40.24201
#
# Poissons Ratio (x) = 0.10298 0.04433
# Poissons Ratio (y) = 0.49783 -0.00663
# Poissons Ratio (z) = 0.22270 -0.00689
#
# Static dielectric constant tensor:
#      x y z
#    x 1.883750 0.000000 -0.025920 
#    y 0.000000 2.014240 0.000000 
#    z -0.025920 0.000000 1.998700 
# 
# From -- ./inp_files/159298.got.cif
#   From: 2010.05.17/outbox.cif.g08.bks.cpg/sg15_80_cif.got.tgz:159298.got - 2010.06.03 18:47:42.
