data_PCOD9259679
_publ_section_title
;
Structure prediction by ZEFSAII (Michael W. Deem and Ramdas Pophale) SiO2 
 PCOD9259679
Probable space group: C 2/C
;
_chemical_formula_sum "Si O2"
_cell_formula_units_Z 60
_cell_length_a 30.004875
_cell_length_b 21.111820
_cell_length_c 16.586437
_cell_angle_alpha 90.000000
_cell_angle_beta 18.886607
_cell_angle_gamma 90.000000
_cell_volume 3401.012917
_symmetry_space_group_name_H-M "C 2/C"
_symmetry_group_IT_number 15
_symmetry_cell_setting 'monoclinic'
loop_
_space_group_symop_operation_xyz
x,y,z
-x,y,1/2-z
-x,-y,-z
x,-y,1/2+z
1/2+x,1/2+y,z
1/2-x,1/2+y,1/2-z
1/2-x,1/2-y,-z
1/2+x,1/2-y,1/2+z
loop_
_atom_site_type_symbol
_atom_site_label
_atom_site_fract_x
_atom_site_fract_y
_atom_site_fract_z
Si Si1 0.018615 0.320601 0.813983
Si Si2 0.282385 0.414242 0.808853
Si Si3 0.590194 0.454795 0.462456
Si Si4 0.794295 0.105343 0.890070
Si Si5 0.150910 0.564515 0.864829
Si Si6 0.509769 0.671775 0.636340
Si Si7 0.222790 0.035167 0.013592
Si Si8 0.000000 0.478802 0.250000
O O1 0.162207 0.351807 0.596120
O O2 0.000000 0.328129 0.750000
O O3 0.005076 0.246509 0.854580
O O4 0.898416 0.363486 0.056103
O O5 0.379541 0.474822 0.623411
O O6 0.351985 0.356943 0.641196
O O7 0.269179 0.413402 0.928232
O O8 0.132428 0.435199 0.035764
O O9 0.618766 0.405890 0.340687
O O10 0.705729 0.441908 0.331720
O O11 0.431331 0.456276 0.758068
O O12 0.885602 0.136888 0.803004
O O13 0.758386 0.034243 0.979845
O O14 0.171366 0.540504 0.739967
O O15 0.039348 0.524679 0.107903
O O16 0.500000 0.661071 0.750000
#
# Coordination Sequence:
#
# PCOD9259679 Si02
#       8
#     8   8   8   8   8   8   8   4
#     4  11  22  41  59  84 120 164 203 238 282 354
#     4  10  20  38  55  86 120 149 187 248 303 342
#     4  10  18  35  63  85 120 154 183 252 301 353
#     4  11  20  38  64  89 119 150 196 250 302 346
#     4  11  21  37  59  87 120 154 197 240 297 364
#     4  11  24  38  63  86 118 157 207 248 285 350
#     4  11  21  33  62  93 118 147 192 248 307 357
#     4  10  22  34  60  80 114 158 186 248 306 346
#
# _framework density 17.641802999999999
#
# number of rings (size 3 to 8) (size 9 to 14) (size 15 to 20)
#    0.000    1.333    4.667    3.200    3.733    2.133 
#    0.000    0.667    2.933    0.000    0.000    0.000 
#    0.000    0.000    0.000    0.000    0.000    0.000 
#
# Total GULP energy -167369.191172 kJ/mol
# GULP energy per Si atom -5578.973039 kJ/mol
# Density = 1.760165 g / cm^3
# Si number density = 17.641803 Si / 1000 Ang^3
#
#
#
# Elastic Constant Matrix: (Units=GPa)
#
#
# Indices 1 2 3 4 5 6 
#
# 1 91.9444 48.7092 48.2647 0.0003 7.7970 0.0002
# 2 48.7092 100.2373 52.4436 -0.0010 6.6896 -0.0005
# 3 48.2647 52.4436 88.3989 0.0008 13.9766 -0.0009
# 4 0.0003 -0.0010 0.0008 18.8150 -0.0004 1.1034
# 5 7.7970 6.6896 13.9766 -0.0004 37.5339 0.0001
# 6 0.0002 -0.0005 -0.0009 1.1034 0.0001 22.5565
#
#
#
# Elastic Compliance Matrix: (Units=1/GPa)
#
#
# Indices 1 2 3 4 5 6 
#
# 1 0.016736 -0.004868 -0.006203 0.000000 -0.000299 -0.000001
# 2 -0.004868 0.015898 -0.006891 0.000001 0.000744 0.000000
# 3 -0.006203 -0.006891 0.019540 -0.000001 -0.004759 0.000001
# 4 0.000000 0.000001 -0.000001 0.053302 0.000001 -0.002607
# 5 -0.000299 0.000744 -0.004759 0.000001 0.028344 0.000000
# 6 -0.000001 0.000000 0.000001 -0.002607 0.000000 0.044461
#
#
# Mechanical properties :
#
#
# Convention : Reuss Voigt Hill
#
# Bulk Modulus (GPa) = 61.53731 64.37952 62.95841
# Shear Modulus (GPa) = 22.76651 24.52528 23.64589
#
# Velocity S-wave (km/s) = 3.59623 3.73256 3.66503
# Velocity P-wave (km/s) = 7.22503 7.42616 7.32628
#
# Compressibility (1/GPa) = 0.01625031
#
# Stress axis : x y z
#
# Youngs Moduli (GPa) = 59.75066 62.90264 51.17745
#
# Poissons Ratio (x) = 0.30618 0.31744
# Poissons Ratio (y) = 0.29084 0.35268
# Poissons Ratio (z) = 0.37061 0.43349
#
# Static dielectric constant tensor:
#      x y z
#    x 1.636640 0.000000 -0.008950 
#    y 0.000000 1.586130 0.000000 
#    z -0.008950 0.000000 1.618040 
# 
# From -- ./inp_files/179083.got.cif
#   From: 2010.05.17/outbox.cif.g08.bks.cpg/sg15_90_cif.got.tgz:179083.got - 2010.06.03 18:47:42.
