data_PCOD9259613
_publ_section_title
;
Structure prediction by ZEFSAII (Michael W. Deem and Ramdas Pophale) SiO2 
 PCOD9259613
Probable space group: C 2/C
;
_chemical_formula_sum "Si O2"
_cell_formula_units_Z 64
_cell_length_a 13.124200
_cell_length_b 20.439558
_cell_length_c 27.678342
_cell_angle_alpha 90.000000
_cell_angle_beta 28.763671
_cell_angle_gamma 90.000000
_cell_volume 3572.795642
_symmetry_space_group_name_H-M "C 2/C"
_symmetry_group_IT_number 15
_symmetry_cell_setting 'monoclinic'
loop_
_space_group_symop_operation_xyz
x,y,z
-x,y,1/2-z
-x,-y,-z
x,-y,1/2+z
1/2+x,1/2+y,z
1/2-x,1/2+y,1/2-z
1/2-x,1/2-y,-z
1/2+x,1/2-y,1/2+z
loop_
_atom_site_type_symbol
_atom_site_label
_atom_site_fract_x
_atom_site_fract_y
_atom_site_fract_z
Si Si1 0.825226 0.751526 0.787301
Si Si2 0.560747 0.700583 0.091511
Si Si3 0.744768 0.604512 0.147976
Si Si4 0.666055 0.070121 0.010138
Si Si5 0.374888 0.308396 0.475237
Si Si6 0.740881 0.616394 0.637458
Si Si7 0.754881 0.726393 0.363488
Si Si8 0.660690 0.923792 0.001098
O O1 0.746689 0.816760 0.848777
O O2 0.622977 0.706006 0.862648
O O3 0.000000 0.720257 0.750000
O O4 0.940136 0.777042 0.690793
O O5 0.391620 0.701881 0.118993
O O6 0.679425 0.631499 0.047357
O O7 0.750000 0.750000 0.000000
O O8 0.500000 0.585987 0.250000
O O9 0.813780 0.578843 0.067374
O O10 0.910163 0.578347 0.118485
O O11 0.788331 0.123098 0.991101
O O12 0.720600 0.087537 0.931842
O O13 0.713867 0.994611 0.999470
O O14 0.250000 0.250000 0.500000
O O15 0.321903 0.302280 0.553770
O O16 0.500000 0.600803 0.750000
O O17 0.766864 0.694841 0.623982
O O18 0.909559 0.592389 0.607615
O O19 0.000000 0.711889 0.250000
#
# Coordination Sequence:
#
# PCOD9259613 Si02
#       8
#     8   8   8   8   8   8   8   8
#     4  11  21  37  65  91 118 156 207 249 304 358
#     4  12  23  39  62  87 124 161 202 255 300 356
#     4  10  18  35  61  90 120 151 193 242 298 365
#     4  11  24  35  60  89 124 161 196 245 305 364
#     4  12  21  40  62  87 121 159 208 252 292 365
#     4  10  20  37  57  90 124 152 189 248 312 357
#     4  11  23  37  62  92 120 155 203 256 304 346
#     4  11  22  39  55  91 124 156 197 242 308 364
#
# _framework density 17.913143000000002
#
# number of rings (size 3 to 8) (size 9 to 14) (size 15 to 20)
#    0.000    1.000    6.250    3.750    1.750    2.000 
#    0.000    0.625    0.000    0.750    0.000    0.000 
#    0.000    0.000    0.000    0.000    0.000    0.000 
#
# Total GULP energy -178560.908497 kJ/mol
# GULP energy per Si atom -5580.028391 kJ/mol
# Density = 1.787237 g / cm^3
# Si number density = 17.913143 Si / 1000 Ang^3
#
#
#
# Elastic Constant Matrix: (Units=GPa)
#
#
# Indices 1 2 3 4 5 6 
#
# 1 129.3252 62.4182 57.2905 -0.0552 -23.0560 0.3032
# 2 62.4182 121.1255 56.6939 -0.6904 -24.1243 2.9691
# 3 57.2905 56.6939 107.8999 -0.4928 -28.9537 2.0301
# 4 -0.0552 -0.6904 -0.4928 54.8453 0.1245 -213.7626
# 5 -23.0560 -24.1243 -28.9537 0.1245 32.2095 -0.4895
# 6 0.3032 2.9691 2.0301 -213.7626 -0.4895 1017.9628
#
#
#
# Elastic Compliance Matrix: (Units=1/GPa)
#
#
# Indices 1 2 3 4 5 6 
#
# 1 0.011547 -0.003869 -0.003503 -0.000064 0.002219 0.000002
# 2 -0.003869 0.012649 -0.003680 0.000056 0.003396 -0.000015
# 3 -0.003503 -0.003680 0.015352 0.000062 0.008537 -0.000002
# 4 -0.000064 0.000056 0.000062 0.100431 -0.000015 0.021089
# 5 0.002219 0.003396 0.008537 -0.000015 0.042852 -0.000010
# 6 0.000002 -0.000015 -0.000002 0.021089 -0.000010 0.005411
#
#
# Mechanical properties :
#
#
# Convention : Reuss Voigt Hill
#
# Bulk Modulus (GPa) = 57.32558 79.01730 68.17144
# Shear Modulus (GPa) = 23.13067 233.13338 128.13202
#
# Velocity S-wave (km/s) = 3.59732 11.42056 8.46669
# Velocity P-wave (km/s) = 7.02323 14.76863 11.56370
#
# Compressibility (1/GPa) = 0.01744422
#
# Stress axis : x y z
#
# Youngs Moduli (GPa) = 86.59975 79.05487 65.13640
#
# Poissons Ratio (x) = 0.30590 0.22817
# Poissons Ratio (y) = 0.33509 0.23971
# Poissons Ratio (z) = 0.30335 0.29093
#
# Static dielectric constant tensor:
#      x y z
#    x 1.603950 0.000020 -0.010760 
#    y 0.000020 1.616650 -0.000060 
#    z -0.010760 -0.000060 1.623810 
# 
# From -- ./inp_files/200395.got.cif
#   From: 2010.05.17/outbox.cif.g08.bks.cpg/sg15_101_cif.got.tgz:200395.got - 2010.06.03 18:47:42.
