data_PCOD9259135
_publ_section_title
;
Structure prediction by ZEFSAII (Michael W. Deem and Ramdas Pophale) SiO2 
 PCOD9259135
Probable space group: C 2/C
;
_chemical_formula_sum "Si O2"
_cell_formula_units_Z 60
_cell_length_a 17.341062
_cell_length_b 10.790076
_cell_length_c 26.420539
_cell_angle_alpha 90.000000
_cell_angle_beta 150.868499
_cell_angle_gamma 90.000000
_cell_volume 2406.614046
_symmetry_space_group_name_H-M "C 2/C"
_symmetry_group_IT_number 15
_symmetry_cell_setting 'monoclinic'
loop_
_space_group_symop_operation_xyz
x,y,z
-x,y,1/2-z
-x,-y,-z
x,-y,1/2+z
1/2+x,1/2+y,z
1/2-x,1/2+y,1/2-z
1/2-x,1/2-y,-z
1/2+x,1/2-y,1/2+z
loop_
_atom_site_type_symbol
_atom_site_label
_atom_site_fract_x
_atom_site_fract_y
_atom_site_fract_z
Si Si1 0.287025 0.932332 0.912939
Si Si2 0.424242 0.651284 0.593360
Si Si3 0.923507 0.093960 0.369442
Si Si4 0.000000 0.881577 0.250000
Si Si5 0.261395 0.817253 0.071597
Si Si6 0.356840 0.211740 0.355209
Si Si7 0.394907 0.006196 0.078341
Si Si8 0.215901 0.466687 0.318242
O O1 0.188009 0.815807 0.879800
O O2 0.374135 0.873614 0.914720
O O3 0.155238 0.035679 0.827171
O O4 0.400564 0.986487 0.021444
O O5 0.513985 0.524981 0.626274
O O6 0.465163 0.681801 0.675540
O O7 0.491628 0.751193 0.591969
O O8 0.240745 0.607496 0.486360
O O9 0.777123 0.149401 0.255761
O O10 0.071993 0.182305 0.460924
O O11 0.857785 0.060156 0.387361
O O12 0.306898 0.926059 0.137549
O O13 0.331301 0.871593 0.060880
O O14 0.275315 0.339560 0.326641
O O15 0.560055 0.017741 0.201718
#
# Coordination Sequence:
#
# PCOD9259135 Si02
#       8
#     8   8   8   4   8   8   8   8
#     4  10  20  31  58  89 120 152 202 248 311 358
#     4   9  20  36  60  86 125 160 202 252 314 365
#     4  10  19  37  57  84 115 162 200 252 305 375
#     4  10  18  34  60  88 124 158 200 260 302 358
#     4  10  20  32  55  86 121 149 197 257 318 359
#     4  10  20  36  59  87 122 160 202 253 308 369
#     4  10  20  35  54  88 121 161 200 260 308 366
#     4  10  21  34  57  82 120 158 205 250 311 367
#
# _framework density 24.931293
#
# number of rings (size 3 to 8) (size 9 to 14) (size 15 to 20)
#    0.000    2.133    1.333    2.000    3.733    1.067 
#    0.000    1.333   14.667    0.000    0.000    0.000 
#    0.000    0.000    0.000    0.000    0.000    0.000 
#
# Total GULP energy -167852.250040 kJ/mol
# GULP energy per Si atom -5595.075001 kJ/mol
# Density = 2.487455 g / cm^3
# Si number density = 24.931293 Si / 1000 Ang^3
#
#
#
# Elastic Constant Matrix: (Units=GPa)
#
#
# Indices 1 2 3 4 5 6 
#
# 1 151.7280 53.4467 80.5834 0.0000 -1.2249 0.0000
# 2 53.4467 80.0097 36.5751 0.0000 1.2560 -0.0001
# 3 80.5834 36.5751 107.0954 0.0004 -10.7195 -0.0001
# 4 0.0000 0.0000 0.0004 32.2353 0.0001 1.9322
# 5 -1.2249 1.2560 -10.7195 0.0001 42.9626 0.0000
# 6 0.0000 -0.0001 -0.0001 1.9322 0.0000 52.2745
#
#
#
# Elastic Compliance Matrix: (Units=1/GPa)
#
#
# Indices 1 2 3 4 5 6 
#
# 1 0.012415 -0.004659 -0.007899 0.000000 -0.001481 0.000000
# 2 -0.004659 0.016687 -0.002313 0.000000 -0.001198 0.000000
# 3 -0.007899 -0.002313 0.016466 0.000000 0.003951 0.000000
# 4 0.000000 0.000000 0.000000 0.031091 0.000000 -0.001149
# 5 -0.001481 -0.001198 0.003951 0.000000 0.024255 0.000000
# 6 0.000000 0.000000 0.000000 -0.001149 0.000000 0.019172
#
#
# Mechanical properties :
#
#
# Convention : Reuss Voigt Hill
#
# Bulk Modulus (GPa) = 63.18529 75.56040 69.37285
# Shear Modulus (GPa) = 32.23665 36.70968 34.47316
#
# Velocity S-wave (km/s) = 3.59976 3.84139 3.72254
# Velocity P-wave (km/s) = 6.53272 7.07448 6.80899
#
# Compressibility (1/GPa) = 0.01582647
#
# Stress axis : x y z
#
# Youngs Moduli (GPa) = 80.54758 59.92664 60.73087
#
# Poissons Ratio (x) = 0.27922 0.47969
# Poissons Ratio (y) = 0.37530 0.14047
# Poissons Ratio (z) = 0.63621 0.13861
#
# Static dielectric constant tensor:
#      x y z
#    x 1.987890 0.000000 -0.032430 
#    y 0.000000 1.995180 0.000000 
#    z -0.032430 0.000000 1.921810 
# 
# From -- ./inp_files/298975.got.cif
#   From: 2010.05.17/outbox.cif.g08.bks.cpg/sg15_150_cif.got.tgz:298975.got - 2010.06.03 18:47:42.
