data_PCOD9259423
_publ_section_title
;
Structure prediction by ZEFSAII (Michael W. Deem and Ramdas Pophale) SiO2 
 PCOD9259423
Probable space group: C 2/C
;
_chemical_formula_sum "Si O2"
_cell_formula_units_Z 64
_cell_length_a 12.190600
_cell_length_b 22.853497
_cell_length_c 11.447465
_cell_angle_alpha 90.000000
_cell_angle_beta 107.154468
_cell_angle_gamma 90.000000
_cell_volume 3047.359526
_symmetry_space_group_name_H-M "C 2/C"
_symmetry_group_IT_number 15
_symmetry_cell_setting 'monoclinic'
loop_
_space_group_symop_operation_xyz
x,y,z
-x,y,1/2-z
-x,-y,-z
x,-y,1/2+z
1/2+x,1/2+y,z
1/2-x,1/2+y,1/2-z
1/2-x,1/2-y,-z
1/2+x,1/2-y,1/2+z
loop_
_atom_site_type_symbol
_atom_site_label
_atom_site_fract_x
_atom_site_fract_y
_atom_site_fract_z
Si Si1 0.674184 0.518467 0.869466
Si Si2 0.154838 0.017902 0.606363
Si Si3 0.128807 0.840273 0.771246
Si Si4 0.684309 0.916257 0.801684
Si Si5 0.380086 0.208283 0.779001
Si Si6 0.360347 0.107496 0.954415
Si Si7 0.901642 0.435250 0.963773
Si Si8 0.260279 0.641677 0.947031
O O1 0.613687 0.508685 0.726489
O O2 0.738085 0.580436 0.879680
O O3 0.785818 0.475493 0.921080
O O4 0.607359 0.511033 0.971128
O O5 0.170003 0.086497 0.583922
O O6 0.278040 0.982781 0.654907
O O7 0.205683 0.884256 0.720653
O O8 0.128257 0.777780 0.707210
O O9 0.000000 0.862432 0.750000
O O10 0.178301 0.833552 0.918283
O O11 0.592738 0.916187 0.669855
O O12 0.649595 0.885760 0.910048
O O13 0.500000 0.199145 0.750000
O O14 0.380490 0.167082 0.892078
O O15 0.276223 0.187153 0.662814
O O16 0.463540 0.060068 0.960309
O O17 0.856820 0.385998 0.038284
#
# Coordination Sequence:
#
# PCOD9259423 Si02
#       8
#     8   8   8   8   8   8   8   8
#     4   9  17  27  44  77 119 157 178 209 269 346
#     4   9  17  31  53  81 112 145 184 231 282 347
#     4  10  23  41  59  75 104 151 201 244 280 320
#     4   9  20  35  52  79 113 147 187 231 288 337
#     4  11  21  34  55  86 115 149 189 225 269 345
#     4  11  18  29  50  80 117 147 183 222 271 343
#     4   9  17  29  48  78 117 151 176 213 273 347
#     4  10  18  35  57  82 110 141 188 234 282 329
#
# _framework density 21.001788000000001
#
# number of rings (size 3 to 8) (size 9 to 14) (size 15 to 20)
#    0.000    2.250    2.500    1.875    0.000    0.500 
#    0.000    3.125    0.000    0.750    0.000    0.000 
#    0.000    0.000    0.000    0.000    0.000    0.000 
#
# Total GULP energy -178159.554798 kJ/mol
# GULP energy per Si atom -5567.486087 kJ/mol
# Density = 2.095399 g / cm^3
# Si number density = 21.001788 Si / 1000 Ang^3
#
#
#
# Elastic Constant Matrix: (Units=GPa)
#
#
# Indices 1 2 3 4 5 6 
#
# 1 60.6044 9.3982 26.6517 0.0000 -4.6439 0.0000
# 2 9.3982 71.8738 5.8776 0.0000 -6.6569 0.0000
# 3 26.6517 5.8776 89.1274 0.0000 -20.7281 0.0000
# 4 0.0000 0.0000 0.0000 32.9140 0.0000 -3.6568
# 5 -4.6439 -6.6569 -20.7281 0.0000 30.2726 0.0000
# 6 0.0000 0.0000 0.0000 -3.6568 0.0000 8.9583
#
#
#
# Elastic Compliance Matrix: (Units=1/GPa)
#
#
# Indices 1 2 3 4 5 6 
#
# 1 0.019365 -0.002191 -0.006027 0.000000 -0.001638 0.000000
# 2 -0.002191 0.014455 0.000432 0.000000 0.003138 0.000000
# 3 -0.006027 0.000432 0.015225 0.000000 0.009595 0.000000
# 4 0.000000 0.000000 0.000000 0.031826 0.000000 0.012991
# 5 -0.001638 0.003138 0.009595 0.000000 0.040042 0.000000
# 6 0.000000 0.000000 0.000000 0.012991 0.000000 0.116931
#
#
# Mechanical properties :
#
#
# Convention : Reuss Voigt Hill
#
# Bulk Modulus (GPa) = 29.87515 33.94010 31.90763
# Shear Modulus (GPa) = 18.89825 26.40753 22.65289
#
# Velocity S-wave (km/s) = 3.00299 3.54982 3.28779
# Velocity P-wave (km/s) = 5.12639 5.74433 5.44413
#
# Compressibility (1/GPa) = 0.03347263
#
# Stress axis : x y z
#
# Youngs Moduli (GPa) = 51.63881 69.17963 65.68007
#
# Poissons Ratio (x) = 0.15158 0.39587
# Poissons Ratio (y) = 0.11314 -0.02836
# Poissons Ratio (z) = 0.31124 -0.02987
#
# Static dielectric constant tensor:
#      x y z
#    x 1.795430 0.000000 -0.012100 
#    y 0.000000 1.772150 0.000000 
#    z -0.012100 0.000000 1.788190 
# 
# From -- ./inp_files/91272.got.cif
#   From: 2010.05.17/outbox.cif.g08.bks.cpg/sg15_46_cif.got.tgz:91272.got - 2010.06.03 18:47:42.
