data_PCOD9259577
_publ_section_title
;
Structure prediction by ZEFSAII (Michael W. Deem and Ramdas Pophale) SiO2 
 PCOD9259577
Probable space group: C 2/C
;
_chemical_formula_sum "Si O2"
_cell_formula_units_Z 60
_cell_length_a 12.337117
_cell_length_b 17.943288
_cell_length_c 23.459064
_cell_angle_alpha 90.000000
_cell_angle_beta 145.174480
_cell_angle_gamma 90.000000
_cell_volume 2965.669683
_symmetry_space_group_name_H-M "C 2/C"
_symmetry_group_IT_number 15
_symmetry_cell_setting 'monoclinic'
loop_
_space_group_symop_operation_xyz
x,y,z
-x,y,1/2-z
-x,-y,-z
x,-y,1/2+z
1/2+x,1/2+y,z
1/2-x,1/2+y,1/2-z
1/2-x,1/2-y,-z
1/2+x,1/2-y,1/2+z
loop_
_atom_site_type_symbol
_atom_site_label
_atom_site_fract_x
_atom_site_fract_y
_atom_site_fract_z
Si Si1 0.275130 0.721718 0.098591
Si Si2 0.810475 0.926468 0.305951
Si Si3 0.296439 0.332004 0.189879
Si Si4 0.624254 0.558514 0.091016
Si Si5 0.798585 0.854081 0.976680
Si Si6 0.061586 0.315566 0.980754
Si Si7 0.531195 0.707378 0.112139
Si Si8 0.500000 0.852495 0.250000
O O1 0.453321 0.688736 0.141318
O O2 0.352631 0.800006 0.153903
O O3 0.161858 0.683916 0.101542
O O4 0.114295 0.736083 0.981777
O O5 0.797990 0.898796 0.235947
O O6 0.626279 0.896622 0.259796
O O7 0.007340 0.889063 0.413543
O O8 0.813532 0.012097 0.326994
O O9 0.500000 0.317357 0.250000
O O10 0.222773 0.256593 0.190384
O O11 0.165219 0.352090 0.079434
O O12 0.526729 0.632406 0.073554
O O13 0.500000 0.500000 0.000000
O O14 0.762098 0.595300 0.103222
O O15 0.860968 0.770338 0.985829
O O16 0.636539 0.849017 0.954339
#
# Coordination Sequence:
#
# PCOD9259577 Si02
#       8
#     8   8   8   8   8   8   8   4
#     4  10  19  33  61  90 117 152 205 253 303 355
#     4  11  22  35  59  87 121 166 202 253 314 373
#     4  11  20  35  59  89 123 157 209 266 303 358
#     4  10  20  38  59  83 120 162 199 246 316 375
#     4  10  18  35  60  90 117 156 204 251 305 372
#     4  10  19  33  60  93 118 154 203 254 308 355
#     4  10  20  38  59  88 119 164 200 250 309 367
#     4  12  20  36  56  90 114 150 208 260 300 356
#
# _framework density 20.231518000000001
#
# number of rings (size 3 to 8) (size 9 to 14) (size 15 to 20)
#    0.000    1.600    6.667    0.800    0.000    0.000 
#    1.200    0.000    1.467    3.200    0.000    0.000 
#    0.000    0.000    0.000    0.000    0.000    0.000 
#
# Total GULP energy -167082.953576 kJ/mol
# GULP energy per Si atom -5569.431786 kJ/mol
# Density = 2.018547 g / cm^3
# Si number density = 20.231518 Si / 1000 Ang^3
#
#
#
# Elastic Constant Matrix: (Units=GPa)
#
#
# Indices 1 2 3 4 5 6 
#
# 1 206.2971 52.3479 26.2340 0.0000 -0.0755 0.0001
# 2 52.3479 66.0569 13.3374 0.0000 -15.6763 0.0000
# 3 26.2340 13.3374 27.7742 0.0000 -3.9837 0.0003
# 4 0.0000 0.0000 0.0000 13.8116 0.0000 -5.2978
# 5 -0.0755 -15.6763 -3.9837 0.0000 30.7111 0.0001
# 6 0.0001 0.0000 0.0003 -5.2978 0.0001 18.8657
#
#
#
# Elastic Compliance Matrix: (Units=1/GPa)
#
#
# Indices 1 2 3 4 5 6 
#
# 1 0.006716 -0.005214 -0.004299 0.000000 -0.003203 0.000000
# 2 -0.005214 0.022786 -0.004433 0.000000 0.011043 0.000000
# 3 -0.004299 -0.004433 0.042662 0.000000 0.003260 -0.000001
# 4 0.000000 0.000000 0.000000 0.081144 0.000000 0.022787
# 5 -0.003203 0.011043 0.003260 0.000000 0.038614 0.000000
# 6 0.000000 0.000000 -0.000001 0.022787 0.000000 0.059405
#
#
# Mechanical properties :
#
#
# Convention : Reuss Voigt Hill
#
# Bulk Modulus (GPa) = 22.58799 53.77409 38.18104
# Shear Modulus (GPa) = 17.00817 26.55828 21.78323
#
# Velocity S-wave (km/s) = 2.90259 3.62708 3.28487
# Velocity P-wave (km/s) = 4.73522 6.64665 5.77063
#
# Compressibility (1/GPa) = 0.04427132
#
# Stress axis : x y z
#
# Youngs Moduli (GPa) = 148.89778 43.88579 23.44019
#
# Poissons Ratio (x) = 0.22883 0.10077
# Poissons Ratio (y) = 0.77639 0.10391
# Poissons Ratio (z) = 0.64011 0.19455
#
# Static dielectric constant tensor:
#      x y z
#    x 1.787830 0.000000 0.006970 
#    y 0.000000 1.725030 0.000000 
#    z 0.006970 0.000000 1.785250 
# 
# From -- ./inp_files/239985.got.cif
#   From: 2010.05.17/outbox.cif.g08.bks.cpg/sg15_120_cif.got.tgz:239985.got - 2010.06.03 18:47:42.
