data_PCOD9259656
_publ_section_title
;
Structure prediction by ZEFSAII (Michael W. Deem and Ramdas Pophale) SiO2 
 PCOD9259656
Probable space group: C 2/C
;
_chemical_formula_sum "Si O2"
_cell_formula_units_Z 56
_cell_length_a 12.895196
_cell_length_b 16.628300
_cell_length_c 14.623403
_cell_angle_alpha 90.000000
_cell_angle_beta 112.138494
_cell_angle_gamma 90.000000
_cell_volume 2904.453969
_symmetry_space_group_name_H-M "C 2/C"
_symmetry_group_IT_number 15
_symmetry_cell_setting 'monoclinic'
loop_
_space_group_symop_operation_xyz
x,y,z
-x,y,1/2-z
-x,-y,-z
x,-y,1/2+z
1/2+x,1/2+y,z
1/2-x,1/2+y,1/2-z
1/2-x,1/2-y,-z
1/2+x,1/2-y,1/2+z
loop_
_atom_site_type_symbol
_atom_site_label
_atom_site_fract_x
_atom_site_fract_y
_atom_site_fract_z
Si Si1 0.192404 0.504904 0.031782
Si Si2 0.375367 0.468940 0.737344
Si Si3 0.680681 0.442070 0.108919
Si Si4 0.517839 0.118281 0.492899
Si Si5 0.155247 0.787907 0.841347
Si Si6 0.096168 0.224140 0.530837
Si Si7 0.898501 0.628466 0.774342
O O1 0.280355 0.488479 0.142773
O O2 0.112394 0.431970 0.971015
O O3 0.267640 0.536402 0.972656
O O4 0.100059 0.569780 0.037839
O O5 0.500000 0.493927 0.750000
O O6 0.365304 0.487398 0.841984
O O7 0.359027 0.375542 0.705659
O O8 0.596593 0.366706 0.068346
O O9 0.785301 0.410150 0.202017
O O10 0.492352 0.210874 0.461535
O O11 0.569889 0.117838 0.611330
O O12 0.283450 0.763283 0.904381
O O13 0.112406 0.721282 0.757303
O O14 0.095075 0.780885 0.920034
O O15 0.000000 0.591956 0.750000
#
# Coordination Sequence:
#
# PCOD9259656 Si02
#       7
#     8   8   8   8   8   8   8
#     4  11  22  39  60  96 128 165 197 268 321 382
#     4  12  25  40  59  87 122 169 214 260 299 381
#     4  11  23  39  61  87 132 164 208 248 325 373
#     4  11  20  35  65  95 130 151 205 262 330 371
#     4  10  19  34  58  90 120 148 216 253 309 357
#     4  10  18  35  62  89 119 164 196 268 308 372
#     4  11  18  31  61  98 116 153 195 260 315 374
#
# _framework density 19.280733999999999
#
# number of rings (size 3 to 8) (size 9 to 14) (size 15 to 20)
#    0.000    1.143    7.143    1.286    0.000    0.571 
#    0.000    0.000    6.286    1.714    0.000    0.000 
#    0.000    0.000    0.000    0.000    0.000    0.000 
#
# Total GULP energy -156139.583365 kJ/mol
# GULP energy per Si atom -5576.413692 kJ/mol
# Density = 1.923685 g / cm^3
# Si number density = 19.280734 Si / 1000 Ang^3
#
#
#
# Elastic Constant Matrix: (Units=GPa)
#
#
# Indices 1 2 3 4 5 6 
#
# 1 50.6872 29.9292 17.0849 0.0000 -2.0472 0.0000
# 2 29.9292 86.5480 12.6567 0.0000 -8.1343 0.0000
# 3 17.0849 12.6567 64.8565 0.0000 8.3929 0.0000
# 4 0.0000 0.0000 0.0000 2.4639 0.0000 -13.4683
# 5 -2.0472 -8.1343 8.3929 0.0000 15.6856 0.0000
# 6 0.0000 0.0000 0.0000 -13.4683 0.0000 19.4032
#
#
#
# Elastic Compliance Matrix: (Units=1/GPa)
#
#
# Indices 1 2 3 4 5 6 
#
# 1 0.026544 -0.008129 -0.005704 0.000000 0.002301 0.000000
# 2 -0.008129 0.015386 -0.001887 0.000000 0.007928 0.000000
# 3 -0.005704 -0.001887 0.018815 0.000000 -0.011791 0.000000
# 4 0.000000 0.000000 0.000000 -0.145248 0.000000 -0.100821
# 5 0.002301 0.007928 -0.011791 0.000000 0.074473 0.000000
# 6 0.000000 0.000000 0.000000 -0.100821 0.000000 -0.018444
#
#
# Mechanical properties :
#
#
# Convention : Reuss Voigt Hill
#
# Bulk Modulus (GPa) = 34.12270 35.71481 34.91876
# Shear Modulus (GPa) = 392.61971 17.00526 204.81249
#
# Velocity S-wave (km/s) = 14.28549 2.97304 10.31781
# Velocity P-wave (km/s) = 17.02459 5.50900 12.65278
#
# Compressibility (1/GPa) = 0.02930600
#
# Stress axis : x y z
#
# Youngs Moduli (GPa) = 37.67303 64.99224 53.14825
#
# Poissons Ratio (x) = 0.52832 0.30315
# Poissons Ratio (y) = 0.30624 0.10030
# Poissons Ratio (z) = 0.21488 0.12266
#
# Static dielectric constant tensor:
#      x y z
#    x 1.706170 0.000000 0.023110 
#    y 0.000000 1.738480 0.000000 
#    z 0.023110 0.000000 1.677760 
# 
# From -- ./inp_files/145740.got.cif
#   From: 2010.05.17/outbox.cif.g08.bks.cpg/sg15_73_cif.got.tgz:145740.got - 2010.06.03 18:47:42.
