data_PCOD9259723
_publ_section_title
;
Structure prediction by ZEFSAII (Michael W. Deem and Ramdas Pophale) SiO2 
 PCOD9259723
Probable space group: C 2/C
;
_chemical_formula_sum "Si O2"
_cell_formula_units_Z 56
_cell_length_a 11.806507
_cell_length_b 21.265942
_cell_length_c 11.358401
_cell_angle_alpha 90.000000
_cell_angle_beta 66.722110
_cell_angle_gamma 90.000000
_cell_volume 2619.685741
_symmetry_space_group_name_H-M "C 2/C"
_symmetry_group_IT_number 15
_symmetry_cell_setting 'monoclinic'
loop_
_space_group_symop_operation_xyz
x,y,z
-x,y,1/2-z
-x,-y,-z
x,-y,1/2+z
1/2+x,1/2+y,z
1/2-x,1/2+y,1/2-z
1/2-x,1/2-y,-z
1/2+x,1/2-y,1/2+z
loop_
_atom_site_type_symbol
_atom_site_label
_atom_site_fract_x
_atom_site_fract_y
_atom_site_fract_z
Si Si1 0.891251 0.786079 0.564986
Si Si2 0.564065 0.026466 0.593010
Si Si3 0.160946 0.020047 0.555980
Si Si4 0.467950 0.159239 0.635885
Si Si5 0.812315 0.114205 0.738800
Si Si6 0.479109 0.587215 0.455736
Si Si7 0.130026 0.243885 0.693796
O O1 0.956037 0.718402 0.555764
O O2 0.861285 0.788642 0.438403
O O3 0.752717 0.781819 0.674355
O O4 0.971479 0.842485 0.584108
O O5 0.500000 0.015636 0.750000
O O6 0.561641 0.102223 0.575771
O O7 0.500000 0.000000 0.500000
O O8 0.699332 0.996700 0.534311
O O9 0.156743 0.068214 0.666490
O O10 0.092802 0.052920 0.474067
O O11 0.083541 0.956890 0.615288
O O12 0.500000 0.186597 0.750000
O O13 0.333709 0.126264 0.697573
O O14 0.868697 0.088097 0.596954
O O15 0.873921 0.182920 0.722676
O O16 0.000000 0.279300 0.750000
#
# Coordination Sequence:
#
# PCOD9259723 Si02
#       7
#     8   8   8   8   8   8   8
#     4  10  21  36  64  94 124 161 217 260 323 399
#     4  11  23  44  70 100 136 178 226 274 338 404
#     4  11  23  37  65  95 127 170 221 276 326 400
#     4  10  22  41  65  91 129 172 213 268 340 406
#     4  11  19  40  69  89 120 174 221 264 335 404
#     4  11  22  40  64  95 126 167 224 272 336 403
#     4  10  18  35  66  93 120 162 212 266 320 395
#
# _framework density 21.376609999999999
#
# number of rings (size 3 to 8) (size 9 to 14) (size 15 to 20)
#    0.000    1.429    4.286    2.143    0.000    0.000 
#    0.000    8.571    0.000    0.000    0.000    0.000 
#    0.000    0.000    0.000    0.000    0.000    0.000 
#
# Total GULP energy -156176.560538 kJ/mol
# GULP energy per Si atom -5577.734305 kJ/mol
# Density = 2.132796 g / cm^3
# Si number density = 21.376610 Si / 1000 Ang^3
#
#
#
# Elastic Constant Matrix: (Units=GPa)
#
#
# Indices 1 2 3 4 5 6 
#
# 1 74.5333 30.5500 19.1057 0.0000 -3.5608 0.0000
# 2 30.5500 93.9204 28.1738 0.0000 -10.7957 0.0000
# 3 19.1057 28.1738 58.4538 0.0000 -5.5589 0.0000
# 4 0.0000 0.0000 0.0000 24.0252 0.0000 0.6348
# 5 -3.5608 -10.7957 -5.5589 0.0000 32.0515 0.0000
# 6 0.0000 0.0000 0.0000 0.6348 0.0000 37.8058
#
#
#
# Elastic Compliance Matrix: (Units=1/GPa)
#
#
# Indices 1 2 3 4 5 6 
#
# 1 0.015971 -0.004264 -0.003185 0.000000 -0.000214 0.000000
# 2 -0.004264 0.013918 -0.004996 0.000000 0.003348 0.000000
# 3 -0.003185 -0.004996 0.020704 0.000000 0.001554 0.000000
# 4 0.000000 0.000000 0.000000 0.041641 0.000000 -0.000699
# 5 -0.000214 0.003348 0.001554 0.000000 0.032573 0.000000
# 6 0.000000 0.000000 0.000000 -0.000699 0.000000 0.026463
#
#
# Mechanical properties :
#
#
# Convention : Reuss Voigt Hill
#
# Bulk Modulus (GPa) = 38.90704 42.50738 40.70721
# Shear Modulus (GPa) = 27.06674 28.71504 27.89089
#
# Velocity S-wave (km/s) = 3.56221 3.66907 3.61604
# Velocity P-wave (km/s) = 5.92953 6.15448 6.04305
#
# Compressibility (1/GPa) = 0.02570229
#
# Stress axis : x y z
#
# Youngs Moduli (GPa) = 62.61410 71.85035 48.29879
#
# Poissons Ratio (x) = 0.30637 0.15384
# Poissons Ratio (y) = 0.26699 0.24131
# Poissons Ratio (z) = 0.19944 0.35897
#
# Static dielectric constant tensor:
#      x y z
#    x 1.811480 0.000000 -0.015350 
#    y 0.000000 1.804680 0.000000 
#    z -0.015350 0.000000 1.790710 
# 
# From -- ./inp_files/89541.got.cif
#   From: 2010.05.17/outbox.cif.g08.bks.cpg/sg15_45_cif.got.tgz:89541.got - 2010.06.03 18:47:42.
