data_PCOD9259753
_publ_section_title
;
Structure prediction by ZEFSAII (Michael W. Deem and Ramdas Pophale) SiO2 
 PCOD9259753
Probable space group: C 2/C
;
_chemical_formula_sum "Si O2"
_cell_formula_units_Z 60
_cell_length_a 17.416376
_cell_length_b 26.547303
_cell_length_c 10.392196
_cell_angle_alpha 90.000000
_cell_angle_beta 148.335811
_cell_angle_gamma 90.000000
_cell_volume 2522.289943
_symmetry_space_group_name_H-M "C 2/C"
_symmetry_group_IT_number 15
_symmetry_cell_setting 'monoclinic'
loop_
_space_group_symop_operation_xyz
x,y,z
-x,y,1/2-z
-x,-y,-z
x,-y,1/2+z
1/2+x,1/2+y,z
1/2-x,1/2+y,1/2-z
1/2-x,1/2-y,-z
1/2+x,1/2-y,1/2+z
loop_
_atom_site_type_symbol
_atom_site_label
_atom_site_fract_x
_atom_site_fract_y
_atom_site_fract_z
Si Si1 0.834870 0.110415 0.468951
Si Si2 0.258235 0.655316 0.979856
Si Si3 0.000000 0.292077 0.250000
Si Si4 0.698079 0.716145 0.697919
Si Si5 0.908156 0.438913 0.745269
Si Si6 0.899119 0.005993 0.477970
Si Si7 0.920110 0.206455 0.440986
Si Si8 0.676654 0.950758 0.305091
O O1 0.718383 0.101736 0.413997
O O2 0.818974 0.060002 0.361246
O O3 0.836574 0.162866 0.400157
O O4 0.000000 0.106804 0.750000
O O5 0.367245 0.689562 0.221606
O O6 0.290614 0.667585 0.877494
O O7 0.253019 0.595267 0.987154
O O8 0.100179 0.675108 0.799024
O O9 0.104198 0.257766 0.485362
O O10 0.858015 0.742372 0.915688
O O11 0.597222 0.706409 0.679789
O O12 0.841907 0.495847 0.648533
O O13 0.000000 0.429495 0.750000
O O14 0.017770 0.436215 0.023940
O O15 0.000000 0.002561 0.750000
O O16 0.776735 0.964053 0.324467
O O17 0.000000 0.000000 0.500000
#
# Coordination Sequence:
#
# PCOD9259753 Si02
#       8
#     8   8   4   8   8   8   8   8
#     4  10  25  45  64  93 124 178 222 273 334 396
#     4  11  22  33  63  94 129 165 209 259 338 399
#     4  10  18  36  52  86 134 158 192 256 332 390
#     4  11  20  39  57  96 126 167 193 271 332 395
#     4  10  24  45  65  89 133 171 216 277 333 386
#     4  10  24  42  66  96 144 180 225 283 338 393
#     4  11  23  39  67  89 135 160 218 265 338 404
#     4  10  25  38  64 100 126 172 226 266 326 407
#
# _framework density 23.787908999999999
#
# number of rings (size 3 to 8) (size 9 to 14) (size 15 to 20)
#    0.000    1.600    2.667    0.800   14.000    1.067 
#    0.000    0.667    0.000    0.800    0.000    0.000 
#    0.000    0.000    0.000    0.000    0.000    0.000 
#
# Total GULP energy -167544.390638 kJ/mol
# GULP energy per Si atom -5584.813021 kJ/mol
# Density = 2.373377 g / cm^3
# Si number density = 23.787909 Si / 1000 Ang^3
#
#
#
# Elastic Constant Matrix: (Units=GPa)
#
#
# Indices 1 2 3 4 5 6 
#
# 1 156.1983 36.3657 30.0474 0.0000 43.7713 0.0000
# 2 36.3657 91.1635 8.5768 0.0000 7.9991 0.0000
# 3 30.0474 8.5768 55.1685 0.0000 20.4690 0.0000
# 4 0.0000 0.0000 0.0000 15.0120 0.0000 7.4780
# 5 43.7713 7.9991 20.4690 0.0000 37.2474 0.0000
# 6 0.0000 0.0000 0.0000 7.4780 0.0000 25.6414
#
#
#
# Elastic Compliance Matrix: (Units=1/GPa)
#
#
# Indices 1 2 3 4 5 6 
#
# 1 0.010404 -0.003084 -0.001126 0.000000 -0.010945 0.000000
# 2 -0.003084 0.012144 -0.000735 0.000000 0.001420 0.000000
# 3 -0.001126 -0.000735 0.022992 0.000000 -0.011154 0.000000
# 4 0.000000 0.000000 0.000000 0.077935 0.000000 -0.022729
# 5 -0.010945 0.001420 -0.011154 0.000000 0.045534 0.000000
# 6 0.000000 0.000000 0.000000 -0.022729 0.000000 0.045628
#
#
# Mechanical properties :
#
#
# Convention : Reuss Voigt Hill
#
# Bulk Modulus (GPa) = 28.05060 50.27890 39.16475
# Shear Modulus (GPa) = 21.14960 30.74953 25.94956
#
# Velocity S-wave (km/s) = 2.98500 3.59925 3.30642
# Velocity P-wave (km/s) = 4.86804 6.20121 5.57462
#
# Compressibility (1/GPa) = 0.03564986
#
# Stress axis : x y z
#
# Youngs Moduli (GPa) = 96.11879 82.34494 43.49266
#
# Poissons Ratio (x) = 0.25394 0.04898
# Poissons Ratio (y) = 0.29641 0.03198
# Poissons Ratio (z) = 0.10824 0.06054
#
# Static dielectric constant tensor:
#      x y z
#    x 1.932420 0.000000 -0.011860 
#    y 0.000000 1.960050 0.000000 
#    z -0.011860 0.000000 2.008590 
# 
# From -- ./inp_files/108444.got.cif
#   From: 2010.05.17/outbox.cif.g08.bks.cpg/sg15_55_cif.got.tgz:108444.got - 2010.06.03 18:47:42.
