data_PCOD9259662
_publ_section_title
;
Structure prediction by ZEFSAII (Michael W. Deem and Ramdas Pophale) SiO2 
 PCOD9259662
Probable space group: C 2/C
;
_chemical_formula_sum "Si O2"
_cell_formula_units_Z 52
_cell_length_a 8.101332
_cell_length_b 19.303938
_cell_length_c 15.987625
_cell_angle_alpha 90.000000
_cell_angle_beta 61.834288
_cell_angle_gamma 90.000000
_cell_volume 2204.200136
_symmetry_space_group_name_H-M "C 2/C"
_symmetry_group_IT_number 15
_symmetry_cell_setting 'monoclinic'
loop_
_space_group_symop_operation_xyz
x,y,z
-x,y,1/2-z
-x,-y,-z
x,-y,1/2+z
1/2+x,1/2+y,z
1/2-x,1/2+y,1/2-z
1/2-x,1/2-y,-z
1/2+x,1/2-y,1/2+z
loop_
_atom_site_type_symbol
_atom_site_label
_atom_site_fract_x
_atom_site_fract_y
_atom_site_fract_z
Si Si1 0.614546 0.588676 0.916250
Si Si2 0.676527 0.436660 0.873864
Si Si3 0.000000 0.934094 0.750000
Si Si4 0.279817 0.685509 0.382801
Si Si5 0.088341 0.685563 0.123203
Si Si6 0.793884 0.839388 0.395626
Si Si7 0.057355 0.321972 0.111000
O O1 0.698185 0.511769 0.910369
O O2 0.467349 0.609939 0.877187
O O3 0.793894 0.637685 0.868146
O O4 0.489593 0.598447 0.030612
O O5 0.630838 0.463371 0.790920
O O6 0.838877 0.379633 0.840541
O O7 0.869726 0.886535 0.838176
O O8 0.162170 0.683414 0.496213
O O9 0.439147 0.743668 0.355666
O O10 0.129021 0.696583 0.345746
O O11 0.151404 0.760637 0.139659
O O12 0.186056 0.669681 0.010004
O O13 0.639870 0.858123 0.362322
#
# Coordination Sequence:
#
# PCOD9259662 Si02
#       7
#     8   8   4   8   8   8   8
#     4  10  19  39  58  89 115 159 198 255 285 366
#     4  10  22  36  58  82 123 156 201 239 312 352
#     4  12  22  38  56  86 122 164 188 254 294 368
#     4  10  20  33  61  89 121 149 203 242 310 345
#     4   9  17  34  54  90 115 153 189 252 285 369
#     4   9  17  30  61  88 118 140 202 244 304 329
#     4  10  18  35  62  93 112 155 196 257 285 365
#
# _framework density 23.591322999999999
#
# number of rings (size 3 to 8) (size 9 to 14) (size 15 to 20)
#    0.000    2.154    3.077    0.923    4.308    0.615 
#    2.769    3.077    6.769    0.000    0.000    0.000 
#    0.000    0.000    0.000    0.000    0.000    0.000 
#
# Total GULP energy -144830.720146 kJ/mol
# GULP energy per Si atom -5570.412313 kJ/mol
# Density = 2.353763 g / cm^3
# Si number density = 23.591323 Si / 1000 Ang^3
#
#
#
# Elastic Constant Matrix: (Units=GPa)
#
#
# Indices 1 2 3 4 5 6 
#
# 1 145.1842 33.3474 8.4732 0.0000 12.6778 0.0000
# 2 33.3474 53.5459 -4.8997 0.0000 -5.5128 0.0000
# 3 8.4732 -4.8997 64.6795 0.0000 10.6337 0.0000
# 4 0.0000 0.0000 0.0000 18.7903 0.0000 -1.6730
# 5 12.6778 -5.5128 10.6337 0.0000 16.4304 0.0000
# 6 0.0000 0.0000 0.0000 -1.6730 0.0000 22.8089
#
#
#
# Elastic Compliance Matrix: (Units=1/GPa)
#
#
# Indices 1 2 3 4 5 6 
#
# 1 0.009257 -0.006738 -0.000198 0.000000 -0.009275 0.000000
# 2 -0.006738 0.024260 0.000590 0.000000 0.012957 0.000000
# 3 -0.000198 0.000590 0.017316 0.000000 -0.010856 0.000000
# 4 0.000000 0.000000 0.000000 0.053569 0.000000 0.003929
# 5 -0.009275 0.012957 -0.010856 0.000000 0.079393 0.000000
# 6 0.000000 0.000000 0.000000 0.003929 0.000000 0.044131
#
#
# Mechanical properties :
#
#
# Convention : Reuss Voigt Hill
#
# Bulk Modulus (GPa) = 26.21840 37.47235 31.84538
# Shear Modulus (GPa) = 19.73697 26.70517 23.22107
#
# Velocity S-wave (km/s) = 2.89558 3.36816 3.14077
# Velocity P-wave (km/s) = 4.72407 5.57175 5.16533
#
# Compressibility (1/GPa) = 0.03814115
#
# Stress axis : x y z
#
# Youngs Moduli (GPa) = 108.02641 41.22021 57.74892
#
# Poissons Ratio (x) = 0.27775 0.01145
# Poissons Ratio (y) = 0.72790 -0.03409
# Poissons Ratio (z) = 0.02141 -0.02433
#
# Static dielectric constant tensor:
#      x y z
#    x 2.088980 0.000000 0.071280 
#    y 0.000000 1.866160 0.000000 
#    z 0.071280 0.000000 1.937200 
# 
# From -- ./inp_files/190345.got.cif
#   From: 2010.05.17/outbox.cif.g08.bks.cpg/sg15_96_cif.got.tgz:190345.got - 2010.06.03 18:47:42.
