data_PCOD9259804
_publ_section_title
;
Structure prediction by ZEFSAII (Michael W. Deem and Ramdas Pophale) SiO2 
 PCOD9259804
Probable space group: C 2/C
;
_chemical_formula_sum "Si O2"
_cell_formula_units_Z 56
_cell_length_a 28.468695
_cell_length_b 17.174191
_cell_length_c 17.890414
_cell_angle_alpha 90.000000
_cell_angle_beta 158.173092
_cell_angle_gamma 90.000000
_cell_volume 3252.206492
_symmetry_space_group_name_H-M "C 2/C"
_symmetry_group_IT_number 15
_symmetry_cell_setting 'monoclinic'
loop_
_space_group_symop_operation_xyz
x,y,z
-x,y,1/2-z
-x,-y,-z
x,-y,1/2+z
1/2+x,1/2+y,z
1/2-x,1/2+y,1/2-z
1/2-x,1/2-y,-z
1/2+x,1/2-y,1/2+z
loop_
_atom_site_type_symbol
_atom_site_label
_atom_site_fract_x
_atom_site_fract_y
_atom_site_fract_z
Si Si1 0.627201 0.453979 0.987110
Si Si2 0.872940 0.864189 0.012478
Si Si3 0.673053 0.233394 0.311723
Si Si4 0.274266 0.833542 0.109872
Si Si5 0.656715 0.328876 0.150276
Si Si6 0.042885 0.725298 0.730206
Si Si7 0.105642 0.733486 0.571718
O O1 0.651599 0.544738 0.034699
O O2 0.735063 0.409826 0.098110
O O3 0.614183 0.407439 0.046081
O O4 0.500000 0.446172 0.750000
O O5 0.757025 0.823523 0.884700
O O6 0.894117 0.817633 0.966781
O O7 0.000000 0.854959 0.250000
O O8 0.750000 0.250000 0.500000
O O9 0.645615 0.310885 0.221313
O O10 0.535578 0.202059 0.130053
O O11 0.380111 0.839472 0.202347
O O12 0.331703 0.772070 0.254327
O O13 0.145420 0.795171 0.889388
O O14 0.803410 0.317640 0.346194
O O15 0.576166 0.260415 0.990177
O O16 0.000000 0.702932 0.750000
#
# Coordination Sequence:
#
# PCOD9259804 Si02
#       7
#     8   8   8   8   8   8   8
#     4  10  18  36  56  83 117 143 177 227 295 341
#     4  10  21  35  59  81 108 148 186 234 277 332
#     4  11  21  36  57  79 108 145 203 231 265 320
#     4  10  19  30  56  82 111 145 180 222 280 338
#     4  10  19  33  56  81 111 142 183 230 276 328
#     4  11  17  30  52  87 112 138 182 227 274 330
#     4  10  19  34  54  82 102 145 191 227 268 320
#
# _framework density 17.219078
#
# number of rings (size 3 to 8) (size 9 to 14) (size 15 to 20)
#    0.000    1.714    7.143    0.000    0.000    0.000 
#    0.000    3.571    6.286    0.000    3.714    0.000 
#    0.000    0.000    0.000    0.000    0.000    0.000 
#
# Total GULP energy -155961.232355 kJ/mol
# GULP energy per Si atom -5570.044013 kJ/mol
# Density = 1.717989 g / cm^3
# Si number density = 17.219078 Si / 1000 Ang^3
#
#
#
# Elastic Constant Matrix: (Units=GPa)
#
#
# Indices 1 2 3 4 5 6 
#
# 1 103.5973 31.6209 37.6921 0.0000 -0.1459 0.0000
# 2 31.6209 91.7694 28.3819 0.0000 -6.5647 0.0000
# 3 37.6921 28.3819 95.8707 0.0000 4.1477 0.0000
# 4 0.0000 0.0000 0.0000 19.7048 0.0000 -2.8285
# 5 -0.1459 -6.5647 4.1477 0.0000 38.5994 0.0000
# 6 0.0000 0.0000 0.0000 -2.8285 0.0000 18.1608
#
#
#
# Elastic Compliance Matrix: (Units=1/GPa)
#
#
# Indices 1 2 3 4 5 6 
#
# 1 0.011940 -0.002935 -0.003823 0.000000 -0.000043 0.000000
# 2 -0.002935 0.012948 -0.002787 0.000000 0.002491 0.000000
# 3 -0.003823 -0.002787 0.012840 0.000000 -0.001868 0.000000
# 4 0.000000 0.000000 0.000000 0.051910 0.000000 0.008085
# 5 -0.000043 0.002491 -0.001868 0.000000 0.026531 0.000000
# 6 0.000000 0.000000 0.000000 0.008085 0.000000 0.056323
#
#
# Mechanical properties :
#
#
# Convention : Reuss Voigt Hill
#
# Bulk Modulus (GPa) = 53.65644 54.06967 53.86306
# Shear Modulus (GPa) = 25.27880 28.19584 26.73732
#
# Velocity S-wave (km/s) = 3.83570 4.05096 3.94480
# Velocity P-wave (km/s) = 7.13060 7.30408 7.21786
#
# Compressibility (1/GPa) = 0.01863709
#
# Stress axis : x y z
#
# Youngs Moduli (GPa) = 83.75546 77.23065 77.88226
#
# Poissons Ratio (x) = 0.22664 0.29778
# Poissons Ratio (y) = 0.24579 0.21708
# Poissons Ratio (z) = 0.32024 0.21526
#
# Static dielectric constant tensor:
#      x y z
#    x 1.629520 0.000000 0.001000 
#    y 0.000000 1.565390 0.000000 
#    z 0.001000 0.000000 1.616310 
# 
# From -- ./inp_files/154558.got.cif
#   From: 2010.05.17/outbox.cif.g08.bks.cpg/sg15_78_cif.got.tgz:154558.got - 2010.06.03 18:47:42.
