data_PCOD9259534
_publ_section_title
;
Structure prediction by ZEFSAII (Michael W. Deem and Ramdas Pophale) SiO2 
 PCOD9259534
Probable space group: C 2/C
;
_chemical_formula_sum "Si O2"
_cell_formula_units_Z 48
_cell_length_a 8.294032
_cell_length_b 15.334556
_cell_length_c 18.913456
_cell_angle_alpha 90.000000
_cell_angle_beta 131.470832
_cell_angle_gamma 90.000000
_cell_volume 1802.434334
_symmetry_space_group_name_H-M "C 2/C"
_symmetry_group_IT_number 15
_symmetry_cell_setting 'monoclinic'
loop_
_space_group_symop_operation_xyz
x,y,z
-x,y,1/2-z
-x,-y,-z
x,-y,1/2+z
1/2+x,1/2+y,z
1/2-x,1/2+y,1/2-z
1/2-x,1/2-y,-z
1/2+x,1/2-y,1/2+z
loop_
_atom_site_type_symbol
_atom_site_label
_atom_site_fract_x
_atom_site_fract_y
_atom_site_fract_z
Si Si1 0.204410 0.064866 0.549342
Si Si2 0.940479 0.244683 0.310974
Si Si3 0.019854 0.750590 0.518709
Si Si4 0.005722 0.692360 0.141274
Si Si5 0.346194 0.000685 0.296540
Si Si6 0.098233 0.041578 0.367540
O O1 0.245614 0.044965 0.478449
O O2 0.102683 0.159273 0.531556
O O3 0.441857 0.056818 0.651642
O O4 0.000000 0.000000 0.500000
O O5 0.014989 0.276597 0.410031
O O6 0.682937 0.249807 0.231959
O O7 0.000000 0.276412 0.250000
O O8 0.012403 0.141457 0.331791
O O9 0.962310 0.691184 0.434862
O O10 0.270864 0.772459 0.586545
O O11 0.047370 0.595898 0.181088
O O12 0.231306 0.003484 0.340548
O O13 0.129728 0.990089 0.186954
#
# Coordination Sequence:
#
# PCOD9259534 Si02
#       6
#     8   8   8   8   8   8
#     4  11  21  34  57  89 121 157 206 261 318 376
#     4  10  18  35  59  89 112 155 213 263 305 373
#     4  10  22  35  58  92 121 162 207 260 320 379
#     4  10  19  37  60  85 123 160 207 255 313 381
#     4  10  18  37  61  84 116 162 205 258 310 386
#     4   9  19  35  58  83 114 156 212 251 313 379
#
# _framework density 26.630652000000001
#
# number of rings (size 3 to 8) (size 9 to 14) (size 15 to 20)
#    0.000    2.000    5.000    1.000    0.000    1.333 
#    0.000    0.000    3.667    2.000    0.000    0.000 
#    0.000    0.000    0.000    0.000    0.000    0.000 
#
# Total GULP energy -134204.528048 kJ/mol
# GULP energy per Si atom -5591.855335 kJ/mol
# Density = 2.657004 g / cm^3
# Si number density = 26.630652 Si / 1000 Ang^3
#
#
#
# Elastic Constant Matrix: (Units=GPa)
#
#
# Indices 1 2 3 4 5 6 
#
# 1 122.5999 35.7167 63.3693 0.0000 12.5404 0.0000
# 2 35.7167 53.1724 22.4558 0.0000 4.1109 0.0000
# 3 63.3693 22.4558 184.6041 0.0000 14.7001 0.0000
# 4 0.0000 0.0000 0.0000 12.4527 0.0000 5.5571
# 5 12.5404 4.1109 14.7001 0.0000 78.8518 0.0000
# 6 0.0000 0.0000 0.0000 5.5571 0.0000 17.3335
#
#
#
# Elastic Compliance Matrix: (Units=1/GPa)
#
#
# Indices 1 2 3 4 5 6 
#
# 1 0.011793 -0.006505 -0.003182 0.000000 -0.000943 0.000000
# 2 -0.006505 0.023440 -0.000613 0.000000 -0.000073 0.000000
# 3 -0.003182 -0.000613 0.006639 0.000000 -0.000700 0.000000
# 4 0.000000 0.000000 0.000000 0.093711 0.000000 -0.030044
# 5 -0.000943 -0.000073 -0.000700 0.000000 0.012966 0.000000
# 6 0.000000 0.000000 0.000000 -0.030044 0.000000 0.067324
#
#
# Mechanical properties :
#
#
# Convention : Reuss Voigt Hill
#
# Bulk Modulus (GPa) = 47.00481 67.05112 57.02796
# Shear Modulus (GPa) = 20.52859 37.64991 29.08925
#
# Velocity S-wave (km/s) = 2.77945 3.76411 3.30861
# Velocity P-wave (km/s) = 5.29051 6.64260 6.00473
#
# Compressibility (1/GPa) = 0.02127442
#
# Stress axis : x y z
#
# Youngs Moduli (GPa) = 84.79859 42.66132 150.61500
#
# Poissons Ratio (x) = 0.27750 0.47922
# Poissons Ratio (y) = 0.55159 0.09228
# Poissons Ratio (z) = 0.26981 0.02614
#
# Static dielectric constant tensor:
#      x y z
#    x 2.125440 0.000000 -0.017180 
#    y 0.000000 2.132300 0.000000 
#    z -0.017180 0.000000 2.093370 
# 
# From -- ./inp_files/233987.got.cif
#   From: 2010.05.17/outbox.cif.g08.bks.cpg/sg15_117_cif.got.tgz:233987.got - 2010.06.03 18:47:42.
