data_PCOD9259364
_publ_section_title
;
Structure prediction by ZEFSAII (Michael W. Deem and Ramdas Pophale) SiO2 
 PCOD9259364
Probable space group: C 2/C
;
_chemical_formula_sum "Si O2"
_cell_formula_units_Z 40
_cell_length_a 6.373198
_cell_length_b 17.567768
_cell_length_c 17.524858
_cell_angle_alpha 90.000000
_cell_angle_beta 97.633758
_cell_angle_gamma 90.000000
_cell_volume 1944.743775
_symmetry_space_group_name_H-M "C 2/C"
_symmetry_group_IT_number 15
_symmetry_cell_setting 'monoclinic'
loop_
_space_group_symop_operation_xyz
x,y,z
-x,y,1/2-z
-x,-y,-z
x,-y,1/2+z
1/2+x,1/2+y,z
1/2-x,1/2+y,1/2-z
1/2-x,1/2-y,-z
1/2+x,1/2-y,1/2+z
loop_
_atom_site_type_symbol
_atom_site_label
_atom_site_fract_x
_atom_site_fract_y
_atom_site_fract_z
Si Si1 0.261643 0.628065 0.060500
Si Si2 0.895956 0.781813 0.827641
Si Si3 0.351110 0.181361 0.956018
Si Si4 0.256788 0.978346 0.513590
Si Si5 0.921138 0.419606 0.668772
O O1 0.437488 0.682288 0.104052
O O2 0.120414 0.603059 0.126350
O O3 0.359303 0.552665 0.025015
O O4 0.093962 0.667649 0.995191
O O5 0.830507 0.704353 0.866873
O O6 0.706745 0.843131 0.815394
O O7 0.000000 0.772445 0.750000
O O8 0.250000 0.250000 0.000000
O O9 0.232864 0.103452 0.972404
O O10 0.275597 0.969214 0.605599
O O11 0.500000 0.000000 0.500000
O O12 0.000000 0.457546 0.750000
#
# Coordination Sequence:
#
# PCOD9259364 Si02
#       5
#     8   8   8   8   8
#     4  10  21  38  59  84 111 148 196 224 279 345
#     4  12  22  33  61  88 109 149 194 231 284 335
#     4  10  18  37  58  81 114 150 182 235 279 329
#     4   8  18  36  59  81 108 151 186 224 279 336
#     4  10  18  35  55  83 113 144 179 237 276 327
#
# _framework density 20.568261
#
# number of rings (size 3 to 8) (size 9 to 14) (size 15 to 20)
#    0.000    2.400    6.000    0.600    0.000    0.800 
#    0.000    9.000    0.000    1.200    0.000    0.000 
#    0.000    0.000    0.000    0.000    0.000    0.000 
#
# Total GULP energy -111569.675927 kJ/mol
# GULP energy per Si atom -5578.483796 kJ/mol
# Density = 2.052145 g / cm^3
# Si number density = 20.568261 Si / 1000 Ang^3
#
#
#
# Elastic Constant Matrix: (Units=GPa)
#
#
# Indices 1 2 3 4 5 6 
#
# 1 47.8152 28.8350 26.6397 0.0000 2.5155 0.0000
# 2 28.8350 123.7371 61.0903 0.0000 -9.2119 0.0000
# 3 26.6397 61.0903 164.1062 0.0000 -14.1950 0.0000
# 4 0.0000 0.0000 0.0000 29.5345 0.0000 1.2553
# 5 2.5155 -9.2119 -14.1950 0.0000 38.4716 0.0000
# 6 0.0000 0.0000 0.0000 1.2553 0.0000 33.0329
#
#
#
# Elastic Compliance Matrix: (Units=1/GPa)
#
#
# Indices 1 2 3 4 5 6 
#
# 1 0.025566 -0.004938 -0.002643 0.000000 -0.003829 0.000000
# 2 -0.004938 0.010896 -0.003100 0.000000 0.001788 0.000000
# 3 -0.002643 -0.003100 0.007879 0.000000 0.002338 0.000000
# 4 0.000000 0.000000 0.000000 0.033914 0.000000 -0.001289
# 5 -0.003829 0.001788 0.002338 0.000000 0.027534 0.000000
# 6 0.000000 0.000000 0.000000 -0.001289 0.000000 0.030322
#
#
# Mechanical properties :
#
#
# Convention : Reuss Voigt Hill
#
# Bulk Modulus (GPa) = 43.51864 63.19873 53.35868
# Shear Modulus (GPa) = 30.27895 34.81403 32.54649
#
# Velocity S-wave (km/s) = 3.84098 4.11860 3.98221
# Velocity P-wave (km/s) = 6.39335 7.30823 6.86604
#
# Compressibility (1/GPa) = 0.02297866
#
# Stress axis : x y z
#
# Youngs Moduli (GPa) = 39.11501 91.77781 126.92178
#
# Poissons Ratio (x) = 0.45318 0.33548
# Poissons Ratio (y) = 0.19314 0.39344
# Poissons Ratio (z) = 0.10339 0.28450
#
# Static dielectric constant tensor:
#      x y z
#    x 1.932580 0.000000 0.029680 
#    y 0.000000 1.767380 0.000000 
#    z 0.029680 0.000000 1.729780 
# 
# From -- ./inp_files/133916.got.cif
#   From: 2010.05.17/outbox.cif.g08.bks.cpg/sg15_67_cif.got.tgz:133916.got - 2010.06.03 18:47:42.
