data_PCOD9259246
_publ_section_title
;
Structure prediction by ZEFSAII (Michael W. Deem and Ramdas Pophale) SiO2 
 PCOD9259246
Probable space group: C 2/C
;
_chemical_formula_sum "Si O2"
_cell_formula_units_Z 36
_cell_length_a 12.446288
_cell_length_b 25.995760
_cell_length_c 7.780659
_cell_angle_alpha 90.000000
_cell_angle_beta 43.859045
_cell_angle_gamma 90.000000
_cell_volume 1744.298914
_symmetry_space_group_name_H-M "C 2/C"
_symmetry_group_IT_number 15
_symmetry_cell_setting 'monoclinic'
loop_
_space_group_symop_operation_xyz
x,y,z
-x,y,1/2-z
-x,-y,-z
x,-y,1/2+z
1/2+x,1/2+y,z
1/2-x,1/2+y,1/2-z
1/2-x,1/2-y,-z
1/2+x,1/2-y,1/2+z
loop_
_atom_site_type_symbol
_atom_site_label
_atom_site_fract_x
_atom_site_fract_y
_atom_site_fract_z
Si Si1 0.425660 0.053400 0.151583
Si Si2 0.834188 0.278218 0.740520
Si Si3 0.683409 0.376472 0.043150
Si Si4 0.000000 0.626879 0.750000
Si Si5 0.685415 0.186422 0.784015
O O1 0.500000 0.065391 0.250000
O O2 0.248376 0.068180 0.404774
O O3 0.465731 0.091735 0.952337
O O4 0.500000 0.000000 0.000000
O O5 0.802161 0.234230 0.637992
O O6 0.015933 0.291810 0.540028
O O7 0.750000 0.250000 0.000000
O O8 0.746045 0.332337 0.842261
O O9 0.500000 0.376027 0.250000
O O10 0.749669 0.355494 0.151898
O O11 0.857429 0.661059 0.847684
#
# Coordination Sequence:
#
# PCOD9259246 Si02
#       5
#     8   8   8   4   8
#     4  12  24  46  77  99 130 180 239 290 354 416
#     4  10  18  34  62  95 132 185 224 271 331 409
#     4  11  21  41  68 102 140 181 227 290 349 411
#     4  12  24  42  72 100 134 186 234 288 344 412
#     4  11  22  38  65 100 140 187 234 271 345 417
#
# _framework density 20.638663000000001
#
# number of rings (size 3 to 8) (size 9 to 14) (size 15 to 20)
#    0.000    0.889    5.556    5.333    0.000    0.889 
#    0.000    2.222    0.000    0.000    0.000    0.000 
#    0.000    0.000    0.000    0.000    0.000    0.000 
#
# Total GULP energy -100222.602576 kJ/mol
# GULP energy per Si atom -5567.922365 kJ/mol
# Density = 2.059169 g / cm^3
# Si number density = 20.638663 Si / 1000 Ang^3
#
#
#
# Elastic Constant Matrix: (Units=GPa)
#
#
# Indices 1 2 3 4 5 6 
#
# 1 155.8824 53.7548 63.3308 0.0000 4.8956 0.0000
# 2 53.7548 115.3340 43.1008 0.0000 -8.4808 0.0000
# 3 63.3308 43.1008 98.8962 0.0000 -22.0993 0.0000
# 4 0.0000 0.0000 0.0000 42.4647 0.0000 10.6185
# 5 4.8956 -8.4808 -22.0993 0.0000 54.8374 0.0000
# 6 0.0000 0.0000 0.0000 10.6185 0.0000 30.7131
#
#
#
# Elastic Compliance Matrix: (Units=1/GPa)
#
#
# Indices 1 2 3 4 5 6 
#
# 1 0.009881 -0.002632 -0.006010 0.000000 -0.003711 0.000000
# 2 -0.002632 0.011061 -0.002968 0.000000 0.000750 0.000000
# 3 -0.006010 -0.002968 0.016782 0.000000 0.006841 0.000000
# 4 0.000000 0.000000 0.000000 0.025777 0.000000 -0.008912
# 5 -0.003711 0.000750 0.006841 0.000000 0.021440 0.000000
# 6 0.000000 0.000000 0.000000 -0.008912 0.000000 0.035641
#
#
# Mechanical properties :
#
#
# Convention : Reuss Voigt Hill
#
# Bulk Modulus (GPa) = 68.93996 76.72061 72.83028
# Shear Modulus (GPa) = 33.63922 39.59811 36.61867
#
# Velocity S-wave (km/s) = 4.04160 4.38498 4.21678
# Velocity P-wave (km/s) = 7.43338 7.93040 7.68591
#
# Compressibility (1/GPa) = 0.01450538
#
# Stress axis : x y z
#
# Youngs Moduli (GPa) = 101.20531 90.40374 59.58817
#
# Poissons Ratio (x) = 0.23798 0.35810
# Poissons Ratio (y) = 0.26641 0.17683
# Poissons Ratio (z) = 0.60820 0.26828
#
# Static dielectric constant tensor:
#      x y z
#    x 1.849300 0.000000 0.054930 
#    y 0.000000 1.824870 0.000000 
#    z 0.054930 0.000000 1.775540 
# 
# From -- ./inp_files/33262.got.cif
#   From: 2010.05.17/outbox.cif.g08.bks.cpg/sg15_17_cif.got.tgz:33262.got - 2010.06.03 18:47:42.
