data_PCOD9259746
_publ_section_title
;
Structure prediction by ZEFSAII (Michael W. Deem and Ramdas Pophale) SiO2 
 PCOD9259746
Probable space group: C 2/C
;
_chemical_formula_sum "Si O2"
_cell_formula_units_Z 56
_cell_length_a 10.926390
_cell_length_b 29.924902
_cell_length_c 7.945349
_cell_angle_alpha 90.000000
_cell_angle_beta 111.307811
_cell_angle_gamma 90.000000
_cell_volume 2420.311873
_symmetry_space_group_name_H-M "C 2/C"
_symmetry_group_IT_number 15
_symmetry_cell_setting 'monoclinic'
loop_
_space_group_symop_operation_xyz
x,y,z
-x,y,1/2-z
-x,-y,-z
x,-y,1/2+z
1/2+x,1/2+y,z
1/2-x,1/2+y,1/2-z
1/2-x,1/2-y,-z
1/2+x,1/2-y,1/2+z
loop_
_atom_site_type_symbol
_atom_site_label
_atom_site_fract_x
_atom_site_fract_y
_atom_site_fract_z
Si Si1 0.751348 0.966313 0.754049
Si Si2 0.250625 0.283278 0.247782
Si Si3 0.843538 0.945688 0.172161
Si Si4 0.633596 0.365979 0.077293
Si Si5 0.000000 0.329659 0.250000
Si Si6 0.344967 0.194096 0.173563
Si Si7 0.866590 0.615418 0.426175
Si Si8 0.000000 0.917823 0.750000
O O1 0.631544 0.936588 0.622913
O O2 0.874327 0.949122 0.703636
O O3 0.760256 0.019459 0.744117
O O4 0.784177 0.951657 0.958717
O O5 0.368407 0.314419 0.374275
O O6 0.124739 0.297949 0.291907
O O7 0.279080 0.231091 0.261033
O O8 0.217745 0.298479 0.040309
O O9 0.837437 0.896535 0.247272
O O10 0.000000 0.957044 0.250000
O O11 0.750821 0.375062 0.002920
O O12 0.509482 0.386408 0.918234
O O13 0.010724 0.362074 0.417783
O O14 0.500000 0.205060 0.250000
O O15 0.334778 0.144947 0.246527
#
# Coordination Sequence:
#
# PCOD9259746 Si02
#       8
#     8   8   8   8   4   8   8   4
#     4  11  21  35  59  90 126 166 209 255 314 379
#     4  10  23  42  66  94 125 166 214 260 316 381
#     4  12  21  36  62  89 133 170 207 261 322 375
#     4  10  22  37  58  90 126 166 207 251 319 376
#     4  10  20  42  67  88 126 170 208 258 319 378
#     4  11  22  44  67  93 124 162 213 268 320 372
#     4  10  22  40  62  89 121 165 210 254 313 373
#     4  10  18  36  51  88 126 166 202 250 309 378
#
# _framework density 23.137513999999999
#
# number of rings (size 3 to 8) (size 9 to 14) (size 15 to 20)
#    0.000    1.429    3.571    3.000    0.000    2.857 
#   10.286    1.429    0.000    7.714    7.429    0.000 
#    0.000    0.000    0.000    0.000    0.000    0.000 
#
# Total GULP energy -156446.425488 kJ/mol
# GULP energy per Si atom -5587.372339 kJ/mol
# Density = 2.308485 g / cm^3
# Si number density = 23.137514 Si / 1000 Ang^3
#
#
#
# Elastic Constant Matrix: (Units=GPa)
#
#
# Indices 1 2 3 4 5 6 
#
# 1 30.8043 4.2955 -6.6365 0.0000 1.5855 0.0000
# 2 4.2955 74.4568 -4.9692 0.0000 0.6754 0.0000
# 3 -6.6365 -4.9692 64.9801 0.0000 -11.3568 0.0000
# 4 0.0000 0.0000 0.0000 3.9444 0.0000 -6.4352
# 5 1.5855 0.6754 -11.3568 0.0000 18.2882 0.0000
# 6 0.0000 0.0000 0.0000 -6.4352 0.0000 29.5220
#
#
#
# Elastic Compliance Matrix: (Units=1/GPa)
#
#
# Indices 1 2 3 4 5 6 
#
# 1 0.033421 -0.001711 0.003126 0.000000 -0.000893 0.000000
# 2 -0.001711 0.013588 0.000900 0.000000 0.000206 0.000000
# 3 0.003126 0.000900 0.017639 0.000000 0.010649 0.000000
# 4 0.000000 0.000000 0.000000 0.393447 0.000000 0.085763
# 5 -0.000893 0.000206 0.010649 0.000000 0.061363 0.000000
# 6 0.000000 0.000000 0.000000 0.085763 0.000000 0.052568
#
#
# Mechanical properties :
#
#
# Convention : Reuss Voigt Hill
#
# Bulk Modulus (GPa) = 14.43458 17.29118 15.86288
# Shear Modulus (GPa) = 8.46759 22.18768 15.32763
#
# Velocity S-wave (km/s) = 1.91510 3.10005 2.57662
# Velocity P-wave (km/s) = 3.33801 4.50591 3.96519
#
# Compressibility (1/GPa) = 0.06927809
#
# Stress axis : x y z
#
# Youngs Moduli (GPa) = 29.92115 73.59682 56.69368
#
# Poissons Ratio (x) = 0.12595 -0.17725
# Poissons Ratio (y) = 0.05120 -0.05104
# Poissons Ratio (z) = -0.09355 -0.06625
#
# Static dielectric constant tensor:
#      x y z
#    x 1.904400 0.000000 0.021730 
#    y 0.000000 1.879190 0.000000 
#    z 0.021730 0.000000 1.907550 
# 
# From -- ./inp_files/34373.got.cif
#   From: 2010.05.17/outbox.cif.g08.bks.cpg/sg15_18_cif.got.tgz:34373.got - 2010.06.03 18:47:42.
