data_PCOD9259326
_publ_section_title
;
Structure prediction by ZEFSAII (Michael W. Deem and Ramdas Pophale) SiO2 
 PCOD9259326
Probable space group: C 2/C
;
_chemical_formula_sum "Si O2"
_cell_formula_units_Z 48
_cell_length_a 23.388106
_cell_length_b 13.273632
_cell_length_c 26.740531
_cell_angle_alpha 90.000000
_cell_angle_beta 159.989412
_cell_angle_gamma 90.000000
_cell_volume 2840.710492
_symmetry_space_group_name_H-M "C 2/C"
_symmetry_group_IT_number 15
_symmetry_cell_setting 'monoclinic'
loop_
_space_group_symop_operation_xyz
x,y,z
-x,y,1/2-z
-x,-y,-z
x,-y,1/2+z
1/2+x,1/2+y,z
1/2-x,1/2+y,1/2-z
1/2-x,1/2-y,-z
1/2+x,1/2-y,1/2+z
loop_
_atom_site_type_symbol
_atom_site_label
_atom_site_fract_x
_atom_site_fract_y
_atom_site_fract_z
Si Si1 0.692600 0.541308 0.619541
Si Si2 0.668342 0.851701 0.358911
Si Si3 0.866082 0.368109 0.353967
Si Si4 0.981754 0.137836 0.292830
Si Si5 0.842752 0.134240 0.341413
Si Si6 0.207540 0.546283 0.135776
O O1 0.796172 0.571523 0.656570
O O2 0.735802 0.611407 0.702614
O O3 0.501870 0.571019 0.452314
O O4 0.710771 0.426989 0.653406
O O5 0.500000 0.880083 0.250000
O O6 0.620690 0.743249 0.295665
O O7 0.835973 0.846186 0.531338
O O8 0.879654 0.251059 0.377304
O O9 0.813739 0.435111 0.358754
O O10 0.035421 0.416144 0.470305
O O11 0.865123 0.065227 0.230007
O O12 0.000000 0.104189 0.250000
O O13 0.715025 0.117533 0.191256
#
# Coordination Sequence:
#
# PCOD9259326 Si02
#       6
#     8   8   8   8   8   8
#     4  10  21  31  54  76 105 134 172 207 255 310
#     4  11  22  35  52  77 102 139 173 212 257 307
#     4  10  20  33  53  76 108 135 170 209 254 306
#     4  11  22  35  53  75 104 138 174 211 258 305
#     4  10  18  35  51  78 102 137 166 211 258 301
#     4  10  21  33  50  80 103 137 172 206 256 306
#
# _framework density 16.897182000000001
#
# number of rings (size 3 to 8) (size 9 to 14) (size 15 to 20)
#    0.000    1.667    1.667    5.000    4.667    0.000 
#    0.000    0.000    0.000    1.000    0.000    2.333 
#    0.000    0.000    0.000    0.000    0.000    0.000 
#
# Total GULP energy -133761.761188 kJ/mol
# GULP energy per Si atom -5573.406716 kJ/mol
# Density = 1.685872 g / cm^3
# Si number density = 16.897182 Si / 1000 Ang^3
#
#
#
# Elastic Constant Matrix: (Units=GPa)
#
#
# Indices 1 2 3 4 5 6 
#
# 1 78.3475 31.9155 17.7687 -0.0027 7.4105 0.0015
# 2 31.9155 80.8443 6.4618 0.0015 -3.8845 0.0095
# 3 17.7687 6.4618 69.8673 0.0264 3.1215 0.0016
# 4 -0.0027 0.0015 0.0264 17.1669 0.0011 2.9917
# 5 7.4105 -3.8845 3.1215 0.0011 25.0069 0.0008
# 6 0.0015 0.0095 0.0016 2.9917 0.0008 24.0263
#
#
#
# Elastic Compliance Matrix: (Units=1/GPa)
#
#
# Indices 1 2 3 4 5 6 
#
# 1 0.016754 -0.006610 -0.003401 0.000009 -0.005567 0.000001
# 2 -0.006610 0.015179 0.000085 -0.000002 0.004306 -0.000006
# 3 -0.003401 0.000085 0.015209 -0.000024 -0.000878 0.000002
# 4 0.000009 -0.000002 -0.000024 0.059544 -0.000002 -0.007414
# 5 -0.005567 0.004306 -0.000878 -0.000002 0.042417 -0.000002
# 6 0.000001 -0.000006 0.000002 -0.007414 -0.000002 0.042544
#
#
# Mechanical properties :
#
#
# Convention : Reuss Voigt Hill
#
# Bulk Modulus (GPa) = 36.64293 37.92790 37.28542
# Shear Modulus (GPa) = 22.66591 24.76757 23.71674
#
# Velocity S-wave (km/s) = 3.66649 3.83271 3.75052
# Velocity P-wave (km/s) = 6.29739 6.48700 6.39290
#
# Compressibility (1/GPa) = 0.02729040
#
# Stress axis : x y z
#
# Youngs Moduli (GPa) = 59.68702 65.88063 65.75000
#
# Poissons Ratio (x) = 0.43546 0.22361
# Poissons Ratio (y) = 0.39452 -0.00557
# Poissons Ratio (z) = 0.20299 -0.00558
#
# Static dielectric constant tensor:
#      x y z
#    x 1.570590 0.000000 0.000200 
#    y 0.000000 1.559620 0.000000 
#    z 0.000200 0.000000 1.600930 
# 
# From -- ./inp_files/60674.got.cif
#   From: 2010.05.17/outbox.cif.g08.bks.cpg/sg15_31_cif.got.tgz:60674.got - 2010.06.03 18:47:42.
