data_PCOD9259808
_publ_section_title
;
Structure prediction by ZEFSAII (Michael W. Deem and Ramdas Pophale) SiO2 
 PCOD9259808
Probable space group: C 2/C
;
_chemical_formula_sum "Si O2"
_cell_formula_units_Z 52
_cell_length_a 13.967046
_cell_length_b 19.135354
_cell_length_c 15.726046
_cell_angle_alpha 90.000000
_cell_angle_beta 143.975955
_cell_angle_gamma 90.000000
_cell_volume 2471.895104
_symmetry_space_group_name_H-M "C 2/C"
_symmetry_group_IT_number 15
_symmetry_cell_setting 'monoclinic'
loop_
_space_group_symop_operation_xyz
x,y,z
-x,y,1/2-z
-x,-y,-z
x,-y,1/2+z
1/2+x,1/2+y,z
1/2-x,1/2+y,1/2-z
1/2-x,1/2-y,-z
1/2+x,1/2-y,1/2+z
loop_
_atom_site_type_symbol
_atom_site_label
_atom_site_fract_x
_atom_site_fract_y
_atom_site_fract_z
Si Si1 0.815438 0.462930 0.774482
Si Si2 0.500000 0.906014 0.750000
Si Si3 0.545342 0.107901 0.584290
Si Si4 0.046696 0.133710 0.148773
Si Si5 0.188215 0.753916 0.637814
Si Si6 0.544999 0.771559 0.870332
Si Si7 0.247046 0.830343 0.963934
O O1 0.639839 0.431781 0.674002
O O2 0.876610 0.445634 0.723040
O O3 0.839219 0.545063 0.804064
O O4 0.936445 0.424242 0.929177
O O5 0.588703 0.850645 0.876268
O O6 0.648333 0.174359 0.628980
O O7 0.422169 0.136350 0.568819
O O8 0.061223 0.196340 0.092563
O O9 0.149596 0.161615 0.304558
O O10 0.862607 0.125807 0.048307
O O11 0.370304 0.775287 0.792922
O O12 0.166636 0.763549 0.521618
O O13 0.500000 0.733354 0.750000
O O14 0.250000 0.750000 0.000000
#
# Coordination Sequence:
#
# PCOD9259808 Si02
#       7
#     8   4   8   8   8   8   8
#     4  10  20  38  56  83 114 163 193 244 294 369
#     4  10  18  36  56  84 116 152 204 240 300 356
#     4  10  20  36  61  82 116 156 205 235 301 368
#     4  10  20  34  60  84 126 152 199 246 315 352
#     4  12  19  37  60  92 118 158 196 258 303 358
#     4  10  21  33  61  87 118 153 205 250 302 351
#     4  10  19  35  58  91 118 156 196 257 303 361
#
# _framework density 21.036491999999999
#
# number of rings (size 3 to 8) (size 9 to 14) (size 15 to 20)
#    0.462    1.231    4.615    1.385    0.000    0.000 
#    2.769    0.000   13.538    1.846    0.000    0.000 
#    0.000    0.000    0.000    0.000    0.000    0.000 
#
# Total GULP energy -144984.837508 kJ/mol
# GULP energy per Si atom -5576.339904 kJ/mol
# Density = 2.098861 g / cm^3
# Si number density = 21.036492 Si / 1000 Ang^3
#
#
#
# Elastic Constant Matrix: (Units=GPa)
#
#
# Indices 1 2 3 4 5 6 
#
# 1 144.1662 64.3653 20.5832 -0.0008 -4.0297 -0.0002
# 2 64.3653 130.2725 17.5822 -0.0004 -2.3999 -0.0003
# 3 20.5832 17.5822 31.9190 -0.0015 0.3967 -0.0006
# 4 -0.0008 -0.0004 -0.0015 17.3153 -0.0010 1.8363
# 5 -4.0297 -2.3999 0.3967 -0.0010 19.1266 -0.0003
# 6 -0.0002 -0.0003 -0.0006 1.8363 -0.0003 26.5838
#
#
#
# Elastic Compliance Matrix: (Units=1/GPa)
#
#
# Indices 1 2 3 4 5 6 
#
# 1 0.009341 -0.004074 -0.003798 0.000000 0.001536 0.000000
# 2 -0.004074 0.010094 -0.002939 0.000000 0.000469 0.000000
# 3 -0.003798 -0.002939 0.035421 0.000003 -0.001904 0.000001
# 4 0.000000 0.000000 0.000003 0.058179 0.000003 -0.004019
# 5 0.001536 0.000469 -0.001904 0.000003 0.052705 0.000000
# 6 0.000000 0.000000 0.000001 -0.004019 0.000000 0.037895
#
#
# Mechanical properties :
#
#
# Convention : Reuss Voigt Hill
#
# Bulk Modulus (GPa) = 30.09009 56.82435 43.45722
# Shear Modulus (GPa) = 21.15639 26.19360 23.67500
#
# Velocity S-wave (km/s) = 3.17472 3.53250 3.35837
# Velocity P-wave (km/s) = 5.27003 6.61128 5.97839
#
# Compressibility (1/GPa) = 0.03323353
#
# Stress axis : x y z
#
# Youngs Moduli (GPa) = 107.05949 99.06416 28.23162
#
# Poissons Ratio (x) = 0.40360 0.10723
# Poissons Ratio (y) = 0.43617 0.08297
# Poissons Ratio (z) = 0.40664 0.29115
#
# Static dielectric constant tensor:
#      x y z
#    x 1.931280 0.000000 0.009920 
#    y 0.000000 1.720310 0.000000 
#    z 0.009920 0.000000 1.791730 
# 
# From -- ./inp_files/155555.got.cif
#   From: 2010.05.17/outbox.cif.g08.bks.cpg/sg15_78_cif.got.tgz:155555.got - 2010.06.03 18:47:42.
