data_PCOD9259067
_publ_section_title
;
Structure prediction by ZEFSAII (Michael W. Deem and Ramdas Pophale) SiO2 
 PCOD9259067
Probable space group: C 2/C
;
_chemical_formula_sum "Si O2"
_cell_formula_units_Z 48
_cell_length_a 16.625968
_cell_length_b 6.745526
_cell_length_c 14.633528
_cell_angle_alpha 90.000000
_cell_angle_beta 84.164643
_cell_angle_gamma 90.000000
_cell_volume 1632.659078
_symmetry_space_group_name_H-M "C 2/C"
_symmetry_group_IT_number 15
_symmetry_cell_setting 'monoclinic'
loop_
_space_group_symop_operation_xyz
x,y,z
-x,y,1/2-z
-x,-y,-z
x,-y,1/2+z
1/2+x,1/2+y,z
1/2-x,1/2+y,1/2-z
1/2-x,1/2-y,-z
1/2+x,1/2-y,1/2+z
loop_
_atom_site_type_symbol
_atom_site_label
_atom_site_fract_x
_atom_site_fract_y
_atom_site_fract_z
Si Si1 0.589017 0.130433 0.323410
Si Si2 0.800163 0.589255 0.352340
Si Si3 0.391546 0.684510 0.158234
Si Si4 0.631563 0.647956 0.147245
Si Si5 0.224045 0.546731 0.456035
Si Si6 0.008210 0.260908 0.999555
O O1 0.631589 0.175214 0.222872
O O2 0.660585 0.106970 0.388302
O O3 0.527705 0.267167 0.388647
O O4 0.565981 0.898389 0.322783
O O5 0.706037 0.649362 0.343791
O O6 0.817529 0.349824 0.331403
O O7 0.809726 0.590576 0.460873
O O8 0.407485 0.581275 0.253224
O O9 0.431228 0.652121 0.053845
O O10 0.695831 0.484737 0.106444
O O11 0.576122 0.705380 0.067600
O O12 0.250000 0.750000 0.500000
O O13 0.000000 0.500000 0.000000
#
# Coordination Sequence:
#
# PCOD9259067 Si02
#       6
#     8   8   8   8   8   8
#     4  10  19  34  55  84 115 150 193 246 289 358
#     4  10  20  33  58  92 107 152 207 246 291 351
#     4  10  21  34  57  88 118 146 199 253 296 351
#     4  10  19  37  61  80 114 161 196 246 303 363
#     4  10  18  34  59  80 112 151 198 238 296 346
#     4  10  20  35  54  83 117 151 192 242 298 354
#
# _framework density 29.399892999999999
#
# number of rings (size 3 to 8) (size 9 to 14) (size 15 to 20)
#    0.000    2.000    5.000    0.500    0.000    0.667 
#    0.000    0.833    0.000    0.000    0.000    0.000 
#    0.000    0.000    0.000    0.000    0.000    0.167 
#
# Total GULP energy -133974.723010 kJ/mol
# GULP energy per Si atom -5582.280125 kJ/mol
# Density = 2.933298 g / cm^3
# Si number density = 29.399893 Si / 1000 Ang^3
#
#
#
# Elastic Constant Matrix: (Units=GPa)
#
#
# Indices 1 2 3 4 5 6 
#
# 1 128.8799 9.0845 56.5250 0.0000 1.1745 0.0000
# 2 9.0845 126.6825 41.3141 0.0000 -16.2617 0.0000
# 3 56.5250 41.3141 290.3666 0.0000 -60.6408 0.0000
# 4 0.0000 0.0000 0.0000 50.7353 0.0000 -3.6436
# 5 1.1745 -16.2617 -60.6408 0.0000 73.0085 0.0000
# 6 0.0000 0.0000 0.0000 -3.6436 0.0000 15.6213
#
#
#
# Elastic Compliance Matrix: (Units=1/GPa)
#
#
# Indices 1 2 3 4 5 6 
#
# 1 0.008694 -0.000195 -0.002060 0.000000 -0.001895 0.000000
# 2 -0.000195 0.008349 -0.000921 0.000000 0.001098 0.000000
# 3 -0.002060 -0.000921 0.004767 0.000000 0.003788 0.000000
# 4 0.000000 0.000000 0.000000 0.020046 0.000000 0.004676
# 5 -0.001895 0.001098 0.003788 0.000000 0.017118 0.000000
# 6 0.000000 0.000000 0.000000 0.004676 0.000000 0.065106
#
#
# Mechanical properties :
#
#
# Convention : Reuss Voigt Hill
#
# Bulk Modulus (GPa) = 64.69055 84.41957 74.55506
# Shear Modulus (GPa) = 36.87763 57.14006 47.00884
#
# Velocity S-wave (km/s) = 3.54552 4.41335 4.00302
# Velocity P-wave (km/s) = 6.22996 7.39911 6.83956
#
# Compressibility (1/GPa) = 0.01545821
#
# Stress axis : x y z
#
# Youngs Moduli (GPa) = 115.02450 119.77599 209.77521
#
# Poissons Ratio (x) = 0.02332 0.43221
# Poissons Ratio (y) = 0.02240 0.19314
# Poissons Ratio (z) = 0.23699 0.11028
#
# Static dielectric constant tensor:
#      x y z
#    x 2.422360 0.000000 -0.189440 
#    y 0.000000 2.436300 0.000000 
#    z -0.189440 0.000000 2.396450 
# 
# From -- ./inp_files/166144.got.cif
#   From: 2010.05.17/outbox.cif.g08.bks.cpg/sg15_84_cif.got.tgz:166144.got - 2010.06.03 18:47:42.
