data_PCOD9259684
_publ_section_title
;
Structure prediction by ZEFSAII (Michael W. Deem and Ramdas Pophale) SiO2 
 PCOD9259684
Probable space group: C 2/C
;
_chemical_formula_sum "Si O2"
_cell_formula_units_Z 40
_cell_length_a 9.443670
_cell_length_b 15.888522
_cell_length_c 20.985412
_cell_angle_alpha 90.000000
_cell_angle_beta 35.946184
_cell_angle_gamma 90.000000
_cell_volume 1848.410732
_symmetry_space_group_name_H-M "C 2/C"
_symmetry_group_IT_number 15
_symmetry_cell_setting 'monoclinic'
loop_
_space_group_symop_operation_xyz
x,y,z
-x,y,1/2-z
-x,-y,-z
x,-y,1/2+z
1/2+x,1/2+y,z
1/2-x,1/2+y,1/2-z
1/2-x,1/2-y,-z
1/2+x,1/2-y,1/2+z
loop_
_atom_site_type_symbol
_atom_site_label
_atom_site_fract_x
_atom_site_fract_y
_atom_site_fract_z
Si Si1 0.855686 0.745301 0.368510
Si Si2 0.000000 0.951698 0.750000
Si Si3 0.275047 0.557585 0.094031
Si Si4 0.886056 0.695090 0.095552
Si Si5 0.186996 0.520274 0.760245
Si Si6 0.500000 0.173991 0.750000
O O1 0.713280 0.656335 0.417905
O O2 0.639547 0.809301 0.465273
O O3 0.000000 0.760075 0.250000
O O4 0.037258 0.727247 0.361312
O O5 0.225733 0.889474 0.653242
O O6 0.094901 0.010600 0.771771
O O7 0.231267 0.541066 0.184488
O O8 0.067309 0.518327 0.124467
O O9 0.500000 0.500000 0.000000
O O10 0.694616 0.767009 0.144170
O O11 0.133952 0.611443 0.750371
#
# Coordination Sequence:
#
# PCOD9259684 Si02
#       6
#     8   4   8   8   8   4
#     4  11  19  38  62  94 125 168 210 259 317 378
#     4  11  20  42  62  95 126 166 210 265 324 370
#     4  10  18  35  63  88 117 165 210 245 306 383
#     4  10  22  37  66  91 129 162 214 265 313 373
#     4  10  20  37  62  87 125 164 204 254 318 376
#     4   9  20  42  60  95 122 170 214 259 314 384
#
# _framework density 21.640212999999999
#
# number of rings (size 3 to 8) (size 9 to 14) (size 15 to 20)
#    0.000    2.000    4.000    2.400    0.000    0.000 
#    1.800   14.000    0.000    0.000    0.000    0.000 
#    0.000    0.000    0.000    0.000    0.000    0.000 
#
# Total GULP energy -111477.121270 kJ/mol
# GULP energy per Si atom -5573.856063 kJ/mol
# Density = 2.159096 g / cm^3
# Si number density = 21.640213 Si / 1000 Ang^3
#
#
#
# Elastic Constant Matrix: (Units=GPa)
#
#
# Indices 1 2 3 4 5 6 
#
# 1 144.5317 29.1577 31.6167 -0.0102 -16.6312 -0.0004
# 2 29.1577 60.7541 13.0825 -0.0063 -7.5258 0.0002
# 3 31.6167 13.0825 101.7362 -0.0088 -14.9712 0.0021
# 4 -0.0102 -0.0063 -0.0088 -47.8649 0.0089 -30.1025
# 5 -16.6312 -7.5258 -14.9712 0.0089 24.3165 -0.0004
# 6 -0.0004 0.0002 0.0021 -30.1025 -0.0004 5.9290
#
#
#
# Elastic Compliance Matrix: (Units=1/GPa)
#
#
# Indices 1 2 3 4 5 6 
#
# 1 0.008349 -0.003194 -0.001637 0.000000 0.003713 0.000000
# 2 -0.003194 0.018567 -0.000958 0.000000 0.002972 -0.000001
# 3 -0.001637 -0.000958 0.011274 0.000000 0.005525 -0.000002
# 4 0.000000 0.000000 0.000000 -0.004983 0.000001 -0.025297
# 5 0.003713 0.002972 0.005525 0.000001 0.047986 0.000008
# 6 0.000000 -0.000001 -0.000002 -0.025297 0.000008 0.040224
#
#
# Mechanical properties :
#
#
# Convention : Reuss Voigt Hill
#
# Bulk Modulus (GPa) = 37.57694 50.52621 44.05157
# Shear Modulus (GPa) = 35.24432 12.02047 23.63239
#
# Velocity S-wave (km/s) = 4.04003 2.35940 3.30822
# Velocity P-wave (km/s) = 6.25816 5.55169 5.91548
#
# Compressibility (1/GPa) = 0.02661207
#
# Stress axis : x y z
#
# Youngs Moduli (GPa) = 119.77792 53.85852 88.69660
#
# Poissons Ratio (x) = 0.17204 0.14523
# Poissons Ratio (y) = 0.38260 0.08493
# Poissons Ratio (z) = 0.19612 0.05157
#
# Static dielectric constant tensor:
#      x y z
#    x 1.812390 0.000000 -0.019690 
#    y 0.000000 1.742850 -0.000010 
#    z -0.019690 -0.000010 1.844600 
# 
# From -- ./inp_files/134633.got.cif
#   From: 2010.05.17/outbox.cif.g08.bks.cpg/sg15_68_cif.got.tgz:134633.got - 2010.06.03 18:47:42.
