data_PCOD9259372
_publ_section_title
;
Structure prediction by ZEFSAII (Michael W. Deem and Ramdas Pophale) SiO2 
 PCOD9259372
Probable space group: C 2/C
;
_chemical_formula_sum "Si O2"
_cell_formula_units_Z 48
_cell_length_a 13.491711
_cell_length_b 13.406177
_cell_length_c 17.349743
_cell_angle_alpha 90.000000
_cell_angle_beta 34.631161
_cell_angle_gamma 90.000000
_cell_volume 1783.347832
_symmetry_space_group_name_H-M "C 2/C"
_symmetry_group_IT_number 15
_symmetry_cell_setting 'monoclinic'
loop_
_space_group_symop_operation_xyz
x,y,z
-x,y,1/2-z
-x,-y,-z
x,-y,1/2+z
1/2+x,1/2+y,z
1/2-x,1/2+y,1/2-z
1/2-x,1/2-y,-z
1/2+x,1/2-y,1/2+z
loop_
_atom_site_type_symbol
_atom_site_label
_atom_site_fract_x
_atom_site_fract_y
_atom_site_fract_z
Si Si1 0.705110 0.585555 0.331471
Si Si2 0.181937 0.416169 0.150768
Si Si3 0.927422 0.817090 0.432230
Si Si4 0.651634 0.479743 0.605778
Si Si5 0.845407 0.718691 0.695271
Si Si6 0.563576 0.888069 0.518337
O O1 0.684089 0.474570 0.377980
O O2 0.691941 0.646088 0.419998
O O3 0.602666 0.665206 0.345216
O O4 0.884047 0.577320 0.170169
O O5 0.125574 0.323490 0.238441
O O6 0.000000 0.474614 0.250000
O O7 0.267674 0.413536 0.013020
O O8 0.927021 0.916012 0.379465
O O9 0.870219 0.699877 0.464993
O O10 0.135851 0.794915 0.313905
O O11 0.500000 0.429581 0.750000
O O12 0.803899 0.520820 0.562878
O O13 0.938700 0.659617 0.565481
#
# Coordination Sequence:
#
# PCOD9259372 Si02
#       6
#     8   8   8   8   8   8
#     4   9  20  37  61  90 123 163 210 258 309 375
#     4  11  23  41  63  95 128 166 209 261 317 375
#     4   9  19  33  56  87 124 165 198 255 312 372
#     4  11  20  34  55  92 129 163 201 259 317 377
#     4  10  21  38  60  92 128 166 208 260 315 373
#     4  10  18  35  55  89 124 164 203 253 313 374
#
# _framework density 26.915669999999999
#
# number of rings (size 3 to 8) (size 9 to 14) (size 15 to 20)
#    0.000    2.000    3.333    0.500    0.000    3.333 
#    0.000    0.000    0.000    9.000    4.333    0.000 
#    0.000    0.000    0.000    0.000    0.000    0.000 
#
# Total GULP energy -133896.879983 kJ/mol
# GULP energy per Si atom -5579.036666 kJ/mol
# Density = 2.685441 g / cm^3
# Si number density = 26.915670 Si / 1000 Ang^3
#
#
#
# Elastic Constant Matrix: (Units=GPa)
#
#
# Indices 1 2 3 4 5 6 
#
# 1 46.2654 15.2022 33.1020 -0.0002 14.0095 0.0002
# 2 15.2022 49.3432 -0.3744 -0.0002 26.3373 0.0001
# 3 33.1020 -0.3744 211.3982 -0.0001 16.2721 0.0001
# 4 -0.0002 -0.0002 -0.0001 0.5750 0.0002 17.0356
# 5 14.0095 26.3373 16.2721 0.0002 42.1864 -0.0002
# 6 0.0002 0.0001 0.0001 17.0356 -0.0002 37.4798
#
#
#
# Elastic Compliance Matrix: (Units=1/GPa)
#
#
# Indices 1 2 3 4 5 6 
#
# 1 0.027813 -0.006771 -0.004103 -0.000001 -0.003426 0.000000
# 2 -0.006771 0.032551 0.002586 -0.000002 -0.019071 0.000001
# 3 -0.004103 0.002586 0.005562 0.000000 -0.002397 0.000000
# 4 -0.000001 -0.000002 0.000000 -0.139507 0.000003 0.063410
# 5 -0.003426 -0.019071 -0.002397 0.000003 0.037673 -0.000001
# 6 0.000000 0.000001 0.000000 0.063410 -0.000001 -0.002140
#
#
# Mechanical properties :
#
#
# Convention : Reuss Voigt Hill
#
# Bulk Modulus (GPa) = 20.26409 44.76292 32.51351
# Shear Modulus (GPa) = -995.63962 33.32005 -481.15978
#
# Velocity S-wave (km/s) = -19.25393 3.52226 -13.38483
# Velocity P-wave (km/s) = 22.06218 5.76269 15.05874
#
# Compressibility (1/GPa) = 0.04934839
#
# Stress axis : x y z
#
# Youngs Moduli (GPa) = 35.95482 30.72085 179.79037
#
# Poissons Ratio (x) = 0.20802 0.73774
# Poissons Ratio (y) = 0.24346 -0.46492
# Poissons Ratio (z) = 0.14754 -0.07944
#
# Static dielectric constant tensor:
#      x y z
#    x 2.235760 0.000000 -0.036130 
#    y 0.000000 2.191800 0.000000 
#    z -0.036130 0.000000 2.029610 
# 
# From -- ./inp_files/155088.got.cif
#   From: 2010.05.17/outbox.cif.g08.bks.cpg/sg15_78_cif.got.tgz:155088.got - 2010.06.03 18:47:42.
