data_PCOD9259712
_publ_section_title
;
Structure prediction by ZEFSAII (Michael W. Deem and Ramdas Pophale) SiO2 
 PCOD9259712
Probable space group: C 2/C
;
_chemical_formula_sum "Si O2"
_cell_formula_units_Z 64
_cell_length_a 14.146257
_cell_length_b 12.408866
_cell_length_c 15.294993
_cell_angle_alpha 90.000000
_cell_angle_beta 79.581574
_cell_angle_gamma 90.000000
_cell_volume 2640.603457
_symmetry_space_group_name_H-M "C 2/C"
_symmetry_group_IT_number 15
_symmetry_cell_setting 'monoclinic'
loop_
_space_group_symop_operation_xyz
x,y,z
-x,y,1/2-z
-x,-y,-z
x,-y,1/2+z
1/2+x,1/2+y,z
1/2-x,1/2+y,1/2-z
1/2-x,1/2-y,-z
1/2+x,1/2-y,1/2+z
loop_
_atom_site_type_symbol
_atom_site_label
_atom_site_fract_x
_atom_site_fract_y
_atom_site_fract_z
Si Si1 0.295196 0.995396 0.711600
Si Si2 0.145881 0.932713 0.429720
Si Si3 0.091915 0.267198 0.617941
Si Si4 0.978083 0.632565 0.649364
Si Si5 0.090619 0.948009 0.176296
Si Si6 0.368646 0.228092 0.183147
Si Si7 0.339541 0.991934 0.914052
Si Si8 0.987079 0.123064 0.093975
O O1 0.191270 0.038303 0.705546
O O2 0.305214 0.875049 0.673161
O O3 0.317032 0.992254 0.812409
O O4 0.379442 0.067496 0.656615
O O5 0.165316 0.835193 0.359546
O O6 0.056466 0.889434 0.499748
O O7 0.242088 0.957687 0.467774
O O8 0.105701 0.045146 0.396713
O O9 0.130054 0.264860 0.711751
O O10 0.142827 0.367429 0.562867
O O11 0.979124 0.295350 0.638408
O O12 0.101532 0.139943 0.596047
O O13 0.066274 0.565930 0.591439
O O14 0.967272 0.753103 0.615495
O O15 0.000000 0.638761 0.750000
O O16 0.053462 0.064536 0.154489
O O17 0.000000 0.906545 0.250000
#
# Coordination Sequence:
#
# PCOD9259712 Si02
#       8
#     8   8   8   8   8   8   8   8
#     4  10  22  37  64  94 123 150 197 256 311 354
#     4  11  24  43  61  84 124 169 208 239 306 362
#     4  10  18  35  65  87 116 149 203 255 300 349
#     4  10  22  41  62  94 127 152 199 258 307 355
#     4  12  22  39  61  94 121 155 205 255 301 359
#     4  10  18  38  61  88 116 157 198 248 301 362
#     4  10  21  38  63  92 120 158 194 251 310 363
#     4  11  25  42  59  86 126 168 203 250 298 367
#
# _framework density 24.236885999999998
#
# number of rings (size 3 to 8) (size 9 to 14) (size 15 to 20)
#    0.000    1.500    3.750    1.875    3.500    0.500 
#    0.000    2.500    0.000    0.000    0.000    0.000 
#    0.000    0.000    0.000    0.000    0.000    0.000 
#
# Total GULP energy -178959.985610 kJ/mol
# GULP energy per Si atom -5592.499550 kJ/mol
# Density = 2.418172 g / cm^3
# Si number density = 24.236886 Si / 1000 Ang^3
#
#
#
# Elastic Constant Matrix: (Units=GPa)
#
#
# Indices 1 2 3 4 5 6 
#
# 1 129.0419 60.5597 17.7521 0.0000 -17.7253 0.0000
# 2 60.5597 184.8145 33.9171 0.0000 -15.6989 0.0000
# 3 17.7521 33.9171 29.9035 0.0000 -5.4725 0.0000
# 4 0.0000 0.0000 0.0000 -6.4979 0.0000 -30.4699
# 5 -17.7253 -15.6989 -5.4725 0.0000 17.3846 0.0000
# 6 0.0000 0.0000 0.0000 -30.4699 0.0000 1.4872
#
#
#
# Elastic Compliance Matrix: (Units=1/GPa)
#
#
# Indices 1 2 3 4 5 6 
#
# 1 0.010160 -0.002311 -0.002012 0.000000 0.007639 0.000000
# 2 -0.002311 0.007626 -0.006842 0.000000 0.002376 0.000000
# 3 -0.002012 -0.006842 0.043390 0.000000 0.005428 0.000000
# 4 0.000000 0.000000 0.000000 -0.001585 0.000000 -0.032481
# 5 0.007639 0.002376 0.005428 0.000000 0.069165 0.000000
# 6 0.000000 0.000000 0.000000 -0.032481 0.000000 0.006927
#
#
# Mechanical properties :
#
#
# Convention : Reuss Voigt Hill
#
# Bulk Modulus (GPa) = 25.74411 63.13530 44.43971
# Shear Modulus (GPa) = 29.24639 17.91017 23.57828
#
# Velocity S-wave (km/s) = 3.47751 2.72134 3.12240
# Velocity P-wave (km/s) = 5.17388 5.99834 5.60130
#
# Compressibility (1/GPa) = 0.03884384
#
# Stress axis : x y z
#
# Youngs Moduli (GPa) = 98.42408 131.13606 23.04696
#
# Poissons Ratio (x) = 0.30307 0.04638
# Poissons Ratio (y) = 0.22747 0.15770
# Poissons Ratio (z) = 0.19806 0.89729
#
# Static dielectric constant tensor:
#      x y z
#    x 1.872470 0.000000 0.043460 
#    y 0.000000 1.943400 0.000000 
#    z 0.043460 0.000000 2.095270 
# 
# From -- ./inp_files/243698.got.cif
#   From: 2010.05.17/outbox.cif.g08.bks.cpg/sg15_122_cif.got.tgz:243698.got - 2010.06.03 18:47:42.
