data_PCOD9259821
_publ_section_title
;
Structure prediction by ZEFSAII (Michael W. Deem and Ramdas Pophale) SiO2 
 PCOD9259821
Probable space group: C 2/C
;
_chemical_formula_sum "Si O2"
_cell_formula_units_Z 52
_cell_length_a 7.647313
_cell_length_b 13.326812
_cell_length_c 22.822922
_cell_angle_alpha 90.000000
_cell_angle_beta 109.039149
_cell_angle_gamma 90.000000
_cell_volume 2198.741421
_symmetry_space_group_name_H-M "C 2/C"
_symmetry_group_IT_number 15
_symmetry_cell_setting 'monoclinic'
loop_
_space_group_symop_operation_xyz
x,y,z
-x,y,1/2-z
-x,-y,-z
x,-y,1/2+z
1/2+x,1/2+y,z
1/2-x,1/2+y,1/2-z
1/2-x,1/2-y,-z
1/2+x,1/2-y,1/2+z
loop_
_atom_site_type_symbol
_atom_site_label
_atom_site_fract_x
_atom_site_fract_y
_atom_site_fract_z
Si Si1 0.052434 0.383354 0.940449
Si Si2 0.959874 0.698813 0.180585
Si Si3 0.702818 0.723792 0.560710
Si Si4 0.570319 0.199279 0.640800
Si Si5 0.869337 0.091709 0.848602
Si Si6 0.500000 0.074093 0.750000
Si Si7 0.266712 0.952676 0.433774
O O1 0.998119 0.268854 0.948175
O O2 0.876959 0.444032 0.945324
O O3 0.035513 0.385766 0.868821
O O4 0.226699 0.416330 0.997777
O O5 0.750685 0.734787 0.158518
O O6 0.000000 0.662485 0.250000
O O7 0.084272 0.798317 0.177166
O O8 0.750000 0.750000 0.500000
O O9 0.697611 0.615426 0.591864
O O10 0.884991 0.764305 0.614034
O O11 0.556576 0.139183 0.699450
O O12 0.603448 0.123383 0.589762
O O13 0.705921 0.037206 0.794793
O O14 0.069686 0.042510 0.880322
#
# Coordination Sequence:
#
# PCOD9259821 Si02
#       7
#     8   8   8   8   8   4   8
#     4  10  22  38  58  83 126 150 199 243 308 343
#     4  10  19  36  61  86 111 159 196 249 291 358
#     4  10  19  34  57  90 109 148 194 255 283 351
#     4  10  20  34  62  83 115 146 208 235 300 346
#     4   9  20  33  61  84 116 150 203 235 304 349
#     4  10  18  36  56  90 114 152 188 258 280 364
#     4  10  21  39  57  86 115 164 188 249 295 361
#
# _framework density 23.649892000000001
#
# number of rings (size 3 to 8) (size 9 to 14) (size 15 to 20)
#    0.000    2.154    3.077    0.000    2.154    1.846 
#    1.385    3.846    3.385    0.000    0.000    0.000 
#    0.000    0.000    0.000    0.000    0.000    0.000 
#
# Total GULP energy -144797.742416 kJ/mol
# GULP energy per Si atom -5569.143939 kJ/mol
# Density = 2.359606 g / cm^3
# Si number density = 23.649892 Si / 1000 Ang^3
#
#
#
# Elastic Constant Matrix: (Units=GPa)
#
#
# Indices 1 2 3 4 5 6 
#
# 1 82.3853 5.2241 30.6767 0.0000 26.6431 0.0000
# 2 5.2241 37.5296 31.8160 0.0000 14.4131 0.0000
# 3 30.6767 31.8160 150.8316 0.0000 7.1321 0.0000
# 4 0.0000 0.0000 0.0000 17.7680 0.0000 -1.1116
# 5 26.6431 14.4131 7.1321 0.0000 60.8764 0.0000
# 6 0.0000 0.0000 0.0000 -1.1116 0.0000 15.9896
#
#
#
# Elastic Compliance Matrix: (Units=1/GPa)
#
#
# Indices 1 2 3 4 5 6 
#
# 1 0.015600 0.003679 -0.003605 0.000000 -0.007276 0.000000
# 2 0.003679 0.036498 -0.008007 0.000000 -0.009313 0.000000
# 3 -0.003605 -0.008007 0.008937 0.000000 0.002426 0.000000
# 4 0.000000 0.000000 0.000000 0.056527 0.000000 0.003930
# 5 -0.007276 -0.009313 0.002426 0.000000 0.021532 0.000000
# 6 0.000000 0.000000 0.000000 0.003930 0.000000 0.062814
#
#
# Mechanical properties :
#
#
# Convention : Reuss Voigt Hill
#
# Bulk Modulus (GPa) = 22.13845 45.13113 33.63479
# Shear Modulus (GPa) = 21.47491 32.46212 26.96851
#
# Velocity S-wave (km/s) = 3.01663 3.70890 3.38053
# Velocity P-wave (km/s) = 4.63839 6.12092 5.43048
#
# Compressibility (1/GPa) = 0.04517027
#
# Stress axis : x y z
#
# Youngs Moduli (GPa) = 64.10186 27.39877 111.89146
#
# Poissons Ratio (x) = -0.10080 0.40334
# Poissons Ratio (y) = -0.23582 0.89587
# Poissons Ratio (z) = 0.23107 0.21937
#
# Static dielectric constant tensor:
#      x y z
#    x 1.945760 0.000000 -0.024260 
#    y 0.000000 2.070550 0.000000 
#    z -0.024260 0.000000 1.971540 
# 
# From -- ./inp_files/264457.got.cif
#   From: 2010.05.17/outbox.cif.g08.bks.cpg/sg15_133_cif.got.tgz:264457.got - 2010.06.03 18:47:42.
