data_PCOD9259269
_publ_section_title
;
Structure prediction by ZEFSAII (Michael W. Deem and Ramdas Pophale) SiO2 
 PCOD9259269
Probable space group: C 2/C
;
_chemical_formula_sum "Si O2"
_cell_formula_units_Z 36
_cell_length_a 13.731767
_cell_length_b 14.048052
_cell_length_c 14.000913
_cell_angle_alpha 90.000000
_cell_angle_beta 38.016424
_cell_angle_gamma 90.000000
_cell_volume 1663.413273
_symmetry_space_group_name_H-M "C 2/C"
_symmetry_group_IT_number 15
_symmetry_cell_setting 'monoclinic'
loop_
_space_group_symop_operation_xyz
x,y,z
-x,y,1/2-z
-x,-y,-z
x,-y,1/2+z
1/2+x,1/2+y,z
1/2-x,1/2+y,1/2-z
1/2-x,1/2-y,-z
1/2+x,1/2-y,1/2+z
loop_
_atom_site_type_symbol
_atom_site_label
_atom_site_fract_x
_atom_site_fract_y
_atom_site_fract_z
Si Si1 0.076586 0.833973 0.007128
Si Si2 0.666277 0.291626 0.655174
Si Si3 0.500000 0.427077 0.250000
Si Si4 0.803559 0.339184 0.200256
Si Si5 0.275643 0.538959 0.275154
O O1 0.102609 0.863382 0.097156
O O2 0.887027 0.831330 0.139246
O O3 0.145688 0.731566 0.923895
O O4 0.662964 0.951037 0.336620
O O5 0.500000 0.334317 0.750000
O O6 0.750000 0.250000 0.500000
O O7 0.625547 0.208185 0.760453
O O8 0.774337 0.368274 0.626763
O O9 0.396747 0.488001 0.255588
O O10 0.646371 0.586184 0.379982
#
# Coordination Sequence:
#
# PCOD9259269 Si02
#       5
#     8   8   4   8   8
#     4  10  22  37  59  92 117 162 200 251 298 357
#     4  11  22  38  63  91 115 158 207 248 294 360
#     4  10  18  34  64  82 120 158 212 236 292 372
#     4  10  21  39  59  87 128 152 200 255 302 352
#     4  10  21  36  61  90 119 159 205 246 294 364
#
# _framework density 21.642247000000001
#
# number of rings (size 3 to 8) (size 9 to 14) (size 15 to 20)
#    0.000    1.778    1.111    5.333    3.111    3.556 
#    0.000   10.000    2.444    0.000    0.000    0.000 
#    0.000    0.000    0.000    0.000    0.000    0.000 
#
# Total GULP energy -100362.556935 kJ/mol
# GULP energy per Si atom -5575.697607 kJ/mol
# Density = 2.159299 g / cm^3
# Si number density = 21.642247 Si / 1000 Ang^3
#
#
#
# Elastic Constant Matrix: (Units=GPa)
#
#
# Indices 1 2 3 4 5 6 
#
# 1 64.2741 35.7932 26.2673 0.0000 28.1928 0.0001
# 2 35.7932 169.7660 75.4206 0.0001 29.8786 0.0001
# 3 26.2673 75.4206 111.6260 0.0001 43.2653 0.0002
# 4 0.0000 0.0001 0.0001 -135.7274 0.0000 -261.2764
# 5 28.1928 29.8786 43.2653 0.0000 43.9019 -0.0001
# 6 0.0001 0.0001 0.0002 -261.2764 -0.0001 -352.2105
#
#
#
# Elastic Compliance Matrix: (Units=1/GPa)
#
#
# Indices 1 2 3 4 5 6 
#
# 1 0.022976 -0.003407 0.002776 0.000000 -0.015171 0.000000
# 2 -0.003407 0.008923 -0.006022 0.000000 0.002049 0.000000
# 3 0.002776 -0.006022 0.018569 0.000000 -0.015984 0.000000
# 4 0.000000 0.000000 0.000000 0.017214 0.000000 -0.012770
# 5 -0.015171 0.002049 -0.015984 0.000000 0.046879 0.000000
# 6 0.000000 0.000000 0.000000 -0.012770 0.000000 0.006634
#
#
# Mechanical properties :
#
#
# Convention : Reuss Voigt Hill
#
# Bulk Modulus (GPa) = 26.90886 68.95870 47.93378
# Shear Modulus (GPa) = 34.03940 -74.92821 -20.44440
#
# Velocity S-wave (km/s) = 3.97018 -5.89037 -3.07685
# Velocity P-wave (km/s) = 5.78593 3.78546 3.09413
#
# Compressibility (1/GPa) = 0.03716248
#
# Stress axis : x y z
#
# Youngs Moduli (GPa) = 43.52347 112.06559 53.85243
#
# Poissons Ratio (x) = 0.38184 -0.14948
# Poissons Ratio (y) = 0.14830 0.32428
# Poissons Ratio (z) = -0.12081 0.67482
#
# Static dielectric constant tensor:
#      x y z
#    x 1.784690 0.000000 -0.008460 
#    y 0.000000 1.880190 0.000000 
#    z -0.008460 0.000000 1.795260 
# 
# From -- ./inp_files/112015.got.cif
#   From: 2010.05.17/outbox.cif.g08.bks.cpg/sg15_57_cif.got.tgz:112015.got - 2010.06.03 18:47:42.
