data_PCOD9259603
_publ_section_title
;
Structure prediction by ZEFSAII (Michael W. Deem and Ramdas Pophale) SiO2 
 PCOD9259603
Probable space group: C 2/C
;
_chemical_formula_sum "Si O2"
_cell_formula_units_Z 52
_cell_length_a 15.468879
_cell_length_b 12.777225
_cell_length_c 12.827687
_cell_angle_alpha 90.000000
_cell_angle_beta 110.574335
_cell_angle_gamma 90.000000
_cell_volume 2373.669685
_symmetry_space_group_name_H-M "C 2/C"
_symmetry_group_IT_number 15
_symmetry_cell_setting 'monoclinic'
loop_
_space_group_symop_operation_xyz
x,y,z
-x,y,1/2-z
-x,-y,-z
x,-y,1/2+z
1/2+x,1/2+y,z
1/2-x,1/2+y,1/2-z
1/2-x,1/2-y,-z
1/2+x,1/2-y,1/2+z
loop_
_atom_site_type_symbol
_atom_site_label
_atom_site_fract_x
_atom_site_fract_y
_atom_site_fract_z
Si Si1 0.897931 0.497191 0.743887
Si Si2 0.351938 0.017704 0.505531
Si Si3 0.686531 0.609778 0.911092
Si Si4 0.000000 0.974281 0.250000
Si Si5 0.748815 0.321527 0.667219
Si Si6 0.530444 0.861199 0.036638
Si Si7 0.440761 0.324069 0.823258
O O1 0.850750 0.553386 0.624417
O O2 0.830685 0.399442 0.735805
O O3 0.919614 0.580333 0.843903
O O4 0.000000 0.463494 0.750000
O O5 0.428217 0.091060 0.483616
O O6 0.252066 0.991829 0.418548
O O7 0.402671 0.902060 0.525776
O O8 0.582524 0.588535 0.835527
O O9 0.718645 0.707230 0.854721
O O10 0.703176 0.632996 0.040627
O O11 0.037938 0.053526 0.177074
O O12 0.669283 0.312112 0.720172
O O13 0.526737 0.740403 0.062033
O O14 0.500000 0.279831 0.750000
#
# Coordination Sequence:
#
# PCOD9259603 Si02
#       7
#     8   8   8   4   8   8   8
#     4   9  19  33  58  93 116 151 207 266 304 365
#     4   9  18  33  60  85 115 157 199 265 303 357
#     4  10  21  42  60  89 120 161 211 260 305 374
#     4  10  26  40  62  86 136 166 204 244 332 374
#     4  10  21  37  66  86 123 161 210 258 310 362
#     4  10  18  35  61  86 124 153 206 255 317 364
#     4  10  22  38  59  88 125 171 192 250 315 381
#
# _framework density 21.907008999999999
#
# number of rings (size 3 to 8) (size 9 to 14) (size 15 to 20)
#    0.462    1.846    1.538    1.385    3.231    0.615 
#    0.000    0.769    0.000    0.000    0.000    0.000 
#    0.000    0.000    0.000    0.000    0.000    0.000 
#
# Total GULP energy -144884.657227 kJ/mol
# GULP energy per Si atom -5572.486816 kJ/mol
# Density = 2.185715 g / cm^3
# Si number density = 21.907009 Si / 1000 Ang^3
#
#
#
# Elastic Constant Matrix: (Units=GPa)
#
#
# Indices 1 2 3 4 5 6 
#
# 1 107.4806 31.4157 38.8692 0.0000 15.9097 0.0000
# 2 31.4157 64.3092 34.0459 0.0000 14.5938 0.0000
# 3 38.8692 34.0459 96.9719 0.0000 22.6759 0.0000
# 4 0.0000 0.0000 0.0000 25.6765 0.0000 11.5252
# 5 15.9097 14.5938 22.6759 0.0000 38.8733 0.0000
# 6 0.0000 0.0000 0.0000 11.5252 0.0000 29.1574
#
#
#
# Elastic Compliance Matrix: (Units=1/GPa)
#
#
# Indices 1 2 3 4 5 6 
#
# 1 0.011733 -0.003774 -0.002995 0.000000 -0.001638 0.000000
# 2 -0.003774 0.020805 -0.005010 0.000000 -0.003343 0.000000
# 3 -0.002995 -0.005010 0.014527 0.000000 -0.005367 0.000000
# 4 0.000000 0.000000 0.000000 0.047347 0.000000 -0.018715
# 5 -0.001638 -0.003343 -0.005367 0.000000 0.030781 0.000000
# 6 0.000000 0.000000 0.000000 -0.018715 0.000000 0.041694
#
#
# Mechanical properties :
#
#
# Convention : Reuss Voigt Hill
#
# Bulk Modulus (GPa) = 42.54127 53.04704 47.79415
# Shear Modulus (GPa) = 25.21709 29.70350 27.46029
#
# Velocity S-wave (km/s) = 3.39646 3.68624 3.54431
# Velocity P-wave (km/s) = 5.90275 6.51038 6.21399
#
# Compressibility (1/GPa) = 0.02350659
#
# Stress axis : x y z
#
# Youngs Moduli (GPa) = 85.23199 48.06636 68.83964
#
# Poissons Ratio (x) = 0.18142 0.20615
# Poissons Ratio (y) = 0.32170 0.34485
# Poissons Ratio (z) = 0.25524 0.24079
#
# Static dielectric constant tensor:
#      x y z
#    x 1.876940 0.000000 -0.076140 
#    y 0.000000 1.831510 0.000000 
#    z -0.076140 0.000000 1.901110 
# 
# From -- ./inp_files/154082.got.cif
#   From: 2010.05.17/outbox.cif.g08.bks.cpg/sg15_78_cif.got.tgz:154082.got - 2010.06.03 18:47:42.
