data_PCOD9259724
_publ_section_title
;
Structure prediction by ZEFSAII (Michael W. Deem and Ramdas Pophale) SiO2 
 PCOD9259724
Probable space group: C 2/C
;
_chemical_formula_sum "Si O2"
_cell_formula_units_Z 40
_cell_length_a 18.802224
_cell_length_b 8.316164
_cell_length_c 14.885199
_cell_angle_alpha 90.000000
_cell_angle_beta 39.773937
_cell_angle_gamma 90.000000
_cell_volume 1489.032234
_symmetry_space_group_name_H-M "C 2/C"
_symmetry_group_IT_number 15
_symmetry_cell_setting 'monoclinic'
loop_
_space_group_symop_operation_xyz
x,y,z
-x,y,1/2-z
-x,-y,-z
x,-y,1/2+z
1/2+x,1/2+y,z
1/2-x,1/2+y,1/2-z
1/2-x,1/2-y,-z
1/2+x,1/2-y,1/2+z
loop_
_atom_site_type_symbol
_atom_site_label
_atom_site_fract_x
_atom_site_fract_y
_atom_site_fract_z
Si Si1 0.261402 0.500520 0.388537
Si Si2 0.577855 0.163484 0.478821
Si Si3 0.874732 0.001373 0.086633
Si Si4 0.604590 0.818802 0.214376
Si Si5 0.189264 0.341120 0.675105
O O1 0.131817 0.528505 0.490139
O O2 0.302252 0.495544 0.245386
O O3 0.320785 0.660224 0.367999
O O4 0.312581 0.331188 0.371656
O O5 0.635978 0.330445 0.452025
O O6 0.449532 0.179509 0.632029
O O7 0.609267 0.156309 0.342392
O O8 0.816918 0.137127 0.084208
O O9 0.000000 0.000000 0.000000
O O10 0.500000 0.801522 0.250000
O O11 0.660452 0.995283 0.149567
#
# Coordination Sequence:
#
# PCOD9259724 Si02
#       5
#     8   8   8   8   8
#     4  10  22  39  62  94 124 165 207 261 318 373
#     4  10  21  40  66  91 125 163 210 267 318 362
#     4  10  18  35  66  93 123 154 206 269 309 362
#     4  12  25  42  63  91 132 173 210 256 320 386
#     4  10  23  40  65  96 129 158 219 264 311 377
#
# _framework density 26.863085999999999
#
# number of rings (size 3 to 8) (size 9 to 14) (size 15 to 20)
#    0.000    1.600    4.000    0.600    2.800    4.800 
#    0.000    1.000    0.000    0.000    0.000    0.000 
#    0.000    0.000    0.000    0.000    0.000    0.000 
#
# Total GULP energy -111703.284234 kJ/mol
# GULP energy per Si atom -5585.164212 kJ/mol
# Density = 2.680194 g / cm^3
# Si number density = 26.863086 Si / 1000 Ang^3
#
#
#
# Elastic Constant Matrix: (Units=GPa)
#
#
# Indices 1 2 3 4 5 6 
#
# 1 91.6637 49.2050 14.2050 0.0000 -4.7322 0.0000
# 2 49.2050 225.4866 23.4298 -0.0002 2.2837 0.0002
# 3 14.2050 23.4298 74.8318 0.0000 8.4437 0.0000
# 4 0.0000 -0.0002 0.0000 41.2677 0.0000 -0.6145
# 5 -4.7322 2.2837 8.4437 0.0000 29.3393 0.0000
# 6 0.0000 0.0002 0.0000 -0.6145 0.0000 39.3714
#
#
#
# Elastic Compliance Matrix: (Units=1/GPa)
#
#
# Indices 1 2 3 4 5 6 
#
# 1 0.012755 -0.002612 -0.001921 0.000000 0.002813 0.000000
# 2 -0.002612 0.005119 -0.001048 0.000000 -0.000518 0.000000
# 3 -0.001921 -0.001048 0.014555 0.000000 -0.004417 0.000000
# 4 0.000000 0.000000 0.000000 0.024238 0.000000 0.000378
# 5 0.002813 -0.000518 -0.004417 0.000000 0.035849 0.000000
# 6 0.000000 0.000000 0.000000 0.000378 0.000000 0.025405
#
#
# Mechanical properties :
#
#
# Convention : Reuss Voigt Hill
#
# Bulk Modulus (GPa) = 47.02458 62.85130 54.93794
# Shear Modulus (GPa) = 36.71846 42.33850 39.52848
#
# Velocity S-wave (km/s) = 3.70114 3.97430 3.84015
# Velocity P-wave (km/s) = 5.98396 6.67141 6.33702
#
# Compressibility (1/GPa) = 0.02126548
#
# Stress axis : x y z
#
# Youngs Moduli (GPa) = 78.40343 195.34825 68.70700
#
# Poissons Ratio (x) = 0.51028 0.13197
# Poissons Ratio (y) = 0.20480 0.07204
# Poissons Ratio (z) = 0.15059 0.20482
#
# Static dielectric constant tensor:
#      x y z
#    x 2.132610 0.000000 0.026120 
#    y 0.000000 2.235210 0.000000 
#    z 0.026120 0.000000 2.215080 
# 
# From -- ./inp_files/213668.got.cif
#   From: 2010.05.17/outbox.cif.g08.bks.cpg/sg15_107_cif.got.tgz:213668.got - 2010.06.03 18:47:42.
