data_PCOD9259665
_publ_section_title
;
Structure prediction by ZEFSAII (Michael W. Deem and Ramdas Pophale) SiO2 
 PCOD9259665
Probable space group: C 2/C
;
_chemical_formula_sum "Si O2"
_cell_formula_units_Z 32
_cell_length_a 15.931911
_cell_length_b 8.744491
_cell_length_c 14.206284
_cell_angle_alpha 90.000000
_cell_angle_beta 39.508859
_cell_angle_gamma 90.000000
_cell_volume 1259.142466
_symmetry_space_group_name_H-M "C 2/C"
_symmetry_group_IT_number 15
_symmetry_cell_setting 'monoclinic'
loop_
_space_group_symop_operation_xyz
x,y,z
-x,y,1/2-z
-x,-y,-z
x,-y,1/2+z
1/2+x,1/2+y,z
1/2-x,1/2+y,1/2-z
1/2-x,1/2-y,-z
1/2+x,1/2-y,1/2+z
loop_
_atom_site_type_symbol
_atom_site_label
_atom_site_fract_x
_atom_site_fract_y
_atom_site_fract_z
Si Si1 0.648525 0.729445 0.784313
Si Si2 0.000000 0.385319 0.250000
Si Si3 0.000000 0.959912 0.250000
Si Si4 0.559258 0.155361 0.903351
Si Si5 0.763655 0.576619 0.448951
O O1 0.568516 0.636664 0.774195
O O2 0.791929 0.670023 0.688358
O O3 0.687396 0.891518 0.699828
O O4 0.546698 0.730605 0.957814
O O5 0.941915 0.307756 0.207584
O O6 0.885102 0.491985 0.391524
O O7 0.867963 0.019576 0.416491
O O8 0.500000 0.000000 0.000000
O O9 0.750000 0.750000 0.500000
#
# Coordination Sequence:
#
# PCOD9259665 Si02
#       5
#     8   4   4   8   8
#     4  11  22  40  65 101 134 170 216 279 331 386
#     4  12  25  42  66  95 132 180 221 262 334 405
#     4  10  19  34  66  93 126 156 221 282 332 347
#     4  12  25  43  69  98 135 178 221 268 336 397
#     4  10  18  35  62  94 123 161 220 279 319 364
#
# _framework density 25.41412
#
# number of rings (size 3 to 8) (size 9 to 14) (size 15 to 20)
#    0.000    1.000    5.000    6.000    0.000    1.000 
#    0.000    7.500    0.000    1.500    0.000    0.000 
#    0.000    0.000    0.000    0.000    0.000    0.000 
#
# Total GULP energy -89232.295305 kJ/mol
# GULP energy per Si atom -5577.018457 kJ/mol
# Density = 2.535628 g / cm^3
# Si number density = 25.414120 Si / 1000 Ang^3
#
#
#
# Elastic Constant Matrix: (Units=GPa)
#
#
# Indices 1 2 3 4 5 6 
#
# 1 177.3402 15.8217 83.9086 0.0000 -10.8142 0.0000
# 2 15.8217 12.1876 -0.7872 0.0000 -4.9582 0.0000
# 3 83.9086 -0.7872 164.4504 0.0000 -29.0830 0.0000
# 4 0.0000 0.0000 0.0000 16.4471 0.0000 0.1074
# 5 -10.8142 -4.9582 -29.0830 0.0000 76.2793 0.0000
# 6 0.0000 0.0000 0.0000 0.1074 0.0000 24.3817
#
#
#
# Elastic Compliance Matrix: (Units=1/GPa)
#
#
# Indices 1 2 3 4 5 6 
#
# 1 0.008990 -0.012560 -0.004896 0.000000 -0.001409 0.000000
# 2 -0.012560 0.102161 0.008318 0.000000 0.008031 0.000000
# 3 -0.004896 0.008318 0.009213 0.000000 0.003359 0.000000
# 4 0.000000 0.000000 0.000000 0.060803 0.000000 -0.000268
# 5 -0.001409 0.008031 0.003359 0.000000 0.014713 0.000000
# 6 0.000000 0.000000 0.000000 -0.000268 0.000000 0.041016
#
#
# Mechanical properties :
#
#
# Convention : Reuss Voigt Hill
#
# Bulk Modulus (GPa) = 9.79560 61.31829 35.55695
# Shear Modulus (GPa) = 17.28896 40.42393 28.85645
#
# Velocity S-wave (km/s) = 2.61107 3.99257 3.37330
# Velocity P-wave (km/s) = 3.59902 6.74049 5.40311
#
# Compressibility (1/GPa) = 0.10208666
#
# Stress axis : x y z
#
# Youngs Moduli (GPa) = 111.23051 9.78850 108.54106
#
# Poissons Ratio (x) = 0.12295 0.53147
# Poissons Ratio (y) = 1.39710 -0.90286
# Poissons Ratio (z) = 0.54464 -0.08142
#
# Static dielectric constant tensor:
#      x y z
#    x 2.061790 0.000000 0.012000 
#    y 0.000000 2.193830 0.000000 
#    z 0.012000 0.000000 2.199090 
# 
# From -- ./inp_files/62047.got.cif
#   From: 2010.05.17/outbox.cif.g08.bks.cpg/sg15_32_cif.got.tgz:62047.got - 2010.06.03 18:47:42.
