data_PCOD9259062
_publ_section_title
;
Structure prediction by ZEFSAII (Michael W. Deem and Ramdas Pophale) SiO2 
 PCOD9259062
Probable space group: C 2/C
;
_chemical_formula_sum "Si O2"
_cell_formula_units_Z 52
_cell_length_a 21.489360
_cell_length_b 10.534530
_cell_length_c 20.930315
_cell_angle_alpha 90.000000
_cell_angle_beta 151.456713
_cell_angle_gamma 90.000000
_cell_volume 2264.024232
_symmetry_space_group_name_H-M "C 2/C"
_symmetry_group_IT_number 15
_symmetry_cell_setting 'monoclinic'
loop_
_space_group_symop_operation_xyz
x,y,z
-x,y,1/2-z
-x,-y,-z
x,-y,1/2+z
1/2+x,1/2+y,z
1/2-x,1/2+y,1/2-z
1/2-x,1/2-y,-z
1/2+x,1/2-y,1/2+z
loop_
_atom_site_type_symbol
_atom_site_label
_atom_site_fract_x
_atom_site_fract_y
_atom_site_fract_z
Si Si1 0.000000 0.586796 0.750000
Si Si2 0.238640 0.385761 0.164737
Si Si3 0.505385 0.281641 0.437316
Si Si4 0.381496 0.384452 0.834423
Si Si5 0.695475 0.206373 0.833737
Si Si6 0.751405 0.032567 0.047509
Si Si7 0.100847 0.995954 0.945193
O O1 0.063739 0.670928 0.751755
O O2 0.882329 0.510792 0.611834
O O3 0.351902 0.282426 0.283342
O O4 0.089428 0.342190 0.028587
O O5 0.272420 0.506934 0.239492
O O6 0.264297 0.433663 0.115840
O O7 0.534052 0.364253 0.526784
O O8 0.580118 0.359458 0.448706
O O9 0.322346 0.254277 0.754214
O O10 0.473617 0.427977 0.858842
O O11 0.754399 0.325397 0.927178
O O12 0.783522 0.081817 0.916517
O O13 0.865423 0.020978 0.098378
#
# Coordination Sequence:
#
# PCOD9259062 Si02
#       7
#     4   8   8   8   8   8   8
#     4  10  18  34  58  98 130 152 204 258 322 370
#     4  10  24  45  61  91 123 167 215 255 316 364
#     4  11  25  41  65  87 128 168 212 256 301 382
#     4  10  22  38  64  86 125 163 207 257 306 376
#     4  10  19  33  62  92 124 156 201 261 317 366
#     4  10  21  37  62  90 129 161 205 265 313 381
#     4  10  20  37  60  90 118 163 204 249 316 363
#
# _framework density 22.967953000000001
#
# number of rings (size 3 to 8) (size 9 to 14) (size 15 to 20)
#    0.000    1.846    0.000    5.538    4.308    8.000 
#    0.000    0.769    0.000    0.000    0.000    0.000 
#    0.000    0.000    0.000    0.000    0.000    0.000 
#
# Total GULP energy -145179.000308 kJ/mol
# GULP energy per Si atom -5583.807704 kJ/mol
# Density = 2.291568 g / cm^3
# Si number density = 22.967953 Si / 1000 Ang^3
#
#
#
# Elastic Constant Matrix: (Units=GPa)
#
#
# Indices 1 2 3 4 5 6 
#
# 1 63.9476 2.7255 17.1798 0.0000 -4.9665 0.0000
# 2 2.7255 15.5255 5.9521 0.0000 7.2150 0.0000
# 3 17.1798 5.9521 121.4552 0.0000 -3.6581 0.0000
# 4 0.0000 0.0000 0.0000 28.9958 0.0000 -1.5914
# 5 -4.9665 7.2150 -3.6581 0.0000 33.8990 0.0000
# 6 0.0000 0.0000 0.0000 -1.5914 0.0000 24.5150
#
#
#
# Elastic Compliance Matrix: (Units=1/GPa)
#
#
# Indices 1 2 3 4 5 6 
#
# 1 0.016575 -0.003478 -0.002085 0.000000 0.002944 0.000000
# 2 -0.003478 0.074175 -0.003646 0.000000 -0.016690 0.000000
# 3 -0.002085 -0.003646 0.008750 0.000000 0.001415 0.000000
# 4 0.000000 0.000000 0.000000 0.034611 0.000000 0.002247
# 5 0.002944 -0.016690 0.001415 0.000000 0.033636 0.000000
# 6 0.000000 0.000000 0.000000 0.002247 0.000000 0.040937
#
#
# Mechanical properties :
#
#
# Convention : Reuss Voigt Hill
#
# Bulk Modulus (GPa) = 12.33338 28.07146 20.20242
# Shear Modulus (GPa) = 19.67503 29.15334 24.41418
#
# Velocity S-wave (km/s) = 2.93000 3.56660 3.26385
# Velocity P-wave (km/s) = 4.10220 5.40457 4.79778
#
# Compressibility (1/GPa) = 0.08108077
#
# Stress axis : x y z
#
# Youngs Moduli (GPa) = 60.33206 13.48166 114.28911
#
# Poissons Ratio (x) = 0.04689 0.23834
# Poissons Ratio (y) = 0.20985 0.41667
# Poissons Ratio (z) = 0.12582 0.04915
#
# Static dielectric constant tensor:
#      x y z
#    x 1.857950 0.000000 0.007230 
#    y 0.000000 1.933000 0.000000 
#    z 0.007230 0.000000 1.905520 
# 
# From -- ./inp_files/252753.got.cif
#   From: 2010.05.17/outbox.cif.g08.bks.cpg/sg15_127_cif.got.tgz:252753.got - 2010.06.03 18:47:42.
