data_PCOD9259483
_publ_section_title
;
Structure prediction by ZEFSAII (Michael W. Deem and Ramdas Pophale) SiO2 
 PCOD9259483
Probable space group: C 2/C
;
_chemical_formula_sum "Si O2"
_cell_formula_units_Z 40
_cell_length_a 19.998247
_cell_length_b 11.934572
_cell_length_c 9.114241
_cell_angle_alpha 90.000000
_cell_angle_beta 51.846452
_cell_angle_gamma 90.000000
_cell_volume 1710.565058
_symmetry_space_group_name_H-M "C 2/C"
_symmetry_group_IT_number 15
_symmetry_cell_setting 'monoclinic'
loop_
_space_group_symop_operation_xyz
x,y,z
-x,y,1/2-z
-x,-y,-z
x,-y,1/2+z
1/2+x,1/2+y,z
1/2-x,1/2+y,1/2-z
1/2-x,1/2-y,-z
1/2+x,1/2-y,1/2+z
loop_
_atom_site_type_symbol
_atom_site_label
_atom_site_fract_x
_atom_site_fract_y
_atom_site_fract_z
Si Si1 0.568772 0.209641 0.930980
Si Si2 0.881854 0.362436 0.695902
Si Si3 0.500000 0.389055 0.250000
Si Si4 0.876949 0.900405 0.166798
Si Si5 0.500000 0.666790 0.250000
Si Si6 0.188896 0.539792 0.908859
O O1 0.556371 0.258834 0.785635
O O2 0.650860 0.136795 0.854371
O O3 0.483903 0.135113 0.072017
O O4 0.556821 0.309666 0.065042
O O5 0.857855 0.231247 0.724490
O O6 0.852041 0.425012 0.590693
O O7 0.839768 0.423817 0.890564
O O8 0.433380 0.441839 0.226129
O O9 0.790115 0.965000 0.264076
O O10 0.936071 0.897992 0.943928
#
# Coordination Sequence:
#
# PCOD9259483 Si02
#       6
#     8   8   4   8   4   8
#     4  10  18  35  58  86 130 159 182 246 304 370
#     4  10  23  37  55  95 125 157 197 244 308 364
#     4   8  16  36  59  83 112 162 202 226 297 349
#     4  10  21  41  63  89 120 164 200 255 295 365
#     4   8  20  36  57  91 116 158 208 238 309 341
#     4  12  22  37  62  90 125 160 206 245 302 359
#
# _framework density 23.384087000000001
#
# number of rings (size 3 to 8) (size 9 to 14) (size 15 to 20)
#    0.000    2.400    4.000    1.200    5.600    0.800 
#    0.000    0.000    0.000    3.600    5.200    0.000 
#    0.000    0.000    0.000    0.000    0.000    0.000 
#
# Total GULP energy -111939.048221 kJ/mol
# GULP energy per Si atom -5596.952411 kJ/mol
# Density = 2.333086 g / cm^3
# Si number density = 23.384087 Si / 1000 Ang^3
#
#
#
# Elastic Constant Matrix: (Units=GPa)
#
#
# Indices 1 2 3 4 5 6 
#
# 1 113.4124 9.2601 60.6382 0.0000 -15.8109 0.0000
# 2 9.2601 43.6287 18.5638 0.0000 9.3274 0.0000
# 3 60.6382 18.5638 131.3205 0.0000 17.3501 0.0000
# 4 0.0000 0.0000 0.0000 23.6667 0.0000 6.7282
# 5 -15.8109 9.3274 17.3501 0.0000 42.1143 0.0000
# 6 0.0000 0.0000 0.0000 6.7282 0.0000 -13.4363
#
#
#
# Elastic Compliance Matrix: (Units=1/GPa)
#
#
# Indices 1 2 3 4 5 6 
#
# 1 0.014168 -0.001708 -0.007459 0.000000 0.008770 0.000000
# 2 -0.001708 0.025320 -0.002078 0.000000 -0.005393 0.000000
# 3 -0.007459 -0.002078 0.012334 0.000000 -0.007421 0.000000
# 4 0.000000 0.000000 0.000000 0.036988 0.000000 0.018521
# 5 0.008770 -0.005393 -0.007421 0.000000 0.031290 0.000000
# 6 0.000000 0.000000 0.000000 0.018521 0.000000 -0.065151
#
#
# Mechanical properties :
#
#
# Convention : Reuss Voigt Hill
#
# Bulk Modulus (GPa) = 34.09398 51.69843 42.89620
# Shear Modulus (GPa) = 57.32817 23.79556 40.56187
#
# Velocity S-wave (km/s) = 4.95672 3.19344 4.16936
# Velocity P-wave (km/s) = 6.88262 5.97945 6.44687
#
# Compressibility (1/GPa) = 0.02933069
#
# Stress axis : x y z
#
# Youngs Moduli (GPa) = 70.58230 39.49378 81.07892
#
# Poissons Ratio (x) = 0.06746 0.60480
# Poissons Ratio (y) = 0.12057 0.16849
# Poissons Ratio (z) = 0.52650 0.08207
#
# Static dielectric constant tensor:
#      x y z
#    x 1.847720 0.000000 0.003200 
#    y 0.000000 1.975590 0.000000 
#    z 0.003200 0.000000 1.863190 
# 
# From -- ./inp_files/39434.got.cif
#   From: 2010.05.17/outbox.cif.g08.bks.cpg/sg15_20_cif.got.tgz:39434.got - 2010.06.03 18:47:42.
