data_PCOD9259763
_publ_section_title
;
Structure prediction by ZEFSAII (Michael W. Deem and Ramdas Pophale) SiO2 
 PCOD9259763
Probable space group: C 2/C
;
_chemical_formula_sum "Si O2"
_cell_formula_units_Z 52
_cell_length_a 7.383520
_cell_length_b 14.979663
_cell_length_c 21.986540
_cell_angle_alpha 90.000000
_cell_angle_beta 66.726927
_cell_angle_gamma 90.000000
_cell_volume 2233.901605
_symmetry_space_group_name_H-M "C 2/C"
_symmetry_group_IT_number 15
_symmetry_cell_setting 'monoclinic'
loop_
_space_group_symop_operation_xyz
x,y,z
-x,y,1/2-z
-x,-y,-z
x,-y,1/2+z
1/2+x,1/2+y,z
1/2-x,1/2+y,1/2-z
1/2-x,1/2-y,-z
1/2+x,1/2-y,1/2+z
loop_
_atom_site_type_symbol
_atom_site_label
_atom_site_fract_x
_atom_site_fract_y
_atom_site_fract_z
Si Si1 0.383339 0.648102 0.327897
Si Si2 0.500000 0.996341 0.250000
Si Si3 0.899182 0.661441 0.855855
Si Si4 0.141422 0.191972 0.672698
Si Si5 0.754224 0.117281 0.140198
Si Si6 0.210279 0.469181 0.043083
Si Si7 0.752442 0.980041 0.405644
O O1 0.500000 0.638048 0.250000
O O2 0.307309 0.750010 0.338236
O O3 0.525973 0.640497 0.367882
O O4 0.251865 0.561094 0.356990
O O5 0.555512 0.924885 0.190889
O O6 0.672274 0.066665 0.211406
O O7 0.126645 0.686149 0.840444
O O8 0.753053 0.624192 0.927293
O O9 0.131457 0.291578 0.646575
O O10 0.000000 0.185827 0.750000
O O11 0.117448 0.103218 0.634839
O O12 0.740168 0.052604 0.084305
O O13 0.977135 0.454649 0.060287
O O14 0.309970 0.490416 0.965868
#
# Coordination Sequence:
#
# PCOD9259763 Si02
#       7
#     8   4   8   8   8   8   8
#     4  11  23  36  56  91 114 145 187 247 285 335
#     4  10  18  36  54  80 108 154 176 230 276 356
#     4   9  20  36  57  78 117 143 191 232 282 343
#     4  10  20  35  55  87 115 146 183 241 290 340
#     4  10  22  36  59  81 118 148 189 231 289 344
#     4   9  21  42  59  83 109 165 193 227 289 342
#     4  10  22  38  61  82 120 150 197 236 279 344
#
# _framework density 23.277657000000001
#
# number of rings (size 3 to 8) (size 9 to 14) (size 15 to 20)
#    0.000    2.154    1.538    0.462    8.615    1.846 
#    0.000    0.000    0.000    0.000    0.000    0.000 
#    0.000    0.000    0.000    0.000    0.000    0.000 
#
# Total GULP energy -144786.091476 kJ/mol
# GULP energy per Si atom -5568.695826 kJ/mol
# Density = 2.322468 g / cm^3
# Si number density = 23.277657 Si / 1000 Ang^3
#
#
#
# Elastic Constant Matrix: (Units=GPa)
#
#
# Indices 1 2 3 4 5 6 
#
# 1 33.3010 8.5076 0.5906 0.0000 -2.3014 0.0000
# 2 8.5076 158.2923 74.0439 0.0000 -11.2391 0.0000
# 3 0.5906 74.0439 120.9692 0.0000 9.4846 0.0000
# 4 0.0000 0.0000 0.0000 24.4249 0.0000 3.7780
# 5 -2.3014 -11.2391 9.4846 0.0000 12.8254 0.0000
# 6 0.0000 0.0000 0.0000 3.7780 0.0000 10.7436
#
#
#
# Elastic Compliance Matrix: (Units=1/GPa)
#
#
# Indices 1 2 3 4 5 6 
#
# 1 0.030694 -0.001669 0.000588 0.000000 0.003610 0.000000
# 2 -0.001669 0.011336 -0.008159 0.000000 0.015668 0.000000
# 3 0.000588 -0.008159 0.014660 0.000000 -0.017886 0.000000
# 4 0.000000 0.000000 0.000000 0.043297 0.000000 -0.015225
# 5 0.003610 0.015668 -0.017886 0.000000 0.105575 0.000000
# 6 0.000000 0.000000 0.000000 -0.015225 0.000000 0.098432
#
#
# Mechanical properties :
#
#
# Convention : Reuss Voigt Hill
#
# Bulk Modulus (GPa) = 26.16965 53.20517 39.68741
# Shear Modulus (GPa) = 14.91598 24.89349 19.90474
#
# Velocity S-wave (km/s) = 2.53412 3.27374 2.92738
# Velocity P-wave (km/s) = 4.45299 6.09887 5.33973
#
# Compressibility (1/GPa) = 0.03821221
#
# Stress axis : x y z
#
# Youngs Moduli (GPa) = 32.57915 88.21339 68.21235
#
# Poissons Ratio (x) = 0.14719 -0.04014
# Poissons Ratio (y) = 0.05436 0.55655
# Poissons Ratio (z) = -0.01917 0.71974
#
# Static dielectric constant tensor:
#      x y z
#    x 1.997190 0.000000 0.028810 
#    y 0.000000 2.000650 0.000000 
#    z 0.028810 0.000000 1.912540 
# 
# From -- ./inp_files/264157.got.cif
#   From: 2010.05.17/outbox.cif.g08.bks.cpg/sg15_133_cif.got.tgz:264157.got - 2010.06.03 18:47:42.
