data_PCOD9259413
_publ_section_title
;
Structure prediction by ZEFSAII (Michael W. Deem and Ramdas Pophale) SiO2 
 PCOD9259413
Probable space group: C 2/C
;
_chemical_formula_sum "Si O2"
_cell_formula_units_Z 48
_cell_length_a 19.193181
_cell_length_b 13.198075
_cell_length_c 7.730211
_cell_angle_alpha 90.000000
_cell_angle_beta 102.607536
_cell_angle_gamma 90.000000
_cell_volume 1910.948154
_symmetry_space_group_name_H-M "C 2/C"
_symmetry_group_IT_number 15
_symmetry_cell_setting 'monoclinic'
loop_
_space_group_symop_operation_xyz
x,y,z
-x,y,1/2-z
-x,-y,-z
x,-y,1/2+z
1/2+x,1/2+y,z
1/2-x,1/2+y,1/2-z
1/2-x,1/2-y,-z
1/2+x,1/2-y,1/2+z
loop_
_atom_site_type_symbol
_atom_site_label
_atom_site_fract_x
_atom_site_fract_y
_atom_site_fract_z
Si Si1 0.714211 0.154838 0.812371
Si Si2 0.079834 0.024803 0.857585
Si Si3 0.370562 0.662228 0.921202
Si Si4 0.717180 0.932551 0.925962
Si Si5 0.863499 0.817005 0.895200
Si Si6 0.079287 0.671290 0.263791
O O1 0.791138 0.206381 0.877130
O O2 0.711967 0.108429 0.617614
O O3 0.651662 0.238673 0.770326
O O4 0.720437 0.054369 0.931592
O O5 0.000000 0.028820 0.750000
O O6 0.127256 0.085912 0.745080
O O7 0.108311 0.913478 0.915030
O O8 0.083536 0.089247 0.039463
O O9 0.423326 0.752715 0.900858
O O10 0.786205 0.872797 0.886370
O O11 0.643886 0.907205 0.785145
O O12 0.893540 0.741735 0.062354
O O13 0.000000 0.629808 0.250000
#
# Coordination Sequence:
#
# PCOD9259413 Si02
#       6
#     8   8   8   8   8   8
#     4  11  19  35  59  85 113 154 200 241 282 340
#     4  11  22  33  54  86 123 152 185 236 301 354
#     4  11  18  34  55  85 116 154 190 235 289 355
#     4  11  20  37  58  84 117 149 200 244 282 345
#     4  10  18  35  57  80 113 154 197 229 277 359
#     4  10  20  36  59  84 111 158 199 233 285 355
#
# _framework density 25.118421000000001
#
# number of rings (size 3 to 8) (size 9 to 14) (size 15 to 20)
#    0.000    1.333    6.667    3.500    0.000    0.000 
#    0.000    5.833    0.000    0.000    0.000    2.333 
#    0.000    0.000    0.000    0.000    0.000    0.000 
#
# Total GULP energy -134043.956140 kJ/mol
# GULP energy per Si atom -5585.164839 kJ/mol
# Density = 2.506125 g / cm^3
# Si number density = 25.118421 Si / 1000 Ang^3
#
#
#
# Elastic Constant Matrix: (Units=GPa)
#
#
# Indices 1 2 3 4 5 6 
#
# 1 89.1484 14.7149 35.1511 0.0000 37.7084 0.0000
# 2 14.7149 63.7952 23.5999 0.0000 25.9315 0.0000
# 3 35.1511 23.5999 120.8478 0.0000 26.2613 0.0000
# 4 0.0000 0.0000 0.0000 45.2297 0.0000 -2.4554
# 5 37.7084 25.9315 26.2613 0.0000 45.0969 0.0000
# 6 0.0000 0.0000 0.0000 -2.4554 0.0000 23.0170
#
#
#
# Elastic Compliance Matrix: (Units=1/GPa)
#
#
# Indices 1 2 3 4 5 6 
#
# 1 0.018305 0.003050 -0.002533 0.000000 -0.015584 0.000000
# 2 0.003050 0.021255 -0.002093 0.000000 -0.013553 0.000000
# 3 -0.002533 -0.002093 0.009959 0.000000 -0.002478 0.000000
# 4 0.000000 0.000000 0.000000 0.022238 0.000000 0.002372
# 5 -0.015584 -0.013553 -0.002478 0.000000 0.044442 0.000000
# 6 0.000000 0.000000 0.000000 0.002372 0.000000 0.043699
#
#
# Mechanical properties :
#
#
# Convention : Reuss Voigt Hill
#
# Bulk Modulus (GPa) = 21.56750 46.74702 34.15726
# Shear Modulus (GPa) = 28.01038 36.02375 32.01707
#
# Velocity S-wave (km/s) = 3.34298 3.79113 3.57409
# Velocity P-wave (km/s) = 4.84827 6.14936 5.53716
#
# Compressibility (1/GPa) = 0.04636605
#
# Stress axis : x y z
#
# Youngs Moduli (GPa) = 54.63121 47.04761 100.41336
#
# Poissons Ratio (x) = -0.14348 0.25437
# Poissons Ratio (y) = -0.16661 0.21012
# Poissons Ratio (z) = 0.13840 0.09845
#
# Static dielectric constant tensor:
#      x y z
#    x 2.048390 0.000000 -0.151380 
#    y 0.000000 2.077090 0.000000 
#    z -0.151380 0.000000 2.076540 
# 
# From -- ./inp_files/117714.got.cif
#   From: 2010.05.17/outbox.cif.g08.bks.cpg/sg15_59_cif.got.tgz:117714.got - 2010.06.03 18:47:42.
