data_PCOD9259525
_publ_section_title
;
Structure prediction by ZEFSAII (Michael W. Deem and Ramdas Pophale) SiO2 
 PCOD9259525
Probable space group: C 2/C
;
_chemical_formula_sum "Si O2"
_cell_formula_units_Z 56
_cell_length_a 13.240631
_cell_length_b 8.705037
_cell_length_c 20.267643
_cell_angle_alpha 90.000000
_cell_angle_beta 82.982755
_cell_angle_gamma 90.000000
_cell_volume 2318.553865
_symmetry_space_group_name_H-M "C 2/C"
_symmetry_group_IT_number 15
_symmetry_cell_setting 'monoclinic'
loop_
_space_group_symop_operation_xyz
x,y,z
-x,y,1/2-z
-x,-y,-z
x,-y,1/2+z
1/2+x,1/2+y,z
1/2-x,1/2+y,1/2-z
1/2-x,1/2-y,-z
1/2+x,1/2-y,1/2+z
loop_
_atom_site_type_symbol
_atom_site_label
_atom_site_fract_x
_atom_site_fract_y
_atom_site_fract_z
Si Si1 0.910847 0.797485 0.800358
Si Si2 0.281533 0.925890 0.489263
Si Si3 0.919824 0.523599 0.358711
Si Si4 0.760402 0.212613 0.195409
Si Si5 0.295631 0.464193 0.383391
Si Si6 0.971270 0.206838 0.931677
Si Si7 0.402505 0.596132 0.068861
O O1 0.952426 0.632028 0.819930
O O2 0.811083 0.789811 0.762492
O O3 0.870814 0.893730 0.865688
O O4 0.000000 0.874206 0.750000
O O5 0.250000 0.750000 0.500000
O O6 0.295991 0.988927 0.561957
O O7 0.367333 0.962494 0.430132
O O8 0.185568 0.017373 0.467678
O O9 0.835741 0.603904 0.316364
O O10 0.998093 0.649807 0.382310
O O11 0.730288 0.388269 0.183526
O O12 0.848485 0.175087 0.134619
O O13 0.357340 0.328918 0.415139
O O14 0.963355 0.206554 0.012508
O O15 0.035474 0.053825 0.913211
#
# Coordination Sequence:
#
# PCOD9259525 Si02
#       7
#     8   8   8   8   8   8   8
#     4  12  24  39  55  83 124 158 196 247 297 357
#     4  10  18  35  59  87 114 145 192 249 299 349
#     4  10  21  39  60  86 117 155 202 247 298 362
#     4  10  21  39  61  84 110 158 205 243 289 356
#     4  10  20  37  63  83 111 153 196 243 300 350
#     4   9  18  36  60  87 117 149 193 246 304 358
#     4   9  18  34  61  88 116 148 195 245 301 363
#
# _framework density 24.152985999999999
#
# number of rings (size 3 to 8) (size 9 to 14) (size 15 to 20)
#    0.000    2.000    1.429    2.571    0.000    3.429 
#    2.571    7.857    0.000    0.000    0.000    0.000 
#    0.000    0.000    0.000    0.000    0.000    0.000 
#
# Total GULP energy -156211.924536 kJ/mol
# GULP energy per Si atom -5578.997305 kJ/mol
# Density = 2.409801 g / cm^3
# Si number density = 24.152986 Si / 1000 Ang^3
#
#
#
# Elastic Constant Matrix: (Units=GPa)
#
#
# Indices 1 2 3 4 5 6 
#
# 1 34.5246 3.5816 6.3771 0.0000 11.9926 0.0000
# 2 3.5816 90.1322 25.0249 0.0000 11.2361 0.0000
# 3 6.3771 25.0249 55.2662 0.0000 7.3372 0.0000
# 4 0.0000 0.0000 0.0000 39.8673 0.0000 9.8035
# 5 11.9926 11.2361 7.3372 0.0000 31.3911 0.0000
# 6 0.0000 0.0000 0.0000 9.8035 0.0000 29.2215
#
#
#
# Elastic Compliance Matrix: (Units=1/GPa)
#
#
# Indices 1 2 3 4 5 6 
#
# 1 0.033737 0.000970 -0.002657 0.000000 -0.012615 0.000000
# 2 0.000970 0.013059 -0.005527 0.000000 -0.003753 0.000000
# 3 -0.002657 -0.005527 0.021163 0.000000 -0.001953 0.000000
# 4 0.000000 0.000000 0.000000 0.027339 0.000000 -0.009172
# 5 -0.012615 -0.003753 -0.001953 0.000000 0.038475 0.000000
# 6 0.000000 0.000000 0.000000 -0.009172 0.000000 0.037298
#
#
# Mechanical properties :
#
#
# Convention : Reuss Voigt Hill
#
# Bulk Modulus (GPa) = 18.68115 27.76559 23.22337
# Shear Modulus (GPa) = 24.58911 29.75861 27.17386
#
# Velocity S-wave (km/s) = 3.19416 3.51392 3.35785
# Velocity P-wave (km/s) = 4.62113 5.29001 4.96684
#
# Compressibility (1/GPa) = 0.05352989
#
# Stress axis : x y z
#
# Youngs Moduli (GPa) = 29.64104 76.57801 47.25308
#
# Poissons Ratio (x) = -0.07426 0.12556
# Poissons Ratio (y) = -0.02874 0.26115
# Poissons Ratio (z) = 0.07876 0.42322
#
# Static dielectric constant tensor:
#      x y z
#    x 1.931980 0.000000 0.031540 
#    y 0.000000 1.968320 0.000000 
#    z 0.031540 0.000000 1.950800 
# 
# From -- ./inp_files/242779.got.cif
#   From: 2010.05.17/outbox.cif.g08.bks.cpg/sg15_122_cif.got.tgz:242779.got - 2010.06.03 18:47:42.
