data_PCOD9259042
_publ_section_title
;
Structure prediction by ZEFSAII (Michael W. Deem and Ramdas Pophale) SiO2 
 PCOD9259042
Probable space group: C 2/C
;
_chemical_formula_sum "Si O2"
_cell_formula_units_Z 60
_cell_length_a 21.170825
_cell_length_b 9.918208
_cell_length_c 20.770890
_cell_angle_alpha 90.000000
_cell_angle_beta 133.902251
_cell_angle_gamma 90.000000
_cell_volume 3142.494110
_symmetry_space_group_name_H-M "C 2/C"
_symmetry_group_IT_number 15
_symmetry_cell_setting 'monoclinic'
loop_
_space_group_symop_operation_xyz
x,y,z
-x,y,1/2-z
-x,-y,-z
x,-y,1/2+z
1/2+x,1/2+y,z
1/2-x,1/2+y,1/2-z
1/2-x,1/2-y,-z
1/2+x,1/2-y,1/2+z
loop_
_atom_site_type_symbol
_atom_site_label
_atom_site_fract_x
_atom_site_fract_y
_atom_site_fract_z
Si Si1 0.796245 0.899327 0.531103
Si Si2 0.000000 0.546884 0.750000
Si Si3 0.952187 0.261718 0.096127
Si Si4 0.650232 0.718286 0.232784
Si Si5 0.307113 0.798675 0.752347
Si Si6 0.777455 0.043707 0.654745
Si Si7 0.594356 0.073891 0.060705
Si Si8 0.181413 0.477078 0.334837
O O1 0.750000 0.750000 0.500000
O O2 0.895728 0.862971 0.582253
O O3 0.747603 0.978149 0.440006
O O4 0.786683 0.988399 0.588413
O O5 0.035732 0.637030 0.834761
O O6 0.084920 0.468538 0.785172
O O7 0.050074 0.229907 0.142082
O O8 0.906057 0.331094 0.002692
O O9 0.723490 0.752304 0.232828
O O10 0.670399 0.568177 0.268343
O O11 0.665221 0.822870 0.301756
O O12 0.317912 0.686681 0.704312
O O13 0.380755 0.839271 0.857661
O O14 0.285360 0.938028 0.701498
O O15 0.675341 0.027508 0.603870
O O16 0.500000 0.000000 0.000000
#
# Coordination Sequence:
#
# PCOD9259042 Si02
#       8
#     8   4   8   8   8   8   8   8
#     4  12  19  38  60  89 115 153 207 251 297 368
#     4  10  18  34  58  90 112 144 208 260 292 348
#     4  11  20  34  63  92 112 154 213 258 289 361
#     4  10  20  39  62  87 119 159 204 248 304 372
#     4  11  24  39  57  89 127 162 193 253 322 364
#     4  11  22  39  61  88 129 159 196 259 315 362
#     4  11  21  38  63  90 121 165 216 253 299 370
#     4  11  21  37  62  86 116 157 205 250 303 367
#
# _framework density 19.093115000000001
#
# number of rings (size 3 to 8) (size 9 to 14) (size 15 to 20)
#    0.000    1.067    4.000    5.600    0.000    0.533 
#    0.000    5.333    0.000    0.000    0.000    0.000 
#    0.000    0.000    0.000    0.000    0.000    0.000 
#
# Total GULP energy -167285.011931 kJ/mol
# GULP energy per Si atom -5576.167064 kJ/mol
# Density = 1.904966 g / cm^3
# Si number density = 19.093115 Si / 1000 Ang^3
#
#
#
# Elastic Constant Matrix: (Units=GPa)
#
#
# Indices 1 2 3 4 5 6 
#
# 1 72.0524 20.8669 35.4622 0.0000 0.6043 0.0000
# 2 20.8669 62.2363 42.3581 0.0000 -1.8456 0.0000
# 3 35.4622 42.3581 129.2908 0.0000 -16.7682 0.0000
# 4 0.0000 0.0000 0.0000 29.9436 0.0000 -3.2784
# 5 0.6043 -1.8456 -16.7682 0.0000 33.7329 0.0000
# 6 0.0000 0.0000 0.0000 -3.2784 0.0000 22.1979
#
#
#
# Elastic Compliance Matrix: (Units=1/GPa)
#
#
# Indices 1 2 3 4 5 6 
#
# 1 0.016692 -0.003011 -0.003904 0.000000 -0.002404 0.000000
# 2 -0.003011 0.021404 -0.006443 0.000000 -0.001978 0.000000
# 3 -0.003904 -0.006443 0.011629 0.000000 0.005498 0.000000
# 4 0.000000 0.000000 0.000000 0.033945 0.000000 0.005013
# 5 -0.002404 -0.001978 0.005498 0.000000 0.032313 0.000000
# 6 0.000000 0.000000 0.000000 0.005013 0.000000 0.045790
#
#
# Mechanical properties :
#
#
# Convention : Reuss Voigt Hill
#
# Bulk Modulus (GPa) = 43.45983 51.21711 47.33847
# Shear Modulus (GPa) = 25.48970 28.16771 26.82870
#
# Velocity S-wave (km/s) = 3.65776 3.84511 3.75260
# Velocity P-wave (km/s) = 6.37576 6.82615 6.60480
#
# Compressibility (1/GPa) = 0.02300975
#
# Stress axis : x y z
#
# Youngs Moduli (GPa) = 59.90785 46.72086 85.99114
#
# Poissons Ratio (x) = 0.14068 0.33569
# Poissons Ratio (y) = 0.18039 0.55403
# Poissons Ratio (z) = 0.23386 0.30102
#
# Static dielectric constant tensor:
#      x y z
#    x 1.731510 0.000000 -0.004250 
#    y 0.000000 1.645860 0.000000 
#    z -0.004250 0.000000 1.664640 
# 
# From -- ./inp_files/255177.got.cif
#   From: 2010.05.17/outbox.cif.g08.bks.cpg/sg15_128_cif.got.tgz:255177.got - 2010.06.03 18:47:42.
