data_PCOD9259088
_publ_section_title
;
Structure prediction by ZEFSAII (Michael W. Deem and Ramdas Pophale) SiO2 
 PCOD9259088
Probable space group: C 2/C
;
_chemical_formula_sum "Si O2"
_cell_formula_units_Z 56
_cell_length_a 27.344862
_cell_length_b 14.244278
_cell_length_c 14.381471
_cell_angle_alpha 90.000000
_cell_angle_beta 152.163677
_cell_angle_gamma 90.000000
_cell_volume 2615.696704
_symmetry_space_group_name_H-M "C 2/C"
_symmetry_group_IT_number 15
_symmetry_cell_setting 'monoclinic'
loop_
_space_group_symop_operation_xyz
x,y,z
-x,y,1/2-z
-x,-y,-z
x,-y,1/2+z
1/2+x,1/2+y,z
1/2-x,1/2+y,1/2-z
1/2-x,1/2-y,-z
1/2+x,1/2-y,1/2+z
loop_
_atom_site_type_symbol
_atom_site_label
_atom_site_fract_x
_atom_site_fract_y
_atom_site_fract_z
Si Si1 0.482089 0.287599 0.880727
Si Si2 0.879209 0.028947 0.576519
Si Si3 0.386207 0.894327 0.289103
Si Si4 0.846443 0.186962 0.968765
Si Si5 0.543204 0.997587 0.419482
Si Si6 0.238076 0.624762 0.201349
Si Si7 0.674404 0.561886 0.336813
O O1 0.453766 0.199420 0.895151
O O2 0.417030 0.278480 0.674636
O O3 0.431799 0.378292 0.843009
O O4 0.598411 0.299249 0.038835
O O5 0.845767 0.924992 0.482532
O O6 0.854239 0.024570 0.644569
O O7 0.000000 0.039970 0.750000
O O8 0.807267 0.105118 0.407201
O O9 0.391780 0.935615 0.402032
O O10 0.445147 0.964530 0.316926
O O11 0.269400 0.884344 0.051771
O O12 0.756345 0.265839 0.817938
O O13 0.500000 0.037675 0.250000
O O14 0.619292 0.910273 0.520901
O O15 0.282810 0.557981 0.194917
#
# Coordination Sequence:
#
# PCOD9259088 Si02
#       7
#     8   8   8   8   8   8   8
#     4  10  18  34  59  90 117 148 206 264 311 347
#     4  11  24  43  61  92 126 163 210 266 315 369
#     4  11  20  31  57  88 125 156 203 253 313 367
#     4  10  19  37  61  88 127 152 195 274 315 345
#     4  11  21  34  51  88 131 161 192 252 314 380
#     4  12  23  35  65  94 124 164 207 260 319 370
#     4  11  21  34  61  92 116 159 211 259 304 374
#
# _framework density 21.409209000000001
#
# number of rings (size 3 to 8) (size 9 to 14) (size 15 to 20)
#    0.000    1.143    8.571    0.429    2.000    0.571 
#    0.000    0.000    0.000    4.286    0.000    0.000 
#    0.000    0.000    0.000    0.000    0.000    0.000 
#
# Total GULP energy -156152.625919 kJ/mol
# GULP energy per Si atom -5576.879497 kJ/mol
# Density = 2.136048 g / cm^3
# Si number density = 21.409209 Si / 1000 Ang^3
#
#
#
# Elastic Constant Matrix: (Units=GPa)
#
#
# Indices 1 2 3 4 5 6 
#
# 1 87.5576 -18.3335 14.5050 0.0000 5.6918 0.0000
# 2 -18.3335 25.0546 -1.5694 0.0000 -12.0771 0.0000
# 3 14.5050 -1.5694 35.9675 0.0000 1.0478 0.0000
# 4 0.0000 0.0000 0.0000 9.4021 0.0000 -2.4103
# 5 5.6918 -12.0771 1.0478 0.0000 35.0972 0.0000
# 6 0.0000 0.0000 0.0000 -2.4103 0.0000 13.3577
#
#
#
# Elastic Compliance Matrix: (Units=1/GPa)
#
#
# Indices 1 2 3 4 5 6 
#
# 1 0.014533 0.011074 -0.005425 0.000000 0.001616 0.000000
# 2 0.011074 0.056381 -0.002521 0.000000 0.017680 0.000000
# 3 -0.005425 -0.002521 0.029906 0.000000 -0.000880 0.000000
# 4 0.000000 0.000000 0.000000 0.111518 0.000000 0.020122
# 5 0.001616 0.017680 -0.000880 0.000000 0.034340 0.000000
# 6 0.000000 0.000000 0.000000 0.020122 0.000000 0.078494
#
#
# Mechanical properties :
#
#
# Convention : Reuss Voigt Hill
#
# Bulk Modulus (GPa) = 9.33913 15.30932 12.32423
# Shear Modulus (GPa) = 14.10006 21.83659 17.96832
#
# Velocity S-wave (km/s) = 2.56910 3.19715 2.90018
# Velocity P-wave (km/s) = 3.62933 4.56019 4.12113
#
# Compressibility (1/GPa) = 0.10707631
#
# Stress axis : x y z
#
# Youngs Moduli (GPa) = 68.80683 17.73661 33.43774
#
# Poissons Ratio (x) = -0.19641 0.18140
# Poissons Ratio (y) = -0.76195 0.08429
# Poissons Ratio (z) = 0.37327 0.04471
#
# Static dielectric constant tensor:
#      x y z
#    x 1.858260 0.000000 0.061580 
#    y 0.000000 1.805160 0.000000 
#    z 0.061580 0.000000 1.790480 
# 
# From -- ./inp_files/178409.got.cif
#   From: 2010.05.17/outbox.cif.g08.bks.cpg/sg15_90_cif.got.tgz:178409.got - 2010.06.03 18:47:42.
