data_PCOD9259914
_publ_section_title
;
Structure prediction by ZEFSAII (Michael W. Deem and Ramdas Pophale) SiO2 
 PCOD9259914
Probable space group: C 2/C
;
_chemical_formula_sum "Si O2"
_cell_formula_units_Z 60
_cell_length_a 11.917976
_cell_length_b 11.672456
_cell_length_c 29.236496
_cell_angle_alpha 90.000000
_cell_angle_beta 133.627756
_cell_angle_gamma 90.000000
_cell_volume 2943.955717
_symmetry_space_group_name_H-M "C 2/C"
_symmetry_group_IT_number 15
_symmetry_cell_setting 'monoclinic'
loop_
_space_group_symop_operation_xyz
x,y,z
-x,y,1/2-z
-x,-y,-z
x,-y,1/2+z
1/2+x,1/2+y,z
1/2-x,1/2+y,1/2-z
1/2-x,1/2-y,-z
1/2+x,1/2-y,1/2+z
loop_
_atom_site_type_symbol
_atom_site_label
_atom_site_fract_x
_atom_site_fract_y
_atom_site_fract_z
Si Si1 0.385386 0.489262 0.123224
Si Si2 0.240035 0.746125 0.267646
Si Si3 0.611614 0.977720 0.746024
Si Si4 0.063810 0.395290 0.047771
Si Si5 0.203066 0.734381 0.069127
Si Si6 0.853125 0.149151 0.849709
Si Si7 0.477942 0.109840 0.627546
Si Si8 0.500000 0.596848 0.750000
O O1 0.244701 0.396412 0.086746
O O2 0.305098 0.615392 0.095766
O O3 0.505555 0.440979 0.118702
O O4 0.465121 0.478926 0.195522
O O5 0.245167 0.611228 0.273561
O O6 0.148881 0.769708 0.195117
O O7 0.412514 0.792158 0.320111
O O8 0.144492 0.821730 0.277443
O O9 0.500000 0.916068 0.750000
O O10 0.690852 0.081329 0.795774
O O11 0.515579 0.010039 0.674154
O O12 0.035150 0.419165 0.093071
O O13 0.000000 0.500000 0.000000
O O14 0.955307 0.289345 0.003016
O O15 0.156733 0.777214 0.107037
O O16 0.306945 0.837662 0.078446
#
# Coordination Sequence:
#
# PCOD9259914 Si02
#       8
#     8   8   8   8   8   8   8   4
#     4  10  22  40  61  91 126 157 218 263 309 385
#     4  10  21  33  62  90 125 165 197 260 332 371
#     4  11  21  37  59  93 131 154 204 267 322 388
#     4  10  23  41  65  89 121 172 217 257 304 375
#     4  11  23  40  65  87 127 172 210 257 320 371
#     4  10  23  38  59  97 122 164 211 259 320 387
#     4  11  22  40  62  90 128 162 211 259 315 381
#     4  10  18  36  58  90 124 162 202 258 320 382
#
# _framework density 20.380739999999999
#
# number of rings (size 3 to 8) (size 9 to 14) (size 15 to 20)
#    0.000    1.600    3.333    1.200    3.733    2.667 
#    0.000    0.000    5.867    4.800    0.000    0.000 
#    0.000    0.000    0.000    0.000    0.000    0.000 
#
# Total GULP energy -167126.035471 kJ/mol
# GULP energy per Si atom -5570.867849 kJ/mol
# Density = 2.033435 g / cm^3
# Si number density = 20.380740 Si / 1000 Ang^3
#
#
#
# Elastic Constant Matrix: (Units=GPa)
#
#
# Indices 1 2 3 4 5 6 
#
# 1 84.9669 6.1832 14.1458 0.0000 -2.7715 0.0000
# 2 6.1832 49.0375 6.5495 0.0000 -5.2087 0.0000
# 3 14.1458 6.5495 56.6414 0.0000 -5.1003 0.0000
# 4 0.0000 0.0000 0.0000 -18.3417 0.0000 31.6076
# 5 -2.7715 -5.2087 -5.1003 0.0000 35.1937 0.0000
# 6 0.0000 0.0000 0.0000 31.6076 0.0000 3.5648
#
#
#
# Elastic Compliance Matrix: (Units=1/GPa)
#
#
# Indices 1 2 3 4 5 6 
#
# 1 0.012350 -0.001127 -0.002920 0.000000 0.000383 0.000000
# 2 -0.001127 0.021082 -0.001908 0.000000 0.002755 0.000000
# 3 -0.002920 -0.001908 0.018804 0.000000 0.002213 0.000000
# 4 0.000000 0.000000 0.000000 -0.003349 0.000000 0.029695
# 5 0.000383 0.002755 0.002213 0.000000 0.029173 0.000000
# 6 0.000000 0.000000 0.000000 0.029695 0.000000 0.017231
#
#
# Mechanical properties :
#
#
# Convention : Reuss Voigt Hill
#
# Bulk Modulus (GPa) = 24.79730 27.15586 25.97658
# Shear Modulus (GPa) = 41.44480 15.00119 28.22299
#
# Velocity S-wave (km/s) = 4.51436 2.71596 3.72531
# Velocity P-wave (km/s) = 6.27423 4.81544 5.59261
#
# Compressibility (1/GPa) = 0.04032698
#
# Stress axis : x y z
#
# Youngs Moduli (GPa) = 80.97279 47.43355 53.18028
#
# Poissons Ratio (x) = 0.05344 0.15526
# Poissons Ratio (y) = 0.09122 0.10148
# Poissons Ratio (z) = 0.23640 0.09052
#
# Static dielectric constant tensor:
#      x y z
#    x 1.798860 0.000000 0.032790 
#    y 0.000000 1.764280 0.000000 
#    z 0.032790 0.000000 1.722570 
# 
# From -- ./inp_files/268785.got.cif
#   From: 2010.05.17/outbox.cif.g08.bks.cpg/sg15_135_cif.got.tgz:268785.got - 2010.06.03 18:47:42.
