data_PCOD9259437
_publ_section_title
;
Structure prediction by ZEFSAII (Michael W. Deem and Ramdas Pophale) SiO2 
 PCOD9259437
Probable space group: C 2/C
;
_chemical_formula_sum "Si O2"
_cell_formula_units_Z 48
_cell_length_a 11.875442
_cell_length_b 14.210191
_cell_length_c 15.863583
_cell_angle_alpha 90.000000
_cell_angle_beta 87.700458
_cell_angle_gamma 90.000000
_cell_volume 2674.860344
_symmetry_space_group_name_H-M "C 2/C"
_symmetry_group_IT_number 15
_symmetry_cell_setting 'monoclinic'
loop_
_space_group_symop_operation_xyz
x,y,z
-x,y,1/2-z
-x,-y,-z
x,-y,1/2+z
1/2+x,1/2+y,z
1/2-x,1/2+y,1/2-z
1/2-x,1/2-y,-z
1/2+x,1/2-y,1/2+z
loop_
_atom_site_type_symbol
_atom_site_label
_atom_site_fract_x
_atom_site_fract_y
_atom_site_fract_z
Si Si1 0.371843 0.065430 0.236747
Si Si2 0.126548 0.498420 0.458183
Si Si3 0.100085 0.714881 0.992856
Si Si4 0.840260 0.681271 0.960380
Si Si5 0.754552 0.720816 0.352203
Si Si6 0.632030 0.149426 0.728585
O O1 0.500000 0.098707 0.250000
O O2 0.287931 0.137314 0.286403
O O3 0.364676 0.040346 0.136860
O O4 0.358486 0.962770 0.278354
O O5 0.153180 0.387939 0.465865
O O6 0.189510 0.573908 0.513982
O O7 0.000000 0.500000 0.500000
O O8 0.151401 0.787742 0.923048
O O9 0.966173 0.704562 0.989613
O O10 0.141482 0.735730 0.086274
O O11 0.840948 0.693216 0.861203
O O12 0.750000 0.750000 0.000000
O O13 0.713903 0.806954 0.295466
O O14 0.500000 0.168886 0.750000
#
# Coordination Sequence:
#
# PCOD9259437 Si02
#       6
#     8   8   8   8   8   8
#     4  11  20  34  58  89 114 152 200 249 290 345
#     4  10  18  35  57  86 115 148 199 248 290 341
#     4  10  20  38  59  86 116 160 194 242 307 352
#     4  11  21  35  59  90 119 151 198 248 290 350
#     4  11  21  35  62  86 119 154 196 245 298 362
#     4  11  20  38  57  86 117 154 200 244 292 348
#
# _framework density 17.944863000000002
#
# number of rings (size 3 to 8) (size 9 to 14) (size 15 to 20)
#    0.000    1.333    3.333    7.000    0.000    0.000 
#    0.000    0.000    0.000   16.000    0.000    0.000 
#    0.000    0.000    0.000    0.000    0.000    0.000 
#
# Total GULP energy -133666.140884 kJ/mol
# GULP energy per Si atom -5569.422537 kJ/mol
# Density = 1.790402 g / cm^3
# Si number density = 17.944863 Si / 1000 Ang^3
#
#
#
# Elastic Constant Matrix: (Units=GPa)
#
#
# Indices 1 2 3 4 5 6 
#
# 1 65.8871 44.8706 42.4075 0.0000 -0.6855 0.0000
# 2 44.8706 80.9849 45.1327 0.0000 -16.8981 0.0000
# 3 42.4075 45.1327 108.5579 0.0000 -7.8155 0.0000
# 4 0.0000 0.0000 0.0000 35.1475 0.0000 -8.7760
# 5 -0.6855 -16.8981 -7.8155 0.0000 32.2407 0.0000
# 6 0.0000 0.0000 0.0000 -8.7760 0.0000 30.1818
#
#
#
# Elastic Compliance Matrix: (Units=1/GPa)
#
#
# Indices 1 2 3 4 5 6 
#
# 1 0.028597 -0.014344 -0.005807 0.000000 -0.008318 0.000000
# 2 -0.014344 0.024944 -0.003916 0.000000 0.011819 0.000000
# 3 -0.005807 -0.003916 0.013181 0.000000 0.001019 0.000000
# 4 0.000000 0.000000 0.000000 0.030679 0.000000 0.008921
# 5 -0.008318 0.011819 0.001019 0.000000 0.037282 0.000000
# 6 0.000000 0.000000 0.000000 0.008921 0.000000 0.035726
#
#
# Mechanical properties :
#
#
# Convention : Reuss Voigt Hill
#
# Bulk Modulus (GPa) = 53.79481 57.80571 55.80026
# Shear Modulus (GPa) = 22.24804 27.71527 24.98166
#
# Velocity S-wave (km/s) = 3.52490 3.93424 3.73518
# Velocity P-wave (km/s) = 6.82711 7.27465 7.05443
#
# Compressibility (1/GPa) = 0.01858915
#
# Stress axis : x y z
#
# Youngs Moduli (GPa) = 34.96900 40.08973 75.86407
#
# Poissons Ratio (x) = 0.57504 0.44051
# Poissons Ratio (y) = 0.50159 0.29709
# Poissons Ratio (z) = 0.20305 0.15700
#
# Static dielectric constant tensor:
#      x y z
#    x 1.618050 0.000000 -0.012480 
#    y 0.000000 1.575370 0.000000 
#    z -0.012480 0.000000 1.694430 
# 
# From -- ./inp_files/143549.got.cif
#   From: 2010.05.17/outbox.cif.g08.bks.cpg/sg15_72_cif.got.tgz:143549.got - 2010.06.03 18:47:42.
