data_PCOD9259836
_publ_section_title
;
Structure prediction by ZEFSAII (Michael W. Deem and Ramdas Pophale) SiO2 
 PCOD9259836
Probable space group: C 2/C
;
_chemical_formula_sum "Si O2"
_cell_formula_units_Z 48
_cell_length_a 19.246929
_cell_length_b 25.218507
_cell_length_c 12.725626
_cell_angle_alpha 90.000000
_cell_angle_beta 156.362642
_cell_angle_gamma 90.000000
_cell_volume 2476.545588
_symmetry_space_group_name_H-M "C 2/C"
_symmetry_group_IT_number 15
_symmetry_cell_setting 'monoclinic'
loop_
_space_group_symop_operation_xyz
x,y,z
-x,y,1/2-z
-x,-y,-z
x,-y,1/2+z
1/2+x,1/2+y,z
1/2-x,1/2+y,1/2-z
1/2-x,1/2-y,-z
1/2+x,1/2-y,1/2+z
loop_
_atom_site_type_symbol
_atom_site_label
_atom_site_fract_x
_atom_site_fract_y
_atom_site_fract_z
Si Si1 0.142689 0.872903 0.536812
Si Si2 0.516703 0.062200 0.038306
Si Si3 0.393905 0.223830 0.383188
Si Si4 0.357737 0.656843 0.790286
Si Si5 0.000000 0.227456 0.250000
Si Si6 0.500000 0.105338 0.250000
Si Si7 0.218958 0.653316 0.823953
O O1 0.297591 0.915006 0.741640
O O2 0.232453 0.815323 0.649745
O O3 0.000000 0.881415 0.250000
O O4 0.027320 0.871742 0.481570
O O5 0.492054 0.074130 0.128678
O O6 0.372106 0.097739 0.776240
O O7 0.500000 0.000000 0.000000
O O8 0.374467 0.280009 0.300532
O O9 0.432609 0.237670 0.559524
O O10 0.559199 0.191380 0.571066
O O11 0.333744 0.645032 0.879788
O O12 0.178010 0.638403 0.489080
O O13 0.158306 0.189000 0.432666
#
# Coordination Sequence:
#
# PCOD9259836 Si02
#       7
#     8   8   8   8   4   4   8
#     4  11  22  38  60  92 119 155 203 240 292 359
#     4  10  22  44  62  84 117 148 204 260 308 347
#     4  10  21  35  57  88 127 165 196 237 290 353
#     4  10  19  34  56  87 121 154 190 233 294 352
#     4  10  18  36  57  84 123 164 204 236 286 356
#     4  10  20  38  61  84 117 156 186 254 300 354
#     4   9  20  36  56  86 118 158 198 243 291 353
#
# _framework density 19.381836
#
# number of rings (size 3 to 8) (size 9 to 14) (size 15 to 20)
#    0.000    2.000    1.667    2.500    1.167    2.000 
#    1.500   10.000    0.000    0.000    0.000    0.000 
#    0.000    0.000    0.000    0.000    0.000    0.000 
#
# Total GULP energy -133860.001461 kJ/mol
# GULP energy per Si atom -5577.500061 kJ/mol
# Density = 1.933772 g / cm^3
# Si number density = 19.381836 Si / 1000 Ang^3
#
#
#
# Elastic Constant Matrix: (Units=GPa)
#
#
# Indices 1 2 3 4 5 6 
#
# 1 71.5473 25.2638 19.1618 0.0000 27.9389 0.0000
# 2 25.2638 138.4464 41.8613 0.0000 18.4624 0.0000
# 3 19.1618 41.8613 80.1491 0.0000 35.0757 0.0000
# 4 0.0000 0.0000 0.0000 13.7580 0.0000 -2.2481
# 5 27.9389 18.4624 35.0757 0.0000 35.9356 0.0000
# 6 0.0000 0.0000 0.0000 -2.2481 0.0000 19.1211
#
#
#
# Elastic Compliance Matrix: (Units=1/GPa)
#
#
# Indices 1 2 3 4 5 6 
#
# 1 0.021537 -0.002793 0.005254 0.000000 -0.020437 0.000000
# 2 -0.002793 0.008940 -0.005135 0.000000 0.002591 0.000000
# 3 0.005254 -0.005135 0.025375 0.000000 -0.026214 0.000000
# 4 0.000000 0.000000 0.000000 0.074109 0.000000 0.008713
# 5 -0.020437 0.002591 -0.026214 0.000000 0.067973 0.000000
# 6 0.000000 0.000000 0.000000 0.008713 0.000000 0.053323
#
#
# Mechanical properties :
#
#
# Convention : Reuss Voigt Hill
#
# Bulk Modulus (GPa) = 19.80110 51.41295 35.60703
# Shear Modulus (GPa) = 18.28558 27.35333 22.81945
#
# Velocity S-wave (km/s) = 3.07488 3.76079 3.43499
# Velocity P-wave (km/s) = 4.77964 6.74106 5.84324
#
# Compressibility (1/GPa) = 0.05050225
#
# Stress axis : x y z
#
# Youngs Moduli (GPa) = 46.43245 111.85737 39.40879
#
# Poissons Ratio (x) = 0.31244 -0.20705
# Poissons Ratio (y) = 0.12970 0.20238
# Poissons Ratio (z) = -0.24396 0.57444
#
# Static dielectric constant tensor:
#      x y z
#    x 1.736590 0.000000 -0.002300 
#    y 0.000000 1.661940 0.000000 
#    z -0.002300 0.000000 1.706740 
# 
# From -- ./inp_files/63905.got.cif
#   From: 2010.05.17/outbox.cif.g08.bks.cpg/sg15_32_cif.got.tgz:63905.got - 2010.06.03 18:47:42.
