data_PCOD9259861
_publ_section_title
;
Structure prediction by ZEFSAII (Michael W. Deem and Ramdas Pophale) SiO2 
 PCOD9259861
Probable space group: C 2/C
;
_chemical_formula_sum "Si O2"
_cell_formula_units_Z 60
_cell_length_a 17.599567
_cell_length_b 27.292842
_cell_length_c 13.171517
_cell_angle_alpha 90.000000
_cell_angle_beta 29.902171
_cell_angle_gamma 90.000000
_cell_volume 3154.057734
_symmetry_space_group_name_H-M "C 2/C"
_symmetry_group_IT_number 15
_symmetry_cell_setting 'monoclinic'
loop_
_space_group_symop_operation_xyz
x,y,z
-x,y,1/2-z
-x,-y,-z
x,-y,1/2+z
1/2+x,1/2+y,z
1/2-x,1/2+y,1/2-z
1/2-x,1/2-y,-z
1/2+x,1/2-y,1/2+z
loop_
_atom_site_type_symbol
_atom_site_label
_atom_site_fract_x
_atom_site_fract_y
_atom_site_fract_z
Si Si1 0.630393 0.436694 0.287449
Si Si2 0.249335 0.635160 0.679575
Si Si3 0.672500 0.127465 0.076227
Si Si4 0.174675 0.688657 0.262998
Si Si5 0.431077 0.128647 0.941156
Si Si6 0.000000 0.098217 0.250000
Si Si7 0.156763 0.286109 0.432333
Si Si8 0.836042 0.051165 0.247532
O O1 0.705720 0.405683 0.290854
O O2 0.697591 0.409486 0.111621
O O3 0.682969 0.492879 0.230035
O O4 0.449862 0.435960 0.521968
O O5 0.366912 0.630853 0.452008
O O6 0.252858 0.687290 0.731965
O O7 0.079784 0.623367 0.839091
O O8 0.679718 0.178314 0.002641
O O9 0.500000 0.108814 0.250000
O O10 0.694714 0.141720 0.167252
O O11 0.161841 0.671904 0.394643
O O12 0.297621 0.730593 0.103530
O O13 0.015541 0.710706 0.407108
O O14 0.319571 0.081916 0.071148
O O15 0.500000 0.138598 0.750000
O O16 0.926876 0.066129 0.244872
#
# Coordination Sequence:
#
# PCOD9259861 Si02
#       8
#     8   8   8   8   8   4   8   8
#     4   9  20  39  59  89 116 152 193 241 293 359
#     4   9  19  37  59  82 115 151 195 234 293 341
#     4   9  18  37  60  86 119 150 190 242 292 349
#     4  10  21  37  58  86 118 150 195 244 289 350
#     4  11  22  40  57  85 117 156 197 247 284 343
#     4  10  18  36  58  80 112 158 188 240 288 340
#     4   9  19  36  58  83 116 151 187 237 292 353
#     4  10  21  38  60  83 121 154 194 241 297 344
#
# _framework density 19.023115000000001
#
# number of rings (size 3 to 8) (size 9 to 14) (size 15 to 20)
#    0.000    2.400    1.333    1.200    0.000    4.267 
#    8.400    2.667    0.000    0.000    0.000    0.000 
#    0.000    0.000    0.000    0.000    0.000    0.000 
#
# Total GULP energy -167259.611383 kJ/mol
# GULP energy per Si atom -5575.320379 kJ/mol
# Density = 1.897982 g / cm^3
# Si number density = 19.023115 Si / 1000 Ang^3
#
#
#
# Elastic Constant Matrix: (Units=GPa)
#
#
# Indices 1 2 3 4 5 6 
#
# 1 34.2954 17.1912 17.8560 0.0165 7.7841 -0.0067
# 2 17.1912 39.2568 34.3565 0.0060 4.9074 -0.0032
# 3 17.8560 34.3565 94.5110 0.0066 19.3610 -0.0037
# 4 0.0165 0.0060 0.0066 24.7980 -0.0097 -6.1055
# 5 7.7841 4.9074 19.3610 -0.0097 24.2168 0.0057
# 6 -0.0067 -0.0032 -0.0037 -6.1055 0.0057 8.1080
#
#
#
# Elastic Compliance Matrix: (Units=1/GPa)
#
#
# Indices 1 2 3 4 5 6 
#
# 1 0.039354 -0.016508 0.000564 -0.000022 -0.009756 0.000017
# 2 -0.016508 0.044599 -0.014744 0.000006 0.008056 -0.000004
# 3 0.000564 -0.014744 0.018248 -0.000004 -0.011782 0.000008
# 4 -0.000022 0.000006 -0.000004 0.049504 0.000020 0.037277
# 5 -0.009756 0.008056 -0.011782 0.000020 0.052217 -0.000032
# 6 0.000017 -0.000004 0.000008 0.037277 -0.000032 0.151405
#
#
# Mechanical properties :
#
#
# Convention : Reuss Voigt Hill
#
# Bulk Modulus (GPa) = 24.49488 34.09673 29.29581
# Shear Modulus (GPa) = 11.61954 18.00187 14.81070
#
# Velocity S-wave (km/s) = 2.47414 3.07956 2.79330
# Velocity P-wave (km/s) = 4.58979 5.53242 5.08300
#
# Compressibility (1/GPa) = 0.04082486
#
# Stress axis : x y z
#
# Youngs Moduli (GPa) = 25.41049 22.42205 54.80193
#
# Poissons Ratio (x) = 0.37014 -0.03093
# Poissons Ratio (y) = 0.41948 0.80800
# Poissons Ratio (z) = -0.01434 0.33059
#
# Static dielectric constant tensor:
#      x y z
#    x 1.675590 0.000000 0.036990 
#    y 0.000000 1.632150 0.000000 
#    z 0.036990 0.000000 1.707910 
# 
# From -- ./inp_files/169912.got.cif
#   From: 2010.05.17/outbox.cif.g08.bks.cpg/sg15_85_cif.got.tgz:169912.got - 2010.06.03 18:47:42.
