data_PCOD9259873
_publ_section_title
;
Structure prediction by ZEFSAII (Michael W. Deem and Ramdas Pophale) SiO2 
 PCOD9259873
Probable space group: C 2/C
;
_chemical_formula_sum "Si O2"
_cell_formula_units_Z 56
_cell_length_a 8.616257
_cell_length_b 13.122888
_cell_length_c 27.388205
_cell_angle_alpha 90.000000
_cell_angle_beta 53.454349
_cell_angle_gamma 90.000000
_cell_volume 2487.906748
_symmetry_space_group_name_H-M "C 2/C"
_symmetry_group_IT_number 15
_symmetry_cell_setting 'monoclinic'
loop_
_space_group_symop_operation_xyz
x,y,z
-x,y,1/2-z
-x,-y,-z
x,-y,1/2+z
1/2+x,1/2+y,z
1/2-x,1/2+y,1/2-z
1/2-x,1/2-y,-z
1/2+x,1/2-y,1/2+z
loop_
_atom_site_type_symbol
_atom_site_label
_atom_site_fract_x
_atom_site_fract_y
_atom_site_fract_z
Si Si1 0.493403 0.105957 0.152985
Si Si2 0.688793 0.136055 0.469750
Si Si3 0.892671 0.131744 0.135120
Si Si4 0.695331 0.257275 0.244475
Si Si5 0.116603 0.547320 0.904015
Si Si6 0.968677 0.232055 0.941175
Si Si7 0.037175 0.911803 0.345403
O O1 0.699644 0.110006 0.140756
O O2 0.338940 0.152764 0.218987
O O3 0.503576 0.187430 0.107534
O O4 0.434769 0.001198 0.138370
O O5 0.559512 0.110447 0.540567
O O6 0.608853 0.236460 0.458374
O O7 0.917231 0.141615 0.433266
O O8 0.650851 0.044374 0.437316
O O9 0.864254 0.230379 0.175096
O O10 0.922860 0.030992 0.162150
O O11 0.500000 0.271774 0.250000
O O12 0.691060 0.348162 0.284686
O O13 0.320142 0.605776 0.865434
O O14 0.018563 0.126491 0.905065
O O15 0.750000 0.250000 0.000000
#
# Coordination Sequence:
#
# PCOD9259873 Si02
#       7
#     8   8   8   8   8   8   8
#     4   9  20  36  58  83 119 157 195 251 305 351
#     4   9  18  33  56  86 122 154 193 246 293 360
#     4  10  21  39  59  89 124 153 197 257 313 359
#     4   9  20  40  59  80 118 159 197 250 299 361
#     4   9  17  33  57  87 114 153 202 235 293 372
#     4  10  18  36  58  82 120 163 202 241 293 363
#     4  10  20  36  63  88 109 161 210 243 303 364
#
# _framework density 22.508883000000001
#
# number of rings (size 3 to 8) (size 9 to 14) (size 15 to 20)
#    0.000    2.571    1.429    0.000    2.000    1.714 
#    0.000   20.000    0.000    3.429    0.000    0.000 
#    0.000    0.000    0.000    0.000    0.000    0.000 
#
# Total GULP energy -156351.484188 kJ/mol
# GULP energy per Si atom -5583.981578 kJ/mol
# Density = 2.245765 g / cm^3
# Si number density = 22.508883 Si / 1000 Ang^3
#
#
#
# Elastic Constant Matrix: (Units=GPa)
#
#
# Indices 1 2 3 4 5 6 
#
# 1 37.3166 11.2887 15.0840 0.0000 -5.5249 0.0000
# 2 11.2887 61.1789 27.4421 0.0000 -2.8684 0.0000
# 3 15.0840 27.4421 70.7130 0.0000 -0.5835 0.0000
# 4 0.0000 0.0000 0.0000 30.9212 0.0000 4.2585
# 5 -5.5249 -2.8684 -0.5835 0.0000 25.7691 0.0000
# 6 0.0000 0.0000 0.0000 4.2585 0.0000 34.3082
#
#
#
# Elastic Compliance Matrix: (Units=1/GPa)
#
#
# Indices 1 2 3 4 5 6 
#
# 1 0.030776 -0.002989 -0.005354 0.000000 0.006144 0.000000
# 2 -0.002989 0.020187 -0.007185 0.000000 0.001444 0.000000
# 3 -0.005354 -0.007185 0.018059 0.000000 -0.001539 0.000000
# 4 0.000000 0.000000 0.000000 0.032903 0.000000 -0.004084
# 5 0.006144 0.001444 -0.001539 0.000000 0.040249 0.000000
# 6 0.000000 0.000000 0.000000 -0.004084 0.000000 0.029654
#
#
# Mechanical properties :
#
#
# Convention : Reuss Voigt Hill
#
# Bulk Modulus (GPa) = 26.33890 30.75979 28.54935
# Shear Modulus (GPa) = 23.19745 25.89262 24.54503
#
# Velocity S-wave (km/s) = 3.21376 3.39533 3.30579
# Velocity P-wave (km/s) = 5.04955 5.39132 5.22323
#
# Compressibility (1/GPa) = 0.03796666
#
# Stress axis : x y z
#
# Youngs Moduli (GPa) = 32.49299 49.53563 55.37305
#
# Poissons Ratio (x) = 0.14806 0.29648
# Poissons Ratio (y) = 0.09712 0.39784
# Poissons Ratio (z) = 0.17397 0.35590
#
# Static dielectric constant tensor:
#      x y z
#    x 1.827740 0.000000 0.008900 
#    y 0.000000 1.899700 0.000000 
#    z 0.008900 0.000000 1.869280 
# 
# From -- ./inp_files/307949.got.cif
#   From: 2010.05.17/outbox.cif.g08.bks.cpg/sg15_154_cif.got.tgz:307949.got - 2010.06.03 18:47:42.
