data_PCOD9259617
_publ_section_title
;
Structure prediction by ZEFSAII (Michael W. Deem and Ramdas Pophale) SiO2 
 PCOD9259617
Probable space group: C 2/C
;
_chemical_formula_sum "Si O2"
_cell_formula_units_Z 64
_cell_length_a 18.478179
_cell_length_b 8.693930
_cell_length_c 19.338385
_cell_angle_alpha 90.000000
_cell_angle_beta 113.981860
_cell_angle_gamma 90.000000
_cell_volume 2838.486715
_symmetry_space_group_name_H-M "C 2/C"
_symmetry_group_IT_number 15
_symmetry_cell_setting 'monoclinic'
loop_
_space_group_symop_operation_xyz
x,y,z
-x,y,1/2-z
-x,-y,-z
x,-y,1/2+z
1/2+x,1/2+y,z
1/2-x,1/2+y,1/2-z
1/2-x,1/2-y,-z
1/2+x,1/2-y,1/2+z
loop_
_atom_site_type_symbol
_atom_site_label
_atom_site_fract_x
_atom_site_fract_y
_atom_site_fract_z
Si Si1 0.940192 0.285025 0.013707
Si Si2 0.009521 0.692483 0.334742
Si Si3 0.080721 0.394795 0.140686
Si Si4 0.552683 0.512748 0.386945
Si Si5 0.728052 0.425320 0.485880
Si Si6 0.140267 0.534202 0.890875
Si Si7 0.620253 0.293519 0.782032
Si Si8 0.703892 0.086424 0.123211
O O1 0.962196 0.119087 0.052334
O O2 0.895138 0.360929 0.062066
O O3 0.027775 0.363726 0.050788
O O4 0.874321 0.308990 0.928014
O O5 0.098383 0.629227 0.380546
O O6 0.000000 0.709927 0.250000
O O7 0.959048 0.546443 0.340665
O O8 0.996627 0.863438 0.359236
O O9 0.083180 0.244678 0.192180
O O10 0.168406 0.451981 0.157265
O O11 0.637205 0.446344 0.440743
O O12 0.573489 0.598439 0.320353
O O13 0.750000 0.250000 0.500000
O O14 0.766187 0.516584 0.564923
O O15 0.769783 0.503687 0.436761
O O16 0.117735 0.623583 0.813878
O O17 0.713485 0.341912 0.816556
#
# Coordination Sequence:
#
# PCOD9259617 Si02
#       8
#     8   8   8   8   8   8   8   8
#     4   9  20  37  65  88 118 158 203 252 300 371
#     4  11  21  35  58  88 121 155 198 252 304 361
#     4  11  23  41  62  88 125 168 202 244 315 374
#     4  10  21  35  63  94 117 152 208 260 306 346
#     4  10  18  35  61  91 118 151 202 258 297 351
#     4   9  17  34  61  88 114 153 200 248 303 350
#     4  10  21  40  61  87 122 158 205 254 301 364
#     4  10  22  42  62  87 123 169 204 243 313 375
#
# _framework density 22.547228
#
# number of rings (size 3 to 8) (size 9 to 14) (size 15 to 20)
#    0.000    2.000    2.500    1.125    1.750    3.000 
#    6.750    0.625    0.000    0.000    0.000    0.000 
#    0.000    0.000    0.000    0.000    0.000    0.000 
#
# Total GULP energy -178143.921417 kJ/mol
# GULP energy per Si atom -5566.997544 kJ/mol
# Density = 2.249591 g / cm^3
# Si number density = 22.547228 Si / 1000 Ang^3
#
#
#
# Elastic Constant Matrix: (Units=GPa)
#
#
# Indices 1 2 3 4 5 6 
#
# 1 48.7939 5.4375 10.7657 0.0000 18.5458 0.0000
# 2 5.4375 94.5396 15.3158 0.0000 10.5875 0.0000
# 3 10.7657 15.3158 64.8126 0.0000 23.5670 0.0000
# 4 0.0000 0.0000 0.0000 34.3063 0.0000 12.5526
# 5 18.5458 10.5875 23.5670 0.0000 16.0274 0.0000
# 6 0.0000 0.0000 0.0000 12.5526 0.0000 46.3918
#
#
#
# Elastic Compliance Matrix: (Units=1/GPa)
#
#
# Indices 1 2 3 4 5 6 
#
# 1 0.056337 0.004474 0.030867 0.000000 -0.113531 0.000000
# 2 0.004474 0.011778 0.002547 0.000000 -0.016702 0.000000
# 3 0.030867 0.002547 0.050070 0.000000 -0.111022 0.000000
# 4 0.000000 0.000000 0.000000 0.032352 0.000000 -0.008754
# 5 -0.113531 -0.016702 -0.111022 0.000000 0.368044 0.000000
# 6 0.000000 0.000000 0.000000 -0.008754 0.000000 0.023924
#
#
# Mechanical properties :
#
#
# Convention : Reuss Voigt Hill
#
# Bulk Modulus (GPa) = 5.15575 30.13158 17.64366
# Shear Modulus (GPa) = 9.40939 31.12025 20.26482
#
# Velocity S-wave (km/s) = 2.04506 3.71917 3.00121
# Velocity P-wave (km/s) = 2.80499 5.64232 4.45554
#
# Compressibility (1/GPa) = 0.19395820
#
# Stress axis : x y z
#
# Youngs Moduli (GPa) = 17.75044 84.90311 19.97215
#
# Poissons Ratio (x) = -0.37982 -0.61647
# Poissons Ratio (y) = -0.07941 -0.05086
# Poissons Ratio (z) = -0.54790 -0.21621
#
# Static dielectric constant tensor:
#      x y z
#    x 2.068230 0.000000 0.131670 
#    y 0.000000 1.803210 0.000000 
#    z 0.131670 0.000000 1.928800 
# 
# From -- ./inp_files/251922.got.cif
#   From: 2010.05.17/outbox.cif.g08.bks.cpg/sg15_126_cif.got.tgz:251922.got - 2010.06.03 18:47:42.
