data_PCOD9259325
_publ_section_title
;
Structure prediction by ZEFSAII (Michael W. Deem and Ramdas Pophale) SiO2 
 PCOD9259325
Probable space group: C 2/C
;
_chemical_formula_sum "Si O2"
_cell_formula_units_Z 48
_cell_length_a 19.552358
_cell_length_b 23.013411
_cell_length_c 9.333180
_cell_angle_alpha 90.000000
_cell_angle_beta 42.285010
_cell_angle_gamma 90.000000
_cell_volume 2825.582636
_symmetry_space_group_name_H-M "C 2/C"
_symmetry_group_IT_number 15
_symmetry_cell_setting 'monoclinic'
loop_
_space_group_symop_operation_xyz
x,y,z
-x,y,1/2-z
-x,-y,-z
x,-y,1/2+z
1/2+x,1/2+y,z
1/2-x,1/2+y,1/2-z
1/2-x,1/2-y,-z
1/2+x,1/2-y,1/2+z
loop_
_atom_site_type_symbol
_atom_site_label
_atom_site_fract_x
_atom_site_fract_y
_atom_site_fract_z
Si Si1 0.200442 0.680449 0.968339
Si Si2 0.386782 0.751174 0.134374
Si Si3 0.106669 0.555471 0.666553
Si Si4 0.788963 0.674516 0.021726
Si Si5 0.381621 0.764165 0.640304
Si Si6 0.108363 0.436048 0.509435
O O1 0.126363 0.727934 0.007378
O O2 0.312233 0.707425 0.775476
O O3 0.165163 0.685084 0.186726
O O4 0.182021 0.617452 0.930975
O O5 0.325633 0.692201 0.260567
O O6 0.319782 0.800166 0.320025
O O7 0.501407 0.753126 0.008277
O O8 0.183468 0.607546 0.514223
O O9 0.139841 0.494616 0.544378
O O10 0.000000 0.568852 0.750000
O O11 0.095464 0.553320 0.857979
O O12 0.861149 0.712169 0.014125
O O13 0.000000 0.419922 0.750000
#
# Coordination Sequence:
#
# PCOD9259325 Si02
#       6
#     8   8   8   8   8   8
#     4  10  21  33  52  78 105 135 172 208 259 307
#     4  10  18  35  51  76 106 132 167 212 255 302
#     4  11  22  35  52  76 102 138 174 211 260 305
#     4  10  21  31  52  78 103 134 170 207 254 309
#     4  10  20  33  53  78 104 138 167 210 259 305
#     4  11  22  35  53  74 104 137 173 214 256 308
#
# _framework density 16.987646999999999
#
# number of rings (size 3 to 8) (size 9 to 14) (size 15 to 20)
#    0.000    1.667    1.667    5.000    4.667    0.000 
#    0.000    0.000    0.000    1.000    0.000    0.000 
#    0.000    0.000    0.000    0.000    0.000    0.000 
#
# Total GULP energy -133818.811841 kJ/mol
# GULP energy per Si atom -5575.783827 kJ/mol
# Density = 1.694898 g / cm^3
# Si number density = 16.987647 Si / 1000 Ang^3
#
#
#
# Elastic Constant Matrix: (Units=GPa)
#
#
# Indices 1 2 3 4 5 6 
#
# 1 63.8474 19.8278 17.9979 0.0000 -2.6121 0.0000
# 2 19.8278 92.7924 23.9033 0.0000 -2.0716 0.0000
# 3 17.9979 23.9033 44.6920 0.0000 1.6809 0.0000
# 4 0.0000 0.0000 0.0000 19.0526 0.0000 -0.3452
# 5 -2.6121 -2.0716 1.6809 0.0000 35.0038 0.0000
# 6 0.0000 0.0000 0.0000 -0.3452 0.0000 27.9061
#
#
#
# Elastic Compliance Matrix: (Units=1/GPa)
#
#
# Indices 1 2 3 4 5 6 
#
# 1 0.018163 -0.002260 -0.006163 0.000000 0.001518 0.000000
# 2 -0.002260 0.012819 -0.005979 0.000000 0.000877 0.000000
# 3 -0.006163 -0.005979 0.028137 0.000000 -0.002165 0.000000
# 4 0.000000 0.000000 0.000000 0.052498 0.000000 0.000649
# 5 0.001518 0.000877 -0.002165 0.000000 0.028837 0.000000
# 6 0.000000 0.000000 0.000000 0.000649 0.000000 0.035842
#
#
# Mechanical properties :
#
#
# Convention : Reuss Voigt Hill
#
# Bulk Modulus (GPa) = 32.98663 36.08777 34.53720
# Shear Modulus (GPa) = 23.23343 25.69937 24.46640
#
# Velocity S-wave (km/s) = 3.70221 3.89373 3.79918
# Velocity P-wave (km/s) = 6.14291 6.44240 6.29443
#
# Compressibility (1/GPa) = 0.03031531
#
# Stress axis : x y z
#
# Youngs Moduli (GPa) = 55.05553 78.00641 35.54064
#
# Poissons Ratio (x) = 0.17627 0.21904
# Poissons Ratio (y) = 0.12441 0.21251
# Poissons Ratio (z) = 0.33932 0.46643
#
# Static dielectric constant tensor:
#      x y z
#    x 1.583320 0.000000 0.020690 
#    y 0.000000 1.573150 0.000000 
#    z 0.020690 0.000000 1.583920 
# 
# From -- ./inp_files/51136.got.cif
#   From: 2010.05.17/outbox.cif.g08.bks.cpg/sg15_26_cif.got.tgz:51136.got - 2010.06.03 18:47:42.
