data_PCOD9259204
_publ_section_title
;
Structure prediction by ZEFSAII (Michael W. Deem and Ramdas Pophale) SiO2 
 PCOD9259204
Probable space group: C 2/C
;
_chemical_formula_sum "Si O2"
_cell_formula_units_Z 48
_cell_length_a 11.682453
_cell_length_b 30.553250
_cell_length_c 8.577009
_cell_angle_alpha 90.000000
_cell_angle_beta 52.624145
_cell_angle_gamma 90.000000
_cell_volume 2432.844861
_symmetry_space_group_name_H-M "C 2/C"
_symmetry_group_IT_number 15
_symmetry_cell_setting 'monoclinic'
loop_
_space_group_symop_operation_xyz
x,y,z
-x,y,1/2-z
-x,-y,-z
x,-y,1/2+z
1/2+x,1/2+y,z
1/2-x,1/2+y,1/2-z
1/2-x,1/2-y,-z
1/2+x,1/2-y,1/2+z
loop_
_atom_site_type_symbol
_atom_site_label
_atom_site_fract_x
_atom_site_fract_y
_atom_site_fract_z
Si Si1 0.573631 0.085359 0.519235
Si Si2 0.645876 0.265464 0.223415
Si Si3 0.329454 0.530798 0.426523
Si Si4 0.208729 0.552350 0.866127
Si Si5 0.166692 0.855944 0.136153
Si Si6 0.617880 0.172321 0.292589
O O1 0.500000 0.087349 0.750000
O O2 0.731251 0.064027 0.405493
O O3 0.464087 0.054634 0.511863
O O4 0.580887 0.133752 0.441050
O O5 0.500000 0.273302 0.250000
O O6 0.689124 0.314510 0.235692
O O7 0.628209 0.222542 0.345035
O O8 0.750000 0.250000 0.000000
O O9 0.500000 0.533392 0.250000
O O10 0.289647 0.541257 0.637674
O O11 0.266673 0.482875 0.440013
O O12 0.252076 0.601237 0.876460
O O13 0.000000 0.866538 0.250000
O O14 0.234757 0.840831 0.915862
O O15 0.500000 0.173131 0.250000
#
# Coordination Sequence:
#
# PCOD9259204 Si02
#       6
#     8   8   8   8   8   8
#     4  10  23  40  58  85 117 154 192 236 281 345
#     4   8  16  30  51  87 114 141 184 238 278 330
#     4  11  25  40  60  82 115 151 196 240 290 335
#     4  11  23  40  58  85 116 154 191 239 283 346
#     4  10  20  33  57  90 119 144 191 241 289 333
#     4  10  18  34  62  86 113 154 191 233 284 340
#
# _framework density 19.729987999999999
#
# number of rings (size 3 to 8) (size 9 to 14) (size 15 to 20)
#    0.000    2.000    1.667    1.500    4.667    0.000 
#    0.000    0.000    0.000    5.000    0.000    0.000 
#    0.000    0.000    0.000    0.000    0.000    0.000 
#
# Total GULP energy -133791.924242 kJ/mol
# GULP energy per Si atom -5574.663510 kJ/mol
# Density = 1.968508 g / cm^3
# Si number density = 19.729988 Si / 1000 Ang^3
#
#
#
# Elastic Constant Matrix: (Units=GPa)
#
#
# Indices 1 2 3 4 5 6 
#
# 1 64.2784 27.7190 11.7828 0.0000 -17.7362 0.0000
# 2 27.7190 172.9207 7.4026 0.0000 15.0133 0.0000
# 3 11.7828 7.4026 20.2563 0.0000 -10.0291 0.0000
# 4 0.0000 0.0000 0.0000 22.7901 0.0000 -9.6850
# 5 -17.7362 15.0133 -10.0291 0.0000 21.4128 0.0000
# 6 0.0000 0.0000 0.0000 -9.6850 0.0000 -15.2707
#
#
#
# Elastic Compliance Matrix: (Units=1/GPa)
#
#
# Indices 1 2 3 4 5 6 
#
# 1 0.025216 -0.006250 0.000165 0.000000 0.025345 0.000000
# 2 -0.006250 0.008260 -0.006267 0.000000 -0.013903 0.000000
# 3 0.000165 -0.006267 0.070049 0.000000 0.037340 0.000000
# 4 0.000000 0.000000 0.000000 0.034563 0.000000 -0.021921
# 5 0.025345 -0.013903 0.037340 0.000000 0.094932 0.000000
# 6 0.000000 0.000000 0.000000 -0.021921 0.000000 -0.051582
#
#
# Mechanical properties :
#
#
# Convention : Reuss Voigt Hill
#
# Bulk Modulus (GPa) = 12.68693 39.02934 25.85814
# Shear Modulus (GPa) = 21.51329 19.82316 20.66823
#
# Velocity S-wave (km/s) = 3.30568 3.17317 3.24010
# Velocity P-wave (km/s) = 4.58413 5.76629 5.20885
#
# Compressibility (1/GPa) = 0.07882126
#
# Stress axis : x y z
#
# Youngs Moduli (GPa) = 39.65798 121.06211 14.27576
#
# Poissons Ratio (x) = 0.75659 -0.00236
# Poissons Ratio (y) = 0.24785 0.08947
# Poissons Ratio (z) = -0.00654 0.75871
#
# Static dielectric constant tensor:
#      x y z
#    x 1.697290 0.000000 0.002280 
#    y 0.000000 1.770430 0.000000 
#    z 0.002280 0.000000 1.682210 
# 
# From -- ./inp_files/33399.got.cif
#   From: 2010.05.17/outbox.cif.g08.bks.cpg/sg15_17_cif.got.tgz:33399.got - 2010.06.03 18:47:42.
