data_PCOD9259431
_publ_section_title
;
Structure prediction by ZEFSAII (Michael W. Deem and Ramdas Pophale) SiO2 
 PCOD9259431
Probable space group: C 2/C
;
_chemical_formula_sum "Si O2"
_cell_formula_units_Z 56
_cell_length_a 23.601505
_cell_length_b 7.453099
_cell_length_c 14.685759
_cell_angle_alpha 90.000000
_cell_angle_beta 88.645825
_cell_angle_gamma 90.000000
_cell_volume 2582.567455
_symmetry_space_group_name_H-M "C 2/C"
_symmetry_group_IT_number 15
_symmetry_cell_setting 'monoclinic'
loop_
_space_group_symop_operation_xyz
x,y,z
-x,y,1/2-z
-x,-y,-z
x,-y,1/2+z
1/2+x,1/2+y,z
1/2-x,1/2+y,1/2-z
1/2-x,1/2-y,-z
1/2+x,1/2-y,1/2+z
loop_
_atom_site_type_symbol
_atom_site_label
_atom_site_fract_x
_atom_site_fract_y
_atom_site_fract_z
Si Si1 0.265828 0.870141 0.586777
Si Si2 0.354543 0.128465 0.490878
Si Si3 0.938095 0.068724 0.780561
Si Si4 0.351963 0.520279 0.423004
Si Si5 0.060815 0.444439 0.366496
Si Si6 0.872384 0.189243 0.619147
Si Si7 0.066723 0.492571 0.662102
O O1 0.250000 0.750000 0.500000
O O2 0.310805 0.768594 0.648459
O O3 0.302417 0.035621 0.544613
O O4 0.204042 0.912439 0.626845
O O5 0.338881 0.311748 0.442905
O O6 0.404368 0.170035 0.562123
O O7 0.382792 0.000714 0.412648
O O8 0.908400 0.963100 0.862241
O O9 0.897601 0.062710 0.694664
O O10 0.941566 0.279053 0.812842
O O11 0.000000 0.007307 0.750000
O O12 0.362989 0.607227 0.520628
O O13 0.083780 0.645066 0.387789
O O14 0.076261 0.415423 0.259701
O O15 0.993064 0.440560 0.375782
#
# Coordination Sequence:
#
# PCOD9259431 Si02
#       7
#     8   8   8   8   8   8   8
#     4   9  19  38  57  77 105 147 192 225 271 337
#     4  10  19  31  54  82 108 141 177 234 279 313
#     4  10  18  35  57  84 113 149 186 227 281 338
#     4  10  21  35  55  84 115 144 182 236 277 320
#     4   9  16  32  54  77 107 145 187 211 269 337
#     4   9  18  36  58  80 106 151 190 221 272 343
#     4   9  16  31  54  77 109 145 183 221 265 332
#
# _framework density 21.683848000000001
#
# number of rings (size 3 to 8) (size 9 to 14) (size 15 to 20)
#    0.000    2.571    2.857    0.857    0.000    0.571 
#    0.000   17.143    3.143    0.000    0.000    0.000 
#    0.000    0.000    0.000    0.000    0.000    0.000 
#
# Total GULP energy -156280.413955 kJ/mol
# GULP energy per Si atom -5581.443356 kJ/mol
# Density = 2.163449 g / cm^3
# Si number density = 21.683848 Si / 1000 Ang^3
#
#
#
# Elastic Constant Matrix: (Units=GPa)
#
#
# Indices 1 2 3 4 5 6 
#
# 1 124.4143 11.8913 40.6783 0.0000 8.5852 0.0000
# 2 11.8913 23.2964 3.0246 0.0000 3.0587 0.0000
# 3 40.6783 3.0246 61.5975 0.0000 7.2446 0.0000
# 4 0.0000 0.0000 0.0000 17.7356 0.0000 -0.3818
# 5 8.5852 3.0587 7.2446 0.0000 27.0963 0.0000
# 6 0.0000 0.0000 0.0000 -0.3818 0.0000 16.8968
#
#
#
# Elastic Compliance Matrix: (Units=1/GPa)
#
#
# Indices 1 2 3 4 5 6 
#
# 1 0.010747 -0.004465 -0.006749 0.000000 -0.001097 0.000000
# 2 -0.004465 0.045582 0.001187 0.000000 -0.004048 0.000000
# 3 -0.006749 0.001187 0.021059 0.000000 -0.003626 0.000000
# 4 0.000000 0.000000 0.000000 0.056411 0.000000 0.001275
# 5 -0.001097 -0.004048 -0.003626 0.000000 0.038679 0.000000
# 6 0.000000 0.000000 0.000000 0.001275 0.000000 0.059212
#
#
# Mechanical properties :
#
#
# Convention : Reuss Voigt Hill
#
# Bulk Modulus (GPa) = 17.44193 35.61075 26.52634
# Shear Modulus (GPa) = 18.46001 22.59334 20.52668
#
# Velocity S-wave (km/s) = 2.92091 3.23142 3.08008
# Velocity P-wave (km/s) = 4.40872 5.51191 4.99089
#
# Compressibility (1/GPa) = 0.05733310
#
# Stress axis : x y z
#
# Youngs Moduli (GPa) = 93.05198 21.93862 47.48467
#
# Poissons Ratio (x) = 0.09796 0.32046
# Poissons Ratio (y) = 0.41551 -0.05635
# Poissons Ratio (z) = 0.62799 -0.02603
#
# Static dielectric constant tensor:
#      x y z
#    x 1.779350 0.000000 -0.015610 
#    y 0.000000 1.863720 0.000000 
#    z -0.015610 0.000000 1.786600 
# 
# From -- ./inp_files/166678.got.cif
#   From: 2010.05.17/outbox.cif.g08.bks.cpg/sg15_84_cif.got.tgz:166678.got - 2010.06.03 18:47:42.
