data_PCOD9259233
_publ_section_title
;
Structure prediction by ZEFSAII (Michael W. Deem and Ramdas Pophale) SiO2 
 PCOD9259233
Probable space group: C 2/C
;
_chemical_formula_sum "Si O2"
_cell_formula_units_Z 56
_cell_length_a 11.705561
_cell_length_b 14.488012
_cell_length_c 17.900691
_cell_angle_alpha 90.000000
_cell_angle_beta 114.655912
_cell_angle_gamma 90.000000
_cell_volume 2759.009632
_symmetry_space_group_name_H-M "C 2/C"
_symmetry_group_IT_number 15
_symmetry_cell_setting 'monoclinic'
loop_
_space_group_symop_operation_xyz
x,y,z
-x,y,1/2-z
-x,-y,-z
x,-y,1/2+z
1/2+x,1/2+y,z
1/2-x,1/2+y,1/2-z
1/2-x,1/2-y,-z
1/2+x,1/2-y,1/2+z
loop_
_atom_site_type_symbol
_atom_site_label
_atom_site_fract_x
_atom_site_fract_y
_atom_site_fract_z
Si Si1 0.414340 0.035725 0.165676
Si Si2 0.705817 0.782745 0.087500
Si Si3 0.959870 0.800631 0.084024
Si Si4 0.376071 0.864742 0.867119
Si Si5 0.475638 0.504653 0.082100
Si Si6 0.680953 0.992920 0.022782
Si Si7 0.313099 0.636206 0.308166
O O1 0.500000 0.980975 0.250000
O O2 0.518199 0.108583 0.165105
O O3 0.291419 0.081797 0.169296
O O4 0.371155 0.993078 0.075109
O O5 0.856062 0.775132 0.117986
O O6 0.669761 0.886191 0.049945
O O7 0.676764 0.741727 0.160546
O O8 0.632190 0.710718 0.013279
O O9 0.008485 0.901341 0.116731
O O10 0.077013 0.735933 0.098331
O O11 0.243011 0.867346 0.789871
O O12 0.380007 0.937554 0.934952
O O13 0.328684 0.514681 0.058233
O O14 0.558992 0.581532 0.144013
O O15 0.500000 0.500000 0.000000
#
# Coordination Sequence:
#
# PCOD9259233 Si02
#       7
#     8   8   8   8   8   8   8
#     4  10  19  34  59  88 119 156 201 249 305 365
#     4  10  18  34  62  91 117 152 208 252 303 364
#     4  10  19  35  61  90 116 157 203 253 303 366
#     4  11  23  36  59  93 128 157 199 264 310 357
#     4  11  21  38  64  89 121 165 210 250 305 374
#     4  11  22  38  63  94 122 163 207 255 312 361
#     4  11  21  38  61  89 123 162 206 254 307 364
#
# _framework density 20.297136999999999
#
# number of rings (size 3 to 8) (size 9 to 14) (size 15 to 20)
#    0.000    1.429    5.714    1.286    0.000    1.714 
#    0.000    3.571    3.143    0.000    0.000    0.000 
#    0.000    0.000    0.000    0.000    0.000    0.000 
#
# Total GULP energy -156013.049172 kJ/mol
# GULP energy per Si atom -5571.894613 kJ/mol
# Density = 2.025094 g / cm^3
# Si number density = 20.297137 Si / 1000 Ang^3
#
#
#
# Elastic Constant Matrix: (Units=GPa)
#
#
# Indices 1 2 3 4 5 6 
#
# 1 56.7490 30.9163 21.6859 0.0000 15.4272 0.0000
# 2 30.9163 81.9333 50.0644 0.0000 8.8959 0.0000
# 3 21.6859 50.0644 116.0714 0.0000 15.3329 0.0000
# 4 0.0000 0.0000 0.0000 13.0956 0.0000 -1.4674
# 5 15.4272 8.8959 15.3329 0.0000 26.4319 0.0000
# 6 0.0000 0.0000 0.0000 -1.4674 0.0000 28.8780
#
#
#
# Elastic Compliance Matrix: (Units=1/GPa)
#
#
# Indices 1 2 3 4 5 6 
#
# 1 0.025434 -0.008624 0.000591 0.000000 -0.012285 0.000000
# 2 -0.008624 0.019556 -0.007169 0.000000 0.002610 0.000000
# 3 0.000591 -0.007169 0.012264 0.000000 -0.005046 0.000000
# 4 0.000000 0.000000 0.000000 0.076799 0.000000 0.003902
# 5 -0.012285 0.002610 -0.005046 0.000000 0.047052 0.000000
# 6 0.000000 0.000000 0.000000 0.003902 0.000000 0.034827
#
#
# Mechanical properties :
#
#
# Convention : Reuss Voigt Hill
#
# Bulk Modulus (GPa) = 37.24473 51.12077 44.18275
# Shear Modulus (GPa) = 19.58599 23.82024 21.70311
#
# Velocity S-wave (km/s) = 3.10976 3.42947 3.27352
# Velocity P-wave (km/s) = 5.59318 6.39707 6.00859
#
# Compressibility (1/GPa) = 0.02684944
#
# Stress axis : x y z
#
# Youngs Moduli (GPa) = 39.31792 51.13492 81.54233
#
# Poissons Ratio (x) = 0.44100 -0.04817
# Poissons Ratio (y) = 0.33909 0.58454
# Poissons Ratio (z) = -0.02323 0.36656
#
# Static dielectric constant tensor:
#      x y z
#    x 1.747780 0.000000 -0.021100 
#    y 0.000000 1.798850 0.000000 
#    z -0.021100 0.000000 1.803790 
# 
# From -- ./inp_files/198411.got.cif
#   From: 2010.05.17/outbox.cif.g08.bks.cpg/sg15_100_cif.got.tgz:198411.got - 2010.06.03 18:47:42.
