data_PCOD9259496
_publ_section_title
;
Structure prediction by ZEFSAII (Michael W. Deem and Ramdas Pophale) SiO2 
 PCOD9259496
Probable space group: C 2/C
;
_chemical_formula_sum "Si O2"
_cell_formula_units_Z 48
_cell_length_a 16.793081
_cell_length_b 16.816861
_cell_length_c 15.212756
_cell_angle_alpha 90.000000
_cell_angle_beta 27.487342
_cell_angle_gamma 90.000000
_cell_volume 1982.916636
_symmetry_space_group_name_H-M "C 2/C"
_symmetry_group_IT_number 15
_symmetry_cell_setting 'monoclinic'
loop_
_space_group_symop_operation_xyz
x,y,z
-x,y,1/2-z
-x,-y,-z
x,-y,1/2+z
1/2+x,1/2+y,z
1/2-x,1/2+y,1/2-z
1/2-x,1/2-y,-z
1/2+x,1/2-y,1/2+z
loop_
_atom_site_type_symbol
_atom_site_label
_atom_site_fract_x
_atom_site_fract_y
_atom_site_fract_z
Si Si1 0.676106 0.044427 0.297518
Si Si2 0.705830 0.999159 0.571664
Si Si3 0.444836 0.812144 0.030894
Si Si4 0.845793 0.790101 0.063588
Si Si5 0.166889 0.876512 0.690492
Si Si6 0.188676 0.666918 0.023874
O O1 0.735621 0.006485 0.147544
O O2 0.603433 0.132235 0.349735
O O3 0.800204 0.062971 0.258580
O O4 0.500000 0.000000 0.500000
O O5 0.500000 0.004040 0.750000
O O6 0.777160 0.915780 0.462585
O O7 0.783608 0.071975 0.441846
O O8 0.530969 0.729413 0.973089
O O9 0.322314 0.820691 0.068801
O O10 0.327667 0.831290 0.231171
O O11 0.788394 0.703300 0.081842
O O12 0.975017 0.840866 0.879291
O O13 0.000000 0.657618 0.250000
O O14 0.250000 0.750000 0.000000
#
# Coordination Sequence:
#
# PCOD9259496 Si02
#       6
#     8   8   8   8   8   8
#     4  11  20  37  66  89 121 173 215 266 325 398
#     4  11  21  39  63  94 126 174 219 260 333 402
#     4  10  18  35  58  91 120 164 220 260 335 386
#     4   9  21  36  65  93 124 170 218 283 323 387
#     4  10  21  41  69  94 132 170 227 274 332 394
#     4  11  21  34  57  87 126 165 206 268 324 390
#
# _framework density 24.206766999999999
#
# number of rings (size 3 to 8) (size 9 to 14) (size 15 to 20)
#    0.000    1.667    5.000    1.000    4.667    0.000 
#    0.000    4.167    0.000    6.000    0.000    0.000 
#    0.000    0.000    0.000    0.000    0.000    0.000 
#
# Total GULP energy -133964.769389 kJ/mol
# GULP energy per Si atom -5581.865391 kJ/mol
# Density = 2.415167 g / cm^3
# Si number density = 24.206767 Si / 1000 Ang^3
#
#
#
# Elastic Constant Matrix: (Units=GPa)
#
#
# Indices 1 2 3 4 5 6 
#
# 1 148.2808 80.9554 46.3061 -0.0021 22.6458 -0.0006
# 2 80.9554 128.5196 46.3474 -0.0077 19.2750 0.0025
# 3 46.3061 46.3474 113.7941 -0.0244 22.6051 0.0077
# 4 -0.0021 -0.0077 -0.0244 38.9476 0.0068 11.6082
# 5 22.6458 19.2750 22.6051 0.0068 29.4145 -0.0007
# 6 -0.0006 0.0025 0.0077 11.6082 -0.0007 36.9578
#
#
#
# Elastic Compliance Matrix: (Units=1/GPa)
#
#
# Indices 1 2 3 4 5 6 
#
# 1 0.010897 -0.005848 -0.001354 -0.000001 -0.003517 0.000001
# 2 -0.005848 0.012611 -0.002371 0.000001 -0.001939 -0.000001
# 3 -0.001354 -0.002371 0.011552 0.000009 -0.006282 -0.000005
# 4 -0.000001 0.000001 0.000009 0.028327 -0.000014 -0.008897
# 5 -0.003517 -0.001939 -0.006282 -0.000014 0.042802 0.000007
# 6 0.000001 -0.000001 -0.000005 -0.008897 0.000007 0.029853
#
#
# Mechanical properties :
#
#
# Convention : Reuss Voigt Hill
#
# Bulk Modulus (GPa) = 62.84038 81.97912 72.40975
# Shear Modulus (GPa) = 31.15403 35.52970 33.34186
#
# Velocity S-wave (km/s) = 3.59137 3.83529 3.71533
# Velocity P-wave (km/s) = 6.57369 7.31795 6.95578
#
# Compressibility (1/GPa) = 0.01591334
#
# Stress axis : x y z
#
# Youngs Moduli (GPa) = 91.77078 79.29750 86.56261
#
# Poissons Ratio (x) = 0.46376 0.11717
# Poissons Ratio (y) = 0.53671 0.20526
# Poissons Ratio (z) = 0.12422 0.18803
#
# Static dielectric constant tensor:
#      x y z
#    x 2.122360 0.000000 -0.023390 
#    y 0.000000 1.993410 -0.000010 
#    z -0.023390 -0.000010 1.958720 
# 
# From -- ./inp_files/206371.got.cif
#   From: 2010.05.17/outbox.cif.g08.bks.cpg/sg15_104_cif.got.tgz:206371.got - 2010.06.03 18:47:42.
