data_PCOD9259766
_publ_section_title
;
Structure prediction by ZEFSAII (Michael W. Deem and Ramdas Pophale) SiO2 
 PCOD9259766
Probable space group: C 2/C
;
_chemical_formula_sum "Si O2"
_cell_formula_units_Z 52
_cell_length_a 12.694802
_cell_length_b 17.307051
_cell_length_c 18.098689
_cell_angle_alpha 90.000000
_cell_angle_beta 31.595452
_cell_angle_gamma 90.000000
_cell_volume 2083.337770
_symmetry_space_group_name_H-M "C 2/C"
_symmetry_group_IT_number 15
_symmetry_cell_setting 'monoclinic'
loop_
_space_group_symop_operation_xyz
x,y,z
-x,y,1/2-z
-x,-y,-z
x,-y,1/2+z
1/2+x,1/2+y,z
1/2-x,1/2+y,1/2-z
1/2-x,1/2-y,-z
1/2+x,1/2-y,1/2+z
loop_
_atom_site_type_symbol
_atom_site_label
_atom_site_fract_x
_atom_site_fract_y
_atom_site_fract_z
Si Si1 0.000000 0.686582 0.250000
Si Si2 0.361610 0.575233 0.992465
Si Si3 0.049942 0.764340 0.528752
Si Si4 0.320225 0.930682 0.048622
Si Si5 0.762957 0.914462 0.121357
Si Si6 0.485997 0.094532 0.919957
Si Si7 0.104348 0.297117 0.839676
O O1 0.807684 0.631208 0.372220
O O2 0.978770 0.734132 0.187967
O O3 0.297576 0.487241 0.048619
O O4 0.350223 0.586897 0.910509
O O5 0.560019 0.584925 0.922306
O O6 0.111816 0.678951 0.517489
O O7 0.844359 0.789030 0.692191
O O8 0.207772 0.833228 0.437077
O O9 0.017168 0.748320 0.460925
O O10 0.332194 0.905662 0.127127
O O11 0.517963 0.884382 0.898601
O O12 0.352552 0.022656 0.025488
O O13 0.568815 0.919191 0.288851
#
# Coordination Sequence:
#
# PCOD9259766 Si02
#       7
#     4   8   8   8   8   8   8
#     4  10  18  36  54  80 112 150 190 236 290 348
#     4  10  21  35  60  88 113 150 201 241 286 350
#     4  11  21  37  53  88 116 154 191 238 298 348
#     4   9  21  41  62  85 113 158 195 241 293 352
#     4  11  21  35  59  88 117 154 195 246 288 345
#     4  10  21  39  62  84 118 154 197 242 294 347
#     4  10  20  35  56  80 118 148 190 237 293 352
#
# _framework density 24.959945999999999
#
# number of rings (size 3 to 8) (size 9 to 14) (size 15 to 20)
#    0.000    1.846    3.077    1.846    2.154    1.231 
#    2.769    0.769    0.000    0.000    0.000    0.000 
#    0.000    0.000    0.000    0.000    0.000    0.000 
#
# Total GULP energy -145372.966268 kJ/mol
# GULP energy per Si atom -5591.267933 kJ/mol
# Density = 2.490314 g / cm^3
# Si number density = 24.959946 Si / 1000 Ang^3
#
#
#
# Elastic Constant Matrix: (Units=GPa)
#
#
# Indices 1 2 3 4 5 6 
#
# 1 130.7301 12.8151 8.7157 0.0012 16.0641 0.0002
# 2 12.8151 142.7512 11.5010 -0.0079 3.1604 0.0012
# 3 8.7157 11.5010 50.0233 -0.0142 6.6508 0.0066
# 4 0.0012 -0.0079 -0.0142 9.3005 0.0054 3.1637
# 5 16.0641 3.1604 6.6508 0.0054 44.9509 0.0005
# 6 0.0002 0.0012 0.0066 3.1637 0.0005 16.1410
#
#
#
# Elastic Compliance Matrix: (Units=1/GPa)
#
#
# Indices 1 2 3 4 5 6 
#
# 1 0.008103 -0.000594 -0.000914 -0.000002 -0.002719 0.000001
# 2 -0.000594 0.007184 -0.001540 0.000004 -0.000065 -0.000001
# 3 -0.000914 -0.001540 0.020856 0.000037 -0.002651 -0.000016
# 4 -0.000002 0.000004 0.000037 0.115202 -0.000019 -0.022580
# 5 -0.002719 -0.000065 -0.002651 -0.000019 0.023615 0.000004
# 6 0.000001 -0.000001 -0.000016 -0.022580 0.000004 0.066380
#
#
# Mechanical properties :
#
#
# Convention : Reuss Voigt Hill
#
# Bulk Modulus (GPa) = 33.27907 43.28536 38.28222
# Shear Modulus (GPa) = 19.42128 33.44334 26.43231
#
# Velocity S-wave (km/s) = 2.79247 3.66441 3.25774
# Velocity P-wave (km/s) = 4.87433 5.93999 5.43335
#
# Compressibility (1/GPa) = 0.03004891
#
# Stress axis : x y z
#
# Youngs Moduli (GPa) = 123.41830 139.19892 47.94697
#
# Poissons Ratio (x) = 0.08262 0.04381
# Poissons Ratio (y) = 0.07326 0.07382
# Poissons Ratio (z) = 0.11278 0.21431
#
# Static dielectric constant tensor:
#      x y z
#    x 2.085460 0.000000 -0.015100 
#    y 0.000000 1.941150 0.000000 
#    z -0.015100 0.000000 1.982360 
# 
# From -- ./inp_files/245006.got.cif
#   From: 2010.05.17/outbox.cif.g08.bks.cpg/sg15_123_cif.got.tgz:245006.got - 2010.06.03 18:47:42.
