data_PCOD9259560
_publ_section_title
;
Structure prediction by ZEFSAII (Michael W. Deem and Ramdas Pophale) SiO2 
 PCOD9259560
Probable space group: C 2/C
;
_chemical_formula_sum "Si O2"
_cell_formula_units_Z 60
_cell_length_a 10.837886
_cell_length_b 22.677744
_cell_length_c 24.496480
_cell_angle_alpha 90.000000
_cell_angle_beta 32.745943
_cell_angle_gamma 90.000000
_cell_volume 3256.694863
_symmetry_space_group_name_H-M "C 2/C"
_symmetry_group_IT_number 15
_symmetry_cell_setting 'monoclinic'
loop_
_space_group_symop_operation_xyz
x,y,z
-x,y,1/2-z
-x,-y,-z
x,-y,1/2+z
1/2+x,1/2+y,z
1/2-x,1/2+y,1/2-z
1/2-x,1/2-y,-z
1/2+x,1/2-y,1/2+z
loop_
_atom_site_type_symbol
_atom_site_label
_atom_site_fract_x
_atom_site_fract_y
_atom_site_fract_z
Si Si1 0.030130 0.171037 0.117077
Si Si2 0.500000 0.120151 0.750000
Si Si3 0.895239 0.462825 0.953906
Si Si4 0.110619 0.421371 0.980857
Si Si5 0.649343 0.075206 0.249807
Si Si6 0.612515 0.197736 0.609409
Si Si7 0.117322 0.048307 0.827217
Si Si8 0.774286 0.870545 0.312308
O O1 0.789806 0.136887 0.200485
O O2 0.048063 0.233946 0.140140
O O3 0.190407 0.125376 0.089380
O O4 0.160943 0.185661 0.011053
O O5 0.625556 0.161867 0.660095
O O6 0.310350 0.080479 0.791196
O O7 0.863155 0.532556 0.978635
O O8 0.989071 0.439966 0.861535
O O9 0.640520 0.438401 0.058587
O O10 0.080701 0.448167 0.932148
O O11 0.869317 0.391584 0.082796
O O12 0.500000 0.072848 0.250000
O O13 0.829793 0.020995 0.185800
O O14 0.398535 0.169744 0.656771
O O15 0.153307 0.074238 0.752879
O O16 0.000000 0.839564 0.250000
#
# Coordination Sequence:
#
# PCOD9259560 Si02
#       8
#     8   4   8   8   8   8   8   8
#     4  10  22  43  61  86 121 162 204 257 300 361
#     4  10  22  38  66  88 114 166 206 254 296 372
#     4  11  23  36  57  94 122 155 197 246 311 365
#     4  10  20  36  62  87 120 155 197 248 304 365
#     4  12  26  38  58  91 127 166 195 249 316 371
#     4   9  22  40  64  87 113 161 215 245 303 356
#     4  11  21  37  58  89 123 154 198 247 304 376
#     4  10  18  35  60  85 116 151 197 247 301 355
#
# _framework density 18.423587000000001
#
# number of rings (size 3 to 8) (size 9 to 14) (size 15 to 20)
#    0.000    1.600    4.667    0.000    1.867    2.667 
#    0.000    0.000    0.000    2.400    0.000    0.000 
#    0.000    0.000    0.000    0.000    0.000    0.000 
#
# Total GULP energy -167153.683684 kJ/mol
# GULP energy per Si atom -5571.789456 kJ/mol
# Density = 1.838165 g / cm^3
# Si number density = 18.423587 Si / 1000 Ang^3
#
#
#
# Elastic Constant Matrix: (Units=GPa)
#
#
# Indices 1 2 3 4 5 6 
#
# 1 46.6462 5.6998 24.7163 0.0838 -3.2476 0.0009
# 2 5.6998 88.7961 8.8393 0.0453 -3.7618 -0.0134
# 3 24.7163 8.8393 73.7200 -0.0511 -6.7023 0.0510
# 4 0.0838 0.0453 -0.0511 19.6007 -0.0351 -1.9679
# 5 -3.2476 -3.7618 -6.7023 -0.0351 23.7433 0.0230
# 6 0.0009 -0.0134 0.0510 -1.9679 0.0230 9.8490
#
#
#
# Elastic Compliance Matrix: (Units=1/GPa)
#
#
# Indices 1 2 3 4 5 6 
#
# 1 0.026152 -0.000781 -0.008581 -0.000129 0.001031 0.000013
# 2 -0.000781 0.011470 -0.000983 -0.000022 0.001433 0.000013
# 3 -0.008581 -0.000983 0.016872 0.000081 0.003433 -0.000080
# 4 -0.000129 -0.000022 0.000081 0.052064 0.000069 0.010402
# 5 0.001031 0.001433 0.003433 0.000069 0.043455 -0.000104
# 6 0.000013 0.000013 -0.000080 0.010402 -0.000104 0.103612
#
#
# Mechanical properties :
#
#
# Convention : Reuss Voigt Hill
#
# Bulk Modulus (GPa) = 29.58172 31.96366 30.77269
# Shear Modulus (GPa) = 17.50803 21.96574 19.73688
#
# Velocity S-wave (km/s) = 3.08605 3.45666 3.27660
# Velocity P-wave (km/s) = 5.36559 5.77220 5.57261
#
# Compressibility (1/GPa) = 0.03380466
#
# Stress axis : x y z
#
# Youngs Moduli (GPa) = 38.23783 87.18027 59.27006
#
# Poissons Ratio (x) = 0.06807 0.50859
# Poissons Ratio (y) = 0.02985 0.05828
# Poissons Ratio (z) = 0.32811 0.08573
#
# Static dielectric constant tensor:
#      x y z
#    x 1.645390 0.000000 0.005850 
#    y 0.000000 1.651750 0.000060 
#    z 0.005850 0.000060 1.648730 
# 
# From -- ./inp_files/179294.got.cif
#   From: 2010.05.17/outbox.cif.g08.bks.cpg/sg15_90_cif.got.tgz:179294.got - 2010.06.03 18:47:42.
