data_PCOD9259583
_publ_section_title
;
Structure prediction by ZEFSAII (Michael W. Deem and Ramdas Pophale) SiO2 
 PCOD9259583
Probable space group: C 2/C
;
_chemical_formula_sum "Si O2"
_cell_formula_units_Z 64
_cell_length_a 11.278112
_cell_length_b 17.349142
_cell_length_c 14.170367
_cell_angle_alpha 90.000000
_cell_angle_beta 78.541784
_cell_angle_gamma 90.000000
_cell_volume 2717.393463
_symmetry_space_group_name_H-M "C 2/C"
_symmetry_group_IT_number 15
_symmetry_cell_setting 'monoclinic'
loop_
_space_group_symop_operation_xyz
x,y,z
-x,y,1/2-z
-x,-y,-z
x,-y,1/2+z
1/2+x,1/2+y,z
1/2-x,1/2+y,1/2-z
1/2-x,1/2-y,-z
1/2+x,1/2-y,1/2+z
loop_
_atom_site_type_symbol
_atom_site_label
_atom_site_fract_x
_atom_site_fract_y
_atom_site_fract_z
Si Si1 0.941711 0.534174 0.858654
Si Si2 0.353999 0.202714 0.539564
Si Si3 0.520831 0.660614 0.412361
Si Si4 0.178879 0.983767 0.927317
Si Si5 0.184603 0.104790 0.685929
Si Si6 0.182107 0.062853 0.132137
Si Si7 0.564379 0.890397 0.942833
Si Si8 0.436639 0.369816 0.120358
O O1 0.809843 0.497359 0.862326
O O2 0.000000 0.558495 0.750000
O O3 0.019736 0.467072 0.896020
O O4 0.927090 0.596263 0.944939
O O5 0.250000 0.250000 0.500000
O O6 0.414811 0.258171 0.608208
O O7 0.295702 0.131186 0.604725
O O8 0.457399 0.171917 0.451948
O O9 0.627390 0.601128 0.424259
O O10 0.434317 0.617667 0.352887
O O11 0.438491 0.670996 0.519920
O O12 0.078103 0.040195 0.901602
O O13 0.192085 0.015908 0.031428
O O14 0.171883 0.145127 0.789962
O O15 0.065266 0.135334 0.650578
O O16 0.177362 0.012083 0.699722
O O17 0.300291 0.117095 0.118734
#
# Coordination Sequence:
#
# PCOD9259583 Si02
#       8
#     8   8   8   8   8   8   8   8
#     4  10  21  37  62  94 128 159 204 267 330 370
#     4  12  23  39  63  87 126 173 210 257 334 398
#     4  11  20  39  61  91 124 169 207 254 322 398
#     4  10  18  35  60  92 113 152 207 259 306 368
#     4  11  20  35  61  94 119 158 210 272 311 367
#     4  10  19  38  63  86 123 154 210 265 313 367
#     4  10  23  39  58  92 129 165 211 264 317 398
#     4  10  20  33  61  91 117 154 214 263 306 366
#
# _framework density 23.551981999999999
#
# number of rings (size 3 to 8) (size 9 to 14) (size 15 to 20)
#    0.000    1.500    3.750    3.750    3.500    0.500 
#    0.000    2.500    0.000    1.500    0.000    0.000 
#    0.000    0.000    0.000    0.000    0.000    0.000 
#
# Total GULP energy -178647.715366 kJ/mol
# GULP energy per Si atom -5582.741105 kJ/mol
# Density = 2.349838 g / cm^3
# Si number density = 23.551982 Si / 1000 Ang^3
#
#
#
# Elastic Constant Matrix: (Units=GPa)
#
#
# Indices 1 2 3 4 5 6 
#
# 1 105.4854 21.5332 19.8223 0.0000 -14.1230 0.0000
# 2 21.5332 67.1434 -4.3394 0.0000 0.3074 0.0000
# 3 19.8223 -4.3394 83.5450 0.0000 -5.8721 0.0000
# 4 0.0000 0.0000 0.0000 11.2065 0.0000 -5.8696
# 5 -14.1230 0.3074 -5.8721 0.0000 24.0402 0.0000
# 6 0.0000 0.0000 0.0000 -5.8696 0.0000 40.3688
#
#
#
# Elastic Compliance Matrix: (Units=1/GPa)
#
#
# Indices 1 2 3 4 5 6 
#
# 1 0.011585 -0.003906 -0.002513 0.000000 0.006242 0.000000
# 2 -0.003906 0.016261 0.001623 0.000000 -0.002106 0.000000
# 3 -0.002513 0.001623 0.012764 0.000000 0.001621 0.000000
# 4 0.000000 0.000000 0.000000 0.096590 0.000000 0.014044
# 5 0.006242 -0.002106 0.001621 0.000000 0.045687 0.000000
# 6 0.000000 0.000000 0.000000 0.014044 0.000000 0.026814
#
#
# Mechanical properties :
#
#
# Convention : Reuss Voigt Hill
#
# Bulk Modulus (GPa) = 32.23900 36.68956 34.46428
# Shear Modulus (GPa) = 21.77397 29.73362 25.75380
#
# Velocity S-wave (km/s) = 3.04387 3.55698 3.31038
# Velocity P-wave (km/s) = 5.10604 5.69924 5.41078
#
# Compressibility (1/GPa) = 0.03101833
#
# Stress axis : x y z
#
# Youngs Moduli (GPa) = 86.31554 61.49727 78.34494
#
# Poissons Ratio (x) = 0.24024 0.19688
# Poissons Ratio (y) = 0.33719 -0.12719
# Poissons Ratio (z) = 0.21691 -0.09984
#
# Static dielectric constant tensor:
#      x y z
#    x 1.939730 0.000000 0.012290 
#    y 0.000000 1.876900 0.000000 
#    z 0.012290 0.000000 1.970430 
# 
# From -- ./inp_files/147117.got.cif
#   From: 2010.05.17/outbox.cif.g08.bks.cpg/sg15_74_cif.got.tgz:147117.got - 2010.06.03 18:47:42.
