data_PCOD9259963
_publ_section_title
;
Structure prediction by ZEFSAII (Michael W. Deem and Ramdas Pophale) SiO2 
 PCOD9259963
Probable space group: C 2/C
;
_chemical_formula_sum "Si O2"
_cell_formula_units_Z 52
_cell_length_a 9.144706
_cell_length_b 18.485741
_cell_length_c 16.710621
_cell_angle_alpha 90.000000
_cell_angle_beta 77.705512
_cell_angle_gamma 90.000000
_cell_volume 2760.089280
_symmetry_space_group_name_H-M "C 2/C"
_symmetry_group_IT_number 15
_symmetry_cell_setting 'monoclinic'
loop_
_space_group_symop_operation_xyz
x,y,z
-x,y,1/2-z
-x,-y,-z
x,-y,1/2+z
1/2+x,1/2+y,z
1/2-x,1/2+y,1/2-z
1/2-x,1/2-y,-z
1/2+x,1/2-y,1/2+z
loop_
_atom_site_type_symbol
_atom_site_label
_atom_site_fract_x
_atom_site_fract_y
_atom_site_fract_z
Si Si1 0.335813 0.658577 0.949486
Si Si2 0.254944 0.910152 0.649302
Si Si3 0.448576 0.067724 0.453771
Si Si4 0.224158 0.441475 0.680089
Si Si5 0.321606 0.282341 0.620615
Si Si6 0.974862 0.986822 0.408928
Si Si7 0.000000 0.197150 0.250000
O O1 0.293021 0.720441 0.892028
O O2 0.445772 0.598040 0.902913
O O3 0.181952 0.615791 0.990885
O O4 0.393579 0.693346 0.026661
O O5 0.403388 0.885635 0.585148
O O6 0.317469 0.947059 0.723004
O O7 0.130442 0.852520 0.693899
O O8 0.166111 0.967821 0.606170
O O9 0.379208 0.034703 0.380416
O O10 0.500000 0.000000 0.500000
O O11 0.243854 0.355823 0.660006
O O12 0.382253 0.481426 0.652506
O O13 0.428292 0.261592 0.682353
O O14 0.000000 0.000000 0.500000
#
# Coordination Sequence:
#
# PCOD9259963 Si02
#       7
#     8   8   8   8   8   8   4
#     4  10  20  33  55  83 116 145 185 239 296 331
#     4  11  19  33  56  82 110 140 192 245 276 340
#     4  11  20  33  52  85 113 143 183 240 293 334
#     4  10  20  35  57  84 108 152 193 234 284 342
#     4   9  18  35  56  80 108 155 186 229 287 349
#     4  12  17  33  58  85 107 143 194 234 274 338
#     4  10  18  36  60  78 106 156 198 226 288 358
#
# _framework density 18.839970000000001
#
# number of rings (size 3 to 8) (size 9 to 14) (size 15 to 20)
#    0.000    1.538    7.692    0.462    0.000    0.000 
#    0.000    2.308    0.000   24.000    0.000    0.000 
#    0.000    0.000    0.000    0.000    0.000    0.000 
#
# Total GULP energy -144824.901007 kJ/mol
# GULP energy per Si atom -5570.188500 kJ/mol
# Density = 1.879709 g / cm^3
# Si number density = 18.839970 Si / 1000 Ang^3
#
#
#
# Elastic Constant Matrix: (Units=GPa)
#
#
# Indices 1 2 3 4 5 6 
#
# 1 76.4032 24.6384 36.8206 0.0000 10.4177 0.0000
# 2 24.6384 75.1298 30.0847 0.0000 9.0438 0.0000
# 3 36.8206 30.0847 81.3121 0.0000 30.3607 0.0000
# 4 0.0000 0.0000 0.0000 17.4491 0.0000 13.5699
# 5 10.4177 9.0438 30.3607 0.0000 59.7577 0.0000
# 6 0.0000 0.0000 0.0000 13.5699 0.0000 16.3382
#
#
#
# Elastic Compliance Matrix: (Units=1/GPa)
#
#
# Indices 1 2 3 4 5 6 
#
# 1 0.017345 -0.002949 -0.007159 0.000000 0.001060 0.000000
# 2 -0.002949 0.016151 -0.004837 0.000000 0.000527 0.000000
# 3 -0.007159 -0.004837 0.020474 0.000000 -0.008422 0.000000
# 4 0.000000 0.000000 0.000000 0.161852 0.000000 -0.134428
# 5 0.001060 0.000527 -0.008422 0.000000 0.020749 0.000000
# 6 0.000000 0.000000 0.000000 -0.134428 0.000000 0.172857
#
#
# Mechanical properties :
#
#
# Convention : Reuss Voigt Hill
#
# Bulk Modulus (GPa) = 41.52798 46.21472 43.87135
# Shear Modulus (GPa) = 11.17707 28.12912 19.65309
#
# Velocity S-wave (km/s) = 2.43834 3.86820 3.23330
# Velocity P-wave (km/s) = 5.47884 6.67338 6.10540
#
# Compressibility (1/GPa) = 0.02408015
#
# Stress axis : x y z
#
# Youngs Moduli (GPa) = 57.65344 61.91594 48.84131
#
# Poissons Ratio (x) = 0.18260 0.34965
# Poissons Ratio (y) = 0.17003 0.23625
# Poissons Ratio (z) = 0.41273 0.29950
#
# Static dielectric constant tensor:
#      x y z
#    x 1.715620 0.000000 0.001510 
#    y 0.000000 1.645400 0.000000 
#    z 0.001510 0.000000 1.671430 
# 
# From -- ./inp_files/190394.got.cif
#   From: 2010.05.17/outbox.cif.g08.bks.cpg/sg15_96_cif.got.tgz:190394.got - 2010.06.03 18:47:42.
