data_PCOD9259872
_publ_section_title
;
Structure prediction by ZEFSAII (Michael W. Deem and Ramdas Pophale) SiO2 
 PCOD9259872
Probable space group: C 2/C
;
_chemical_formula_sum "Si O2"
_cell_formula_units_Z 36
_cell_length_a 35.010060
_cell_length_b 6.635563
_cell_length_c 23.398822
_cell_angle_alpha 90.000000
_cell_angle_beta 16.713951
_cell_angle_gamma 90.000000
_cell_volume 1563.306173
_symmetry_space_group_name_H-M "C 2/C"
_symmetry_group_IT_number 15
_symmetry_cell_setting 'monoclinic'
loop_
_space_group_symop_operation_xyz
x,y,z
-x,y,1/2-z
-x,-y,-z
x,-y,1/2+z
1/2+x,1/2+y,z
1/2-x,1/2+y,1/2-z
1/2-x,1/2-y,-z
1/2+x,1/2-y,1/2+z
loop_
_atom_site_type_symbol
_atom_site_label
_atom_site_fract_x
_atom_site_fract_y
_atom_site_fract_z
Si Si1 0.130017 0.931218 0.034408
Si Si2 0.951427 0.372140 0.441469
Si Si3 0.359698 0.686744 0.105984
Si Si4 0.898932 0.673910 0.665523
Si Si5 0.000000 0.533646 0.250000
O O1 0.107821 0.934592 0.998034
O O2 0.258002 0.058286 0.867805
O O3 0.123107 0.694524 0.064784
O O4 0.000000 0.015393 0.250000
O O5 0.800203 0.296983 0.665971
O O6 0.932650 0.604092 0.488256
O O7 0.050196 0.266067 0.344696
O O8 0.001982 0.402504 0.304572
O O9 0.392197 0.653210 0.126298
O O10 0.000000 0.500000 0.500000
#
# Coordination Sequence:
#
# PCOD9259872 Si02
#       5
#     8   8   8   8   4
#     4   9  18  34  57  85 109 153 186 233 276 333
#     4  10  20  38  60  82 114 154 189 234 286 337
#     4  10  18  36  58  82 114 152 186 234 281 333
#     4  10  19  35  62  83 112 155 193 224 287 348
#     4   8  20  36  56  82 118 146 188 240 280 326
#
# _framework density 23.028120000000001
#
# number of rings (size 3 to 8) (size 9 to 14) (size 15 to 20)
#    0.667    1.778    4.444    0.000    0.000    0.889 
#    2.000    2.222    0.000    0.000    0.000    0.000 
#    0.000    0.000    0.000    0.000    0.000    0.000 
#
# Total GULP energy -100214.726307 kJ/mol
# GULP energy per Si atom -5567.484795 kJ/mol
# Density = 2.297571 g / cm^3
# Si number density = 23.028120 Si / 1000 Ang^3
#
#
#
# Elastic Constant Matrix: (Units=GPa)
#
#
# Indices 1 2 3 4 5 6 
#
# 1 265.1869 43.0428 96.6191 -0.0023 15.6789 -0.0013
# 2 43.0428 30.2386 21.7963 -0.0068 17.3213 -0.0044
# 3 96.6191 21.7963 132.3871 -0.0040 6.9999 -0.0046
# 4 -0.0023 -0.0068 -0.0040 42.4469 -0.0013 36.3372
# 5 15.6789 17.3213 6.9999 -0.0013 39.9588 -0.0008
# 6 -0.0013 -0.0044 -0.0046 36.3372 -0.0008 33.1517
#
#
#
# Elastic Compliance Matrix: (Units=1/GPa)
#
#
# Indices 1 2 3 4 5 6 
#
# 1 0.006029 -0.006862 -0.003333 -0.000002 0.001193 0.000001
# 2 -0.006862 0.057695 -0.003342 0.000038 -0.021732 -0.000036
# 3 -0.003333 -0.003342 0.010488 -0.000007 0.000919 0.000009
# 4 -0.000002 0.000038 -0.000007 0.381978 -0.000011 -0.418683
# 5 0.001193 -0.021732 0.000919 -0.000011 0.033817 0.000010
# 6 0.000001 -0.000036 0.000009 -0.418683 0.000010 0.489079
#
#
# Mechanical properties :
#
#
# Convention : Reuss Voigt Hill
#
# Bulk Modulus (GPa) = 21.21449 83.41433 52.31441
# Shear Modulus (GPa) = 4.89298 40.86842 22.88070
#
# Velocity S-wave (km/s) = 1.45925 4.21731 3.15556
# Velocity P-wave (km/s) = 3.47442 7.74698 6.00364
#
# Compressibility (1/GPa) = 0.04713759
#
# Stress axis : x y z
#
# Youngs Moduli (GPa) = 165.87642 17.33244 95.34922
#
# Poissons Ratio (x) = 0.11894 0.31781
# Poissons Ratio (y) = 1.13827 0.31864
# Poissons Ratio (z) = 0.55288 0.05792
#
# Static dielectric constant tensor:
#      x y z
#    x 1.734020 0.000000 0.104560 
#    y 0.000000 1.989710 0.000000 
#    z 0.104560 0.000000 1.766470 
# 
# From -- ./inp_files/102446.got.cif
#   From: 2010.05.17/outbox.cif.g08.bks.cpg/sg15_52_cif.got.tgz:102446.got - 2010.06.03 18:47:42.
