data_PCOD9259479
_publ_section_title
;
Structure prediction by ZEFSAII (Michael W. Deem and Ramdas Pophale) SiO2 
 PCOD9259479
Probable space group: C 2/C
;
_chemical_formula_sum "Si O2"
_cell_formula_units_Z 56
_cell_length_a 8.318679
_cell_length_b 17.386520
_cell_length_c 16.829179
_cell_angle_alpha 90.000000
_cell_angle_beta 116.313211
_cell_angle_gamma 90.000000
_cell_volume 2181.846409
_symmetry_space_group_name_H-M "C 2/C"
_symmetry_group_IT_number 15
_symmetry_cell_setting 'monoclinic'
loop_
_space_group_symop_operation_xyz
x,y,z
-x,y,1/2-z
-x,-y,-z
x,-y,1/2+z
1/2+x,1/2+y,z
1/2-x,1/2+y,1/2-z
1/2-x,1/2-y,-z
1/2+x,1/2-y,1/2+z
loop_
_atom_site_type_symbol
_atom_site_label
_atom_site_fract_x
_atom_site_fract_y
_atom_site_fract_z
Si Si1 0.102132 0.309494 0.004213
Si Si2 0.093962 0.305356 0.184757
Si Si3 0.847192 0.934397 0.477782
Si Si4 0.439923 0.615873 0.612701
Si Si5 0.427892 0.779331 0.809132
Si Si6 0.129691 0.949083 0.841855
Si Si7 0.953985 0.476358 0.330492
O O1 0.956238 0.311966 0.902906
O O2 0.250000 0.250000 0.000000
O O3 0.033849 0.291646 0.078954
O O4 0.232553 0.383729 0.037839
O O5 0.232804 0.240019 0.236702
O O6 0.153302 0.394854 0.192189
O O7 0.000000 0.310040 0.250000
O O8 0.645974 0.961007 0.414144
O O9 0.915309 0.875084 0.426645
O O10 0.856375 0.908149 0.570391
O O11 0.000000 0.000000 0.500000
O O12 0.469780 0.695433 0.665744
O O13 0.461912 0.532931 0.657674
O O14 0.500000 0.827153 0.750000
O O15 0.321750 0.966262 0.845590
O O16 0.000000 0.910285 0.750000
O O17 0.000000 0.495976 0.250000
#
# Coordination Sequence:
#
# PCOD9259479 Si02
#       7
#     8   8   8   8   8   8   8
#     4  10  20  35  61  89 123 162 205 258 320 382
#     4  11  21  35  58  94 124 150 209 263 314 372
#     4  10  22  36  57  90 123 159 203 261 314 368
#     4  10  18  35  58  86 117 158 206 254 303 365
#     4  11  19  35  63  90 119 160 210 254 310 386
#     4  11  20  35  61  87 126 161 206 256 312 372
#     4  11  20  35  60  92 120 155 205 262 311 366
#
# _framework density 25.666335
#
# number of rings (size 3 to 8) (size 9 to 14) (size 15 to 20)
#    0.000    1.429    4.286    5.143    0.000    0.571 
#    0.000    0.000    3.143    6.857    0.000    0.000 
#    0.000    0.000    0.000    0.000    0.000    0.000 
#
# Total GULP energy -156217.329468 kJ/mol
# GULP energy per Si atom -5579.190338 kJ/mol
# Density = 2.560792 g / cm^3
# Si number density = 25.666335 Si / 1000 Ang^3
#
#
#
# Elastic Constant Matrix: (Units=GPa)
#
#
# Indices 1 2 3 4 5 6 
#
# 1 117.0907 9.4641 79.5647 0.0000 -30.8733 0.0000
# 2 9.4641 63.1157 21.0347 0.0000 -7.0648 0.0000
# 3 79.5647 21.0347 259.9207 0.0000 -36.8849 0.0000
# 4 0.0000 0.0000 0.0000 14.7513 0.0000 -14.8052
# 5 -30.8733 -7.0648 -36.8849 0.0000 58.7726 0.0000
# 6 0.0000 0.0000 0.0000 -14.8052 0.0000 -24.4841
#
#
#
# Elastic Compliance Matrix: (Units=1/GPa)
#
#
# Indices 1 2 3 4 5 6 
#
# 1 0.011691 -0.000293 -0.002951 0.000000 0.004254 0.000000
# 2 -0.000293 0.016373 -0.001073 0.000000 0.001140 0.000000
# 3 -0.002951 -0.001073 0.005049 0.000000 0.001489 0.000000
# 4 0.000000 0.000000 0.000000 0.042187 0.000000 -0.025510
# 5 0.004254 0.001140 0.001489 0.000000 0.020321 0.000000
# 6 0.000000 0.000000 0.000000 -0.025510 0.000000 -0.025417
#
#
# Mechanical properties :
#
#
# Convention : Reuss Voigt Hill
#
# Bulk Modulus (GPa) = 40.85430 73.36156 57.10793
# Shear Modulus (GPa) = 57.47117 31.81220 44.64168
#
# Velocity S-wave (km/s) = 4.73712 3.52440 4.17503
# Velocity P-wave (km/s) = 6.77291 6.72360 6.74830
#
# Compressibility (1/GPa) = 0.02447722
#
# Stress axis : x y z
#
# Youngs Moduli (GPa) = 85.53407 61.07503 198.05901
#
# Poissons Ratio (x) = 0.01791 0.58456
# Poissons Ratio (y) = 0.02509 0.21260
# Poissons Ratio (z) = 0.25245 0.06556
#
# Static dielectric constant tensor:
#      x y z
#    x 2.282740 0.000000 -0.133810 
#    y 0.000000 2.063080 0.000000 
#    z -0.133810 0.000000 2.285160 
# 
# From -- ./inp_files/137926.got.cif
#   From: 2010.05.17/outbox.cif.g08.bks.cpg/sg15_69_cif.got.tgz:137926.got - 2010.06.03 18:47:42.
