data_PCOD9259661
_publ_section_title
;
Structure prediction by ZEFSAII (Michael W. Deem and Ramdas Pophale) SiO2 
 PCOD9259661
Probable space group: C 2/C
;
_chemical_formula_sum "Si O2"
_cell_formula_units_Z 44
_cell_length_a 26.849420
_cell_length_b 8.398079
_cell_length_c 14.929874
_cell_angle_alpha 90.000000
_cell_angle_beta 147.191320
_cell_angle_gamma 90.000000
_cell_volume 1824.057392
_symmetry_space_group_name_H-M "C 2/C"
_symmetry_group_IT_number 15
_symmetry_cell_setting 'monoclinic'
loop_
_space_group_symop_operation_xyz
x,y,z
-x,y,1/2-z
-x,-y,-z
x,-y,1/2+z
1/2+x,1/2+y,z
1/2-x,1/2+y,1/2-z
1/2-x,1/2-y,-z
1/2+x,1/2-y,1/2+z
loop_
_atom_site_type_symbol
_atom_site_label
_atom_site_fract_x
_atom_site_fract_y
_atom_site_fract_z
Si Si1 0.165898 0.990906 0.520380
Si Si2 0.539469 0.008209 0.692783
Si Si3 0.000000 0.208737 0.750000
Si Si4 0.811282 0.888160 0.141875
Si Si5 0.801787 0.316456 0.989385
Si Si6 0.632686 0.122847 0.161384
O O1 0.149184 0.973727 0.386608
O O2 0.259497 0.903687 0.690303
O O3 0.075092 0.899852 0.414621
O O4 0.189788 0.176064 0.570041
O O5 0.436969 0.068221 0.519775
O O6 0.542226 0.836044 0.743836
O O7 0.598406 0.991061 0.690951
O O8 0.594904 0.136266 0.831863
O O9 0.876660 0.799242 0.310992
O O10 0.751010 0.016821 0.105099
O O11 0.750000 0.750000 0.000000
O O12 0.750000 0.250000 0.000000
#
# Coordination Sequence:
#
# PCOD9259661 Si02
#       6
#     8   8   4   8   8   8
#     4  10  20  37  59  90 123 163 204 261 310 386
#     4  11  21  37  64  94 119 165 209 265 314 380
#     4  12  24  40  60  86 132 176 208 252 342 384
#     4   9  14  32  59  88 112 152 199 250 295 363
#     4  10  18  35  62  92 117 159 211 258 302 375
#     4  10  19  38  65  91 119 156 222 256 303 377
#
# _framework density 24.122046999999998
#
# number of rings (size 3 to 8) (size 9 to 14) (size 15 to 20)
#    0.000    1.818    7.273    1.091    0.000    0.727 
#    0.000    9.091    0.000    0.000    0.000    0.000 
#    0.000    0.000    0.000    0.000    0.000    0.182 
#
# Total GULP energy -122761.474956 kJ/mol
# GULP energy per Si atom -5580.067043 kJ/mol
# Density = 2.406714 g / cm^3
# Si number density = 24.122047 Si / 1000 Ang^3
#
#
#
# Elastic Constant Matrix: (Units=GPa)
#
#
# Indices 1 2 3 4 5 6 
#
# 1 57.1694 7.3200 20.2864 0.0000 0.4558 0.0000
# 2 7.3200 128.7497 37.9890 0.0000 2.3419 0.0000
# 3 20.2864 37.9890 105.7294 0.0000 23.1034 0.0000
# 4 0.0000 0.0000 0.0000 47.1640 0.0000 18.2327
# 5 0.4558 2.3419 23.1034 0.0000 30.3572 0.0000
# 6 0.0000 0.0000 0.0000 18.2327 0.0000 31.1977
#
#
#
# Elastic Compliance Matrix: (Units=1/GPa)
#
#
# Indices 1 2 3 4 5 6 
#
# 1 0.018995 0.000151 -0.004359 0.000000 0.003021 0.000000
# 2 0.000151 0.008797 -0.003647 0.000000 0.002095 0.000000
# 3 -0.004359 -0.003647 0.013829 0.000000 -0.010178 0.000000
# 4 0.000000 0.000000 0.000000 0.027391 0.000000 -0.016008
# 5 0.003021 0.002095 -0.010178 0.000000 0.040480 0.000000
# 6 0.000000 0.000000 0.000000 -0.016008 0.000000 0.041409
#
#
# Mechanical properties :
#
#
# Convention : Reuss Voigt Hill
#
# Bulk Modulus (GPa) = 38.59462 46.98215 42.78839
# Shear Modulus (GPa) = 28.53099 36.81398 32.67248
#
# Velocity S-wave (km/s) = 3.44288 3.91084 3.68430
# Velocity P-wave (km/s) = 5.64261 6.31760 5.98962
#
# Compressibility (1/GPa) = 0.02591034
#
# Stress axis : x y z
#
# Youngs Moduli (GPa) = 52.64490 113.68130 72.31175
#
# Poissons Ratio (x) = -0.01720 0.31521
# Poissons Ratio (y) = -0.00796 0.26375
# Poissons Ratio (z) = 0.22948 0.41465
#
# Static dielectric constant tensor:
#      x y z
#    x 2.110010 0.000000 -0.008770 
#    y 0.000000 1.977620 0.000000 
#    z -0.008770 0.000000 1.902900 
# 
# From -- ./inp_files/224468.got.cif
#   From: 2010.05.17/outbox.cif.g08.bks.cpg/sg15_113_cif.got.tgz:224468.got - 2010.06.03 18:47:42.
