data_PCOD9259945
_publ_section_title
;
Structure prediction by ZEFSAII (Michael W. Deem and Ramdas Pophale) SiO2 
 PCOD9259945
Probable space group: C 2/C
;
_chemical_formula_sum "Si O2"
_cell_formula_units_Z 52
_cell_length_a 16.514801
_cell_length_b 8.713324
_cell_length_c 26.617277
_cell_angle_alpha 90.000000
_cell_angle_beta 40.285900
_cell_angle_gamma 90.000000
_cell_volume 2476.611730
_symmetry_space_group_name_H-M "C 2/C"
_symmetry_group_IT_number 15
_symmetry_cell_setting 'monoclinic'
loop_
_space_group_symop_operation_xyz
x,y,z
-x,y,1/2-z
-x,-y,-z
x,-y,1/2+z
1/2+x,1/2+y,z
1/2-x,1/2+y,1/2-z
1/2-x,1/2-y,-z
1/2+x,1/2-y,1/2+z
loop_
_atom_site_type_symbol
_atom_site_label
_atom_site_fract_x
_atom_site_fract_y
_atom_site_fract_z
Si Si1 0.639754 0.051673 0.540181
Si Si2 0.460783 0.348148 0.967348
Si Si3 0.572875 0.486951 0.615149
Si Si4 0.687585 0.942059 0.131401
Si Si5 0.632533 0.711087 0.662395
Si Si6 0.598318 0.131198 0.969457
Si Si7 0.000000 0.197646 0.250000
O O1 0.564381 0.191152 0.551613
O O2 0.787528 0.080449 0.460290
O O3 0.621937 0.051819 0.607653
O O4 0.606902 0.897072 0.525119
O O5 0.496664 0.464621 0.905193
O O6 0.551120 0.291760 0.969187
O O7 0.331372 0.400714 0.053688
O O8 0.602199 0.659731 0.619566
O O9 0.515151 0.398786 0.690897
O O10 0.619311 0.811376 0.195537
O O11 0.668835 0.115404 0.158017
O O12 0.500000 0.681554 0.750000
O O13 0.756950 0.612204 0.617303
O O14 0.500000 0.000000 0.000000
#
# Coordination Sequence:
#
# PCOD9259945 Si02
#       7
#     8   8   8   8   8   8   4
#     4   9  17  35  57  91 113 156 208 258 291 360
#     4  10  18  36  59  87 118 156 209 255 298 364
#     4  10  19  32  60  85 114 159 211 243 300 376
#     4  11  21  34  62  88 124 153 211 259 307 370
#     4  11  23  38  59  90 127 160 201 263 321 369
#     4   9  21  37  63  85 122 160 204 252 314 364
#     4  12  18  32  60  88 112 162 204 246 306 378
#
# _framework density 20.996427000000001
#
# number of rings (size 3 to 8) (size 9 to 14) (size 15 to 20)
#    0.000    1.846    4.615    0.923    0.000    6.154 
#    0.000    0.000   13.538    0.000    0.000    0.000 
#    0.000    0.000    0.000    0.000    0.000    0.000 
#
# Total GULP energy -144737.560500 kJ/mol
# GULP energy per Si atom -5566.829250 kJ/mol
# Density = 2.094864 g / cm^3
# Si number density = 20.996427 Si / 1000 Ang^3
#
#
#
# Elastic Constant Matrix: (Units=GPa)
#
#
# Indices 1 2 3 4 5 6 
#
# 1 81.9249 29.1822 28.6352 0.0000 -4.4113 0.0002
# 2 29.1822 59.3545 19.2963 0.0001 -7.7049 0.0004
# 3 28.6352 19.2963 91.5579 0.0000 -13.5655 0.0000
# 4 0.0000 0.0001 0.0000 12.9228 0.0000 6.8747
# 5 -4.4113 -7.7049 -13.5655 0.0000 23.6311 0.0000
# 6 0.0002 0.0004 0.0000 6.8747 0.0000 47.4789
#
#
#
# Elastic Compliance Matrix: (Units=1/GPa)
#
#
# Indices 1 2 3 4 5 6 
#
# 1 0.015844 -0.006755 -0.003738 0.000000 -0.001391 0.000000
# 2 -0.006755 0.021330 -0.001682 0.000000 0.004728 0.000000
# 3 -0.003738 -0.001682 0.013401 0.000000 0.006447 0.000000
# 4 0.000000 0.000000 0.000000 0.083841 0.000000 -0.012140
# 5 -0.001391 0.004728 0.006447 0.000000 0.047300 0.000000
# 6 0.000000 0.000000 0.000000 -0.012140 0.000000 0.022820
#
#
# Mechanical properties :
#
#
# Convention : Reuss Voigt Hill
#
# Bulk Modulus (GPa) = 38.13226 43.00720 40.56973
# Shear Modulus (GPa) = 21.04140 27.18811 24.11475
#
# Velocity S-wave (km/s) = 3.16910 3.60236 3.39265
# Velocity P-wave (km/s) = 5.62064 6.15063 5.89160
#
# Compressibility (1/GPa) = 0.02622451
#
# Stress axis : x y z
#
# Youngs Moduli (GPa) = 63.11479 46.88264 74.62318
#
# Poissons Ratio (x) = 0.31671 0.27892
# Poissons Ratio (y) = 0.42636 0.12552
# Poissons Ratio (z) = 0.23590 0.07886
#
# Static dielectric constant tensor:
#      x y z
#    x 1.796820 0.000000 0.024350 
#    y 0.000000 1.850840 0.000000 
#    z 0.024350 0.000000 1.766850 
# 
# From -- ./inp_files/298319.got.cif
#   From: 2010.05.17/outbox.cif.g08.bks.cpg/sg15_150_cif.got.tgz:298319.got - 2010.06.03 18:47:42.
