data_PCOD9259865
_publ_section_title
;
Structure prediction by ZEFSAII (Michael W. Deem and Ramdas Pophale) SiO2 
 PCOD9259865
Probable space group: C 2/C
;
_chemical_formula_sum "Si O2"
_cell_formula_units_Z 64
_cell_length_a 16.116486
_cell_length_b 22.467295
_cell_length_c 17.911680
_cell_angle_alpha 90.000000
_cell_angle_beta 149.229587
_cell_angle_gamma 90.000000
_cell_volume 3318.083826
_symmetry_space_group_name_H-M "C 2/C"
_symmetry_group_IT_number 15
_symmetry_cell_setting 'monoclinic'
loop_
_space_group_symop_operation_xyz
x,y,z
-x,y,1/2-z
-x,-y,-z
x,-y,1/2+z
1/2+x,1/2+y,z
1/2-x,1/2+y,1/2-z
1/2-x,1/2-y,-z
1/2+x,1/2-y,1/2+z
loop_
_atom_site_type_symbol
_atom_site_label
_atom_site_fract_x
_atom_site_fract_y
_atom_site_fract_z
Si Si1 0.035603 0.829935 0.960012
Si Si2 0.300528 0.214941 0.375139
Si Si3 0.851737 0.959420 0.285800
Si Si4 0.932984 0.617656 0.957435
Si Si5 0.138828 0.533253 0.011856
Si Si6 0.131022 0.064075 0.083969
Si Si7 0.987490 0.580970 0.327257
Si Si8 0.317417 0.643622 0.081003
O O1 0.864109 0.801581 0.797275
O O2 0.982444 0.891238 0.957302
O O3 0.156341 0.843420 0.984874
O O4 0.133901 0.781437 0.083544
O O5 0.455704 0.173353 0.476835
O O6 0.252581 0.197992 0.423631
O O7 0.744129 0.899873 0.209930
O O8 0.042397 0.946590 0.436621
O O9 0.783011 0.996205 0.162916
O O10 0.837018 0.003518 0.345618
O O11 0.915735 0.615820 0.033727
O O12 0.037933 0.562945 0.002256
O O13 0.208282 0.586921 0.016587
O O14 0.035060 0.487554 0.882324
O O15 0.303060 0.093258 0.206438
O O16 0.000000 0.593920 0.250000
O O17 0.500000 0.630939 0.250000
#
# Coordination Sequence:
#
# PCOD9259865 Si02
#       8
#     8   8   8   8   8   8   8   8
#     4  11  22  38  57  88 119 159 200 246 297 346
#     4  10  21  36  62  80 118 159 204 242 290 358
#     4  10  19  32  61  79 115 153 196 241 291 361
#     4  10  18  39  58  82 112 161 201 234 300 364
#     4  10  18  36  58  80 118 162 194 225 298 382
#     4  11  21  36  53  87 118 148 194 257 297 345
#     4  11  21  35  56  83 114 148 195 244 303 353
#     4   9  19  35  55  83 122 160 194 237 286 348
#
# _framework density 19.288242
#
# number of rings (size 3 to 8) (size 9 to 14) (size 15 to 20)
#    0.000    1.750    3.750    2.625    1.750    3.000 
#    0.000    1.875    0.000    0.750    0.000    0.000 
#    0.000    0.000    0.000    0.000    0.000    0.000 
#
# Total GULP energy -178246.920207 kJ/mol
# GULP energy per Si atom -5570.216256 kJ/mol
# Density = 1.924434 g / cm^3
# Si number density = 19.288242 Si / 1000 Ang^3
#
#
#
# Elastic Constant Matrix: (Units=GPa)
#
#
# Indices 1 2 3 4 5 6 
#
# 1 65.3433 21.0107 13.0083 0.0003 -12.1102 0.0000
# 2 21.0107 57.0525 14.1535 -0.0001 1.4720 0.0001
# 3 13.0083 14.1535 81.0248 0.0042 -7.3130 0.0012
# 4 0.0003 -0.0001 0.0042 26.2784 0.0016 5.9315
# 5 -12.1102 1.4720 -7.3130 0.0016 15.8009 0.0001
# 6 0.0000 0.0001 0.0012 5.9315 0.0001 14.1217
#
#
#
# Elastic Compliance Matrix: (Units=1/GPa)
#
#
# Indices 1 2 3 4 5 6 
#
# 1 0.021091 -0.008082 -0.000467 -0.000001 0.016701 0.000001
# 2 -0.008082 0.021588 -0.003354 0.000001 -0.009758 0.000000
# 3 -0.000467 -0.003354 0.013565 -0.000003 0.006233 0.000000
# 4 -0.000001 0.000001 -0.000003 0.042040 -0.000006 -0.017658
# 5 0.016701 -0.009758 0.006233 -0.000006 0.079882 0.000002
# 6 0.000001 0.000000 0.000000 -0.017658 0.000002 0.078230
#
#
# Mechanical properties :
#
#
# Convention : Reuss Voigt Hill
#
# Bulk Modulus (GPa) = 30.82831 33.30729 32.06780
# Shear Modulus (GPa) = 17.18126 21.59006 19.38566
#
# Velocity S-wave (km/s) = 2.98780 3.34928 3.17369
# Velocity P-wave (km/s) = 5.28396 5.68002 5.48557
#
# Compressibility (1/GPa) = 0.03243772
#
# Stress axis : x y z
#
# Youngs Moduli (GPa) = 47.41392 46.32198 73.71735
#
# Poissons Ratio (x) = 0.37439 0.03441
# Poissons Ratio (y) = 0.38321 0.24726
# Poissons Ratio (z) = 0.02213 0.15537
#
# Static dielectric constant tensor:
#      x y z
#    x 1.682990 0.000000 -0.006570 
#    y 0.000000 1.698070 0.000000 
#    z -0.006570 0.000000 1.709860 
# 
# From -- ./inp_files/207371.got.cif
#   From: 2010.05.17/outbox.cif.g08.bks.cpg/sg15_104_cif.got.tgz:207371.got - 2010.06.03 18:47:42.
