data_PCOD9259341
_publ_section_title
;
Structure prediction by ZEFSAII (Michael W. Deem and Ramdas Pophale) SiO2 
 PCOD9259341
Probable space group: C 2/C
;
_chemical_formula_sum "Si O2"
_cell_formula_units_Z 48
_cell_length_a 15.067509
_cell_length_b 20.401438
_cell_length_c 8.508170
_cell_angle_alpha 90.000000
_cell_angle_beta 116.022078
_cell_angle_gamma 90.000000
_cell_volume 2350.265492
_symmetry_space_group_name_H-M "C 2/C"
_symmetry_group_IT_number 15
_symmetry_cell_setting 'monoclinic'
loop_
_space_group_symop_operation_xyz
x,y,z
-x,y,1/2-z
-x,-y,-z
x,-y,1/2+z
1/2+x,1/2+y,z
1/2-x,1/2+y,1/2-z
1/2-x,1/2-y,-z
1/2+x,1/2-y,1/2+z
loop_
_atom_site_type_symbol
_atom_site_label
_atom_site_fract_x
_atom_site_fract_y
_atom_site_fract_z
Si Si1 0.811080 0.593072 0.432594
Si Si2 0.203157 0.814887 0.641646
Si Si3 0.731495 0.529423 0.666517
Si Si4 0.395474 0.195225 0.072717
Si Si5 0.990663 0.573186 0.056658
Si Si6 0.115291 0.930742 0.369034
O O1 0.735333 0.651143 0.329932
O O2 0.802368 0.568228 0.603326
O O3 0.784139 0.530608 0.299022
O O4 0.920863 0.610545 0.463330
O O5 0.306860 0.804099 0.630426
O O6 0.135725 0.750639 0.576512
O O7 0.144618 0.869495 0.497652
O O8 0.651707 0.495148 0.490089
O O9 0.675261 0.571222 0.752934
O O10 0.500000 0.205182 0.250000
O O11 0.400626 0.124612 0.989595
O O12 0.000000 0.563607 0.250000
O O13 0.000000 0.500000 0.000000
O O14 0.000000 0.933265 0.250000
#
# Coordination Sequence:
#
# PCOD9259341 Si02
#       6
#     8   8   8   8   8   8
#     4  10  18  35  53  90 120 158 189 251 302 357
#     4  10  20  35  59  82 115 155 203 243 297 357
#     4   9  20  31  56  84 126 150 196 242 309 353
#     4  10  20  37  58  86 113 154 207 246 288 367
#     4  11  21  34  59  89 120 151 200 250 304 356
#     4  10  19  34  55  85 114 158 197 243 294 359
#
# _framework density 20.423226
#
# number of rings (size 3 to 8) (size 9 to 14) (size 15 to 20)
#    0.000    2.000    3.333    2.000    4.667    0.000 
#    0.000    0.000    0.000   10.000    0.000    0.000 
#    0.000    0.000    0.000    0.000    0.000    0.000 
#
# Total GULP energy -133825.507218 kJ/mol
# GULP energy per Si atom -5576.062801 kJ/mol
# Density = 2.037674 g / cm^3
# Si number density = 20.423226 Si / 1000 Ang^3
#
#
#
# Elastic Constant Matrix: (Units=GPa)
#
#
# Indices 1 2 3 4 5 6 
#
# 1 75.1887 3.0611 16.9068 0.0000 10.9128 0.0000
# 2 3.0611 102.6622 18.7053 0.0000 -4.7329 0.0000
# 3 16.9068 18.7053 52.5430 0.0000 -5.6281 0.0000
# 4 0.0000 0.0000 0.0000 13.6929 0.0000 4.2004
# 5 10.9128 -4.7329 -5.6281 0.0000 35.0006 0.0000
# 6 0.0000 0.0000 0.0000 4.2004 0.0000 26.0781
#
#
#
# Elastic Compliance Matrix: (Units=1/GPa)
#
#
# Indices 1 2 3 4 5 6 
#
# 1 0.015384 0.000313 -0.005668 0.000000 -0.005666 0.000000
# 2 0.000313 0.010446 -0.003743 0.000000 0.000713 0.000000
# 3 -0.005668 -0.003743 0.022715 0.000000 0.004914 0.000000
# 4 0.000000 0.000000 0.000000 0.076826 0.000000 -0.012375
# 5 -0.005666 0.000713 0.004914 0.000000 0.031224 0.000000
# 6 0.000000 0.000000 0.000000 -0.012375 0.000000 0.040339
#
#
# Mechanical properties :
#
#
# Convention : Reuss Voigt Hill
#
# Bulk Modulus (GPa) = 32.95132 34.19336 33.57234
# Shear Modulus (GPa) = 22.19773 27.73571 24.96672
#
# Velocity S-wave (km/s) = 3.30037 3.68917 3.50017
# Velocity P-wave (km/s) = 5.54009 5.90977 5.72791
#
# Compressibility (1/GPa) = 0.03034780
#
# Stress axis : x y z
#
# Youngs Moduli (GPa) = 65.00240 95.72826 44.02402
#
# Poissons Ratio (x) = -0.02995 0.24955
# Poissons Ratio (y) = -0.02034 0.16479
# Poissons Ratio (z) = 0.36846 0.35833
#
# Static dielectric constant tensor:
#      x y z
#    x 1.736570 0.000000 0.041190 
#    y 0.000000 1.774190 0.000000 
#    z 0.041190 0.000000 1.754010 
# 
# From -- ./inp_files/40939.got.cif
#   From: 2010.05.17/outbox.cif.g08.bks.cpg/sg15_21_cif.got.tgz:40939.got - 2010.06.03 18:47:42.
