data_PCOD9259047
_publ_section_title
;
Structure prediction by ZEFSAII (Michael W. Deem and Ramdas Pophale) SiO2 
 PCOD9259047
Probable space group: C 2/C
;
_chemical_formula_sum "Si O2"
_cell_formula_units_Z 60
_cell_length_a 11.736255
_cell_length_b 15.080918
_cell_length_c 16.409854
_cell_angle_alpha 90.000000
_cell_angle_beta 91.048143
_cell_angle_gamma 90.000000
_cell_volume 2903.951505
_symmetry_space_group_name_H-M "C 2/C"
_symmetry_group_IT_number 15
_symmetry_cell_setting 'monoclinic'
loop_
_space_group_symop_operation_xyz
x,y,z
-x,y,1/2-z
-x,-y,-z
x,-y,1/2+z
1/2+x,1/2+y,z
1/2-x,1/2+y,1/2-z
1/2-x,1/2-y,-z
1/2+x,1/2-y,1/2+z
loop_
_atom_site_type_symbol
_atom_site_label
_atom_site_fract_x
_atom_site_fract_y
_atom_site_fract_z
Si Si1 0.246811 0.520718 0.713015
Si Si2 0.302435 0.021457 0.976039
Si Si3 0.987600 0.775994 0.625430
Si Si4 0.619062 0.309980 0.290244
Si Si5 0.353209 0.681161 0.515822
Si Si6 0.040111 0.574890 0.915171
Si Si7 0.000000 0.536593 0.750000
Si Si8 0.312110 0.328520 0.747222
O O1 0.235712 0.500501 0.616417
O O2 0.345436 0.590004 0.732645
O O3 0.128467 0.569852 0.734218
O O4 0.264978 0.427651 0.757211
O O5 0.204615 0.086507 0.006584
O O6 0.425579 0.071315 0.968139
O O7 0.344065 0.941986 0.034119
O O8 0.036326 0.800451 0.537516
O O9 0.091118 0.802924 0.686234
O O10 0.964240 0.670735 0.626919
O O11 0.875503 0.821553 0.660681
O O12 0.500000 0.285556 0.250000
O O13 0.618763 0.311434 0.388380
O O14 0.712452 0.241578 0.258765
O O15 0.250000 0.750000 0.500000
O O16 0.024543 0.501664 0.842698
#
# Coordination Sequence:
#
# PCOD9259047 Si02
#       8
#     8   8   8   8   8   8   4   8
#     4  10  23  43  63  96 134 171 221 275 331 405
#     4   9  20  36  59  90 128 163 211 276 326 386
#     4  11  22  39  66  93 128 177 227 270 331 403
#     4  11  25  44  69 102 140 175 222 283 341 397
#     4  11  20  41  67  95 131 180 226 267 334 412
#     4  10  18  34  58  91 122 159 211 275 325 381
#     4  10  20  34  64  92 122 162 220 272 330 386
#     4  11  24  42  66  96 135 179 227 273 341 401
#
# _framework density 20.661501999999999
#
# number of rings (size 3 to 8) (size 9 to 14) (size 15 to 20)
#    0.000    1.600    2.667    3.200    4.667    1.067 
#    0.000    6.667    0.000    0.000    0.000    0.000 
#    0.000    0.000    0.000    0.000    0.000    0.000 
#
# Total GULP energy -167099.009783 kJ/mol
# GULP energy per Si atom -5569.966993 kJ/mol
# Density = 2.061448 g / cm^3
# Si number density = 20.661502 Si / 1000 Ang^3
#
#
#
# Elastic Constant Matrix: (Units=GPa)
#
#
# Indices 1 2 3 4 5 6 
#
# 1 105.9958 38.4673 42.4031 0.0000 -8.9751 0.0000
# 2 38.4673 97.6431 28.2057 0.0000 1.9308 0.0000
# 3 42.4031 28.2057 71.6305 0.0000 -14.7881 0.0000
# 4 0.0000 0.0000 0.0000 22.7279 0.0000 -3.9185
# 5 -8.9751 1.9308 -14.7881 0.0000 32.1999 0.0000
# 6 0.0000 0.0000 0.0000 -3.9185 0.0000 20.2380
#
#
#
# Elastic Compliance Matrix: (Units=1/GPa)
#
#
# Indices 1 2 3 4 5 6 
#
# 1 0.013289 -0.003434 -0.006305 0.000000 0.001014 0.000000
# 2 -0.003434 0.012725 -0.003682 0.000000 -0.003411 0.000000
# 3 -0.006305 -0.003682 0.020797 0.000000 0.008015 0.000000
# 4 0.000000 0.000000 0.000000 0.045518 0.000000 0.008813
# 5 0.001014 -0.003411 0.008015 0.000000 0.035224 0.000000
# 6 0.000000 0.000000 0.000000 0.008813 0.000000 0.051118
#
#
# Mechanical properties :
#
#
# Convention : Reuss Voigt Hill
#
# Bulk Modulus (GPa) = 50.07715 54.82463 52.45089
# Shear Modulus (GPa) = 23.56589 26.11272 24.83930
#
# Velocity S-wave (km/s) = 3.38090 3.55890 3.47104
# Velocity P-wave (km/s) = 6.28730 6.59394 6.44244
#
# Compressibility (1/GPa) = 0.01996919
#
# Stress axis : x y z
#
# Youngs Moduli (GPa) = 75.25185 78.58320 48.08272
#
# Poissons Ratio (x) = 0.26985 0.30316
# Poissons Ratio (y) = 0.25841 0.17705
# Poissons Ratio (z) = 0.47446 0.28937
#
# Static dielectric constant tensor:
#      x y z
#    x 1.714540 0.000000 -0.018870 
#    y 0.000000 1.786420 0.000000 
#    z -0.018870 0.000000 1.806950 
# 
# From -- ./inp_files/197821.got.cif
#   From: 2010.05.17/outbox.cif.g08.bks.cpg/sg15_99_cif.got.tgz:197821.got - 2010.06.03 18:47:42.
