data_PCOD9259980
_publ_section_title
;
Structure prediction by ZEFSAII (Michael W. Deem and Ramdas Pophale) SiO2 
 PCOD9259980
Probable space group: C 2/C
;
_chemical_formula_sum "Si O2"
_cell_formula_units_Z 52
_cell_length_a 9.654286
_cell_length_b 21.985952
_cell_length_c 12.447140
_cell_angle_alpha 90.000000
_cell_angle_beta 55.469284
_cell_angle_gamma 90.000000
_cell_volume 2176.549850
_symmetry_space_group_name_H-M "C 2/C"
_symmetry_group_IT_number 15
_symmetry_cell_setting 'monoclinic'
loop_
_space_group_symop_operation_xyz
x,y,z
-x,y,1/2-z
-x,-y,-z
x,-y,1/2+z
1/2+x,1/2+y,z
1/2-x,1/2+y,1/2-z
1/2-x,1/2-y,-z
1/2+x,1/2-y,1/2+z
loop_
_atom_site_type_symbol
_atom_site_label
_atom_site_fract_x
_atom_site_fract_y
_atom_site_fract_z
Si Si1 0.500000 0.050268 0.250000
Si Si2 0.005230 0.776291 0.372058
Si Si3 0.677330 0.844552 0.550027
Si Si4 0.209212 0.535643 0.356361
Si Si5 0.457441 0.542342 0.418383
Si Si6 0.957886 0.620809 0.603993
Si Si7 0.742201 0.149555 0.610384
O O1 0.364929 0.097045 0.361080
O O2 0.588788 0.015368 0.309843
O O3 0.846676 0.808236 0.500897
O O4 0.974624 0.704294 0.380408
O O5 0.000000 0.796182 0.250000
O O6 0.167596 0.796716 0.365906
O O7 0.676647 0.861360 0.425521
O O8 0.321167 0.505786 0.403084
O O9 0.371934 0.559688 0.219422
O O10 0.078907 0.575773 0.483153
O O11 0.500000 0.500000 0.500000
O O12 0.370343 0.604447 0.495087
O O13 0.846928 0.608726 0.758237
O O14 0.095614 0.667963 0.591692
#
# Coordination Sequence:
#
# PCOD9259980 Si02
#       7
#     4   8   8   8   8   8   8
#     4  10  18  36  60  84 114 150 192 242 294 352
#     4  11  20  33  52  82 120 156 203 238 288 352
#     4  10  20  33  54  83 118 158 196 243 284 346
#     4   9  20  39  61  85 112 148 191 239 300 360
#     4  10  21  42  62  84 116 152 197 248 305 371
#     4   9  19  37  60  84 116 152 198 245 301 348
#     4  10  20  37  60  85 115 155 196 251 298 354
#
# _framework density 23.891023000000001
#
# number of rings (size 3 to 8) (size 9 to 14) (size 15 to 20)
#    0.000    2.154    2.308    0.923    0.000    0.615 
#    2.769    4.615    0.000    1.846    0.000    0.000 
#    0.000    0.000    0.000    0.000    0.000    0.000 
#
# Total GULP energy -144760.173736 kJ/mol
# GULP energy per Si atom -5567.698990 kJ/mol
# Density = 2.383665 g / cm^3
# Si number density = 23.891023 Si / 1000 Ang^3
#
#
#
# Elastic Constant Matrix: (Units=GPa)
#
#
# Indices 1 2 3 4 5 6 
#
# 1 128.7297 14.2663 11.7454 0.0000 29.9955 0.0000
# 2 14.2663 38.3446 11.2815 0.0000 -6.5381 0.0000
# 3 11.7454 11.2815 117.2557 0.0000 -8.6607 0.0000
# 4 0.0000 0.0000 0.0000 5.1454 0.0000 -13.3539
# 5 29.9955 -6.5381 -8.6607 0.0000 49.7326 0.0000
# 6 0.0000 0.0000 0.0000 -13.3539 0.0000 15.3999
#
#
#
# Elastic Compliance Matrix: (Units=1/GPa)
#
#
# Indices 1 2 3 4 5 6 
#
# 1 0.009949 -0.004546 -0.001060 0.000000 -0.006783 0.000000
# 2 -0.004546 0.029403 -0.001910 0.000000 0.006275 0.000000
# 3 -0.001060 -0.001910 0.008962 0.000000 0.001949 0.000000
# 4 0.000000 0.000000 0.000000 -0.155416 0.000000 -0.134767
# 5 -0.006783 0.006275 0.001949 0.000000 0.025363 0.000000
# 6 0.000000 0.000000 0.000000 -0.134767 0.000000 -0.051927
#
#
# Mechanical properties :
#
#
# Convention : Reuss Voigt Hill
#
# Bulk Modulus (GPa) = 30.04709 39.87960 34.96334
# Shear Modulus (GPa) = -46.49498 30.52470 -7.98514
#
# Velocity S-wave (km/s) = -4.41628 3.57832 -1.83018
# Velocity P-wave (km/s) = 3.66069 5.81387 3.19377
#
# Compressibility (1/GPa) = 0.03328110
#
# Stress axis : x y z
#
# Youngs Moduli (GPa) = 100.50922 34.01052 111.57845
#
# Poissons Ratio (x) = 0.15462 0.11830
# Poissons Ratio (y) = 0.45695 0.21312
# Poissons Ratio (z) = 0.10656 0.06496
#
# Static dielectric constant tensor:
#      x y z
#    x 1.974950 0.000000 0.016810 
#    y 0.000000 1.925150 0.000000 
#    z 0.016810 0.000000 1.938570 
# 
# From -- ./inp_files/81174.got.cif
#   From: 2010.05.17/outbox.cif.g08.bks.cpg/sg15_41_cif.got.tgz:81174.got - 2010.06.03 18:47:42.
