data_PCOD9259645
_publ_section_title
;
Structure prediction by ZEFSAII (Michael W. Deem and Ramdas Pophale) SiO2 
 PCOD9259645
Probable space group: C 2/C
;
_chemical_formula_sum "Si O2"
_cell_formula_units_Z 60
_cell_length_a 14.631652
_cell_length_b 19.702138
_cell_length_c 20.614736
_cell_angle_alpha 90.000000
_cell_angle_beta 148.064970
_cell_angle_gamma 90.000000
_cell_volume 3143.439473
_symmetry_space_group_name_H-M "C 2/C"
_symmetry_group_IT_number 15
_symmetry_cell_setting 'monoclinic'
loop_
_space_group_symop_operation_xyz
x,y,z
-x,y,1/2-z
-x,-y,-z
x,-y,1/2+z
1/2+x,1/2+y,z
1/2-x,1/2+y,1/2-z
1/2-x,1/2-y,-z
1/2+x,1/2-y,1/2+z
loop_
_atom_site_type_symbol
_atom_site_label
_atom_site_fract_x
_atom_site_fract_y
_atom_site_fract_z
Si Si1 0.805400 0.508873 0.457333
Si Si2 0.330785 0.200759 0.263624
Si Si3 0.000000 0.214026 0.750000
Si Si4 0.911222 0.899993 0.112027
Si Si5 0.725646 0.153719 0.721822
Si Si6 0.584257 0.050701 0.733893
Si Si7 0.044228 0.609126 0.043023
Si Si8 0.702342 0.908998 0.853094
O O1 0.635923 0.471396 0.382745
O O2 0.916787 0.449345 0.491514
O O3 0.927522 0.531403 0.590856
O O4 0.801020 0.569500 0.401888
O O5 0.442586 0.238623 0.274746
O O6 0.250020 0.266701 0.248508
O O7 0.411669 0.155760 0.369336
O O8 0.232125 0.145807 0.159625
O O9 0.134330 0.161605 0.865484
O O10 0.108054 0.881872 0.212033
O O11 0.805240 0.900233 0.981577
O O12 0.690430 0.109401 0.763671
O O13 0.563647 0.148423 0.576148
O O14 0.500000 0.073139 0.750000
O O15 0.698305 0.983840 0.818745
O O16 0.500000 0.898686 0.750000
#
# Coordination Sequence:
#
# PCOD9259645 Si02
#       8
#     8   8   4   8   8   8   8   8
#     4  10  18  35  62  86 114 157 200 248 284 365
#     4  11  21  37  56  88 120 164 195 242 298 368
#     4  10  24  34  54  88 130 160 178 252 310 366
#     4  11  21  38  55  91 123 152 191 246 314 350
#     4  10  25  37  59  90 124 157 193 255 302 359
#     4  10  19  40  62  90 111 161 206 242 300 352
#     4  10  21  37  60  84 119 162 204 234 299 361
#     4  11  20  34  62  87 117 153 200 242 297 374
#
# _framework density 19.087372999999999
#
# number of rings (size 3 to 8) (size 9 to 14) (size 15 to 20)
#    0.000    1.600    4.667    1.600    3.733    1.067 
#    0.000    0.000    0.000    4.800    0.000    0.000 
#    0.000    0.000    0.000    0.000    0.000    0.000 
#
# Total GULP energy -167110.327585 kJ/mol
# GULP energy per Si atom -5570.344253 kJ/mol
# Density = 1.904393 g / cm^3
# Si number density = 19.087373 Si / 1000 Ang^3
#
#
#
# Elastic Constant Matrix: (Units=GPa)
#
#
# Indices 1 2 3 4 5 6 
#
# 1 41.6613 58.1230 20.2209 0.0024 -10.0841 0.0010
# 2 58.1230 137.2083 53.9354 -0.0006 -18.7946 -0.0004
# 3 20.2209 53.9354 100.5409 -0.0005 -27.9153 -0.0005
# 4 0.0024 -0.0006 -0.0005 -60.3825 -0.0022 -66.3681
# 5 -10.0841 -18.7946 -27.9153 -0.0022 23.3200 -0.0008
# 6 0.0010 -0.0004 -0.0005 -66.3681 -0.0008 16.4111
#
#
#
# Elastic Compliance Matrix: (Units=1/GPa)
#
#
# Indices 1 2 3 4 5 6 
#
# 1 0.060812 -0.026163 0.004870 0.000001 0.011040 0.000001
# 2 -0.026163 0.020572 -0.006458 -0.000001 -0.002464 0.000000
# 3 0.004870 -0.006458 0.017331 0.000000 0.017647 0.000000
# 4 0.000001 -0.000001 0.000000 -0.003042 -0.000001 -0.012300
# 5 0.011040 -0.002464 0.017647 -0.000001 0.066794 -0.000001
# 6 0.000001 0.000000 0.000000 -0.012300 -0.000001 0.011191
#
#
# Mechanical properties :
#
#
# Convention : Reuss Voigt Hill
#
# Bulk Modulus (GPa) = 23.14121 60.44100 41.79111
# Shear Modulus (GPa) = 20.52833 5.67847 13.10340
#
# Velocity S-wave (km/s) = 3.28303 1.72669 2.62295
# Velocity P-wave (km/s) = 5.14987 5.97574 5.57811
#
# Compressibility (1/GPa) = 0.04321295
#
# Stress axis : x y z
#
# Youngs Moduli (GPa) = 16.44405 48.60933 57.69981
#
# Poissons Ratio (x) = 1.27175 -0.28099
# Poissons Ratio (y) = 0.43022 0.37264
# Poissons Ratio (z) = -0.08008 0.31393
#
# Static dielectric constant tensor:
#      x y z
#    x 1.710950 0.000000 0.003080 
#    y 0.000000 1.700190 0.000000 
#    z 0.003080 0.000000 1.691350 
# 
# From -- ./inp_files/206726.got.cif
#   From: 2010.05.17/outbox.cif.g08.bks.cpg/sg15_104_cif.got.tgz:206726.got - 2010.06.03 18:47:42.
