data_PCOD9259390
_publ_section_title
;
Structure prediction by ZEFSAII (Michael W. Deem and Ramdas Pophale) SiO2 
 PCOD9259390
Probable space group: C 2/C
;
_chemical_formula_sum "Si O2"
_cell_formula_units_Z 48
_cell_length_a 11.742908
_cell_length_b 18.727935
_cell_length_c 23.051815
_cell_angle_alpha 90.000000
_cell_angle_beta 29.187457
_cell_angle_gamma 90.000000
_cell_volume 2472.267309
_symmetry_space_group_name_H-M "C 2/C"
_symmetry_group_IT_number 15
_symmetry_cell_setting 'monoclinic'
loop_
_space_group_symop_operation_xyz
x,y,z
-x,y,1/2-z
-x,-y,-z
x,-y,1/2+z
1/2+x,1/2+y,z
1/2-x,1/2+y,1/2-z
1/2-x,1/2-y,-z
1/2+x,1/2-y,1/2+z
loop_
_atom_site_type_symbol
_atom_site_label
_atom_site_fract_x
_atom_site_fract_y
_atom_site_fract_z
Si Si1 0.269161 0.020126 0.817801
Si Si2 0.174002 0.350363 0.278806
Si Si3 0.000000 0.252148 0.250000
Si Si4 0.125213 0.779955 0.111707
Si Si5 0.548735 0.224148 0.514149
Si Si6 0.020414 0.889584 0.960221
Si Si7 0.500000 0.829567 0.750000
O O1 0.500000 0.997957 0.750000
O O2 0.355717 0.067491 0.725772
O O3 0.096903 0.953229 0.882364
O O4 0.134684 0.073813 0.921650
O O5 0.446589 0.342092 0.175134
O O6 0.119224 0.301643 0.246610
O O7 0.009827 0.321521 0.403103
O O8 0.792540 0.208749 0.373400
O O9 0.331435 0.790349 0.066734
O O10 0.949048 0.721439 0.218105
O O11 0.250000 0.750000 0.000000
O O12 0.565713 0.310567 0.519284
O O13 0.274590 0.869988 0.871931
#
# Coordination Sequence:
#
# PCOD9259390 Si02
#       7
#     8   8   4   8   8   8   4
#     4  11  21  34  54  82 120 149 188 238 299 348
#     4  12  20  35  55  86 120 153 194 240 293 352
#     4  12  22  35  54  88 125 154 184 238 300 349
#     4  11  19  34  57  82 115 145 194 237 284 343
#     4  11  22  37  59  88 118 154 198 241 295 352
#     4  10  19  35  55  79 115 149 187 244 293 340
#     4  10  18  35  56  84 105 142 190 238 286 335
#
# _framework density 19.415375999999998
#
# number of rings (size 3 to 8) (size 9 to 14) (size 15 to 20)
#    0.000    1.000    8.333    1.500    0.000    0.000 
#    0.000    0.000    0.000    0.000    4.333    2.333 
#    0.000    0.167    0.000    0.000    0.000    0.000 
#
# Total GULP energy -133623.346710 kJ/mol
# GULP energy per Si atom -5567.639446 kJ/mol
# Density = 1.937119 g / cm^3
# Si number density = 19.415376 Si / 1000 Ang^3
#
#
#
# Elastic Constant Matrix: (Units=GPa)
#
#
# Indices 1 2 3 4 5 6 
#
# 1 81.5141 16.3313 30.0660 -0.0081 4.8029 0.0030
# 2 16.3313 68.0358 25.9592 -0.0112 9.9903 0.0080
# 3 30.0660 25.9592 127.5490 -0.0409 6.4159 0.0098
# 4 -0.0081 -0.0112 -0.0409 28.6975 0.0112 2.9357
# 5 4.8029 9.9903 6.4159 0.0112 40.5268 0.0009
# 6 0.0030 0.0080 0.0098 2.9357 0.0009 9.8472
#
#
#
# Elastic Compliance Matrix: (Units=1/GPa)
#
#
# Indices 1 2 3 4 5 6 
#
# 1 0.013760 -0.002148 -0.002773 -0.000001 -0.000662 0.000001
# 2 -0.002148 0.016762 -0.002732 0.000005 -0.003445 -0.000011
# 3 -0.002773 -0.002732 0.009072 0.000012 -0.000434 -0.000010
# 4 -0.000001 0.000005 0.000012 0.035942 -0.000013 -0.010715
# 5 -0.000662 -0.003445 -0.000434 -0.000013 0.025671 0.000005
# 6 0.000001 -0.000011 -0.000010 -0.010715 0.000005 0.104746
#
#
# Mechanical properties :
#
#
# Convention : Reuss Voigt Hill
#
# Bulk Modulus (GPa) = 41.17217 46.86799 44.02008
# Shear Modulus (GPa) = 21.80026 29.46379 25.63203
#
# Velocity S-wave (km/s) = 3.35451 3.89980 3.63739
# Velocity P-wave (km/s) = 6.02126 6.66858 6.35317
#
# Compressibility (1/GPa) = 0.02428825
#
# Stress axis : x y z
#
# Youngs Moduli (GPa) = 72.67468 59.65917 110.23356
#
# Poissons Ratio (x) = 0.12812 0.30569
# Poissons Ratio (y) = 0.15608 0.30115
# Poissons Ratio (z) = 0.20154 0.16298
#
# Static dielectric constant tensor:
#      x y z
#    x 1.700130 -0.000010 0.008410 
#    y -0.000010 1.765820 -0.000110 
#    z 0.008410 -0.000110 1.997760 
# 
# From -- ./inp_files/88536.got.cif
#   From: 2010.05.17/outbox.cif.g08.bks.cpg/sg15_45_cif.got.tgz:88536.got - 2010.06.03 18:47:42.
