data_PCOD9259910
_publ_section_title
;
Structure prediction by ZEFSAII (Michael W. Deem and Ramdas Pophale) SiO2 
 PCOD9259910
Probable space group: C 2/C
;
_chemical_formula_sum "Si O2"
_cell_formula_units_Z 40
_cell_length_a 17.913893
_cell_length_b 12.617207
_cell_length_c 9.319435
_cell_angle_alpha 90.000000
_cell_angle_beta 43.638392
_cell_angle_gamma 90.000000
_cell_volume 1453.642896
_symmetry_space_group_name_H-M "C 2/C"
_symmetry_group_IT_number 15
_symmetry_cell_setting 'monoclinic'
loop_
_space_group_symop_operation_xyz
x,y,z
-x,y,1/2-z
-x,-y,-z
x,-y,1/2+z
1/2+x,1/2+y,z
1/2-x,1/2+y,1/2-z
1/2-x,1/2-y,-z
1/2+x,1/2-y,1/2+z
loop_
_atom_site_type_symbol
_atom_site_label
_atom_site_fract_x
_atom_site_fract_y
_atom_site_fract_z
Si Si1 0.665574 0.353883 0.477128
Si Si2 0.574352 0.032856 0.531766
Si Si3 0.299797 0.411858 0.590085
Si Si4 0.543795 0.680488 0.413756
Si Si5 0.364044 0.805911 0.996254
O O1 0.688807 0.474191 0.497170
O O2 0.565937 0.353449 0.505556
O O3 0.624453 0.290695 0.671675
O O4 0.767740 0.314667 0.247279
O O5 0.500000 0.093143 0.750000
O O6 0.616643 0.928796 0.563855
O O7 0.500000 0.000000 0.500000
O O8 0.680486 0.091153 0.325117
O O9 0.391928 0.407193 0.584462
O O10 0.330166 0.303793 0.463179
O O11 0.532401 0.772201 0.549336
#
# Coordination Sequence:
#
# PCOD9259910 Si02
#       5
#     8   8   8   8   8
#     4  10  18  36  58  90 120 164 218 272 315 390
#     4  11  26  45  68  98 135 174 216 272 332 391
#     4   9  22  38  60  87 129 166 214 265 324 385
#     4   9  20  34  61  86 120 164 217 263 323 377
#     4   9  22  39  59  93 125 166 219 260 330 390
#
# _framework density 27.517073
#
# number of rings (size 3 to 8) (size 9 to 14) (size 15 to 20)
#    1.200    1.200    0.000    1.200    8.400    0.000 
#    3.600    1.000    0.000    0.000    0.000    0.000 
#    0.000    0.000    0.000    0.000    0.000    0.000 
#
# Total GULP energy -111718.240930 kJ/mol
# GULP energy per Si atom -5585.912047 kJ/mol
# Density = 2.745444 g / cm^3
# Si number density = 27.517073 Si / 1000 Ang^3
#
#
#
# Elastic Constant Matrix: (Units=GPa)
#
#
# Indices 1 2 3 4 5 6 
#
# 1 101.7705 1.3520 14.5837 0.0000 -9.9989 0.0000
# 2 1.3520 120.0747 11.3533 0.0000 -6.7994 0.0000
# 3 14.5837 11.3533 87.8219 0.0000 -17.4856 0.0000
# 4 0.0000 0.0000 0.0000 28.9566 0.0000 -15.3490
# 5 -9.9989 -6.7994 -17.4856 0.0000 45.6643 0.0000
# 6 0.0000 0.0000 0.0000 -15.3490 0.0000 28.9909
#
#
#
# Elastic Compliance Matrix: (Units=1/GPa)
#
#
# Indices 1 2 3 4 5 6 
#
# 1 0.010189 0.000112 -0.001363 0.000000 0.001726 0.000000
# 2 0.000112 0.008467 -0.000928 0.000000 0.000930 0.000000
# 3 -0.001363 -0.000928 0.012607 0.000000 0.004391 0.000000
# 4 0.000000 0.000000 0.000000 0.048007 0.000000 0.025417
# 5 0.001726 0.000930 0.004391 0.000000 0.024097 0.000000
# 6 0.000000 0.000000 0.000000 0.025417 0.000000 0.047950
#
#
# Mechanical properties :
#
#
# Convention : Reuss Voigt Hill
#
# Bulk Modulus (GPa) = 37.16670 40.47168 38.81919
# Shear Modulus (GPa) = 30.36834 39.54758 34.95796
#
# Velocity S-wave (km/s) = 3.32568 3.79516 3.56815
# Velocity P-wave (km/s) = 5.31817 5.82615 5.57795
#
# Compressibility (1/GPa) = 0.02690581
#
# Stress axis : x y z
#
# Youngs Moduli (GPa) = 98.14101 118.10151 79.31960
#
# Poissons Ratio (x) = -0.01321 0.10810
# Poissons Ratio (y) = -0.01098 0.07361
# Poissons Ratio (z) = 0.13375 0.10960
#
# Static dielectric constant tensor:
#      x y z
#    x 2.114970 0.000000 -0.003220 
#    y 0.000000 2.143970 0.000000 
#    z -0.003220 0.000000 2.081120 
# 
# From -- ./inp_files/112238.got.cif
#   From: 2010.05.17/outbox.cif.g08.bks.cpg/sg15_57_cif.got.tgz:112238.got - 2010.06.03 18:47:42.
