data_PCOD9259721
_publ_section_title
;
Structure prediction by ZEFSAII (Michael W. Deem and Ramdas Pophale) SiO2 
 PCOD9259721
Probable space group: C 2/C
;
_chemical_formula_sum "Si O2"
_cell_formula_units_Z 64
_cell_length_a 24.761272
_cell_length_b 19.329495
_cell_length_c 10.006521
_cell_angle_alpha 90.000000
_cell_angle_beta 129.549480
_cell_angle_gamma 90.000000
_cell_volume 3692.947931
_symmetry_space_group_name_H-M "C 2/C"
_symmetry_group_IT_number 15
_symmetry_cell_setting 'monoclinic'
loop_
_space_group_symop_operation_xyz
x,y,z
-x,y,1/2-z
-x,-y,-z
x,-y,1/2+z
1/2+x,1/2+y,z
1/2-x,1/2+y,1/2-z
1/2-x,1/2-y,-z
1/2+x,1/2-y,1/2+z
loop_
_atom_site_type_symbol
_atom_site_label
_atom_site_fract_x
_atom_site_fract_y
_atom_site_fract_z
Si Si1 0.551712 0.770753 0.948597
Si Si2 0.680828 0.302100 0.542092
Si Si3 0.395557 0.074797 0.018381
Si Si4 0.173410 0.775211 0.216815
Si Si5 0.898410 0.450676 0.828883
Si Si6 0.460673 0.189688 0.549417
Si Si7 0.227525 0.925681 0.255081
Si Si8 0.270325 0.547288 0.437088
O O1 0.500000 0.746325 0.750000
O O2 0.571207 0.850347 0.947542
O O3 0.621549 0.725603 0.047029
O O4 0.512287 0.772647 0.026588
O O5 0.755341 0.267552 0.691504
O O6 0.662172 0.278345 0.360469
O O7 0.691626 0.384136 0.555834
O O8 0.412211 0.045994 0.192268
O O9 0.311474 0.085776 0.877924
O O10 0.417247 0.019804 0.939824
O O11 0.188003 0.852756 0.189762
O O12 0.108417 0.736932 0.047877
O O13 0.813858 0.442240 0.711710
O O14 0.935700 0.383307 0.947612
O O15 0.500000 0.178631 0.750000
O O16 0.215724 0.957902 0.383210
O O17 0.208396 0.979641 0.110511
#
# Coordination Sequence:
#
# PCOD9259721 Si02
#       8
#     8   8   8   8   8   8   8   8
#     4  12  22  38  58  86 114 148 200 238 276 342
#     4  10  18  35  66  86 105 148 203 240 268 335
#     4  10  20  34  56  84 114 152 191 230 276 335
#     4  10  18  37  63  84 110 152 195 234 285 332
#     4  10  20  36  55  80 116 156 192 226 274 340
#     4  12  26  40  54  83 123 154 186 237 297 337
#     4   9  18  34  59  86 113 143 187 239 283 331
#     4   9  18  34  59  86 112 144 188 238 283 329
#
# _framework density 17.330328000000002
#
# number of rings (size 3 to 8) (size 9 to 14) (size 15 to 20)
#    0.000    1.750    5.000    0.000    1.750    1.000 
#    2.250    0.625    0.000    1.500    0.000    0.000 
#    0.000    0.000    0.000    0.000    0.000    0.000 
#
# Total GULP energy -178716.993015 kJ/mol
# GULP energy per Si atom -5584.906032 kJ/mol
# Density = 1.729088 g / cm^3
# Si number density = 17.330328 Si / 1000 Ang^3
#
#
#
# Elastic Constant Matrix: (Units=GPa)
#
#
# Indices 1 2 3 4 5 6 
#
# 1 60.0062 14.5960 5.4248 0.0000 3.6951 0.0000
# 2 14.5960 49.0339 11.0532 0.0000 4.0640 0.0000
# 3 5.4248 11.0532 47.7124 0.0000 0.9311 0.0000
# 4 0.0000 0.0000 0.0000 18.9467 0.0000 -1.8284
# 5 3.6951 4.0640 0.9311 0.0000 16.8107 0.0000
# 6 0.0000 0.0000 0.0000 -1.8284 0.0000 28.6892
#
#
#
# Elastic Compliance Matrix: (Units=1/GPa)
#
#
# Indices 1 2 3 4 5 6 
#
# 1 0.018121 -0.004975 -0.000854 0.000000 -0.002733 0.000000
# 2 -0.004975 0.023300 -0.004749 0.000000 -0.004276 0.000000
# 3 -0.000854 -0.004749 0.022154 0.000000 0.000109 0.000000
# 4 0.000000 0.000000 0.000000 0.053106 0.000000 0.003385
# 5 -0.002733 -0.004276 0.000109 0.000000 0.061115 0.000000
# 6 0.000000 0.000000 0.000000 0.003385 0.000000 0.035072
#
#
# Mechanical properties :
#
#
# Convention : Reuss Voigt Hill
#
# Bulk Modulus (GPa) = 23.57462 24.32229 23.94845
# Shear Modulus (GPa) = 20.14808 21.26787 20.70797
#
# Velocity S-wave (km/s) = 3.41338 3.50695 3.46048
# Velocity P-wave (km/s) = 5.40069 5.51935 5.46035
#
# Compressibility (1/GPa) = 0.04241851
#
# Stress axis : x y z
#
# Youngs Moduli (GPa) = 55.18587 42.91886 45.13855
#
# Poissons Ratio (x) = 0.21351 0.03857
# Poissons Ratio (y) = 0.27454 0.21435
# Poissons Ratio (z) = 0.04715 0.20381
#
# Static dielectric constant tensor:
#      x y z
#    x 1.596950 0.000000 0.008400 
#    y 0.000000 1.561410 0.000000 
#    z 0.008400 0.000000 1.579640 
# 
# From -- ./inp_files/63424.got.cif
#   From: 2010.05.17/outbox.cif.g08.bks.cpg/sg15_32_cif.got.tgz:63424.got - 2010.06.03 18:47:42.
