data_PCOD9259641
_publ_section_title
;
Structure prediction by ZEFSAII (Michael W. Deem and Ramdas Pophale) SiO2 
 PCOD9259641
Probable space group: C 2/C
;
_chemical_formula_sum "Si O2"
_cell_formula_units_Z 56
_cell_length_a 16.703079
_cell_length_b 16.528889
_cell_length_c 21.881307
_cell_angle_alpha 90.000000
_cell_angle_beta 25.942373
_cell_angle_gamma 90.000000
_cell_volume 2642.765882
_symmetry_space_group_name_H-M "C 2/C"
_symmetry_group_IT_number 15
_symmetry_cell_setting 'monoclinic'
loop_
_space_group_symop_operation_xyz
x,y,z
-x,y,1/2-z
-x,-y,-z
x,-y,1/2+z
1/2+x,1/2+y,z
1/2-x,1/2+y,1/2-z
1/2-x,1/2-y,-z
1/2+x,1/2-y,1/2+z
loop_
_atom_site_type_symbol
_atom_site_label
_atom_site_fract_x
_atom_site_fract_y
_atom_site_fract_z
Si Si1 0.641889 0.884733 0.205140
Si Si2 0.854647 0.220124 0.052682
Si Si3 0.101715 0.063405 0.767506
Si Si4 0.271706 0.811490 0.231946
Si Si5 0.757096 0.872250 0.446896
Si Si6 0.634394 0.925504 0.743623
Si Si7 0.526570 0.556173 0.419846
O O1 0.500000 0.861883 0.250000
O O2 0.618698 0.830751 0.281771
O O3 0.616412 0.981275 0.235889
O O4 0.858137 0.881915 0.038983
O O5 0.841990 0.252510 0.131079
O O6 0.758606 0.286876 0.076406
O O7 0.750069 0.134493 0.120668
O O8 0.066647 0.214588 0.890611
O O9 0.242425 0.102785 0.718126
O O10 0.202403 0.059432 0.633215
O O11 0.933028 0.123816 0.869130
O O12 0.016031 0.988867 0.862439
O O13 0.566024 0.890732 0.609227
O O14 0.761866 0.919625 0.716723
O O15 0.500000 0.500000 0.500000
#
# Coordination Sequence:
#
# PCOD9259641 Si02
#       7
#     8   8   8   8   8   8   8
#     4  11  22  39  65  91 111 159 212 255 296 356
#     4  11  22  39  62  91 126 163 198 242 316 367
#     4  10  20  40  56  84 131 159 197 241 308 356
#     4  11  21  42  60  86 127 163 200 252 304 366
#     4  10  23  37  57  92 123 165 192 247 302 375
#     4  11  20  38  62  92 119 157 206 248 302 363
#     4  10  18  35  62  84 116 158 196 252 297 346
#
# _framework density 21.189920999999998
#
# number of rings (size 3 to 8) (size 9 to 14) (size 15 to 20)
#    0.000    1.429    5.714    1.714    0.000    1.143 
#   10.286    0.714    0.000    0.000    0.000    0.000 
#    0.000    0.000    0.000    0.000    0.000    0.000 
#
# Total GULP energy -156241.054584 kJ/mol
# GULP energy per Si atom -5580.037664 kJ/mol
# Density = 2.114169 g / cm^3
# Si number density = 21.189921 Si / 1000 Ang^3
#
#
#
# Elastic Constant Matrix: (Units=GPa)
#
#
# Indices 1 2 3 4 5 6 
#
# 1 136.5101 8.4441 14.9647 -0.0023 -13.7961 -0.0004
# 2 8.4441 40.7457 -4.7128 -0.0109 8.3448 0.0068
# 3 14.9647 -4.7128 69.1084 -0.0255 1.0394 0.0094
# 4 -0.0023 -0.0109 -0.0255 12.9147 0.0107 2.1751
# 5 -13.7961 8.3448 1.0394 0.0107 38.4652 -0.0002
# 6 -0.0004 0.0068 0.0094 2.1751 -0.0002 25.7002
#
#
#
# Elastic Compliance Matrix: (Units=1/GPa)
#
#
# Indices 1 2 3 4 5 6 
#
# 1 0.008059 -0.002618 -0.001976 -0.000008 0.003512 0.000002
# 2 -0.002618 0.026769 0.002495 0.000035 -0.006814 -0.000011
# 3 -0.001976 0.002495 0.015093 0.000034 -0.001658 -0.000009
# 4 -0.000008 0.000035 0.000034 0.078551 -0.000033 -0.006648
# 5 0.003512 -0.006814 -0.001658 -0.000033 0.028780 0.000005
# 6 0.000002 -0.000011 -0.000009 -0.006648 0.000005 0.039473
#
#
# Mechanical properties :
#
#
# Convention : Reuss Voigt Hill
#
# Bulk Modulus (GPa) = 21.87126 31.52847 26.69987
# Shear Modulus (GPa) = 23.13048 30.59389 26.86219
#
# Velocity S-wave (km/s) = 3.30749 3.80385 3.56432
# Velocity P-wave (km/s) = 4.99299 5.84839 5.43754
#
# Compressibility (1/GPa) = 0.04572210
#
# Stress axis : x y z
#
# Youngs Moduli (GPa) = 124.08512 37.35651 66.25555
#
# Poissons Ratio (x) = 0.09780 0.13095
# Poissons Ratio (y) = 0.32485 -0.16530
# Poissons Ratio (z) = 0.24525 -0.09320
#
# Static dielectric constant tensor:
#      x y z
#    x 1.802690 0.000000 0.025880 
#    y 0.000000 1.817050 0.000010 
#    z 0.025880 0.000010 1.785030 
# 
# From -- ./inp_files/245126.got.cif
#   From: 2010.05.17/outbox.cif.g08.bks.cpg/sg15_123_cif.got.tgz:245126.got - 2010.06.03 18:47:42.
