data_PCOD9259467
_publ_section_title
;
Structure prediction by ZEFSAII (Michael W. Deem and Ramdas Pophale) SiO2 
 PCOD9259467
Probable space group: C 2/C
;
_chemical_formula_sum "Si O2"
_cell_formula_units_Z 56
_cell_length_a 15.863930
_cell_length_b 17.217309
_cell_length_c 12.304525
_cell_angle_alpha 90.000000
_cell_angle_beta 120.860545
_cell_angle_gamma 90.000000
_cell_volume 2884.960676
_symmetry_space_group_name_H-M "C 2/C"
_symmetry_group_IT_number 15
_symmetry_cell_setting 'monoclinic'
loop_
_space_group_symop_operation_xyz
x,y,z
-x,y,1/2-z
-x,-y,-z
x,-y,1/2+z
1/2+x,1/2+y,z
1/2-x,1/2+y,1/2-z
1/2-x,1/2-y,-z
1/2+x,1/2-y,1/2+z
loop_
_atom_site_type_symbol
_atom_site_label
_atom_site_fract_x
_atom_site_fract_y
_atom_site_fract_z
Si Si1 0.510749 0.199573 0.971246
Si Si2 0.862250 0.084886 0.685159
Si Si3 0.484772 0.364672 0.057831
Si Si4 0.000000 0.423503 0.750000
Si Si5 0.500000 0.712111 0.250000
Si Si6 0.357704 0.934357 0.846967
Si Si7 0.864858 0.404882 0.466409
Si Si8 0.128026 0.916294 0.723251
O O1 0.536199 0.234190 0.871659
O O2 0.414301 0.145540 0.904787
O O3 0.485162 0.274783 0.025952
O O4 0.593965 0.144673 0.076805
O O5 0.918289 0.117771 0.618341
O O6 0.749721 0.107698 0.599172
O O7 0.906865 0.114973 0.828227
O O8 0.878889 0.992419 0.706163
O O9 0.443240 0.413726 0.928960
O O10 0.918846 0.459537 0.779350
O O11 0.926908 0.383341 0.614996
O O12 0.411519 0.657166 0.234483
O O13 0.241372 0.918814 0.757423
O O14 0.374957 0.003880 0.944308
#
# Coordination Sequence:
#
# PCOD9259467 Si02
#       8
#     8   8   8   4   4   8   8   8
#     4  10  22  38  56  85 117 149 191 232 288 346
#     4  10  21  38  60  85 112 150 196 237 283 337
#     4  10  21  35  57  85 116 152 187 238 290 336
#     4  10  18  35  58  83 116 144 178 234 288 323
#     4  10  22  39  60  81 118 160 184 238 290 329
#     4  10  22  38  61  87 113 152 196 236 281 340
#     4  10  22  38  60  86 114 151 193 236 281 341
#     4  10  21  40  60  84 115 151 196 237 283 337
#
# _framework density 19.411010000000001
#
# number of rings (size 3 to 8) (size 9 to 14) (size 15 to 20)
#    0.000    2.000    0.000    3.857    0.000   11.429 
#    0.000    5.714    0.000    0.000    0.000    0.000 
#    0.000    0.000    0.000    0.000    0.000    0.000 
#
# Total GULP energy -155957.136213 kJ/mol
# GULP energy per Si atom -5569.897722 kJ/mol
# Density = 1.936683 g / cm^3
# Si number density = 19.411010 Si / 1000 Ang^3
#
#
#
# Elastic Constant Matrix: (Units=GPa)
#
#
# Indices 1 2 3 4 5 6 
#
# 1 96.7311 14.3521 46.8205 0.0000 6.4673 0.0000
# 2 14.3521 73.1561 31.0567 0.0000 -4.2509 0.0000
# 3 46.8205 31.0567 107.3953 0.0000 0.7369 0.0000
# 4 0.0000 0.0000 0.0000 -35.5123 0.0000 13.2996
# 5 6.4673 -4.2509 0.7369 0.0000 33.6719 0.0000
# 6 0.0000 0.0000 0.0000 13.2996 0.0000 26.7382
#
#
#
# Elastic Compliance Matrix: (Units=1/GPa)
#
#
# Indices 1 2 3 4 5 6 
#
# 1 0.013306 -0.000341 -0.005685 0.000000 -0.002474 0.000000
# 2 -0.000341 0.015736 -0.004417 0.000000 0.002149 0.000000
# 3 -0.005685 -0.004417 0.013066 0.000000 0.000248 0.000000
# 4 0.000000 0.000000 0.000000 -0.023737 0.000000 0.011807
# 5 -0.002474 0.002149 0.000248 0.000000 0.030439 0.000000
# 6 0.000000 0.000000 0.000000 0.011807 0.000000 0.031527
#
#
# Mechanical properties :
#
#
# Convention : Reuss Voigt Hill
#
# Bulk Modulus (GPa) = 47.12117 51.30458 49.21287
# Shear Modulus (GPa) = 46.16981 17.31644 31.74312
#
# Velocity S-wave (km/s) = 4.88232 2.99003 4.04829
# Velocity P-wave (km/s) = 7.49072 6.19745 6.87457
#
# Compressibility (1/GPa) = 0.02122188
#
# Stress axis : x y z
#
# Youngs Moduli (GPa) = 75.15537 63.54793 76.53692
#
# Poissons Ratio (x) = 0.02164 0.43514
# Poissons Ratio (y) = 0.02560 0.33805
# Poissons Ratio (z) = 0.42729 0.28068
#
# Static dielectric constant tensor:
#      x y z
#    x 1.713580 0.000000 -0.001160 
#    y 0.000000 1.688960 0.000000 
#    z -0.001160 0.000000 1.694290 
# 
# From -- ./inp_files/105826.got.cif
#   From: 2010.05.17/outbox.cif.g08.bks.cpg/sg15_53_cif.got.tgz:105826.got - 2010.06.03 18:47:42.
