data_PCOD9259236
_publ_section_title
;
Structure prediction by ZEFSAII (Michael W. Deem and Ramdas Pophale) SiO2 
 PCOD9259236
Probable space group: C 2/C
;
_chemical_formula_sum "Si O2"
_cell_formula_units_Z 44
_cell_length_a 15.352055
_cell_length_b 20.914584
_cell_length_c 11.141339
_cell_angle_alpha 90.000000
_cell_angle_beta 40.583195
_cell_angle_gamma 90.000000
_cell_volume 2327.205931
_symmetry_space_group_name_H-M "C 2/C"
_symmetry_group_IT_number 15
_symmetry_cell_setting 'monoclinic'
loop_
_space_group_symop_operation_xyz
x,y,z
-x,y,1/2-z
-x,-y,-z
x,-y,1/2+z
1/2+x,1/2+y,z
1/2-x,1/2+y,1/2-z
1/2-x,1/2-y,-z
1/2+x,1/2-y,1/2+z
loop_
_atom_site_type_symbol
_atom_site_label
_atom_site_fract_x
_atom_site_fract_y
_atom_site_fract_z
Si Si1 0.958236 0.688666 0.933395
Si Si2 0.466628 0.954643 0.146926
Si Si3 0.474965 0.592843 0.915381
Si Si4 0.660943 0.457227 0.405943
Si Si5 0.500000 0.367255 0.750000
Si Si6 0.650466 0.294983 0.792543
O O1 0.000000 0.695686 0.750000
O O2 0.960920 0.612872 0.950953
O O3 0.069386 0.728899 0.888879
O O4 0.809969 0.713135 0.121430
O O5 0.500000 0.975464 0.250000
O O6 0.308554 0.945076 0.298087
O O7 0.500000 0.000000 0.000000
O O8 0.500000 0.604628 0.750000
O O9 0.617940 0.569397 0.820980
O O10 0.379347 0.531374 0.039190
O O11 0.407067 0.653730 0.051362
O O12 0.567262 0.414101 0.586146
O O13 0.606535 0.324689 0.709759
#
# Coordination Sequence:
#
# PCOD9259236 Si02
#       6
#     8   8   8   8   4   8
#     4  11  23  40  63  92 127 163 213 267 320 377
#     4  11  25  41  64  93 131 165 209 264 321 386
#     4  10  22  39  62  91 130 166 212 263 311 383
#     4  10  21  37  64  92 123 164 206 256 320 373
#     4  10  18  34  62  92 118 150 206 254 322 372
#     4  11  23  37  62  92 122 165 210 265 317 378
#
# _framework density 18.906793
#
# number of rings (size 3 to 8) (size 9 to 14) (size 15 to 20)
#    0.000    1.455    1.818    3.818    7.636    0.000 
#    0.000    1.818    0.000    0.000    0.000    0.000 
#    0.000    0.000    0.000    0.000    0.000    0.000 
#
# Total GULP energy -122727.976853 kJ/mol
# GULP energy per Si atom -5578.544402 kJ/mol
# Density = 1.886376 g / cm^3
# Si number density = 18.906793 Si / 1000 Ang^3
#
#
#
# Elastic Constant Matrix: (Units=GPa)
#
#
# Indices 1 2 3 4 5 6 
#
# 1 109.1460 18.9091 55.0023 0.0006 2.3756 -0.0002
# 2 18.9091 85.9185 35.9075 0.0006 19.3769 -0.0003
# 3 55.0023 35.9075 79.1388 0.0012 -5.7489 0.0003
# 4 0.0006 0.0006 0.0012 18.4432 -0.0010 -7.1594
# 5 2.3756 19.3769 -5.7489 -0.0010 43.6731 0.0000
# 6 -0.0002 -0.0003 0.0003 -7.1594 0.0000 -3.8348
#
#
#
# Elastic Compliance Matrix: (Units=1/GPa)
#
#
# Indices 1 2 3 4 5 6 
#
# 1 0.014597 0.002319 -0.011439 0.000000 -0.003329 -0.000001
# 2 0.002319 0.017477 -0.010211 -0.000001 -0.009224 -0.000001
# 3 -0.011439 -0.010211 0.025841 0.000000 0.008554 0.000002
# 4 0.000000 -0.000001 0.000000 0.031437 0.000001 -0.058692
# 5 -0.003329 -0.009224 0.008554 0.000001 0.028297 -0.000001
# 6 -0.000001 -0.000001 0.000002 -0.058692 -0.000001 -0.151194
#
#
# Mechanical properties :
#
#
# Convention : Reuss Voigt Hill
#
# Bulk Modulus (GPa) = 51.94410 54.87124 53.40767
# Shear Modulus (GPa) = 433.44878 22.61526 228.03202
#
# Velocity S-wave (km/s) = 15.15761 3.46228 10.99410
# Velocity P-wave (km/s) = 18.27214 6.71328 13.76480
#
# Compressibility (1/GPa) = 0.01925146
#
# Stress axis : x y z
#
# Youngs Moduli (GPa) = 68.50535 57.21968 38.69808
#
# Poissons Ratio (x) = -0.13268 0.44268
# Poissons Ratio (y) = -0.15885 0.39516
# Poissons Ratio (z) = 0.78365 0.58429
#
# Static dielectric constant tensor:
#      x y z
#    x 1.801730 0.000000 -0.007690 
#    y 0.000000 1.733790 0.000000 
#    z -0.007690 0.000000 1.624890 
# 
# From -- ./inp_files/42000.got.cif
#   From: 2010.05.17/outbox.cif.g08.bks.cpg/sg15_21_cif.got.tgz:42000.got - 2010.06.03 18:47:42.
