data_PCOD9259004
_publ_section_title
;
Structure prediction by ZEFSAII (Michael W. Deem and Ramdas Pophale) SiO2 
 PCOD9259004
Probable space group: C 2/C
;
_chemical_formula_sum "Si O2"
_cell_formula_units_Z 48
_cell_length_a 20.895062
_cell_length_b 6.607089
_cell_length_c 28.800263
_cell_angle_alpha 90.000000
_cell_angle_beta 26.208130
_cell_angle_gamma 90.000000
_cell_volume 1755.949229
_symmetry_space_group_name_H-M "C 2/C"
_symmetry_group_IT_number 15
_symmetry_cell_setting 'monoclinic'
loop_
_space_group_symop_operation_xyz
x,y,z
-x,y,1/2-z
-x,-y,-z
x,-y,1/2+z
1/2+x,1/2+y,z
1/2-x,1/2+y,1/2-z
1/2-x,1/2-y,-z
1/2+x,1/2-y,1/2+z
loop_
_atom_site_type_symbol
_atom_site_label
_atom_site_fract_x
_atom_site_fract_y
_atom_site_fract_z
Si Si1 0.197031 0.516947 0.028338
Si Si2 0.710044 0.250148 0.319304
Si Si3 0.926059 0.313548 0.253816
Si Si4 0.363705 0.284769 0.624166
Si Si5 0.906675 0.632404 0.499125
Si Si6 0.358411 0.419626 0.006963
O O1 0.173514 0.501569 0.987925
O O2 0.041672 0.464480 0.153765
O O3 0.250000 0.750000 0.000000
O O4 0.318649 0.391529 0.978400
O O5 0.844117 0.195843 0.265742
O O6 0.662659 0.473682 0.366348
O O7 0.762415 0.270158 0.232771
O O8 0.573654 0.099289 0.405746
O O9 0.795209 0.421877 0.366746
O O10 0.000000 0.200489 0.250000
O O11 0.329393 0.178786 0.597863
O O12 0.528201 0.285332 0.537620
O O13 0.921835 0.854834 0.466622
#
# Coordination Sequence:
#
# PCOD9259004 Si02
#       6
#     8   8   8   8   8   8
#     4   9  19  32  57  92 121 150 208 267 302 361
#     4  11  21  37  62  93 120 166 212 254 323 376
#     4  10  18  34  58  83 115 163 210 243 314 383
#     4  11  21  37  64  89 128 164 211 263 312 387
#     4  10  18  34  60  89 121 154 210 260 308 371
#     4   9  17  35  57  86 119 160 202 253 313 373
#
# _framework density 27.335640000000001
#
# number of rings (size 3 to 8) (size 9 to 14) (size 15 to 20)
#    0.000    2.000    3.333    2.000    0.000    0.000 
#    0.000    6.667    3.667    0.000    0.000    0.000 
#    0.000    0.000    0.000    0.000    0.000    0.000 
#
# Total GULP energy -134133.834658 kJ/mol
# GULP energy per Si atom -5588.909777 kJ/mol
# Density = 2.727342 g / cm^3
# Si number density = 27.335640 Si / 1000 Ang^3
#
#
#
# Elastic Constant Matrix: (Units=GPa)
#
#
# Indices 1 2 3 4 5 6 
#
# 1 306.5697 70.2707 60.3351 0.0687 31.8970 -0.1036
# 2 70.2707 64.4802 42.7517 0.1800 0.9241 0.0792
# 3 60.3351 42.7517 130.9087 -0.0334 -0.1282 -0.0328
# 4 0.0687 0.1800 -0.0334 29.5525 -0.0130 -16.5676
# 5 31.8970 0.9241 -0.1282 -0.0130 53.0016 0.0484
# 6 -0.1036 0.0792 -0.0328 -16.5676 0.0484 69.3137
#
#
#
# Elastic Compliance Matrix: (Units=1/GPa)
#
#
# Indices 1 2 3 4 5 6 
#
# 1 0.004761 -0.004713 -0.000658 0.000027 -0.002785 0.000021
# 2 -0.004713 0.024467 -0.005816 -0.000191 0.002396 -0.000085
# 3 -0.000658 -0.005816 0.009842 0.000062 0.000521 0.000025
# 4 0.000027 -0.000191 0.000062 0.039076 -0.000012 0.009340
# 5 -0.002785 0.002396 0.000521 -0.000012 0.020503 -0.000024
# 6 0.000021 -0.000085 0.000025 0.009340 -0.000024 0.016660
#
#
# Mechanical properties :
#
#
# Convention : Reuss Voigt Hill
#
# Bulk Modulus (GPa) = 59.89178 94.29706 77.09442
# Shear Modulus (GPa) = 34.90433 52.28029 43.59231
#
# Velocity S-wave (km/s) = 3.57722 4.37800 3.99771
# Velocity P-wave (km/s) = 6.24655 7.75414 7.04081
#
# Compressibility (1/GPa) = 0.01669678
#
# Stress axis : x y z
#
# Youngs Moduli (GPa) = 210.02011 40.87107 101.60396
#
# Poissons Ratio (x) = 0.19262 0.06687
# Poissons Ratio (y) = 0.98980 0.59093
# Poissons Ratio (z) = 0.13822 0.23771
#
# Static dielectric constant tensor:
#      x y z
#    x 2.198290 -0.000050 -0.033560 
#    y -0.000050 2.246050 0.000040 
#    z -0.033560 0.000040 2.105140 
# 
# From -- ./inp_files/300464.got.cif
#   From: 2010.05.17/outbox.cif.g08.bks.cpg/sg15_151_cif.got.tgz:300464.got - 2010.06.03 18:47:42.
