data_PCOD9259059
_publ_section_title
;
Structure prediction by ZEFSAII (Michael W. Deem and Ramdas Pophale) SiO2 
 PCOD9259059
Probable space group: C 2/C
;
_chemical_formula_sum "Si O2"
_cell_formula_units_Z 60
_cell_length_a 23.123829
_cell_length_b 17.360231
_cell_length_c 15.345707
_cell_angle_alpha 90.000000
_cell_angle_beta 150.335426
_cell_angle_gamma 90.000000
_cell_volume 3048.866932
_symmetry_space_group_name_H-M "C 2/C"
_symmetry_group_IT_number 15
_symmetry_cell_setting 'monoclinic'
loop_
_space_group_symop_operation_xyz
x,y,z
-x,y,1/2-z
-x,-y,-z
x,-y,1/2+z
1/2+x,1/2+y,z
1/2-x,1/2+y,1/2-z
1/2-x,1/2-y,-z
1/2+x,1/2-y,1/2+z
loop_
_atom_site_type_symbol
_atom_site_label
_atom_site_fract_x
_atom_site_fract_y
_atom_site_fract_z
Si Si1 0.513404 0.891724 0.575889
Si Si2 0.202064 0.501777 0.241087
Si Si3 0.876461 0.978364 0.626840
Si Si4 0.572402 0.720806 0.027011
Si Si5 0.720601 0.771916 0.089385
Si Si6 0.000000 0.375801 0.750000
Si Si7 0.387774 0.556554 0.338640
Si Si8 0.120016 0.843039 0.326974
O O1 0.618575 0.926390 0.657495
O O2 0.493952 0.800147 0.535303
O O3 0.539639 0.913412 0.711578
O O4 0.390638 0.934188 0.398630
O O5 0.280308 0.475052 0.425395
O O6 0.287128 0.525474 0.272733
O O7 0.889256 0.069015 0.663678
O O8 0.000000 0.949681 0.750000
O O9 0.851087 0.944569 0.689132
O O10 0.701419 0.745606 0.162611
O O11 0.580580 0.644886 0.095673
O O12 0.508370 0.691565 0.854170
O O13 0.828705 0.823137 0.201754
O O14 0.610721 0.826082 0.923644
O O15 0.708356 0.698926 0.008791
O O16 0.500000 0.500000 0.500000
#
# Coordination Sequence:
#
# PCOD9259059 Si02
#       8
#     8   8   8   8   8   4   8   8
#     4  10  24  42  65  99 130 176 209 279 334 399
#     4  11  25  45  65  96 137 170 224 268 334 392
#     4  12  24  41  65  93 134 176 218 271 325 394
#     4  11  22  38  58  92 131 158 220 261 324 393
#     4  10  19  29  52  92 123 155 189 259 333 394
#     4  10  18  34  58  94 128 152 208 252 340 400
#     4  12  25  42  64  98 131 179 220 271 328 393
#     4  11  19  30  57  88 124 159 197 254 337 386
#
# _framework density 19.679442000000002
#
# number of rings (size 3 to 8) (size 9 to 14) (size 15 to 20)
#    0.000    1.067    5.333    2.400    9.333    0.000 
#    0.000    0.667    0.000    0.000    0.000    0.000 
#    0.000    0.000    0.000    0.000    0.000    0.000 
#
# Total GULP energy -167307.554823 kJ/mol
# GULP energy per Si atom -5576.918494 kJ/mol
# Density = 1.963465 g / cm^3
# Si number density = 19.679442 Si / 1000 Ang^3
#
#
#
# Elastic Constant Matrix: (Units=GPa)
#
#
# Indices 1 2 3 4 5 6 
#
# 1 139.5041 34.1033 46.9759 0.0000 0.6125 0.0000
# 2 34.1033 76.7030 29.5090 0.0000 -7.6353 0.0000
# 3 46.9759 29.5090 84.2384 0.0000 -8.5450 0.0000
# 4 0.0000 0.0000 0.0000 23.9036 0.0000 -5.2891
# 5 0.6125 -7.6353 -8.5450 0.0000 33.2143 0.0000
# 6 0.0000 0.0000 0.0000 -5.2891 0.0000 23.7679
#
#
#
# Elastic Compliance Matrix: (Units=1/GPa)
#
#
# Indices 1 2 3 4 5 6 
#
# 1 0.009324 -0.002614 -0.004479 0.000000 -0.001925 0.000000
# 2 -0.002614 0.015954 -0.003855 0.000000 0.002724 0.000000
# 3 -0.004479 -0.003855 0.016057 0.000000 0.003327 0.000000
# 4 0.000000 0.000000 0.000000 0.044001 0.000000 0.009792
# 5 -0.001925 0.002724 0.003327 0.000000 0.031625 0.000000
# 6 0.000000 0.000000 0.000000 0.009792 0.000000 0.044253
#
#
# Mechanical properties :
#
#
# Convention : Reuss Voigt Hill
#
# Bulk Modulus (GPa) = 51.44351 57.95799 54.70075
# Shear Modulus (GPa) = 26.37288 28.83428 27.60358
#
# Velocity S-wave (km/s) = 3.66474 3.83194 3.74927
# Velocity P-wave (km/s) = 6.64113 7.00666 6.82634
#
# Compressibility (1/GPa) = 0.01943880
#
# Stress axis : x y z
#
# Youngs Moduli (GPa) = 107.24985 62.68172 62.27933
#
# Poissons Ratio (x) = 0.16385 0.27896
# Poissons Ratio (y) = 0.28035 0.24006
# Poissons Ratio (z) = 0.48039 0.24161
#
# Static dielectric constant tensor:
#      x y z
#    x 1.847990 0.000000 0.044870 
#    y 0.000000 1.707130 0.000000 
#    z 0.044870 0.000000 1.718000 
# 
# From -- ./inp_files/174115.got.cif
#   From: 2010.05.17/outbox.cif.g08.bks.cpg/sg15_88_cif.got.tgz:174115.got - 2010.06.03 18:47:42.
