data_PCOD9259701
_publ_section_title
;
Structure prediction by ZEFSAII (Michael W. Deem and Ramdas Pophale) SiO2 
 PCOD9259701
Probable space group: C 2/C
;
_chemical_formula_sum "Si O2"
_cell_formula_units_Z 60
_cell_length_a 10.920027
_cell_length_b 20.472744
_cell_length_c 12.773836
_cell_angle_alpha 90.000000
_cell_angle_beta 89.351012
_cell_angle_gamma 90.000000
_cell_volume 2855.572845
_symmetry_space_group_name_H-M "C 2/C"
_symmetry_group_IT_number 15
_symmetry_cell_setting 'monoclinic'
loop_
_space_group_symop_operation_xyz
x,y,z
-x,y,1/2-z
-x,-y,-z
x,-y,1/2+z
1/2+x,1/2+y,z
1/2-x,1/2+y,1/2-z
1/2-x,1/2-y,-z
1/2+x,1/2-y,1/2+z
loop_
_atom_site_type_symbol
_atom_site_label
_atom_site_fract_x
_atom_site_fract_y
_atom_site_fract_z
Si Si1 0.388657 0.819267 0.544635
Si Si2 0.292871 0.975555 0.764634
Si Si3 0.380099 0.641027 0.707969
Si Si4 0.500000 0.128796 0.250000
Si Si5 0.384335 0.116778 0.827138
Si Si6 0.929675 0.073736 0.104872
Si Si7 0.855285 0.032402 0.887957
Si Si8 0.392965 0.330014 0.973944
O O1 0.464392 0.831663 0.647633
O O2 0.419689 0.863503 0.444028
O O3 0.406856 0.744692 0.508369
O O4 0.244722 0.833772 0.568007
O O5 0.389313 0.919371 0.777092
O O6 0.164295 0.946674 0.805362
O O7 0.336700 0.041838 0.821647
O O8 0.269423 0.996371 0.644299
O O9 0.500000 0.679996 0.750000
O O10 0.235471 0.660624 0.705991
O O11 0.378626 0.581565 0.791075
O O12 0.401343 0.628852 0.583631
O O13 0.500000 0.124375 0.750000
O O14 0.002895 0.141801 0.102402
O O15 0.852936 0.068778 0.997868
O O16 0.036559 0.019804 0.104593
#
# Coordination Sequence:
#
# PCOD9259701 Si02
#       8
#     8   8   8   4   8   8   8   8
#     4  10  25  44  67  94 132 180 228 263 333 410
#     4  11  24  39  58  96 129 168 209 275 342 393
#     4  10  18  35  64  93 123 161 225 272 325 386
#     4  12  26  42  62  94 134 172 216 270 336 414
#     4  10  22  43  66  93 132 182 217 273 339 412
#     4  11  22  34  63  92 128 164 210 279 331 391
#     4  10  21  33  57  96 125 156 209 272 336 387
#     4  10  22  44  66  94 127 179 222 278 331 392
#
# _framework density 21.011545999999999
#
# number of rings (size 3 to 8) (size 9 to 14) (size 15 to 20)
#    0.000    1.600    2.000    2.800   10.267    2.667 
#    0.000    6.000    0.000    0.000    0.000    0.000 
#    0.000    0.000    0.000    0.000    0.000    0.000 
#
# Total GULP energy -167348.737680 kJ/mol
# GULP energy per Si atom -5578.291256 kJ/mol
# Density = 2.096372 g / cm^3
# Si number density = 21.011546 Si / 1000 Ang^3
#
#
#
# Elastic Constant Matrix: (Units=GPa)
#
#
# Indices 1 2 3 4 5 6 
#
# 1 99.3018 27.0263 43.7728 0.0000 4.4141 0.0000
# 2 27.0263 74.6306 37.0996 0.0000 6.2016 0.0000
# 3 43.7728 37.0996 106.3450 0.0000 25.1386 0.0000
# 4 0.0000 0.0000 0.0000 21.6143 0.0000 6.3988
# 5 4.4141 6.2016 25.1386 0.0000 34.4897 0.0000
# 6 0.0000 0.0000 0.0000 6.3988 0.0000 20.2109
#
#
#
# Elastic Compliance Matrix: (Units=1/GPa)
#
#
# Indices 1 2 3 4 5 6 
#
# 1 0.012820 -0.002341 -0.005040 0.000000 0.002454 0.000000
# 2 -0.002341 0.016699 -0.005102 0.000000 0.001016 0.000000
# 3 -0.005040 -0.005102 0.015572 0.000000 -0.009787 0.000000
# 4 0.000000 0.000000 0.000000 0.051051 0.000000 -0.016163
# 5 0.002454 0.001016 -0.009787 0.000000 0.035631 0.000000
# 6 0.000000 0.000000 0.000000 -0.016163 0.000000 0.054595
#
#
# Mechanical properties :
#
#
# Convention : Reuss Voigt Hill
#
# Bulk Modulus (GPa) = 49.69251 55.11942 52.40597
# Shear Modulus (GPa) = 22.93130 26.75491 24.84310
#
# Velocity S-wave (km/s) = 3.30717 3.57226 3.44227
# Velocity P-wave (km/s) = 6.18745 6.58063 6.38707
#
# Compressibility (1/GPa) = 0.02012376
#
# Stress axis : x y z
#
# Youngs Moduli (GPa) = 78.00220 59.88378 64.21969
#
# Poissons Ratio (x) = 0.14018 0.32369
# Poissons Ratio (y) = 0.18260 0.32766
# Poissons Ratio (z) = 0.39316 0.30554
#
# Static dielectric constant tensor:
#      x y z
#    x 1.829350 0.000000 0.068420 
#    y 0.000000 1.787030 0.000000 
#    z 0.068420 0.000000 1.853090 
# 
# From -- ./inp_files/89624.got.cif
#   From: 2010.05.17/outbox.cif.g08.bks.cpg/sg15_45_cif.got.tgz:89624.got - 2010.06.03 18:47:42.
