data_PCOD9259474
_publ_section_title
;
Structure prediction by ZEFSAII (Michael W. Deem and Ramdas Pophale) SiO2 
 PCOD9259474
Probable space group: C 2/C
;
_chemical_formula_sum "Si O2"
_cell_formula_units_Z 40
_cell_length_a 9.571951
_cell_length_b 22.553677
_cell_length_c 10.439093
_cell_angle_alpha 90.000000
_cell_angle_beta 137.938242
_cell_angle_gamma 90.000000
_cell_volume 1509.770096
_symmetry_space_group_name_H-M "C 2/C"
_symmetry_group_IT_number 15
_symmetry_cell_setting 'monoclinic'
loop_
_space_group_symop_operation_xyz
x,y,z
-x,y,1/2-z
-x,-y,-z
x,-y,1/2+z
1/2+x,1/2+y,z
1/2-x,1/2+y,1/2-z
1/2-x,1/2-y,-z
1/2+x,1/2-y,1/2+z
loop_
_atom_site_type_symbol
_atom_site_label
_atom_site_fract_x
_atom_site_fract_y
_atom_site_fract_z
Si Si1 0.792324 0.039953 0.386114
Si Si2 0.283494 0.329712 0.837060
Si Si3 0.220532 0.170836 0.522520
Si Si4 0.249390 0.455464 0.571696
Si Si5 0.067666 0.703316 0.573628
O O1 0.825482 0.109545 0.440367
O O2 0.681400 0.040440 0.172134
O O3 0.693609 0.008465 0.440256
O O4 0.000000 0.000000 0.500000
O O5 0.048184 0.330467 0.620509
O O6 0.328346 0.262711 0.912416
O O7 0.468345 0.331794 0.854757
O O8 0.301932 0.106560 0.530255
O O9 0.365492 0.212499 0.529502
O O10 0.276137 0.177808 0.712684
O O11 0.500000 0.456222 0.750000
#
# Coordination Sequence:
#
# PCOD9259474 Si02
#       5
#     8   8   8   8   8
#     4  10  20  34  60  84 118 160 201 240 292 357
#     4  12  20  35  51  84 121 150 191 245 304 356
#     4  11  20  32  52  81 122 145 191 241 306 345
#     4  10  18  35  58  85 117 158 202 238 292 355
#     4  11  23  29  54  85 119 153 185 249 311 346
#
# _framework density 26.4941
#
# number of rings (size 3 to 8) (size 9 to 14) (size 15 to 20)
#    0.000    1.200    8.000    1.200    2.800    0.000 
#    0.000    1.000    0.000    0.000    0.000   22.400 
#    0.000    0.000    0.000    0.000    0.000    0.000 
#
# Total GULP energy -111537.093038 kJ/mol
# GULP energy per Si atom -5576.854652 kJ/mol
# Density = 2.643380 g / cm^3
# Si number density = 26.494100 Si / 1000 Ang^3
#
#
#
# Elastic Constant Matrix: (Units=GPa)
#
#
# Indices 1 2 3 4 5 6 
#
# 1 84.6170 28.5720 18.4985 0.0000 -9.8686 0.0000
# 2 28.5720 136.1534 45.3021 0.0000 -16.6355 0.0000
# 3 18.4985 45.3021 121.4230 0.0000 15.7776 0.0000
# 4 0.0000 0.0000 0.0000 30.3751 0.0000 -18.2593
# 5 -9.8686 -16.6355 15.7776 0.0000 30.6631 0.0000
# 6 0.0000 0.0000 0.0000 -18.2593 0.0000 -26.1766
#
#
#
# Elastic Compliance Matrix: (Units=1/GPa)
#
#
# Indices 1 2 3 4 5 6 
#
# 1 0.013313 -0.001575 -0.002021 0.000000 0.004470 0.000000
# 2 -0.001575 0.010036 -0.004443 0.000000 0.007224 0.000000
# 3 -0.002021 -0.004443 0.011359 0.000000 -0.008906 0.000000
# 4 0.000000 0.000000 0.000000 0.023196 0.000000 -0.016180
# 5 0.004470 0.007224 -0.008906 0.000000 0.042553 0.000000
# 6 0.000000 0.000000 0.000000 -0.016180 0.000000 -0.026916
#
#
# Mechanical properties :
#
#
# Convention : Reuss Voigt Hill
#
# Bulk Modulus (GPa) = 53.68113 58.54874 56.11493
# Shear Modulus (GPa) = 52.17604 23.62702 37.90153
#
# Velocity S-wave (km/s) = 4.44255 2.98952 3.78638
# Velocity P-wave (km/s) = 6.82792 5.83635 6.35152
#
# Compressibility (1/GPa) = 0.01862852
#
# Stress axis : x y z
#
# Youngs Moduli (GPa) = 75.11418 99.63897 88.03920
#
# Poissons Ratio (x) = 0.15693 0.17797
# Poissons Ratio (y) = 0.11830 0.39118
# Poissons Ratio (z) = 0.15184 0.44272
#
# Static dielectric constant tensor:
#      x y z
#    x 2.092710 0.000000 -0.011190 
#    y 0.000000 2.224840 0.000000 
#    z -0.011190 0.000000 2.179950 
# 
# From -- ./inp_files/89887.got.cif
#   From: 2010.05.17/outbox.cif.g08.bks.cpg/sg15_45_cif.got.tgz:89887.got - 2010.06.03 18:47:42.
