data_PCOD9259178
_publ_section_title
;
Structure prediction by ZEFSAII (Michael W. Deem and Ramdas Pophale) SiO2 
 PCOD9259178
Probable space group: C 2/C
;
_chemical_formula_sum "Si O2"
_cell_formula_units_Z 64
_cell_length_a 12.113202
_cell_length_b 8.444457
_cell_length_c 30.862296
_cell_angle_alpha 90.000000
_cell_angle_beta 66.481417
_cell_angle_gamma 90.000000
_cell_volume 2894.645826
_symmetry_space_group_name_H-M "C 2/C"
_symmetry_group_IT_number 15
_symmetry_cell_setting 'monoclinic'
loop_
_space_group_symop_operation_xyz
x,y,z
-x,y,1/2-z
-x,-y,-z
x,-y,1/2+z
1/2+x,1/2+y,z
1/2-x,1/2+y,1/2-z
1/2-x,1/2-y,-z
1/2+x,1/2-y,1/2+z
loop_
_atom_site_type_symbol
_atom_site_label
_atom_site_fract_x
_atom_site_fract_y
_atom_site_fract_z
Si Si1 0.998667 0.415581 0.800718
Si Si2 0.367729 0.916678 0.395224
Si Si3 0.310539 0.588170 0.508586
Si Si4 0.765609 0.434531 0.192360
Si Si5 0.690631 0.233886 0.363692
Si Si6 0.581648 0.677361 0.366072
Si Si7 0.515096 0.406413 0.439739
Si Si8 0.597520 0.414673 0.298824
O O1 0.118499 0.502966 0.799135
O O2 0.006424 0.227667 0.805508
O O3 0.000000 0.452510 0.750000
O O4 0.899484 0.475518 0.849491
O O5 0.296929 0.989992 0.446672
O O6 0.273288 0.795185 0.389030
O O7 0.485214 0.815717 0.390057
O O8 0.250000 0.750000 0.500000
O O9 0.377963 0.466501 0.465615
O O10 0.421949 0.627012 0.523945
O O11 0.763962 0.560800 0.154447
O O12 0.796090 0.262556 0.168555
O O13 0.659049 0.445317 0.243291
O O14 0.553602 0.260322 0.402561
O O15 0.692384 0.338791 0.319134
O O16 0.582437 0.556442 0.406008
O O17 0.545819 0.568868 0.330324
#
# Coordination Sequence:
#
# PCOD9259178 Si02
#       8
#     8   8   8   8   8   8   8   8
#     4  10  21  35  53  81 118 153 193 243 288 353
#     4  10  20  34  56  83 111 151 190 242 297 347
#     4  10  18  34  61  88 113 152 203 245 301 373
#     4  10  20  35  57  80 115 160 197 236 298 355
#     4   9  19  35  54  81 115 151 191 243 295 358
#     4  10  19  34  55  82 112 149 194 245 293 354
#     4   9  19  34  58  88 113 150 197 247 305 362
#     4  10  20  34  52  77 112 153 195 235 288 349
#
# _framework density 22.109786
#
# number of rings (size 3 to 8) (size 9 to 14) (size 15 to 20)
#    0.000    2.250    1.250    2.250    0.000    4.000 
#    0.000    0.625    0.000   20.250    0.000    0.000 
#    0.000    0.000    0.000    0.000    0.000    0.000 
#
# Total GULP energy -178389.209762 kJ/mol
# GULP energy per Si atom -5574.662805 kJ/mol
# Density = 2.205946 g / cm^3
# Si number density = 22.109786 Si / 1000 Ang^3
#
#
#
# Elastic Constant Matrix: (Units=GPa)
#
#
# Indices 1 2 3 4 5 6 
#
# 1 42.5215 5.8264 16.7621 0.0000 -5.6988 0.0000
# 2 5.8264 68.6250 41.9185 0.0000 -12.8909 0.0000
# 3 16.7621 41.9185 128.1648 0.0000 -26.2411 0.0000
# 4 0.0000 0.0000 0.0000 -10.4502 0.0000 17.7280
# 5 -5.6988 -12.8909 -26.2411 0.0000 29.4550 0.0000
# 6 0.0000 0.0000 0.0000 17.7280 0.0000 9.4499
#
#
#
# Elastic Compliance Matrix: (Units=1/GPa)
#
#
# Indices 1 2 3 4 5 6 
#
# 1 0.024928 0.000028 -0.002788 0.000000 0.002351 0.000000
# 2 0.000028 0.018469 -0.005367 0.000000 0.003307 0.000000
# 3 -0.002788 -0.005367 0.011413 0.000000 0.007279 0.000000
# 4 0.000000 0.000000 0.000000 -0.022879 0.000000 0.042921
# 5 0.002351 0.003307 0.007279 0.000000 0.042337 0.000000
# 6 0.000000 0.000000 0.000000 0.042921 0.000000 0.025301
#
#
# Mechanical properties :
#
#
# Convention : Reuss Voigt Hill
#
# Bulk Modulus (GPa) = 25.93634 40.92504 33.43069
# Shear Modulus (GPa) = 38.85753 17.34456 28.10104
#
# Velocity S-wave (km/s) = 4.19678 2.80389 3.56895
# Velocity P-wave (km/s) = 5.93634 5.38818 5.66889
#
# Compressibility (1/GPa) = 0.03855594
#
# Stress axis : x y z
#
# Youngs Moduli (GPa) = 40.11582 54.14396 87.61959
#
# Poissons Ratio (x) = -0.00153 0.24428
# Poissons Ratio (y) = -0.00114 0.47029
# Poissons Ratio (z) = 0.11184 0.29061
#
# Static dielectric constant tensor:
#      x y z
#    x 1.876600 0.000000 -0.046930 
#    y 0.000000 1.835360 0.000000 
#    z -0.046930 0.000000 1.921590 
# 
# From -- ./inp_files/312889.got.cif
#   From: 2010.05.17/outbox.cif.g08.bks.cpg/sg15_157_cif.got.tgz:312889.got - 2010.06.03 18:47:42.
