data_PCOD9259803
_publ_section_title
;
Structure prediction by ZEFSAII (Michael W. Deem and Ramdas Pophale) SiO2 
 PCOD9259803
Probable space group: C 2/C
;
_chemical_formula_sum "Si O2"
_cell_formula_units_Z 44
_cell_length_a 12.942571
_cell_length_b 27.831439
_cell_length_c 5.759858
_cell_angle_alpha 90.000000
_cell_angle_beta 99.657729
_cell_angle_gamma 90.000000
_cell_volume 2045.356081
_symmetry_space_group_name_H-M "C 2/C"
_symmetry_group_IT_number 15
_symmetry_cell_setting 'monoclinic'
loop_
_space_group_symop_operation_xyz
x,y,z
-x,y,1/2-z
-x,-y,-z
x,-y,1/2+z
1/2+x,1/2+y,z
1/2-x,1/2+y,1/2-z
1/2-x,1/2-y,-z
1/2+x,1/2-y,1/2+z
loop_
_atom_site_type_symbol
_atom_site_label
_atom_site_fract_x
_atom_site_fract_y
_atom_site_fract_z
Si Si1 0.727275 0.170291 0.356623
Si Si2 0.138136 0.747629 0.679368
Si Si3 0.500000 0.698616 0.750000
Si Si4 0.620543 0.517415 0.564242
Si Si5 0.104331 0.655155 0.916621
Si Si6 0.175289 0.123696 0.718954
O O1 0.794349 0.206188 0.219174
O O2 0.699868 0.207744 0.550058
O O3 0.795628 0.128247 0.495262
O O4 0.622830 0.151269 0.197817
O O5 0.055890 0.770284 0.468854
O O6 0.102808 0.712754 0.870458
O O7 0.587613 0.664892 0.663961
O O8 0.500000 0.500000 0.500000
O O9 0.665764 0.505430 0.323091
O O10 0.628273 0.574044 0.615492
O O11 0.211933 0.631770 0.860877
O O12 0.000000 0.636632 0.750000
#
# Coordination Sequence:
#
# PCOD9259803 Si02
#       6
#     8   8   4   8   8   8
#     4   9  19  35  55  78 123 161 215 263 302 375
#     4   9  18  32  51  80 117 169 210 260 311 360
#     4  10  18  36  56  82 130 162 212 262 312 380
#     4  10  22  42  71 100 132 164 197 258 336 417
#     4  11  22  35  56  82 118 167 217 259 306 368
#     4  10  23  39  60  93 122 162 203 261 326 385
#
# _framework density 21.512146999999999
#
# number of rings (size 3 to 8) (size 9 to 14) (size 15 to 20)
#    0.000    2.182    0.000    3.818    2.545    3.636 
#    3.273    0.000    0.000    1.091    0.000    0.000 
#    0.000    0.000    0.000    0.000    0.000    0.000 
#
# Total GULP energy -122534.466377 kJ/mol
# GULP energy per Si atom -5569.748472 kJ/mol
# Density = 2.146318 g / cm^3
# Si number density = 21.512147 Si / 1000 Ang^3
#
#
#
# Elastic Constant Matrix: (Units=GPa)
#
#
# Indices 1 2 3 4 5 6 
#
# 1 97.6744 34.2194 15.0560 0.0000 19.5726 0.0000
# 2 34.2194 96.2633 31.1237 0.0000 10.7870 0.0000
# 3 15.0560 31.1237 98.8415 0.0000 23.9099 0.0000
# 4 0.0000 0.0000 0.0000 31.7675 0.0000 13.4097
# 5 19.5726 10.7870 23.9099 0.0000 40.4519 0.0000
# 6 0.0000 0.0000 0.0000 13.4097 0.0000 17.2637
#
#
#
# Elastic Compliance Matrix: (Units=1/GPa)
#
#
# Indices 1 2 3 4 5 6 
#
# 1 0.012663 -0.004112 0.000680 0.000000 -0.005432 0.000000
# 2 -0.004112 0.012942 -0.003612 0.000000 0.000673 0.000000
# 3 0.000680 -0.003612 0.012832 0.000000 -0.006951 0.000000
# 4 0.000000 0.000000 0.000000 0.046835 0.000000 -0.036380
# 5 -0.005432 0.000673 -0.006951 0.000000 0.031278 0.000000
# 6 0.000000 0.000000 0.000000 -0.036380 0.000000 0.086183
#
#
# Mechanical properties :
#
#
# Convention : Reuss Voigt Hill
#
# Bulk Modulus (GPa) = 41.06940 50.39749 45.73345
# Shear Modulus (GPa) = 22.22835 32.05529 27.14182
#
# Velocity S-wave (km/s) = 3.21797 3.86437 3.55589
# Velocity P-wave (km/s) = 5.73933 6.58707 6.17776
#
# Compressibility (1/GPa) = 0.02434903
#
# Stress axis : x y z
#
# Youngs Moduli (GPa) = 78.97307 77.26558 77.92831
#
# Poissons Ratio (x) = 0.31775 -0.05301
# Poissons Ratio (y) = 0.32477 0.28146
# Poissons Ratio (z) = -0.05372 0.27907
#
# Static dielectric constant tensor:
#      x y z
#    x 1.941500 0.000000 -0.095620 
#    y 0.000000 1.739130 0.000000 
#    z -0.095620 0.000000 1.978750 
# 
# From -- ./inp_files/8121.got.cif
#   From: 2010.05.17/outbox.cif.g08.bks.cpg/sg15_5_cif.got.tgz:8121.got - 2010.06.03 18:47:42.
