data_PCOD9259063
_publ_section_title
;
Structure prediction by ZEFSAII (Michael W. Deem and Ramdas Pophale) SiO2 
 PCOD9259063
Probable space group: C 2/C
;
_chemical_formula_sum "Si O2"
_cell_formula_units_Z 28
_cell_length_a 10.508738
_cell_length_b 11.294277
_cell_length_c 11.368822
_cell_angle_alpha 90.000000
_cell_angle_beta 114.024022
_cell_angle_gamma 90.000000
_cell_volume 1232.461933
_symmetry_space_group_name_H-M "C 2/C"
_symmetry_group_IT_number 15
_symmetry_cell_setting 'monoclinic'
loop_
_space_group_symop_operation_xyz
x,y,z
-x,y,1/2-z
-x,-y,-z
x,-y,1/2+z
1/2+x,1/2+y,z
1/2-x,1/2+y,1/2-z
1/2-x,1/2-y,-z
1/2+x,1/2-y,1/2+z
loop_
_atom_site_type_symbol
_atom_site_label
_atom_site_fract_x
_atom_site_fract_y
_atom_site_fract_z
Si Si1 0.020520 0.330945 0.119438
Si Si2 0.000000 0.032343 0.750000
Si Si3 0.146862 0.851009 0.510440
Si Si4 0.787626 0.531150 0.430540
O O1 0.081732 0.206524 0.099850
O O2 0.120865 0.436829 0.109463
O O3 0.000000 0.338247 0.250000
O O4 0.877203 0.355705 0.995150
O O5 0.976822 0.116511 0.627754
O O6 0.858112 0.958572 0.691216
O O7 0.250000 0.750000 0.500000
O O8 0.242203 0.968007 0.537327
#
# Coordination Sequence:
#
# PCOD9259063 Si02
#       4
#     8   4   8   8
#     4  10  18  34  58  99 119 154 224 249 312 392
#     4   8  16  36  62  82 118 168 214 234 326 382
#     4   8  16  34  59  86 117 169 200 250 318 368
#     4   8  18  36  56  89 123 169 198 260 316 366
#
# _framework density 22.718754000000001
#
# number of rings (size 3 to 8) (size 9 to 14) (size 15 to 20)
#    1.714    1.714    0.000    0.000    0.000    0.000 
#   23.143    2.857    0.000    0.000    3.714    0.000 
#    0.000    0.000    0.000    0.000    0.000    0.000 
#
# Total GULP energy -77948.368049 kJ/mol
# GULP energy per Si atom -5567.740575 kJ/mol
# Density = 2.266705 g / cm^3
# Si number density = 22.718754 Si / 1000 Ang^3
#
#
#
# Elastic Constant Matrix: (Units=GPa)
#
#
# Indices 1 2 3 4 5 6 
#
# 1 132.4872 46.0407 80.2311 0.0000 3.6487 0.0000
# 2 46.0407 59.2116 42.9231 0.0000 -12.8774 0.0000
# 3 80.2311 42.9231 112.8068 0.0000 -4.6656 0.0000
# 4 0.0000 0.0000 0.0000 24.7079 0.0000 5.9094
# 5 3.6487 -12.8774 -4.6656 0.0000 50.9291 0.0000
# 6 0.0000 0.0000 0.0000 5.9094 0.0000 7.7936
#
#
#
# Elastic Compliance Matrix: (Units=1/GPa)
#
#
# Indices 1 2 3 4 5 6 
#
# 1 0.014861 -0.006259 -0.008329 0.000000 -0.003410 0.000000
# 2 -0.006259 0.027358 -0.005675 0.000000 0.006846 0.000000
# 3 -0.008329 -0.005675 0.016977 0.000000 0.000717 0.000000
# 4 0.000000 0.000000 0.000000 0.049439 0.000000 -0.037487
# 5 -0.003410 0.006846 0.000717 0.000000 0.021676 0.000000
# 6 0.000000 0.000000 0.000000 -0.037487 0.000000 0.156735
#
#
# Mechanical properties :
#
#
# Convention : Reuss Voigt Hill
#
# Bulk Modulus (GPa) = 53.56068 71.43284 62.49676
# Shear Modulus (GPa) = 14.97926 25.70683 20.34304
#
# Velocity S-wave (km/s) = 2.57054 3.36746 2.99562
# Velocity P-wave (km/s) = 5.69534 6.82863 6.28757
#
# Compressibility (1/GPa) = 0.01867041
#
# Stress axis : x y z
#
# Youngs Moduli (GPa) = 67.29208 36.55211 58.90223
#
# Poissons Ratio (x) = 0.22879 0.49058
# Poissons Ratio (y) = 0.42119 0.33427
# Poissons Ratio (z) = 0.56045 0.20743
#
# Static dielectric constant tensor:
#      x y z
#    x 1.919350 0.000000 0.003130 
#    y 0.000000 1.822910 0.000000 
#    z 0.003130 0.000000 1.864760 
# 
# From -- ./inp_files/84817.got.cif
#   From: 2010.05.17/outbox.cif.g08.bks.cpg/sg15_43_cif.got.tgz:84817.got - 2010.06.03 18:47:42.
