data_PCOD9259289
_publ_section_title
;
Structure prediction by ZEFSAII (Michael W. Deem and Ramdas Pophale) SiO2 
 PCOD9259289
Probable space group: C 2/C
;
_chemical_formula_sum "Si O2"
_cell_formula_units_Z 40
_cell_length_a 18.367614
_cell_length_b 5.465586
_cell_length_c 31.932544
_cell_angle_alpha 90.000000
_cell_angle_beta 149.287066
_cell_angle_gamma 90.000000
_cell_volume 1637.270075
_symmetry_space_group_name_H-M "C 2/C"
_symmetry_group_IT_number 15
_symmetry_cell_setting 'monoclinic'
loop_
_space_group_symop_operation_xyz
x,y,z
-x,y,1/2-z
-x,-y,-z
x,-y,1/2+z
1/2+x,1/2+y,z
1/2-x,1/2+y,1/2-z
1/2-x,1/2-y,-z
1/2+x,1/2-y,1/2+z
loop_
_atom_site_type_symbol
_atom_site_label
_atom_site_fract_x
_atom_site_fract_y
_atom_site_fract_z
Si Si1 0.228672 0.701480 0.419271
Si Si2 0.952769 0.812844 0.524131
Si Si3 0.796795 0.696251 0.294685
Si Si4 0.782507 0.529535 0.873561
Si Si5 0.894525 0.495487 0.566442
O O1 0.378721 0.572449 0.480963
O O2 0.173736 0.828444 0.350149
O O3 0.134141 0.509720 0.398407
O O4 0.264989 0.894755 0.473781
O O5 0.869334 0.634538 0.450354
O O6 0.925345 0.751237 0.559325
O O7 0.115215 0.735894 0.596795
O O8 0.743977 0.463622 0.241454
O O9 0.742492 0.641970 0.315032
O O10 0.967574 0.667269 0.376159
#
# Coordination Sequence:
#
# PCOD9259289 Si02
#       5
#     8   8   8   8   8
#     4  10  18  34  65  90 128 142 195 270 328 356
#     4   9  17  32  58  89 122 148 188 261 309 371
#     4  11  26  44  64  83 122 174 219 247 291 378
#     4   9  20  34  56  92 112 156 207 243 309 359
#     4   9  21  36  57  98 116 158 201 251 322 370
#
# _framework density 24.430913
#
# number of rings (size 3 to 8) (size 9 to 14) (size 15 to 20)
#    0.000    2.400    0.000    2.400    8.400    0.000 
#    0.000    1.000    0.000    0.000    0.000    0.000 
#    0.000    0.000    0.000    0.000    0.000    0.000 
#
# Total GULP energy -111507.209706 kJ/mol
# GULP energy per Si atom -5575.360485 kJ/mol
# Density = 2.437531 g / cm^3
# Si number density = 24.430913 Si / 1000 Ang^3
#
#
#
# Elastic Constant Matrix: (Units=GPa)
#
#
# Indices 1 2 3 4 5 6 
#
# 1 118.0765 35.1175 33.0507 -0.0035 -46.5781 0.0030
# 2 35.1175 81.9357 27.5433 0.0021 -15.2666 0.0079
# 3 33.0507 27.5433 53.7884 0.0052 -19.8923 -0.0014
# 4 -0.0035 0.0021 0.0052 44.0290 -0.0010 -12.2373
# 5 -46.5781 -15.2666 -19.8923 -0.0010 33.8718 -0.0017
# 6 0.0030 0.0079 -0.0014 -12.2373 -0.0017 31.5908
#
#
#
# Elastic Compliance Matrix: (Units=1/GPa)
#
#
# Indices 1 2 3 4 5 6 
#
# 1 0.019517 -0.003389 -0.001145 0.000003 0.024638 0.000001
# 2 -0.003389 0.015546 -0.006400 -0.000002 -0.001413 -0.000005
# 3 -0.001145 -0.006400 0.026728 -0.000002 0.011238 0.000003
# 4 0.000003 -0.000002 -0.000002 0.025453 0.000003 0.009860
# 5 0.024638 -0.001413 0.011238 0.000003 0.069366 0.000003
# 6 0.000001 -0.000005 0.000003 0.009860 0.000003 0.035474
#
#
# Mechanical properties :
#
#
# Convention : Reuss Voigt Hill
#
# Bulk Modulus (GPa) = 25.04921 49.46928 37.25924
# Shear Modulus (GPa) = 22.00128 32.43759 27.21943
#
# Velocity S-wave (km/s) = 3.00417 3.64775 3.34149
# Velocity P-wave (km/s) = 4.72321 6.16718 5.49285
#
# Compressibility (1/GPa) = 0.03992142
#
# Stress axis : x y z
#
# Youngs Moduli (GPa) = 51.23867 64.32678 37.41348
#
# Poissons Ratio (x) = 0.21802 0.04283
# Poissons Ratio (y) = 0.17366 0.23946
# Poissons Ratio (z) = 0.05866 0.41171
#
# Static dielectric constant tensor:
#      x y z
#    x 2.035190 0.000000 0.032220 
#    y 0.000000 1.994500 0.000010 
#    z 0.032220 0.000010 1.978420 
# 
# From -- ./inp_files/212589.got.cif
#   From: 2010.05.17/outbox.cif.g08.bks.cpg/sg15_107_cif.got.tgz:212589.got - 2010.06.03 18:47:42.
