data_PCOD9259156
_publ_section_title
;
Structure prediction by ZEFSAII (Michael W. Deem and Ramdas Pophale) SiO2 
 PCOD9259156
Probable space group: C 2/C
;
_chemical_formula_sum "Si O2"
_cell_formula_units_Z 44
_cell_length_a 19.907218
_cell_length_b 10.627191
_cell_length_c 13.263420
_cell_angle_alpha 90.000000
_cell_angle_beta 139.378192
_cell_angle_gamma 90.000000
_cell_volume 1826.870260
_symmetry_space_group_name_H-M "C 2/C"
_symmetry_group_IT_number 15
_symmetry_cell_setting 'monoclinic'
loop_
_space_group_symop_operation_xyz
x,y,z
-x,y,1/2-z
-x,-y,-z
x,-y,1/2+z
1/2+x,1/2+y,z
1/2-x,1/2+y,1/2-z
1/2-x,1/2-y,-z
1/2+x,1/2-y,1/2+z
loop_
_atom_site_type_symbol
_atom_site_label
_atom_site_fract_x
_atom_site_fract_y
_atom_site_fract_z
Si Si1 0.605964 0.172584 0.019239
Si Si2 0.604225 0.125670 0.633683
Si Si3 0.298808 0.878814 0.676092
Si Si4 0.303468 0.650996 0.137155
Si Si5 0.104856 0.725921 0.414363
Si Si6 0.000000 0.873566 0.750000
O O1 0.650822 0.210541 0.180058
O O2 0.699681 0.098429 0.071453
O O3 0.502901 0.098017 0.930725
O O4 0.561709 0.284743 0.900291
O O5 0.643478 0.259271 0.720122
O O6 0.589400 0.147570 0.498614
O O7 0.682237 0.017887 0.759491
O O8 0.182344 0.837264 0.529991
O O9 0.349373 0.856974 0.625009
O O10 0.398700 0.573606 0.195757
O O11 0.250000 0.750000 0.000000
O O12 0.000000 0.778621 0.250000
#
# Coordination Sequence:
#
# PCOD9259156 Si02
#       6
#     8   8   8   8   8   4
#     4  10  18  34  60  93 132 172 223 282 336 401
#     4  11  22  39  65  98 131 180 237 283 343 412
#     4  11  24  41  65  98 139 181 231 286 349 414
#     4   9  18  35  58  91 133 175 218 281 343 399
#     4  11  24  43  68  95 140 188 226 285 352 415
#     4   8  18  30  56  92 128 168 214 268 342 398
#
# _framework density 24.084906
#
# number of rings (size 3 to 8) (size 9 to 14) (size 15 to 20)
#    0.000    1.818    3.636    0.545    0.000    4.364 
#    1.636    0.000   12.000    5.455    0.000    0.000 
#    0.000    0.000    0.000    0.000    0.000    0.000 
#
# Total GULP energy -122723.635921 kJ/mol
# GULP energy per Si atom -5578.347087 kJ/mol
# Density = 2.403009 g / cm^3
# Si number density = 24.084906 Si / 1000 Ang^3
#
#
#
# Elastic Constant Matrix: (Units=GPa)
#
#
# Indices 1 2 3 4 5 6 
#
# 1 169.4324 30.1135 46.4918 0.0000 11.1568 0.0000
# 2 30.1135 39.0415 48.1750 0.0000 4.0312 0.0000
# 3 46.4918 48.1750 154.6515 0.0000 -6.1188 0.0000
# 4 0.0000 0.0000 0.0000 27.3124 0.0000 -6.3079
# 5 11.1568 4.0312 -6.1188 0.0000 55.8483 0.0000
# 6 0.0000 0.0000 0.0000 -6.3079 0.0000 18.3052
#
#
#
# Elastic Compliance Matrix: (Units=1/GPa)
#
#
# Indices 1 2 3 4 5 6 
#
# 1 0.006957 -0.004234 -0.000819 0.000000 -0.001174 0.000000
# 2 -0.004234 0.045311 -0.012994 0.000000 -0.003848 0.000000
# 3 -0.000819 -0.012994 0.010851 0.000000 0.002290 0.000000
# 4 0.000000 0.000000 0.000000 0.039779 0.000000 0.013708
# 5 -0.001174 -0.003848 0.002290 0.000000 0.018669 0.000000
# 6 0.000000 0.000000 0.000000 0.013708 0.000000 0.059353
#
#
# Mechanical properties :
#
#
# Convention : Reuss Voigt Hill
#
# Bulk Modulus (GPa) = 37.00392 68.07619 52.54005
# Shear Modulus (GPa) = 22.12180 36.18285 29.15233
#
# Velocity S-wave (km/s) = 3.03395 3.88016 3.48285
# Velocity P-wave (km/s) = 5.26027 6.95706 6.16730
#
# Compressibility (1/GPa) = 0.02702416
#
# Stress axis : x y z
#
# Youngs Moduli (GPa) = 143.74892 22.06967 92.16055
#
# Poissons Ratio (x) = 0.09345 0.07546
# Poissons Ratio (y) = 0.60867 1.19754
# Poissons Ratio (z) = 0.11769 0.28677
#
# Static dielectric constant tensor:
#      x y z
#    x 2.014900 0.000000 0.028710 
#    y 0.000000 1.914130 0.000000 
#    z 0.028710 0.000000 1.929930 
# 
# From -- ./inp_files/167759.got.cif
#   From: 2010.05.17/outbox.cif.g08.bks.cpg/sg15_84_cif.got.tgz:167759.got - 2010.06.03 18:47:42.
