data_PCOD9259098
_publ_section_title
;
Structure prediction by ZEFSAII (Michael W. Deem and Ramdas Pophale) SiO2 
 PCOD9259098
Probable space group: C 2/C
;
_chemical_formula_sum "Si O2"
_cell_formula_units_Z 64
_cell_length_a 27.489448
_cell_length_b 9.754029
_cell_length_c 14.824116
_cell_angle_alpha 90.000000
_cell_angle_beta 130.641848
_cell_angle_gamma 90.000000
_cell_volume 3016.086400
_symmetry_space_group_name_H-M "C 2/C"
_symmetry_group_IT_number 15
_symmetry_cell_setting 'monoclinic'
loop_
_space_group_symop_operation_xyz
x,y,z
-x,y,1/2-z
-x,-y,-z
x,-y,1/2+z
1/2+x,1/2+y,z
1/2-x,1/2+y,1/2-z
1/2-x,1/2-y,-z
1/2+x,1/2-y,1/2+z
loop_
_atom_site_type_symbol
_atom_site_label
_atom_site_fract_x
_atom_site_fract_y
_atom_site_fract_z
Si Si1 0.906759 0.015100 0.883553
Si Si2 0.782022 0.646675 0.609956
Si Si3 0.013738 0.922869 0.367600
Si Si4 0.049959 0.399375 0.919576
Si Si5 0.590087 0.021784 0.267046
Si Si6 0.297488 0.629414 0.464331
Si Si7 0.166151 0.785354 0.305869
Si Si8 0.354056 0.755723 0.354819
O O1 0.846180 0.109095 0.789413
O O2 0.955660 0.069886 0.867914
O O3 0.896018 0.854661 0.850860
O O4 0.934964 0.018193 0.018133
O O5 0.750000 0.750000 0.500000
O O6 0.854866 0.594806 0.673768
O O7 0.736217 0.516338 0.566442
O O8 0.793057 0.711113 0.721364
O O9 0.030959 0.761252 0.384605
O O10 0.000000 0.969371 0.250000
O O11 0.081318 0.446366 0.863276
O O12 0.984385 0.485389 0.856186
O O13 0.103890 0.386113 0.062658
O O14 0.621559 0.151461 0.253458
O O15 0.239420 0.738066 0.394048
O O16 0.342395 0.647333 0.605614
O O17 0.333775 0.668563 0.417667
#
# Coordination Sequence:
#
# PCOD9259098 Si02
#       8
#     8   8   8   8   8   8   8   8
#     4  10  21  32  61  92 128 167 208 273 327 380
#     4  11  26  45  60  89 137 174 211 272 330 389
#     4  10  18  34  59  98 129 163 208 273 323 387
#     4  10  18  36  69  96 124 158 227 269 316 406
#     4  10  19  37  69  94 120 169 208 273 337 371
#     4  10  23  38  66  89 118 175 216 275 325 377
#     4  10  18  38  62  94 121 156 233 269 315 398
#     4  11  24  39  60  95 130 175 218 268 330 400
#
# _framework density 21.219552
#
# number of rings (size 3 to 8) (size 9 to 14) (size 15 to 20)
#    0.000    1.750    3.750    0.750    3.500    1.500 
#    0.000    0.000    2.750    1.500    0.000    0.000 
#    0.000    0.000    0.000    0.000    0.000    0.000 
#
# Total GULP energy -178409.453491 kJ/mol
# GULP energy per Si atom -5575.295422 kJ/mol
# Density = 2.117125 g / cm^3
# Si number density = 21.219552 Si / 1000 Ang^3
#
#
#
# Elastic Constant Matrix: (Units=GPa)
#
#
# Indices 1 2 3 4 5 6 
#
# 1 77.1608 19.9580 15.9759 0.0000 0.1527 0.0000
# 2 19.9580 61.8711 50.1612 0.0000 -2.7848 0.0000
# 3 15.9759 50.1612 157.1921 0.0000 -3.0587 0.0000
# 4 0.0000 0.0000 0.0000 29.0080 0.0000 5.6651
# 5 0.1527 -2.7848 -3.0587 0.0000 26.9452 0.0000
# 6 0.0000 0.0000 0.0000 5.6651 0.0000 14.4580
#
#
#
# Elastic Compliance Matrix: (Units=1/GPa)
#
#
# Indices 1 2 3 4 5 6 
#
# 1 0.014148 -0.004606 0.000021 0.000000 -0.000554 0.000000
# 2 -0.004606 0.023361 -0.006954 0.000000 0.001651 0.000000
# 3 0.000021 -0.006954 0.008584 0.000000 0.000256 0.000000
# 4 0.000000 0.000000 0.000000 0.037330 0.000000 -0.014627
# 5 -0.000554 0.001651 0.000256 0.000000 0.037315 0.000000
# 6 0.000000 0.000000 0.000000 -0.014627 0.000000 0.074897
#
#
# Mechanical properties :
#
#
# Convention : Reuss Voigt Hill
#
# Bulk Modulus (GPa) = 43.45124 52.04600 47.74862
# Shear Modulus (GPa) = 22.08636 28.09083 25.08860
#
# Velocity S-wave (km/s) = 3.22972 3.64238 3.44224
# Velocity P-wave (km/s) = 5.86767 6.50153 6.19271
#
# Compressibility (1/GPa) = 0.02301430
#
# Stress axis : x y z
#
# Youngs Moduli (GPa) = 70.68141 42.80671 116.50025
#
# Poissons Ratio (x) = 0.19716 -0.00245
# Poissons Ratio (y) = 0.32554 0.81019
# Poissons Ratio (z) = -0.00149 0.29769
#
# Static dielectric constant tensor:
#      x y z
#    x 1.867560 0.000000 0.035080 
#    y 0.000000 1.773200 0.000000 
#    z 0.035080 0.000000 1.848060 
# 
# From -- ./inp_files/181186.got.cif
#   From: 2010.05.17/outbox.cif.g08.bks.cpg/sg15_91_cif.got.tgz:181186.got - 2010.06.03 18:47:42.
