data_PCOD9259978
_publ_section_title
;
Structure prediction by ZEFSAII (Michael W. Deem and Ramdas Pophale) SiO2 
 PCOD9259978
Probable space group: C 2/C
;
_chemical_formula_sum "Si O2"
_cell_formula_units_Z 56
_cell_length_a 9.305232
_cell_length_b 17.052182
_cell_length_c 18.175628
_cell_angle_alpha 90.000000
_cell_angle_beta 72.184413
_cell_angle_gamma 90.000000
_cell_volume 2745.709661
_symmetry_space_group_name_H-M "C 2/C"
_symmetry_group_IT_number 15
_symmetry_cell_setting 'monoclinic'
loop_
_space_group_symop_operation_xyz
x,y,z
-x,y,1/2-z
-x,-y,-z
x,-y,1/2+z
1/2+x,1/2+y,z
1/2-x,1/2+y,1/2-z
1/2-x,1/2-y,-z
1/2+x,1/2-y,1/2+z
loop_
_atom_site_type_symbol
_atom_site_label
_atom_site_fract_x
_atom_site_fract_y
_atom_site_fract_z
Si Si1 0.788721 0.367295 0.810158
Si Si2 0.904912 0.215503 0.505972
Si Si3 0.718456 0.224191 0.922060
Si Si4 0.772094 0.544780 0.582700
Si Si5 0.545094 0.043751 0.093193
Si Si6 0.663040 0.816881 0.861626
Si Si7 0.942134 0.098707 0.383996
O O1 0.791845 0.289256 0.859237
O O2 0.877388 0.434246 0.841862
O O3 0.847270 0.338932 0.722112
O O4 0.614382 0.394727 0.832038
O O5 0.750000 0.250000 0.500000
O O6 0.891405 0.234641 0.595127
O O7 0.931180 0.128000 0.471160
O O8 0.038387 0.264209 0.446002
O O9 0.766112 0.135511 0.901695
O O10 0.750000 0.250000 0.000000
O O11 0.832315 0.531138 0.489735
O O12 0.635046 0.485088 0.616434
O O13 0.916110 0.522443 0.611459
O O14 0.448266 0.119921 0.083203
O O15 0.833223 0.839707 0.858522
#
# Coordination Sequence:
#
# PCOD9259978 Si02
#       7
#     8   8   8   8   8   8   8
#     4  11  21  35  61  87 116 156 199 247 299 358
#     4   9  18  34  56  85 113 152 198 245 288 351
#     4  11  20  37  58  87 116 153 202 243 293 351
#     4  10  20  38  60  84 118 153 198 250 297 348
#     4  10  20  34  61  86 108 155 197 241 292 355
#     4  10  18  36  60  83 118 159 197 240 303 364
#     4   9  21  35  59  86 119 155 194 251 301 355
#
# _framework density 20.395457
#
# number of rings (size 3 to 8) (size 9 to 14) (size 15 to 20)
#    0.000    2.000    2.857    0.857    2.000    0.571 
#    0.000    0.000    9.429    6.857    0.000    0.000 
#    0.000    0.000    0.000    0.000    0.000    0.000 
#
# Total GULP energy -156116.088090 kJ/mol
# GULP energy per Si atom -5575.574575 kJ/mol
# Density = 2.034904 g / cm^3
# Si number density = 20.395457 Si / 1000 Ang^3
#
#
#
# Elastic Constant Matrix: (Units=GPa)
#
#
# Indices 1 2 3 4 5 6 
#
# 1 66.7249 16.9620 21.7226 0.0000 -3.7890 0.0000
# 2 16.9620 102.7151 25.9490 0.0000 1.3155 0.0000
# 3 21.7226 25.9490 95.2885 0.0000 9.6109 0.0000
# 4 0.0000 0.0000 0.0000 21.4887 0.0000 5.0932
# 5 -3.7890 1.3155 9.6109 0.0000 28.0838 0.0000
# 6 0.0000 0.0000 0.0000 5.0932 0.0000 23.5392
#
#
#
# Elastic Compliance Matrix: (Units=1/GPa)
#
#
# Indices 1 2 3 4 5 6 
#
# 1 0.016880 -0.001900 -0.003697 0.000000 0.003632 0.000000
# 2 -0.001900 0.010676 -0.002483 0.000000 0.000093 0.000000
# 3 -0.003697 -0.002483 0.012483 0.000000 -0.004654 0.000000
# 4 0.000000 0.000000 0.000000 0.049052 0.000000 -0.010613
# 5 0.003632 0.000093 -0.004654 0.000000 0.037686 0.000000
# 6 0.000000 0.000000 0.000000 -0.010613 0.000000 0.044779
#
#
# Mechanical properties :
#
#
# Convention : Reuss Voigt Hill
#
# Bulk Modulus (GPa) = 41.88038 43.77730 42.82884
# Shear Modulus (GPa) = 25.55262 27.96201 26.75732
#
# Velocity S-wave (km/s) = 3.54341 3.70671 3.62598
# Velocity P-wave (km/s) = 6.10899 6.31113 6.21089
#
# Compressibility (1/GPa) = 0.02387753
#
# Stress axis : x y z
#
# Youngs Moduli (GPa) = 59.24292 93.67124 80.10926
#
# Poissons Ratio (x) = 0.17798 0.29615
# Poissons Ratio (y) = 0.11256 0.19895
# Poissons Ratio (z) = 0.21901 0.23263
#
# Static dielectric constant tensor:
#      x y z
#    x 2.183560 0.000000 0.512740 
#    y 0.000000 1.760840 0.000000 
#    z 0.512740 0.000000 2.415270 
# 
# From -- ./inp_files/190938.got.cif
#   From: 2010.05.17/outbox.cif.g08.bks.cpg/sg15_96_cif.got.tgz:190938.got - 2010.06.03 18:47:42.
