data_PCOD9259966
_publ_section_title
;
Structure prediction by ZEFSAII (Michael W. Deem and Ramdas Pophale) SiO2 
 PCOD9259966
Probable space group: C 2/C
;
_chemical_formula_sum "Si O2"
_cell_formula_units_Z 36
_cell_length_a 18.673363
_cell_length_b 7.170165
_cell_length_c 11.892339
_cell_angle_alpha 90.000000
_cell_angle_beta 121.486641
_cell_angle_gamma 90.000000
_cell_volume 1357.834354
_symmetry_space_group_name_H-M "C 2/C"
_symmetry_group_IT_number 15
_symmetry_cell_setting 'monoclinic'
loop_
_space_group_symop_operation_xyz
x,y,z
-x,y,1/2-z
-x,-y,-z
x,-y,1/2+z
1/2+x,1/2+y,z
1/2-x,1/2+y,1/2-z
1/2-x,1/2-y,-z
1/2+x,1/2-y,1/2+z
loop_
_atom_site_type_symbol
_atom_site_label
_atom_site_fract_x
_atom_site_fract_y
_atom_site_fract_z
Si Si1 0.000000 0.109515 0.750000
Si Si2 0.901441 0.343001 0.329162
Si Si3 0.071532 0.235188 0.596107
Si Si4 0.844468 0.717749 0.544087
Si Si5 0.165808 0.714537 0.503167
O O1 0.953115 0.081496 0.833232
O O2 0.914802 0.191295 0.620308
O O3 0.895979 0.571562 0.318349
O O4 0.898122 0.261997 0.200797
O O5 0.832381 0.259856 0.359425
O O6 0.989852 0.299443 0.459409
O O7 0.132748 0.167098 0.547733
O O8 0.750000 0.750000 0.500000
O O9 0.854055 0.504463 0.518344
O O10 0.250000 0.750000 0.500000
#
# Coordination Sequence:
#
# PCOD9259966 Si02
#       5
#     4   8   8   8   8
#     4  10  18  36  60  80 108 148 196 232 276 332
#     4   9  18  32  56  82 108 145 190 236 280 326
#     4   9  18  32  55  82 106 144 192 237 267 336
#     4  11  22  33  55  87 118 142 181 241 295 332
#     4  10  22  36  59  82 114 151 192 235 279 348
#
# _framework density 26.512808
#
# number of rings (size 3 to 8) (size 9 to 14) (size 15 to 20)
#    0.000    2.222    2.222    2.000    3.111    0.000 
#    0.000    0.000    4.889    2.667    0.000    0.000 
#    0.000    0.000    0.000    0.000    0.000    0.000 
#
# Total GULP energy -100432.424242 kJ/mol
# GULP energy per Si atom -5579.579125 kJ/mol
# Density = 2.645246 g / cm^3
# Si number density = 26.512808 Si / 1000 Ang^3
#
#
#
# Elastic Constant Matrix: (Units=GPa)
#
#
# Indices 1 2 3 4 5 6 
#
# 1 184.7659 2.0419 47.3111 0.0000 -51.8702 0.0000
# 2 2.0419 89.7434 18.2190 0.0000 -6.2015 0.0000
# 3 47.3111 18.2190 126.8898 0.0000 -43.9280 0.0000
# 4 0.0000 0.0000 0.0000 19.1868 0.0000 5.5707
# 5 -51.8702 -6.2015 -43.9280 0.0000 65.9463 0.0000
# 6 0.0000 0.0000 0.0000 5.5707 0.0000 12.2700
#
#
#
# Elastic Compliance Matrix: (Units=1/GPa)
#
#
# Indices 1 2 3 4 5 6 
#
# 1 0.007040 0.000378 -0.000975 0.000000 0.004924 0.000000
# 2 0.000378 0.011498 -0.001709 0.000000 0.000240 0.000000
# 3 -0.000975 -0.001709 0.010617 0.000000 0.006145 0.000000
# 4 0.000000 0.000000 0.000000 0.060032 0.000000 -0.027256
# 5 0.004924 0.000240 0.006145 0.000000 0.023152 0.000000
# 6 0.000000 0.000000 0.000000 -0.027256 0.000000 0.093874
#
#
# Mechanical properties :
#
#
# Convention : Reuss Voigt Hill
#
# Bulk Modulus (GPa) = 40.74328 59.61591 50.17960
# Shear Modulus (GPa) = 22.83056 41.73578 32.28317
#
# Velocity S-wave (km/s) = 2.93766 3.97189 3.49326
# Velocity P-wave (km/s) = 5.18722 6.60069 5.93617
#
# Compressibility (1/GPa) = 0.02454392
#
# Stress axis : x y z
#
# Youngs Moduli (GPa) = 142.04868 86.97354 94.19015
#
# Poissons Ratio (x) = -0.03287 0.09180
# Poissons Ratio (y) = -0.05368 0.16093
# Poissons Ratio (z) = 0.13844 0.14860
#
# Static dielectric constant tensor:
#      x y z
#    x 2.764710 0.000000 -0.709650 
#    y 0.000000 2.141430 0.000000 
#    z -0.709650 0.000000 2.457920 
# 
# From -- ./inp_files/94357.got.cif
#   From: 2010.05.17/outbox.cif.g08.bks.cpg/sg15_48_cif.got.tgz:94357.got - 2010.06.03 18:47:42.
