data_PCOD9259169
_publ_section_title
;
Structure prediction by ZEFSAII (Michael W. Deem and Ramdas Pophale) SiO2 
 PCOD9259169
Probable space group: C 2/C
;
_chemical_formula_sum "Si O2"
_cell_formula_units_Z 56
_cell_length_a 18.174011
_cell_length_b 9.158081
_cell_length_c 23.424663
_cell_angle_alpha 90.000000
_cell_angle_beta 51.821888
_cell_angle_gamma 90.000000
_cell_volume 3064.803190
_symmetry_space_group_name_H-M "C 2/C"
_symmetry_group_IT_number 15
_symmetry_cell_setting 'monoclinic'
loop_
_space_group_symop_operation_xyz
x,y,z
-x,y,1/2-z
-x,-y,-z
x,-y,1/2+z
1/2+x,1/2+y,z
1/2-x,1/2+y,1/2-z
1/2-x,1/2-y,-z
1/2+x,1/2-y,1/2+z
loop_
_atom_site_type_symbol
_atom_site_label
_atom_site_fract_x
_atom_site_fract_y
_atom_site_fract_z
Si Si1 0.037162 0.618004 0.673210
Si Si2 0.297466 0.090547 0.413800
Si Si3 0.334329 0.172394 0.727677
Si Si4 0.045266 0.869401 0.287959
Si Si5 0.346350 0.370600 0.823796
Si Si6 0.792320 0.641214 0.282214
Si Si7 0.155677 0.078220 0.575380
O O1 0.115463 0.512286 0.610616
O O2 0.086048 0.765372 0.671957
O O3 0.000000 0.545570 0.750000
O O4 0.946254 0.656084 0.680166
O O5 0.289593 0.093287 0.349395
O O6 0.205256 0.040825 0.492165
O O7 0.318057 0.256438 0.421271
O O8 0.299000 0.258632 0.801965
O O9 0.296805 0.263759 0.692870
O O10 0.296380 0.008295 0.745153
O O11 0.117155 0.744629 0.273078
O O12 0.000000 0.814988 0.250000
O O13 0.957593 0.917957 0.368687
O O14 0.101147 0.014033 0.242219
O O15 0.304293 0.473390 0.893435
#
# Coordination Sequence:
#
# PCOD9259169 Si02
#       7
#     8   8   8   8   8   8   8
#     4  10  19  36  59  86 111 152 205 243 286 347
#     4  11  21  36  58  88 118 154 199 245 297 358
#     4  11  23  34  59  88 118 153 202 246 299 341
#     4  10  18  34  61  83 112 150 199 246 285 346
#     4  10  19  35  60  86 112 149 204 246 285 346
#     4  12  22  36  59  86 121 155 198 246 301 351
#     4  10  21  33  59  88 116 148 197 254 293 341
#
# _framework density 18.271972000000002
#
# number of rings (size 3 to 8) (size 9 to 14) (size 15 to 20)
#    0.000    1.429    5.714    5.571    0.000    0.571 
#    0.000    0.000    3.143    6.857    0.000    0.000 
#    0.000    0.000    0.000    0.000    0.000    0.000 
#
# Total GULP energy -156009.717535 kJ/mol
# GULP energy per Si atom -5571.775626 kJ/mol
# Density = 1.823038 g / cm^3
# Si number density = 18.271972 Si / 1000 Ang^3
#
#
#
# Elastic Constant Matrix: (Units=GPa)
#
#
# Indices 1 2 3 4 5 6 
#
# 1 71.4067 19.4779 10.0691 0.0000 -7.2561 0.0001
# 2 19.4779 110.8116 13.0983 0.0000 -2.9818 0.0003
# 3 10.0691 13.0983 84.7568 0.0000 -12.4950 0.0000
# 4 0.0000 0.0000 0.0000 -7.2647 0.0000 10.2890
# 5 -7.2561 -2.9818 -12.4950 0.0000 10.0724 0.0000
# 6 0.0001 0.0003 0.0000 10.2890 0.0000 26.6962
#
#
#
# Elastic Compliance Matrix: (Units=1/GPa)
#
#
# Indices 1 2 3 4 5 6 
#
# 1 0.015762 -0.002493 0.000095 0.000000 0.010735 0.000000
# 2 -0.002493 0.009598 -0.001264 0.000000 -0.000523 0.000000
# 3 0.000095 -0.001264 0.014609 0.000000 0.017817 0.000000
# 4 0.000000 0.000000 0.000000 -0.089045 0.000000 0.034319
# 5 0.010735 -0.000523 0.017817 0.000000 0.128962 0.000000
# 6 0.000000 0.000000 0.000000 0.034319 0.000000 0.024231
#
#
# Mechanical properties :
#
#
# Convention : Reuss Voigt Hill
#
# Bulk Modulus (GPa) = 30.63232 39.14064 34.88648
# Shear Modulus (GPa) = 40.87559 20.85611 30.86585
#
# Velocity S-wave (km/s) = 4.73489 3.38217 4.11450
# Velocity P-wave (km/s) = 6.83325 6.05968 6.45806
#
# Compressibility (1/GPa) = 0.03264526
#
# Stress axis : x y z
#
# Youngs Moduli (GPa) = 63.44497 104.18972 68.45017
#
# Poissons Ratio (x) = 0.25974 -0.00653
# Poissons Ratio (y) = 0.15816 0.08653
# Poissons Ratio (z) = -0.00605 0.13171
#
# Static dielectric constant tensor:
#      x y z
#    x 1.650080 0.000000 -0.013770 
#    y 0.000000 1.675120 0.000000 
#    z -0.013770 0.000000 1.665470 
# 
# From -- ./inp_files/276509.got.cif
#   From: 2010.05.17/outbox.cif.g08.bks.cpg/sg15_139_cif.got.tgz:276509.got - 2010.06.03 18:47:42.
