data_PCOD9259459
_publ_section_title
;
Structure prediction by ZEFSAII (Michael W. Deem and Ramdas Pophale) SiO2 
 PCOD9259459
Probable space group: C 2/C
;
_chemical_formula_sum "Si O2"
_cell_formula_units_Z 56
_cell_length_a 19.512131
_cell_length_b 10.603829
_cell_length_c 22.720995
_cell_angle_alpha 90.000000
_cell_angle_beta 38.059125
_cell_angle_gamma 90.000000
_cell_volume 2898.075879
_symmetry_space_group_name_H-M "C 2/C"
_symmetry_group_IT_number 15
_symmetry_cell_setting 'monoclinic'
loop_
_space_group_symop_operation_xyz
x,y,z
-x,y,1/2-z
-x,-y,-z
x,-y,1/2+z
1/2+x,1/2+y,z
1/2-x,1/2+y,1/2-z
1/2-x,1/2-y,-z
1/2+x,1/2-y,1/2+z
loop_
_atom_site_type_symbol
_atom_site_label
_atom_site_fract_x
_atom_site_fract_y
_atom_site_fract_z
Si Si1 0.587894 0.774487 0.305504
Si Si2 0.877525 0.129324 0.441835
Si Si3 0.868747 0.486339 0.584739
Si Si4 0.982513 0.065621 0.575074
Si Si5 0.734849 0.010449 0.225730
Si Si6 0.641277 0.731606 0.406659
Si Si7 0.231932 0.817319 0.602415
O O1 0.460232 0.748606 0.378247
O O2 0.601537 0.732940 0.364797
O O3 0.651831 0.695065 0.212575
O O4 0.644519 0.910927 0.264168
O O5 0.826264 0.111091 0.412203
O O6 0.778625 0.181183 0.550191
O O7 0.950183 0.016875 0.421940
O O8 0.819867 0.432825 0.678628
O O9 0.819541 0.626670 0.609013
O O10 0.835936 0.396025 0.554846
O O11 0.000000 0.500000 0.500000
O O12 0.044939 0.196726 0.518710
O O13 0.848622 0.061923 0.669927
O O14 0.000000 0.000000 0.500000
O O15 0.769721 0.118175 0.155958
#
# Coordination Sequence:
#
# PCOD9259459 Si02
#       7
#     8   8   8   8   8   8   8
#     4  11  20  34  57  86 114 147 196 251 292 344
#     4  11  22  37  58  84 118 158 196 238 307 353
#     4  11  23  34  55  86 122 152 197 250 286 345
#     4  10  18  35  58  82 112 150 197 239 282 364
#     4  10  20  33  56  83 114 150 195 239 302 348
#     4  10  20  35  56  85 115 150 195 242 301 340
#     4  11  22  37  55  84 123 154 191 249 296 353
#
# _framework density 19.323166000000001
#
# number of rings (size 3 to 8) (size 9 to 14) (size 15 to 20)
#    0.000    1.429    4.286    3.857    2.000    0.000 
#    0.000    0.714    0.000    0.000    0.000   22.000 
#    0.000    0.000    0.000    0.000    0.000    0.000 
#
# Total GULP energy -156015.346620 kJ/mol
# GULP energy per Si atom -5571.976665 kJ/mol
# Density = 1.927919 g / cm^3
# Si number density = 19.323166 Si / 1000 Ang^3
#
#
#
# Elastic Constant Matrix: (Units=GPa)
#
#
# Indices 1 2 3 4 5 6 
#
# 1 80.7167 2.5948 16.0268 0.0000 8.3068 0.0000
# 2 2.5948 48.0221 4.4053 0.0000 10.2404 0.0000
# 3 16.0268 4.4053 98.7030 0.0000 0.6498 0.0000
# 4 0.0000 0.0000 0.0000 32.0898 0.0000 -2.8643
# 5 8.3068 10.2404 0.6498 0.0000 18.5356 0.0000
# 6 0.0000 0.0000 0.0000 -2.8643 0.0000 19.1480
#
#
#
# Elastic Compliance Matrix: (Units=1/GPa)
#
#
# Indices 1 2 3 4 5 6 
#
# 1 0.013455 0.000842 -0.002180 0.000000 -0.006419 0.000000
# 2 0.000842 0.023750 -0.001108 0.000000 -0.013460 0.000000
# 3 -0.002180 -0.001108 0.010527 0.000000 0.001220 0.000000
# 4 0.000000 0.000000 0.000000 0.031584 0.000000 0.004725
# 5 -0.006419 -0.013460 0.001220 0.000000 0.064220 0.000000
# 6 0.000000 0.000000 0.000000 0.004725 0.000000 0.052932
#
#
# Mechanical properties :
#
#
# Convention : Reuss Voigt Hill
#
# Bulk Modulus (GPa) = 23.34310 30.38843 26.86576
# Shear Modulus (GPa) = 23.18671 27.58234 25.38452
#
# Velocity S-wave (km/s) = 3.46778 3.78222 3.62841
# Velocity P-wave (km/s) = 5.30477 5.90205 5.61136
#
# Compressibility (1/GPa) = 0.04283921
#
# Stress axis : x y z
#
# Youngs Moduli (GPa) = 74.31966 42.10517 94.99540
#
# Poissons Ratio (x) = -0.03544 0.20710
# Poissons Ratio (y) = -0.06255 0.10526
# Poissons Ratio (z) = 0.16203 0.04666
#
# Static dielectric constant tensor:
#      x y z
#    x 1.669740 0.000000 -0.020840 
#    y 0.000000 1.763750 0.000000 
#    z -0.020840 0.000000 1.753880 
# 
# From -- ./inp_files/277024.got.cif
#   From: 2010.05.17/outbox.cif.g08.bks.cpg/sg15_139_cif.got.tgz:277024.got - 2010.06.03 18:47:42.
