data_PCOD9259574
_publ_section_title
;
Structure prediction by ZEFSAII (Michael W. Deem and Ramdas Pophale) SiO2 
 PCOD9259574
Probable space group: C 2/C
;
_chemical_formula_sum "Si O2"
_cell_formula_units_Z 40
_cell_length_a 7.306760
_cell_length_b 19.162801
_cell_length_c 20.327192
_cell_angle_alpha 90.000000
_cell_angle_beta 40.058735
_cell_angle_gamma 90.000000
_cell_volume 1831.718532
_symmetry_space_group_name_H-M "C 2/C"
_symmetry_group_IT_number 15
_symmetry_cell_setting 'monoclinic'
loop_
_space_group_symop_operation_xyz
x,y,z
-x,y,1/2-z
-x,-y,-z
x,-y,1/2+z
1/2+x,1/2+y,z
1/2-x,1/2+y,1/2-z
1/2-x,1/2-y,-z
1/2+x,1/2-y,1/2+z
loop_
_atom_site_type_symbol
_atom_site_label
_atom_site_fract_x
_atom_site_fract_y
_atom_site_fract_z
Si Si1 0.819126 0.135020 0.436577
Si Si2 0.381015 0.957962 0.096019
Si Si3 0.329789 0.944836 0.734755
Si Si4 0.235497 0.314377 0.593786
Si Si5 0.297694 0.664030 0.931448
O O1 0.651019 0.091339 0.538517
O O2 0.552981 0.166301 0.470196
O O3 0.019116 0.082263 0.340986
O O4 0.032298 0.187459 0.412529
O O5 0.318985 0.005868 0.174702
O O6 0.150807 0.903705 0.128204
O O7 0.500000 0.000000 0.000000
O O8 0.500000 0.977434 0.750000
O O9 0.511580 0.875214 0.669498
O O10 0.379732 0.336318 0.484915
O O11 0.104002 0.237582 0.624317
#
# Coordination Sequence:
#
# PCOD9259574 Si02
#       5
#     8   8   8   8   8
#     4   9  21  36  63  80 122 159 202 242 298 365
#     4  10  20  37  58  89 118 158 199 248 305 352
#     4  10  20  36  61  90 120 158 211 246 301 367
#     4  10  18  35  60  89 109 159 201 244 296 363
#     4   9  20  35  60  85 118 152 202 244 301 357
#
# _framework density 21.837416000000001
#
# number of rings (size 3 to 8) (size 9 to 14) (size 15 to 20)
#    1.200    1.200    2.000    0.600    0.000    6.400 
#    0.000    0.000   13.200    0.000    0.000    0.000 
#    0.000    0.000    0.000    0.000    0.000    0.000 
#
# Total GULP energy -111427.139757 kJ/mol
# GULP energy per Si atom -5571.356988 kJ/mol
# Density = 2.178771 g / cm^3
# Si number density = 21.837416 Si / 1000 Ang^3
#
#
#
# Elastic Constant Matrix: (Units=GPa)
#
#
# Indices 1 2 3 4 5 6 
#
# 1 71.4489 19.0528 18.3159 -0.0010 25.5431 0.0004
# 2 19.0528 85.0442 19.2904 -0.0001 24.7810 0.0000
# 3 18.3159 19.2904 48.3177 -0.0008 17.8793 0.0004
# 4 -0.0010 -0.0001 -0.0008 20.8599 0.0007 13.9287
# 5 25.5431 24.7810 17.8793 0.0007 37.6454 -0.0004
# 6 0.0004 0.0000 0.0004 13.9287 -0.0004 34.7314
#
#
#
# Elastic Compliance Matrix: (Units=1/GPa)
#
#
# Indices 1 2 3 4 5 6 
#
# 1 0.018818 -0.000299 -0.002866 0.000002 -0.011211 -0.000001
# 2 -0.000299 0.014861 -0.002760 0.000000 -0.008269 0.000000
# 3 -0.002866 -0.002760 0.026075 0.000002 -0.008623 -0.000001
# 4 0.000002 0.000000 0.000002 0.065471 -0.000004 -0.026257
# 5 -0.011211 -0.008269 -0.008623 -0.000004 0.043709 0.000002
# 6 -0.000001 0.000000 -0.000001 -0.026257 0.000002 0.039322
#
#
# Mechanical properties :
#
#
# Convention : Reuss Voigt Hill
#
# Bulk Modulus (GPa) = 20.87468 35.34765 28.11116
# Shear Modulus (GPa) = 21.17967 28.52411 24.85189
#
# Velocity S-wave (km/s) = 3.11767 3.61806 3.37715
# Velocity P-wave (km/s) = 4.74760 5.80308 5.30167
#
# Compressibility (1/GPa) = 0.04790494
#
# Stress axis : x y z
#
# Youngs Moduli (GPa) = 53.13997 67.28963 38.35037
#
# Poissons Ratio (x) = 0.02014 0.10990
# Poissons Ratio (y) = 0.01590 0.10584
# Poissons Ratio (z) = 0.15228 0.18571
#
# Static dielectric constant tensor:
#      x y z
#    x 1.807220 0.000000 -0.000750 
#    y 0.000000 1.856690 0.000000 
#    z -0.000750 0.000000 1.821530 
# 
# From -- ./inp_files/233368.got.cif
#   From: 2010.05.17/outbox.cif.g08.bks.cpg/sg15_117_cif.got.tgz:233368.got - 2010.06.03 18:47:42.
