data_PCOD9259869
_publ_section_title
;
Structure prediction by ZEFSAII (Michael W. Deem and Ramdas Pophale) SiO2 
 PCOD9259869
Probable space group: C 2/C
;
_chemical_formula_sum "Si O2"
_cell_formula_units_Z 60
_cell_length_a 27.474152
_cell_length_b 10.953210
_cell_length_c 15.367303
_cell_angle_alpha 90.000000
_cell_angle_beta 135.880635
_cell_angle_gamma 90.000000
_cell_volume 3219.360462
_symmetry_space_group_name_H-M "C 2/C"
_symmetry_group_IT_number 15
_symmetry_cell_setting 'monoclinic'
loop_
_space_group_symop_operation_xyz
x,y,z
-x,y,1/2-z
-x,-y,-z
x,-y,1/2+z
1/2+x,1/2+y,z
1/2-x,1/2+y,1/2-z
1/2-x,1/2-y,-z
1/2+x,1/2-y,1/2+z
loop_
_atom_site_type_symbol
_atom_site_label
_atom_site_fract_x
_atom_site_fract_y
_atom_site_fract_z
Si Si1 0.350683 0.185742 0.948439
Si Si2 0.843457 0.428383 0.029341
Si Si3 0.679417 0.671838 0.929291
Si Si4 0.005643 0.387960 0.940612
Si Si5 0.770755 0.222815 0.825105
Si Si6 0.214991 0.498035 0.860478
Si Si7 0.000000 0.516849 0.750000
Si Si8 0.128211 0.743812 0.190793
O O1 0.289085 0.259263 0.821611
O O2 0.366071 0.257818 0.057485
O O3 0.416807 0.164322 0.972124
O O4 0.328153 0.051485 0.953926
O O5 0.824459 0.452718 0.104956
O O6 0.928055 0.411945 0.135050
O O7 0.796511 0.321517 0.928227
O O8 0.642995 0.667481 0.790365
O O9 0.750000 0.750000 0.000000
O O10 0.710663 0.550665 0.009285
O O11 0.985450 0.435256 0.817488
O O12 0.952394 0.289374 0.909642
O O13 0.000000 0.500000 0.000000
O O14 0.734157 0.105530 0.819982
O O15 0.839183 0.201286 0.854084
O O16 0.168891 0.386751 0.761168
#
# Coordination Sequence:
#
# PCOD9259869 Si02
#       8
#     8   8   8   8   8   8   4   8
#     4  11  21  36  59  91 114 145 198 235 296 347
#     4  11  21  37  58  86 120 155 187 240 304 347
#     4  10  18  36  58  81 113 154 189 240 279 340
#     4  11  21  35  59  90 121 148 184 255 303 342
#     4  12  23  33  56  90 116 154 191 238 293 343
#     4  11  20  37  54  83 118 146 196 235 283 349
#     4  10  20  36  58  86 120 150 192 242 304 358
#     4  11  19  38  60  84 114 152 194 240 294 345
#
# _framework density 18.637242000000001
#
# number of rings (size 3 to 8) (size 9 to 14) (size 15 to 20)
#    0.000    1.067    6.667    4.400    0.000    0.000 
#    0.000    0.000    0.000    2.400    0.000    0.000 
#    0.000    0.000    0.000    0.000    0.000    0.000 
#
# Total GULP energy -167301.032890 kJ/mol
# GULP energy per Si atom -5576.701096 kJ/mol
# Density = 1.859482 g / cm^3
# Si number density = 18.637242 Si / 1000 Ang^3
#
#
#
# Elastic Constant Matrix: (Units=GPa)
#
#
# Indices 1 2 3 4 5 6 
#
# 1 130.6401 17.8492 16.0133 0.0000 -1.5638 0.0000
# 2 17.8492 23.9660 8.7999 0.0000 -3.1476 0.0000
# 3 16.0133 8.7999 44.6436 0.0000 -4.1805 0.0000
# 4 0.0000 0.0000 0.0000 33.5796 0.0000 2.3402
# 5 -1.5638 -3.1476 -4.1805 0.0000 23.3660 0.0000
# 6 0.0000 0.0000 0.0000 2.3402 0.0000 17.9823
#
#
#
# Elastic Compliance Matrix: (Units=1/GPa)
#
#
# Indices 1 2 3 4 5 6 
#
# 1 0.008689 -0.005801 -0.002026 0.000000 -0.000562 0.000000
# 2 -0.005801 0.049335 -0.007178 0.000000 0.004973 0.000000
# 3 -0.002026 -0.007178 0.024854 0.000000 0.003344 0.000000
# 4 0.000000 0.000000 0.000000 0.030053 0.000000 -0.003911
# 5 -0.000562 0.004973 0.003344 0.000000 0.044028 0.000000
# 6 0.000000 0.000000 0.000000 -0.003911 0.000000 0.056119
#
#
# Mechanical properties :
#
#
# Convention : Reuss Voigt Hill
#
# Bulk Modulus (GPa) = 18.91501 31.61941 25.26721
# Shear Modulus (GPa) = 19.17834 25.42475 22.30154
#
# Velocity S-wave (km/s) = 3.21133 3.69750 3.46296
# Velocity P-wave (km/s) = 4.89094 5.93559 5.43841
#
# Compressibility (1/GPa) = 0.05286805
#
# Stress axis : x y z
#
# Youngs Moduli (GPa) = 115.09056 20.26950 40.23443
#
# Poissons Ratio (x) = 0.11759 0.08151
# Poissons Ratio (y) = 0.66766 0.28881
# Poissons Ratio (z) = 0.23315 0.14550
#
# Static dielectric constant tensor:
#      x y z
#    x 1.653670 0.000000 -0.020120 
#    y 0.000000 1.680230 0.000000 
#    z -0.020120 0.000000 1.751090 
# 
# From -- ./inp_files/167686.got.cif
#   From: 2010.05.17/outbox.cif.g08.bks.cpg/sg15_84_cif.got.tgz:167686.got - 2010.06.03 18:47:42.
