data_PCOD9259969
_publ_section_title
;
Structure prediction by ZEFSAII (Michael W. Deem and Ramdas Pophale) SiO2 
 PCOD9259969
Probable space group: C 2/C
;
_chemical_formula_sum "Si O2"
_cell_formula_units_Z 52
_cell_length_a 8.008940
_cell_length_b 13.373208
_cell_length_c 20.442084
_cell_angle_alpha 90.000000
_cell_angle_beta 85.555817
_cell_angle_gamma 90.000000
_cell_volume 2182.870871
_symmetry_space_group_name_H-M "C 2/C"
_symmetry_group_IT_number 15
_symmetry_cell_setting 'monoclinic'
loop_
_space_group_symop_operation_xyz
x,y,z
-x,y,1/2-z
-x,-y,-z
x,-y,1/2+z
1/2+x,1/2+y,z
1/2-x,1/2+y,1/2-z
1/2-x,1/2-y,-z
1/2+x,1/2-y,1/2+z
loop_
_atom_site_type_symbol
_atom_site_label
_atom_site_fract_x
_atom_site_fract_y
_atom_site_fract_z
Si Si1 0.000000 0.221386 0.250000
Si Si2 0.063053 0.613156 0.484368
Si Si3 0.219894 0.428210 0.706131
Si Si4 0.188669 0.528799 0.353456
Si Si5 0.506752 0.824612 0.117919
Si Si6 0.149010 0.724370 0.101884
Si Si7 0.023368 0.093241 0.825037
O O1 0.864497 0.150225 0.222162
O O2 0.069929 0.284343 0.186126
O O3 0.178039 0.602743 0.416069
O O4 0.000000 0.500000 0.500000
O O5 0.124359 0.662134 0.550598
O O6 0.907325 0.680396 0.465306
O O7 0.146534 0.443269 0.780312
O O8 0.128947 0.369828 0.651211
O O9 0.304365 0.530965 0.677659
O O10 0.070942 0.433759 0.368838
O O11 0.378480 0.487687 0.344247
O O12 0.340032 0.761059 0.103257
O O13 0.023720 0.812718 0.128684
O O14 0.000000 0.126193 0.750000
#
# Coordination Sequence:
#
# PCOD9259969 Si02
#       7
#     4   8   8   8   8   8   8
#     4  10  18  36  60  80 114 148 198 246 312 362
#     4  10  21  37  58  83 124 158 199 251 302 371
#     4  10  19  36  61  88 119 153 198 259 306 356
#     4   9  18  34  56  82 115 158 192 254 307 354
#     4   9  20  36  58  83 111 157 198 248 307 366
#     4  10  21  34  64  86 112 164 204 243 311 369
#     4   9  18  36  57  88 123 152 205 260 301 359
#
# _framework density 23.821839000000001
#
# number of rings (size 3 to 8) (size 9 to 14) (size 15 to 20)
#    0.000    2.462    2.308    0.462    2.154    2.462 
#    0.000    0.769    6.769    6.462    0.000    0.000 
#    0.000    0.000    0.000    0.000    0.000    0.000 
#
# Total GULP energy -145113.858144 kJ/mol
# GULP energy per Si atom -5581.302236 kJ/mol
# Density = 2.376762 g / cm^3
# Si number density = 23.821839 Si / 1000 Ang^3
#
#
#
# Elastic Constant Matrix: (Units=GPa)
#
#
# Indices 1 2 3 4 5 6 
#
# 1 35.0467 16.0523 23.5340 0.0000 -5.1443 0.0000
# 2 16.0523 97.0257 55.5290 0.0000 3.8709 0.0000
# 3 23.5340 55.5290 158.5994 0.0000 -0.7091 0.0000
# 4 0.0000 0.0000 0.0000 -8.6276 0.0000 44.5905
# 5 -5.1443 3.8709 -0.7091 0.0000 25.2213 0.0000
# 6 0.0000 0.0000 0.0000 44.5905 0.0000 -24.0167
#
#
#
# Elastic Compliance Matrix: (Units=1/GPa)
#
#
# Indices 1 2 3 4 5 6 
#
# 1 0.033809 -0.003796 -0.003655 0.000000 0.007376 0.000000
# 2 -0.003796 0.013428 -0.004151 0.000000 -0.002952 0.000000
# 3 -0.003655 -0.004151 0.008302 0.000000 0.000125 0.000000
# 4 0.000000 0.000000 0.000000 0.013484 0.000000 0.025035
# 5 0.007376 -0.002952 0.000125 0.000000 0.041610 0.000000
# 6 0.000000 0.000000 0.000000 0.025035 0.000000 0.004844
#
#
# Mechanical properties :
#
#
# Convention : Reuss Voigt Hill
#
# Bulk Modulus (GPa) = 30.92700 53.43360 42.18030
# Shear Modulus (GPa) = 33.45395 11.55250 22.50323
#
# Velocity S-wave (km/s) = 3.75152 2.20456 3.07685
# Velocity P-wave (km/s) = 5.63702 5.38138 5.51068
#
# Compressibility (1/GPa) = 0.03233420
#
# Stress axis : x y z
#
# Youngs Moduli (GPa) = 29.57810 74.46982 120.45933
#
# Poissons Ratio (x) = 0.28269 0.44024
# Poissons Ratio (y) = 0.11228 0.50008
# Poissons Ratio (z) = 0.10810 0.30916
#
# Static dielectric constant tensor:
#      x y z
#    x 2.068060 0.000000 -0.064340 
#    y 0.000000 1.898210 0.000000 
#    z -0.064340 0.000000 2.004830 
# 
# From -- ./inp_files/231231.got.cif
#   From: 2010.05.17/outbox.cif.g08.bks.cpg/sg15_116_cif.got.tgz:231231.got - 2010.06.03 18:47:42.
