data_PCOD9259657
_publ_section_title
;
Structure prediction by ZEFSAII (Michael W. Deem and Ramdas Pophale) SiO2 
 PCOD9259657
Probable space group: C 2/C
;
_chemical_formula_sum "Si O2"
_cell_formula_units_Z 60
_cell_length_a 21.811005
_cell_length_b 17.430306
_cell_length_c 10.299621
_cell_angle_alpha 90.000000
_cell_angle_beta 125.766999
_cell_angle_gamma 90.000000
_cell_volume 3177.146645
_symmetry_space_group_name_H-M "C 2/C"
_symmetry_group_IT_number 15
_symmetry_cell_setting 'monoclinic'
loop_
_space_group_symop_operation_xyz
x,y,z
-x,y,1/2-z
-x,-y,-z
x,-y,1/2+z
1/2+x,1/2+y,z
1/2-x,1/2+y,1/2-z
1/2-x,1/2-y,-z
1/2+x,1/2-y,1/2+z
loop_
_atom_site_type_symbol
_atom_site_label
_atom_site_fract_x
_atom_site_fract_y
_atom_site_fract_z
Si Si1 0.625080 0.492668 0.627442
Si Si2 0.000000 0.545063 0.750000
Si Si3 0.377627 0.725489 0.140062
Si Si4 0.031824 0.742680 0.993438
Si Si5 0.859438 0.380905 0.221132
Si Si6 0.023207 0.393809 0.922147
Si Si7 0.506416 0.390205 0.106264
Si Si8 0.200602 0.940124 0.966937
O O1 0.573827 0.416505 0.551683
O O2 0.568738 0.557808 0.612029
O O3 0.688704 0.480564 0.814111
O O4 0.656269 0.516483 0.526555
O O5 0.072115 0.593479 0.791271
O O6 0.016395 0.484792 0.886909
O O7 0.399238 0.743117 0.017712
O O8 0.456656 0.733891 0.318123
O O9 0.332741 0.796286 0.146401
O O10 0.337760 0.643802 0.094771
O O11 0.028564 0.802832 0.106647
O O12 0.027763 0.655969 0.041517
O O13 0.895089 0.380903 0.409857
O O14 0.787753 0.434559 0.114549
O O15 0.000000 0.363087 0.750000
O O16 0.500000 0.407472 0.250000
#
# Coordination Sequence:
#
# PCOD9259657 Si02
#       8
#     8   4   8   8   8   8   8   8
#     4  11  24  37  58  92 124 167 210 247 308 359
#     4  10  22  42  60  92 114 148 210 258 310 372
#     4  10  21  37  61  91 116 163 211 248 294 373
#     4  10  18  35  62  89 122 158 204 252 298 352
#     4  11  23  40  68  86 121 159 207 256 317 362
#     4   9  21  37  61  89 118 146 199 258 309 362
#     4  11  20  34  60  85 125 167 207 245 292 361
#     4  12  24  42  59  92 131 167 203 258 310 376
#
# _framework density 18.884869999999999
#
# number of rings (size 3 to 8) (size 9 to 14) (size 15 to 20)
#    0.400    1.067    4.000    2.800    1.867    0.000 
#    0.000    0.000    0.000    0.800    0.000    0.000 
#    0.000    0.000    0.000    0.000    0.000    0.000 
#
# Total GULP energy -167099.995737 kJ/mol
# GULP energy per Si atom -5569.999858 kJ/mol
# Density = 1.884189 g / cm^3
# Si number density = 18.884870 Si / 1000 Ang^3
#
#
#
# Elastic Constant Matrix: (Units=GPa)
#
#
# Indices 1 2 3 4 5 6 
#
# 1 35.4242 8.7700 27.3951 0.0000 0.5080 0.0000
# 2 8.7700 82.5057 14.5694 0.0000 -4.7222 0.0000
# 3 27.3951 14.5694 107.9149 0.0000 -4.3444 0.0000
# 4 0.0000 0.0000 0.0000 29.1880 0.0000 -6.3131
# 5 0.5080 -4.7222 -4.3444 0.0000 26.1088 0.0000
# 6 0.0000 0.0000 0.0000 -6.3131 0.0000 16.4781
#
#
#
# Elastic Compliance Matrix: (Units=1/GPa)
#
#
# Indices 1 2 3 4 5 6 
#
# 1 0.035696 -0.002381 -0.008845 0.000000 -0.002597 0.000000
# 2 -0.002381 0.012678 -0.001020 0.000000 0.002170 0.000000
# 3 -0.008845 -0.001020 0.011728 0.000000 0.001939 0.000000
# 4 0.000000 0.000000 0.000000 0.037356 0.000000 0.014312
# 5 -0.002597 0.002170 0.001939 0.000000 0.039067 0.000000
# 6 0.000000 0.000000 0.000000 0.014312 0.000000 0.066170
#
#
# Mechanical properties :
#
#
# Convention : Reuss Voigt Hill
#
# Bulk Modulus (GPa) = 28.08197 36.36821 32.22509
# Shear Modulus (GPa) = 20.91558 26.02899 23.47228
#
# Velocity S-wave (km/s) = 3.33157 3.71657 3.52932
# Velocity P-wave (km/s) = 5.44991 6.14141 5.80596
#
# Compressibility (1/GPa) = 0.03561003
#
# Stress axis : x y z
#
# Youngs Moduli (GPa) = 28.01419 78.87845 85.26853
#
# Poissons Ratio (x) = 0.18782 0.75419
# Poissons Ratio (y) = 0.06671 0.08696
# Poissons Ratio (z) = 0.24778 0.08044
#
# Static dielectric constant tensor:
#      x y z
#    x 1.631960 0.000000 -0.001990 
#    y 0.000000 1.679530 0.000000 
#    z -0.001990 0.000000 1.684010 
# 
# From -- ./inp_files/57028.got.cif
#   From: 2010.05.17/outbox.cif.g08.bks.cpg/sg15_29_cif.got.tgz:57028.got - 2010.06.03 18:47:42.
