data_PCOD9259559
_publ_section_title
;
Structure prediction by ZEFSAII (Michael W. Deem and Ramdas Pophale) SiO2 
 PCOD9259559
Probable space group: C 2/C
;
_chemical_formula_sum "Si O2"
_cell_formula_units_Z 64
_cell_length_a 9.884276
_cell_length_b 15.326984
_cell_length_c 22.271473
_cell_angle_alpha 90.000000
_cell_angle_beta 88.504863
_cell_angle_gamma 90.000000
_cell_volume 3372.893478
_symmetry_space_group_name_H-M "C 2/C"
_symmetry_group_IT_number 15
_symmetry_cell_setting 'monoclinic'
loop_
_space_group_symop_operation_xyz
x,y,z
-x,y,1/2-z
-x,-y,-z
x,-y,1/2+z
1/2+x,1/2+y,z
1/2-x,1/2+y,1/2-z
1/2-x,1/2-y,-z
1/2+x,1/2-y,1/2+z
loop_
_atom_site_type_symbol
_atom_site_label
_atom_site_fract_x
_atom_site_fract_y
_atom_site_fract_z
Si Si1 0.444784 0.978774 0.690189
Si Si2 0.205208 0.540686 0.613358
Si Si3 0.594714 0.191506 0.377513
Si Si4 0.156557 0.365517 0.540699
Si Si5 0.332207 0.226860 0.940249
Si Si6 0.394503 0.646546 0.700143
Si Si7 0.635806 0.781419 0.420726
Si Si8 0.142490 0.662710 0.782344
O O1 0.500000 0.936654 0.750000
O O2 0.573276 0.022401 0.655620
O O3 0.348981 0.058002 0.708922
O O4 0.385104 0.900556 0.654267
O O5 0.208626 0.454980 0.570917
O O6 0.174018 0.624167 0.572841
O O7 0.329512 0.573310 0.655312
O O8 0.490198 0.165428 0.432029
O O9 0.742168 0.225868 0.392056
O O10 0.539316 0.273500 0.338856
O O11 0.255992 0.290330 0.562410
O O12 0.154517 0.361755 0.467952
O O13 0.486531 0.254474 0.936624
O O14 0.250000 0.250000 0.000000
O O15 0.500000 0.614802 0.750000
O O16 0.267165 0.686699 0.738448
O O17 0.644501 0.801317 0.349994
O O18 0.000000 0.680954 0.750000
#
# Coordination Sequence:
#
# PCOD9259559 Si02
#       8
#     8   8   8   8   8   8   8   8
#     4  10  18  35  60  85 113 151 207 243 282 352
#     4  10  21  40  62  86 119 158 202 252 295 358
#     4  10  21  37  61  89 117 157 201 248 297 361
#     4  10  23  41  63  88 122 161 202 246 305 360
#     4  11  21  38  61  88 119 150 199 248 301 351
#     4  11  21  37  60  88 123 158 196 249 313 352
#     4  11  22  40  62  89 123 158 202 246 302 367
#     4  11  20  39  62  88 119 162 203 248 293 357
#
# _framework density 18.974806000000001
#
# number of rings (size 3 to 8) (size 9 to 14) (size 15 to 20)
#    0.000    1.500    5.000    1.875    0.000    2.500 
#    2.250    1.250    0.000    0.000    0.000    0.000 
#    0.000    0.000    0.000    0.000    0.000    0.000 
#
# Total GULP energy -178257.038892 kJ/mol
# GULP energy per Si atom -5570.532465 kJ/mol
# Density = 1.893162 g / cm^3
# Si number density = 18.974806 Si / 1000 Ang^3
#
#
#
# Elastic Constant Matrix: (Units=GPa)
#
#
# Indices 1 2 3 4 5 6 
#
# 1 56.8648 -1.4565 14.3451 0.0000 5.5601 0.0000
# 2 -1.4565 50.7488 20.9744 0.0000 0.5801 0.0000
# 3 14.3451 20.9744 110.9670 0.0000 -0.3958 0.0000
# 4 0.0000 0.0000 0.0000 11.9485 0.0000 -15.6014
# 5 5.5601 0.5801 -0.3958 0.0000 27.6055 0.0000
# 6 0.0000 0.0000 0.0000 -15.6014 0.0000 7.0704
#
#
#
# Elastic Compliance Matrix: (Units=1/GPa)
#
#
# Indices 1 2 3 4 5 6 
#
# 1 0.018701 0.001720 -0.002756 0.000000 -0.003842 0.000000
# 2 0.001720 0.021540 -0.004297 0.000000 -0.000861 0.000000
# 3 -0.002756 -0.004297 0.010183 0.000000 0.000791 0.000000
# 4 0.000000 0.000000 0.000000 -0.044489 0.000000 -0.098170
# 5 -0.003842 -0.000861 0.000791 0.000000 0.037028 0.000000
# 6 0.000000 0.000000 0.000000 -0.098170 0.000000 -0.075185
#
#
# Mechanical properties :
#
#
# Convention : Reuss Voigt Hill
#
# Bulk Modulus (GPa) = 25.15275 31.81182 28.48229
# Shear Modulus (GPa) = -602.13776 21.63940 -290.24918
#
# Velocity S-wave (km/s) = -17.83324 3.38069 -12.38134
# Velocity P-wave (km/s) = 20.26691 5.66042 13.76058
#
# Compressibility (1/GPa) = 0.03975709
#
# Stress axis : x y z
#
# Youngs Moduli (GPa) = 53.47423 46.42536 98.20315
#
# Poissons Ratio (x) = -0.07984 0.27067
# Poissons Ratio (y) = -0.09197 0.42196
# Poissons Ratio (z) = 0.14739 0.19948
#
# Static dielectric constant tensor:
#      x y z
#    x 1.667510 0.000000 0.042040 
#    y 0.000000 1.650430 0.000000 
#    z 0.042040 0.000000 1.758850 
# 
# From -- ./inp_files/264714.got.cif
#   From: 2010.05.17/outbox.cif.g08.bks.cpg/sg15_133_cif.got.tgz:264714.got - 2010.06.03 18:47:42.
