data_PCOD9259109
_publ_section_title
;
Structure prediction by ZEFSAII (Michael W. Deem and Ramdas Pophale) SiO2 
 PCOD9259109
Probable space group: C 2/C
;
_chemical_formula_sum "Si O2"
_cell_formula_units_Z 60
_cell_length_a 13.649906
_cell_length_b 11.714340
_cell_length_c 14.973919
_cell_angle_alpha 90.000000
_cell_angle_beta 93.215761
_cell_angle_gamma 90.000000
_cell_volume 2390.554083
_symmetry_space_group_name_H-M "C 2/C"
_symmetry_group_IT_number 15
_symmetry_cell_setting 'monoclinic'
loop_
_space_group_symop_operation_xyz
x,y,z
-x,y,1/2-z
-x,-y,-z
x,-y,1/2+z
1/2+x,1/2+y,z
1/2-x,1/2+y,1/2-z
1/2-x,1/2-y,-z
1/2+x,1/2-y,1/2+z
loop_
_atom_site_type_symbol
_atom_site_label
_atom_site_fract_x
_atom_site_fract_y
_atom_site_fract_z
Si Si1 0.730578 0.309412 0.095195
Si Si2 0.508037 0.309502 0.107595
Si Si3 0.798447 0.586395 0.303321
Si Si4 0.941983 0.196249 0.400625
Si Si5 0.091554 0.435809 0.050889
Si Si6 0.390682 0.519706 0.139207
Si Si7 0.500000 0.882133 0.750000
Si Si8 0.769480 0.045526 0.452106
O O1 0.618640 0.345734 0.100274
O O2 0.739333 0.214364 0.172842
O O3 0.779328 0.432966 0.095186
O O4 0.750000 0.250000 0.000000
O O5 0.450222 0.405548 0.156069
O O6 0.505435 0.195181 0.162716
O O7 0.468328 0.298079 0.006611
O O8 0.849942 0.533908 0.393830
O O9 0.694670 0.524181 0.291931
O O10 0.888728 0.570022 0.240567
O O11 0.935005 0.332187 0.382053
O O12 0.839514 0.125631 0.395137
O O13 0.031944 0.125008 0.361053
O O14 0.176320 0.388511 0.988770
O O15 0.000000 0.500000 0.000000
O O16 0.337665 0.500376 0.039240
#
# Coordination Sequence:
#
# PCOD9259109 Si02
#       8
#     8   8   8   8   8   8   4   8
#     4  11  15  29  55  82 109 136 186 221 275 319
#     4  10  19  34  58  83 108 147 188 232 270 336
#     4  10  22  36  57  78 113 151 183 232 274 333
#     4  11  19  34  56  89 116 137 177 230 304 332
#     4  11  22  31  50  84 121 146 177 224 281 344
#     4  10  18  34  60  83 108 143 185 234 289 328
#     4  10  22  38  58  72 108 154 196 224 266 324
#     4  10  19  31  51  82 117 148 165 221 289 338
#
# _framework density 25.098783000000001
#
# number of rings (size 3 to 8) (size 9 to 14) (size 15 to 20)
#    0.000    1.600    5.333    2.800    1.867    0.000 
#    0.000    1.333    5.867    0.800    0.000    0.000 
#    0.000    0.000    0.000    0.000    0.000    0.000 
#
# Total GULP energy -167367.940801 kJ/mol
# GULP energy per Si atom -5578.931360 kJ/mol
# Density = 2.504166 g / cm^3
# Si number density = 25.098783 Si / 1000 Ang^3
#
#
#
# Elastic Constant Matrix: (Units=GPa)
#
#
# Indices 1 2 3 4 5 6 
#
# 1 140.7004 42.5033 25.2424 0.0000 -49.5090 0.0000
# 2 42.5033 88.9407 -1.4378 0.0000 -5.3339 0.0000
# 3 25.2424 -1.4378 60.1698 0.0000 -5.8882 0.0000
# 4 0.0000 0.0000 0.0000 1.3933 0.0000 -4.0143
# 5 -49.5090 -5.3339 -5.8882 0.0000 39.6457 0.0000
# 6 0.0000 0.0000 0.0000 -4.0143 0.0000 45.1001
#
#
#
# Elastic Compliance Matrix: (Units=1/GPa)
#
#
# Indices 1 2 3 4 5 6 
#
# 1 0.017138 -0.007100 -0.005438 0.000000 0.019639 0.000000
# 2 -0.007100 0.014287 0.002679 0.000000 -0.006546 0.000000
# 3 -0.005438 0.002679 0.018606 0.000000 -0.003667 0.000000
# 4 0.000000 0.000000 0.000000 0.965228 0.000000 0.085914
# 5 0.019639 -0.006546 -0.003667 0.000000 0.048323 0.000000
# 6 0.000000 0.000000 0.000000 0.085914 0.000000 0.029820
#
#
# Mechanical properties :
#
#
# Convention : Reuss Voigt Hill
#
# Bulk Modulus (GPa) = 32.98724 46.93632 39.96178
# Shear Modulus (GPa) = 4.45147 32.12802 18.28975
#
# Velocity S-wave (km/s) = 1.33320 3.58168 2.70239
# Velocity P-wave (km/s) = 3.94226 5.98714 5.06889
#
# Compressibility (1/GPa) = 0.03031475
#
# Stress axis : x y z
#
# Youngs Moduli (GPa) = 58.34920 69.99263 53.74600
#
# Poissons Ratio (x) = 0.49696 0.29225
# Poissons Ratio (y) = 0.41429 -0.14401
# Poissons Ratio (z) = 0.31728 -0.18754
#
# Static dielectric constant tensor:
#      x y z
#    x 1.649180 0.000000 0.024880 
#    y 0.000000 3.931740 0.000000 
#    z 0.024880 0.000000 2.101870 
# 
# From -- ./inp_files/203997.got.cif
#   From: 2010.05.17/outbox.cif.g08.bks.cpg/sg15_102_cif.got.tgz:203997.got - 2010.06.03 18:47:42.
