data_PCOD9259591
_publ_section_title
;
Structure prediction by ZEFSAII (Michael W. Deem and Ramdas Pophale) SiO2 
 PCOD9259591
Probable space group: C 2/C
;
_chemical_formula_sum "Si O2"
_cell_formula_units_Z 64
_cell_length_a 29.368650
_cell_length_b 12.114667
_cell_length_c 17.056615
_cell_angle_alpha 90.000000
_cell_angle_beta 32.689912
_cell_angle_gamma 90.000000
_cell_volume 3277.601691
_symmetry_space_group_name_H-M "C 2/C"
_symmetry_group_IT_number 15
_symmetry_cell_setting 'monoclinic'
loop_
_space_group_symop_operation_xyz
x,y,z
-x,y,1/2-z
-x,-y,-z
x,-y,1/2+z
1/2+x,1/2+y,z
1/2-x,1/2+y,1/2-z
1/2-x,1/2-y,-z
1/2+x,1/2-y,1/2+z
loop_
_atom_site_type_symbol
_atom_site_label
_atom_site_fract_x
_atom_site_fract_y
_atom_site_fract_z
Si Si1 0.713538 0.671079 0.121529
Si Si2 0.072089 0.863602 0.249311
Si Si3 0.976374 0.071310 0.112295
Si Si4 0.308718 0.075798 0.272934
Si Si5 0.159251 0.246449 0.486015
Si Si6 0.350879 0.162299 0.667628
Si Si7 0.529949 0.779899 0.962516
Si Si8 0.262277 0.064184 0.519567
O O1 0.617841 0.624059 0.248458
O O2 0.708006 0.746228 0.206262
O O3 0.766018 0.558080 0.050229
O O4 0.750000 0.750000 0.000000
O O5 0.042272 0.778855 0.359615
O O6 0.165632 0.900380 0.143349
O O7 0.018316 0.976820 0.329626
O O8 0.088344 0.809977 0.142008
O O9 0.032307 0.180524 0.022581
O O10 0.000000 0.000000 0.000000
O O11 0.230474 0.154479 0.365898
O O12 0.395751 0.136407 0.128455
O O13 0.304758 0.060821 0.372796
O O14 0.307747 0.956489 0.234828
O O15 0.130435 0.299689 0.447162
O O16 0.198868 0.342364 0.482320
O O17 0.438417 0.163086 0.589758
#
# Coordination Sequence:
#
# PCOD9259591 Si02
#       8
#     8   8   8   8   8   8   8   8
#     4  10  19  35  56  82 115 151 198 246 290 356
#     4   9  16  34  57  83 108 153 197 234 280 358
#     4   8  17  30  55  87 108 141 194 245 280 343
#     4  11  20  39  60  83 114 158 196 235 290 365
#     4  11  22  36  58  86 115 150 198 249 297 336
#     4  11  25  35  53  93 121 148 191 255 304 339
#     4  10  18  36  58  83 118 151 197 233 288 362
#     4  10  18  35  61  79 108 154 207 232 278 358
#
# _framework density 19.526472999999999
#
# number of rings (size 3 to 8) (size 9 to 14) (size 15 to 20)
#    0.000    2.000    3.750    1.125    1.750    0.500 
#    0.000    0.000    0.000    0.000    0.000    0.000 
#    0.000    0.000    0.000    0.000    0.000    0.000 
#
# Total GULP energy -178431.946072 kJ/mol
# GULP energy per Si atom -5575.998315 kJ/mol
# Density = 1.948203 g / cm^3
# Si number density = 19.526473 Si / 1000 Ang^3
#
#
#
# Elastic Constant Matrix: (Units=GPa)
#
#
# Indices 1 2 3 4 5 6 
#
# 1 38.7891 27.7612 14.8482 0.0000 7.4660 0.0000
# 2 27.7612 148.0090 42.9654 0.0000 4.1912 0.0000
# 3 14.8482 42.9654 68.9569 0.0000 7.6710 0.0000
# 4 0.0000 0.0000 0.0000 39.1443 0.0000 14.2058
# 5 7.4660 4.1912 7.6710 0.0000 25.5516 0.0000
# 6 0.0000 0.0000 0.0000 14.2058 0.0000 11.4449
#
#
#
# Elastic Compliance Matrix: (Units=1/GPa)
#
#
# Indices 1 2 3 4 5 6 
#
# 1 0.031893 -0.004906 -0.002962 0.000000 -0.007625 0.000000
# 2 -0.004906 0.009004 -0.004706 0.000000 0.001369 0.000000
# 3 -0.002962 -0.004706 0.018508 0.000000 -0.003919 0.000000
# 4 0.000000 0.000000 0.000000 0.046487 0.000000 -0.057701
# 5 -0.007625 0.001369 -0.003919 0.000000 0.042316 0.000000
# 6 0.000000 0.000000 0.000000 -0.057701 0.000000 0.158996
#
#
# Mechanical properties :
#
#
# Convention : Reuss Voigt Hill
#
# Bulk Modulus (GPa) = 29.19194 47.43382 38.31288
# Shear Modulus (GPa) = 14.54455 26.57352 20.55904
#
# Velocity S-wave (km/s) = 2.73218 3.69304 3.24833
# Velocity P-wave (km/s) = 4.99354 6.52146 5.80797
#
# Compressibility (1/GPa) = 0.03425604
#
# Stress axis : x y z
#
# Youngs Moduli (GPa) = 31.35449 111.06299 54.03118
#
# Poissons Ratio (x) = 0.54490 0.16006
# Poissons Ratio (y) = 0.15383 0.25427
# Poissons Ratio (z) = 0.09288 0.52267
#
# Static dielectric constant tensor:
#      x y z
#    x 1.021380 0.000000 0.786750 
#    y 0.000000 1.653960 0.000000 
#    z 0.786750 0.000000 0.749420 
# 
# From -- ./inp_files/225160.got.cif
#   From: 2010.05.17/outbox.cif.g08.bks.cpg/sg15_113_cif.got.tgz:225160.got - 2010.06.03 18:47:42.
