data_PCOD9259703
_publ_section_title
;
Structure prediction by ZEFSAII (Michael W. Deem and Ramdas Pophale) SiO2 
 PCOD9259703
Probable space group: C 2/C
;
_chemical_formula_sum "Si O2"
_cell_formula_units_Z 56
_cell_length_a 12.433608
_cell_length_b 14.032870
_cell_length_c 18.338154
_cell_angle_alpha 90.000000
_cell_angle_beta 117.382506
_cell_angle_gamma 90.000000
_cell_volume 2841.127109
_symmetry_space_group_name_H-M "C 2/C"
_symmetry_group_IT_number 15
_symmetry_cell_setting 'monoclinic'
loop_
_space_group_symop_operation_xyz
x,y,z
-x,y,1/2-z
-x,-y,-z
x,-y,1/2+z
1/2+x,1/2+y,z
1/2-x,1/2+y,1/2-z
1/2-x,1/2-y,-z
1/2+x,1/2-y,1/2+z
loop_
_atom_site_type_symbol
_atom_site_label
_atom_site_fract_x
_atom_site_fract_y
_atom_site_fract_z
Si Si1 0.264724 0.297881 0.408173
Si Si2 0.256346 0.042003 0.986241
Si Si3 0.605843 0.144062 0.992723
Si Si4 0.331218 0.831082 0.383636
Si Si5 0.227199 0.882284 0.644479
Si Si6 0.039642 0.074879 0.452033
Si Si7 0.364246 0.937091 0.242380
O O1 0.308973 0.189054 0.417196
O O2 0.158298 0.308963 0.434609
O O3 0.382584 0.347821 0.479927
O O4 0.218990 0.361176 0.327636
O O5 0.259369 0.121727 0.926911
O O6 0.138650 0.977432 0.934603
O O7 0.247968 0.084948 0.065736
O O8 0.368573 0.968262 0.011035
O O9 0.468132 0.175727 0.957980
O O10 0.264453 0.731634 0.344711
O O11 0.353053 0.899948 0.321300
O O12 0.085868 0.895732 0.622301
O O13 0.310655 0.956630 0.714269
O O14 0.000000 0.000000 0.500000
O O15 0.500000 0.933398 0.250000
#
# Coordination Sequence:
#
# PCOD9259703 Si02
#       7
#     8   8   8   8   8   8   8
#     4  10  18  35  64  95 114 158 215 254 304 371
#     4  10  21  38  62  94 124 159 209 260 306 375
#     4  10  19  35  66  95 118 156 215 263 295 373
#     4  12  24  38  63  98 126 164 210 264 318 375
#     4  11  22  43  64  86 121 173 209 254 315 383
#     4   9  16  35  67  85 110 159 217 250 296 363
#     4  12  24  42  62  91 133 168 200 265 334 372
#
# _framework density 19.710488000000002
#
# number of rings (size 3 to 8) (size 9 to 14) (size 15 to 20)
#    0.000    1.429    7.143    0.857    0.000    1.143 
#    0.000    2.143    0.000    0.000    0.000    0.000 
#    0.000    0.000    0.000    0.000    0.000    0.000 
#
# Total GULP energy -155901.410825 kJ/mol
# GULP energy per Si atom -5567.907529 kJ/mol
# Density = 1.966563 g / cm^3
# Si number density = 19.710488 Si / 1000 Ang^3
#
#
#
# Elastic Constant Matrix: (Units=GPa)
#
#
# Indices 1 2 3 4 5 6 
#
# 1 62.7706 33.7719 26.2402 0.0000 6.6192 0.0000
# 2 33.7719 110.7817 40.8801 0.0000 -1.9417 0.0000
# 3 26.2402 40.8801 41.1930 0.0000 4.8439 0.0000
# 4 0.0000 0.0000 0.0000 23.4150 0.0000 2.8447
# 5 6.6192 -1.9417 4.8439 0.0000 20.3984 0.0000
# 6 0.0000 0.0000 0.0000 2.8447 0.0000 28.0702
#
#
#
# Elastic Compliance Matrix: (Units=1/GPa)
#
#
# Indices 1 2 3 4 5 6 
#
# 1 0.022599 -0.002973 -0.010853 0.000000 -0.005039 0.000000
# 2 -0.002973 0.015115 -0.013774 0.000000 0.005674 0.000000
# 3 -0.010853 -0.013774 0.045880 0.000000 -0.008684 0.000000
# 4 0.000000 0.000000 0.000000 0.043240 0.000000 -0.004382
# 5 -0.005039 0.005674 -0.008684 0.000000 0.053261 0.000000
# 6 0.000000 0.000000 0.000000 -0.004382 0.000000 0.036069
#
#
# Mechanical properties :
#
#
# Convention : Reuss Voigt Hill
#
# Bulk Modulus (GPa) = 35.21790 46.28108 40.74949
# Shear Modulus (GPa) = 17.80451 21.96693 19.88572
#
# Velocity S-wave (km/s) = 3.00876 3.34200 3.17975
# Velocity P-wave (km/s) = 5.47508 6.19866 5.84807
#
# Compressibility (1/GPa) = 0.02839465
#
# Stress axis : x y z
#
# Youngs Moduli (GPa) = 44.25058 66.15812 21.79603
#
# Poissons Ratio (x) = 0.19667 0.23655
# Poissons Ratio (y) = 0.13154 0.30022
# Poissons Ratio (z) = 0.48024 0.91127
#
# Static dielectric constant tensor:
#      x y z
#    x 1.708410 0.000000 0.022760 
#    y 0.000000 1.811970 0.000000 
#    z 0.022760 0.000000 1.711080 
# 
# From -- ./inp_files/197967.got.cif
#   From: 2010.05.17/outbox.cif.g08.bks.cpg/sg15_99_cif.got.tgz:197967.got - 2010.06.03 18:47:42.
