data_PCOD9259898
_publ_section_title
;
Structure prediction by ZEFSAII (Michael W. Deem and Ramdas Pophale) SiO2 
 PCOD9259898
Probable space group: C 2/C
;
_chemical_formula_sum "Si O2"
_cell_formula_units_Z 40
_cell_length_a 14.960597
_cell_length_b 23.467553
_cell_length_c 11.053160
_cell_angle_alpha 90.000000
_cell_angle_beta 147.995645
_cell_angle_gamma 90.000000
_cell_volume 2056.675238
_symmetry_space_group_name_H-M "C 2/C"
_symmetry_group_IT_number 15
_symmetry_cell_setting 'monoclinic'
loop_
_space_group_symop_operation_xyz
x,y,z
-x,y,1/2-z
-x,-y,-z
x,-y,1/2+z
1/2+x,1/2+y,z
1/2-x,1/2+y,1/2-z
1/2-x,1/2-y,-z
1/2+x,1/2-y,1/2+z
loop_
_atom_site_type_symbol
_atom_site_label
_atom_site_fract_x
_atom_site_fract_y
_atom_site_fract_z
Si Si1 0.795577 0.525159 0.723255
Si Si2 0.235081 0.605602 0.234416
Si Si3 0.000000 0.415728 0.250000
Si Si4 0.310404 0.185057 0.081948
Si Si5 0.500000 0.507402 0.750000
Si Si6 0.133918 0.905320 0.224458
O O1 0.822656 0.459461 0.793122
O O2 0.599842 0.527742 0.460896
O O3 0.788080 0.572457 0.818426
O O4 0.894864 0.544888 0.720414
O O5 0.201246 0.652350 0.300919
O O6 0.439402 0.601203 0.455755
O O7 0.131271 0.616784 0.990675
O O8 0.500000 0.180337 0.250000
O O9 0.250000 0.250000 0.000000
O O10 0.186815 0.151805 0.850000
O O11 0.375559 0.547395 0.680941
#
# Coordination Sequence:
#
# PCOD9259898 Si02
#       6
#     8   8   4   8   4   8
#     4  11  21  34  59  89 133 171 209 260 326 381
#     4  11  23  38  62  90 131 170 214 263 319 381
#     4  12  24  36  54  94 138 170 212 256 316 388
#     4  12  25  43  69  95 125 162 218 272 319 374
#     4  10  18  36  58  86 130 162 208 264 328 384
#     4  11  20  40  62  92 125 169 213 263 325 375
#
# _framework density 19.448865999999999
#
# number of rings (size 3 to 8) (size 9 to 14) (size 15 to 20)
#    0.000    0.800    4.000    7.800    1.400    0.000 
#    0.000    0.000    0.000   12.000    0.000    0.000 
#    0.000    0.000    0.000    0.000    0.000    0.000 
#
# Total GULP energy -111441.360817 kJ/mol
# GULP energy per Si atom -5572.068041 kJ/mol
# Density = 1.940460 g / cm^3
# Si number density = 19.448866 Si / 1000 Ang^3
#
#
#
# Elastic Constant Matrix: (Units=GPa)
#
#
# Indices 1 2 3 4 5 6 
#
# 1 142.2498 66.1345 40.8654 0.0000 7.7328 0.0000
# 2 66.1345 100.1023 60.6139 0.0000 -2.2732 0.0000
# 3 40.8654 60.6139 108.4144 0.0000 -16.9763 0.0000
# 4 0.0000 0.0000 0.0000 34.8607 0.0000 -15.1073
# 5 7.7328 -2.2732 -16.9763 0.0000 31.4044 0.0000
# 6 0.0000 0.0000 0.0000 -15.1073 0.0000 28.1658
#
#
#
# Elastic Compliance Matrix: (Units=1/GPa)
#
#
# Indices 1 2 3 4 5 6 
#
# 1 0.010485 -0.006469 -0.000888 0.000000 -0.003530 0.000000
# 2 -0.006469 0.019520 -0.008744 0.000000 -0.001721 0.000000
# 3 -0.000888 -0.008744 0.015712 0.000000 0.008079 0.000000
# 4 0.000000 0.000000 0.000000 0.037372 0.000000 0.020045
# 5 -0.003530 -0.001721 0.008079 0.000000 0.036955 0.000000
# 6 0.000000 0.000000 0.000000 0.020045 0.000000 0.046256
#
#
# Mechanical properties :
#
#
# Convention : Reuss Voigt Hill
#
# Bulk Modulus (GPa) = 73.99800 76.22155 75.10977
# Shear Modulus (GPa) = 24.62965 31.09636 27.86301
#
# Velocity S-wave (km/s) = 3.56248 4.00294 3.78911
# Velocity P-wave (km/s) = 7.41969 7.78720 7.60566
#
# Compressibility (1/GPa) = 0.01351388
#
# Stress axis : x y z
#
# Youngs Moduli (GPa) = 95.37844 51.23026 63.64366
#
# Poissons Ratio (x) = 0.33143 0.05650
# Poissons Ratio (y) = 0.61705 0.55652
# Poissons Ratio (z) = 0.08467 0.44797
#
# Static dielectric constant tensor:
#      x y z
#    x 1.786750 0.000000 -0.008020 
#    y 0.000000 1.667830 0.000000 
#    z -0.008020 0.000000 1.821880 
# 
# From -- ./inp_files/41622.got.cif
#   From: 2010.05.17/outbox.cif.g08.bks.cpg/sg15_21_cif.got.tgz:41622.got - 2010.06.03 18:47:42.
