data_PCOD9259240
_publ_section_title
;
Structure prediction by ZEFSAII (Michael W. Deem and Ramdas Pophale) SiO2 
 PCOD9259240
Probable space group: C 2/C
;
_chemical_formula_sum "Si O2"
_cell_formula_units_Z 64
_cell_length_a 9.195344
_cell_length_b 27.309282
_cell_length_c 13.463322
_cell_angle_alpha 90.000000
_cell_angle_beta 68.537723
_cell_angle_gamma 90.000000
_cell_volume 3146.450633
_symmetry_space_group_name_H-M "C 2/C"
_symmetry_group_IT_number 15
_symmetry_cell_setting 'monoclinic'
loop_
_space_group_symop_operation_xyz
x,y,z
-x,y,1/2-z
-x,-y,-z
x,-y,1/2+z
1/2+x,1/2+y,z
1/2-x,1/2+y,1/2-z
1/2-x,1/2-y,-z
1/2+x,1/2-y,1/2+z
loop_
_atom_site_type_symbol
_atom_site_label
_atom_site_fract_x
_atom_site_fract_y
_atom_site_fract_z
Si Si1 0.807559 0.213853 0.074250
Si Si2 0.250055 0.368372 0.464246
Si Si3 0.815891 0.205081 0.770970
Si Si4 0.877030 0.023410 0.360003
Si Si5 0.963751 0.927266 0.142847
Si Si6 0.591394 0.040613 0.915563
Si Si7 0.708616 0.906511 0.061202
Si Si8 0.318468 0.298895 0.035182
O O1 0.755730 0.242396 0.183839
O O2 0.750000 0.250000 0.000000
O O3 0.716215 0.164645 0.067687
O O4 0.993314 0.204566 0.027359
O O5 0.243961 0.335649 0.364533
O O6 0.426179 0.387293 0.435310
O O7 0.155290 0.417484 0.472683
O O8 0.792700 0.198938 0.660422
O O9 0.000000 0.205005 0.750000
O O10 0.798697 0.061365 0.454375
O O11 0.000000 0.044805 0.250000
O O12 0.741305 0.990393 0.339541
O O13 0.975822 0.981785 0.393222
O O14 0.794596 0.916534 0.143990
O O15 0.000000 0.919451 0.250000
O O16 0.464408 0.071051 0.885513
O O17 0.500000 0.000000 0.000000
O O18 0.733683 0.849750 0.023704
O O19 0.250000 0.250000 0.000000
#
# Coordination Sequence:
#
# PCOD9259240 Si02
#       8
#     8   8   8   8   8   8   8   8
#     4  10  21  39  66  90 123 173 217 263 315 390
#     4  10  18  36  65  91 124 164 224 253 309 395
#     4  11  21  40  66  90 122 167 222 264 316 382
#     4   9  20  40  63  91 127 167 212 258 317 394
#     4  10  18  34  62  93 119 159 211 258 304 379
#     4   9  21  38  64  97 134 167 206 268 325 378
#     4  11  21  39  64  92 128 170 212 261 332 378
#     4  12  26  42  61  97 135 167 215 279 329 373
#
# _framework density 20.34038
#
# number of rings (size 3 to 8) (size 9 to 14) (size 15 to 20)
#    0.000    1.750    3.750    1.500    3.500    1.000 
#    2.250    9.375    0.000    0.000    0.000    0.000 
#    0.000    0.000    0.000    0.000    0.000    0.000 
#
# Total GULP energy -178283.333128 kJ/mol
# GULP energy per Si atom -5571.354160 kJ/mol
# Density = 2.029408 g / cm^3
# Si number density = 20.340380 Si / 1000 Ang^3
#
#
#
# Elastic Constant Matrix: (Units=GPa)
#
#
# Indices 1 2 3 4 5 6 
#
# 1 113.8876 35.7294 8.8096 0.0000 2.5212 0.0000
# 2 35.7294 139.1322 40.7399 0.0000 1.5322 0.0000
# 3 8.8096 40.7399 59.3260 0.0000 -5.7713 0.0000
# 4 0.0000 0.0000 0.0000 27.8531 0.0000 -4.0544
# 5 2.5212 1.5322 -5.7713 0.0000 22.1506 0.0000
# 6 0.0000 0.0000 0.0000 -4.0544 0.0000 32.1773
#
#
#
# Elastic Compliance Matrix: (Units=1/GPa)
#
#
# Indices 1 2 3 4 5 6 
#
# 1 0.009571 -0.002513 0.000221 0.000000 -0.000858 0.000000
# 2 -0.002513 0.009771 -0.006540 0.000000 -0.002094 0.000000
# 3 0.000221 -0.006540 0.021911 0.000000 0.006136 0.000000
# 4 0.000000 0.000000 0.000000 0.036573 0.000000 0.004608
# 5 -0.000858 -0.002094 0.006136 0.000000 0.046987 0.000000
# 6 0.000000 0.000000 0.000000 0.004608 0.000000 0.031658
#
#
# Mechanical properties :
#
#
# Convention : Reuss Voigt Hill
#
# Bulk Modulus (GPa) = 42.39340 53.65596 48.02468
# Shear Modulus (GPa) = 27.47260 31.57400 29.52330
#
# Velocity S-wave (km/s) = 3.67910 3.94417 3.81394
# Velocity P-wave (km/s) = 6.23978 6.86865 6.56175
#
# Compressibility (1/GPa) = 0.02358858
#
# Stress axis : x y z
#
# Youngs Moduli (GPa) = 104.48331 102.34413 45.63820
#
# Poissons Ratio (x) = 0.25720 -0.01009
# Poissons Ratio (y) = 0.26258 0.29849
# Poissons Ratio (z) = -0.02310 0.66937
#
# Static dielectric constant tensor:
#      x y z
#    x 1.800390 0.000000 0.008300 
#    y 0.000000 1.768330 0.000000 
#    z 0.008300 0.000000 1.764370 
# 
# From -- ./inp_files/138582.got.cif
#   From: 2010.05.17/outbox.cif.g08.bks.cpg/sg15_70_cif.got.tgz:138582.got - 2010.06.03 18:47:42.
