data_PCOD9259128
_publ_section_title
;
Structure prediction by ZEFSAII (Michael W. Deem and Ramdas Pophale) SiO2 
 PCOD9259128
Probable space group: C 2/C
;
_chemical_formula_sum "Si O2"
_cell_formula_units_Z 44
_cell_length_a 11.430276
_cell_length_b 14.649538
_cell_length_c 15.286827
_cell_angle_alpha 90.000000
_cell_angle_beta 132.503882
_cell_angle_gamma 90.000000
_cell_volume 1887.130422
_symmetry_space_group_name_H-M "C 2/C"
_symmetry_group_IT_number 15
_symmetry_cell_setting 'monoclinic'
loop_
_space_group_symop_operation_xyz
x,y,z
-x,y,1/2-z
-x,-y,-z
x,-y,1/2+z
1/2+x,1/2+y,z
1/2-x,1/2+y,1/2-z
1/2-x,1/2-y,-z
1/2+x,1/2-y,1/2+z
loop_
_atom_site_type_symbol
_atom_site_label
_atom_site_fract_x
_atom_site_fract_y
_atom_site_fract_z
Si Si1 0.000000 0.930575 0.750000
Si Si2 0.289029 0.773294 0.675141
Si Si3 0.237101 0.479581 0.348831
Si Si4 0.226500 0.426085 0.153569
Si Si5 0.559181 0.887815 0.891638
Si Si6 0.005657 0.132105 0.441613
O O1 0.848578 0.996049 0.685686
O O2 0.025386 0.871372 0.848399
O O3 0.324228 0.668592 0.712795
O O4 0.382906 0.845640 0.785629
O O5 0.344415 0.805588 0.607544
O O6 0.099184 0.781909 0.585395
O O7 0.163416 0.454829 0.217216
O O8 0.129335 0.527832 0.368168
O O9 0.381069 0.550945 0.403586
O O10 0.327967 0.390082 0.429879
O O11 0.102608 0.409298 0.012721
#
# Coordination Sequence:
#
# PCOD9259128 Si02
#       6
#     4   8   8   8   8   8
#     4  10  18  34  60  88 106 162 206 232 292 356
#     4  10  22  34  57  90 130 146 193 257 306 339
#     4   9  19  35  58  85 119 157 203 239 291 365
#     4  11  21  33  63  91 116 159 199 242 305 354
#     4  10  20  39  54  89 129 155 192 251 302 355
#     4   9  18  35  56  85 119 153 202 248 283 359
#
# _framework density 23.315823000000002
#
# number of rings (size 3 to 8) (size 9 to 14) (size 15 to 20)
#    0.000    2.182    1.818    1.636    5.091    0.000 
#    0.000   14.545    0.000    7.636    0.000    0.000 
#    0.000    0.000    0.000    0.000    0.000    0.000 
#
# Total GULP energy -122696.271081 kJ/mol
# GULP energy per Si atom -5577.103231 kJ/mol
# Density = 2.326276 g / cm^3
# Si number density = 23.315823 Si / 1000 Ang^3
#
#
#
# Elastic Constant Matrix: (Units=GPa)
#
#
# Indices 1 2 3 4 5 6 
#
# 1 85.2912 30.1576 27.8035 0.0000 -8.6863 0.0000
# 2 30.1576 49.1241 12.5942 0.0000 -10.7863 0.0000
# 3 27.8035 12.5942 150.0575 0.0000 -15.0785 0.0000
# 4 0.0000 0.0000 0.0000 26.9378 0.0000 -1.0739
# 5 -8.6863 -10.7863 -15.0785 0.0000 26.4915 0.0000
# 6 0.0000 0.0000 0.0000 -1.0739 0.0000 12.4778
#
#
#
# Elastic Compliance Matrix: (Units=1/GPa)
#
#
# Indices 1 2 3 4 5 6 
#
# 1 0.015618 -0.008990 -0.002113 0.000000 0.000258 0.000000
# 2 -0.008990 0.027678 0.000190 0.000000 0.008430 0.000000
# 3 -0.002113 0.000190 0.007401 0.000000 0.003597 0.000000
# 4 0.000000 0.000000 0.000000 0.037250 0.000000 0.003206
# 5 0.000258 0.008430 0.003597 0.000000 0.043312 0.000000
# 6 0.000000 0.000000 0.000000 0.003206 0.000000 0.080419
#
#
# Mechanical properties :
#
#
# Convention : Reuss Voigt Hill
#
# Bulk Modulus (GPa) = 34.63748 47.28705 40.96227
# Shear Modulus (GPa) = 20.56523 27.44257 24.00390
#
# Velocity S-wave (km/s) = 2.97312 3.43446 3.21208
# Velocity P-wave (km/s) = 5.16468 6.00437 5.60029
#
# Compressibility (1/GPa) = 0.02887046
#
# Stress axis : x y z
#
# Youngs Moduli (GPa) = 64.02704 36.13004 135.11299
#
# Poissons Ratio (x) = 0.32480 0.28555
# Poissons Ratio (y) = 0.57559 -0.02564
# Poissons Ratio (z) = 0.13532 -0.00686
#
# Static dielectric constant tensor:
#      x y z
#    x 1.874050 0.000000 0.051480 
#    y 0.000000 1.934810 0.000000 
#    z 0.051480 0.000000 1.954000 
# 
# From -- ./inp_files/145845.got.cif
#   From: 2010.05.17/outbox.cif.g08.bks.cpg/sg15_73_cif.got.tgz:145845.got - 2010.06.03 18:47:42.
