data_PCOD9259411
_publ_section_title
;
Structure prediction by ZEFSAII (Michael W. Deem and Ramdas Pophale) SiO2 
 PCOD9259411
Probable space group: C 2/C
;
_chemical_formula_sum "Si O2"
_cell_formula_units_Z 48
_cell_length_a 9.523929
_cell_length_b 15.863171
_cell_length_c 22.121859
_cell_angle_alpha 90.000000
_cell_angle_beta 130.426946
_cell_angle_gamma 90.000000
_cell_volume 2544.167020
_symmetry_space_group_name_H-M "C 2/C"
_symmetry_group_IT_number 15
_symmetry_cell_setting 'monoclinic'
loop_
_space_group_symop_operation_xyz
x,y,z
-x,y,1/2-z
-x,-y,-z
x,-y,1/2+z
1/2+x,1/2+y,z
1/2-x,1/2+y,1/2-z
1/2-x,1/2-y,-z
1/2+x,1/2-y,1/2+z
loop_
_atom_site_type_symbol
_atom_site_label
_atom_site_fract_x
_atom_site_fract_y
_atom_site_fract_z
Si Si1 0.012472 0.075894 0.654635
Si Si2 0.558818 0.168539 0.990654
Si Si3 0.806548 0.419062 0.332639
Si Si4 0.402922 0.657651 0.498365
Si Si5 0.610638 0.573861 0.449320
Si Si6 0.930088 0.561989 0.066138
O O1 0.199602 0.099744 0.741186
O O2 0.847498 0.080453 0.657377
O O3 0.968582 0.134249 0.584488
O O4 0.012720 0.978756 0.631951
O O5 0.457144 0.147375 0.899112
O O6 0.474898 0.252060 0.996685
O O7 0.778447 0.156265 0.043046
O O8 0.505065 0.095907 0.023654
O O9 0.907157 0.510050 0.356725
O O10 0.497220 0.595797 0.476713
O O11 0.183059 0.638838 0.434909
O O12 0.771593 0.507406 0.510541
#
# Coordination Sequence:
#
# PCOD9259411 Si02
#       6
#     8   8   8   8   8   8
#     4  10  19  35  57  80 109 147 191 228 276 323
#     4  11  19  36  58  84 108 146 184 224 276 337
#     4  10  19  34  59  79 107 148 192 231 268 328
#     4  11  22  33  58  86 115 139 180 236 283 324
#     4  10  19  37  56  79 108 147 186 220 269 338
#     4  10  18  35  57  80 102 144 195 219 259 335
#
# _framework density 18.866686000000001
#
# number of rings (size 3 to 8) (size 9 to 14) (size 15 to 20)
#    0.000    1.667    5.000    4.000    0.000    0.000 
#    0.000    9.167    0.000    0.000    0.000    0.000 
#    0.000    0.000    0.000    0.000    0.000    0.000 
#
# Total GULP energy -133706.826717 kJ/mol
# GULP energy per Si atom -5571.117780 kJ/mol
# Density = 1.882374 g / cm^3
# Si number density = 18.866686 Si / 1000 Ang^3
#
#
#
# Elastic Constant Matrix: (Units=GPa)
#
#
# Indices 1 2 3 4 5 6 
#
# 1 89.0095 14.5705 17.6701 0.0000 -5.4165 0.0000
# 2 14.5705 80.2270 27.4477 0.0000 -3.3751 0.0000
# 3 17.6701 27.4477 94.3964 0.0000 0.2865 0.0000
# 4 0.0000 0.0000 0.0000 13.2079 0.0000 -3.0833
# 5 -5.4165 -3.3751 0.2865 0.0000 15.7814 0.0000
# 6 0.0000 0.0000 0.0000 -3.0833 0.0000 43.2126
#
#
#
# Elastic Compliance Matrix: (Units=1/GPa)
#
#
# Indices 1 2 3 4 5 6 
#
# 1 0.012069 -0.001390 -0.001867 0.000000 0.003879 0.000000
# 2 -0.001390 0.014148 -0.003862 0.000000 0.002619 0.000000
# 3 -0.001867 -0.003862 0.012071 0.000000 -0.001686 0.000000
# 4 0.000000 0.000000 0.000000 0.076995 0.000000 0.005494
# 5 0.003879 0.002619 -0.001686 0.000000 0.065288 0.000000
# 6 0.000000 0.000000 0.000000 0.005494 0.000000 0.023533
#
#
# Mechanical properties :
#
#
# Convention : Reuss Voigt Hill
#
# Bulk Modulus (GPa) = 41.57768 42.55662 42.06715
# Shear Modulus (GPa) = 22.08884 28.03668 25.06276
#
# Velocity S-wave (km/s) = 3.42539 3.85910 3.64869
# Velocity P-wave (km/s) = 6.14246 6.51631 6.33215
#
# Compressibility (1/GPa) = 0.02405137
#
# Stress axis : x y z
#
# Youngs Moduli (GPa) = 82.85742 70.67913 82.84278
#
# Poissons Ratio (x) = 0.09825 0.15465
# Poissons Ratio (y) = 0.11518 0.31991
# Poissons Ratio (z) = 0.15468 0.27294
#
# Static dielectric constant tensor:
#      x y z
#    x 1.678740 0.000000 0.030670 
#    y 0.000000 1.747870 0.000000 
#    z 0.030670 0.000000 1.661130 
# 
# From -- ./inp_files/189946.got.cif
#   From: 2010.05.17/outbox.cif.g08.bks.cpg/sg15_95_cif.got.tgz:189946.got - 2010.06.03 18:47:42.
