data_PCOD9259800
_publ_section_title
;
Structure prediction by ZEFSAII (Michael W. Deem and Ramdas Pophale) SiO2 
 PCOD9259800
Probable space group: C 2/C
;
_chemical_formula_sum "Si O2"
_cell_formula_units_Z 48
_cell_length_a 11.456280
_cell_length_b 12.600963
_cell_length_c 20.037187
_cell_angle_alpha 90.000000
_cell_angle_beta 136.481444
_cell_angle_gamma 90.000000
_cell_volume 1991.794272
_symmetry_space_group_name_H-M "C 2/C"
_symmetry_group_IT_number 15
_symmetry_cell_setting 'monoclinic'
loop_
_space_group_symop_operation_xyz
x,y,z
-x,y,1/2-z
-x,-y,-z
x,-y,1/2+z
1/2+x,1/2+y,z
1/2-x,1/2+y,1/2-z
1/2-x,1/2-y,-z
1/2+x,1/2-y,1/2+z
loop_
_atom_site_type_symbol
_atom_site_label
_atom_site_fract_x
_atom_site_fract_y
_atom_site_fract_z
Si Si1 0.134272 0.862230 0.879949
Si Si2 0.606670 0.098936 0.356832
Si Si3 0.813110 0.358479 0.091997
Si Si4 0.106048 0.540914 0.107389
Si Si5 0.587873 0.431871 0.216943
Si Si6 0.487847 0.381239 0.029159
O O1 0.066938 0.742605 0.851807
O O2 0.242356 0.889732 0.859953
O O3 0.264137 0.875472 0.995101
O O4 0.994979 0.952196 0.831468
O O5 0.500000 0.139362 0.250000
O O6 0.507217 0.101502 0.385538
O O7 0.792666 0.149899 0.438742
O O8 0.634200 0.971397 0.357536
O O9 0.634758 0.321825 0.050582
O O10 0.211526 0.446565 0.187983
O O11 0.000000 0.500000 0.000000
O O12 0.500000 0.395171 0.250000
O O13 0.537217 0.374831 0.127536
O O14 0.500000 0.500000 0.000000
#
# Coordination Sequence:
#
# PCOD9259800 Si02
#       6
#     8   8   8   8   8   8
#     4  10  20  36  58  83 110 148 188 235 284 330
#     4  11  21  33  58  85 113 143 190 234 281 334
#     4  10  20  36  58  83 113 144 189 238 281 330
#     4  11  20  35  54  85 114 148 187 231 277 338
#     4  10  19  34  57  81 112 151 187 229 280 335
#     4  10  18  36  56  81 111 150 186 228 279 335
#
# _framework density 24.098875
#
# number of rings (size 3 to 8) (size 9 to 14) (size 15 to 20)
#    0.000    1.667    5.000    3.000    0.000    2.000 
#    0.000    0.833    0.000    1.000    0.000    0.000 
#    0.000    0.000    0.000    0.000    0.000    0.000 
#
# Total GULP energy -134069.932796 kJ/mol
# GULP energy per Si atom -5586.247200 kJ/mol
# Density = 2.404402 g / cm^3
# Si number density = 24.098875 Si / 1000 Ang^3
#
#
#
# Elastic Constant Matrix: (Units=GPa)
#
#
# Indices 1 2 3 4 5 6 
#
# 1 110.8407 -20.5419 41.6900 0.0000 -22.2321 0.0000
# 2 -20.5419 49.5417 4.4067 0.0000 2.8077 0.0000
# 3 41.6900 4.4067 155.6538 0.0000 -26.9641 0.0000
# 4 0.0000 0.0000 0.0000 10.3902 0.0000 4.3369
# 5 -22.2321 2.8077 -26.9641 0.0000 39.1159 0.0000
# 6 0.0000 0.0000 0.0000 4.3369 0.0000 11.5264
#
#
#
# Elastic Compliance Matrix: (Units=1/GPa)
#
#
# Indices 1 2 3 4 5 6 
#
# 1 0.011787 0.004846 -0.002491 0.000000 0.004634 0.000000
# 2 0.004846 0.022381 -0.001968 0.000000 -0.000209 0.000000
# 3 -0.002491 -0.001968 0.007866 0.000000 0.004148 0.000000
# 4 0.000000 0.000000 0.000000 0.114176 0.000000 -0.042960
# 5 0.004634 -0.000209 0.004148 0.000000 0.031073 0.000000
# 6 0.000000 0.000000 0.000000 -0.042960 0.000000 0.102921
#
#
# Mechanical properties :
#
#
# Convention : Reuss Voigt Hill
#
# Bulk Modulus (GPa) = 23.36013 40.79399 32.07706
# Shear Modulus (GPa) = 16.46365 31.57192 24.01778
#
# Velocity S-wave (km/s) = 2.61659 3.62346 3.16038
# Velocity P-wave (km/s) = 4.34088 5.87115 5.16302
#
# Compressibility (1/GPa) = 0.04280798
#
# Stress axis : x y z
#
# Youngs Moduli (GPa) = 84.84202 44.68018 127.12949
#
# Poissons Ratio (x) = -0.21653 0.31673
# Poissons Ratio (y) = -0.41116 0.25016
# Poissons Ratio (z) = 0.21137 0.08792
#
# Static dielectric constant tensor:
#      x y z
#    x 1.918950 0.000000 0.007880 
#    y 0.000000 2.054940 0.000000 
#    z 0.007880 0.000000 1.968120 
# 
# From -- ./inp_files/239043.got.cif
#   From: 2010.05.17/outbox.cif.g08.bks.cpg/sg15_120_cif.got.tgz:239043.got - 2010.06.03 18:47:42.
