data_PCOD9259348
_publ_section_title
;
Structure prediction by ZEFSAII (Michael W. Deem and Ramdas Pophale) SiO2 
 PCOD9259348
Probable space group: C 2/C
;
_chemical_formula_sum "Si O2"
_cell_formula_units_Z 52
_cell_length_a 8.336379
_cell_length_b 29.028106
_cell_length_c 15.907487
_cell_angle_alpha 90.000000
_cell_angle_beta 141.374138
_cell_angle_gamma 90.000000
_cell_volume 2402.945719
_symmetry_space_group_name_H-M "C 2/C"
_symmetry_group_IT_number 15
_symmetry_cell_setting 'monoclinic'
loop_
_space_group_symop_operation_xyz
x,y,z
-x,y,1/2-z
-x,-y,-z
x,-y,1/2+z
1/2+x,1/2+y,z
1/2-x,1/2+y,1/2-z
1/2-x,1/2-y,-z
1/2+x,1/2-y,1/2+z
loop_
_atom_site_type_symbol
_atom_site_label
_atom_site_fract_x
_atom_site_fract_y
_atom_site_fract_z
Si Si1 0.500000 0.806776 0.250000
Si Si2 0.500000 0.207368 0.250000
Si Si3 0.212313 0.956109 0.505524
Si Si4 0.500000 0.434311 0.250000
Si Si5 0.295706 0.052378 0.594975
Si Si6 0.992427 0.370553 0.412702
Si Si7 0.345495 0.147764 0.027129
Si Si8 0.523719 0.275522 0.130769
O O1 0.492683 0.836515 0.333103
O O2 0.766508 0.778733 0.356071
O O3 0.411090 0.173231 0.140518
O O4 0.655567 0.245871 0.259178
O O5 0.338872 0.906280 0.545203
O O6 0.085638 0.964797 0.363124
O O7 0.984250 0.949783 0.478920
O O8 0.370460 0.001093 0.595435
O O9 0.733658 0.401496 0.316443
O O10 0.500000 0.066732 0.750000
O O11 0.299605 0.090356 0.524039
O O12 0.018075 0.346504 0.514166
O O13 0.076074 0.172778 0.891583
O O14 0.250000 0.250000 0.000000
#
# Coordination Sequence:
#
# PCOD9259348 Si02
#       8
#     4   4   8   4   8   8   8   8
#     4  12  20  38  71  94 123 170 212 270 322 388
#     4  10  22  45  61  88 134 168 201 274 334 387
#     4  10  22  37  60  89 126 172 213 267 321 381
#     4  10  18  35  54  88 121 162 219 264 310 375
#     4  11  21  38  57  92 132 165 216 266 318 378
#     4  11  20  35  63  96 124 163 221 265 307 393
#     4  10  22  40  65  92 125 171 216 259 329 392
#     4  10  22  41  65  94 126 164 214 266 328 391
#
# _framework density 21.640107
#
# number of rings (size 3 to 8) (size 9 to 14) (size 15 to 20)
#    0.000    1.538    2.308    3.692    1.077    3.077 
#    0.000   15.385    0.000    0.000    0.000    0.000 
#    0.000    0.000    0.000    0.000    0.000    0.000 
#
# Total GULP energy -144739.973504 kJ/mol
# GULP energy per Si atom -5566.922058 kJ/mol
# Density = 2.159085 g / cm^3
# Si number density = 21.640107 Si / 1000 Ang^3
#
#
#
# Elastic Constant Matrix: (Units=GPa)
#
#
# Indices 1 2 3 4 5 6 
#
# 1 147.6428 43.4539 40.0677 0.0000 -13.9238 0.0000
# 2 43.4539 86.0815 30.4590 0.0000 -20.5094 0.0000
# 3 40.0677 30.4590 45.3106 0.0000 -24.1639 0.0000
# 4 0.0000 0.0000 0.0000 34.9983 0.0000 -15.5026
# 5 -13.9238 -20.5094 -24.1639 0.0000 35.8730 0.0000
# 6 0.0000 0.0000 0.0000 -15.5026 0.0000 -6.3983
#
#
#
# Elastic Compliance Matrix: (Units=1/GPa)
#
#
# Indices 1 2 3 4 5 6 
#
# 1 0.009537 -0.002634 -0.008570 0.000000 -0.003577 0.000000
# 2 -0.002634 0.016156 -0.006478 0.000000 0.003851 0.000000
# 3 -0.008570 -0.006478 0.047215 0.000000 0.024774 0.000000
# 4 0.000000 0.000000 0.000000 0.013782 0.000000 -0.033392
# 5 -0.003577 0.003851 0.024774 0.000000 0.045377 0.000000
# 6 0.000000 0.000000 0.000000 -0.033392 0.000000 -0.075385
#
#
# Mechanical properties :
#
#
# Convention : Reuss Voigt Hill
#
# Bulk Modulus (GPa) = 26.63556 56.33290 41.48423
# Shear Modulus (GPa) = 47.81929 23.89822 35.85875
#
# Velocity S-wave (km/s) = 4.70590 3.32678 4.07510
# Velocity P-wave (km/s) = 6.47012 6.39100 6.43068
#
# Compressibility (1/GPa) = 0.03754380
#
# Stress axis : x y z
#
# Youngs Moduli (GPa) = 104.85674 61.89615 21.17974
#
# Poissons Ratio (x) = 0.16303 0.18152
# Poissons Ratio (y) = 0.27618 0.13720
# Poissons Ratio (z) = 0.89867 0.40094
#
# Static dielectric constant tensor:
#      x y z
#    x 1.822320 0.000000 -0.026150 
#    y 0.000000 1.848630 0.000000 
#    z -0.026150 0.000000 1.915520 
# 
# From -- ./inp_files/194031.got.cif
#   From: 2010.05.17/outbox.cif.g08.bks.cpg/sg15_98_cif.got.tgz:194031.got - 2010.06.03 18:47:42.
