data_PCOD9259933
_publ_section_title
;
Structure prediction by ZEFSAII (Michael W. Deem and Ramdas Pophale) SiO2 
 PCOD9259933
Probable space group: C 2/C
;
_chemical_formula_sum "Si O2"
_cell_formula_units_Z 56
_cell_length_a 8.202071
_cell_length_b 30.378596
_cell_length_c 12.283808
_cell_angle_alpha 90.000000
_cell_angle_beta 112.828817
_cell_angle_gamma 90.000000
_cell_volume 2820.972253
_symmetry_space_group_name_H-M "C 2/C"
_symmetry_group_IT_number 15
_symmetry_cell_setting 'monoclinic'
loop_
_space_group_symop_operation_xyz
x,y,z
-x,y,1/2-z
-x,-y,-z
x,-y,1/2+z
1/2+x,1/2+y,z
1/2-x,1/2+y,1/2-z
1/2-x,1/2-y,-z
1/2+x,1/2-y,1/2+z
loop_
_atom_site_type_symbol
_atom_site_label
_atom_site_fract_x
_atom_site_fract_y
_atom_site_fract_z
Si Si1 0.000000 0.175817 0.750000
Si Si2 0.500000 0.095912 0.250000
Si Si3 0.688279 0.647609 0.081052
Si Si4 0.464399 0.948907 0.975140
Si Si5 0.374867 0.607097 0.112728
Si Si6 0.142580 0.685327 0.987181
Si Si7 0.517414 0.725127 0.533492
Si Si8 0.331792 0.127337 0.876826
O O1 0.027413 0.208016 0.858719
O O2 0.836829 0.143205 0.733715
O O3 0.331304 0.127824 0.199608
O O4 0.501908 0.066737 0.141077
O O5 0.511151 0.618376 0.050762
O O6 0.622588 0.697972 0.077318
O O7 0.773233 0.640719 0.984781
O O8 0.263119 0.932212 0.943920
O O9 0.596160 0.921825 0.089214
O O10 0.500000 0.000000 0.000000
O O11 0.500000 0.600301 0.250000
O O12 0.252660 0.650985 0.089460
O O13 0.287383 0.707989 0.948400
O O14 0.000064 0.656190 0.887824
O O15 0.032453 0.723017 0.020918
#
# Coordination Sequence:
#
# PCOD9259933 Si02
#       8
#     4   4   8   8   8   8   8   8
#     4  10  20  36  53  80 114 156 190 226 281 352
#     4  10  18  36  59  84 112 148 188 228 293 334
#     4   9  18  33  58  80 111 149 184 236 274 343
#     4  10  21  39  60  85 114 139 185 243 280 347
#     4  10  18  36  59  83 109 145 190 225 291 338
#     4   9  19  37  54  78 115 151 185 251 273 330
#     4   9  19  37  53  79 116 149 201 232 283 328
#     4   9  20  38  55  77 115 146 186 227 289 331
#
# _framework density 19.851313000000001
#
# number of rings (size 3 to 8) (size 9 to 14) (size 15 to 20)
#    0.000    2.571    1.429    0.000    0.000    2.857 
#   11.571    9.286    0.000    0.000    0.000    0.000 
#    0.000    0.000    0.000    0.000    0.000    0.000 
#
# Total GULP energy -155984.535486 kJ/mol
# GULP energy per Si atom -5570.876267 kJ/mol
# Density = 1.980613 g / cm^3
# Si number density = 19.851313 Si / 1000 Ang^3
#
#
#
# Elastic Constant Matrix: (Units=GPa)
#
#
# Indices 1 2 3 4 5 6 
#
# 1 77.8346 40.4013 13.0976 0.0000 18.2840 0.0000
# 2 40.4013 156.1988 36.3520 0.0000 26.6947 0.0000
# 3 13.0976 36.3520 42.6565 0.0000 7.0184 0.0000
# 4 0.0000 0.0000 0.0000 10.1210 0.0000 -3.2444
# 5 18.2840 26.6947 7.0184 0.0000 30.6830 0.0000
# 6 0.0000 0.0000 0.0000 -3.2444 0.0000 20.8780
#
#
#
# Elastic Compliance Matrix: (Units=1/GPa)
#
#
# Indices 1 2 3 4 5 6 
#
# 1 0.016103 -0.002608 -0.001576 0.000000 -0.006967 0.000000
# 2 -0.002608 0.009457 -0.006401 0.000000 -0.005209 0.000000
# 3 -0.001576 -0.006401 0.029418 0.000000 -0.000221 0.000000
# 4 0.000000 0.000000 0.000000 0.103984 0.000000 0.016159
# 5 -0.006967 -0.005209 -0.000221 0.000000 0.041325 0.000000
# 6 0.000000 0.000000 0.000000 0.016159 0.000000 0.050409
#
#
# Mechanical properties :
#
#
# Convention : Reuss Voigt Hill
#
# Bulk Modulus (GPa) = 29.57837 50.71022 40.14429
# Shear Modulus (GPa) = 17.65942 24.79232 21.22587
#
# Velocity S-wave (km/s) = 2.98583 3.53781 3.27348
# Velocity P-wave (km/s) = 5.17872 6.50297 5.87826
#
# Compressibility (1/GPa) = 0.03380849
#
# Stress axis : x y z
#
# Youngs Moduli (GPa) = 62.10011 105.74621 33.99237
#
# Poissons Ratio (x) = 0.27576 0.05357
# Poissons Ratio (y) = 0.16194 0.21759
# Poissons Ratio (z) = 0.09786 0.67690
#
# Static dielectric constant tensor:
#      x y z
#    x 1.743780 0.000000 0.007740 
#    y 0.000000 1.690080 0.000000 
#    z 0.007740 0.000000 1.763430 
# 
# From -- ./inp_files/138720.got.cif
#   From: 2010.05.17/outbox.cif.g08.bks.cpg/sg15_70_cif.got.tgz:138720.got - 2010.06.03 18:47:42.
