data_PCOD9259428
_publ_section_title
;
Structure prediction by ZEFSAII (Michael W. Deem and Ramdas Pophale) SiO2 
 PCOD9259428
Probable space group: C 2/C
;
_chemical_formula_sum "Si O2"
_cell_formula_units_Z 56
_cell_length_a 25.687390
_cell_length_b 20.224758
_cell_length_c 16.783693
_cell_angle_alpha 90.000000
_cell_angle_beta 21.909494
_cell_angle_gamma 90.000000
_cell_volume 3253.601938
_symmetry_space_group_name_H-M "C 2/C"
_symmetry_group_IT_number 15
_symmetry_cell_setting 'monoclinic'
loop_
_space_group_symop_operation_xyz
x,y,z
-x,y,1/2-z
-x,-y,-z
x,-y,1/2+z
1/2+x,1/2+y,z
1/2-x,1/2+y,1/2-z
1/2-x,1/2-y,-z
1/2+x,1/2-y,1/2+z
loop_
_atom_site_type_symbol
_atom_site_label
_atom_site_fract_x
_atom_site_fract_y
_atom_site_fract_z
Si Si1 0.939071 0.126977 0.924006
Si Si2 0.128843 0.645925 0.330109
Si Si3 0.206592 0.386289 0.405794
Si Si4 0.647032 0.725336 0.717416
Si Si5 0.563762 0.926963 0.077763
Si Si6 0.635001 0.508570 0.363931
Si Si7 0.581285 0.932475 0.743645
O O1 0.000000 0.124141 0.750000
O O2 0.037405 0.173033 0.837931
O O3 0.786771 0.158618 0.132940
O O4 0.919035 0.053149 0.986628
O O5 0.078495 0.711322 0.356559
O O6 0.053257 0.620452 0.516488
O O7 0.132494 0.588272 0.257730
O O8 0.265816 0.314796 0.340177
O O9 0.302937 0.434581 0.216361
O O10 0.190105 0.419298 0.517870
O O11 0.052906 0.387233 0.587023
O O12 0.750000 0.750000 0.500000
O O13 0.500000 0.899751 0.250000
O O14 0.477211 0.993612 0.180436
O O15 0.725551 0.950000 0.860790
O O16 0.500000 0.500000 0.500000
#
# Coordination Sequence:
#
# PCOD9259428 Si02
#       7
#     8   8   8   8   8   8   8
#     4  11  22  35  54  85 114 144 188 235 290 339
#     4  11  24  33  55  86 115 149 188 238 278 352
#     4  10  19  33  56  81 111 157 180 228 286 346
#     4  12  22  34  52  81 122 152 179 228 299 348
#     4  10  20  38  59  82 113 154 199 238 280 339
#     4  10  19  35  56  83 110 149 190 233 287 335
#     4  10  18  35  57  83 112 143 193 233 286 331
#
# _framework density 17.211691999999999
#
# number of rings (size 3 to 8) (size 9 to 14) (size 15 to 20)
#    0.000    1.429    7.143    0.429    2.000    0.000 
#    0.000    0.000    0.000    4.286    0.000    0.000 
#    0.000    0.000    0.000    0.000    0.000    0.000 
#
# Total GULP energy -156027.311927 kJ/mol
# GULP energy per Si atom -5572.403997 kJ/mol
# Density = 1.717252 g / cm^3
# Si number density = 17.211692 Si / 1000 Ang^3
#
#
#
# Elastic Constant Matrix: (Units=GPa)
#
#
# Indices 1 2 3 4 5 6 
#
# 1 71.9820 39.8804 16.6279 0.0001 11.1072 -0.0004
# 2 39.8804 86.8319 27.6566 0.0011 17.1331 0.0001
# 3 16.6279 27.6566 37.5114 0.0016 4.6952 0.0003
# 4 0.0001 0.0011 0.0016 12.2544 0.0006 -1.7437
# 5 11.1072 17.1331 4.6952 0.0006 30.8109 0.0002
# 6 -0.0004 0.0001 0.0003 -1.7437 0.0002 26.0223
#
#
#
# Elastic Compliance Matrix: (Units=1/GPa)
#
#
# Indices 1 2 3 4 5 6 
#
# 1 0.018968 -0.007409 -0.002656 0.000001 -0.002313 0.000000
# 2 -0.007409 0.019490 -0.010259 0.000000 -0.006603 0.000000
# 3 -0.002656 -0.010259 0.035238 -0.000004 0.001292 -0.000001
# 4 0.000001 0.000000 -0.000004 0.082389 -0.000001 0.005521
# 5 -0.002313 -0.006603 0.001292 -0.000001 0.036765 0.000000
# 6 0.000000 0.000000 -0.000001 0.005521 0.000000 0.038799
#
#
# Mechanical properties :
#
#
# Convention : Reuss Voigt Hill
#
# Bulk Modulus (GPa) = 30.25910 40.51723 35.38817
# Shear Modulus (GPa) = 17.64844 21.29488 19.47166
#
# Velocity S-wave (km/s) = 3.20562 3.52125 3.36714
# Velocity P-wave (km/s) = 5.59643 6.33434 5.97679
#
# Compressibility (1/GPa) = 0.03304790
#
# Stress axis : x y z
#
# Youngs Moduli (GPa) = 52.72109 51.30863 28.37874
#
# Poissons Ratio (x) = 0.38016 0.07536
# Poissons Ratio (y) = 0.39063 0.29113
# Poissons Ratio (z) = 0.14001 0.52636
#
# Static dielectric constant tensor:
#      x y z
#    x 1.600530 0.000000 -0.015160 
#    y 0.000000 1.609690 0.000000 
#    z -0.015160 0.000000 1.616310 
# 
# From -- ./inp_files/222916.got.cif
#   From: 2010.05.17/outbox.cif.g08.bks.cpg/sg15_112_cif.got.tgz:222916.got - 2010.06.03 18:47:42.
