data_PCOD9259357
_publ_section_title
;
Structure prediction by ZEFSAII (Michael W. Deem and Ramdas Pophale) SiO2 
 PCOD9259357
Probable space group: C 2/C
;
_chemical_formula_sum "Si O2"
_cell_formula_units_Z 64
_cell_length_a 20.211058
_cell_length_b 10.135936
_cell_length_c 23.609220
_cell_angle_alpha 90.000000
_cell_angle_beta 49.523616
_cell_angle_gamma 90.000000
_cell_volume 3679.026232
_symmetry_space_group_name_H-M "C 2/C"
_symmetry_group_IT_number 15
_symmetry_cell_setting 'monoclinic'
loop_
_space_group_symop_operation_xyz
x,y,z
-x,y,1/2-z
-x,-y,-z
x,-y,1/2+z
1/2+x,1/2+y,z
1/2-x,1/2+y,1/2-z
1/2-x,1/2-y,-z
1/2+x,1/2-y,1/2+z
loop_
_atom_site_type_symbol
_atom_site_label
_atom_site_fract_x
_atom_site_fract_y
_atom_site_fract_z
Si Si1 0.561928 0.120254 0.037064
Si Si2 0.776115 0.556948 0.289026
Si Si3 0.961052 0.775578 0.712150
Si Si4 0.979865 0.875868 0.937343
Si Si5 0.896997 0.364759 0.547521
Si Si6 0.625295 0.606297 0.452596
Si Si7 0.262207 0.748007 0.293937
Si Si8 0.480619 0.964332 0.695985
O O1 0.467490 0.113843 0.058428
O O2 0.542109 0.100187 0.114238
O O3 0.605843 0.257136 0.994980
O O4 0.615499 0.000890 0.978879
O O5 0.722547 0.588323 0.375902
O O6 0.746661 0.659479 0.257300
O O7 0.754340 0.404422 0.285571
O O8 0.879693 0.566509 0.239059
O O9 0.856741 0.773039 0.768681
O O10 0.990235 0.623372 0.686408
O O11 0.000000 0.819757 0.750000
O O12 0.993295 0.863110 0.642202
O O13 0.064031 0.900014 0.930340
O O14 0.940444 0.738226 0.980543
O O15 0.909835 0.988385 0.989106
O O16 0.812247 0.300804 0.622106
O O17 0.500000 0.926200 0.750000
#
# Coordination Sequence:
#
# PCOD9259357 Si02
#       8
#     8   8   8   8   8   8   8   8
#     4  10  20  33  57  83 111 149 188 229 279 335
#     4  11  22  36  58  88 115 145 190 239 284 333
#     4  10  21  38  59  84 116 153 190 231 284 343
#     4  10  18  35  55  80 116 143 183 232 286 332
#     4  10  19  33  55  84 111 140 192 235 274 323
#     4  10  21  33  55  86 113 146 181 240 286 325
#     4  11  22  35  58  88 116 145 192 239 283 329
#     4  10  21  39  59  82 115 155 190 228 282 347
#
# _framework density 17.395907999999999
#
# number of rings (size 3 to 8) (size 9 to 14) (size 15 to 20)
#    0.000    1.750    5.000    0.000    1.750    0.000 
#    0.000    3.125    0.000    0.000    0.000    0.000 
#    0.000    0.000    0.000    0.000    0.000    0.000 
#
# Total GULP energy -178559.642807 kJ/mol
# GULP energy per Si atom -5579.988838 kJ/mol
# Density = 1.735631 g / cm^3
# Si number density = 17.395908 Si / 1000 Ang^3
#
#
#
# Elastic Constant Matrix: (Units=GPa)
#
#
# Indices 1 2 3 4 5 6 
#
# 1 43.0642 26.4334 26.6186 0.0000 13.3014 0.0000
# 2 26.4334 68.7755 22.9995 0.0000 12.1683 0.0001
# 3 26.6186 22.9995 96.8356 0.0000 9.1348 0.0000
# 4 0.0000 0.0000 0.0000 29.2376 0.0000 0.2067
# 5 13.3014 12.1683 9.1348 0.0000 22.5494 0.0000
# 6 0.0000 0.0001 0.0000 0.2067 0.0000 11.0480
#
#
#
# Elastic Compliance Matrix: (Units=1/GPa)
#
#
# Indices 1 2 3 4 5 6 
#
# 1 0.037770 -0.009739 -0.006720 0.000000 -0.014302 0.000000
# 2 -0.009739 0.019546 -0.001572 0.000000 -0.004166 0.000000
# 3 -0.006720 -0.001572 0.012574 0.000000 -0.000281 0.000000
# 4 0.000000 0.000000 0.000000 0.034207 0.000000 -0.000640
# 5 -0.014302 -0.004166 -0.000281 0.000000 0.055146 0.000000
# 6 0.000000 0.000000 0.000000 -0.000640 0.000000 0.090526
#
#
# Mechanical properties :
#
#
# Convention : Reuss Voigt Hill
#
# Bulk Modulus (GPa) = 29.56182 40.08647 34.82414
# Shear Modulus (GPa) = 16.82888 21.40858 19.11873
#
# Velocity S-wave (km/s) = 3.11369 3.51189 3.31877
# Velocity P-wave (km/s) = 5.47331 6.28794 5.89472
#
# Compressibility (1/GPa) = 0.03382742
#
# Stress axis : x y z
#
# Youngs Moduli (GPa) = 26.47572 51.16124 79.52890
#
# Poissons Ratio (x) = 0.49826 0.53445
# Poissons Ratio (y) = 0.25785 0.12504
# Poissons Ratio (z) = 0.17792 0.08044
#
# Static dielectric constant tensor:
#      x y z
#    x 1.575810 0.000000 -0.003370 
#    y 0.000000 1.589020 0.000000 
#    z -0.003370 0.000000 1.584160 
# 
# From -- ./inp_files/252385.got.cif
#   From: 2010.05.17/outbox.cif.g08.bks.cpg/sg15_127_cif.got.tgz:252385.got - 2010.06.03 18:47:42.
