data_PCOD9259025
_publ_section_title
;
Structure prediction by ZEFSAII (Michael W. Deem and Ramdas Pophale) SiO2 
 PCOD9259025
Probable space group: C 2/C
;
_chemical_formula_sum "Si O2"
_cell_formula_units_Z 44
_cell_length_a 27.619327
_cell_length_b 7.171129
_cell_length_c 16.313771
_cell_angle_alpha 90.000000
_cell_angle_beta 149.898777
_cell_angle_gamma 90.000000
_cell_volume 1620.508136
_symmetry_space_group_name_H-M "C 2/C"
_symmetry_group_IT_number 15
_symmetry_cell_setting 'monoclinic'
loop_
_space_group_symop_operation_xyz
x,y,z
-x,y,1/2-z
-x,-y,-z
x,-y,1/2+z
1/2+x,1/2+y,z
1/2-x,1/2+y,1/2-z
1/2-x,1/2-y,-z
1/2+x,1/2-y,1/2+z
loop_
_atom_site_type_symbol
_atom_site_label
_atom_site_fract_x
_atom_site_fract_y
_atom_site_fract_z
Si Si1 0.394143 0.338174 0.112148
Si Si2 0.894588 0.252984 0.801265
Si Si3 0.750000 0.250000 0.000000
Si Si4 0.392874 0.902569 0.071322
Si Si5 0.112829 0.697769 0.663787
Si Si6 0.242480 0.703552 0.270163
O O1 0.500000 0.418385 0.250000
O O2 0.372578 0.312831 0.176722
O O3 0.396954 0.125258 0.085412
O O4 0.309460 0.421382 0.930816
O O5 0.885624 0.480514 0.801516
O O6 0.815896 0.170683 0.749224
O O7 0.006939 0.228467 0.986143
O O8 0.822090 0.318720 0.033753
O O9 0.843459 0.198069 0.195220
O O10 0.500000 0.836881 0.250000
O O11 0.348553 0.861844 0.917695
O O12 0.181696 0.725522 0.686148
#
# Coordination Sequence:
#
# PCOD9259025 Si02
#       6
#     8   8   4   8   8   8
#     4  11  21  39  61  90 119 152 199 248 293 352
#     4  11  21  38  63  86 124 154 198 247 299 340
#     4  10  18  34  58  86 116 150 196 250 284 340
#     4  10  21  37  61  87 114 152 204 242 288 348
#     4  10  21  37  60  93 116 154 205 244 287 356
#     4  11  22  34  61  94 118 152 194 254 298 346
#
# _framework density 27.151976999999999
#
# number of rings (size 3 to 8) (size 9 to 14) (size 15 to 20)
#    0.000    1.455    3.636    2.727    5.091    0.000 
#    0.000    0.000    0.000   33.818    0.000    0.000 
#    0.000    0.000    0.000    0.000    0.000    0.000 
#
# Total GULP energy -122635.063425 kJ/mol
# GULP energy per Si atom -5574.321065 kJ/mol
# Density = 2.709018 g / cm^3
# Si number density = 27.151977 Si / 1000 Ang^3
#
#
#
# Elastic Constant Matrix: (Units=GPa)
#
#
# Indices 1 2 3 4 5 6 
#
# 1 52.3618 20.5572 65.3071 0.0000 4.8448 0.0000
# 2 20.5572 93.9995 22.7744 0.0000 -11.4667 0.0000
# 3 65.3071 22.7744 267.0041 0.0000 -0.1336 0.0000
# 4 0.0000 0.0000 0.0000 13.0094 0.0000 1.3835
# 5 4.8448 -11.4667 -0.1336 0.0000 69.5588 0.0000
# 6 0.0000 0.0000 0.0000 1.3835 0.0000 11.6592
#
#
#
# Elastic Compliance Matrix: (Units=1/GPa)
#
#
# Indices 1 2 3 4 5 6 
#
# 1 0.030047 -0.005262 -0.006902 0.000000 -0.002973 0.000000
# 2 -0.005262 0.012011 0.000264 0.000000 0.002347 0.000000
# 3 -0.006902 0.000264 0.005411 0.000000 0.000535 0.000000
# 4 0.000000 0.000000 0.000000 0.077850 0.000000 -0.009238
# 5 -0.002973 0.002347 0.000535 0.000000 0.014971 0.000000
# 6 0.000000 0.000000 0.000000 -0.009238 0.000000 0.086866
#
#
# Mechanical properties :
#
#
# Convention : Reuss Voigt Hill
#
# Bulk Modulus (GPa) = 42.24801 70.07142 56.15972
# Shear Modulus (GPa) = 19.31646 39.16059 29.23852
#
# Velocity S-wave (km/s) = 2.67014 3.80185 3.28509
# Velocity P-wave (km/s) = 5.00997 6.71827 5.92600
#
# Compressibility (1/GPa) = 0.02366975
#
# Stress axis : x y z
#
# Youngs Moduli (GPa) = 33.28118 83.25366 184.80158
#
# Poissons Ratio (x) = 0.43805 1.27549
# Poissons Ratio (y) = 0.17511 -0.04871
# Poissons Ratio (z) = 0.22971 -0.02194
#
# Static dielectric constant tensor:
#      x y z
#    x 2.048950 0.000000 0.035650 
#    y 0.000000 2.322030 0.000000 
#    z 0.035650 0.000000 2.146370 
# 
# From -- ./inp_files/177667.got.cif
#   From: 2010.05.17/outbox.cif.g08.bks.cpg/sg15_89_cif.got.tgz:177667.got - 2010.06.03 18:47:42.
