data_PCOD9259058
_publ_section_title
;
Structure prediction by ZEFSAII (Michael W. Deem and Ramdas Pophale) SiO2 
 PCOD9259058
Probable space group: C 2/C
;
_chemical_formula_sum "Si O2"
_cell_formula_units_Z 60
_cell_length_a 11.706716
_cell_length_b 14.490244
_cell_length_c 25.413204
_cell_angle_alpha 90.000000
_cell_angle_beta 137.184497
_cell_angle_gamma 90.000000
_cell_volume 2929.874476
_symmetry_space_group_name_H-M "C 2/C"
_symmetry_group_IT_number 15
_symmetry_cell_setting 'monoclinic'
loop_
_space_group_symop_operation_xyz
x,y,z
-x,y,1/2-z
-x,-y,-z
x,-y,1/2+z
1/2+x,1/2+y,z
1/2-x,1/2+y,1/2-z
1/2-x,1/2-y,-z
1/2+x,1/2-y,1/2+z
loop_
_atom_site_type_symbol
_atom_site_label
_atom_site_fract_x
_atom_site_fract_y
_atom_site_fract_z
Si Si1 0.292077 0.757671 0.086104
Si Si2 0.030523 0.212190 0.073354
Si Si3 0.350668 0.829636 0.741065
Si Si4 0.962960 0.130153 0.800037
Si Si5 0.000000 0.786882 0.750000
Si Si6 0.703283 0.187595 0.533411
Si Si7 0.284991 0.553349 0.225786
Si Si8 0.889427 0.422247 0.935739
O O1 0.432403 0.764122 0.087983
O O2 0.373901 0.770879 0.170970
O O3 0.216376 0.651710 0.065314
O O4 0.132091 0.819866 0.015616
O O5 0.172477 0.154346 0.151400
O O6 0.140734 0.266455 0.067248
O O7 0.500000 0.834220 0.750000
O O8 0.362459 0.727138 0.770883
O O9 0.364312 0.907513 0.789508
O O10 0.000000 0.125803 0.750000
O O11 0.130637 0.133729 0.891847
O O12 0.864442 0.036467 0.778010
O O13 0.905362 0.857671 0.757514
O O14 0.750000 0.250000 0.500000
O O15 0.535795 0.136403 0.457901
O O16 0.228323 0.532032 0.147335
O O17 0.000000 0.500000 0.000000
#
# Coordination Sequence:
#
# PCOD9259058 Si02
#       8
#     8   8   8   8   4   8   8   8
#     4   9  20  34  58  88 123 159 204 257 320 382
#     4  10  19  37  59  86 122 164 209 253 321 389
#     4  11  22  38  65  88 127 176 211 257 325 388
#     4  11  21  38  65  96 119 164 217 264 314 381
#     4  10  18  34  58  94 122 156 202 270 330 360
#     4  11  22  38  61  91 127 161 215 270 319 384
#     4  11  22  37  63  93 125 161 213 265 317 386
#     4  10  22  35  59  91 125 158 205 271 320 366
#
# _framework density 20.478693
#
# number of rings (size 3 to 8) (size 9 to 14) (size 15 to 20)
#    0.000    1.600    4.667    1.600    3.733    0.000 
#    0.000    0.000    4.400    1.600    0.000    0.000 
#    0.000    0.000    0.000    0.000    0.000    0.000 
#
# Total GULP energy -167020.849085 kJ/mol
# GULP energy per Si atom -5567.361636 kJ/mol
# Density = 2.043208 g / cm^3
# Si number density = 20.478693 Si / 1000 Ang^3
#
#
#
# Elastic Constant Matrix: (Units=GPa)
#
#
# Indices 1 2 3 4 5 6 
#
# 1 92.7191 39.7996 19.4811 0.0000 2.7699 0.0000
# 2 39.7996 36.4664 3.3250 0.0000 -6.8697 0.0000
# 3 19.4811 3.3250 119.1627 0.0000 -9.0895 0.0000
# 4 0.0000 0.0000 0.0000 23.0841 0.0000 5.4429
# 5 2.7699 -6.8697 -9.0895 0.0000 21.6595 0.0000
# 6 0.0000 0.0000 0.0000 5.4429 0.0000 20.3216
#
#
#
# Elastic Compliance Matrix: (Units=1/GPa)
#
#
# Indices 1 2 3 4 5 6 
#
# 1 0.024633 -0.029169 -0.004297 0.000000 -0.014205 0.000000
# 2 -0.029169 0.063706 0.004976 0.000000 0.026024 0.000000
# 3 -0.004297 0.004976 0.009419 0.000000 0.006081 0.000000
# 4 0.000000 0.000000 0.000000 0.046240 0.000000 -0.012385
# 5 -0.014205 0.026024 0.006081 0.000000 0.058791 0.000000
# 6 0.000000 0.000000 0.000000 -0.012385 0.000000 0.052526
#
#
# Mechanical properties :
#
#
# Convention : Reuss Voigt Hill
#
# Bulk Modulus (GPa) = 24.52198 41.50664 33.01431
# Shear Modulus (GPa) = 15.34267 25.39587 20.36927
#
# Velocity S-wave (km/s) = 2.74012 3.52534 3.15724
# Velocity P-wave (km/s) = 4.69163 6.07313 5.42653
#
# Compressibility (1/GPa) = 0.04077973
#
# Stress axis : x y z
#
# Youngs Moduli (GPa) = 40.59570 15.69701 106.16514
#
# Poissons Ratio (x) = 0.45786 0.45616
# Poissons Ratio (y) = 1.18413 -0.52829
# Poissons Ratio (z) = 0.17443 -0.07811
#
# Static dielectric constant tensor:
#      x y z
#    x 1.727050 0.000000 -0.009790 
#    y 0.000000 1.668510 0.000000 
#    z -0.009790 0.000000 1.795940 
# 
# From -- ./inp_files/293368.got.cif
#   From: 2010.05.17/outbox.cif.g08.bks.cpg/sg15_147_cif.got.tgz:293368.got - 2010.06.03 18:47:42.
