data_PCOD9259778
_publ_section_title
;
Structure prediction by ZEFSAII (Michael W. Deem and Ramdas Pophale) SiO2 
 PCOD9259778
Probable space group: C 2/C
;
_chemical_formula_sum "Si O2"
_cell_formula_units_Z 60
_cell_length_a 16.382860
_cell_length_b 11.156129
_cell_length_c 15.948640
_cell_angle_alpha 90.000000
_cell_angle_beta 118.805919
_cell_angle_gamma 90.000000
_cell_volume 2554.220328
_symmetry_space_group_name_H-M "C 2/C"
_symmetry_group_IT_number 15
_symmetry_cell_setting 'monoclinic'
loop_
_space_group_symop_operation_xyz
x,y,z
-x,y,1/2-z
-x,-y,-z
x,-y,1/2+z
1/2+x,1/2+y,z
1/2-x,1/2+y,1/2-z
1/2-x,1/2-y,-z
1/2+x,1/2-y,1/2+z
loop_
_atom_site_type_symbol
_atom_site_label
_atom_site_fract_x
_atom_site_fract_y
_atom_site_fract_z
Si Si1 0.762014 0.167761 0.885463
Si Si2 0.000000 0.820489 0.750000
Si Si3 0.459585 0.671801 0.611755
Si Si4 0.099516 0.314025 0.442379
Si Si5 0.398934 0.909577 0.527155
Si Si6 0.792518 0.674432 0.825376
Si Si7 0.726391 0.394802 0.571533
Si Si8 0.116167 0.955964 0.262364
O O1 0.685702 0.182735 0.920183
O O2 0.712740 0.203993 0.774599
O O3 0.775561 0.025343 0.890265
O O4 0.856387 0.237627 0.959064
O O5 0.979234 0.747266 0.654826
O O6 0.915768 0.913360 0.725929
O O7 0.469009 0.814303 0.604471
O O8 0.378873 0.631107 0.509250
O O9 0.413354 0.633165 0.676975
O O10 0.553741 0.594679 0.655228
O O11 0.077325 0.450896 0.455669
O O12 0.381570 0.865406 0.423445
O O13 0.301260 0.892466 0.531861
O O14 0.750992 0.790079 0.852303
O O15 0.723653 0.561415 0.801922
#
# Coordination Sequence:
#
# PCOD9259778 Si02
#       8
#     8   4   8   8   8   8   8   8
#     4  10  23  37  61  84 119 158 198 243 294 367
#     4  10  22  38  62  86 118 170 204 240 296 380
#     4   9  16  32  54  83 109 149 183 246 295 346
#     4  10  23  41  58  85 120 165 199 238 304 369
#     4  10  19  35  60  82 118 152 200 249 294 355
#     4  11  21  35  60  93 115 151 203 255 298 344
#     4  10  18  36  55  83 115 147 197 244 293 350
#     4  10  19  31  59  87 118 143 202 248 294 343
#
# _framework density 23.490534
#
# number of rings (size 3 to 8) (size 9 to 14) (size 15 to 20)
#    0.000    2.133    2.667    2.400    5.600    1.067 
#    0.000    5.333    0.000    1.600    0.000    0.000 
#    0.000    0.000    0.000    0.000    0.000    0.000 
#
# Total GULP energy -167530.400633 kJ/mol
# GULP energy per Si atom -5584.346688 kJ/mol
# Density = 2.343707 g / cm^3
# Si number density = 23.490534 Si / 1000 Ang^3
#
#
#
# Elastic Constant Matrix: (Units=GPa)
#
#
# Indices 1 2 3 4 5 6 
#
# 1 23.4059 19.9840 15.2018 0.0000 -3.8283 0.0000
# 2 19.9840 158.2547 67.4741 0.0000 -4.4399 0.0000
# 3 15.2018 67.4741 131.8912 0.0000 -11.6665 0.0000
# 4 0.0000 0.0000 0.0000 32.1565 0.0000 9.8329
# 5 -3.8283 -4.4399 -11.6665 0.0000 24.7309 0.0000
# 6 0.0000 0.0000 0.0000 9.8329 0.0000 23.1079
#
#
#
# Elastic Compliance Matrix: (Units=1/GPa)
#
#
# Indices 1 2 3 4 5 6 
#
# 1 0.049612 -0.004963 -0.002691 0.000000 0.005519 0.000000
# 2 -0.004963 0.008585 -0.003915 0.000000 -0.001074 0.000000
# 3 -0.002691 -0.003915 0.010223 0.000000 0.003703 0.000000
# 4 0.000000 0.000000 0.000000 0.035749 0.000000 -0.015212
# 5 0.005519 -0.001074 0.003703 0.000000 0.042844 0.000000
# 6 0.000000 0.000000 0.000000 -0.015212 0.000000 0.049748
#
#
# Mechanical properties :
#
#
# Convention : Reuss Voigt Hill
#
# Bulk Modulus (GPa) = 22.08393 57.65240 39.86817
# Shear Modulus (GPa) = 21.27736 30.05852 25.66794
#
# Velocity S-wave (km/s) = 3.01289 3.58103 3.30918
# Velocity P-wave (km/s) = 4.63950 6.45713 5.62225
#
# Compressibility (1/GPa) = 0.04528179
#
# Stress axis : x y z
#
# Youngs Moduli (GPa) = 20.15645 116.48785 97.82337
#
# Poissons Ratio (x) = 0.57808 0.26327
# Poissons Ratio (y) = 0.10003 0.38296
# Poissons Ratio (z) = 0.05425 0.45602
#
# Static dielectric constant tensor:
#      x y z
#    x 1.978700 0.000000 0.028230 
#    y 0.000000 1.877260 0.000000 
#    z 0.028230 0.000000 2.017840 
# 
# From -- ./inp_files/167697.got.cif
#   From: 2010.05.17/outbox.cif.g08.bks.cpg/sg15_84_cif.got.tgz:167697.got - 2010.06.03 18:47:42.
