data_PCOD9259743
_publ_section_title
;
Structure prediction by ZEFSAII (Michael W. Deem and Ramdas Pophale) SiO2 
 PCOD9259743
Probable space group: C 2/C
;
_chemical_formula_sum "Si O2"
_cell_formula_units_Z 64
_cell_length_a 25.019985
_cell_length_b 17.332081
_cell_length_c 9.610849
_cell_angle_alpha 90.000000
_cell_angle_beta 93.082832
_cell_angle_gamma 90.000000
_cell_volume 4161.697941
_symmetry_space_group_name_H-M "C 2/C"
_symmetry_group_IT_number 15
_symmetry_cell_setting 'monoclinic'
loop_
_space_group_symop_operation_xyz
x,y,z
-x,y,1/2-z
-x,-y,-z
x,-y,1/2+z
1/2+x,1/2+y,z
1/2-x,1/2+y,1/2-z
1/2-x,1/2-y,-z
1/2+x,1/2-y,1/2+z
loop_
_atom_site_type_symbol
_atom_site_label
_atom_site_fract_x
_atom_site_fract_y
_atom_site_fract_z
Si Si1 0.193682 0.249606 0.807808
Si Si2 0.754702 0.909078 0.211791
Si Si3 0.341930 0.827093 0.952939
Si Si4 0.344104 0.192844 0.901012
Si Si5 0.243503 0.936875 0.961277
Si Si6 0.694485 0.706281 0.322776
Si Si7 0.436809 0.074957 0.579158
Si Si8 0.938475 0.421055 0.408306
O O1 0.201516 0.157797 0.807480
O O2 0.151323 0.283996 0.692764
O O3 0.249957 0.279965 0.752177
O O4 0.182430 0.280408 0.959088
O O5 0.697030 0.868102 0.176796
O O6 0.759152 0.936412 0.371932
O O7 0.760626 0.979795 0.107735
O O8 0.312921 0.766117 0.051451
O O9 0.396208 0.859008 0.025458
O O10 0.301081 0.898728 0.932898
O O11 0.348600 0.265702 0.797086
O O12 0.399437 0.149591 0.935258
O O13 0.199693 0.878344 0.888778
O O14 0.498762 0.095204 0.557806
O O15 0.431804 0.061890 0.743339
O O16 0.423939 0.996265 0.495612
#
# Coordination Sequence:
#
# PCOD9259743 Si02
#       8
#     8   8   8   8   8   8   8   8
#     4  10  21  33  49  70  97 129 170 207 243 291
#     4  11  21  32  45  72  99 130 164 199 240 294
#     4  11  18  35  52  67  94 140 169 199 243 294
#     4  11  21  33  51  70  99 133 172 203 242 291
#     4  11  21  30  48  69 100 129 166 199 241 293
#     4  10  18  36  49  65  97 132 167 203 242 291
#     4  10  21  35  53  72 102 134 168 211 249 282
#     4  10  21  36  50  75 102 131 171 210 245 291
#
# _framework density 15.378339
#
# number of rings (size 3 to 8) (size 9 to 14) (size 15 to 20)
#    0.000    1.500    5.000    3.000    7.000    0.000 
#    0.000    0.000    0.000    0.000    0.000    0.000 
#    0.000    6.000    0.000    0.000    0.000    0.000 
#
# Total GULP energy -178427.279427 kJ/mol
# GULP energy per Si atom -5575.852482 kJ/mol
# Density = 1.534334 g / cm^3
# Si number density = 15.378339 Si / 1000 Ang^3
#
#
#
# Elastic Constant Matrix: (Units=GPa)
#
#
# Indices 1 2 3 4 5 6 
#
# 1 43.6070 25.6329 19.8074 0.0000 7.2965 0.0000
# 2 25.6329 69.2495 45.1990 0.0000 0.9903 0.0000
# 3 19.8074 45.1990 101.3543 0.0000 -2.0948 0.0000
# 4 0.0000 0.0000 0.0000 38.8581 0.0000 1.6138
# 5 7.2965 0.9903 -2.0948 0.0000 20.7461 0.0000
# 6 0.0000 0.0000 0.0000 1.6138 0.0000 22.3076
#
#
#
# Elastic Compliance Matrix: (Units=1/GPa)
#
#
# Indices 1 2 3 4 5 6 
#
# 1 0.031666 -0.010412 -0.001769 0.000000 -0.010819 0.000000
# 2 -0.010412 0.023868 -0.008575 0.000000 0.001657 0.000000
# 3 -0.001769 -0.008575 0.014087 0.000000 0.002454 0.000000
# 4 0.000000 0.000000 0.000000 0.025812 0.000000 -0.001867
# 5 -0.010819 0.001657 0.002454 0.000000 0.052176 0.000000
# 6 0.000000 0.000000 0.000000 -0.001867 0.000000 0.044963
#
#
# Mechanical properties :
#
#
# Convention : Reuss Voigt Hill
#
# Bulk Modulus (GPa) = 35.57553 43.94327 39.75940
# Shear Modulus (GPa) = 20.53794 24.62045 22.57919
#
# Velocity S-wave (km/s) = 3.65843 4.00557 3.83593
# Velocity P-wave (km/s) = 6.40541 7.07316 6.74755
#
# Compressibility (1/GPa) = 0.02810921
#
# Stress axis : x y z
#
# Youngs Moduli (GPa) = 31.57947 41.89778 70.98926
#
# Poissons Ratio (x) = 0.43625 0.12556
# Poissons Ratio (y) = 0.32881 0.60871
# Poissons Ratio (z) = 0.05586 0.35926
#
# Static dielectric constant tensor:
#      x y z
#    x 1.513520 0.000000 0.017490 
#    y 0.000000 1.514240 0.000000 
#    z 0.017490 0.000000 1.547340 
# 
# From -- ./inp_files/62509.got.cif
#   From: 2010.05.17/outbox.cif.g08.bks.cpg/sg15_32_cif.got.tgz:62509.got - 2010.06.03 18:47:42.
