data_PCOD9259442
_publ_section_title
;
Structure prediction by ZEFSAII (Michael W. Deem and Ramdas Pophale) SiO2 
 PCOD9259442
Probable space group: C 2/C
;
_chemical_formula_sum "Si O2"
_cell_formula_units_Z 52
_cell_length_a 17.817990
_cell_length_b 29.256416
_cell_length_c 10.846114
_cell_angle_alpha 90.000000
_cell_angle_beta 26.720071
_cell_angle_gamma 90.000000
_cell_volume 2542.208325
_symmetry_space_group_name_H-M "C 2/C"
_symmetry_group_IT_number 15
_symmetry_cell_setting 'monoclinic'
loop_
_space_group_symop_operation_xyz
x,y,z
-x,y,1/2-z
-x,-y,-z
x,-y,1/2+z
1/2+x,1/2+y,z
1/2-x,1/2+y,1/2-z
1/2-x,1/2-y,-z
1/2+x,1/2-y,1/2+z
loop_
_atom_site_type_symbol
_atom_site_label
_atom_site_fract_x
_atom_site_fract_y
_atom_site_fract_z
Si Si1 0.382431 0.691021 0.045485
Si Si2 0.597831 0.411387 0.887184
Si Si3 0.000000 0.663608 0.250000
Si Si4 0.101567 0.732479 0.306102
Si Si5 0.735907 0.086980 0.821642
Si Si6 0.694725 0.047626 0.627372
Si Si7 0.000000 0.980373 0.250000
Si Si8 0.500000 0.990419 0.750000
O O1 0.500000 0.691451 0.750000
O O2 0.373815 0.639108 0.102088
O O3 0.475394 0.725096 0.004619
O O4 0.201236 0.711088 0.274220
O O5 0.432811 0.411380 0.044153
O O6 0.558099 0.447620 0.053260
O O7 0.747338 0.427166 0.581459
O O8 0.011390 0.694425 0.354758
O O9 0.841748 0.630527 0.496127
O O10 0.250000 0.750000 0.000000
O O11 0.675213 0.081742 0.770271
O O12 0.659118 0.042266 0.999606
O O13 0.531560 0.020195 0.824821
O O14 0.843783 0.012632 0.444443
#
# Coordination Sequence:
#
# PCOD9259442 Si02
#       8
#     8   8   4   8   8   8   4   4
#     4  10  20  34  58  91 117 148 197 253 304 353
#     4  12  23  38  65  90 122 162 214 249 299 367
#     4  11  22  33  62  90 122 150 200 255 306 357
#     4  10  18  35  57  90 119 149 189 254 310 357
#     4  11  23  39  59  93 120 161 206 255 301 361
#     4  12  24  42  60  86 126 168 201 252 307 360
#     4  12  22  39  62  85 118 163 216 249 284 352
#     4  11  24  40  60  89 124 159 212 258 304 343
#
# _framework density 20.454657999999998
#
# number of rings (size 3 to 8) (size 9 to 14) (size 15 to 20)
#    0.000    0.923    6.154    3.692    0.000    1.231 
#    0.000    0.000    0.000    0.923    4.000    0.000 
#    0.000    0.000    0.000    0.000    0.000    0.000 
#
# Total GULP energy -145289.785357 kJ/mol
# GULP energy per Si atom -5588.068668 kJ/mol
# Density = 2.040810 g / cm^3
# Si number density = 20.454658 Si / 1000 Ang^3
#
#
#
# Elastic Constant Matrix: (Units=GPa)
#
#
# Indices 1 2 3 4 5 6 
#
# 1 69.1170 27.6580 -7.8539 0.0005 -10.1794 -0.0029
# 2 27.6580 104.1834 6.1709 0.0010 -5.2664 -0.0008
# 3 -7.8539 6.1709 17.8451 -0.0001 8.2124 -0.0030
# 4 0.0005 0.0010 -0.0001 -2.8893 0.0005 2.7085
# 5 -10.1794 -5.2664 8.2124 0.0005 35.4114 0.0027
# 6 -0.0029 -0.0008 -0.0030 2.7085 0.0027 8.0186
#
#
#
# Elastic Compliance Matrix: (Units=1/GPa)
#
#
# Indices 1 2 3 4 5 6 
#
# 1 0.017837 -0.005119 0.008521 0.000007 0.002390 0.000006
# 2 -0.005119 0.011472 -0.007084 0.000000 0.001877 -0.000004
# 3 0.008521 -0.007084 0.068954 0.000020 -0.014596 0.000027
# 4 0.000007 0.000000 0.000020 -0.262871 -0.000005 0.088792
# 5 0.002390 0.001877 -0.014596 -0.000005 0.032591 -0.000014
# 6 0.000006 -0.000004 0.000027 0.088792 -0.000014 0.094718
#
#
# Mechanical properties :
#
#
# Convention : Reuss Voigt Hill
#
# Bulk Modulus (GPa) = 11.00132 27.01062 19.00597
# Shear Modulus (GPa) = 13686.34660 19.11950 6852.73305
#
# Velocity S-wave (km/s) = 81.88768 3.06065 57.94376
# Velocity P-wave (km/s) = 94.58424 5.07187 66.97725
#
# Compressibility (1/GPa) = 0.09089817
#
# Stress axis : x y z
#
# Youngs Moduli (GPa) = 56.06346 87.16903 14.50233
#
# Poissons Ratio (x) = 0.44623 -0.12357
# Poissons Ratio (y) = 0.28700 0.10274
# Poissons Ratio (z) = -0.47770 0.61751
#
# Static dielectric constant tensor:
#      x y z
#    x 1.721910 0.000000 0.013130 
#    y 0.000000 1.742390 0.000000 
#    z 0.013130 0.000000 1.695860 
# 
# From -- ./inp_files/33529.got.cif
#   From: 2010.05.17/outbox.cif.g08.bks.cpg/sg15_17_cif.got.tgz:33529.got - 2010.06.03 18:47:42.
