data_PCOD9259787
_publ_section_title
;
Structure prediction by ZEFSAII (Michael W. Deem and Ramdas Pophale) SiO2 
 PCOD9259787
Probable space group: C 2/C
;
_chemical_formula_sum "Si O2"
_cell_formula_units_Z 52
_cell_length_a 30.618732
_cell_length_b 16.174710
_cell_length_c 5.089056
_cell_angle_alpha 90.000000
_cell_angle_beta 100.862340
_cell_angle_gamma 90.000000
_cell_volume 2475.192813
_symmetry_space_group_name_H-M "C 2/C"
_symmetry_group_IT_number 15
_symmetry_cell_setting 'monoclinic'
loop_
_space_group_symop_operation_xyz
x,y,z
-x,y,1/2-z
-x,-y,-z
x,-y,1/2+z
1/2+x,1/2+y,z
1/2-x,1/2+y,1/2-z
1/2-x,1/2-y,-z
1/2+x,1/2-y,1/2+z
loop_
_atom_site_type_symbol
_atom_site_label
_atom_site_fract_x
_atom_site_fract_y
_atom_site_fract_z
Si Si1 0.618830 0.703792 0.965732
Si Si2 0.500000 0.560621 0.250000
Si Si3 0.295036 0.767914 0.715782
Si Si4 0.317226 0.389319 0.573749
Si Si5 0.028341 0.774435 0.552125
Si Si6 0.223244 0.448208 0.604325
Si Si7 0.605787 0.447776 0.143397
O O1 0.659777 0.755967 0.899964
O O2 0.595683 0.646450 0.714632
O O3 0.643392 0.638642 0.186829
O O4 0.578786 0.753042 0.054002
O O5 0.500000 0.500000 0.500000
O O6 0.409269 0.502968 0.129543
O O7 0.250000 0.750000 0.500000
O O8 0.294994 0.858608 0.839830
O O9 0.297554 0.695388 0.933545
O O10 0.276506 0.434525 0.662349
O O11 0.341540 0.438091 0.365011
O O12 0.033450 0.867461 0.675533
O O13 0.000000 0.730193 0.750000
O O14 0.000000 0.775629 0.250000
O O15 0.211245 0.483013 0.305774
#
# Coordination Sequence:
#
# PCOD9259787 Si02
#       7
#     8   4   8   8   8   8   8
#     4  11  25  40  65  85 120 168 212 263 312 371
#     4  10  18  36  56  74 112 160 198 250 318 360
#     4  11  24  43  64  91 126 169 213 255 311 374
#     4  11  23  40  62  86 123 164 217 248 310 360
#     4  10  24  41  57  81 116 152 206 263 308 360
#     4  12  26  40  62  89 128 164 206 260 310 363
#     4  11  22  35  53  84 118 151 209 265 303 350
#
# _framework density 21.008464
#
# number of rings (size 3 to 8) (size 9 to 14) (size 15 to 20)
#    0.462    0.615    3.846    2.308    8.615    1.231 
#    0.000    0.000    0.000    0.000    0.000    0.000 
#    0.000    3.692    0.000    0.000    0.000    0.000 
#
# Total GULP energy -145099.598433 kJ/mol
# GULP energy per Si atom -5580.753786 kJ/mol
# Density = 2.096065 g / cm^3
# Si number density = 21.008464 Si / 1000 Ang^3
#
#
#
# Elastic Constant Matrix: (Units=GPa)
#
#
# Indices 1 2 3 4 5 6 
#
# 1 129.7204 23.7442 38.4922 0.0000 -23.0008 0.0000
# 2 23.7442 41.0098 14.0830 0.0000 -7.6672 0.0000
# 3 38.4922 14.0830 118.7540 0.0000 -14.6431 0.0000
# 4 0.0000 0.0000 0.0000 28.2899 0.0000 -7.8441
# 5 -23.0008 -7.6672 -14.6431 0.0000 37.2618 0.0000
# 6 0.0000 0.0000 0.0000 -7.8441 0.0000 28.9883
#
#
#
# Elastic Compliance Matrix: (Units=1/GPa)
#
#
# Indices 1 2 3 4 5 6 
#
# 1 0.009895 -0.004161 -0.002171 0.000000 0.004398 0.000000
# 2 -0.004161 0.027827 -0.001641 0.000000 0.002512 0.000000
# 3 -0.002171 -0.001641 0.009576 0.000000 0.002085 0.000000
# 4 0.000000 0.000000 0.000000 0.038216 0.000000 0.010341
# 5 0.004398 0.002512 0.002085 0.000000 0.030888 0.000000
# 6 0.000000 0.000000 0.000000 0.010341 0.000000 0.037295
#
#
# Mechanical properties :
#
#
# Convention : Reuss Voigt Hill
#
# Bulk Modulus (GPa) = 31.89762 49.12477 40.51119
# Shear Modulus (GPa) = 27.76314 33.11898 30.44106
#
# Velocity S-wave (km/s) = 3.63922 3.97477 3.81069
# Velocity P-wave (km/s) = 5.73365 6.67077 6.21988
#
# Compressibility (1/GPa) = 0.03135030
#
# Stress axis : x y z
#
# Youngs Moduli (GPa) = 101.06420 35.93640 104.42352
#
# Poissons Ratio (x) = 0.14953 0.22675
# Poissons Ratio (y) = 0.42052 0.17141
# Poissons Ratio (z) = 0.21945 0.05899
#
# Static dielectric constant tensor:
#      x y z
#    x 1.894140 0.000000 0.026200 
#    y 0.000000 1.727670 0.000000 
#    z 0.026200 0.000000 1.943910 
# 
# From -- ./inp_files/18250.got.cif
#   From: 2010.05.17/outbox.cif.g08.bks.cpg/sg15_10_cif.got.tgz:18250.got - 2010.06.03 18:47:42.
