data_PCOD9259805
_publ_section_title
;
Structure prediction by ZEFSAII (Michael W. Deem and Ramdas Pophale) SiO2 
 PCOD9259805
Probable space group: C 2/C
;
_chemical_formula_sum "Si O2"
_cell_formula_units_Z 36
_cell_length_a 20.737369
_cell_length_b 10.671727
_cell_length_c 7.227125
_cell_angle_alpha 90.000000
_cell_angle_beta 59.063375
_cell_angle_gamma 90.000000
_cell_volume 1371.853704
_symmetry_space_group_name_H-M "C 2/C"
_symmetry_group_IT_number 15
_symmetry_cell_setting 'monoclinic'
loop_
_space_group_symop_operation_xyz
x,y,z
-x,y,1/2-z
-x,-y,-z
x,-y,1/2+z
1/2+x,1/2+y,z
1/2-x,1/2+y,1/2-z
1/2-x,1/2-y,-z
1/2+x,1/2-y,1/2+z
loop_
_atom_site_type_symbol
_atom_site_label
_atom_site_fract_x
_atom_site_fract_y
_atom_site_fract_z
Si Si1 0.782596 0.638023 0.830561
Si Si2 0.359139 0.281184 0.452486
Si Si3 0.045519 0.373002 0.458953
Si Si4 0.000000 0.164429 0.250000
Si Si5 0.641124 0.475373 0.697620
O O1 0.789383 0.691941 0.611580
O O2 0.869094 0.607033 0.755059
O O3 0.750000 0.750000 0.000000
O O4 0.720793 0.536178 0.970825
O O5 0.426307 0.182020 0.385021
O O6 0.361244 0.379703 0.624947
O O7 0.367078 0.374490 0.270921
O O8 0.000000 0.500000 0.500000
O O9 0.003900 0.262177 0.412950
O O10 0.929328 0.074675 0.317433
#
# Coordination Sequence:
#
# PCOD9259805 Si02
#       5
#     8   8   8   4   8
#     4   8  16  35  53  77 116 150 188 228 297 350
#     4   8  19  34  58  81 112 149 194 236 294 343
#     4   9  19  36  53  84 111 150 196 241 291 355
#     4  10  20  32  60  76 112 158 192 232 312 344
#     4  10  18  36  56  84 111 151 191 246 286 361
#
# _framework density 26.241866999999999
#
# number of rings (size 3 to 8) (size 9 to 14) (size 15 to 20)
#    1.333    1.778    2.222    0.000    0.000    5.333 
#    0.000    4.444    0.000    0.000    0.000    0.000 
#    0.000    0.000    0.000    0.000    0.000    0.000 
#
# Total GULP energy -100241.566516 kJ/mol
# GULP energy per Si atom -5568.975918 kJ/mol
# Density = 2.618214 g / cm^3
# Si number density = 26.241867 Si / 1000 Ang^3
#
#
#
# Elastic Constant Matrix: (Units=GPa)
#
#
# Indices 1 2 3 4 5 6 
#
# 1 104.3980 52.1284 35.0248 0.0000 -36.8787 0.0000
# 2 52.1284 161.4153 30.6683 0.0000 -34.3427 0.0000
# 3 35.0248 30.6683 86.0785 0.0000 -33.1035 0.0000
# 4 0.0000 0.0000 0.0000 46.2516 0.0000 -10.4206
# 5 -36.8787 -34.3427 -33.1035 0.0000 52.7324 0.0000
# 6 0.0000 0.0000 0.0000 -10.4206 0.0000 65.6173
#
#
#
# Elastic Compliance Matrix: (Units=1/GPa)
#
#
# Indices 1 2 3 4 5 6 
#
# 1 0.014012 -0.002690 -0.002173 0.000000 0.006683 0.000000
# 2 -0.002690 0.007775 -0.000595 0.000000 0.002808 0.000000
# 3 -0.002173 -0.000595 0.015793 0.000000 0.008007 0.000000
# 4 0.000000 0.000000 0.000000 0.022423 0.000000 0.003561
# 5 0.006683 0.002808 0.008007 0.000000 0.030493 0.000000
# 6 0.000000 0.000000 0.000000 0.003561 0.000000 0.015805
#
#
# Mechanical properties :
#
#
# Convention : Reuss Voigt Hill
#
# Bulk Modulus (GPa) = 37.50596 65.28164 51.39380
# Shear Modulus (GPa) = 39.64961 48.52496 44.08728
#
# Velocity S-wave (km/s) = 3.89128 4.30483 4.10327
# Velocity P-wave (km/s) = 5.87477 7.04554 6.48662
#
# Compressibility (1/GPa) = 0.02666243
#
# Stress axis : x y z
#
# Youngs Moduli (GPa) = 71.36816 128.62404 63.32051
#
# Poissons Ratio (x) = 0.34604 0.13757
# Poissons Ratio (y) = 0.19201 0.03770
# Poissons Ratio (z) = 0.15506 0.07658
#
# Static dielectric constant tensor:
#      x y z
#    x 2.125370 0.000000 0.138900 
#    y 0.000000 2.127130 0.000000 
#    z 0.138900 0.000000 2.543750 
# 
# From -- ./inp_files/103067.got.cif
#   From: 2010.05.17/outbox.cif.g08.bks.cpg/sg15_52_cif.got.tgz:103067.got - 2010.06.03 18:47:42.
