data_PCOD9259899
_publ_section_title
;
Structure prediction by ZEFSAII (Michael W. Deem and Ramdas Pophale) SiO2 
 PCOD9259899
Probable space group: C 2/C
;
_chemical_formula_sum "Si O2"
_cell_formula_units_Z 60
_cell_length_a 31.279074
_cell_length_b 9.713637
_cell_length_c 25.100925
_cell_angle_alpha 90.000000
_cell_angle_beta 154.071176
_cell_angle_gamma 90.000000
_cell_volume 3334.721346
_symmetry_space_group_name_H-M "C 2/C"
_symmetry_group_IT_number 15
_symmetry_cell_setting 'monoclinic'
loop_
_space_group_symop_operation_xyz
x,y,z
-x,y,1/2-z
-x,-y,-z
x,-y,1/2+z
1/2+x,1/2+y,z
1/2-x,1/2+y,1/2-z
1/2-x,1/2-y,-z
1/2+x,1/2-y,1/2+z
loop_
_atom_site_type_symbol
_atom_site_label
_atom_site_fract_x
_atom_site_fract_y
_atom_site_fract_z
Si Si1 0.245857 0.302324 0.820795
Si Si2 0.026602 0.651436 0.053682
Si Si3 0.500000 0.949464 0.250000
Si Si4 0.275025 0.004353 0.385934
Si Si5 0.846090 0.201296 0.322897
Si Si6 0.001676 0.489227 0.632787
Si Si7 0.299817 0.801323 0.002626
Si Si8 0.791611 0.588002 0.676475
O O1 0.138980 0.311636 0.674168
O O2 0.263441 0.158543 0.869601
O O3 0.318928 0.312590 0.853697
O O4 0.247083 0.434161 0.860248
O O5 0.008179 0.633635 0.096775
O O6 0.000000 0.500000 0.000000
O O7 0.960729 0.765490 0.951577
O O8 0.407961 0.850325 0.137669
O O9 0.488555 0.034092 0.292534
O O10 0.389117 0.042463 0.500142
O O11 0.199723 0.075965 0.261108
O O12 0.254383 0.067161 0.420959
O O13 0.800511 0.337585 0.243752
O O14 0.097423 0.580714 0.723751
O O15 0.250000 0.750000 0.000000
O O16 0.281121 0.679024 0.939925
#
# Coordination Sequence:
#
# PCOD9259899 Si02
#       8
#     8   8   4   8   8   8   8   8
#     4  11  21  35  55  84 120 150 185 238 284 341
#     4  11  20  35  60  81 114 157 198 229 287 352
#     4  10  20  34  68  84 112 148 200 248 282 336
#     4  10  22  34  56  86 117 146 194 237 287 338
#     4  11  20  35  56  85 114 157 189 235 277 352
#     4  10  18  36  58  87 108 153 200 236 279 350
#     4  10  20  39  61  87 108 146 195 245 285 344
#     4  10  21  36  62  82 116 153 193 233 290 343
#
# _framework density 17.992508000000001
#
# number of rings (size 3 to 8) (size 9 to 14) (size 15 to 20)
#    0.000    1.600    5.333    1.600    0.000    0.533 
#    0.000    2.000    0.000    0.800    0.000    0.000 
#    0.000    0.000    0.000    0.000    0.000    0.000 
#
# Total GULP energy -167008.656207 kJ/mol
# GULP energy per Si atom -5566.955207 kJ/mol
# Density = 1.795156 g / cm^3
# Si number density = 17.992508 Si / 1000 Ang^3
#
#
#
# Elastic Constant Matrix: (Units=GPa)
#
#
# Indices 1 2 3 4 5 6 
#
# 1 42.4620 4.9783 -1.8886 0.0000 -8.5474 0.0000
# 2 4.9783 78.9501 21.5890 0.0000 -8.6938 0.0000
# 3 -1.8886 21.5890 70.1146 0.0000 -12.2748 0.0000
# 4 0.0000 0.0000 0.0000 18.6526 0.0000 -0.1269
# 5 -8.5474 -8.6938 -12.2748 0.0000 25.3025 0.0000
# 6 0.0000 0.0000 0.0000 -0.1269 0.0000 18.1381
#
#
#
# Elastic Compliance Matrix: (Units=1/GPa)
#
#
# Indices 1 2 3 4 5 6 
#
# 1 0.025762 -0.001329 0.002783 0.000000 0.009596 0.000000
# 2 -0.001329 0.014102 -0.003943 0.000000 0.002484 0.000000
# 3 0.002783 -0.003943 0.016915 0.000000 0.007791 0.000000
# 4 0.000000 0.000000 0.000000 0.053615 0.000000 0.000375
# 5 0.009596 0.002484 0.007791 0.000000 0.047397 0.000000
# 6 0.000000 0.000000 0.000000 0.000375 0.000000 0.055135
#
#
# Mechanical properties :
#
#
# Convention : Reuss Voigt Hill
#
# Bulk Modulus (GPa) = 19.30453 26.76489 23.03471
# Shear Modulus (GPa) = 21.26122 23.54182 22.40152
#
# Velocity S-wave (km/s) = 3.44127 3.62114 3.53235
# Velocity P-wave (km/s) = 5.15192 5.69134 5.42834
#
# Compressibility (1/GPa) = 0.05180131
#
# Stress axis : x y z
#
# Youngs Moduli (GPa) = 38.81727 70.91329 59.11753
#
# Poissons Ratio (x) = 0.09423 -0.16453
# Poissons Ratio (y) = 0.05158 0.23310
# Poissons Ratio (z) = -0.10803 0.27962
#
# Static dielectric constant tensor:
#      x y z
#    x 1.608150 0.000000 -0.036050 
#    y 0.000000 1.604430 0.000000 
#    z -0.036050 0.000000 1.612400 
# 
# From -- ./inp_files/284330.got.cif
#   From: 2010.05.17/outbox.cif.g08.bks.cpg/sg15_143_cif.got.tgz:284330.got - 2010.06.03 18:47:42.
