data_PCOD9259630
_publ_section_title
;
Structure prediction by ZEFSAII (Michael W. Deem and Ramdas Pophale) SiO2 
 PCOD9259630
Probable space group: C 2/C
;
_chemical_formula_sum "Si O2"
_cell_formula_units_Z 44
_cell_length_a 10.234960
_cell_length_b 25.516383
_cell_length_c 8.754382
_cell_angle_alpha 90.000000
_cell_angle_beta 62.797738
_cell_angle_gamma 90.000000
_cell_volume 2033.419871
_symmetry_space_group_name_H-M "C 2/C"
_symmetry_group_IT_number 15
_symmetry_cell_setting 'monoclinic'
loop_
_space_group_symop_operation_xyz
x,y,z
-x,y,1/2-z
-x,-y,-z
x,-y,1/2+z
1/2+x,1/2+y,z
1/2-x,1/2+y,1/2-z
1/2-x,1/2-y,-z
1/2+x,1/2-y,1/2+z
loop_
_atom_site_type_symbol
_atom_site_label
_atom_site_fract_x
_atom_site_fract_y
_atom_site_fract_z
Si Si1 0.500000 0.842041 0.250000
Si Si2 0.826232 0.517631 0.384641
Si Si3 0.000000 0.700344 0.250000
Si Si4 0.000000 0.840186 0.750000
Si Si5 0.094133 0.384705 0.467296
Si Si6 0.902580 0.750260 0.008811
Si Si7 0.757500 0.423882 0.623937
O O1 0.628204 0.873369 0.269819
O O2 0.529392 0.801899 0.098660
O O3 0.828731 0.563689 0.510042
O O4 0.756215 0.465447 0.488204
O O5 0.744321 0.541516 0.283672
O O6 0.000000 0.508305 0.250000
O O7 0.100950 0.661016 0.092956
O O8 0.092656 0.737855 0.314393
O O9 0.987910 0.801268 0.902687
O O10 0.858876 0.877475 0.820884
O O11 0.921079 0.399729 0.546892
O O12 0.750000 0.750000 0.000000
#
# Coordination Sequence:
#
# PCOD9259630 Si02
#       7
#     4   8   4   4   8   8   8
#     4   9  20  32  59  90 116 149 200 259 316 366
#     4  10  21  38  62  94 122 162 215 263 313 368
#     4  10  18  38  63  93 119 155 216 266 320 370
#     4  11  24  44  60  89 131 174 206 259 330 384
#     4  10  18  35  61  95 120 153 206 266 318 362
#     4  10  22  42  61  89 124 167 214 261 317 386
#     4  11  23  39  61  86 132 165 210 261 314 382
#
# _framework density 21.638421999999998
#
# number of rings (size 3 to 8) (size 9 to 14) (size 15 to 20)
#    0.000    1.818    2.727    4.364    3.818    0.727 
#    3.273    3.636    0.000    0.000    0.000    0.000 
#    0.000    0.000    0.000    0.000    0.000    0.000 
#
# Total GULP energy -122645.007077 kJ/mol
# GULP energy per Si atom -5574.773049 kJ/mol
# Density = 2.158917 g / cm^3
# Si number density = 21.638422 Si / 1000 Ang^3
#
#
#
# Elastic Constant Matrix: (Units=GPa)
#
#
# Indices 1 2 3 4 5 6 
#
# 1 41.5853 38.4142 23.4714 0.0000 14.0537 0.0000
# 2 38.4142 162.7123 66.5597 0.0000 16.6941 0.0000
# 3 23.4714 66.5597 76.5962 0.0000 36.5423 0.0000
# 4 0.0000 0.0000 0.0000 44.7749 0.0000 -0.9794
# 5 14.0537 16.6941 36.5423 0.0000 28.5995 0.0000
# 6 0.0000 0.0000 0.0000 -0.9794 0.0000 28.0583
#
#
#
# Elastic Compliance Matrix: (Units=1/GPa)
#
#
# Indices 1 2 3 4 5 6 
#
# 1 0.035707 -0.009235 0.007383 0.000000 -0.021589 0.000000
# 2 -0.009235 0.014214 -0.019795 0.000000 0.021533 0.000000
# 3 0.007383 -0.019795 0.062016 0.000000 -0.071312 0.000000
# 4 0.000000 0.000000 0.000000 0.022351 0.000000 0.000780
# 5 -0.021589 0.021533 -0.071312 0.000000 0.124122 0.000000
# 6 0.000000 0.000000 0.000000 0.000780 0.000000 0.035667
#
#
# Mechanical properties :
#
#
# Convention : Reuss Voigt Hill
#
# Bulk Modulus (GPa) = 14.56826 59.75382 37.16104
# Shear Modulus (GPa) = 13.87920 30.44979 22.16450
#
# Velocity S-wave (km/s) = 2.53536 3.75535 3.20396
# Velocity P-wave (km/s) = 3.91382 6.81749 5.55860
#
# Compressibility (1/GPa) = 0.06864236
#
# Stress axis : x y z
#
# Youngs Moduli (GPa) = 28.00602 70.35273 16.12497
#
# Poissons Ratio (x) = 0.64970 -0.11905
# Poissons Ratio (y) = 0.25863 0.31919
# Poissons Ratio (z) = -0.20676 1.39262
#
# Static dielectric constant tensor:
#      x y z
#    x 1.786430 0.000000 0.068780 
#    y 0.000000 1.347080 0.000000 
#    z 0.068780 0.000000 2.051780 
# 
# From -- ./inp_files/31870.got.cif
#   From: 2010.05.17/outbox.cif.g08.bks.cpg/sg15_16_cif.got.tgz:31870.got - 2010.06.03 18:47:42.
