data_PCOD9259545
_publ_section_title
;
Structure prediction by ZEFSAII (Michael W. Deem and Ramdas Pophale) SiO2 
 PCOD9259545
Probable space group: C 2/C
;
_chemical_formula_sum "Si O2"
_cell_formula_units_Z 36
_cell_length_a 6.814501
_cell_length_b 18.114116
_cell_length_c 17.757644
_cell_angle_alpha 90.000000
_cell_angle_beta 124.804355
_cell_angle_gamma 90.000000
_cell_volume 1799.847394
_symmetry_space_group_name_H-M "C 2/C"
_symmetry_group_IT_number 15
_symmetry_cell_setting 'monoclinic'
loop_
_space_group_symop_operation_xyz
x,y,z
-x,y,1/2-z
-x,-y,-z
x,-y,1/2+z
1/2+x,1/2+y,z
1/2-x,1/2+y,1/2-z
1/2-x,1/2-y,-z
1/2+x,1/2-y,1/2+z
loop_
_atom_site_type_symbol
_atom_site_label
_atom_site_fract_x
_atom_site_fract_y
_atom_site_fract_z
Si Si1 0.500000 0.312995 0.250000
Si Si2 0.273658 0.407933 0.587703
Si Si3 0.054010 0.836716 0.512883
Si Si4 0.769781 0.925360 0.085974
Si Si5 0.405768 0.779402 0.863261
O O1 0.340183 0.365829 0.163587
O O2 0.653831 0.263477 0.226059
O O3 0.441541 0.369716 0.563015
O O4 0.340566 0.491557 0.622668
O O5 0.011174 0.416901 0.492132
O O6 0.238022 0.352836 0.649523
O O7 0.096799 0.901515 0.461418
O O8 0.314253 0.801305 0.584506
O O9 0.899941 0.774804 0.434682
#
# Coordination Sequence:
#
# PCOD9259545 Si02
#       5
#     4   8   8   8   8
#     4  10  20  40  50  74 124 150 164 230 292 314
#     4  10  18  35  60  83 101 143 197 224 258 337
#     4   9  17  34  57  80 102 141 183 225 271 324
#     4   9  20  35  57  78 114 144 178 228 280 324
#     4   9  19  33  54  78 108 142 180 224 272 325
#
# _framework density 20.001695999999999
#
# number of rings (size 3 to 8) (size 9 to 14) (size 15 to 20)
#    0.000    2.667    0.000    2.667    0.000    0.000 
#    4.000    8.889    0.000    0.000    0.000    0.000 
#    0.000    0.000    0.000    0.000    0.000    0.000 
#
# Total GULP energy -100491.241704 kJ/mol
# GULP energy per Si atom -5582.846761 kJ/mol
# Density = 1.995617 g / cm^3
# Si number density = 20.001696 Si / 1000 Ang^3
#
#
#
# Elastic Constant Matrix: (Units=GPa)
#
#
# Indices 1 2 3 4 5 6 
#
# 1 56.1524 47.8079 20.0911 0.0000 -20.9269 0.0000
# 2 47.8079 158.0046 36.9764 0.0000 -27.7432 0.0000
# 3 20.0911 36.9764 57.8612 0.0000 -23.3201 0.0000
# 4 0.0000 0.0000 0.0000 12.6635 0.0000 -3.9370
# 5 -20.9269 -27.7432 -23.3201 0.0000 23.4615 0.0000
# 6 0.0000 0.0000 0.0000 -3.9370 0.0000 19.4520
#
#
#
# Elastic Compliance Matrix: (Units=1/GPa)
#
#
# Indices 1 2 3 4 5 6 
#
# 1 0.030245 -0.005734 0.002173 0.000000 0.022357 0.000000
# 2 -0.005734 0.009240 -0.002622 0.000000 0.003206 0.000000
# 3 0.002173 -0.002622 0.029589 0.000000 0.028249 0.000000
# 4 0.000000 0.000000 0.000000 0.084270 0.000000 0.017056
# 5 0.022357 0.003206 0.028249 0.000000 0.094434 0.000000
# 6 0.000000 0.000000 0.000000 0.017056 0.000000 0.054861
#
#
# Mechanical properties :
#
#
# Convention : Reuss Voigt Hill
#
# Bulk Modulus (GPa) = 17.63409 53.52988 35.58199
# Shear Modulus (GPa) = 14.97417 22.25826 18.61621
#
# Velocity S-wave (km/s) = 2.73911 3.33951 3.05410
# Velocity P-wave (km/s) = 4.34040 6.45682 5.50135
#
# Compressibility (1/GPa) = 0.05670833
#
# Stress axis : x y z
#
# Youngs Moduli (GPa) = 33.06292 108.21933 33.79645
#
# Poissons Ratio (x) = 0.62058 -0.07345
# Poissons Ratio (y) = 0.18960 0.08861
# Poissons Ratio (z) = -0.07185 0.28374
#
# Static dielectric constant tensor:
#      x y z
#    x 1.688600 0.000000 0.012130 
#    y 0.000000 1.733260 0.000000 
#    z 0.012130 0.000000 1.706370 
# 
# From -- ./inp_files/128747.got.cif
#   From: 2010.05.17/outbox.cif.g08.bks.cpg/sg15_65_cif.got.tgz:128747.got - 2010.06.03 18:47:42.
