data_PCOD9259706
_publ_section_title
;
Structure prediction by ZEFSAII (Michael W. Deem and Ramdas Pophale) SiO2 
 PCOD9259706
Probable space group: C 2/C
;
_chemical_formula_sum "Si O2"
_cell_formula_units_Z 48
_cell_length_a 7.726944
_cell_length_b 16.958283
_cell_length_c 22.373124
_cell_angle_alpha 90.000000
_cell_angle_beta 50.788373
_cell_angle_gamma 90.000000
_cell_volume 2271.511679
_symmetry_space_group_name_H-M "C 2/C"
_symmetry_group_IT_number 15
_symmetry_cell_setting 'monoclinic'
loop_
_space_group_symop_operation_xyz
x,y,z
-x,y,1/2-z
-x,-y,-z
x,-y,1/2+z
1/2+x,1/2+y,z
1/2-x,1/2+y,1/2-z
1/2-x,1/2-y,-z
1/2+x,1/2-y,1/2+z
loop_
_atom_site_type_symbol
_atom_site_label
_atom_site_fract_x
_atom_site_fract_y
_atom_site_fract_z
Si Si1 0.808354 0.403190 0.342578
Si Si2 0.391312 0.896969 0.563057
Si Si3 0.730345 0.765961 0.815927
Si Si4 0.500000 0.523240 0.750000
Si Si5 0.424931 0.074495 0.597130
Si Si6 0.390652 0.442695 0.654885
Si Si7 0.000000 0.676206 0.250000
O O1 0.699269 0.320865 0.349071
O O2 0.647078 0.477826 0.373777
O O3 0.000000 0.417675 0.250000
O O4 0.919763 0.397787 0.383010
O O5 0.371286 0.830711 0.617342
O O6 0.539478 0.880659 0.472580
O O7 0.138946 0.910102 0.593721
O O8 0.465005 0.981133 0.574728
O O9 0.612468 0.774527 0.778028
O O10 0.000000 0.778246 0.750000
O O11 0.674078 0.575415 0.676140
O O12 0.376411 0.468419 0.728293
O O13 0.197504 0.380819 0.683247
#
# Coordination Sequence:
#
# PCOD9259706 Si02
#       7
#     8   8   8   4   8   8   4
#     4  11  22  38  59  96 126 175 217 267 325 395
#     4  10  22  40  64  99 127 172 219 275 323 386
#     4  11  24  41  62  97 134 173 221 271 334 382
#     4  10  18  35  64  97 120 166 212 272 326 381
#     4  10  21  39  67  93 130 171 218 271 327 389
#     4  11  19  35  64  91 123 166 222 267 321 385
#     4  12  20  39  68  93 128 176 220 278 318 389
#
# _framework density 21.131301000000001
#
# number of rings (size 3 to 8) (size 9 to 14) (size 15 to 20)
#    0.000    1.333    4.167    3.000    1.167    2.000 
#    3.000    1.667    0.000   10.000    0.000    0.000 
#    0.000    0.000    0.000    0.000    0.000    0.000 
#
# Total GULP energy -134236.838280 kJ/mol
# GULP energy per Si atom -5593.201595 kJ/mol
# Density = 2.108321 g / cm^3
# Si number density = 21.131301 Si / 1000 Ang^3
#
#
#
# Elastic Constant Matrix: (Units=GPa)
#
#
# Indices 1 2 3 4 5 6 
#
# 1 120.8200 45.2415 30.8220 0.0001 25.3765 -0.0009
# 2 45.2415 80.5874 13.7648 0.0001 13.8099 -0.0003
# 3 30.8220 13.7648 114.8025 0.0002 12.5218 -0.0006
# 4 0.0001 0.0001 0.0002 4.6449 0.0000 2.9968
# 5 25.3765 13.8099 12.5218 0.0000 27.8790 0.0008
# 6 -0.0009 -0.0003 -0.0006 2.9968 0.0008 31.5155
#
#
#
# Elastic Compliance Matrix: (Units=1/GPa)
#
#
# Indices 1 2 3 4 5 6 
#
# 1 0.012366 -0.005291 -0.001834 -0.000001 -0.007812 0.000001
# 2 -0.005291 0.015920 -0.000161 0.000000 -0.002998 0.000000
# 3 -0.001834 -0.000161 0.009497 0.000000 -0.002516 0.000000
# 4 -0.000001 0.000000 0.000000 0.229361 0.000002 -0.021810
# 5 -0.007812 -0.002998 -0.002516 0.000002 0.045595 -0.000002
# 6 0.000001 0.000000 0.000000 -0.021810 -0.000002 0.033804
#
#
# Mechanical properties :
#
#
# Convention : Reuss Voigt Hill
#
# Bulk Modulus (GPa) = 43.08098 55.09630 49.08864
# Shear Modulus (GPa) = 13.55555 27.90000 20.72777
#
# Velocity S-wave (km/s) = 2.53552 3.63756 3.13534
# Velocity P-wave (km/s) = 5.38547 6.61607 6.03223
#
# Compressibility (1/GPa) = 0.02321210
#
# Stress axis : x y z
#
# Youngs Moduli (GPa) = 80.86391 62.81284 105.29926
#
# Poissons Ratio (x) = 0.33231 0.19309
# Poissons Ratio (y) = 0.42782 0.01700
# Poissons Ratio (z) = 0.14828 0.01014
#
# Static dielectric constant tensor:
#      x y z
#    x 1.768060 0.000000 -0.010320 
#    y 0.000000 1.767830 0.000000 
#    z -0.010320 0.000000 1.783610 
# 
# From -- ./inp_files/232558.got.cif
#   From: 2010.05.17/outbox.cif.g08.bks.cpg/sg15_117_cif.got.tgz:232558.got - 2010.06.03 18:47:42.
