data_PCOD9259435
_publ_section_title
;
Structure prediction by ZEFSAII (Michael W. Deem and Ramdas Pophale) SiO2 
 PCOD9259435
Probable space group: C 2/C
;
_chemical_formula_sum "Si O2"
_cell_formula_units_Z 56
_cell_length_a 12.485569
_cell_length_b 12.020823
_cell_length_c 14.720646
_cell_angle_alpha 90.000000
_cell_angle_beta 98.069249
_cell_angle_gamma 90.000000
_cell_volume 2187.500157
_symmetry_space_group_name_H-M "C 2/C"
_symmetry_group_IT_number 15
_symmetry_cell_setting 'monoclinic'
loop_
_space_group_symop_operation_xyz
x,y,z
-x,y,1/2-z
-x,-y,-z
x,-y,1/2+z
1/2+x,1/2+y,z
1/2-x,1/2+y,1/2-z
1/2-x,1/2-y,-z
1/2+x,1/2-y,1/2+z
loop_
_atom_site_type_symbol
_atom_site_label
_atom_site_fract_x
_atom_site_fract_y
_atom_site_fract_z
Si Si1 0.284632 0.252987 0.650689
Si Si2 0.993254 0.422248 0.412880
Si Si3 0.020320 0.920558 0.860577
Si Si4 0.821421 0.456899 0.791029
Si Si5 0.317901 0.593969 0.590613
Si Si6 0.668526 0.267999 0.630733
Si Si7 0.772527 0.530409 0.594486
O O1 0.381968 0.328794 0.615359
O O2 0.191072 0.345280 0.654629
O O3 0.327240 0.241226 0.760493
O O4 0.213101 0.144694 0.611521
O O5 0.114681 0.398525 0.399417
O O6 0.000000 0.500000 0.500000
O O7 0.934983 0.489393 0.326209
O O8 0.917557 0.318798 0.421882
O O9 0.000000 0.926925 0.750000
O O10 0.905488 0.879777 0.887856
O O11 0.062848 0.040613 0.899296
O O12 0.731743 0.537191 0.824897
O O13 0.793777 0.449154 0.681961
O O14 0.281436 0.722292 0.599856
O O15 0.255857 0.536407 0.498426
#
# Coordination Sequence:
#
# PCOD9259435 Si02
#       7
#     8   8   8   8   8   8   8
#     4  10  20  34  57  84 122 168 205 259 322 388
#     4  11  19  33  57  87 124 153 200 262 323 378
#     4   9  19  33  58  89 120 167 217 262 327 395
#     4  10  22  35  53  89 124 160 210 261 318 394
#     4  10  21  35  58  92 125 164 215 273 320 394
#     4  10  18  35  57  85 125 162 206 262 328 384
#     4  12  20  35  61  86 121 166 204 258 334 378
#
# _framework density 25.599996999999998
#
# number of rings (size 3 to 8) (size 9 to 14) (size 15 to 20)
#    0.000    1.714    7.143    0.429    0.000    3.429 
#    0.000    0.714    0.000    9.429    0.000    0.000 
#    0.000    0.000    0.000    0.000    0.000    0.000 
#
# Total GULP energy -156018.240642 kJ/mol
# GULP energy per Si atom -5572.080023 kJ/mol
# Density = 2.554173 g / cm^3
# Si number density = 25.599997 Si / 1000 Ang^3
#
#
#
# Elastic Constant Matrix: (Units=GPa)
#
#
# Indices 1 2 3 4 5 6 
#
# 1 52.0804 17.7860 13.0466 0.0000 14.6196 0.0000
# 2 17.7860 75.9173 8.8754 0.0000 -3.1973 0.0000
# 3 13.0466 8.8754 90.4822 0.0000 14.4044 0.0000
# 4 0.0000 0.0000 0.0000 35.1953 0.0000 6.7933
# 5 14.6196 -3.1973 14.4044 0.0000 18.3701 0.0000
# 6 0.0000 0.0000 0.0000 6.7933 0.0000 24.8891
#
#
#
# Elastic Compliance Matrix: (Units=1/GPa)
#
#
# Indices 1 2 3 4 5 6 
#
# 1 0.028627 -0.007806 0.000550 0.000000 -0.024572 0.000000
# 2 -0.007806 0.015692 -0.002100 0.000000 0.010590 0.000000
# 3 0.000550 -0.002100 0.012919 0.000000 -0.010933 0.000000
# 4 0.000000 0.000000 0.000000 0.029993 0.000000 -0.008186
# 5 -0.024572 0.010590 -0.010933 0.000000 0.084407 0.000000
# 6 0.000000 0.000000 0.000000 -0.008186 0.000000 0.042413
#
#
# Mechanical properties :
#
#
# Convention : Reuss Voigt Hill
#
# Bulk Modulus (GPa) = 25.95589 33.09951 29.52770
# Shear Modulus (GPa) = 20.35789 27.60903 23.98346
#
# Velocity S-wave (km/s) = 2.82304 3.28758 3.06413
# Velocity P-wave (km/s) = 4.55929 5.23149 4.90691
#
# Compressibility (1/GPa) = 0.03852690
#
# Stress axis : x y z
#
# Youngs Moduli (GPa) = 34.93232 63.72490 77.40498
#
# Poissons Ratio (x) = 0.49743 -0.04255
# Poissons Ratio (y) = 0.27268 0.16252
# Poissons Ratio (z) = -0.01920 0.13380
#
# Static dielectric constant tensor:
#      x y z
#    x 19.746250 0.000000 -3.815430 
#    y 0.000000 1.498320 0.000000 
#    z -3.815430 0.000000 2.815680 
# 
# From -- ./inp_files/153508.got.cif
#   From: 2010.05.17/outbox.cif.g08.bks.cpg/sg15_77_cif.got.tgz:153508.got - 2010.06.03 18:47:42.
