data_PCOD9259578
_publ_section_title
;
Structure prediction by ZEFSAII (Michael W. Deem and Ramdas Pophale) SiO2 
 PCOD9259578
Probable space group: C 2/C
;
_chemical_formula_sum "Si O2"
_cell_formula_units_Z 40
_cell_length_a 19.357333
_cell_length_b 19.706466
_cell_length_c 10.214289
_cell_angle_alpha 90.000000
_cell_angle_beta 35.352265
_cell_angle_gamma 90.000000
_cell_volume 2254.458461
_symmetry_space_group_name_H-M "C 2/C"
_symmetry_group_IT_number 15
_symmetry_cell_setting 'monoclinic'
loop_
_space_group_symop_operation_xyz
x,y,z
-x,y,1/2-z
-x,-y,-z
x,-y,1/2+z
1/2+x,1/2+y,z
1/2-x,1/2+y,1/2-z
1/2-x,1/2-y,-z
1/2+x,1/2-y,1/2+z
loop_
_atom_site_type_symbol
_atom_site_label
_atom_site_fract_x
_atom_site_fract_y
_atom_site_fract_z
Si Si1 0.796647 0.660870 0.810494
Si Si2 0.662640 0.323984 0.263119
Si Si3 0.999230 0.436040 0.097102
Si Si4 0.113445 0.190049 0.322806
Si Si5 0.279862 0.836120 0.802659
O O1 0.737561 0.641967 0.763796
O O2 0.877001 0.728706 0.668328
O O3 0.879850 0.605431 0.747499
O O4 0.688374 0.677726 0.075557
O O5 0.521137 0.335247 0.482510
O O6 0.677647 0.242640 0.263324
O O7 0.718872 0.344885 0.037935
O O8 0.000000 0.453719 0.250000
O O9 0.111134 0.386678 0.892585
O O10 0.000000 0.500000 0.000000
O O11 0.182926 0.157107 0.337166
#
# Coordination Sequence:
#
# PCOD9259578 Si02
#       5
#     8   8   8   8   8
#     4  10  21  34  61  89 121 155 202 243 303 361
#     4  10  20  33  60  94 125 152 188 252 312 363
#     4  12  26  44  63  84 122 166 209 250 289 361
#     4  10  18  35  60  90 124 157 186 253 310 359
#     4  10  21  36  57  90 125 157 197 245 304 359
#
# _framework density 17.742621
#
# number of rings (size 3 to 8) (size 9 to 14) (size 15 to 20)
#    0.000    1.600    4.000    1.200    2.800    0.000 
#    0.000    0.000    0.000    7.200    0.000    0.000 
#    0.000    0.000    0.000    0.000    0.000    0.000 
#
# Total GULP energy -111635.426500 kJ/mol
# GULP energy per Si atom -5581.771325 kJ/mol
# Density = 1.770224 g / cm^3
# Si number density = 17.742621 Si / 1000 Ang^3
#
#
#
# Elastic Constant Matrix: (Units=GPa)
#
#
# Indices 1 2 3 4 5 6 
#
# 1 121.6550 12.1369 46.7640 0.0000 11.0383 0.0000
# 2 12.1369 36.2136 16.5297 0.0000 5.1226 0.0000
# 3 46.7640 16.5297 73.6527 0.0000 2.0509 0.0000
# 4 0.0000 0.0000 0.0000 14.9799 -0.0001 3.9928
# 5 11.0383 5.1226 2.0509 -0.0001 37.7794 0.0000
# 6 0.0000 0.0000 0.0000 3.9928 0.0000 19.1562
#
#
#
# Elastic Compliance Matrix: (Units=1/GPa)
#
#
# Indices 1 2 3 4 5 6 
#
# 1 0.011180 -0.000154 -0.006984 0.000000 -0.002867 0.000000
# 2 -0.000154 0.031323 -0.006826 0.000000 -0.003832 0.000000
# 3 -0.006984 -0.006826 0.019490 0.000000 0.001908 0.000000
# 4 0.000000 0.000000 0.000000 0.070683 0.000000 -0.014733
# 5 -0.002867 -0.003832 0.001908 0.000000 0.027723 0.000000
# 6 0.000000 0.000000 0.000000 -0.014733 0.000000 0.055273
#
#
# Mechanical properties :
#
#
# Convention : Reuss Voigt Hill
#
# Bulk Modulus (GPa) = 29.35409 42.48694 35.92051
# Shear Modulus (GPa) = 19.61133 24.78916 22.20024
#
# Velocity S-wave (km/s) = 3.32825 3.74191 3.54112
# Velocity P-wave (km/s) = 5.59910 6.53203 6.08348
#
# Compressibility (1/GPa) = 0.03406680
#
# Stress axis : x y z
#
# Youngs Moduli (GPa) = 89.44444 31.92551 51.30727
#
# Poissons Ratio (x) = 0.00490 0.35834
# Poissons Ratio (y) = 0.01373 0.35020
# Poissons Ratio (z) = 0.62470 0.21791
#
# Static dielectric constant tensor:
#      x y z
#    x 1.599440 0.000000 0.009310 
#    y 0.000000 1.603780 0.000000 
#    z 0.009310 0.000000 1.586480 
# 
# From -- ./inp_files/30158.got.cif
#   From: 2010.05.17/outbox.cif.g08.bks.cpg/sg15_16_cif.got.tgz:30158.got - 2010.06.03 18:47:42.
