data_PCOD9259133
_publ_section_title
;
Structure prediction by ZEFSAII (Michael W. Deem and Ramdas Pophale) SiO2 
 PCOD9259133
Probable space group: C 2/C
;
_chemical_formula_sum "Si O2"
_cell_formula_units_Z 44
_cell_length_a 13.264815
_cell_length_b 12.495959
_cell_length_c 10.269010
_cell_angle_alpha 90.000000
_cell_angle_beta 103.719803
_cell_angle_gamma 90.000000
_cell_volume 1653.588752
_symmetry_space_group_name_H-M "C 2/C"
_symmetry_group_IT_number 15
_symmetry_cell_setting 'monoclinic'
loop_
_space_group_symop_operation_xyz
x,y,z
-x,y,1/2-z
-x,-y,-z
x,-y,1/2+z
1/2+x,1/2+y,z
1/2-x,1/2+y,1/2-z
1/2-x,1/2-y,-z
1/2+x,1/2-y,1/2+z
loop_
_atom_site_type_symbol
_atom_site_label
_atom_site_fract_x
_atom_site_fract_y
_atom_site_fract_z
Si Si1 0.793367 0.137878 0.641526
Si Si2 0.603647 0.459781 0.103974
Si Si3 0.886181 0.492039 0.034882
Si Si4 0.500000 0.861616 0.750000
Si Si5 0.078795 0.260495 0.503626
Si Si6 0.355382 0.695180 0.383057
O O1 0.885910 0.083701 0.747099
O O2 0.728424 0.225748 0.701982
O O3 0.842357 0.200802 0.535766
O O4 0.706657 0.052321 0.568415
O O5 0.633932 0.354970 0.029659
O O6 0.664662 0.570404 0.141135
O O7 0.500000 0.500000 0.000000
O O8 0.868956 0.365352 0.040277
O O9 0.000000 0.500000 0.000000
O O10 0.908790 0.559506 0.171687
O O11 0.544507 0.795531 0.640738
O O12 0.971421 0.234831 0.393834
#
# Coordination Sequence:
#
# PCOD9259133 Si02
#       6
#     8   8   8   4   8   8
#     4  11  22  39  65  95 128 161 226 260 316 396
#     4  10  24  40  65  91 130 173 209 266 326 387
#     4  10  21  36  59  95 124 161 208 265 317 373
#     4  10  18  34  60  88 120 164 212 250 318 376
#     4  10  20  41  61  91 125 167 213 261 319 384
#     4  10  22  41  62  97 121 173 214 264 320 381
#
# _framework density 26.608792999999999
#
# number of rings (size 3 to 8) (size 9 to 14) (size 15 to 20)
#    0.000    1.818    3.636    1.091    5.091    3.636 
#    0.000    4.545    0.000    0.000    0.000    0.000 
#    0.000    0.000    0.000    0.000    0.000    0.000 
#
# Total GULP energy -122865.267660 kJ/mol
# GULP energy per Si atom -5584.784894 kJ/mol
# Density = 2.654823 g / cm^3
# Si number density = 26.608793 Si / 1000 Ang^3
#
#
#
# Elastic Constant Matrix: (Units=GPa)
#
#
# Indices 1 2 3 4 5 6 
#
# 1 113.1667 49.5552 49.7090 0.0000 32.0886 0.0000
# 2 49.5552 251.0069 30.7222 0.0000 27.6232 0.0000
# 3 49.7090 30.7222 102.2357 0.0000 33.6356 0.0000
# 4 0.0000 0.0000 0.0000 29.8852 0.0000 -6.3275
# 5 32.0886 27.6232 33.6356 0.0000 38.6003 0.0000
# 6 0.0000 0.0000 0.0000 -6.3275 0.0000 11.1735
#
#
#
# Elastic Compliance Matrix: (Units=1/GPa)
#
#
# Indices 1 2 3 4 5 6 
#
# 1 0.012923 -0.001379 -0.003728 0.000000 -0.006508 0.000000
# 2 -0.001379 0.004483 0.000002 0.000000 -0.002064 0.000000
# 3 -0.003728 0.000002 0.014824 0.000000 -0.009820 0.000000
# 4 0.000000 0.000000 0.000000 0.038020 0.000000 0.021531
# 5 -0.006508 -0.002064 -0.009820 0.000000 0.041350 0.000000
# 6 0.000000 0.000000 0.000000 0.021531 0.000000 0.101691
#
#
# Mechanical properties :
#
#
# Convention : Reuss Voigt Hill
#
# Bulk Modulus (GPa) = 45.41146 80.70912 63.06029
# Shear Modulus (GPa) = 21.65994 38.35998 30.00996
#
# Velocity S-wave (km/s) = 2.85619 3.80100 3.36195
# Velocity P-wave (km/s) = 5.28966 7.04706 6.23063
#
# Compressibility (1/GPa) = 0.02202087
#
# Stress axis : x y z
#
# Youngs Moduli (GPa) = 77.38023 223.06338 67.45797
#
# Poissons Ratio (x) = 0.30758 0.25149
# Poissons Ratio (y) = 0.10670 -0.00015
# Poissons Ratio (z) = 0.28848 -0.00051
#
# Static dielectric constant tensor:
#      x y z
#    x 2.172380 0.000000 -0.050540 
#    y 0.000000 2.107220 0.000000 
#    z -0.050540 0.000000 2.142740 
# 
# From -- ./inp_files/104367.got.cif
#   From: 2010.05.17/outbox.cif.g08.bks.cpg/sg15_53_cif.got.tgz:104367.got - 2010.06.03 18:47:42.
