data_PCOD9259855
_publ_section_title
;
Structure prediction by ZEFSAII (Michael W. Deem and Ramdas Pophale) SiO2 
 PCOD9259855
Probable space group: C 2/C
;
_chemical_formula_sum "Si O2"
_cell_formula_units_Z 56
_cell_length_a 16.156980
_cell_length_b 10.176355
_cell_length_c 24.193126
_cell_angle_alpha 90.000000
_cell_angle_beta 55.096005
_cell_angle_gamma 90.000000
_cell_volume 3262.252554
_symmetry_space_group_name_H-M "C 2/C"
_symmetry_group_IT_number 15
_symmetry_cell_setting 'monoclinic'
loop_
_space_group_symop_operation_xyz
x,y,z
-x,y,1/2-z
-x,-y,-z
x,-y,1/2+z
1/2+x,1/2+y,z
1/2-x,1/2+y,1/2-z
1/2-x,1/2-y,-z
1/2+x,1/2-y,1/2+z
loop_
_atom_site_type_symbol
_atom_site_label
_atom_site_fract_x
_atom_site_fract_y
_atom_site_fract_z
Si Si1 0.613682 0.650297 0.208982
Si Si2 0.239880 0.580004 0.828298
Si Si3 0.136277 0.494925 0.597791
Si Si4 0.911526 0.421271 0.215453
Si Si5 0.613942 0.975328 0.975748
Si Si6 0.384667 0.816336 0.797518
Si Si7 0.247787 0.758599 0.435014
O O1 0.500000 0.598665 0.250000
O O2 0.686909 0.544675 0.208850
O O3 0.608146 0.788038 0.243518
O O4 0.662215 0.681475 0.130571
O O5 0.155053 0.582577 0.813981
O O6 0.185706 0.557309 0.907738
O O7 0.306948 0.710382 0.804765
O O8 0.132872 0.487339 0.532619
O O9 0.138767 0.359753 0.630623
O O10 0.227622 0.588291 0.583934
O O11 0.029649 0.562789 0.655536
O O12 0.883243 0.548903 0.262521
O O13 0.647970 0.821720 0.955527
O O14 0.500000 0.000000 0.000000
O O15 0.500000 0.766702 0.750000
O O16 0.250000 0.750000 0.500000
#
# Coordination Sequence:
#
# PCOD9259855 Si02
#       7
#     8   8   8   8   8   8   8
#     4  11  19  34  57  82 105 142 192 229 273 329
#     4  11  23  34  53  86 115 142 179 240 291 327
#     4  10  18  36  58  79 105 149 193 223 271 337
#     4  11  19  35  58  80 109 146 186 231 272 337
#     4  10  20  35  56  82 111 148 185 233 281 339
#     4  10  21  37  55  82 115 146 180 230 289 338
#     4   9  18  32  55  83 103 140 190 232 260 327
#
# _framework density 17.166053000000002
#
# number of rings (size 3 to 8) (size 9 to 14) (size 15 to 20)
#    0.000    1.714    4.286    1.714    0.000    0.571 
#    0.000    0.000    0.000    0.857    0.000    0.000 
#    0.000    0.000    0.000    0.000    0.000    0.000 
#
# Total GULP energy -156027.647254 kJ/mol
# GULP energy per Si atom -5572.415973 kJ/mol
# Density = 1.712698 g / cm^3
# Si number density = 17.166053 Si / 1000 Ang^3
#
#
#
# Elastic Constant Matrix: (Units=GPa)
#
#
# Indices 1 2 3 4 5 6 
#
# 1 86.8315 43.3898 25.2811 0.0000 0.6686 0.0000
# 2 43.3898 72.0226 24.1775 0.0000 -5.1071 0.0000
# 3 25.2811 24.1775 88.6096 0.0000 7.6407 0.0000
# 4 0.0000 0.0000 0.0000 16.0494 0.0000 -4.1670
# 5 0.6686 -5.1071 7.6407 0.0000 25.9013 0.0000
# 6 0.0000 0.0000 0.0000 -4.1670 0.0000 26.6085
#
#
#
# Elastic Compliance Matrix: (Units=1/GPa)
#
#
# Indices 1 2 3 4 5 6 
#
# 1 0.016946 -0.009643 -0.002055 0.000000 -0.001733 0.000000
# 2 -0.009643 0.021265 -0.003524 0.000000 0.005481 0.000000
# 3 -0.002055 -0.003524 0.013225 0.000000 -0.004543 0.000000
# 4 0.000000 0.000000 0.000000 0.064948 0.000000 0.010171
# 5 -0.001733 0.005481 -0.004543 0.000000 0.041074 0.000000
# 6 0.000000 0.000000 0.000000 0.010171 0.000000 0.039175
#
#
# Mechanical properties :
#
#
# Convention : Reuss Voigt Hill
#
# Bulk Modulus (GPa) = 47.63107 48.12894 47.88000
# Shear Modulus (GPa) = 21.36078 24.01952 22.69015
#
# Velocity S-wave (km/s) = 3.53138 3.74471 3.63961
# Velocity P-wave (km/s) = 6.66596 6.84071 6.75390
#
# Compressibility (1/GPa) = 0.02099470
#
# Stress axis : x y z
#
# Youngs Moduli (GPa) = 59.00937 47.02506 75.61496
#
# Poissons Ratio (x) = 0.45344 0.15536
# Poissons Ratio (y) = 0.56900 0.26646
# Poissons Ratio (z) = 0.12124 0.16571
#
# Static dielectric constant tensor:
#      x y z
#    x 1.621700 0.000000 -0.028300 
#    y 0.000000 1.587550 0.000000 
#    z -0.028300 0.000000 1.612530 
# 
# From -- ./inp_files/246929.got.cif
#   From: 2010.05.17/outbox.cif.g08.bks.cpg/sg15_124_cif.got.tgz:246929.got - 2010.06.03 18:47:42.
