data_PCOD9259589
_publ_section_title
;
Structure prediction by ZEFSAII (Michael W. Deem and Ramdas Pophale) SiO2 
 PCOD9259589
Probable space group: C 2/C
;
_chemical_formula_sum "Si O2"
_cell_formula_units_Z 32
_cell_length_a 12.019525
_cell_length_b 4.872083
_cell_length_c 28.441022
_cell_angle_alpha 90.000000
_cell_angle_beta 139.410936
_cell_angle_gamma 90.000000
_cell_volume 1083.629422
_symmetry_space_group_name_H-M "C 2/C"
_symmetry_group_IT_number 15
_symmetry_cell_setting 'monoclinic'
loop_
_space_group_symop_operation_xyz
x,y,z
-x,y,1/2-z
-x,-y,-z
x,-y,1/2+z
1/2+x,1/2+y,z
1/2-x,1/2+y,1/2-z
1/2-x,1/2-y,-z
1/2+x,1/2-y,1/2+z
loop_
_atom_site_type_symbol
_atom_site_label
_atom_site_fract_x
_atom_site_fract_y
_atom_site_fract_z
Si Si1 0.158414 0.534952 0.911542
Si Si2 0.498155 0.764742 0.459429
Si Si3 0.833122 0.200342 0.800004
Si Si4 0.333031 0.486854 0.666338
O O1 0.365452 0.522238 0.984822
O O2 0.133648 0.777656 0.865868
O O3 0.083942 0.626219 0.938416
O O4 0.032092 0.282379 0.858552
O O5 0.500000 0.000000 0.500000
O O6 0.295785 0.759487 0.383926
O O7 0.726999 0.396074 0.730566
O O8 0.773832 0.294896 0.831824
O O9 0.500000 0.564727 0.750000
#
# Coordination Sequence:
#
# PCOD9259589 Si02
#       4
#     8   8   8   8
#     4   9  17  35  60  97 134 182 234 289 347 427
#     4   8  16  30  61  95 137 182 232 287 352 417
#     4  11  23  41  64  97 138 182 232 294 356 418
#     4  10  18  35  60  97 132 184 229 295 355 420
#
# _framework density 29.530390000000001
#
# number of rings (size 3 to 8) (size 9 to 14) (size 15 to 20)
#    0.000    2.500    2.500    0.000    0.000    0.000 
#    4.500    0.000    0.000   25.500    0.000    0.000 
#    0.000    0.000    0.000    0.000    0.000    0.000 
#
# Total GULP energy -89737.870922 kJ/mol
# GULP energy per Si atom -5608.616933 kJ/mol
# Density = 2.946318 g / cm^3
# Si number density = 29.530390 Si / 1000 Ang^3
#
#
#
# Elastic Constant Matrix: (Units=GPa)
#
#
# Indices 1 2 3 4 5 6 
#
# 1 214.8786 32.6607 90.2860 -0.0008 42.1497 0.0005
# 2 32.6607 137.8956 64.7107 -0.0043 -4.1454 0.0032
# 3 90.2860 64.7107 183.8530 -0.0003 24.1408 0.0010
# 4 -0.0008 -0.0043 -0.0003 57.3477 0.0003 -5.1036
# 5 42.1497 -4.1454 24.1408 0.0003 92.8492 -0.0003
# 6 0.0005 0.0032 0.0010 -5.1036 -0.0003 28.4176
#
#
#
# Elastic Compliance Matrix: (Units=1/GPa)
#
#
# Indices 1 2 3 4 5 6 
#
# 1 0.006247 -0.000284 -0.002685 0.000000 -0.002150 0.000000
# 2 -0.000284 0.008836 -0.003147 0.000001 0.001342 -0.000001
# 3 -0.002685 -0.003147 0.007997 0.000000 -0.001001 0.000000
# 4 0.000000 0.000001 0.000000 0.017721 0.000000 0.003183
# 5 -0.002150 0.001342 -0.001001 0.000000 0.012066 0.000000
# 6 0.000000 -0.000001 0.000000 0.003183 0.000000 0.035761
#
#
# Mechanical properties :
#
#
# Convention : Reuss Voigt Hill
#
# Bulk Modulus (GPa) = 92.18637 101.32690 96.75664
# Shear Modulus (GPa) = 47.85756 58.98755 53.42255
#
# Velocity S-wave (km/s) = 4.03006 4.47421 4.25793
# Velocity P-wave (km/s) = 7.27602 7.81528 7.55047
#
# Compressibility (1/GPa) = 0.01084759
#
# Stress axis : x y z
#
# Youngs Moduli (GPa) = 160.07302 113.17155 125.04945
#
# Poissons Ratio (x) = 0.03215 0.33582
# Poissons Ratio (y) = 0.04547 0.39350
# Poissons Ratio (z) = 0.42987 0.35612
#
# Static dielectric constant tensor:
#      x y z
#    x 2.438370 0.000000 -0.046990 
#    y 0.000000 2.184380 0.000000 
#    z -0.046990 0.000000 2.323070 
# 
# From -- ./inp_files/235205.got.cif
#   From: 2010.05.17/outbox.cif.g08.bks.cpg/sg15_118_cif.got.tgz:235205.got - 2010.06.03 18:47:42.
