data_PCOD9259462
_publ_section_title
;
Structure prediction by ZEFSAII (Michael W. Deem and Ramdas Pophale) SiO2 
 PCOD9259462
Probable space group: C 2/C
;
_chemical_formula_sum "Si O2"
_cell_formula_units_Z 40
_cell_length_a 29.893818
_cell_length_b 9.791862
_cell_length_c 19.418596
_cell_angle_alpha 90.000000
_cell_angle_beta 17.082259
_cell_angle_gamma 90.000000
_cell_volume 1669.683034
_symmetry_space_group_name_H-M "C 2/C"
_symmetry_group_IT_number 15
_symmetry_cell_setting 'monoclinic'
loop_
_space_group_symop_operation_xyz
x,y,z
-x,y,1/2-z
-x,-y,-z
x,-y,1/2+z
1/2+x,1/2+y,z
1/2-x,1/2+y,1/2-z
1/2-x,1/2-y,-z
1/2+x,1/2-y,1/2+z
loop_
_atom_site_type_symbol
_atom_site_label
_atom_site_fract_x
_atom_site_fract_y
_atom_site_fract_z
Si Si1 0.401205 0.017535 0.449549
Si Si2 0.610560 0.006093 0.770939
Si Si3 0.523064 0.286823 0.917731
Si Si4 0.703428 0.305935 0.920608
Si Si5 0.930988 0.073543 0.010611
O O1 0.500000 0.930163 0.250000
O O2 0.511894 0.040423 0.351207
O O3 0.240749 0.962044 0.711875
O O4 0.352322 0.154776 0.480638
O O5 0.640341 0.169497 0.723026
O O6 0.747009 0.906143 0.591197
O O7 0.500000 0.000000 0.000000
O O8 0.519869 0.316091 0.004713
O O9 0.354944 0.226128 0.151440
O O10 0.531296 0.436367 0.871758
O O11 0.583798 0.374463 0.044880
#
# Coordination Sequence:
#
# PCOD9259462 Si02
#       5
#     8   8   8   8   8
#     4  11  23  37  56  89 122 149 187 249 302 332
#     4  10  18  35  58  83 109 150 200 228 279 349
#     4   9  19  31  56  87 108 145 205 239 271 339
#     4  10  19  33  60  82 112 156 196 238 276 350
#     4  10  19  35  58  86 115 150 195 241 284 345
#
# _framework density 23.956644000000001
#
# number of rings (size 3 to 8) (size 9 to 14) (size 15 to 20)
#    0.000    2.000    4.000    2.400    2.800    0.800 
#    0.000    1.000    0.000    2.400    0.000    0.000 
#    0.000    0.000    0.000    0.000    0.000    0.000 
#
# Total GULP energy -111601.717638 kJ/mol
# GULP energy per Si atom -5580.085882 kJ/mol
# Density = 2.390212 g / cm^3
# Si number density = 23.956644 Si / 1000 Ang^3
#
#
#
# Elastic Constant Matrix: (Units=GPa)
#
#
# Indices 1 2 3 4 5 6 
#
# 1 106.5258 21.2155 18.6359 0.0000 -32.2768 0.0000
# 2 21.2155 123.1379 18.0222 0.0000 -22.1367 0.0000
# 3 18.6359 18.0222 52.8479 0.0001 -1.2813 -0.0001
# 4 0.0000 0.0000 0.0001 7.4867 0.0000 -16.9589
# 5 -32.2768 -22.1367 -1.2813 0.0000 31.5384 0.0000
# 6 0.0000 0.0000 -0.0001 -16.9589 0.0000 34.3638
#
#
#
# Elastic Compliance Matrix: (Units=1/GPa)
#
#
# Indices 1 2 3 4 5 6 
#
# 1 0.014854 0.001027 -0.005208 -0.000001 0.015712 0.000000
# 2 0.001027 0.009870 -0.003538 0.000000 0.007836 0.000000
# 3 -0.005208 -0.003538 0.021797 0.000002 -0.006928 0.000001
# 4 -0.000001 0.000000 0.000002 -1.132795 -0.000002 -0.559048
# 5 0.015712 0.007836 -0.006928 -0.000002 0.053006 -0.000001
# 6 0.000000 0.000000 0.000001 -0.559048 -0.000001 -0.246796
#
#
# Mechanical properties :
#
#
# Convention : Reuss Voigt Hill
#
# Bulk Modulus (GPa) = 32.16975 44.25097 38.21036
# Shear Modulus (GPa) = -3.98640 29.65363 12.83361
#
# Velocity S-wave (km/s) = -1.29136 3.52206 2.31703
# Velocity P-wave (km/s) = 3.35171 5.92041 4.81068
#
# Compressibility (1/GPa) = 0.03108511
#
# Stress axis : x y z
#
# Youngs Moduli (GPa) = 67.32010 101.31201 45.87717
#
# Poissons Ratio (x) = -0.10409 0.23891
# Poissons Ratio (y) = -0.06917 0.16233
# Poissons Ratio (z) = 0.35058 0.35848
#
# Static dielectric constant tensor:
#      x y z
#    x 1.889310 0.000000 0.010290 
#    y 0.000000 2.009070 0.000000 
#    z 0.010290 0.000000 1.978090 
# 
# From -- ./inp_files/126101.got.cif
#   From: 2010.05.17/outbox.cif.g08.bks.cpg/sg15_64_cif.got.tgz:126101.got - 2010.06.03 18:47:42.
