data_PCOD9259768
_publ_section_title
;
Structure prediction by ZEFSAII (Michael W. Deem and Ramdas Pophale) SiO2 
 PCOD9259768
Probable space group: C 2/C
;
_chemical_formula_sum "Si O2"
_cell_formula_units_Z 52
_cell_length_a 11.964641
_cell_length_b 7.053659
_cell_length_c 28.988053
_cell_angle_alpha 90.000000
_cell_angle_beta 119.345850
_cell_angle_gamma 90.000000
_cell_volume 2132.499568
_symmetry_space_group_name_H-M "C 2/C"
_symmetry_group_IT_number 15
_symmetry_cell_setting 'monoclinic'
loop_
_space_group_symop_operation_xyz
x,y,z
-x,y,1/2-z
-x,-y,-z
x,-y,1/2+z
1/2+x,1/2+y,z
1/2-x,1/2+y,1/2-z
1/2-x,1/2-y,-z
1/2+x,1/2-y,1/2+z
loop_
_atom_site_type_symbol
_atom_site_label
_atom_site_fract_x
_atom_site_fract_y
_atom_site_fract_z
Si Si1 0.873011 0.205676 0.692395
Si Si2 0.901848 0.797381 0.828190
Si Si3 0.854826 0.136434 0.071749
Si Si4 0.004736 0.632712 0.130291
Si Si5 0.500000 0.257346 0.750000
Si Si6 0.110792 0.510231 0.984550
Si Si7 0.775518 0.772754 0.653811
O O1 0.745714 0.302108 0.687724
O O2 0.000000 0.215018 0.750000
O O3 0.915782 0.286108 0.651901
O O4 0.827052 0.987462 0.674406
O O5 0.947466 0.579421 0.846077
O O6 0.005897 0.912099 0.879628
O O7 0.925828 0.845601 0.779495
O O8 0.882682 0.277577 0.035292
O O9 0.783719 0.244495 0.100313
O O10 0.751425 0.981846 0.034807
O O11 0.137502 0.742522 0.147864
O O12 0.930275 0.615641 0.066980
O O13 0.384094 0.150540 0.701204
O O14 0.000000 0.500000 0.000000
#
# Coordination Sequence:
#
# PCOD9259768 Si02
#       7
#     8   8   8   8   4   8   8
#     4  11  22  38  58  88 125 160 199 248 303 365
#     4   9  21  37  59  85 120 155 199 255 295 360
#     4   9  19  36  62  88 119 154 206 247 300 365
#     4  10  21  36  59  89 118 155 203 247 300 360
#     4  10  18  36  54  80 112 164 192 238 314 344
#     4  10  18  36  66  91 117 163 200 253 313 357
#     4  10  19  37  58  83 120 159 194 249 298 354
#
# _framework density 24.384530000000002
#
# number of rings (size 3 to 8) (size 9 to 14) (size 15 to 20)
#    0.000    2.154    2.308    0.923    1.077    0.000 
#    0.000    9.231    0.000    0.000    0.000    0.000 
#    0.000    0.000    0.000    0.000    0.000    0.000 
#
# Total GULP energy -145274.124576 kJ/mol
# GULP energy per Si atom -5587.466330 kJ/mol
# Density = 2.432903 g / cm^3
# Si number density = 24.384530 Si / 1000 Ang^3
#
#
#
# Elastic Constant Matrix: (Units=GPa)
#
#
# Indices 1 2 3 4 5 6 
#
# 1 270.6332 73.3767 97.9263 0.0000 -10.0359 0.0000
# 2 73.3767 57.1959 41.8648 0.0000 8.1930 0.0000
# 3 97.9263 41.8648 171.5935 0.0000 -15.7820 0.0000
# 4 0.0000 0.0000 0.0000 23.9159 0.0000 -4.6892
# 5 -10.0359 8.1930 -15.7820 0.0000 40.9675 0.0000
# 6 0.0000 0.0000 0.0000 -4.6892 0.0000 45.3365
#
#
#
# Elastic Compliance Matrix: (Units=1/GPa)
#
#
# Indices 1 2 3 4 5 6 
#
# 1 0.006351 -0.007302 -0.001623 0.000000 0.002391 0.000000
# 2 -0.007302 0.031484 -0.004414 0.000000 -0.009786 0.000000
# 3 -0.001623 -0.004414 0.008165 0.000000 0.003631 0.000000
# 4 0.000000 0.000000 0.000000 0.042679 0.000000 0.004414
# 5 0.002391 -0.009786 0.003631 0.000000 0.028351 0.000000
# 6 0.000000 0.000000 0.000000 0.004414 0.000000 0.022514
#
#
# Mechanical properties :
#
#
# Convention : Reuss Voigt Hill
#
# Bulk Modulus (GPa) = 51.75580 102.86203 77.30891
# Shear Modulus (GPa) = 28.95831 41.12762 35.04297
#
# Velocity S-wave (km/s) = 3.44985 4.11131 3.79502
# Velocity P-wave (km/s) = 6.09422 8.05059 7.13974
#
# Compressibility (1/GPa) = 0.01932151
#
# Stress axis : x y z
#
# Youngs Moduli (GPa) = 157.46332 31.76189 122.47718
#
# Poissons Ratio (x) = 0.23192 0.19876
# Poissons Ratio (y) = 1.14978 0.54065
# Poissons Ratio (z) = 0.25554 0.14021
#
# Static dielectric constant tensor:
#      x y z
#    x 1.883350 0.000000 0.058740 
#    y 0.000000 2.094630 0.000000 
#    z 0.058740 0.000000 1.971690 
# 
# From -- ./inp_files/291245.got.cif
#   From: 2010.05.17/outbox.cif.g08.bks.cpg/sg15_146_cif.got.tgz:291245.got - 2010.06.03 18:47:42.
