data_PCOD9259460
_publ_section_title
;
Structure prediction by ZEFSAII (Michael W. Deem and Ramdas Pophale) SiO2 
 PCOD9259460
Probable space group: C 2/C
;
_chemical_formula_sum "Si O2"
_cell_formula_units_Z 56
_cell_length_a 13.794058
_cell_length_b 15.310847
_cell_length_c 16.295654
_cell_angle_alpha 90.000000
_cell_angle_beta 123.937092
_cell_angle_gamma 90.000000
_cell_volume 2855.344547
_symmetry_space_group_name_H-M "C 2/C"
_symmetry_group_IT_number 15
_symmetry_cell_setting 'monoclinic'
loop_
_space_group_symop_operation_xyz
x,y,z
-x,y,1/2-z
-x,-y,-z
x,-y,1/2+z
1/2+x,1/2+y,z
1/2-x,1/2+y,1/2-z
1/2-x,1/2-y,-z
1/2+x,1/2-y,1/2+z
loop_
_atom_site_type_symbol
_atom_site_label
_atom_site_fract_x
_atom_site_fract_y
_atom_site_fract_z
Si Si1 0.094674 0.479498 0.359234
Si Si2 0.375494 0.857559 0.514191
Si Si3 0.446189 0.175190 0.862956
Si Si4 0.462275 0.488722 0.319030
Si Si5 0.611947 0.675619 0.931928
Si Si6 0.723908 0.600615 0.671645
Si Si7 0.001866 0.855455 0.959950
O O1 0.109403 0.549712 0.436837
O O2 0.211963 0.459838 0.364874
O O3 0.000000 0.514702 0.250000
O O4 0.040680 0.388945 0.367067
O O5 0.423301 0.855974 0.445131
O O6 0.430550 0.775868 0.590741
O O7 0.238508 0.833852 0.452176
O O8 0.324633 0.162998 0.755946
O O9 0.491162 0.273970 0.893409
O O10 0.500000 0.529163 0.250000
O O11 0.533083 0.398339 0.355389
O O12 0.331487 0.457938 0.281168
O O13 0.498527 0.554925 0.408281
O O14 0.605850 0.653241 0.026688
O O15 0.617086 0.646316 0.572335
#
# Coordination Sequence:
#
# PCOD9259460 Si02
#       7
#     8   8   8   8   8   8   8
#     4  10  21  36  56  81 116 155 188 229 282 339
#     4  10  18  35  58  82 113 148 186 234 282 332
#     4  10  22  38  57  86 116 148 195 235 273 337
#     4  11  21  35  58  86 111 143 189 234 276 334
#     4   9  19  34  56  81 110 145 183 232 282 329
#     4  10  21  39  58  79 116 152 185 236 286 328
#     4  10  21  39  60  83 114 152 188 229 286 340
#
# _framework density 19.612344
#
# number of rings (size 3 to 8) (size 9 to 14) (size 15 to 20)
#    0.000    2.000    0.000    4.714    0.000    2.857 
#    0.000   18.571    0.000    0.000    0.000    0.000 
#    0.000    0.000    0.000    0.000    0.000    0.000 
#
# Total GULP energy -156107.296876 kJ/mol
# GULP energy per Si atom -5575.260603 kJ/mol
# Density = 1.956771 g / cm^3
# Si number density = 19.612344 Si / 1000 Ang^3
#
#
#
# Elastic Constant Matrix: (Units=GPa)
#
#
# Indices 1 2 3 4 5 6 
#
# 1 101.2100 20.1962 6.8731 0.0000 -10.4952 0.0000
# 2 20.1962 72.7583 27.0881 0.0000 0.9985 0.0000
# 3 6.8731 27.0881 42.1289 0.0000 -6.2988 0.0000
# 4 0.0000 0.0000 0.0000 22.9059 0.0000 -8.4008
# 5 -10.4952 0.9985 -6.2988 0.0000 24.8726 0.0000
# 6 0.0000 0.0000 0.0000 -8.4008 0.0000 10.4601
#
#
#
# Elastic Compliance Matrix: (Units=1/GPa)
#
#
# Indices 1 2 3 4 5 6 
#
# 1 0.011047 -0.003618 0.001291 0.000000 0.005134 0.000000
# 2 -0.003618 0.019609 -0.012851 0.000000 -0.005568 0.000000
# 3 0.001291 -0.012851 0.033204 0.000000 0.009470 0.000000
# 4 0.000000 0.000000 0.000000 0.061885 0.000000 0.049702
# 5 0.005134 -0.005568 0.009470 0.000000 0.044993 0.000000
# 6 0.000000 0.000000 0.000000 0.049702 0.000000 0.135519
#
#
# Mechanical properties :
#
#
# Convention : Reuss Voigt Hill
#
# Bulk Modulus (GPa) = 29.84463 36.04579 32.94521
# Shear Modulus (GPa) = 14.37692 22.44369 18.41030
#
# Velocity S-wave (km/s) = 2.71044 3.38652 3.06716
# Velocity P-wave (km/s) = 5.00456 5.80606 5.42015
#
# Compressibility (1/GPa) = 0.03350686
#
# Stress axis : x y z
#
# Youngs Moduli (GPa) = 90.52240 50.99697 30.11641
#
# Poissons Ratio (x) = 0.18449 -0.03889
# Poissons Ratio (y) = 0.32748 0.38701
# Poissons Ratio (z) = -0.11690 0.65534
#
# Static dielectric constant tensor:
#      x y z
#    x 1.732930 0.000000 -0.013840 
#    y 0.000000 1.698410 0.000000 
#    z -0.013840 0.000000 1.716340 
# 
# From -- ./inp_files/146174.got.cif
#   From: 2010.05.17/outbox.cif.g08.bks.cpg/sg15_74_cif.got.tgz:146174.got - 2010.06.03 18:47:42.
