data_PCOD9259813
_publ_section_title
;
Structure prediction by ZEFSAII (Michael W. Deem and Ramdas Pophale) SiO2 
 PCOD9259813
Probable space group: C 2/C
;
_chemical_formula_sum "Si O2"
_cell_formula_units_Z 56
_cell_length_a 9.381784
_cell_length_b 13.796552
_cell_length_c 21.300468
_cell_angle_alpha 90.000000
_cell_angle_beta 105.169588
_cell_angle_gamma 90.000000
_cell_volume 2660.985077
_symmetry_space_group_name_H-M "C 2/C"
_symmetry_group_IT_number 15
_symmetry_cell_setting 'monoclinic'
loop_
_space_group_symop_operation_xyz
x,y,z
-x,y,1/2-z
-x,-y,-z
x,-y,1/2+z
1/2+x,1/2+y,z
1/2-x,1/2+y,1/2-z
1/2-x,1/2-y,-z
1/2+x,1/2-y,1/2+z
loop_
_atom_site_type_symbol
_atom_site_label
_atom_site_fract_x
_atom_site_fract_y
_atom_site_fract_z
Si Si1 0.431106 0.902351 0.179970
Si Si2 0.627917 0.440531 0.813630
Si Si3 0.348343 0.213838 0.870154
Si Si4 0.731418 0.233223 0.221573
Si Si5 0.839823 0.954072 0.427836
Si Si6 0.951725 0.145505 0.649996
Si Si7 0.043573 0.127748 0.443057
O O1 0.500000 0.948910 0.250000
O O2 0.563832 0.876375 0.148982
O O3 0.345612 0.803932 0.195485
O O4 0.309134 0.961157 0.128516
O O5 0.500000 0.410298 0.750000
O O6 0.763750 0.375559 0.805263
O O7 0.613745 0.557143 0.814793
O O8 0.596630 0.406187 0.880734
O O9 0.289379 0.267477 0.799864
O O10 0.198164 0.195316 0.889906
O O11 0.470809 0.269107 0.924203
O O12 0.572034 0.284085 0.195925
O O13 0.957113 0.901806 0.395816
O O14 0.833068 0.890387 0.490159
O O15 0.908472 0.058536 0.448792
#
# Coordination Sequence:
#
# PCOD9259813 Si02
#       7
#     8   8   8   8   8   8   8
#     4   9  18  35  59  83 115 144 198 250 295 352
#     4  11  18  36  61  86 111 163 204 244 304 367
#     4  11  19  35  55  86 115 149 189 258 301 350
#     4  10  18  36  56  86 115 152 198 251 293 365
#     4   9  21  40  57  85 112 164 202 239 293 371
#     4  10  23  36  58  86 124 154 198 251 311 360
#     4  10  20  36  62  79 119 154 206 243 291 365
#
# _framework density 21.044837999999999
#
# number of rings (size 3 to 8) (size 9 to 14) (size 15 to 20)
#    0.000    2.000    2.857    1.714    0.000    2.286 
#    2.571    0.000    0.000    2.571    0.000    0.000 
#    0.000    0.000    0.000    0.000    0.000    0.000 
#
# Total GULP energy -156077.550648 kJ/mol
# GULP energy per Si atom -5574.198237 kJ/mol
# Density = 2.099694 g / cm^3
# Si number density = 21.044838 Si / 1000 Ang^3
#
#
#
# Elastic Constant Matrix: (Units=GPa)
#
#
# Indices 1 2 3 4 5 6 
#
# 1 84.2463 10.2279 13.2518 0.0000 9.9019 0.0000
# 2 10.2279 48.0383 8.4613 0.0000 4.4710 0.0000
# 3 13.2518 8.4613 72.4595 0.0000 17.5221 0.0000
# 4 0.0000 0.0000 0.0000 13.4259 0.0000 2.1881
# 5 9.9019 4.4710 17.5221 0.0000 24.1004 0.0000
# 6 0.0000 0.0000 0.0000 2.1881 0.0000 9.0878
#
#
#
# Elastic Compliance Matrix: (Units=1/GPa)
#
#
# Indices 1 2 3 4 5 6 
#
# 1 0.012781 -0.002149 -0.001108 0.000000 -0.004047 0.000000
# 2 -0.002149 0.021750 -0.001680 0.000000 -0.001930 0.000000
# 3 -0.001108 -0.001680 0.017004 0.000000 -0.011596 0.000000
# 4 0.000000 0.000000 0.000000 0.077525 0.000000 -0.018666
# 5 -0.004047 -0.001930 -0.011596 0.000000 0.051944 0.000000
# 6 0.000000 0.000000 0.000000 -0.018666 0.000000 0.114532
#
#
# Mechanical properties :
#
#
# Convention : Reuss Voigt Hill
#
# Bulk Modulus (GPa) = 24.00375 29.84735 26.92555
# Shear Modulus (GPa) = 15.65943 20.84304 18.25123
#
# Velocity S-wave (km/s) = 2.73078 3.15049 2.94811
# Velocity P-wave (km/s) = 4.62316 5.23905 4.94071
#
# Compressibility (1/GPa) = 0.04166017
#
# Stress axis : x y z
#
# Youngs Moduli (GPa) = 78.24228 45.97724 58.81097
#
# Poissons Ratio (x) = 0.09882 0.06515
# Poissons Ratio (y) = 0.16817 0.09880
# Poissons Ratio (z) = 0.08668 0.07724
#
# Static dielectric constant tensor:
#      x y z
#    x 1.762560 0.000000 0.001400 
#    y 0.000000 1.814100 0.000000 
#    z 0.001400 0.000000 1.793110 
# 
# From -- ./inp_files/264397.got.cif
#   From: 2010.05.17/outbox.cif.g08.bks.cpg/sg15_133_cif.got.tgz:264397.got - 2010.06.03 18:47:42.
