data_PCOD9259704
_publ_section_title
;
Structure prediction by ZEFSAII (Michael W. Deem and Ramdas Pophale) SiO2 
 PCOD9259704
Probable space group: C 2/C
;
_chemical_formula_sum "Si O2"
_cell_formula_units_Z 44
_cell_length_a 6.321606
_cell_length_b 17.714959
_cell_length_c 16.005714
_cell_angle_alpha 90.000000
_cell_angle_beta 107.740747
_cell_angle_gamma 90.000000
_cell_volume 1707.192698
_symmetry_space_group_name_H-M "C 2/C"
_symmetry_group_IT_number 15
_symmetry_cell_setting 'monoclinic'
loop_
_space_group_symop_operation_xyz
x,y,z
-x,y,1/2-z
-x,-y,-z
x,-y,1/2+z
1/2+x,1/2+y,z
1/2-x,1/2+y,1/2-z
1/2-x,1/2-y,-z
1/2+x,1/2-y,1/2+z
loop_
_atom_site_type_symbol
_atom_site_label
_atom_site_fract_x
_atom_site_fract_y
_atom_site_fract_z
Si Si1 0.500000 0.367070 0.250000
Si Si2 0.887585 0.484991 0.327213
Si Si3 0.274843 0.566027 0.454306
Si Si4 0.045790 0.685726 0.000542
Si Si5 0.394381 0.341308 0.420854
Si Si6 0.569466 0.377457 0.842246
O O1 0.717454 0.415421 0.302209
O O2 0.432686 0.327097 0.328058
O O3 0.716500 0.552388 0.327897
O O4 0.000000 0.490188 0.250000
O O5 0.093651 0.500302 0.415740
O O6 0.500191 0.576705 0.538253
O O7 0.367298 0.593903 0.375580
O O8 0.130549 0.627507 0.486963
O O9 0.991066 0.772031 0.014777
O O10 0.263316 0.669898 0.082598
O O11 0.138402 0.666121 0.919657
O O12 0.500000 0.335342 0.750000
#
# Coordination Sequence:
#
# PCOD9259704 Si02
#       6
#     4   8   8   8   8   8
#     4  12  26  40  62  92 142 174 222 278 328 398
#     4  11  21  40  62  91 128 174 223 282 322 387
#     4  10  20  38  68  90 123 174 224 272 331 388
#     4   9  21  40  66  92 130 173 218 269 339 403
#     4  10  23  43  59  95 136 174 217 278 333 400
#     4  10  18  35  64  96 122 162 223 283 318 387
#
# _framework density 25.773306000000002
#
# number of rings (size 3 to 8) (size 9 to 14) (size 15 to 20)
#    0.000    1.818    2.727    0.545    0.000    3.636 
#    0.000   13.636    0.000    0.000    0.000    0.000 
#    0.000    0.000    0.000    0.000    0.000    0.000 
#
# Total GULP energy -122812.152548 kJ/mol
# GULP energy per Si atom -5582.370570 kJ/mol
# Density = 2.571464 g / cm^3
# Si number density = 25.773306 Si / 1000 Ang^3
#
#
#
# Elastic Constant Matrix: (Units=GPa)
#
#
# Indices 1 2 3 4 5 6 
#
# 1 198.4601 47.2372 66.5383 0.0000 -23.4784 0.0000
# 2 47.2372 58.1922 11.2395 0.0000 -5.5447 0.0000
# 3 66.5383 11.2395 126.7173 0.0000 -42.2808 0.0000
# 4 0.0000 0.0000 0.0000 23.7350 0.0000 -0.7618
# 5 -23.4784 -5.5447 -42.2808 0.0000 73.0529 0.0000
# 6 0.0000 0.0000 0.0000 -0.7618 0.0000 49.7366
#
#
#
# Elastic Compliance Matrix: (Units=1/GPa)
#
#
# Indices 1 2 3 4 5 6 
#
# 1 0.007482 -0.005408 -0.003450 0.000000 -0.000003 0.000000
# 2 -0.005408 0.021409 0.001119 0.000000 0.000535 0.000000
# 3 -0.003450 0.001119 0.011479 0.000000 0.005620 0.000000
# 4 0.000000 0.000000 0.000000 0.042153 0.000000 0.000646
# 5 -0.000003 0.000535 0.005620 0.000000 0.016981 0.000000
# 6 0.000000 0.000000 0.000000 0.000646 0.000000 0.020116
#
#
# Mechanical properties :
#
#
# Convention : Reuss Voigt Hill
#
# Bulk Modulus (GPa) = 40.17231 70.37774 55.27503
# Shear Modulus (GPa) = 34.86874 46.52855 40.69865
#
# Velocity S-wave (km/s) = 3.68217 4.25349 3.97810
# Velocity P-wave (km/s) = 5.80504 7.17556 6.52637
#
# Compressibility (1/GPa) = 0.02489277
#
# Stress axis : x y z
#
# Youngs Moduli (GPa) = 133.64786 46.70964 87.11476
#
# Poissons Ratio (x) = 0.25259 0.30056
# Poissons Ratio (y) = 0.72272 -0.09748
# Poissons Ratio (z) = 0.46110 -0.05227
#
# Static dielectric constant tensor:
#      x y z
#    x 2.089150 0.000000 0.042590 
#    y 0.000000 2.062930 0.000000 
#    z 0.042590 0.000000 2.076190 
# 
# From -- ./inp_files/184947.got.cif
#   From: 2010.05.17/outbox.cif.g08.bks.cpg/sg15_93_cif.got.tgz:184947.got - 2010.06.03 18:47:42.
