data_PCOD9259916
_publ_section_title
;
Structure prediction by ZEFSAII (Michael W. Deem and Ramdas Pophale) SiO2 
 PCOD9259916
Probable space group: C 2/C
;
_chemical_formula_sum "Si O2"
_cell_formula_units_Z 60
_cell_length_a 22.121871
_cell_length_b 8.790584
_cell_length_c 14.782332
_cell_angle_alpha 90.000000
_cell_angle_beta 87.962108
_cell_angle_gamma 90.000000
_cell_volume 2872.815728
_symmetry_space_group_name_H-M "C 2/C"
_symmetry_group_IT_number 15
_symmetry_cell_setting 'monoclinic'
loop_
_space_group_symop_operation_xyz
x,y,z
-x,y,1/2-z
-x,-y,-z
x,-y,1/2+z
1/2+x,1/2+y,z
1/2-x,1/2+y,1/2-z
1/2-x,1/2-y,-z
1/2+x,1/2-y,1/2+z
loop_
_atom_site_type_symbol
_atom_site_label
_atom_site_fract_x
_atom_site_fract_y
_atom_site_fract_z
Si Si1 0.332273 0.873855 0.420827
Si Si2 0.000000 0.754729 0.750000
Si Si3 0.156970 0.626475 0.238407
Si Si4 0.756098 0.414327 0.601565
Si Si5 0.353854 0.625839 0.904784
Si Si6 0.954660 0.322604 0.967568
Si Si7 0.057134 0.844265 0.570559
Si Si8 0.546758 0.983369 0.855705
O O1 0.285782 0.737328 0.397195
O O2 0.306322 0.918025 0.520302
O O3 0.398151 0.799716 0.428575
O O4 0.336896 0.003192 0.343629
O O5 0.974159 0.854025 0.830712
O O6 0.955418 0.635233 0.704847
O O7 0.212636 0.590326 0.302408
O O8 0.151478 0.793439 0.193380
O O9 0.099203 0.611586 0.307599
O O10 0.712189 0.555150 0.580173
O O11 0.387983 0.756453 0.958631
O O12 0.398840 0.488134 0.931261
O O13 0.984057 0.389768 0.873425
O O14 0.946561 0.450295 0.044236
O O15 0.004443 0.198535 0.001542
#
# Coordination Sequence:
#
# PCOD9259916 Si02
#       8
#     8   4   8   8   8   8   8   8
#     4  10  22  44  68  89 128 181 216 270 335 388
#     4  10  18  36  58  92 128 172 206 266 320 392
#     4  12  23  40  68  97 126 171 229 274 317 396
#     4  10  24  45  64  92 132 173 221 278 331 383
#     4  11  25  41  63 100 129 171 224 271 335 397
#     4  10  22  39  64  95 135 172 213 270 334 405
#     4  10  21  40  62  91 137 170 209 270 339 397
#     4  10  21  36  64  96 129 170 223 263 326 392
#
# _framework density 20.885432000000002
#
# number of rings (size 3 to 8) (size 9 to 14) (size 15 to 20)
#    0.000    1.600    1.333    2.800    5.600    1.600 
#    2.400    8.000    0.000    0.000    0.000    0.000 
#    0.000    0.000    0.000    0.000    0.000    0.000 
#
# Total GULP energy -167077.665192 kJ/mol
# GULP energy per Si atom -5569.255506 kJ/mol
# Density = 2.083790 g / cm^3
# Si number density = 20.885432 Si / 1000 Ang^3
#
#
#
# Elastic Constant Matrix: (Units=GPa)
#
#
# Indices 1 2 3 4 5 6 
#
# 1 74.6288 16.7183 36.1868 0.0000 16.1956 0.0000
# 2 16.7183 42.8652 15.9395 0.0000 11.6366 0.0000
# 3 36.1868 15.9395 74.0771 0.0000 15.5566 0.0000
# 4 0.0000 0.0000 0.0000 25.6492 0.0000 11.5488
# 5 16.1956 11.6366 15.5566 0.0000 34.7156 0.0000
# 6 0.0000 0.0000 0.0000 11.5488 0.0000 21.9920
#
#
#
# Elastic Compliance Matrix: (Units=1/GPa)
#
#
# Indices 1 2 3 4 5 6 
#
# 1 0.018723 -0.003351 -0.007536 0.000000 -0.004235 0.000000
# 2 -0.003351 0.027445 -0.002942 0.000000 -0.006318 0.000000
# 3 -0.007536 -0.002942 0.018621 0.000000 -0.003842 0.000000
# 4 0.000000 0.000000 0.000000 0.051061 0.000000 -0.026814
# 5 -0.004235 -0.006318 -0.003842 0.000000 0.034621 0.000000
# 6 0.000000 0.000000 0.000000 -0.026814 0.000000 0.059552
#
#
# Mechanical properties :
#
#
# Convention : Reuss Voigt Hill
#
# Bulk Modulus (GPa) = 26.93103 36.58451 31.75777
# Shear Modulus (GPa) = 19.99539 24.65310 22.32424
#
# Velocity S-wave (km/s) = 3.09752 3.43942 3.27294
# Velocity P-wave (km/s) = 5.07104 5.77300 5.43337
#
# Compressibility (1/GPa) = 0.03713189
#
# Stress axis : x y z
#
# Youngs Moduli (GPa) = 53.40883 36.43672 53.70331
#
# Poissons Ratio (x) = 0.12209 0.40472
# Poissons Ratio (y) = 0.17895 0.15799
# Poissons Ratio (z) = 0.40250 0.10719
#
# Static dielectric constant tensor:
#      x y z
#    x 1.783290 0.000000 0.038920 
#    y 0.000000 1.794220 0.000000 
#    z 0.038920 0.000000 1.753620 
# 
# From -- ./inp_files/171887.got.cif
#   From: 2010.05.17/outbox.cif.g08.bks.cpg/sg15_86_cif.got.tgz:171887.got - 2010.06.03 18:47:42.
