data_PCOD9259825
_publ_section_title
;
Structure prediction by ZEFSAII (Michael W. Deem and Ramdas Pophale) SiO2 
 PCOD9259825
Probable space group: C 2/C
;
_chemical_formula_sum "Si O2"
_cell_formula_units_Z 56
_cell_length_a 30.623585
_cell_length_b 13.774267
_cell_length_c 11.656850
_cell_angle_alpha 90.000000
_cell_angle_beta 138.655367
_cell_angle_gamma 90.000000
_cell_volume 3248.146130
_symmetry_space_group_name_H-M "C 2/C"
_symmetry_group_IT_number 15
_symmetry_cell_setting 'monoclinic'
loop_
_space_group_symop_operation_xyz
x,y,z
-x,y,1/2-z
-x,-y,-z
x,-y,1/2+z
1/2+x,1/2+y,z
1/2-x,1/2+y,1/2-z
1/2-x,1/2-y,-z
1/2+x,1/2-y,1/2+z
loop_
_atom_site_type_symbol
_atom_site_label
_atom_site_fract_x
_atom_site_fract_y
_atom_site_fract_z
Si Si1 0.261622 0.882004 0.100930
Si Si2 0.072801 0.236811 0.898142
Si Si3 0.475071 0.368582 0.830598
Si Si4 0.787600 0.296693 0.399551
Si Si5 0.863757 0.768765 0.728971
Si Si6 0.765514 0.101618 0.479824
Si Si7 0.579851 0.418969 0.222340
O O1 0.259652 0.836407 0.224789
O O2 0.324711 0.833181 0.162304
O O3 0.195509 0.845836 0.905966
O O4 0.263625 0.997760 0.111981
O O5 0.067686 0.137920 0.816338
O O6 0.000000 0.283008 0.750000
O O7 0.132978 0.294446 0.958013
O O8 0.097906 0.216357 0.075684
O O9 0.500000 0.369427 0.750000
O O10 0.419944 0.286389 0.745071
O O11 0.440836 0.470450 0.797795
O O12 0.536781 0.366421 0.039589
O O13 0.762869 0.187165 0.379357
O O14 0.767316 0.359760 0.468700
O O15 0.843338 0.087045 0.655813
#
# Coordination Sequence:
#
# PCOD9259825 Si02
#       7
#     8   8   8   8   8   8   8
#     4  10  21  37  59  80 121 151 189 243 292 353
#     4  10  18  36  57  74 112 147 197 240 282 354
#     4  11  22  32  49  85 121 149 190 232 296 361
#     4   9  22  36  58  89 108 152 199 237 296 342
#     4  10  21  36  53  87 109 156 192 225 294 353
#     4  10  20  38  58  85 115 148 198 245 287 349
#     4  10  21  32  53  81 112 156 184 234 299 353
#
# _framework density 17.240604999999999
#
# number of rings (size 3 to 8) (size 9 to 14) (size 15 to 20)
#    0.000    2.000    2.857    0.429    4.000    4.571 
#    0.000    0.000    0.000    4.286    0.000    0.000 
#    0.000    0.000    0.000    0.000    0.000    0.000 
#
# Total GULP energy -156097.642487 kJ/mol
# GULP energy per Si atom -5574.915803 kJ/mol
# Density = 1.720136 g / cm^3
# Si number density = 17.240605 Si / 1000 Ang^3
#
#
#
# Elastic Constant Matrix: (Units=GPa)
#
#
# Indices 1 2 3 4 5 6 
#
# 1 121.5538 44.2354 44.2405 0.0000 8.6957 0.0000
# 2 44.2354 103.5305 38.8140 0.0000 0.1800 0.0000
# 3 44.2405 38.8140 99.8238 0.0000 0.5124 0.0000
# 4 0.0000 0.0000 0.0000 13.9385 0.0000 0.5222
# 5 8.6957 0.1800 0.5124 0.0000 14.2292 0.0000
# 6 0.0000 0.0000 0.0000 0.5222 0.0000 14.9362
#
#
#
# Elastic Compliance Matrix: (Units=1/GPa)
#
#
# Indices 1 2 3 4 5 6 
#
# 1 0.011282 -0.003450 -0.003624 0.000000 -0.006721 0.000000
# 2 -0.003450 0.012362 -0.003288 0.000000 0.002070 0.000000
# 3 -0.003624 -0.003288 0.012893 0.000000 0.001792 0.000000
# 4 0.000000 0.000000 0.000000 0.071838 0.000000 -0.002512
# 5 -0.006721 0.002070 0.001792 0.000000 0.074295 0.000000
# 6 0.000000 0.000000 0.000000 -0.002512 0.000000 0.067039
#
#
# Mechanical properties :
#
#
# Convention : Reuss Voigt Hill
#
# Bulk Modulus (GPa) = 63.24110 64.38756 63.81433
# Shear Modulus (GPa) = 18.13529 21.79531 19.96530
#
# Velocity S-wave (km/s) = 3.24681 3.55939 3.40669
# Velocity P-wave (km/s) = 7.12859 7.37021 7.25040
#
# Compressibility (1/GPa) = 0.01581250
#
# Stress axis : x y z
#
# Youngs Moduli (GPa) = 88.63531 80.89072 77.56023
#
# Poissons Ratio (x) = 0.27909 0.28109
# Poissons Ratio (y) = 0.30581 0.25505
# Poissons Ratio (z) = 0.32122 0.26600
#
# Static dielectric constant tensor:
#      x y z
#    x 1.597510 0.000000 0.012430 
#    y 0.000000 1.584700 0.000000 
#    z 0.012430 0.000000 1.590940 
# 
# From -- ./inp_files/126757.got.cif
#   From: 2010.05.17/outbox.cif.g08.bks.cpg/sg15_64_cif.got.tgz:126757.got - 2010.06.03 18:47:42.
