data_PCOD9259951
_publ_section_title
;
Structure prediction by ZEFSAII (Michael W. Deem and Ramdas Pophale) SiO2 
 PCOD9259951
Probable space group: C 2/C
;
_chemical_formula_sum "Si O2"
_cell_formula_units_Z 56
_cell_length_a 8.662215
_cell_length_b 16.875782
_cell_length_c 19.829984
_cell_angle_alpha 90.000000
_cell_angle_beta 111.894193
_cell_angle_gamma 90.000000
_cell_volume 2689.702577
_symmetry_space_group_name_H-M "C 2/C"
_symmetry_group_IT_number 15
_symmetry_cell_setting 'monoclinic'
loop_
_space_group_symop_operation_xyz
x,y,z
-x,y,1/2-z
-x,-y,-z
x,-y,1/2+z
1/2+x,1/2+y,z
1/2-x,1/2+y,1/2-z
1/2-x,1/2-y,-z
1/2+x,1/2-y,1/2+z
loop_
_atom_site_type_symbol
_atom_site_label
_atom_site_fract_x
_atom_site_fract_y
_atom_site_fract_z
Si Si1 0.714278 0.448325 0.091492
Si Si2 0.546823 0.209660 0.126053
Si Si3 0.414422 0.298084 0.505127
Si Si4 0.575688 0.055149 0.689119
Si Si5 0.801601 0.094349 0.221564
Si Si6 0.785689 0.128372 0.376419
Si Si7 0.634305 0.635753 0.719168
O O1 0.636387 0.386552 0.027064
O O2 0.679207 0.541676 0.085231
O O3 0.656025 0.418107 0.156186
O O4 0.913907 0.438008 0.117607
O O5 0.521080 0.250435 0.049795
O O6 0.714480 0.157471 0.157962
O O7 0.387256 0.159180 0.121153
O O8 0.574990 0.279708 0.184122
O O9 0.250000 0.250000 0.500000
O O10 0.563341 0.312118 0.581984
O O11 0.500000 0.033144 0.750000
O O12 0.684394 0.134086 0.716683
O O13 0.706040 0.987585 0.690843
O O14 0.763542 0.117383 0.292872
O O15 0.000000 0.089696 0.250000
O O16 0.500000 0.604900 0.750000
#
# Coordination Sequence:
#
# PCOD9259951 Si02
#       7
#     8   8   8   8   8   8   8
#     4  10  22  40  67  89 128 177 215 264 330 391
#     4  11  24  42  65  95 132 179 217 269 336 393
#     4  11  26  46  63  94 134 174 225 276 328 390
#     4  10  18  36  59  90 130 159 205 263 322 378
#     4  12  22  36  66 100 129 166 218 276 322 387
#     4  12  22  43  69  92 131 177 220 266 332 399
#     4  10  20  35  60  97 131 160 212 268 325 382
#
# _framework density 20.820146999999999
#
# number of rings (size 3 to 8) (size 9 to 14) (size 15 to 20)
#    0.000    1.143    4.286    3.429    0.000    5.143 
#    0.000    0.714    0.000    0.000    0.000    0.000 
#    0.000    0.000    0.000    0.000    0.000    0.000 
#
# Total GULP energy -156384.184071 kJ/mol
# GULP energy per Si atom -5585.149431 kJ/mol
# Density = 2.077276 g / cm^3
# Si number density = 20.820147 Si / 1000 Ang^3
#
#
#
# Elastic Constant Matrix: (Units=GPa)
#
#
# Indices 1 2 3 4 5 6 
#
# 1 111.2633 28.8879 1.7853 0.0000 6.3758 0.0000
# 2 28.8879 98.0042 12.6488 0.0000 0.8983 0.0000
# 3 1.7853 12.6488 37.0512 0.0000 9.0988 0.0000
# 4 0.0000 0.0000 0.0000 13.4887 0.0000 6.9805
# 5 6.3758 0.8983 9.0988 0.0000 23.0055 0.0000
# 6 0.0000 0.0000 0.0000 6.9805 0.0000 26.4913
#
#
#
# Elastic Compliance Matrix: (Units=1/GPa)
#
#
# Indices 1 2 3 4 5 6 
#
# 1 0.009947 -0.003077 0.001350 0.000000 -0.003170 0.000000
# 2 -0.003077 0.011653 -0.004350 0.000000 0.002118 0.000000
# 3 0.001350 -0.004350 0.031521 0.000000 -0.012671 0.000000
# 4 0.000000 0.000000 0.000000 0.085842 0.000000 -0.022620
# 5 -0.003170 0.002118 -0.012671 0.000000 0.049275 0.000000
# 6 0.000000 0.000000 0.000000 -0.022620 0.000000 0.043708
#
#
# Mechanical properties :
#
#
# Convention : Reuss Voigt Hill
#
# Bulk Modulus (GPa) = 24.41046 36.99587 30.70317
# Shear Modulus (GPa) = 19.39816 26.13020 22.76418
#
# Velocity S-wave (km/s) = 3.05569 3.54650 3.31021
# Velocity P-wave (km/s) = 4.91930 5.88031 5.42115
#
# Compressibility (1/GPa) = 0.04096604
#
# Stress axis : x y z
#
# Youngs Moduli (GPa) = 100.53674 85.81738 31.72454
#
# Poissons Ratio (x) = 0.26406 -0.04282
# Poissons Ratio (y) = 0.30935 0.13800
# Poissons Ratio (z) = -0.13570 0.37330
#
# Static dielectric constant tensor:
#      x y z
#    x 1.737930 0.000000 0.013120 
#    y 0.000000 1.774600 0.000000 
#    z 0.013120 0.000000 1.740430 
# 
# From -- ./inp_files/191056.got.cif
#   From: 2010.05.17/outbox.cif.g08.bks.cpg/sg15_96_cif.got.tgz:191056.got - 2010.06.03 18:47:42.
