data_PCOD9259078
_publ_section_title
;
Structure prediction by ZEFSAII (Michael W. Deem and Ramdas Pophale) SiO2 
 PCOD9259078
Probable space group: C 2/C
;
_chemical_formula_sum "Si O2"
_cell_formula_units_Z 56
_cell_length_a 9.971010
_cell_length_b 17.276130
_cell_length_c 19.981883
_cell_angle_alpha 90.000000
_cell_angle_beta 61.341227
_cell_angle_gamma 90.000000
_cell_volume 3020.403294
_symmetry_space_group_name_H-M "C 2/C"
_symmetry_group_IT_number 15
_symmetry_cell_setting 'monoclinic'
loop_
_space_group_symop_operation_xyz
x,y,z
-x,y,1/2-z
-x,-y,-z
x,-y,1/2+z
1/2+x,1/2+y,z
1/2-x,1/2+y,1/2-z
1/2-x,1/2-y,-z
1/2+x,1/2-y,1/2+z
loop_
_atom_site_type_symbol
_atom_site_label
_atom_site_fract_x
_atom_site_fract_y
_atom_site_fract_z
Si Si1 0.332640 0.222337 0.413230
Si Si2 0.321355 0.737429 0.645360
Si Si3 0.314114 0.683711 0.791468
Si Si4 0.850725 0.388514 0.553059
Si Si5 0.840440 0.104606 0.534846
Si Si6 0.191865 0.929187 0.968617
Si Si7 0.824634 0.566276 0.581392
O O1 0.250000 0.250000 0.500000
O O2 0.499060 0.256886 0.381908
O O3 0.266791 0.256070 0.360717
O O4 0.320251 0.129996 0.413150
O O5 0.256485 0.713221 0.733307
O O6 0.300653 0.821604 0.616441
O O7 0.290594 0.669723 0.599326
O O8 0.500000 0.677368 0.750000
O O9 0.242966 0.604442 0.836147
O O10 0.734416 0.381162 0.519064
O O11 0.851207 0.474812 0.583992
O O12 0.022107 0.387979 0.479469
O O13 0.025025 0.102603 0.489417
O O14 0.792573 0.015983 0.562527
O O15 0.209626 0.929697 0.045206
#
# Coordination Sequence:
#
# PCOD9259078 Si02
#       7
#     8   8   8   8   8   8   8
#     4  11  17  33  63  83 105 146 202 246 268 340
#     4  11  20  36  54  85 118 151 187 237 298 352
#     4  10  21  34  59  87 115 147 188 244 302 340
#     4  10  21  36  63  84 115 155 202 237 285 351
#     4  10  21  33  56  88 116 147 187 247 289 336
#     4  10  18  34  59  87 107 139 202 243 282 329
#     4  10  19  38  62  86 109 154 203 244 283 346
#
# _framework density 18.540569999999999
#
# number of rings (size 3 to 8) (size 9 to 14) (size 15 to 20)
#    0.000    1.714    4.286    1.286    0.000    0.000 
#    2.571    0.714    0.000    0.000    0.000    0.000 
#    0.000    0.000    0.000    0.000    0.000    0.000 
#
# Total GULP energy -155941.480294 kJ/mol
# GULP energy per Si atom -5569.338582 kJ/mol
# Density = 1.849837 g / cm^3
# Si number density = 18.540570 Si / 1000 Ang^3
#
#
#
# Elastic Constant Matrix: (Units=GPa)
#
#
# Indices 1 2 3 4 5 6 
#
# 1 62.4989 16.1586 25.4869 0.0000 15.7144 0.0000
# 2 16.1586 121.8313 66.2069 0.0000 15.9480 0.0000
# 3 25.4869 66.2069 106.9190 0.0000 18.0948 0.0000
# 4 0.0000 0.0000 0.0000 30.7272 0.0000 3.3299
# 5 15.7144 15.9480 18.0948 0.0000 21.3886 0.0000
# 6 0.0000 0.0000 0.0000 3.3299 0.0000 24.3185
#
#
#
# Elastic Compliance Matrix: (Units=1/GPa)
#
#
# Indices 1 2 3 4 5 6 
#
# 1 0.020306 0.000657 -0.003080 0.000000 -0.012802 0.000000
# 2 0.000657 0.012583 -0.007328 0.000000 -0.003665 0.000000
# 3 -0.003080 -0.007328 0.015542 0.000000 -0.005422 0.000000
# 4 0.000000 0.000000 0.000000 0.033035 0.000000 -0.004523
# 5 -0.012802 -0.003665 -0.005422 0.000000 0.063480 0.000000
# 6 0.000000 0.000000 0.000000 -0.004523 0.000000 0.041740
#
#
# Mechanical properties :
#
#
# Convention : Reuss Voigt Hill
#
# Bulk Modulus (GPa) = 34.56887 56.32822 45.44854
# Shear Modulus (GPa) = 23.16622 27.51331 25.33976
#
# Velocity S-wave (km/s) = 3.53864 3.85639 3.70093
# Velocity P-wave (km/s) = 5.94823 7.09056 6.54437
#
# Compressibility (1/GPa) = 0.02892776
#
# Stress axis : x y z
#
# Youngs Moduli (GPa) = 49.24745 79.47233 64.34025
#
# Poissons Ratio (x) = -0.05219 0.19819
# Poissons Ratio (y) = -0.03234 0.47148
# Poissons Ratio (z) = 0.15170 0.58237
#
# Static dielectric constant tensor:
#      x y z
#    x 1.678280 0.000000 0.005980 
#    y 0.000000 1.691080 0.000000 
#    z 0.005980 0.000000 1.656010 
# 
# From -- ./inp_files/199076.got.cif
#   From: 2010.05.17/outbox.cif.g08.bks.cpg/sg15_100_cif.got.tgz:199076.got - 2010.06.03 18:47:42.
