data_PCOD9259068
_publ_section_title
;
Structure prediction by ZEFSAII (Michael W. Deem and Ramdas Pophale) SiO2 
 PCOD9259068
Probable space group: C 2/C
;
_chemical_formula_sum "Si O2"
_cell_formula_units_Z 40
_cell_length_a 18.187838
_cell_length_b 7.111072
_cell_length_c 15.498300
_cell_angle_alpha 90.000000
_cell_angle_beta 57.241340
_cell_angle_gamma 90.000000
_cell_volume 1685.676099
_symmetry_space_group_name_H-M "C 2/C"
_symmetry_group_IT_number 15
_symmetry_cell_setting 'monoclinic'
loop_
_space_group_symop_operation_xyz
x,y,z
-x,y,1/2-z
-x,-y,-z
x,-y,1/2+z
1/2+x,1/2+y,z
1/2-x,1/2+y,1/2-z
1/2-x,1/2-y,-z
1/2+x,1/2-y,1/2+z
loop_
_atom_site_type_symbol
_atom_site_label
_atom_site_fract_x
_atom_site_fract_y
_atom_site_fract_z
Si Si1 0.875865 0.333780 0.376025
Si Si2 0.317567 0.497573 0.017276
Si Si3 0.824680 0.355610 0.102115
Si Si4 0.171558 0.747429 0.332803
Si Si5 0.456925 0.042555 0.646785
O O1 0.781551 0.428847 0.431760
O O2 0.870652 0.119503 0.412640
O O3 0.913878 0.356266 0.256459
O O4 0.941425 0.442978 0.398983
O O5 0.323058 0.720641 0.021516
O O6 0.346001 0.421912 0.094226
O O7 0.802770 0.577825 0.117346
O O8 0.750374 0.281016 0.216514
O O9 0.920351 0.351199 0.086122
O O10 0.411585 0.161615 0.165105
#
# Coordination Sequence:
#
# PCOD9259068 Si02
#       5
#     8   8   8   8   8
#     4  10  20  34  56  86 106 144 164 240 268 306
#     4  11  20  36  62  75 111 140 185 209 280 306
#     4  10  18  34  59  80  99 150 182 213 250 341
#     4  10  18  34  59  80  99 150 182 213 250 341
#     4   9  20  36  58  77 113 136 187 211 274 310
#
# _framework density 23.729351999999999
#
# number of rings (size 3 to 8) (size 9 to 14) (size 15 to 20)
#    1.200    0.800    6.000    0.000    0.000    1.600 
#    0.000    4.000    8.800    4.800    0.000    0.000 
#    0.000    0.000    0.000    0.000    0.000    0.000 
#
# Total GULP energy -111692.957295 kJ/mol
# GULP energy per Si atom -5584.647865 kJ/mol
# Density = 2.367534 g / cm^3
# Si number density = 23.729352 Si / 1000 Ang^3
#
#
#
# Elastic Constant Matrix: (Units=GPa)
#
#
# Indices 1 2 3 4 5 6 
#
# 1 96.8348 -6.7526 -4.7339 0.0001 5.8094 0.0000
# 2 -6.7526 87.1940 14.7309 0.0003 2.8910 -0.0003
# 3 -4.7339 14.7309 68.5933 0.0000 5.4646 -0.0001
# 4 0.0001 0.0003 0.0000 38.2788 0.0000 9.2737
# 5 5.8094 2.8910 5.4646 0.0000 31.5813 0.0001
# 6 0.0000 -0.0003 -0.0001 9.2737 0.0001 22.9857
#
#
#
# Elastic Compliance Matrix: (Units=1/GPa)
#
#
# Indices 1 2 3 4 5 6 
#
# 1 0.010544 0.000763 0.000734 0.000000 -0.002136 0.000000
# 2 0.000763 0.011969 -0.002453 0.000000 -0.000812 0.000000
# 3 0.000734 -0.002453 0.015361 0.000000 -0.002568 0.000000
# 4 0.000000 0.000000 0.000000 0.028954 0.000000 -0.011682
# 5 -0.002136 -0.000812 -0.002568 0.000000 0.032576 0.000000
# 6 0.000000 0.000000 0.000000 -0.011682 0.000000 0.048218
#
#
# Mechanical properties :
#
#
# Convention : Reuss Voigt Hill
#
# Bulk Modulus (GPa) = 27.80666 28.79009 28.29838
# Shear Modulus (GPa) = 30.95559 35.19434 33.07496
#
# Velocity S-wave (km/s) = 3.61574 3.85535 3.73747
# Velocity P-wave (km/s) = 5.40140 5.65485 5.52958
#
# Compressibility (1/GPa) = 0.03596260
#
# Stress axis : x y z
#
# Youngs Moduli (GPa) = 94.83929 83.54811 65.10084
#
# Poissons Ratio (x) = -0.06378 -0.04778
# Poissons Ratio (y) = -0.07240 0.15970
# Poissons Ratio (z) = -0.06961 0.20495
#
# Static dielectric constant tensor:
#      x y z
#    x 1.904550 0.000000 0.028300 
#    y 0.000000 1.883340 0.000000 
#    z 0.028300 0.000000 1.944680 
# 
# From -- ./inp_files/208227.got.cif
#   From: 2010.05.17/outbox.cif.g08.bks.cpg/sg15_105_cif.got.tgz:208227.got - 2010.06.03 18:47:42.
