data_PCOD9259547
_publ_section_title
;
Structure prediction by ZEFSAII (Michael W. Deem and Ramdas Pophale) SiO2 
 PCOD9259547
Probable space group: C 2/C
;
_chemical_formula_sum "Si O2"
_cell_formula_units_Z 48
_cell_length_a 8.454425
_cell_length_b 17.461999
_cell_length_c 21.329551
_cell_angle_alpha 90.000000
_cell_angle_beta 47.617515
_cell_angle_gamma 90.000000
_cell_volume 2325.975707
_symmetry_space_group_name_H-M "C 2/C"
_symmetry_group_IT_number 15
_symmetry_cell_setting 'monoclinic'
loop_
_space_group_symop_operation_xyz
x,y,z
-x,y,1/2-z
-x,-y,-z
x,-y,1/2+z
1/2+x,1/2+y,z
1/2-x,1/2+y,1/2-z
1/2-x,1/2-y,-z
1/2+x,1/2-y,1/2+z
loop_
_atom_site_type_symbol
_atom_site_label
_atom_site_fract_x
_atom_site_fract_y
_atom_site_fract_z
Si Si1 0.057585 0.908339 0.307043
Si Si2 0.012557 0.654427 0.841610
Si Si3 0.075154 0.218663 0.897280
Si Si4 0.878641 0.314403 0.505615
Si Si5 0.973238 0.081690 0.332048
Si Si6 0.808153 0.697894 0.254318
O O1 0.318792 0.903035 0.235648
O O2 0.974532 0.846333 0.379540
O O3 0.000000 0.889933 0.250000
O O4 0.968627 0.991770 0.346403
O O5 0.136544 0.735044 0.809367
O O6 0.790761 0.675286 0.865876
O O7 0.982053 0.635028 0.923006
O O8 0.983821 0.262189 0.982739
O O9 0.122949 0.286940 0.835495
O O10 0.750000 0.250000 0.500000
O O11 0.720021 0.368910 0.587466
O O12 0.000000 0.091151 0.250000
O O13 0.191047 0.118923 0.299455
O O14 0.000000 0.708963 0.250000
#
# Coordination Sequence:
#
# PCOD9259547 Si02
#       6
#     8   8   8   8   8   8
#     4  10  22  36  57  85 120 149 189 242 299 339
#     4  10  19  36  59  83 110 152 196 236 283 345
#     4  10  18  35  60  83 107 157 199 227 281 350
#     4  10  19  34  65  84 108 154 208 234 273 352
#     4  11  20  39  60  82 114 160 194 236 287 356
#     4  11  19  31  57  84 112 144 201 240 275 336
#
# _framework density 20.636502
#
# number of rings (size 3 to 8) (size 9 to 14) (size 15 to 20)
#    0.000    1.667    5.000    4.000    0.000    1.333 
#    0.000   10.000    3.667    0.000    0.000    0.000 
#    0.000    0.000    0.000    0.000    0.000    0.000 
#
# Total GULP energy -133667.466323 kJ/mol
# GULP energy per Si atom -5569.477763 kJ/mol
# Density = 2.058953 g / cm^3
# Si number density = 20.636502 Si / 1000 Ang^3
#
#
#
# Elastic Constant Matrix: (Units=GPa)
#
#
# Indices 1 2 3 4 5 6 
#
# 1 53.6343 26.1394 3.6935 -0.0001 27.2213 -0.0004
# 2 26.1394 101.4053 27.2996 0.0001 10.9248 0.0000
# 3 3.6935 27.2996 94.2087 0.0009 27.5486 -0.0010
# 4 -0.0001 0.0001 0.0009 -18.7765 -0.0007 29.7018
# 5 27.2213 10.9248 27.5486 -0.0007 27.9478 0.0007
# 6 -0.0004 0.0000 -0.0010 29.7018 0.0007 4.4929
#
#
#
# Elastic Compliance Matrix: (Units=1/GPa)
#
#
# Indices 1 2 3 4 5 6 
#
# 1 0.069906 -0.015928 0.028050 0.000004 -0.089512 0.000000
# 2 -0.015928 0.014375 -0.009040 -0.000001 0.018806 0.000000
# 3 0.028050 -0.009040 0.026822 0.000003 -0.050226 0.000000
# 4 0.000004 -0.000001 0.000003 -0.004648 -0.000007 0.030729
# 5 -0.089512 0.018806 -0.050226 -0.000007 0.165124 0.000000
# 6 0.000000 0.000000 0.000000 0.030729 0.000000 0.019426
#
#
# Mechanical properties :
#
#
# Convention : Reuss Voigt Hill
#
# Bulk Modulus (GPa) = 8.52754 40.39039 24.45896
# Shear Modulus (GPa) = 15.43547 15.54056 15.48801
#
# Velocity S-wave (km/s) = 2.73787 2.74717 2.74253
# Velocity P-wave (km/s) = 3.75976 5.44770 4.68045
#
# Compressibility (1/GPa) = 0.11726712
#
# Stress axis : x y z
#
# Youngs Moduli (GPa) = 14.30485 69.56580 37.28321
#
# Poissons Ratio (x) = 1.10803 -1.04580
# Poissons Ratio (y) = 0.22784 0.33705
# Poissons Ratio (z) = -0.40125 0.62889
#
# Static dielectric constant tensor:
#      x y z
#    x 1.807520 0.000000 -0.040760 
#    y 0.000000 1.728020 0.000000 
#    z -0.040760 0.000000 1.905120 
# 
# From -- ./inp_files/189975.got.cif
#   From: 2010.05.17/outbox.cif.g08.bks.cpg/sg15_95_cif.got.tgz:189975.got - 2010.06.03 18:47:42.
