data_PCOD9259829
_publ_section_title
;
Structure prediction by ZEFSAII (Michael W. Deem and Ramdas Pophale) SiO2 
 PCOD9259829
Probable space group: C 2/C
;
_chemical_formula_sum "Si O2"
_cell_formula_units_Z 56
_cell_length_a 18.273366
_cell_length_b 8.562347
_cell_length_c 23.780177
_cell_angle_alpha 90.000000
_cell_angle_beta 56.390685
_cell_angle_gamma 90.000000
_cell_volume 3098.728155
_symmetry_space_group_name_H-M "C 2/C"
_symmetry_group_IT_number 15
_symmetry_cell_setting 'monoclinic'
loop_
_space_group_symop_operation_xyz
x,y,z
-x,y,1/2-z
-x,-y,-z
x,-y,1/2+z
1/2+x,1/2+y,z
1/2-x,1/2+y,1/2-z
1/2-x,1/2-y,-z
1/2+x,1/2-y,1/2+z
loop_
_atom_site_type_symbol
_atom_site_label
_atom_site_fract_x
_atom_site_fract_y
_atom_site_fract_z
Si Si1 0.235108 0.734325 0.855889
Si Si2 0.096993 0.018576 0.723175
Si Si3 0.697322 0.110673 0.992113
Si Si4 0.378729 0.776228 0.207400
Si Si5 0.802870 0.427736 0.347458
Si Si6 0.435960 0.927448 0.385050
Si Si7 0.818292 0.834949 0.916321
O O1 0.327047 0.647579 0.801254
O O2 0.193589 0.645926 0.927291
O O3 0.173302 0.741062 0.828204
O O4 0.254247 0.909832 0.867440
O O5 0.000000 0.081682 0.750000
O O6 0.095499 0.889632 0.774075
O O7 0.126341 0.924404 0.654923
O O8 0.758949 0.958662 0.972611
O O9 0.750000 0.250000 0.000000
O O10 0.604509 0.065831 0.060016
O O11 0.318189 0.861955 0.279213
O O12 0.462781 0.886419 0.160697
O O13 0.896777 0.452820 0.338937
O O14 0.762738 0.291684 0.403722
O O15 0.386162 0.766309 0.423675
#
# Coordination Sequence:
#
# PCOD9259829 Si02
#       7
#     8   8   8   8   8   8   8
#     4  11  23  34  56  88 120 146 184 257 292 326
#     4  10  18  36  57  82 109 147 192 232 279 350
#     4  11  20  37  57  86 115 149 204 243 279 338
#     4  11  20  37  56  84 119 150 187 235 307 350
#     4   9  19  37  56  85 111 158 193 228 292 358
#     4  10  19  34  61  80 109 157 197 235 272 369
#     4   8  18  33  60  81 100 150 196 227 271 340
#
# _framework density 18.071930999999999
#
# number of rings (size 3 to 8) (size 9 to 14) (size 15 to 20)
#    0.857    1.143    2.857    1.714    0.000    1.714 
#    0.000    0.000    0.000    3.429    0.000    0.000 
#    0.000    0.000    0.000    0.000    0.000    0.000 
#
# Total GULP energy -155878.823698 kJ/mol
# GULP energy per Si atom -5567.100846 kJ/mol
# Density = 1.803080 g / cm^3
# Si number density = 18.071931 Si / 1000 Ang^3
#
#
#
# Elastic Constant Matrix: (Units=GPa)
#
#
# Indices 1 2 3 4 5 6 
#
# 1 57.4797 -2.0125 11.7948 0.0001 14.1817 0.0003
# 2 -2.0125 60.4657 14.5122 0.0001 -2.1067 0.0006
# 3 11.7948 14.5122 62.6978 0.0000 6.3133 0.0001
# 4 0.0001 0.0001 0.0000 21.4416 0.0000 1.6250
# 5 14.1817 -2.1067 6.3133 0.0000 13.7330 0.0001
# 6 0.0003 0.0006 0.0001 1.6250 0.0001 11.1435
#
#
#
# Elastic Compliance Matrix: (Units=1/GPa)
#
#
# Indices 1 2 3 4 5 6 
#
# 1 0.023616 0.000506 -0.002214 0.000000 -0.023293 -0.000001
# 2 0.000506 0.017825 -0.004659 0.000000 0.004354 -0.000001
# 3 -0.002214 -0.004659 0.018125 0.000000 -0.006760 0.000000
# 4 0.000000 0.000000 0.000000 0.047159 0.000000 -0.006877
# 5 -0.023293 0.004354 -0.006760 0.000000 0.100647 0.000000
# 6 -0.000001 -0.000001 0.000000 -0.006877 0.000000 0.090741
#
#
# Mechanical properties :
#
#
# Convention : Reuss Voigt Hill
#
# Bulk Modulus (GPa) = 21.35335 25.47024 23.41180
# Shear Modulus (GPa) = 15.31579 19.68687 17.50133
#
# Velocity S-wave (km/s) = 2.91433 3.30413 3.11533
# Velocity P-wave (km/s) = 4.81309 5.35544 5.09149
#
# Compressibility (1/GPa) = 0.04683106
#
# Stress axis : x y z
#
# Youngs Moduli (GPa) = 42.34336 56.10055 55.17143
#
# Poissons Ratio (x) = -0.02839 0.12218
# Poissons Ratio (y) = -0.02143 0.25707
# Poissons Ratio (z) = 0.09377 0.26140
#
# Static dielectric constant tensor:
#      x y z
#    x 1.599220 0.000000 -0.015280 
#    y 0.000000 1.659680 0.000000 
#    z -0.015280 0.000000 1.661550 
# 
# From -- ./inp_files/247346.got.cif
#   From: 2010.05.17/outbox.cif.g08.bks.cpg/sg15_124_cif.got.tgz:247346.got - 2010.06.03 18:47:42.
