data_PCOD9259247
_publ_section_title
;
Structure prediction by ZEFSAII (Michael W. Deem and Ramdas Pophale) SiO2 
 PCOD9259247
Probable space group: C 2/C
;
_chemical_formula_sum "Si O2"
_cell_formula_units_Z 44
_cell_length_a 10.918846
_cell_length_b 15.155668
_cell_length_c 15.604410
_cell_angle_alpha 90.000000
_cell_angle_beta 51.988907
_cell_angle_gamma 90.000000
_cell_volume 2034.537103
_symmetry_space_group_name_H-M "C 2/C"
_symmetry_group_IT_number 15
_symmetry_cell_setting 'monoclinic'
loop_
_space_group_symop_operation_xyz
x,y,z
-x,y,1/2-z
-x,-y,-z
x,-y,1/2+z
1/2+x,1/2+y,z
1/2-x,1/2+y,1/2-z
1/2-x,1/2-y,-z
1/2+x,1/2-y,1/2+z
loop_
_atom_site_type_symbol
_atom_site_label
_atom_site_fract_x
_atom_site_fract_y
_atom_site_fract_z
Si Si1 0.907907 0.197878 0.122676
Si Si2 0.000000 0.698328 0.750000
Si Si3 0.850776 0.325813 0.000862
Si Si4 0.264773 0.353097 0.017661
Si Si5 0.113956 0.584112 0.273723
Si Si6 0.185875 0.503879 0.411332
O O1 0.923861 0.236464 0.211907
O O2 0.915072 0.282940 0.059574
O O3 0.748447 0.145835 0.178111
O O4 0.055262 0.137539 0.034882
O O5 0.132831 0.639692 0.646908
O O6 0.756635 0.412882 0.071257
O O7 0.750000 0.250000 0.000000
O O8 0.994913 0.355969 0.880476
O O9 0.239185 0.415341 0.947177
O O10 0.250000 0.250000 0.000000
O O11 0.202819 0.520139 0.302615
O O12 0.000000 0.546020 0.250000
O O13 0.000000 0.500000 0.500000
#
# Coordination Sequence:
#
# PCOD9259247 Si02
#       6
#     8   4   8   8   8   8
#     4  11  21  39  65  96 132 172 223 276 329 397
#     4  10  18  34  62  96 126 164 224 272 336 392
#     4  11  23  45  64  94 137 178 221 273 334 395
#     4  10  20  38  64  94 132 169 217 281 332 393
#     4  11  21  39  66  94 129 180 224 267 335 396
#     4  10  22  42  65  95 131 174 219 278 333 394
#
# _framework density 21.626541
#
# number of rings (size 3 to 8) (size 9 to 14) (size 15 to 20)
#    0.000    1.455    1.818    7.636    0.000    0.000 
#   14.727    4.545    0.000    0.000    0.000    0.000 
#    0.000    0.000    0.000    0.000    0.000    0.000 
#
# Total GULP energy -122788.823825 kJ/mol
# GULP energy per Si atom -5581.310174 kJ/mol
# Density = 2.157732 g / cm^3
# Si number density = 21.626541 Si / 1000 Ang^3
#
#
#
# Elastic Constant Matrix: (Units=GPa)
#
#
# Indices 1 2 3 4 5 6 
#
# 1 94.7749 56.8147 43.1576 0.0000 4.9329 0.0000
# 2 56.8147 121.0126 31.7258 0.0000 9.0127 0.0000
# 3 43.1576 31.7258 106.2609 0.0000 -1.2999 0.0000
# 4 0.0000 0.0000 0.0000 0.0507 0.0000 -12.8406
# 5 4.9329 9.0127 -1.2999 0.0000 33.3818 0.0000
# 6 0.0000 0.0000 0.0000 -12.8406 0.0000 21.9831
#
#
#
# Elastic Compliance Matrix: (Units=1/GPa)
#
#
# Indices 1 2 3 4 5 6 
#
# 1 0.016708 -0.006504 -0.004855 0.000000 -0.000902 0.000000
# 2 -0.006504 0.011716 -0.000883 0.000000 -0.002236 0.000000
# 3 -0.004855 -0.000883 0.011664 0.000000 0.001410 0.000000
# 4 0.000000 0.000000 0.000000 -0.134234 0.000000 -0.078408
# 5 -0.000902 -0.002236 0.001410 0.000000 0.030748 0.000000
# 6 0.000000 0.000000 0.000000 -0.078408 0.000000 -0.000310
#
#
# Mechanical properties :
#
#
# Convention : Reuss Voigt Hill
#
# Bulk Modulus (GPa) = 64.09580 65.04940 64.57260
# Shear Modulus (GPa) = -146.96665 23.77315 -61.59675
#
# Velocity S-wave (km/s) = -8.25252 3.31910 -5.34264
# Velocity P-wave (km/s) = 7.81688 6.69570 2.85230
#
# Compressibility (1/GPa) = 0.01560165
#
# Stress axis : x y z
#
# Youngs Moduli (GPa) = 59.85040 85.35650 85.73613
#
# Poissons Ratio (x) = 0.55520 0.41626
# Poissons Ratio (y) = 0.38929 0.07574
# Poissons Ratio (z) = 0.29058 0.07541
#
# Static dielectric constant tensor:
#      x y z
#    x 1.845350 0.000000 0.045270 
#    y 0.000000 1.702240 0.000000 
#    z 0.045270 0.000000 1.863530 
# 
# From -- ./inp_files/134741.got.cif
#   From: 2010.05.17/outbox.cif.g08.bks.cpg/sg15_68_cif.got.tgz:134741.got - 2010.06.03 18:47:42.
