data_PCOD9259516
_publ_section_title
;
Structure prediction by ZEFSAII (Michael W. Deem and Ramdas Pophale) SiO2 
 PCOD9259516
Probable space group: C 2/C
;
_chemical_formula_sum "Si O2"
_cell_formula_units_Z 60
_cell_length_a 10.778441
_cell_length_b 34.458591
_cell_length_c 7.710743
_cell_angle_alpha 90.000000
_cell_angle_beta 72.554956
_cell_angle_gamma 90.000000
_cell_volume 2732.123426
_symmetry_space_group_name_H-M "C 2/C"
_symmetry_group_IT_number 15
_symmetry_cell_setting 'monoclinic'
loop_
_space_group_symop_operation_xyz
x,y,z
-x,y,1/2-z
-x,-y,-z
x,-y,1/2+z
1/2+x,1/2+y,z
1/2-x,1/2+y,1/2-z
1/2-x,1/2-y,-z
1/2+x,1/2-y,1/2+z
loop_
_atom_site_type_symbol
_atom_site_label
_atom_site_fract_x
_atom_site_fract_y
_atom_site_fract_z
Si Si1 0.500000 0.815989 0.250000
Si Si2 0.791394 0.171734 0.238822
Si Si3 0.356148 0.450222 0.099156
Si Si4 0.441209 0.677172 0.546576
Si Si5 0.350016 0.900153 0.839979
Si Si6 0.648799 0.538636 0.484925
Si Si7 0.867572 0.262169 0.579127
Si Si8 0.771595 0.375522 0.259840
O O1 0.470151 0.787676 0.425207
O O2 0.375880 0.844137 0.283754
O O3 0.863160 0.173612 0.395072
O O4 0.698782 0.135133 0.257169
O O5 0.701803 0.209763 0.254749
O O6 0.909329 0.169214 0.055287
O O7 0.355106 0.453028 0.308718
O O8 0.507136 0.447219 0.977329
O O9 0.262141 0.413447 0.108302
O O10 0.322421 0.493114 0.047665
O O11 0.424332 0.721376 0.614434
O O12 0.366183 0.646564 0.695737
O O13 0.500000 0.908317 0.750000
O O14 0.259312 0.936961 0.845878
O O15 0.324526 0.888130 0.050540
O O16 0.750000 0.250000 0.500000
#
# Coordination Sequence:
#
# PCOD9259516 Si02
#       8
#     4   8   8   8   8   8   8   8
#     4  12  20  36  60  82 118 162 202 250 290 364
#     4  10  20  37  59  86 116 150 200 249 293 354
#     4   9  19  38  62  90 113 151 194 243 293 345
#     4  10  21  36  64  89 111 154 208 254 292 346
#     4  11  24  41  58  85 127 163 189 241 313 358
#     4   9  19  39  63  85 119 151 193 241 291 351
#     4  10  18  35  59  83 116 154 200 249 304 343
#     4  11  23  38  60  88 117 159 200 245 298 359
#
# _framework density 21.960941999999999
#
# number of rings (size 3 to 8) (size 9 to 14) (size 15 to 20)
#    0.000    1.867    2.667    3.200    0.000    2.667 
#    1.200    4.667    2.933    0.000    0.000    0.000 
#    0.000    0.000    0.000    0.000    0.000    0.000 
#
# Total GULP energy -167593.817419 kJ/mol
# GULP energy per Si atom -5586.460581 kJ/mol
# Density = 2.191096 g / cm^3
# Si number density = 21.960942 Si / 1000 Ang^3
#
#
#
# Elastic Constant Matrix: (Units=GPa)
#
#
# Indices 1 2 3 4 5 6 
#
# 1 62.9729 48.4063 28.5359 0.0000 -30.9958 0.0000
# 2 48.4063 125.5903 26.8483 0.0000 -30.6197 0.0000
# 3 28.5359 26.8483 70.7019 0.0000 -28.8175 0.0000
# 4 0.0000 0.0000 0.0000 4.3791 0.0000 -53.5416
# 5 -30.9958 -30.6197 -28.8175 0.0000 40.9203 0.0000
# 6 0.0000 0.0000 0.0000 -53.5416 0.0000 -25.9311
#
#
#
# Elastic Compliance Matrix: (Units=1/GPa)
#
#
# Indices 1 2 3 4 5 6 
#
# 1 0.030563 -0.007335 -0.003298 0.000000 0.015339 0.000000
# 2 -0.007335 0.011552 -0.000235 0.000000 0.002923 0.000000
# 3 -0.003298 -0.000235 0.020302 0.000000 0.011623 0.000000
# 4 0.000000 0.000000 0.000000 0.008701 0.000000 -0.017965
# 5 0.015339 0.002923 0.011623 0.000000 0.046429 0.000000
# 6 0.000000 0.000000 0.000000 -0.017965 0.000000 -0.001469
#
#
# Mechanical properties :
#
#
# Convention : Reuss Voigt Hill
#
# Bulk Modulus (GPa) = 24.58163 51.87180 38.22671
# Shear Modulus (GPa) = 33.03085 14.23863 23.63474
#
# Velocity S-wave (km/s) = 3.88244 2.54906 3.28413
# Velocity P-wave (km/s) = 5.59602 5.68638 5.64138
#
# Compressibility (1/GPa) = 0.04068079
#
# Stress axis : x y z
#
# Youngs Moduli (GPa) = 32.71979 86.56230 49.25680
#
# Poissons Ratio (x) = 0.63493 0.16244
# Poissons Ratio (y) = 0.24000 0.01158
# Poissons Ratio (z) = 0.10791 0.02035
#
# Static dielectric constant tensor:
#      x y z
#    x 1.809670 0.000000 0.041130 
#    y 0.000000 1.890780 0.000000 
#    z 0.041130 0.000000 1.848780 
# 
# From -- ./inp_files/35656.got.cif
#   From: 2010.05.17/outbox.cif.g08.bks.cpg/sg15_18_cif.got.tgz:35656.got - 2010.06.03 18:47:42.
