data_PCOD9259134
_publ_section_title
;
Structure prediction by ZEFSAII (Michael W. Deem and Ramdas Pophale) SiO2 
 PCOD9259134
Probable space group: C 2/C
;
_chemical_formula_sum "Si O2"
_cell_formula_units_Z 44
_cell_length_a 10.589399
_cell_length_b 20.219988
_cell_length_c 13.483881
_cell_angle_alpha 90.000000
_cell_angle_beta 124.868969
_cell_angle_gamma 90.000000
_cell_volume 2368.783615
_symmetry_space_group_name_H-M "C 2/C"
_symmetry_group_IT_number 15
_symmetry_cell_setting 'monoclinic'
loop_
_space_group_symop_operation_xyz
x,y,z
-x,y,1/2-z
-x,-y,-z
x,-y,1/2+z
1/2+x,1/2+y,z
1/2-x,1/2+y,1/2-z
1/2-x,1/2-y,-z
1/2+x,1/2-y,1/2+z
loop_
_atom_site_type_symbol
_atom_site_label
_atom_site_fract_x
_atom_site_fract_y
_atom_site_fract_z
Si Si1 0.945084 0.428938 0.011325
Si Si2 0.718810 0.172633 0.586123
Si Si3 0.208446 0.802797 0.167799
Si Si4 0.322356 0.346739 0.708960
Si Si5 0.000000 0.391221 0.250000
Si Si6 0.382886 0.674893 0.459490
O O1 0.786482 0.400353 0.893891
O O2 0.943930 0.431302 0.129902
O O3 0.000000 0.500000 0.000000
O O4 0.078536 0.376680 0.042823
O O5 0.825063 0.182767 0.731014
O O6 0.648825 0.246329 0.546237
O O7 0.805178 0.149584 0.525593
O O8 0.247067 0.726441 0.161073
O O9 0.360651 0.843546 0.215405
O O10 0.066263 0.830142 0.042495
O O11 0.500000 0.347222 0.750000
O O12 0.321853 0.353968 0.828750
#
# Coordination Sequence:
#
# PCOD9259134 Si02
#       6
#     8   8   8   8   4   8
#     4  11  24  42  59  84 121 161 205 233 286 363
#     4   9  20  34  54  86 117 158 192 236 300 348
#     4  10  18  34  60  88 121 147 190 252 305 347
#     4  11  22  35  59  91 118 152 198 248 297 349
#     4  10  22  38  62  86 114 158 192 248 302 334
#     4  10  19  33  57  88 121 146 189 252 301 345
#
# _framework density 18.574933999999999
#
# number of rings (size 3 to 8) (size 9 to 14) (size 15 to 20)
#    0.000    1.818    2.727    1.636    0.000    3.636 
#    0.000    3.636    0.000    7.636    0.000    0.000 
#    0.000    0.000    0.000    0.000    0.000    0.000 
#
# Total GULP energy -122635.554739 kJ/mol
# GULP energy per Si atom -5574.343397 kJ/mol
# Density = 1.853266 g / cm^3
# Si number density = 18.574934 Si / 1000 Ang^3
#
#
#
# Elastic Constant Matrix: (Units=GPa)
#
#
# Indices 1 2 3 4 5 6 
#
# 1 86.6346 25.6885 57.6821 0.0000 -7.0264 0.0000
# 2 25.6885 58.5734 47.4876 0.0000 -6.8416 0.0000
# 3 57.6821 47.4876 127.5542 0.0000 -1.4653 0.0000
# 4 0.0000 0.0000 0.0000 8.2000 0.0000 -2.3420
# 5 -7.0264 -6.8416 -1.4653 0.0000 35.9711 0.0000
# 6 0.0000 0.0000 0.0000 -2.3420 0.0000 16.4954
#
#
#
# Elastic Compliance Matrix: (Units=1/GPa)
#
#
# Indices 1 2 3 4 5 6 
#
# 1 0.016897 -0.001316 -0.007119 0.000000 0.002760 0.000000
# 2 -0.001316 0.025234 -0.008751 0.000000 0.004186 0.000000
# 3 -0.007119 -0.008751 0.014289 0.000000 -0.002473 0.000000
# 4 0.000000 0.000000 0.000000 0.127105 0.000000 0.018046
# 5 0.002760 0.004186 -0.002473 0.000000 0.029035 0.000000
# 6 0.000000 0.000000 0.000000 0.018046 0.000000 0.063185
#
#
# Mechanical properties :
#
#
# Convention : Reuss Voigt Hill
#
# Bulk Modulus (GPa) = 45.35916 59.38649 52.37283
# Shear Modulus (GPa) = 15.74973 21.59357 18.67165
#
# Velocity S-wave (km/s) = 2.91503 3.41326 3.17394
# Velocity P-wave (km/s) = 5.98352 6.89743 6.45666
#
# Compressibility (1/GPa) = 0.02204626
#
# Stress axis : x y z
#
# Youngs Moduli (GPa) = 59.18198 39.62986 69.98462
#
# Poissons Ratio (x) = 0.05216 0.49825
# Poissons Ratio (y) = 0.07789 0.61244
# Poissons Ratio (z) = 0.42134 0.34680
#
# Static dielectric constant tensor:
#      x y z
#    x 1.657250 0.000000 -0.040670 
#    y 0.000000 1.591200 0.000000 
#    z -0.040670 0.000000 1.708710 
# 
# From -- ./inp_files/89226.got.cif
#   From: 2010.05.17/outbox.cif.g08.bks.cpg/sg15_45_cif.got.tgz:89226.got - 2010.06.03 18:47:42.
