data_PCOD9259928
_publ_section_title
;
Structure prediction by ZEFSAII (Michael W. Deem and Ramdas Pophale) SiO2 
 PCOD9259928
Probable space group: C 2/C
;
_chemical_formula_sum "Si O2"
_cell_formula_units_Z 64
_cell_length_a 9.230633
_cell_length_b 14.732025
_cell_length_c 29.705300
_cell_angle_alpha 90.000000
_cell_angle_beta 48.991502
_cell_angle_gamma 90.000000
_cell_volume 3048.258087
_symmetry_space_group_name_H-M "C 2/C"
_symmetry_group_IT_number 15
_symmetry_cell_setting 'monoclinic'
loop_
_space_group_symop_operation_xyz
x,y,z
-x,y,1/2-z
-x,-y,-z
x,-y,1/2+z
1/2+x,1/2+y,z
1/2-x,1/2+y,1/2-z
1/2-x,1/2-y,-z
1/2+x,1/2-y,1/2+z
loop_
_atom_site_type_symbol
_atom_site_label
_atom_site_fract_x
_atom_site_fract_y
_atom_site_fract_z
Si Si1 0.892541 0.514917 0.724197
Si Si2 0.613658 0.391396 0.924643
Si Si3 0.721525 0.086291 0.930912
Si Si4 0.424225 0.678179 0.967761
Si Si5 0.210991 0.414187 0.097305
Si Si6 0.012869 0.880431 0.300944
Si Si7 0.810161 0.404756 0.505107
Si Si8 0.995590 0.679363 0.304832
O O1 0.682893 0.551345 0.777029
O O2 0.000000 0.511767 0.750000
O O3 0.015350 0.578618 0.665471
O O4 0.893351 0.412406 0.704183
O O5 0.663988 0.498587 0.910864
O O6 0.403383 0.364018 0.949326
O O7 0.779383 0.336562 0.865998
O O8 0.620995 0.372787 0.976347
O O9 0.881518 0.128578 0.929930
O O10 0.812917 0.087624 0.863204
O O11 0.694702 0.987854 0.958696
O O12 0.517176 0.139538 0.973697
O O13 0.658388 0.676454 0.922843
O O14 0.250000 0.750000 0.000000
O O15 0.174567 0.429143 0.051313
O O16 0.060643 0.778114 0.307653
O O17 0.000000 0.877935 0.250000
O O18 0.000000 0.682153 0.250000
#
# Coordination Sequence:
#
# PCOD9259928 Si02
#       8
#     8   8   8   8   8   8   8   8
#     4  10  21  37  66  86 110 158 204 243 290 351
#     4  10  18  36  59  82 113 153 199 236 284 355
#     4  11  21  35  57  86 119 150 189 247 299 349
#     4  11  20  33  55  85 117 150 190 243 297 342
#     4  10  18  37  57  82 114 154 202 239 284 360
#     4  11  23  41  59  87 121 154 195 246 302 351
#     4  10  20  34  58  86 115 151 195 238 294 361
#     4   9  21  38  61  85 114 155 202 241 288 356
#
# _framework density 20.995598000000001
#
# number of rings (size 3 to 8) (size 9 to 14) (size 15 to 20)
#    0.000    1.750    2.500    3.000    3.500    0.000 
#    0.000    8.750    0.000    0.000    0.000    0.000 
#    0.000    0.000    0.000    0.000    0.000    0.000 
#
# Total GULP energy -178163.183817 kJ/mol
# GULP energy per Si atom -5567.599494 kJ/mol
# Density = 2.094781 g / cm^3
# Si number density = 20.995598 Si / 1000 Ang^3
#
#
#
# Elastic Constant Matrix: (Units=GPa)
#
#
# Indices 1 2 3 4 5 6 
#
# 1 68.5982 22.7794 9.2510 0.0000 -13.0044 -0.0001
# 2 22.7794 42.3794 4.4838 0.0000 -9.3089 0.0000
# 3 9.2510 4.4838 97.6603 0.0000 3.6129 0.0000
# 4 0.0000 0.0000 0.0000 24.4701 -0.0001 -12.3830
# 5 -13.0044 -9.3089 3.6129 -0.0001 30.0804 0.0000
# 6 -0.0001 0.0000 0.0000 -12.3830 0.0000 11.8194
#
#
#
# Elastic Compliance Matrix: (Units=1/GPa)
#
#
# Indices 1 2 3 4 5 6 
#
# 1 0.018733 -0.008670 -0.001584 0.000000 0.005606 0.000000
# 2 -0.008670 0.029539 -0.000738 0.000000 0.005482 0.000000
# 3 -0.001584 -0.000738 0.010504 0.000000 -0.002175 0.000000
# 4 0.000000 0.000000 0.000000 0.086983 0.000000 0.091131
# 5 0.005606 0.005482 -0.002175 0.000000 0.037625 0.000000
# 6 0.000000 0.000000 0.000000 0.091131 0.000000 0.180083
#
#
# Mechanical properties :
#
#
# Convention : Reuss Voigt Hill
#
# Bulk Modulus (GPa) = 27.17965 31.29626 29.23795
# Shear Modulus (GPa) = 12.57182 24.74889 18.66036
#
# Velocity S-wave (km/s) = 2.44966 3.43704 2.98447
# Velocity P-wave (km/s) = 4.57981 5.53981 5.08252
#
# Compressibility (1/GPa) = 0.03679224
#
# Stress axis : x y z
#
# Youngs Moduli (GPa) = 53.38150 33.85371 95.20250
#
# Poissons Ratio (x) = 0.29352 0.15078
# Poissons Ratio (y) = 0.46283 0.07023
# Poissons Ratio (z) = 0.08455 0.02497
#
# Static dielectric constant tensor:
#      x y z
#    x 1.716100 0.000000 -0.052120 
#    y 0.000000 1.837680 0.000000 
#    z -0.052120 0.000000 1.757070 
# 
# From -- ./inp_files/308242.got.cif
#   From: 2010.05.17/outbox.cif.g08.bks.cpg/sg15_155_cif.got.tgz:308242.got - 2010.06.03 18:47:42.
