data_PCOD9259985
_publ_section_title
;
Structure prediction by ZEFSAII (Michael W. Deem and Ramdas Pophale) SiO2 
 PCOD9259985
Probable space group: C 2/C
;
_chemical_formula_sum "Si O2"
_cell_formula_units_Z 64
_cell_length_a 29.046691
_cell_length_b 7.985994
_cell_length_c 23.765594
_cell_angle_alpha 90.000000
_cell_angle_beta 152.448357
_cell_angle_gamma 90.000000
_cell_volume 2549.946415
_symmetry_space_group_name_H-M "C 2/C"
_symmetry_group_IT_number 15
_symmetry_cell_setting 'monoclinic'
loop_
_space_group_symop_operation_xyz
x,y,z
-x,y,1/2-z
-x,-y,-z
x,-y,1/2+z
1/2+x,1/2+y,z
1/2-x,1/2+y,1/2-z
1/2-x,1/2-y,-z
1/2+x,1/2-y,1/2+z
loop_
_atom_site_type_symbol
_atom_site_label
_atom_site_fract_x
_atom_site_fract_y
_atom_site_fract_z
Si Si1 0.870800 0.157478 0.986920
Si Si2 0.583254 0.800386 0.902407
Si Si3 0.616742 0.670622 0.812190
Si Si4 0.029092 0.666193 0.722933
Si Si5 0.758628 0.993735 0.633971
Si Si6 0.302968 0.642634 0.792476
Si Si7 0.615189 0.988788 0.141395
Si Si8 0.302759 0.988300 0.147546
O O1 0.799594 0.321961 0.918725
O O2 0.859036 0.094139 0.910798
O O3 0.813046 0.032640 0.965820
O O4 0.978378 0.222291 0.120280
O O5 0.614153 0.725607 0.874864
O O6 0.497803 0.676714 0.832112
O O7 0.524958 0.982218 0.834409
O O8 0.675088 0.860072 0.038989
O O9 0.677284 0.512993 0.853858
O O10 0.669982 0.825946 0.840021
O O11 0.000000 0.750336 0.750000
O O12 0.145211 0.629230 0.842129
O O13 0.822382 0.032025 0.758543
O O14 0.336839 0.829309 0.816160
O O15 0.185546 0.630307 0.680378
O O16 0.636017 0.947691 0.228988
O O17 0.500000 0.000000 0.000000
#
# Coordination Sequence:
#
# PCOD9259985 Si02
#       8
#     8   8   8   8   8   8   8   8
#     4  10  23  38  56  89 124 151 192 261 301 359
#     4   9  19  35  58  87 116 151 201 245 292 368
#     4  10  18  36  60  85 114 152 200 242 294 371
#     4  10  18  37  62  85 112 158 201 240 293 376
#     4  11  21  35  62  85 119 157 196 250 310 356
#     4  11  22  39  62  92 126 160 218 260 312 383
#     4  11  23  40  66  90 123 171 212 265 318 376
#     4  10  20  36  60  87 117 154 202 243 308 368
#
# _framework density 25.098566999999999
#
# number of rings (size 3 to 8) (size 9 to 14) (size 15 to 20)
#    0.000    1.750    5.000    1.125    3.500    0.500 
#    0.000    1.875   13.750    0.000    0.000    0.000 
#    0.000    0.000    0.000    0.000    0.000    0.000 
#
# Total GULP energy -178938.418120 kJ/mol
# GULP energy per Si atom -5591.825566 kJ/mol
# Density = 2.504144 g / cm^3
# Si number density = 25.098567 Si / 1000 Ang^3
#
#
#
# Elastic Constant Matrix: (Units=GPa)
#
#
# Indices 1 2 3 4 5 6 
#
# 1 62.8394 19.8909 -4.1703 0.0000 -3.5009 0.0000
# 2 19.8909 71.5272 11.8644 0.0000 6.0279 0.0000
# 3 -4.1703 11.8644 73.4630 0.0000 9.2879 0.0000
# 4 0.0000 0.0000 0.0000 31.9947 0.0000 9.8557
# 5 -3.5009 6.0279 9.2879 0.0000 28.5056 0.0000
# 6 0.0000 0.0000 0.0000 9.8557 0.0000 37.9634
#
#
#
# Elastic Compliance Matrix: (Units=1/GPa)
#
#
# Indices 1 2 3 4 5 6 
#
# 1 0.017908 -0.005476 0.001540 0.000000 0.002856 0.000000
# 2 -0.005476 0.016197 -0.002512 0.000000 -0.003279 0.000000
# 3 0.001540 -0.002512 0.014616 0.000000 -0.004042 0.000000
# 4 0.000000 0.000000 0.000000 0.033972 0.000000 -0.008819
# 5 0.002856 -0.003279 -0.004042 0.000000 0.037442 0.000000
# 6 0.000000 0.000000 0.000000 -0.008819 0.000000 0.028631
#
#
# Mechanical properties :
#
#
# Convention : Reuss Voigt Hill
#
# Bulk Modulus (GPa) = 27.91365 29.22217 28.56791
# Shear Modulus (GPa) = 28.80115 31.70904 30.25510
#
# Velocity S-wave (km/s) = 3.39118 3.55826 3.47573
# Velocity P-wave (km/s) = 5.14580 5.34321 5.24543
#
# Compressibility (1/GPa) = 0.03582477
#
# Stress axis : x y z
#
# Youngs Moduli (GPa) = 55.84008 61.74140 68.41602
#
# Poissons Ratio (x) = 0.33811 -0.10536
# Poissons Ratio (y) = 0.30579 0.17187
# Poissons Ratio (z) = -0.08599 0.15510
#
# Static dielectric constant tensor:
#      x y z
#    x 2.039210 0.000000 -0.004260 
#    y 0.000000 2.046450 0.000000 
#    z -0.004260 0.000000 1.988940 
# 
# From -- ./inp_files/284466.got.cif
#   From: 2010.05.17/outbox.cif.g08.bks.cpg/sg15_143_cif.got.tgz:284466.got - 2010.06.03 18:47:42.
