data_PCOD9259801
_publ_section_title
;
Structure prediction by ZEFSAII (Michael W. Deem and Ramdas Pophale) SiO2 
 PCOD9259801
Probable space group: C 2/C
;
_chemical_formula_sum "Si O2"
_cell_formula_units_Z 60
_cell_length_a 8.511942
_cell_length_b 13.806376
_cell_length_c 18.920343
_cell_angle_alpha 90.000000
_cell_angle_beta 99.094084
_cell_angle_gamma 90.000000
_cell_volume 2195.552030
_symmetry_space_group_name_H-M "C 2/C"
_symmetry_group_IT_number 15
_symmetry_cell_setting 'monoclinic'
loop_
_space_group_symop_operation_xyz
x,y,z
-x,y,1/2-z
-x,-y,-z
x,-y,1/2+z
1/2+x,1/2+y,z
1/2-x,1/2+y,1/2-z
1/2-x,1/2-y,-z
1/2+x,1/2-y,1/2+z
loop_
_atom_site_type_symbol
_atom_site_label
_atom_site_fract_x
_atom_site_fract_y
_atom_site_fract_z
Si Si1 0.311040 0.642018 0.522105
Si Si2 0.532448 0.374565 0.605504
Si Si3 0.170191 0.252949 0.735586
Si Si4 0.669110 0.332085 0.086639
Si Si5 0.407842 0.163904 0.864128
Si Si6 0.500000 0.526210 0.250000
Si Si7 0.315539 0.884102 0.966435
Si Si8 0.849870 0.528292 0.327046
O O1 0.250000 0.750000 0.500000
O O2 0.336200 0.601449 0.444268
O O3 0.487270 0.630187 0.568589
O O4 0.182289 0.619395 0.573234
O O5 0.496407 0.258984 0.604662
O O6 0.557414 0.414168 0.685169
O O7 0.364222 0.414612 0.566962
O O8 0.214720 0.191748 0.669492
O O9 0.287375 0.225784 0.806243
O O10 0.151862 0.366888 0.712822
O O11 0.000000 0.219579 0.750000
O O12 0.649731 0.227277 0.048472
O O13 0.798856 0.391130 0.049782
O O14 0.454074 0.068278 0.823667
O O15 0.670051 0.488232 0.293580
O O16 0.406751 0.937129 0.910177
#
# Coordination Sequence:
#
# PCOD9259801 Si02
#       8
#     8   8   8   8   8   4   8   8
#     4   9  18  32  56  83 106 147 191 228 275 337
#     4   9  18  35  58  82 109 155 186 228 282 340
#     4  11  21  37  58  81 116 156 182 235 288 331
#     4   9  16  32  57  81 105 147 193 220 281 344
#     4  11  21  37  58  84 115 148 194 231 283 338
#     4  10  18  36  56  82 118 144 190 232 280 338
#     4   8  17  34  57  79 110 147 185 233 279 330
#     4  10  22  36  56  85 113 148 189 240 280 331
#
# _framework density 27.327978999999999
#
# number of rings (size 3 to 8) (size 9 to 14) (size 15 to 20)
#    0.000    2.400    2.667    0.000    0.933    0.000 
#    1.200    7.333    0.000   39.200    0.000    0.000 
#    0.000    0.000    0.000    0.000    0.000    0.000 
#
# Total GULP energy -167111.095086 kJ/mol
# GULP energy per Si atom -5570.369836 kJ/mol
# Density = 2.726578 g / cm^3
# Si number density = 27.327979 Si / 1000 Ang^3
#
#
#
# Elastic Constant Matrix: (Units=GPa)
#
#
# Indices 1 2 3 4 5 6 
#
# 1 47.0783 -1.0845 19.9642 0.0000 -4.0481 0.0000
# 2 -1.0845 106.3861 28.5929 0.0000 -2.1080 0.0000
# 3 19.9642 28.5929 153.9813 0.0000 -17.1612 0.0000
# 4 0.0000 0.0000 0.0000 13.0459 0.0000 11.2584
# 5 -4.0481 -2.1080 -17.1612 0.0000 45.9267 0.0000
# 6 0.0000 0.0000 0.0000 11.2584 0.0000 29.8365
#
#
#
# Elastic Compliance Matrix: (Units=1/GPa)
#
#
# Indices 1 2 3 4 5 6 
#
# 1 0.022629 0.001063 -0.003030 0.000000 0.000911 0.000000
# 2 0.001063 0.009946 -0.002007 0.000000 -0.000200 0.000000
# 3 -0.003030 -0.002007 0.007533 0.000000 0.002456 0.000000
# 4 0.000000 0.000000 0.000000 0.113665 0.000000 -0.042890
# 5 0.000911 -0.000200 0.002456 0.000000 0.022763 0.000000
# 6 0.000000 0.000000 0.000000 -0.042890 0.000000 0.049700
#
#
# Mechanical properties :
#
#
# Convention : Reuss Voigt Hill
#
# Bulk Modulus (GPa) = 31.09359 44.71009 37.90184
# Shear Modulus (GPa) = 20.41615 35.09335 27.75475
#
# Velocity S-wave (km/s) = 2.73624 3.58740 3.19033
# Velocity P-wave (km/s) = 4.62443 5.79269 5.24121
#
# Compressibility (1/GPa) = 0.03216097
#
# Stress axis : x y z
#
# Youngs Moduli (GPa) = 44.19138 100.54294 132.74067
#
# Poissons Ratio (x) = -0.10688 0.40217
# Poissons Ratio (y) = -0.04698 0.26641
# Poissons Ratio (z) = 0.13389 0.20179
#
# Static dielectric constant tensor:
#      x y z
#    x 2.584670 0.000000 -0.144550 
#    y 0.000000 2.205120 0.000000 
#    z -0.144550 0.000000 2.322400 
# 
# From -- ./inp_files/238365.got.cif
#   From: 2010.05.17/outbox.cif.g08.bks.cpg/sg15_120_cif.got.tgz:238365.got - 2010.06.03 18:47:42.
