data_PCOD9259908
_publ_section_title
;
Structure prediction by ZEFSAII (Michael W. Deem and Ramdas Pophale) SiO2 
 PCOD9259908
Probable space group: C 2/C
;
_chemical_formula_sum "Si O2"
_cell_formula_units_Z 52
_cell_length_a 8.223747
_cell_length_b 21.472630
_cell_length_c 19.488067
_cell_angle_alpha 90.000000
_cell_angle_beta 48.514605
_cell_angle_gamma 90.000000
_cell_volume 2577.969683
_symmetry_space_group_name_H-M "C 2/C"
_symmetry_group_IT_number 15
_symmetry_cell_setting 'monoclinic'
loop_
_space_group_symop_operation_xyz
x,y,z
-x,y,1/2-z
-x,-y,-z
x,-y,1/2+z
1/2+x,1/2+y,z
1/2-x,1/2+y,1/2-z
1/2-x,1/2-y,-z
1/2+x,1/2-y,1/2+z
loop_
_atom_site_type_symbol
_atom_site_label
_atom_site_fract_x
_atom_site_fract_y
_atom_site_fract_z
Si Si1 0.522520 0.045236 0.911848
Si Si2 0.356122 0.195970 0.169475
Si Si3 0.954834 0.206257 0.377484
Si Si4 0.294225 0.161180 0.927789
Si Si5 0.494294 0.668540 0.623404
Si Si6 0.402218 0.088198 0.458807
Si Si7 0.000000 0.919319 0.250000
O O1 0.433199 0.099585 0.890102
O O2 0.784241 0.040923 0.829092
O O3 0.388273 0.982394 0.935991
O O4 0.484426 0.072054 0.999610
O O5 0.221790 0.199865 0.134742
O O6 0.509568 0.257121 0.133465
O O7 0.472209 0.130249 0.130262
O O8 0.185678 0.195029 0.278827
O O9 0.887867 0.164903 0.461360
O O10 0.941273 0.278629 0.402906
O O11 0.189489 0.166329 0.882827
O O12 0.700889 0.632219 0.534854
O O13 0.441452 0.627501 0.704496
#
# Coordination Sequence:
#
# PCOD9259908 Si02
#       7
#     8   8   8   8   8   8   4
#     4  10  21  38  61  83 122 156 199 237 288 359
#     4  10  18  36  58  89 117 152 194 247 280 353
#     4   9  19  32  61  90 114 149 202 234 295 336
#     4  10  19  38  61  86 116 158 190 245 288 354
#     4  10  22  38  62  85 116 152 200 241 302 343
#     4  10  21  38  56  88 119 160 191 236 299 345
#     4  10  22  40  60  90 110 158 198 248 292 356
#
# _framework density 20.170911
#
# number of rings (size 3 to 8) (size 9 to 14) (size 15 to 20)
#    0.000    2.154    1.538    1.385    0.000    3.692 
#    5.538    0.000    3.385    0.000    0.000    0.000 
#    0.000    0.000    0.000    0.000    0.000    0.000 
#
# Total GULP energy -144905.107992 kJ/mol
# GULP energy per Si atom -5573.273384 kJ/mol
# Density = 2.012500 g / cm^3
# Si number density = 20.170911 Si / 1000 Ang^3
#
#
#
# Elastic Constant Matrix: (Units=GPa)
#
#
# Indices 1 2 3 4 5 6 
#
# 1 19.7322 10.4099 9.6081 0.0000 3.7283 0.0000
# 2 10.4099 79.6699 29.6339 0.0000 -26.3047 0.0000
# 3 9.6081 29.6339 102.0387 0.0000 -1.3645 0.0000
# 4 0.0000 0.0000 0.0000 33.1083 0.0000 5.5130
# 5 3.7283 -26.3047 -1.3645 0.0000 18.2212 0.0000
# 6 0.0000 0.0000 0.0000 5.5130 0.0000 19.7618
#
#
#
# Elastic Compliance Matrix: (Units=1/GPa)
#
#
# Indices 1 2 3 4 5 6 
#
# 1 0.077019 -0.029532 0.000544 0.000000 -0.058352 0.000000
# 2 -0.029532 0.040574 -0.008147 0.000000 0.064006 0.000000
# 3 0.000544 -0.008147 0.011968 0.000000 -0.010976 0.000000
# 4 0.000000 0.000000 0.000000 0.031675 0.000000 -0.008837
# 5 -0.058352 0.064006 -0.010976 0.000000 0.158401 0.000000
# 6 0.000000 0.000000 0.000000 -0.008837 0.000000 0.053068
#
#
# Mechanical properties :
#
#
# Convention : Reuss Voigt Hill
#
# Bulk Modulus (GPa) = 18.08586 33.41605 25.75095
# Shear Modulus (GPa) = 10.74333 24.33752 17.54042
#
# Velocity S-wave (km/s) = 2.31035 3.47733 2.95208
# Velocity P-wave (km/s) = 4.01282 5.72057 4.94103
#
# Compressibility (1/GPa) = 0.05529182
#
# Stress axis : x y z
#
# Youngs Moduli (GPa) = 12.98379 24.64644 83.55512
#
# Poissons Ratio (x) = 0.72786 -0.04547
# Poissons Ratio (y) = 0.38344 0.68070
# Poissons Ratio (z) = -0.00707 0.20079
#
# Static dielectric constant tensor:
#      x y z
#    x 1.730770 0.000000 -0.014980 
#    y 0.000000 1.724210 0.000000 
#    z -0.014980 0.000000 1.757580 
# 
# From -- ./inp_files/179006.got.cif
#   From: 2010.05.17/outbox.cif.g08.bks.cpg/sg15_90_cif.got.tgz:179006.got - 2010.06.03 18:47:42.
