data_PCOD9259408
_publ_section_title
;
Structure prediction by ZEFSAII (Michael W. Deem and Ramdas Pophale) SiO2 
 PCOD9259408
Probable space group: C 2/C
;
_chemical_formula_sum "Si O2"
_cell_formula_units_Z 48
_cell_length_a 29.474954
_cell_length_b 9.669955
_cell_length_c 15.794485
_cell_angle_alpha 90.000000
_cell_angle_beta 147.336594
_cell_angle_gamma 90.000000
_cell_volume 2429.616281
_symmetry_space_group_name_H-M "C 2/C"
_symmetry_group_IT_number 15
_symmetry_cell_setting 'monoclinic'
loop_
_space_group_symop_operation_xyz
x,y,z
-x,y,1/2-z
-x,-y,-z
x,-y,1/2+z
1/2+x,1/2+y,z
1/2-x,1/2+y,1/2-z
1/2-x,1/2-y,-z
1/2+x,1/2-y,1/2+z
loop_
_atom_site_type_symbol
_atom_site_label
_atom_site_fract_x
_atom_site_fract_y
_atom_site_fract_z
Si Si1 0.598006 0.750335 0.527393
Si Si2 0.300819 0.347522 0.463143
Si Si3 0.511050 0.970049 0.866227
Si Si4 0.636049 0.159154 0.792471
Si Si5 0.466156 0.485029 0.779179
Si Si6 0.497410 0.708475 0.527322
O O1 0.677196 0.691994 0.599195
O O2 0.582620 0.911482 0.484649
O O3 0.521694 0.656179 0.369278
O O4 0.580375 0.732359 0.599509
O O5 0.320216 0.214947 0.553497
O O6 0.206950 0.390976 0.338709
O O7 0.369333 0.455411 0.606558
O O8 0.500000 0.940272 0.750000
O O9 0.431062 0.046773 0.783339
O O10 0.520769 0.833474 0.936704
O O11 0.583185 0.280333 0.661838
O O12 0.500000 0.565024 0.750000
O O13 0.488591 0.571438 0.896929
#
# Coordination Sequence:
#
# PCOD9259408 Si02
#       6
#     8   8   8   8   8   8
#     4  10  18  35  57  78 105 149 194 221 263 341
#     4  10  19  35  59  79 106 146 188 230 269 333
#     4  11  19  37  57  81 112 150 187 222 278 341
#     4  10  20  35  56  83 107 141 189 231 274 325
#     4  10  19  36  57  82 110 148 188 228 278 333
#     4  11  22  33  57  86 115 140 187 238 277 328
#
# _framework density 19.756205000000001
#
# number of rings (size 3 to 8) (size 9 to 14) (size 15 to 20)
#    0.000    1.667    5.000    3.500    0.000    0.000 
#    0.000    9.167    0.000    0.000    0.000    0.000 
#    0.000    0.000    0.000    0.000    0.000    0.000 
#
# Total GULP energy -133666.977933 kJ/mol
# GULP energy per Si atom -5569.457414 kJ/mol
# Density = 1.971124 g / cm^3
# Si number density = 19.756205 Si / 1000 Ang^3
#
#
#
# Elastic Constant Matrix: (Units=GPa)
#
#
# Indices 1 2 3 4 5 6 
#
# 1 145.5473 12.5915 28.8468 0.0000 -6.0250 0.0000
# 2 12.5915 58.1590 5.8232 0.0000 -11.8228 0.0000
# 3 28.8468 5.8232 22.5242 0.0000 -5.1819 0.0000
# 4 0.0000 0.0000 0.0000 22.9371 0.0000 -16.0953
# 5 -6.0250 -11.8228 -5.1819 0.0000 44.3369 0.0000
# 6 0.0000 0.0000 0.0000 -16.0953 0.0000 23.4993
#
#
#
# Elastic Compliance Matrix: (Units=1/GPa)
#
#
# Indices 1 2 3 4 5 6 
#
# 1 0.009252 -0.000903 -0.011697 0.000000 -0.000351 0.000000
# 2 -0.000903 0.018570 -0.002603 0.000000 0.004525 0.000000
# 3 -0.011697 -0.002603 0.061169 0.000000 0.004865 0.000000
# 4 0.000000 0.000000 0.000000 0.083943 0.000000 0.057495
# 5 -0.000351 0.004525 0.004865 0.000000 0.024282 0.000000
# 6 0.000000 0.000000 0.000000 0.057495 0.000000 0.081934
#
#
# Mechanical properties :
#
#
# Convention : Reuss Voigt Hill
#
# Bulk Modulus (GPa) = 17.06913 35.63927 26.35420
# Shear Modulus (GPa) = 15.19360 30.08592 22.63976
#
# Velocity S-wave (km/s) = 2.77619 3.90662 3.38887
# Velocity P-wave (km/s) = 4.35143 6.19900 5.35549
#
# Compressibility (1/GPa) = 0.05858529
#
# Stress axis : x y z
#
# Youngs Moduli (GPa) = 108.07894 53.84941 16.34815
#
# Poissons Ratio (x) = 0.04864 0.19122
# Poissons Ratio (y) = 0.09763 0.04256
# Poissons Ratio (z) = 1.26418 0.14018
#
# Static dielectric constant tensor:
#      x y z
#    x 1.787820 0.000000 -0.014840 
#    y 0.000000 1.712310 0.000000 
#    z -0.014840 0.000000 1.696610 
# 
# From -- ./inp_files/181417.got.cif
#   From: 2010.05.17/outbox.cif.g08.bks.cpg/sg15_91_cif.got.tgz:181417.got - 2010.06.03 18:47:42.
