data_PCOD9259905
_publ_section_title
;
Structure prediction by ZEFSAII (Michael W. Deem and Ramdas Pophale) SiO2 
 PCOD9259905
Probable space group: C 2/C
;
_chemical_formula_sum "Si O2"
_cell_formula_units_Z 60
_cell_length_a 10.682533
_cell_length_b 27.132275
_cell_length_c 9.392868
_cell_angle_alpha 90.000000
_cell_angle_beta 90.489010
_cell_angle_gamma 90.000000
_cell_volume 2722.343072
_symmetry_space_group_name_H-M "C 2/C"
_symmetry_group_IT_number 15
_symmetry_cell_setting 'monoclinic'
loop_
_space_group_symop_operation_xyz
x,y,z
-x,y,1/2-z
-x,-y,-z
x,-y,1/2+z
1/2+x,1/2+y,z
1/2-x,1/2+y,1/2-z
1/2-x,1/2-y,-z
1/2+x,1/2-y,1/2+z
loop_
_atom_site_type_symbol
_atom_site_label
_atom_site_fract_x
_atom_site_fract_y
_atom_site_fract_z
Si Si1 0.271829 0.830874 0.066123
Si Si2 0.815335 0.930537 0.491466
Si Si3 0.500000 0.556140 0.750000
Si Si4 0.213803 0.960328 0.469344
Si Si5 0.516729 0.802600 0.919198
Si Si6 0.444625 0.390432 0.878293
Si Si7 0.989479 0.192760 0.583134
Si Si8 0.624217 0.873724 0.155549
O O1 0.134109 0.810718 0.034130
O O2 0.296203 0.839524 0.234416
O O3 0.278869 0.885657 0.996670
O O4 0.380765 0.801037 0.992423
O O5 0.893338 0.919776 0.346897
O O6 0.928512 0.923067 0.603027
O O7 0.753044 0.983865 0.490346
O O8 0.410782 0.532264 0.629886
O O9 0.167587 0.929133 0.606196
O O10 0.310716 0.925233 0.388133
O O11 0.500000 0.813005 0.750000
O O12 0.567806 0.746884 0.936274
O O13 0.591369 0.842800 0.012908
O O14 0.500000 0.358171 0.750000
O O15 0.420172 0.351789 0.004119
O O16 0.000000 0.183233 0.750000
O O17 0.500000 0.883391 0.250000
#
# Coordination Sequence:
#
# PCOD9259905 Si02
#       8
#     8   8   4   8   8   8   8   8
#     4  10  20  40  63  88 116 165 204 245 299 370
#     4  10  22  33  61  87 127 159 200 241 312 361
#     4  10  18  36  58  88 122 154 202 242 312 366
#     4  11  22  36  61  89 127 165 200 250 303 364
#     4  10  23  43  61  87 121 159 207 258 301 352
#     4  10  22  33  55  95 128 150 195 249 311 369
#     4  10  21  39  64  88 118 157 197 249 316 370
#     4  10  22  41  64  86 119 167 215 246 293 363
#
# _framework density 22.039836999999999
#
# number of rings (size 3 to 8) (size 9 to 14) (size 15 to 20)
#    0.000    1.867    1.333    2.800   10.267    3.733 
#    0.000    9.333    0.000    0.000    0.000    0.000 
#    0.000    0.000    0.000    0.000    0.000    0.000 
#
# Total GULP energy -167068.332203 kJ/mol
# GULP energy per Si atom -5568.944407 kJ/mol
# Density = 2.198967 g / cm^3
# Si number density = 22.039837 Si / 1000 Ang^3
#
#
#
# Elastic Constant Matrix: (Units=GPa)
#
#
# Indices 1 2 3 4 5 6 
#
# 1 39.1959 21.0453 4.4310 0.0000 4.8159 0.0000
# 2 21.0453 154.7141 30.7008 0.0000 -3.7143 0.0000
# 3 4.4310 30.7008 64.9026 0.0000 -17.6180 0.0000
# 4 0.0000 0.0000 0.0000 7.2547 0.0000 -7.1232
# 5 4.8159 -3.7143 -17.6180 0.0000 18.4484 0.0000
# 6 0.0000 0.0000 0.0000 -7.1232 0.0000 12.0626
#
#
#
# Elastic Compliance Matrix: (Units=1/GPa)
#
#
# Indices 1 2 3 4 5 6 
#
# 1 0.029258 -0.003570 -0.003479 0.000000 -0.011679 0.000000
# 2 -0.003570 0.007649 -0.003650 0.000000 -0.001013 0.000000
# 3 -0.003479 -0.003650 0.023514 0.000000 0.022629 0.000000
# 4 0.000000 0.000000 0.000000 0.328043 0.000000 0.193715
# 5 -0.011679 -0.001013 0.022629 0.000000 0.078661 0.000000
# 6 0.000000 0.000000 0.000000 0.193715 0.000000 0.197293
#
#
# Mechanical properties :
#
#
# Convention : Reuss Voigt Hill
#
# Bulk Modulus (GPa) = 25.62512 41.24073 33.43293
# Shear Modulus (GPa) = 7.15489 21.06220 14.10854
#
# Velocity S-wave (km/s) = 1.80372 3.09470 2.53284
# Velocity P-wave (km/s) = 3.99873 5.61445 4.87401
#
# Compressibility (1/GPa) = 0.03902421
#
# Stress axis : x y z
#
# Youngs Moduli (GPa) = 34.17885 130.73596 42.52713
#
# Poissons Ratio (x) = 0.46671 0.14796
# Poissons Ratio (y) = 0.12201 0.15521
# Poissons Ratio (z) = 0.11891 0.47713
#
# Static dielectric constant tensor:
#      x y z
#    x 1.825940 0.000000 0.049310 
#    y 0.000000 1.802680 0.000000 
#    z 0.049310 0.000000 2.083330 
# 
# From -- ./inp_files/35191.got.cif
#   From: 2010.05.17/outbox.cif.g08.bks.cpg/sg15_18_cif.got.tgz:35191.got - 2010.06.03 18:47:42.
