data_PCOD9259449
_publ_section_title
;
Structure prediction by ZEFSAII (Michael W. Deem and Ramdas Pophale) SiO2 
 PCOD9259449
Probable space group: C 2/C
;
_chemical_formula_sum "Si O2"
_cell_formula_units_Z 56
_cell_length_a 24.342931
_cell_length_b 20.555021
_cell_length_c 18.193480
_cell_angle_alpha 90.000000
_cell_angle_beta 20.767613
_cell_angle_gamma 90.000000
_cell_volume 3227.891679
_symmetry_space_group_name_H-M "C 2/C"
_symmetry_group_IT_number 15
_symmetry_cell_setting 'monoclinic'
loop_
_space_group_symop_operation_xyz
x,y,z
-x,y,1/2-z
-x,-y,-z
x,-y,1/2+z
1/2+x,1/2+y,z
1/2-x,1/2+y,1/2-z
1/2-x,1/2-y,-z
1/2+x,1/2-y,1/2+z
loop_
_atom_site_type_symbol
_atom_site_label
_atom_site_fract_x
_atom_site_fract_y
_atom_site_fract_z
Si Si1 0.111638 0.444403 0.323417
Si Si2 0.596542 0.386174 0.008953
Si Si3 0.527969 0.992082 0.629194
Si Si4 0.867723 0.051106 0.188342
Si Si5 0.439437 0.133195 0.145909
Si Si6 0.470760 0.531669 0.371322
Si Si7 0.430537 0.746753 0.758491
O O1 0.000000 0.500000 0.500000
O O2 0.082753 0.456436 0.273869
O O3 0.045220 0.379364 0.442118
O O4 0.291046 0.454482 0.115943
O O5 0.628280 0.395585 0.881783
O O6 0.761160 0.378061 0.844737
O O7 0.515315 0.453138 0.137089
O O8 0.492578 0.324178 0.158356
O O9 0.500000 0.990244 0.750000
O O10 0.489232 0.922147 0.642244
O O11 0.702420 0.015520 0.395140
O O12 0.917778 0.067047 0.209350
O O13 0.000000 0.000000 0.000000
O O14 0.465296 0.202116 0.150964
O O15 0.500000 0.548828 0.250000
O O16 0.500000 0.766158 0.750000
O O17 0.250000 0.750000 0.000000
#
# Coordination Sequence:
#
# PCOD9259449 Si02
#       7
#     8   8   8   8   8   8   8
#     4  10  18  35  58  79 110 152 189 225 289 347
#     4  11  21  39  56  77 119 156 186 232 280 334
#     4  11  20  33  58  88 112 142 189 236 289 343
#     4  10  21  34  55  85 112 150 190 230 284 348
#     4  11  21  38  57  77 115 156 189 233 277 336
#     4  11  21  34  58  88 120 148 179 239 297 335
#     4  12  26  39  57  84 115 156 202 230 268 334
#
# _framework density 17.348784999999999
#
# number of rings (size 3 to 8) (size 9 to 14) (size 15 to 20)
#    0.000    1.143    5.714    4.286    0.000    4.571 
#    0.000    0.000    0.000    0.000    0.000    6.000 
#    0.000    0.000    0.000    0.000    0.000    0.000 
#
# Total GULP energy -156190.511931 kJ/mol
# GULP energy per Si atom -5578.232569 kJ/mol
# Density = 1.730930 g / cm^3
# Si number density = 17.348785 Si / 1000 Ang^3
#
#
#
# Elastic Constant Matrix: (Units=GPa)
#
#
# Indices 1 2 3 4 5 6 
#
# 1 126.8296 17.6653 24.8667 -0.0021 -7.9625 0.0031
# 2 17.6653 54.0283 28.2082 -0.0043 -3.8999 0.0090
# 3 24.8667 28.2082 77.7874 0.0020 -16.7835 0.0029
# 4 -0.0021 -0.0043 0.0020 25.0780 0.0013 4.3732
# 5 -7.9625 -3.8999 -16.7835 0.0013 35.9148 -0.0031
# 6 0.0031 0.0090 0.0029 4.3732 -0.0031 21.8035
#
#
#
# Elastic Compliance Matrix: (Units=1/GPa)
#
#
# Indices 1 2 3 4 5 6 
#
# 1 0.008555 -0.001729 -0.001934 0.000001 0.000805 0.000000
# 2 -0.001729 0.023259 -0.008251 0.000006 -0.001714 -0.000010
# 3 -0.001934 -0.008251 0.017994 -0.000004 0.007084 0.000003
# 4 0.000001 0.000006 -0.000004 0.041321 -0.000003 -0.008288
# 5 0.000805 -0.001714 0.007084 -0.000003 0.031147 0.000005
# 6 0.000000 -0.000010 0.000003 -0.008288 0.000005 0.047526
#
#
# Mechanical properties :
#
#
# Convention : Reuss Voigt Hill
#
# Bulk Modulus (GPa) = 38.49267 44.45843 41.47555
# Shear Modulus (GPa) = 24.71686 29.08628 26.90157
#
# Velocity S-wave (km/s) = 3.77862 4.09902 3.94208
# Velocity P-wave (km/s) = 6.42440 6.93430 6.68422
#
# Compressibility (1/GPa) = 0.02597897
#
# Stress axis : x y z
#
# Youngs Moduli (GPa) = 116.88785 42.99495 55.57254
#
# Poissons Ratio (x) = 0.07435 0.10748
# Poissons Ratio (y) = 0.20214 0.45854
# Poissons Ratio (z) = 0.22607 0.35476
#
# Static dielectric constant tensor:
#      x y z
#    x 1.672120 0.000000 0.024500 
#    y 0.000000 1.574970 0.000000 
#    z 0.024500 0.000000 1.613130 
# 
# From -- ./inp_files/220180.got.cif
#   From: 2010.05.17/outbox.cif.g08.bks.cpg/sg15_111_cif.got.tgz:220180.got - 2010.06.03 18:47:42.
