data_PCOD9259742
_publ_section_title
;
Structure prediction by ZEFSAII (Michael W. Deem and Ramdas Pophale) SiO2 
 PCOD9259742
Probable space group: C 2/C
;
_chemical_formula_sum "Si O2"
_cell_formula_units_Z 60
_cell_length_a 24.998050
_cell_length_b 18.393550
_cell_length_c 5.325104
_cell_angle_alpha 90.000000
_cell_angle_beta 64.519572
_cell_angle_gamma 90.000000
_cell_volume 2210.338365
_symmetry_space_group_name_H-M "C 2/C"
_symmetry_group_IT_number 15
_symmetry_cell_setting 'monoclinic'
loop_
_space_group_symop_operation_xyz
x,y,z
-x,y,1/2-z
-x,-y,-z
x,-y,1/2+z
1/2+x,1/2+y,z
1/2-x,1/2+y,1/2-z
1/2-x,1/2-y,-z
1/2+x,1/2-y,1/2+z
loop_
_atom_site_type_symbol
_atom_site_label
_atom_site_fract_x
_atom_site_fract_y
_atom_site_fract_z
Si Si1 0.350911 0.350861 0.606764
Si Si2 0.209715 0.682599 0.185851
Si Si3 0.576389 0.478064 0.007830
Si Si4 0.560629 0.916028 0.512159
Si Si5 0.903988 0.278253 0.756596
Si Si6 0.000000 0.308149 0.250000
Si Si7 0.807371 0.925128 0.200334
Si Si8 0.806772 0.584686 0.783127
O O1 0.410484 0.396681 0.439744
O O2 0.372537 0.269238 0.531624
O O3 0.327625 0.372871 0.928051
O O4 0.307855 0.377060 0.459829
O O5 0.145468 0.720187 0.355926
O O6 0.210601 0.633387 0.439566
O O7 0.250000 0.750000 0.000000
O O8 0.197907 0.634893 0.958122
O O9 0.549777 0.520473 0.290357
O O10 0.641443 0.516512 0.851337
O O11 0.577219 0.857938 0.691212
O O12 0.541584 0.864565 0.319947
O O13 0.626736 0.949205 0.322952
O O14 0.500000 0.954389 0.750000
O O15 0.965103 0.255396 0.508556
O O16 0.749341 0.964366 0.193480
#
# Coordination Sequence:
#
# PCOD9259742 Si02
#       8
#     8   8   8   8   8   4   8   8
#     4  10  20  32  50  74 101 129 161 201 247 298
#     4  11  21  31  45  70 103 133 161 199 243 294
#     4   8  16  31  48  69  97 127 153 193 244 297
#     4   9  20  34  48  66  96 137 174 215 245 282
#     4  10  20  31  49  69  97 133 175 204 243 290
#     4  10  18  36  48  62  94 134 180 212 244 276
#     4  10  19  32  50  74 103 127 159 200 248 310
#     4  11  20  32  47  71  96 134 168 197 243 296
#
# _framework density 27.145161999999999
#
# number of rings (size 3 to 8) (size 9 to 14) (size 15 to 20)
#    0.000    2.133    1.333    2.800    1.867    1.067 
#    0.000    0.000    0.000    0.000    0.000    8.400 
#    0.000    9.600    0.000    0.000    0.000    0.000 
#
# Total GULP energy -167014.865305 kJ/mol
# GULP energy per Si atom -5567.162177 kJ/mol
# Density = 2.708338 g / cm^3
# Si number density = 27.145162 Si / 1000 Ang^3
#
#
#
# Elastic Constant Matrix: (Units=GPa)
#
#
# Indices 1 2 3 4 5 6 
#
# 1 151.4604 11.4105 58.4975 0.0000 4.9044 0.0000
# 2 11.4105 46.2610 15.0095 0.0000 13.1909 0.0000
# 3 58.4975 15.0095 159.4326 0.0000 28.7063 0.0000
# 4 0.0000 0.0000 0.0000 31.2718 0.0000 6.6672
# 5 4.9044 13.1909 28.7063 0.0000 49.4049 0.0000
# 6 0.0000 0.0000 0.0000 6.6672 0.0000 63.8639
#
#
#
# Elastic Compliance Matrix: (Units=1/GPa)
#
#
# Indices 1 2 3 4 5 6 
#
# 1 0.007810 -0.001334 -0.002976 0.000000 0.001310 0.000000
# 2 -0.001334 0.023835 -0.000706 0.000000 -0.005821 0.000000
# 3 -0.002976 -0.000706 0.008201 0.000000 -0.004281 0.000000
# 4 0.000000 0.000000 0.000000 0.032706 0.000000 -0.003414
# 5 0.001310 -0.005821 -0.004281 0.000000 0.024153 0.000000
# 6 0.000000 0.000000 0.000000 -0.003414 0.000000 0.016015
#
#
# Mechanical properties :
#
#
# Convention : Reuss Voigt Hill
#
# Bulk Modulus (GPa) = 33.54223 58.55432 46.04828
# Shear Modulus (GPa) = 37.68202 47.05721 42.36962
#
# Velocity S-wave (km/s) = 3.72985 4.16810 3.95505
# Velocity P-wave (km/s) = 5.56170 6.69191 6.15281
#
# Compressibility (1/GPa) = 0.02981316
#
# Stress axis : x y z
#
# Youngs Moduli (GPa) = 128.04431 41.95590 121.92979
#
# Poissons Ratio (x) = 0.05599 0.36283
# Poissons Ratio (y) = 0.17086 0.08610
# Poissons Ratio (z) = 0.38103 0.02963
#
# Static dielectric constant tensor:
#      x y z
#    x 2.600050 0.000000 -0.347820 
#    y 0.000000 2.265980 0.000000 
#    z -0.347820 0.000000 2.440850 
# 
# From -- ./inp_files/17614.got.cif
#   From: 2010.05.17/outbox.cif.g08.bks.cpg/sg15_9_cif.got.tgz:17614.got - 2010.06.03 18:47:42.
