data_PCOD9259880
_publ_section_title
;
Structure prediction by ZEFSAII (Michael W. Deem and Ramdas Pophale) SiO2 
 PCOD9259880
Probable space group: C 2/C
;
_chemical_formula_sum "Si O2"
_cell_formula_units_Z 64
_cell_length_a 8.687008
_cell_length_b 17.745274
_cell_length_c 20.096161
_cell_angle_alpha 90.000000
_cell_angle_beta 93.597847
_cell_angle_gamma 90.000000
_cell_volume 3091.784611
_symmetry_space_group_name_H-M "C 2/C"
_symmetry_group_IT_number 15
_symmetry_cell_setting 'monoclinic'
loop_
_space_group_symop_operation_xyz
x,y,z
-x,y,1/2-z
-x,-y,-z
x,-y,1/2+z
1/2+x,1/2+y,z
1/2-x,1/2+y,1/2-z
1/2-x,1/2-y,-z
1/2+x,1/2-y,1/2+z
loop_
_atom_site_type_symbol
_atom_site_label
_atom_site_fract_x
_atom_site_fract_y
_atom_site_fract_z
Si Si1 0.684420 0.298139 0.103216
Si Si2 0.313418 0.144143 0.478983
Si Si3 0.186715 0.414641 0.747389
Si Si4 0.822953 0.588361 0.110403
Si Si5 0.348288 0.010501 0.385686
Si Si6 0.155006 0.764877 0.370136
Si Si7 0.818513 0.749377 0.737486
Si Si8 0.672340 0.865868 0.029264
O O1 0.714887 0.217772 0.067106
O O2 0.510341 0.301999 0.124145
O O3 0.787099 0.300462 0.171739
O O4 0.721572 0.355541 0.045458
O O5 0.278267 0.071430 0.434403
O O6 0.494516 0.146379 0.503621
O O7 0.257376 0.433242 0.822016
O O8 0.213720 0.474054 0.689661
O O9 0.244655 0.332591 0.725902
O O10 0.000000 0.411219 0.750000
O O11 0.872296 0.674904 0.128011
O O12 0.969301 0.533024 0.107702
O O13 0.749015 0.599952 0.035614
O O14 0.323211 0.928583 0.413520
O O15 0.238837 0.780938 0.302670
O O16 0.257242 0.792155 0.434955
O O17 0.000000 0.757766 0.750000
#
# Coordination Sequence:
#
# PCOD9259880 Si02
#       8
#     8   8   8   8   8   8   8   8
#     4  11  20  36  58  86 120 153 198 248 303 355
#     4  10  20  34  58  86 119 159 198 248 295 356
#     4   9  17  34  58  83 108 156 200 246 298 355
#     4   9  17  32  56  83 112 150 207 245 289 350
#     4  10  18  36  58  83 121 159 205 247 298 367
#     4  11  21  37  60  88 120 157 196 255 304 359
#     4  11  21  36  59  89 118 147 201 259 299 349
#     4  11  21  35  57  92 123 156 201 258 301 359
#
# _framework density 20.700019000000001
#
# number of rings (size 3 to 8) (size 9 to 14) (size 15 to 20)
#    0.000    1.750    3.750    4.500    0.000    0.000 
#    2.250    7.500    0.000    6.000    0.000    0.000 
#    0.000    0.000    0.000    0.000    0.000    0.000 
#
# Total GULP energy -178505.782250 kJ/mol
# GULP energy per Si atom -5578.305695 kJ/mol
# Density = 2.065290 g / cm^3
# Si number density = 20.700019 Si / 1000 Ang^3
#
#
#
# Elastic Constant Matrix: (Units=GPa)
#
#
# Indices 1 2 3 4 5 6 
#
# 1 51.3588 -5.2629 23.3525 0.0000 -10.1548 0.0000
# 2 -5.2629 20.9019 17.8635 0.0000 -2.2503 0.0000
# 3 23.3525 17.8635 164.9169 0.0000 -15.1075 0.0000
# 4 0.0000 0.0000 0.0000 22.1920 0.0000 -1.9617
# 5 -10.1548 -2.2503 -15.1075 0.0000 24.1029 0.0000
# 6 0.0000 0.0000 0.0000 -1.9617 0.0000 3.1812
#
#
#
# Elastic Compliance Matrix: (Units=1/GPa)
#
#
# Indices 1 2 3 4 5 6 
#
# 1 0.023901 0.010101 -0.003681 0.000000 0.008706 0.000000
# 2 0.010101 0.057039 -0.007141 0.000000 0.005105 0.000000
# 3 -0.003681 -0.007141 0.007591 0.000000 0.002540 0.000000
# 4 0.000000 0.000000 0.000000 0.047659 0.000000 0.029390
# 5 0.008706 0.005105 0.002540 0.000000 0.047225 0.000000
# 6 0.000000 0.000000 0.000000 0.029390 0.000000 0.332473
#
#
# Mechanical properties :
#
#
# Convention : Reuss Voigt Hill
#
# Bulk Modulus (GPa) = 11.48248 34.34263 22.91255
# Shear Modulus (GPa) = 9.15147 23.31019 16.23083
#
# Velocity S-wave (km/s) = 2.10490 3.35937 2.80321
# Velocity P-wave (km/s) = 3.38624 5.62795 4.64437
#
# Compressibility (1/GPa) = 0.08708923
#
# Stress axis : x y z
#
# Youngs Moduli (GPa) = 41.83916 17.53198 131.73252
#
# Poissons Ratio (x) = -0.17710 0.48492
# Poissons Ratio (y) = -0.42263 0.94071
# Poissons Ratio (z) = 0.15401 0.12520
#
# Static dielectric constant tensor:
#      x y z
#    x 1.751020 0.000000 -0.014430 
#    y 0.000000 1.719740 0.000000 
#    z -0.014430 0.000000 1.808610 
# 
# From -- ./inp_files/233528.got.cif
#   From: 2010.05.17/outbox.cif.g08.bks.cpg/sg15_117_cif.got.tgz:233528.got - 2010.06.03 18:47:42.
