data_PCOD9259385
_publ_section_title
;
Structure prediction by ZEFSAII (Michael W. Deem and Ramdas Pophale) SiO2 
 PCOD9259385
Probable space group: C 2/C
;
_chemical_formula_sum "Si O2"
_cell_formula_units_Z 48
_cell_length_a 28.051362
_cell_length_b 8.721337
_cell_length_c 16.431916
_cell_angle_alpha 90.000000
_cell_angle_beta 144.937088
_cell_angle_gamma 90.000000
_cell_volume 2309.387267
_symmetry_space_group_name_H-M "C 2/C"
_symmetry_group_IT_number 15
_symmetry_cell_setting 'monoclinic'
loop_
_space_group_symop_operation_xyz
x,y,z
-x,y,1/2-z
-x,-y,-z
x,-y,1/2+z
1/2+x,1/2+y,z
1/2-x,1/2+y,1/2-z
1/2-x,1/2-y,-z
1/2+x,1/2-y,1/2+z
loop_
_atom_site_type_symbol
_atom_site_label
_atom_site_fract_x
_atom_site_fract_y
_atom_site_fract_z
Si Si1 0.106476 0.933308 0.713390
Si Si2 0.316340 0.210837 0.419869
Si Si3 0.779758 0.149887 0.371559
Si Si4 0.569538 0.542844 0.479093
Si Si5 0.185922 0.609644 0.820953
Si Si6 0.786644 0.558947 0.982669
O O1 0.121240 0.749839 0.721557
O O2 0.029166 0.967263 0.663817
O O3 0.089869 0.011329 0.602483
O O4 0.191420 0.007829 0.861931
O O5 0.250747 0.229127 0.254339
O O6 0.399334 0.291498 0.507037
O O7 0.274189 0.297590 0.438182
O O8 0.320555 0.036145 0.452598
O O9 0.786743 0.265412 0.456589
O O10 0.868750 0.072034 0.481257
O O11 0.707709 0.023982 0.286958
O O12 0.167619 0.510641 0.875626
#
# Coordination Sequence:
#
# PCOD9259385 Si02
#       6
#     8   8   8   8   8   8
#     4  10  19  36  56  85 116 147 198 245 299 342
#     4  10  18  35  56  82 108 155 201 235 287 355
#     4  11  19  36  58  88 114 153 202 245 288 351
#     4  10  20  34  58  87 113 150 201 254 290 340
#     4  10  21  35  57  85 116 154 192 240 296 355
#     4  11  20  36  60  84 120 156 198 241 294 363
#
# _framework density 20.784734
#
# number of rings (size 3 to 8) (size 9 to 14) (size 15 to 20)
#    0.000    1.667    5.000    3.500    0.000    0.000 
#    0.000   10.000    0.000    2.000    0.000    0.000 
#    0.000    0.000    0.000    0.000    0.000    0.000 
#
# Total GULP energy -133724.666570 kJ/mol
# GULP energy per Si atom -5571.861107 kJ/mol
# Density = 2.073743 g / cm^3
# Si number density = 20.784734 Si / 1000 Ang^3
#
#
#
# Elastic Constant Matrix: (Units=GPa)
#
#
# Indices 1 2 3 4 5 6 
#
# 1 108.9779 35.8279 30.5350 0.0000 15.4406 0.0000
# 2 35.8279 64.9977 5.3989 0.0000 0.2651 0.0000
# 3 30.5350 5.3989 15.4922 0.0000 7.0025 0.0000
# 4 0.0000 0.0000 0.0000 23.2545 0.0000 -7.1433
# 5 15.4406 0.2651 7.0025 0.0000 33.5013 0.0000
# 6 0.0000 0.0000 0.0000 -7.1433 0.0000 33.0429
#
#
#
# Elastic Compliance Matrix: (Units=1/GPa)
#
#
# Indices 1 2 3 4 5 6 
#
# 1 0.025950 -0.010430 -0.046541 0.000000 -0.002150 0.000000
# 2 -0.010430 0.020075 0.012655 0.000000 0.002003 0.000000
# 3 -0.046541 0.012655 0.157059 0.000000 -0.011478 0.000000
# 4 0.000000 0.000000 0.000000 0.046061 0.000000 0.009958
# 5 -0.002150 0.002003 -0.011478 0.000000 0.033224 0.000000
# 6 0.000000 0.000000 0.000000 0.009958 0.000000 0.032416
#
#
# Mechanical properties :
#
#
# Convention : Reuss Voigt Hill
#
# Bulk Modulus (GPa) = 8.73720 36.99904 22.86812
# Shear Modulus (GPa) = 11.32328 25.80679 18.56504
#
# Velocity S-wave (km/s) = 2.33660 3.52749 2.99190
# Velocity P-wave (km/s) = 3.39004 5.86776 4.79182
#
# Compressibility (1/GPa) = 0.11445315
#
# Stress axis : x y z
#
# Youngs Moduli (GPa) = 38.53532 49.81386 6.36702
#
# Poissons Ratio (x) = 0.51954 0.29633
# Poissons Ratio (y) = 0.40191 -0.08058
# Poissons Ratio (z) = 1.79349 -0.63041
#
# Static dielectric constant tensor:
#      x y z
#    x 1.777070 0.000000 -0.044950 
#    y 0.000000 1.819320 0.000000 
#    z -0.044950 0.000000 1.755530 
# 
# From -- ./inp_files/177006.got.cif
#   From: 2010.05.17/outbox.cif.g08.bks.cpg/sg15_89_cif.got.tgz:177006.got - 2010.06.03 18:47:42.
