data_PCOD9259393
_publ_section_title
;
Structure prediction by ZEFSAII (Michael W. Deem and Ramdas Pophale) SiO2 
 PCOD9259393
Probable space group: C 2/C
;
_chemical_formula_sum "Si O2"
_cell_formula_units_Z 56
_cell_length_a 19.001742
_cell_length_b 14.047023
_cell_length_c 16.019270
_cell_angle_alpha 90.000000
_cell_angle_beta 47.053092
_cell_angle_gamma 90.000000
_cell_volume 3129.844923
_symmetry_space_group_name_H-M "C 2/C"
_symmetry_group_IT_number 15
_symmetry_cell_setting 'monoclinic'
loop_
_space_group_symop_operation_xyz
x,y,z
-x,y,1/2-z
-x,-y,-z
x,-y,1/2+z
1/2+x,1/2+y,z
1/2-x,1/2+y,1/2-z
1/2-x,1/2-y,-z
1/2+x,1/2-y,1/2+z
loop_
_atom_site_type_symbol
_atom_site_label
_atom_site_fract_x
_atom_site_fract_y
_atom_site_fract_z
Si Si1 0.176770 0.728234 0.258845
Si Si2 0.124385 0.947198 0.988932
Si Si3 0.662010 0.117336 0.916906
Si Si4 0.720726 0.449237 0.742433
Si Si5 0.973693 0.100119 0.177687
Si Si6 0.983200 0.228348 0.009756
Si Si7 0.297845 0.150343 0.434208
O O1 0.245462 0.815555 0.177947
O O2 0.238805 0.652744 0.261595
O O3 0.147853 0.674604 0.195883
O O4 0.086452 0.760918 0.384666
O O5 0.076138 0.847953 0.998418
O O6 0.168720 0.990272 0.867792
O O7 0.211637 0.921198 0.979571
O O8 0.045310 0.015420 0.092081
O O9 0.693099 0.015483 0.857292
O O10 0.572822 0.171804 0.948009
O O11 0.647008 0.114878 0.028912
O O12 0.635995 0.436319 0.743630
O O13 0.000000 0.128494 0.250000
O O14 0.986180 0.183369 0.099364
O O15 0.250000 0.250000 0.500000
#
# Coordination Sequence:
#
# PCOD9259393 Si02
#       7
#     8   8   8   8   8   8   8
#     4  10  20  36  55  82 113 148 191 227 287 340
#     4  10  18  35  56  86 110 141 190 238 288 336
#     4  11  19  36  57  80 120 148 184 234 286 336
#     4  10  20  36  57  80 114 151 182 235 288 336
#     4  11  21  36  57  86 111 143 201 241 274 328
#     4  11  21  35  58  79 114 153 188 230 286 341
#     4   9  17  33  52  84 117 138 173 237 285 337
#
# _framework density 17.89226
#
# number of rings (size 3 to 8) (size 9 to 14) (size 15 to 20)
#    0.000    1.714    5.714    4.286    0.000    2.286 
#    0.000    0.714    6.286    0.000    0.000    0.000 
#    0.000    0.000    0.000    0.000    0.000    0.000 
#
# Total GULP energy -156191.536054 kJ/mol
# GULP energy per Si atom -5578.269145 kJ/mol
# Density = 1.785154 g / cm^3
# Si number density = 17.892260 Si / 1000 Ang^3
#
#
#
# Elastic Constant Matrix: (Units=GPa)
#
#
# Indices 1 2 3 4 5 6 
#
# 1 64.7774 25.8004 21.6567 0.0000 19.2613 0.0000
# 2 25.8004 32.8637 4.6924 0.0000 11.1452 0.0000
# 3 21.6567 4.6924 44.5151 0.0000 1.2181 0.0000
# 4 0.0000 0.0000 0.0000 34.2121 0.0000 -9.4865
# 5 19.2613 11.1452 1.2181 0.0000 22.7012 0.0000
# 6 0.0000 0.0000 0.0000 -9.4865 0.0000 17.4065
#
#
#
# Elastic Compliance Matrix: (Units=1/GPa)
#
#
# Indices 1 2 3 4 5 6 
#
# 1 0.032110 -0.017169 -0.013316 0.000000 -0.018101 0.000000
# 2 -0.017169 0.046196 0.003710 0.000000 -0.008312 0.000000
# 3 -0.013316 0.003710 0.028334 0.000000 0.007957 0.000000
# 4 0.000000 0.000000 0.000000 0.034433 0.000000 0.018766
# 5 -0.018101 -0.008312 0.007957 0.000000 0.063062 0.000000
# 6 0.000000 0.000000 0.000000 0.018766 0.000000 0.067677
#
#
# Mechanical properties :
#
#
# Convention : Reuss Voigt Hill
#
# Bulk Modulus (GPa) = 18.83560 27.38392 23.10976
# Shear Modulus (GPa) = 14.57477 20.86443 17.71960
#
# Velocity S-wave (km/s) = 2.85719 3.41855 3.15040
# Velocity P-wave (km/s) = 4.62977 5.56058 5.11639
#
# Compressibility (1/GPa) = 0.05309095
#
# Stress axis : x y z
#
# Youngs Moduli (GPa) = 31.14317 21.64668 35.29342
#
# Poissons Ratio (x) = 0.37164 0.46998
# Poissons Ratio (y) = 0.53468 -0.13095
# Poissons Ratio (z) = 0.41471 -0.08032
#
# Static dielectric constant tensor:
#      x y z
#    x 1.626270 0.000000 0.001120 
#    y 0.000000 1.610580 0.000000 
#    z 0.001120 0.000000 1.625110 
# 
# From -- ./inp_files/162183.got.cif
#   From: 2010.05.17/outbox.cif.g08.bks.cpg/sg15_82_cif.got.tgz:162183.got - 2010.06.03 18:47:42.
