data_PCOD9259750
_publ_section_title
;
Structure prediction by ZEFSAII (Michael W. Deem and Ramdas Pophale) SiO2 
 PCOD9259750
Probable space group: C 2/C
;
_chemical_formula_sum "Si O2"
_cell_formula_units_Z 48
_cell_length_a 20.891207
_cell_length_b 9.748208
_cell_length_c 20.561829
_cell_angle_alpha 90.000000
_cell_angle_beta 38.882213
_cell_angle_gamma 90.000000
_cell_volume 2628.554686
_symmetry_space_group_name_H-M "C 2/C"
_symmetry_group_IT_number 15
_symmetry_cell_setting 'monoclinic'
loop_
_space_group_symop_operation_xyz
x,y,z
-x,y,1/2-z
-x,-y,-z
x,-y,1/2+z
1/2+x,1/2+y,z
1/2-x,1/2+y,1/2-z
1/2-x,1/2-y,-z
1/2+x,1/2-y,1/2+z
loop_
_atom_site_type_symbol
_atom_site_label
_atom_site_fract_x
_atom_site_fract_y
_atom_site_fract_z
Si Si1 0.070112 0.542586 0.883451
Si Si2 0.105092 0.084428 0.492020
Si Si3 0.943954 0.726652 0.182241
Si Si4 0.277574 0.246442 0.403620
Si Si5 0.553154 0.355871 0.882357
Si Si6 0.218250 0.937062 0.211531
O O1 0.052194 0.427332 0.844191
O O2 0.045285 0.694771 0.878527
O O3 0.186847 0.543562 0.816529
O O4 0.000000 0.500000 0.000000
O O5 0.221974 0.114859 0.415248
O O6 0.083105 0.122979 0.434629
O O7 0.045459 0.191672 0.585478
O O8 0.052202 0.938188 0.545438
O O9 0.896686 0.738805 0.291258
O O10 0.856954 0.810582 0.209041
O O11 0.250000 0.250000 0.500000
O O12 0.243680 0.381463 0.388818
O O13 0.643246 0.432350 0.771307
#
# Coordination Sequence:
#
# PCOD9259750 Si02
#       6
#     8   8   8   8   8   8
#     4  12  18  30  52  85 115 136 171 223 289 342
#     4  10  18  36  52  83 107 138 177 220 283 324
#     4   9  20  33  52  82 105 139 183 216 280 319
#     4  10  20  36  56  79 104 144 192 229 252 324
#     4  10  19  32  55  77 120 134 168 236 282 333
#     4   9  19  34  48  81 104 141 180 221 277 320
#
# _framework density 18.260985999999999
#
# number of rings (size 3 to 8) (size 9 to 14) (size 15 to 20)
#    1.000    1.000    3.333    2.000    0.000    0.667 
#    3.000    0.000    0.000    1.000    8.667    0.000 
#    0.000    0.000    0.000    0.000    0.000    0.000 
#
# Total GULP energy -133620.951844 kJ/mol
# GULP energy per Si atom -5567.539660 kJ/mol
# Density = 1.821942 g / cm^3
# Si number density = 18.260986 Si / 1000 Ang^3
#
#
#
# Elastic Constant Matrix: (Units=GPa)
#
#
# Indices 1 2 3 4 5 6 
#
# 1 29.7188 6.0414 6.8180 0.0000 -0.3613 0.0000
# 2 6.0414 136.8346 16.3608 0.0000 1.8388 0.0000
# 3 6.8180 16.3608 69.6404 0.0000 10.6428 0.0000
# 4 0.0000 0.0000 0.0000 23.5329 0.0000 -3.5582
# 5 -0.3613 1.8388 10.6428 0.0000 35.0476 0.0000
# 6 0.0000 0.0000 0.0000 -3.5582 0.0000 10.7915
#
#
#
# Elastic Compliance Matrix: (Units=1/GPa)
#
#
# Indices 1 2 3 4 5 6 
#
# 1 0.034667 -0.001150 -0.003343 0.000000 0.001433 0.000000
# 2 -0.001150 0.007558 -0.001679 0.000000 0.000101 0.000000
# 3 -0.003343 -0.001679 0.015806 0.000000 -0.004746 0.000000
# 4 0.000000 0.000000 0.000000 0.044723 0.000000 0.014746
# 5 0.001433 0.000101 -0.004746 0.000000 0.029983 0.000000
# 6 0.000000 0.000000 0.000000 0.014746 0.000000 0.097528
#
#
# Mechanical properties :
#
#
# Convention : Reuss Voigt Hill
#
# Bulk Modulus (GPa) = 21.88729 32.73714 27.31221
# Shear Modulus (GPa) = 19.39198 27.67264 23.53231
#
# Velocity S-wave (km/s) = 3.26227 3.89703 3.59369
# Velocity P-wave (km/s) = 5.11876 6.18186 5.67526
#
# Compressibility (1/GPa) = 0.04568862
#
# Stress axis : x y z
#
# Youngs Moduli (GPa) = 28.84600 132.30648 63.26530
#
# Poissons Ratio (x) = 0.15217 0.21148
# Poissons Ratio (y) = 0.03318 0.10619
# Poissons Ratio (z) = 0.09642 0.22208
#
# Static dielectric constant tensor:
#      x y z
#    x 1.638850 0.000000 -0.025560 
#    y 0.000000 1.626050 0.000000 
#    z -0.025560 0.000000 1.693330 
# 
# From -- ./inp_files/281337.got.cif
#   From: 2010.05.17/outbox.cif.g08.bks.cpg/sg15_141_cif.got.tgz:281337.got - 2010.06.03 18:47:42.
