data_PCOD9259235
_publ_section_title
;
Structure prediction by ZEFSAII (Michael W. Deem and Ramdas Pophale) SiO2 
 PCOD9259235
Probable space group: C 2/C
;
_chemical_formula_sum "Si O2"
_cell_formula_units_Z 40
_cell_length_a 12.950962
_cell_length_b 9.865243
_cell_length_c 11.717091
_cell_angle_alpha 90.000000
_cell_angle_beta 72.232485
_cell_angle_gamma 90.000000
_cell_volume 1425.622598
_symmetry_space_group_name_H-M "C 2/C"
_symmetry_group_IT_number 15
_symmetry_cell_setting 'monoclinic'
loop_
_space_group_symop_operation_xyz
x,y,z
-x,y,1/2-z
-x,-y,-z
x,-y,1/2+z
1/2+x,1/2+y,z
1/2-x,1/2+y,1/2-z
1/2-x,1/2-y,-z
1/2+x,1/2-y,1/2+z
loop_
_atom_site_type_symbol
_atom_site_label
_atom_site_fract_x
_atom_site_fract_y
_atom_site_fract_z
Si Si1 0.167165 0.369527 0.655224
Si Si2 0.370144 0.532849 0.048882
Si Si3 0.869908 0.951347 0.796449
Si Si4 0.107512 0.672489 0.639666
Si Si5 0.030993 0.642728 0.428076
O O1 0.293157 0.333086 0.600688
O O2 0.166907 0.529534 0.617368
O O3 0.119408 0.370807 0.799047
O O4 0.074400 0.306435 0.605432
O O5 0.345785 0.472105 0.186724
O O6 0.500000 0.500000 0.000000
O O7 0.339652 0.515520 0.925998
O O8 0.830636 0.796231 0.824496
O O9 0.000000 0.936112 0.750000
O O10 0.074429 0.722015 0.523593
O O11 0.000000 0.645143 0.750000
O O12 0.000000 0.500000 0.500000
#
# Coordination Sequence:
#
# PCOD9259235 Si02
#       5
#     8   8   8   8   8
#     4  10  19  33  61  85 124 153 189 245 310 362
#     4  10  22  40  59  85 120 169 206 239 293 359
#     4   9  21  39  63  81 118 162 209 248 290 359
#     4  10  18  34  62  92 116 149 200 251 307 360
#     4   9  17  33  55  92 119 147 185 243 314 357
#
# _framework density 28.057918000000001
#
# number of rings (size 3 to 8) (size 9 to 14) (size 15 to 20)
#    0.000    2.400    4.000    0.000    5.600    0.800 
#    0.000    0.000   30.800   12.000    0.000    0.000 
#    0.000    0.000    0.000    0.000    0.000    0.000 
#
# Total GULP energy -111382.996972 kJ/mol
# GULP energy per Si atom -5569.149849 kJ/mol
# Density = 2.799406 g / cm^3
# Si number density = 28.057918 Si / 1000 Ang^3
#
#
#
# Elastic Constant Matrix: (Units=GPa)
#
#
# Indices 1 2 3 4 5 6 
#
# 1 154.4531 5.0306 85.8797 0.0000 -2.4593 0.0000
# 2 5.0306 79.6725 35.5098 0.0000 0.5464 0.0000
# 3 85.8797 35.5098 340.4389 0.0000 12.8740 0.0000
# 4 0.0000 0.0000 0.0000 33.3401 0.0000 2.1114
# 5 -2.4593 0.5464 12.8740 0.0000 71.6312 0.0000
# 6 0.0000 0.0000 0.0000 2.1114 0.0000 26.5381
#
#
#
# Elastic Compliance Matrix: (Units=1/GPa)
#
#
# Indices 1 2 3 4 5 6 
#
# 1 0.007569 0.000398 -0.001974 0.000000 0.000612 0.000000
# 2 0.000398 0.013186 -0.001482 0.000000 0.000180 0.000000
# 3 -0.001974 -0.001482 0.003617 0.000000 -0.000706 0.000000
# 4 0.000000 0.000000 0.000000 0.030146 0.000000 -0.002398
# 5 0.000612 0.000180 -0.000706 0.000000 0.014107 0.000000
# 6 0.000000 0.000000 0.000000 -0.002398 0.000000 0.037872
#
#
# Mechanical properties :
#
#
# Convention : Reuss Voigt Hill
#
# Bulk Modulus (GPa) = 54.78308 91.93386 73.35847
# Shear Modulus (GPa) = 42.12353 56.17818 49.15085
#
# Velocity S-wave (km/s) = 3.87887 4.47947 4.18995
# Velocity P-wave (km/s) = 6.29510 7.71953 7.04341
#
# Compressibility (1/GPa) = 0.01825381
#
# Stress axis : x y z
#
# Youngs Moduli (GPa) = 132.12141 75.83939 276.49698
#
# Poissons Ratio (x) = -0.03016 0.54578
# Poissons Ratio (y) = -0.05254 0.40990
# Poissons Ratio (z) = 0.26080 0.11243
#
# Static dielectric constant tensor:
#      x y z
#    x 2.580230 0.000000 0.068580 
#    y 0.000000 2.342770 0.000000 
#    z 0.068580 0.000000 2.145200 
# 
# From -- ./inp_files/95586.got.cif
#   From: 2010.05.17/outbox.cif.g08.bks.cpg/sg15_48_cif.got.tgz:95586.got - 2010.06.03 18:47:42.
