data_PCOD9259976
_publ_section_title
;
Structure prediction by ZEFSAII (Michael W. Deem and Ramdas Pophale) SiO2 
 PCOD9259976
Probable space group: C 2/C
;
_chemical_formula_sum "Si O2"
_cell_formula_units_Z 60
_cell_length_a 14.699705
_cell_length_b 15.993198
_cell_length_c 13.189003
_cell_angle_alpha 90.000000
_cell_angle_beta 118.931367
_cell_angle_gamma 90.000000
_cell_volume 2713.708029
_symmetry_space_group_name_H-M "C 2/C"
_symmetry_group_IT_number 15
_symmetry_cell_setting 'monoclinic'
loop_
_space_group_symop_operation_xyz
x,y,z
-x,y,1/2-z
-x,-y,-z
x,-y,1/2+z
1/2+x,1/2+y,z
1/2-x,1/2+y,1/2-z
1/2-x,1/2-y,-z
1/2+x,1/2-y,1/2+z
loop_
_atom_site_type_symbol
_atom_site_label
_atom_site_fract_x
_atom_site_fract_y
_atom_site_fract_z
Si Si1 0.888168 0.050630 0.142339
Si Si2 0.789109 0.403942 0.805382
Si Si3 0.465917 0.696729 0.054512
Si Si4 0.186146 0.213757 0.719836
Si Si5 0.500000 0.669525 0.750000
Si Si6 0.070813 0.071405 0.986298
Si Si7 0.841713 0.567778 0.734673
Si Si8 0.560106 0.114963 0.923193
O O1 0.806828 0.057000 0.186398
O O2 0.908045 0.141113 0.105852
O O3 0.000000 0.027542 0.250000
O O4 0.850138 0.988236 0.032698
O O5 0.770954 0.308060 0.763731
O O6 0.805157 0.471676 0.725434
O O7 0.881746 0.400872 0.939434
O O8 0.480379 0.789356 0.101801
O O9 0.386938 0.703862 0.918127
O O10 0.565924 0.644578 0.067784
O O11 0.267122 0.136138 0.751403
O O12 0.108668 0.212799 0.775585
O O13 0.524307 0.618758 0.864309
O O14 0.000000 0.000000 0.000000
O O15 0.863918 0.597768 0.631435
O O16 0.954475 0.564817 0.849499
#
# Coordination Sequence:
#
# PCOD9259976 Si02
#       8
#     8   8   8   8   4   8   8   8
#     4  11  21  33  60  93 128 162 211 267 330 388
#     4  11  24  42  63  94 131 170 214 267 327 383
#     4   9  20  37  61  87 126 163 204 266 330 376
#     4  10  22  40  64  93 125 171 216 260 329 386
#     4  10  18  36  60  82 128 162 204 258 316 390
#     4   9  18  33  54  90 121 161 195 255 328 377
#     4  11  23  40  69  93 125 170 222 265 312 391
#     4  10  23  43  63  91 127 170 219 268 309 374
#
# _framework density 22.109967000000001
#
# number of rings (size 3 to 8) (size 9 to 14) (size 15 to 20)
#    0.000    1.867    0.667    2.800    5.600    3.200 
#    2.400    1.333    0.000    8.800    0.000    0.000 
#    0.000    0.000    0.000    0.000    0.000    0.000 
#
# Total GULP energy -167128.805449 kJ/mol
# GULP energy per Si atom -5570.960182 kJ/mol
# Density = 2.205964 g / cm^3
# Si number density = 22.109967 Si / 1000 Ang^3
#
#
#
# Elastic Constant Matrix: (Units=GPa)
#
#
# Indices 1 2 3 4 5 6 
#
# 1 85.3292 24.8751 16.8890 0.0000 -10.2944 0.0000
# 2 24.8751 106.3873 16.4711 0.0000 -14.3978 0.0000
# 3 16.8890 16.4711 77.6876 0.0000 -0.8360 0.0000
# 4 0.0000 0.0000 0.0000 27.4668 0.0000 -7.2227
# 5 -10.2944 -14.3978 -0.8360 0.0000 33.6651 0.0000
# 6 0.0000 0.0000 0.0000 -7.2227 0.0000 -198.2421
#
#
#
# Elastic Compliance Matrix: (Units=1/GPa)
#
#
# Indices 1 2 3 4 5 6 
#
# 1 0.013222 -0.002323 -0.002350 0.000000 0.002991 0.000000
# 2 -0.002323 0.010729 -0.001729 0.000000 0.003835 0.000000
# 3 -0.002350 -0.001729 0.013737 0.000000 -0.001117 0.000000
# 4 0.000000 0.000000 0.000000 0.036062 0.000000 -0.001314
# 5 0.002991 0.003835 -0.001117 0.000000 0.032232 0.000000
# 6 0.000000 0.000000 0.000000 -0.001314 0.000000 -0.004996
#
#
# Mechanical properties :
#
#
# Convention : Reuss Voigt Hill
#
# Bulk Modulus (GPa) = 40.18223 42.87495 41.52859
# Shear Modulus (GPa) = 40.95511 -13.34410 13.80550
#
# Velocity S-wave (km/s) = 4.30855 -2.45936 2.50151
# Velocity P-wave (km/s) = 6.55475 3.37182 5.21219
#
# Compressibility (1/GPa) = 0.02488662
#
# Stress axis : x y z
#
# Youngs Moduli (GPa) = 75.62870 93.20130 72.79417
#
# Poissons Ratio (x) = 0.21651 0.17105
# Poissons Ratio (y) = 0.17568 0.12583
# Poissons Ratio (z) = 0.17771 0.16110
#
# Static dielectric constant tensor:
#      x y z
#    x 1.878790 0.000000 0.029610 
#    y 0.000000 1.789100 0.000000 
#    z 0.029610 0.000000 1.861630 
# 
# From -- ./inp_files/154029.got.cif
#   From: 2010.05.17/outbox.cif.g08.bks.cpg/sg15_78_cif.got.tgz:154029.got - 2010.06.03 18:47:42.
