data_PCOD9259028
_publ_section_title
;
Structure prediction by ZEFSAII (Michael W. Deem and Ramdas Pophale) SiO2 
 PCOD9259028
Probable space group: C 2/C
;
_chemical_formula_sum "Si O2"
_cell_formula_units_Z 52
_cell_length_a 19.430637
_cell_length_b 14.337134
_cell_length_c 23.798355
_cell_angle_alpha 90.000000
_cell_angle_beta 17.619307
_cell_angle_gamma 90.000000
_cell_volume 2006.762289
_symmetry_space_group_name_H-M "C 2/C"
_symmetry_group_IT_number 15
_symmetry_cell_setting 'monoclinic'
loop_
_space_group_symop_operation_xyz
x,y,z
-x,y,1/2-z
-x,-y,-z
x,-y,1/2+z
1/2+x,1/2+y,z
1/2-x,1/2+y,1/2-z
1/2-x,1/2-y,-z
1/2+x,1/2-y,1/2+z
loop_
_atom_site_type_symbol
_atom_site_label
_atom_site_fract_x
_atom_site_fract_y
_atom_site_fract_z
Si Si1 0.419294 0.619449 0.092492
Si Si2 0.663211 0.873236 0.956029
Si Si3 0.443733 0.054006 0.420386
Si Si4 0.237697 0.822250 0.240781
Si Si5 0.500000 0.085705 0.250000
Si Si6 0.137000 0.330349 0.200381
Si Si7 0.348654 0.735431 0.983882
O O1 0.308434 0.716080 0.199228
O O2 0.207844 0.552101 0.239582
O O3 0.564643 0.640917 0.922828
O O4 0.626796 0.609921 0.976622
O O5 0.475534 0.874185 0.052675
O O6 0.514529 0.853121 0.127747
O O7 0.724070 0.980391 0.918657
O O8 0.817187 0.782073 0.831303
O O9 0.426667 0.036197 0.365364
O O10 0.371094 0.159885 0.487636
O O11 0.092806 0.811467 0.298056
O O12 0.315953 0.155781 0.365260
O O13 0.000000 0.346910 0.250000
O O14 0.250000 0.750000 0.000000
#
# Coordination Sequence:
#
# PCOD9259028 Si02
#       7
#     8   8   8   8   4   8   8
#     4   9  18  34  58  80 115 154 197 241 294 359
#     4  10  22  38  62  85 119 161 202 251 295 362
#     4  10  20  35  57  91 117 154 205 250 292 362
#     4   9  17  33  54  81 112 155 194 230 300 360
#     4  10  18  34  58  86 120 154 196 244 310 360
#     4  10  21  39  61  85 118 164 202 246 311 354
#     4   9  18  33  55  82 118 154 188 241 309 356
#
# _framework density 25.912385
#
# number of rings (size 3 to 8) (size 9 to 14) (size 15 to 20)
#    0.000    2.462    1.538    0.462    1.077    2.462 
#    1.385    0.000    0.000   48.923    0.000    0.000 
#    0.000    0.000    0.000    0.000    0.000    0.000 
#
# Total GULP energy -144930.649029 kJ/mol
# GULP energy per Si atom -5574.255732 kJ/mol
# Density = 2.585341 g / cm^3
# Si number density = 25.912385 Si / 1000 Ang^3
#
#
#
# Elastic Constant Matrix: (Units=GPa)
#
#
# Indices 1 2 3 4 5 6 
#
# 1 124.3126 9.5196 45.4397 0.0107 -40.5040 0.0104
# 2 9.5196 118.6728 14.0678 -0.0744 -2.1484 -0.0043
# 3 45.4397 14.0678 42.8466 -0.1384 -12.7838 0.0048
# 4 0.0107 -0.0744 -0.1384 26.1599 0.0321 8.6046
# 5 -40.5040 -2.1484 -12.7838 0.0321 44.9569 -0.0023
# 6 0.0104 -0.0043 0.0048 8.6046 -0.0023 33.5926
#
#
#
# Elastic Compliance Matrix: (Units=1/GPa)
#
#
# Indices 1 2 3 4 5 6 
#
# 1 0.017144 0.000610 -0.015041 -0.000107 0.011198 0.000025
# 2 0.000610 0.008797 -0.003547 0.000006 -0.000038 0.000000
# 3 -0.015041 -0.003547 0.039733 0.000229 -0.002423 -0.000060
# 4 -0.000107 0.000006 0.000229 0.041745 -0.000061 -0.010693
# 5 0.011198 -0.000038 -0.002423 -0.000061 0.031642 0.000015
# 6 0.000025 0.000000 -0.000060 -0.010693 0.000015 0.032507
#
#
# Mechanical properties :
#
#
# Convention : Reuss Voigt Hill
#
# Bulk Modulus (GPa) = 33.64904 47.09846 40.37375
# Shear Modulus (GPa) = 22.99571 35.39553 29.19562
#
# Velocity S-wave (km/s) = 2.98223 3.69991 3.36028
# Velocity P-wave (km/s) = 4.98720 6.03887 5.53805
#
# Compressibility (1/GPa) = 0.02971853
#
# Stress axis : x y z
#
# Youngs Moduli (GPa) = 58.32876 113.67038 25.16773
#
# Poissons Ratio (x) = -0.06939 0.37856
# Poissons Ratio (y) = -0.03561 0.08928
# Poissons Ratio (z) = 0.87735 0.40321
#
# Static dielectric constant tensor:
#      x y z
#    x 2.373700 -0.000110 0.059800 
#    y -0.000110 2.090010 0.000070 
#    z 0.059800 0.000070 2.178320 
# 
# From -- ./inp_files/301129.got.cif
#   From: 2010.05.17/outbox.cif.g08.bks.cpg/sg15_151_cif.got.tgz:301129.got - 2010.06.03 18:47:42.
