data_PCOD9259334
_publ_section_title
;
Structure prediction by ZEFSAII (Michael W. Deem and Ramdas Pophale) SiO2 
 PCOD9259334
Probable space group: C 2/C
;
_chemical_formula_sum "Si O2"
_cell_formula_units_Z 56
_cell_length_a 23.108039
_cell_length_b 19.861414
_cell_length_c 9.445528
_cell_angle_alpha 90.000000
_cell_angle_beta 49.985013
_cell_angle_gamma 90.000000
_cell_volume 3320.153140
_symmetry_space_group_name_H-M "C 2/C"
_symmetry_group_IT_number 15
_symmetry_cell_setting 'monoclinic'
loop_
_space_group_symop_operation_xyz
x,y,z
-x,y,1/2-z
-x,-y,-z
x,-y,1/2+z
1/2+x,1/2+y,z
1/2-x,1/2+y,1/2-z
1/2-x,1/2-y,-z
1/2+x,1/2-y,1/2+z
loop_
_atom_site_type_symbol
_atom_site_label
_atom_site_fract_x
_atom_site_fract_y
_atom_site_fract_z
Si Si1 0.164434 0.337034 0.975456
Si Si2 0.232245 0.845833 0.413496
Si Si3 0.574088 0.289572 0.712143
Si Si4 0.083878 0.473171 0.181229
Si Si5 0.133319 0.579842 0.898732
Si Si6 0.929915 0.732420 0.467519
Si Si7 0.269881 0.731340 0.126275
O O1 0.218773 0.330799 0.755817
O O2 0.218939 0.326168 0.025445
O O3 0.102480 0.278039 0.085239
O O4 0.125766 0.408632 0.049246
O O5 0.144521 0.841556 0.593510
O O6 0.278557 0.910164 0.282624
O O7 0.243166 0.790391 0.274571
O O8 0.500000 0.315435 0.750000
O O9 0.557021 0.265716 0.899220
O O10 0.092120 0.460812 0.336385
O O11 0.000000 0.474010 0.250000
O O12 0.122526 0.540659 0.061720
O O13 0.096479 0.654555 0.966617
O O14 0.859071 0.771999 0.510577
O O15 0.000000 0.733718 0.250000
O O16 0.250000 0.750000 0.000000
#
# Coordination Sequence:
#
# PCOD9259334 Si02
#       7
#     8   8   8   8   8   8   8
#     4  10  18  35  53  67 104 147 175 203 249 319
#     4   9  18  37  53  68 103 141 175 210 258 312
#     4  11  19  33  56  79  99 139 177 209 263 322
#     4  11  21  33  51  76 104 138 181 209 245 304
#     4  10  22  36  51  71 106 147 171 214 251 301
#     4  11  22  34  48  77 112 134 169 221 265 298
#     4  10  19  30  49  74 100 135 172 215 258 303
#
# _framework density 16.866693000000001
#
# number of rings (size 3 to 8) (size 9 to 14) (size 15 to 20)
#    0.000    1.714    5.714    2.143    4.000    2.286 
#    0.000    0.000    0.000    0.000    0.000    5.000 
#    0.000    0.000    0.000    0.000    0.000    0.000 
#
# Total GULP energy -156033.312326 kJ/mol
# GULP energy per Si atom -5572.618297 kJ/mol
# Density = 1.682830 g / cm^3
# Si number density = 16.866693 Si / 1000 Ang^3
#
#
#
# Elastic Constant Matrix: (Units=GPa)
#
#
# Indices 1 2 3 4 5 6 
#
# 1 61.5399 14.2476 41.2282 0.0000 -10.9768 0.0000
# 2 14.2476 26.2923 19.8560 0.0000 -2.5682 0.0000
# 3 41.2282 19.8560 121.5407 0.0000 -7.5144 0.0000
# 4 0.0000 0.0000 0.0000 29.0161 0.0000 -2.5913
# 5 -10.9768 -2.5682 -7.5144 0.0000 20.2692 0.0000
# 6 0.0000 0.0000 0.0000 -2.5913 0.0000 7.8223
#
#
#
# Elastic Compliance Matrix: (Units=1/GPa)
#
#
# Indices 1 2 3 4 5 6 
#
# 1 0.023884 -0.007222 -0.006324 0.000000 0.009675 0.000000
# 2 -0.007222 0.045742 -0.005022 0.000000 0.000023 0.000000
# 3 -0.006324 -0.005022 0.011199 0.000000 0.000091 0.000000
# 4 0.000000 0.000000 0.000000 0.035514 0.000000 0.011765
# 5 0.009675 0.000023 0.000091 0.000000 0.054612 0.000000
# 6 0.000000 0.000000 0.000000 0.011765 0.000000 0.131737
#
#
# Mechanical properties :
#
#
# Convention : Reuss Voigt Hill
#
# Bulk Modulus (GPa) = 22.88840 40.00406 31.44623
# Shear Modulus (GPa) = 14.10894 20.35760 17.23327
#
# Velocity S-wave (km/s) = 2.89536 3.47792 3.19993
# Velocity P-wave (km/s) = 4.97766 6.31642 5.68658
#
# Compressibility (1/GPa) = 0.04369026
#
# Stress axis : x y z
#
# Youngs Moduli (GPa) = 41.86938 21.86172 89.29533
#
# Poissons Ratio (x) = 0.15788 0.56468
# Poissons Ratio (y) = 0.30237 0.44841
# Poissons Ratio (z) = 0.26477 0.10978
#
# Static dielectric constant tensor:
#      x y z
#    x 1.581190 0.000000 0.003410 
#    y 0.000000 1.574860 0.000000 
#    z 0.003410 0.000000 1.662820 
# 
# From -- ./inp_files/58442.got.cif
#   From: 2010.05.17/outbox.cif.g08.bks.cpg/sg15_30_cif.got.tgz:58442.got - 2010.06.03 18:47:42.
