data_PCOD9259894
_publ_section_title
;
Structure prediction by ZEFSAII (Michael W. Deem and Ramdas Pophale) SiO2 
 PCOD9259894
Probable space group: C 2/C
;
_chemical_formula_sum "Si O2"
_cell_formula_units_Z 44
_cell_length_a 11.147823
_cell_length_b 12.280131
_cell_length_c 20.982613
_cell_angle_alpha 90.000000
_cell_angle_beta 36.471137
_cell_angle_gamma 90.000000
_cell_volume 1707.435927
_symmetry_space_group_name_H-M "C 2/C"
_symmetry_group_IT_number 15
_symmetry_cell_setting 'monoclinic'
loop_
_space_group_symop_operation_xyz
x,y,z
-x,y,1/2-z
-x,-y,-z
x,-y,1/2+z
1/2+x,1/2+y,z
1/2-x,1/2+y,1/2-z
1/2-x,1/2-y,-z
1/2+x,1/2-y,1/2+z
loop_
_atom_site_type_symbol
_atom_site_label
_atom_site_fract_x
_atom_site_fract_y
_atom_site_fract_z
Si Si1 0.243167 0.876847 0.489851
Si Si2 0.268935 0.036757 0.583727
Si Si3 0.234144 0.657454 0.143248
Si Si4 0.198306 0.639345 0.805781
Si Si5 0.750000 0.750000 0.500000
Si Si6 0.765038 0.406769 0.341416
O O1 0.250000 0.750000 0.500000
O O2 0.479943 0.912178 0.383893
O O3 0.157758 0.890090 0.455046
O O4 0.166671 0.944839 0.583065
O O5 0.196892 0.064856 0.686264
O O6 0.271940 0.147629 0.541743
O O7 0.500000 0.000000 0.500000
O O8 0.336499 0.744763 0.146078
O O9 0.244238 0.535405 0.165719
O O10 0.000000 0.690861 0.250000
O O11 0.273160 0.664654 0.051416
O O12 0.311172 0.652485 0.690064
O O13 0.000000 0.370522 0.250000
#
# Coordination Sequence:
#
# PCOD9259894 Si02
#       6
#     8   8   8   8   4   8
#     4  10  19  35  56  83 113 153 182 232 299 350
#     4   9  18  33  57  81 111 153 192 242 290 351
#     4  10  20  36  60  81 112 151 189 249 292 333
#     4   9  20  36  54  83 111 142 199 233 281 359
#     4  10  18  36  58  86 112 148 212 246 276 366
#     4   9  18  35  56  78 109 148 193 228 284 354
#
# _framework density 25.769634
#
# number of rings (size 3 to 8) (size 9 to 14) (size 15 to 20)
#    0.000    2.545    1.818    0.000    2.545    1.455 
#    6.545    4.545    0.000    1.091    0.000    0.000 
#    0.000    0.000    0.000    0.000    0.000    0.000 
#
# Total GULP energy -122481.820671 kJ/mol
# GULP energy per Si atom -5567.355485 kJ/mol
# Density = 2.571098 g / cm^3
# Si number density = 25.769634 Si / 1000 Ang^3
#
#
#
# Elastic Constant Matrix: (Units=GPa)
#
#
# Indices 1 2 3 4 5 6 
#
# 1 129.8204 17.9479 64.8994 -0.0001 44.9852 0.0001
# 2 17.9479 98.6708 21.3334 -0.0002 42.0248 0.0002
# 3 64.8994 21.3334 121.4933 -0.0006 60.1552 0.0003
# 4 -0.0001 -0.0002 -0.0006 35.4978 0.0001 15.4032
# 5 44.9852 42.0248 60.1552 0.0001 82.0070 0.0000
# 6 0.0001 0.0002 0.0003 15.4032 0.0000 29.1500
#
#
#
# Elastic Compliance Matrix: (Units=1/GPa)
#
#
# Indices 1 2 3 4 5 6 
#
# 1 0.010873 0.000170 -0.004462 0.000000 -0.002778 0.000000
# 2 0.000170 0.013166 0.001545 0.000000 -0.007974 0.000000
# 3 -0.004462 0.001545 0.014955 0.000000 -0.009314 0.000000
# 4 0.000000 0.000000 0.000000 0.036552 0.000000 -0.019314
# 5 -0.002778 -0.007974 -0.009314 0.000000 0.024637 0.000000
# 6 0.000000 0.000000 0.000000 -0.019314 0.000000 0.044511
#
#
# Mechanical properties :
#
#
# Convention : Reuss Voigt Hill
#
# Bulk Modulus (GPa) = 29.85058 62.03842 45.94450
# Shear Modulus (GPa) = 30.98788 45.71789 38.35289
#
# Velocity S-wave (km/s) = 3.47146 4.21658 3.86203
# Velocity P-wave (km/s) = 5.26088 6.91611 6.14448
#
# Compressibility (1/GPa) = 0.03350019
#
# Stress axis : x y z
#
# Youngs Moduli (GPa) = 91.97113 75.95475 66.86740
#
# Poissons Ratio (x) = -0.01294 0.29839
# Poissons Ratio (y) = -0.01567 -0.10333
# Poissons Ratio (z) = 0.41041 -0.11737
#
# Static dielectric constant tensor:
#      x y z
#    x 2.267130 0.000000 -0.080310 
#    y 0.000000 1.973440 0.000000 
#    z -0.080310 0.000000 2.133610 
# 
# From -- ./inp_files/151336.got.cif
#   From: 2010.05.17/outbox.cif.g08.bks.cpg/sg15_76_cif.got.tgz:151336.got - 2010.06.03 18:47:42.
