data_PCOD9259853
_publ_section_title
;
Structure prediction by ZEFSAII (Michael W. Deem and Ramdas Pophale) SiO2 
 PCOD9259853
Probable space group: C 2/C
;
_chemical_formula_sum "Si O2"
_cell_formula_units_Z 60
_cell_length_a 13.165849
_cell_length_b 20.413612
_cell_length_c 12.225566
_cell_angle_alpha 90.000000
_cell_angle_beta 113.041769
_cell_angle_gamma 90.000000
_cell_volume 3023.634253
_symmetry_space_group_name_H-M "C 2/C"
_symmetry_group_IT_number 15
_symmetry_cell_setting 'monoclinic'
loop_
_space_group_symop_operation_xyz
x,y,z
-x,y,1/2-z
-x,-y,-z
x,-y,1/2+z
1/2+x,1/2+y,z
1/2-x,1/2+y,1/2-z
1/2-x,1/2-y,-z
1/2+x,1/2-y,1/2+z
loop_
_atom_site_type_symbol
_atom_site_label
_atom_site_fract_x
_atom_site_fract_y
_atom_site_fract_z
Si Si1 0.943356 0.770229 0.068220
Si Si2 0.420676 0.112694 0.068123
Si Si3 0.829837 0.418456 0.763696
Si Si4 0.169177 0.184970 0.780815
Si Si5 0.308425 0.065109 0.798442
Si Si6 0.500000 0.873042 0.250000
Si Si7 0.069007 0.255637 0.425962
Si Si8 0.232014 0.210206 0.321335
O O1 0.925993 0.692017 0.071478
O O2 0.847160 0.806162 0.095699
O O3 0.055232 0.791810 0.178121
O O4 0.975066 0.781529 0.955329
O O5 0.546438 0.088534 0.134886
O O6 0.350088 0.090418 0.143094
O O7 0.369733 0.082850 0.937418
O O8 0.783535 0.489100 0.775341
O O9 0.757202 0.359594 0.780220
O O10 0.203803 0.113269 0.756931
O O11 0.259326 0.234476 0.768932
O O12 0.393923 0.084850 0.738310
O O13 0.526518 0.824458 0.361180
O O14 0.122765 0.217257 0.347567
O O15 0.167828 0.272708 0.552107
#
# Coordination Sequence:
#
# PCOD9259853 Si02
#       8
#     8   8   8   8   8   4   8   8
#     4  10  18  38  63  83 108 155 197 244 283 339
#     4  11  20  38  59  85 117 155 184 231 301 357
#     4  11  21  38  58  79 123 158 182 225 300 364
#     4  10  19  37  61  84 112 149 202 238 282 337
#     4  12  25  35  55  94 120 150 188 243 287 353
#     4  12  20  34  48  88 128 138 174 246 302 328
#     4  10  20  32  56  84 111 148 191 241 285 331
#     4  10  18  36  58  78 109 156 197 228 282 353
#
# _framework density 19.843668999999998
#
# number of rings (size 3 to 8) (size 9 to 14) (size 15 to 20)
#    0.000    1.333    6.667    2.000    0.000    1.600 
#    2.400    0.000    0.000    2.400    0.000    0.000 
#    0.000    0.000    0.000    0.000    0.000    0.000 
#
# Total GULP energy -167599.757657 kJ/mol
# GULP energy per Si atom -5586.658589 kJ/mol
# Density = 1.979850 g / cm^3
# Si number density = 19.843669 Si / 1000 Ang^3
#
#
#
# Elastic Constant Matrix: (Units=GPa)
#
#
# Indices 1 2 3 4 5 6 
#
# 1 81.6780 53.1586 42.5964 0.0000 -32.3124 0.0000
# 2 53.1586 148.8062 17.7871 0.0000 -32.7273 0.0000
# 3 42.5964 17.7871 57.9654 0.0000 -25.5719 0.0000
# 4 0.0000 0.0000 0.0000 17.8355 0.0000 -3.2687
# 5 -32.3124 -32.7273 -25.5719 0.0000 42.9361 0.0000
# 6 0.0000 0.0000 0.0000 -3.2687 0.0000 33.2694
#
#
#
# Elastic Compliance Matrix: (Units=1/GPa)
#
#
# Indices 1 2 3 4 5 6 
#
# 1 0.026603 -0.006331 -0.014789 0.000000 0.006387 0.000000
# 2 -0.006331 0.009585 0.003842 0.000000 0.004829 0.000000
# 3 -0.014789 0.003842 0.031634 0.000000 0.010639 0.000000
# 4 0.000000 0.000000 0.000000 0.057096 0.000000 0.005610
# 5 0.006387 0.004829 0.010639 0.000000 0.038114 0.000000
# 6 0.000000 0.000000 0.000000 0.005610 0.000000 0.030609
#
#
# Mechanical properties :
#
#
# Convention : Reuss Voigt Hill
#
# Bulk Modulus (GPa) = 30.06149 57.28153 43.67151
# Shear Modulus (GPa) = 20.89539 30.46870 25.68205
#
# Velocity S-wave (km/s) = 3.24852 3.92272 3.60143
# Velocity P-wave (km/s) = 5.40856 7.03178 6.27290
#
# Compressibility (1/GPa) = 0.03326515
#
# Stress axis : x y z
#
# Youngs Moduli (GPa) = 37.58946 104.33250 31.61117
#
# Poissons Ratio (x) = 0.66054 0.46751
# Poissons Ratio (y) = 0.23798 -0.12144
# Poissons Ratio (z) = 0.55592 -0.40083
#
# Static dielectric constant tensor:
#      x y z
#    x 1.779710 0.000000 0.020030 
#    y 0.000000 1.653380 0.000000 
#    z 0.020030 0.000000 1.778040 
# 
# From -- ./inp_files/99441.got.cif
#   From: 2010.05.17/outbox.cif.g08.bks.cpg/sg15_50_cif.got.tgz:99441.got - 2010.06.03 18:47:42.
