data_PCOD9259473
_publ_section_title
;
Structure prediction by ZEFSAII (Michael W. Deem and Ramdas Pophale) SiO2 
 PCOD9259473
Probable space group: C 2/C
;
_chemical_formula_sum "Si O2"
_cell_formula_units_Z 64
_cell_length_a 24.362511
_cell_length_b 11.832832
_cell_length_c 11.218422
_cell_angle_alpha 90.000000
_cell_angle_beta 96.096061
_cell_angle_gamma 90.000000
_cell_volume 3215.731070
_symmetry_space_group_name_H-M "C 2/C"
_symmetry_group_IT_number 15
_symmetry_cell_setting 'monoclinic'
loop_
_space_group_symop_operation_xyz
x,y,z
-x,y,1/2-z
-x,-y,-z
x,-y,1/2+z
1/2+x,1/2+y,z
1/2-x,1/2+y,1/2-z
1/2-x,1/2-y,-z
1/2+x,1/2-y,1/2+z
loop_
_atom_site_type_symbol
_atom_site_label
_atom_site_fract_x
_atom_site_fract_y
_atom_site_fract_z
Si Si1 0.296173 0.326986 0.863473
Si Si2 0.325985 0.246826 0.422340
Si Si3 0.713080 0.146548 0.837617
Si Si4 0.868039 0.038925 0.215450
Si Si5 0.956171 0.110909 0.415318
Si Si6 0.619205 0.691252 0.901439
Si Si7 0.073734 0.127316 0.491790
Si Si8 0.678251 0.108551 0.309934
O O1 0.300998 0.213296 0.786865
O O2 0.313055 0.425169 0.771665
O O3 0.233249 0.342682 0.884351
O O4 0.334259 0.332520 0.987497
O O5 0.311597 0.209540 0.552740
O O6 0.279666 0.340171 0.373093
O O7 0.390557 0.280248 0.433082
O O8 0.317279 0.145265 0.327046
O O9 0.684932 0.024376 0.826614
O O10 0.912634 0.116013 0.298096
O O11 0.875715 0.904168 0.200587
O O12 0.878870 0.076698 0.082891
O O13 0.935451 0.169292 0.532681
O O14 0.017739 0.154922 0.407534
O O15 0.949957 0.975186 0.434371
O O16 0.628729 0.816943 0.853753
#
# Coordination Sequence:
#
# PCOD9259473 Si02
#       8
#     8   8   8   8   8   8   8   8
#     4  10  22  36  55  85 116 161 196 244 295 354
#     4  10  22  40  59  86 117 159 201 245 301 357
#     4  10  23  39  57  86 116 159 204 244 297 356
#     4  10  19  34  57  85 122 151 191 245 299 357
#     4   9  20  33  57  88 120 151 195 242 299 355
#     4  10  22  36  56  88 121 156 193 244 299 354
#     4  10  18  35  58  85 117 156 191 244 300 352
#     4  11  24  35  58  83 120 160 199 246 288 358
#
# _framework density 19.902161
#
# number of rings (size 3 to 8) (size 9 to 14) (size 15 to 20)
#    0.000    2.000    1.250    1.500   10.500    0.000 
#    0.000    1.875    0.000    0.750    6.500    0.000 
#    0.000    0.000    0.000    0.000    0.000    0.000 
#
# Total GULP energy -178139.487783 kJ/mol
# GULP energy per Si atom -5566.858993 kJ/mol
# Density = 1.985686 g / cm^3
# Si number density = 19.902161 Si / 1000 Ang^3
#
#
#
# Elastic Constant Matrix: (Units=GPa)
#
#
# Indices 1 2 3 4 5 6 
#
# 1 90.9116 31.5539 14.0650 0.0000 2.5888 0.0000
# 2 31.5539 118.7168 16.4438 0.0000 -4.1474 0.0000
# 3 14.0650 16.4438 39.4568 0.0000 2.6041 0.0000
# 4 0.0000 0.0000 0.0000 23.0916 0.0000 -1.5647
# 5 2.5888 -4.1474 2.6041 0.0000 26.7242 0.0000
# 6 0.0000 0.0000 0.0000 -1.5647 0.0000 22.8831
#
#
#
# Elastic Compliance Matrix: (Units=1/GPa)
#
#
# Indices 1 2 3 4 5 6 
#
# 1 0.012549 -0.002946 -0.003155 0.000000 -0.001365 0.000000
# 2 -0.002946 0.009714 -0.003137 0.000000 0.002099 0.000000
# 3 -0.003155 -0.003137 0.027968 0.000000 -0.002906 0.000000
# 4 0.000000 0.000000 0.000000 0.043507 0.000000 0.002975
# 5 -0.001365 0.002099 -0.002906 0.000000 0.038160 0.000000
# 6 0.000000 0.000000 0.000000 0.002975 0.000000 0.043904
#
#
# Mechanical properties :
#
#
# Convention : Reuss Voigt Hill
#
# Bulk Modulus (GPa) = 31.49117 41.46782 36.47949
# Shear Modulus (GPa) = 24.40631 27.00795 25.70713
#
# Velocity S-wave (km/s) = 3.50568 3.68779 3.59789
# Velocity P-wave (km/s) = 5.67835 6.24613 5.96900
#
# Compressibility (1/GPa) = 0.03175493
#
# Stress axis : x y z
#
# Youngs Moduli (GPa) = 79.68562 102.94142 35.75501
#
# Poissons Ratio (x) = 0.30328 0.11282
# Poissons Ratio (y) = 0.23476 0.11216
# Poissons Ratio (z) = 0.25145 0.32290
#
# Static dielectric constant tensor:
#      x y z
#    x 1.799930 0.000000 0.034470 
#    y 0.000000 1.740310 0.000000 
#    z 0.034470 0.000000 1.804920 
# 
# From -- ./inp_files/117586.got.cif
#   From: 2010.05.17/outbox.cif.g08.bks.cpg/sg15_59_cif.got.tgz:117586.got - 2010.06.03 18:47:42.
