data_PCOD9259663
_publ_section_title
;
Structure prediction by ZEFSAII (Michael W. Deem and Ramdas Pophale) SiO2 
 PCOD9259663
Probable space group: C 2/C
;
_chemical_formula_sum "Si O2"
_cell_formula_units_Z 56
_cell_length_a 17.855576
_cell_length_b 8.897966
_cell_length_c 17.255466
_cell_angle_alpha 90.000000
_cell_angle_beta 73.377301
_cell_angle_gamma 90.000000
_cell_volume 2626.949284
_symmetry_space_group_name_H-M "C 2/C"
_symmetry_group_IT_number 15
_symmetry_cell_setting 'monoclinic'
loop_
_space_group_symop_operation_xyz
x,y,z
-x,y,1/2-z
-x,-y,-z
x,-y,1/2+z
1/2+x,1/2+y,z
1/2-x,1/2+y,1/2-z
1/2-x,1/2-y,-z
1/2+x,1/2-y,1/2+z
loop_
_atom_site_type_symbol
_atom_site_label
_atom_site_fract_x
_atom_site_fract_y
_atom_site_fract_z
Si Si1 0.173933 0.621504 0.107569
Si Si2 0.893278 0.377237 0.625990
Si Si3 0.767310 0.407571 0.536482
Si Si4 0.879286 0.610599 0.749520
Si Si5 0.885257 0.935692 0.810704
Si Si6 0.976163 0.808450 0.346062
Si Si7 0.788643 0.814099 0.265876
O O1 0.130788 0.494058 0.172295
O O2 0.103670 0.729337 0.103410
O O3 0.223864 0.726771 0.150017
O O4 0.224438 0.540492 0.028018
O O5 0.850209 0.407599 0.558087
O O6 0.922553 0.521920 0.667000
O O7 0.823496 0.307282 0.697616
O O8 0.959544 0.250370 0.613161
O O9 0.750000 0.250000 0.500000
O O10 0.693097 0.424266 0.614418
O O11 0.905758 0.775693 0.767885
O O12 0.791792 0.628415 0.742604
O O13 0.953556 0.017106 0.839562
O O14 0.854558 0.057838 0.756917
O O15 0.000000 0.757581 0.250000
#
# Coordination Sequence:
#
# PCOD9259663 Si02
#       7
#     8   8   8   8   8   8   8
#     4  10  22  37  63  86 133 165 205 263 331 379
#     4  11  22  40  66  91 131 170 213 266 325 377
#     4  12  23  40  65  97 130 167 214 273 321 381
#     4  11  18  37  64  99 114 163 226 267 302 373
#     4  11  21  36  66  96 127 159 217 270 320 371
#     4  11  22  43  61  89 129 175 205 264 328 383
#     4  10  18  35  62  93 122 158 220 268 313 364
#
# _framework density 21.317502999999999
#
# number of rings (size 3 to 8) (size 9 to 14) (size 15 to 20)
#    0.000    1.143    8.571    0.857    0.000    2.857 
#    2.571    0.714    0.000    0.000    0.000    0.000 
#    0.000    0.000    0.000    0.000    0.000    0.000 
#
# Total GULP energy -156261.718686 kJ/mol
# GULP energy per Si atom -5580.775667 kJ/mol
# Density = 2.126898 g / cm^3
# Si number density = 21.317503 Si / 1000 Ang^3
#
#
#
# Elastic Constant Matrix: (Units=GPa)
#
#
# Indices 1 2 3 4 5 6 
#
# 1 83.6357 25.1246 1.7016 0.0000 7.7288 0.0000
# 2 25.1246 142.4665 13.2176 0.0000 11.4987 0.0000
# 3 1.7016 13.2176 28.5529 0.0000 5.8995 0.0000
# 4 0.0000 0.0000 0.0000 19.9596 0.0000 -2.9591
# 5 7.7288 11.4987 5.8995 0.0000 21.0796 0.0000
# 6 0.0000 0.0000 0.0000 -2.9591 0.0000 34.4527
#
#
#
# Elastic Compliance Matrix: (Units=1/GPa)
#
#
# Indices 1 2 3 4 5 6 
#
# 1 0.012913 -0.002055 0.000985 0.000000 -0.003889 0.000000
# 2 -0.002055 0.007875 -0.002963 0.000000 -0.002713 0.000000
# 3 0.000985 -0.002963 0.038290 0.000000 -0.009462 0.000000
# 4 0.000000 0.000000 0.000000 0.050747 0.000000 0.004359
# 5 -0.003889 -0.002713 -0.009462 0.000000 0.052994 0.000000
# 6 0.000000 0.000000 0.000000 0.004359 0.000000 0.029400
#
#
# Mechanical properties :
#
#
# Convention : Reuss Voigt Hill
#
# Bulk Modulus (GPa) = 19.60212 37.19364 28.39788
# Shear Modulus (GPa) = 23.01086 29.40580 26.20833
#
# Velocity S-wave (km/s) = 3.28904 3.71808 3.51012
# Velocity P-wave (km/s) = 4.86199 5.99312 5.45695
#
# Compressibility (1/GPa) = 0.05101489
#
# Stress axis : x y z
#
# Youngs Moduli (GPa) = 77.43972 126.97724 26.11622
#
# Poissons Ratio (x) = 0.26091 -0.02573
# Poissons Ratio (y) = 0.15912 0.07737
# Poissons Ratio (z) = -0.07630 0.37618
#
# Static dielectric constant tensor:
#      x y z
#    x 1.791060 0.000000 0.006030 
#    y 0.000000 1.842120 0.000000 
#    z 0.006030 0.000000 1.802240 
# 
# From -- ./inp_files/209531.got.cif
#   From: 2010.05.17/outbox.cif.g08.bks.cpg/sg15_105_cif.got.tgz:209531.got - 2010.06.03 18:47:42.
