data_PCOD9259391
_publ_section_title
;
Structure prediction by ZEFSAII (Michael W. Deem and Ramdas Pophale) SiO2 
 PCOD9259391
Probable space group: C 2/C
;
_chemical_formula_sum "Si O2"
_cell_formula_units_Z 48
_cell_length_a 15.435991
_cell_length_b 9.501850
_cell_length_c 19.849085
_cell_angle_alpha 90.000000
_cell_angle_beta 129.097991
_cell_angle_gamma 90.000000
_cell_volume 2259.348608
_symmetry_space_group_name_H-M "C 2/C"
_symmetry_group_IT_number 15
_symmetry_cell_setting 'monoclinic'
loop_
_space_group_symop_operation_xyz
x,y,z
-x,y,1/2-z
-x,-y,-z
x,-y,1/2+z
1/2+x,1/2+y,z
1/2-x,1/2+y,1/2-z
1/2-x,1/2-y,-z
1/2+x,1/2-y,1/2+z
loop_
_atom_site_type_symbol
_atom_site_label
_atom_site_fract_x
_atom_site_fract_y
_atom_site_fract_z
Si Si1 0.195921 0.990317 0.588744
Si Si2 0.981139 0.663962 0.485565
Si Si3 0.658861 0.537056 0.270894
Si Si4 0.733940 0.730378 0.413138
Si Si5 0.806593 0.741543 0.829518
Si Si6 0.000186 0.092733 0.596562
O O1 0.247493 0.846623 0.641880
O O2 0.119686 0.966299 0.485199
O O3 0.286006 0.112113 0.624339
O O4 0.100240 0.037205 0.595902
O O5 0.855964 0.692481 0.445211
O O6 0.003051 0.741813 0.424895
O O7 0.000000 0.500000 0.500000
O O8 0.066888 0.729266 0.581434
O O9 0.658465 0.608720 0.344113
O O10 0.749042 0.410840 0.304062
O O11 0.691901 0.670792 0.239067
O O12 0.545829 0.463088 0.189326
O O13 0.750000 0.750000 0.500000
#
# Coordination Sequence:
#
# PCOD9259391 Si02
#       6
#     8   8   8   8   8   8
#     4   8  16  34  51  75 107 144 175 225 283 337
#     4  10  18  35  56  84 111 142 184 237 290 333
#     4  11  19  31  52  87 109 139 184 242 280 319
#     4  11  22  36  53  80 115 152 185 225 288 352
#     4  10  19  31  59  86 108 135 189 245 279 317
#     4   8  16  30  54  78 106 135 183 232 277 319
#
# _framework density 21.245061
#
# number of rings (size 3 to 8) (size 9 to 14) (size 15 to 20)
#    0.000    2.333    1.667    6.000    0.000    0.000 
#    0.000    4.167    0.000    0.000    0.000    0.000 
#    0.000    0.000    0.000    0.000    0.000    0.000 
#
# Total GULP energy -133687.713713 kJ/mol
# GULP energy per Si atom -5570.321405 kJ/mol
# Density = 2.119671 g / cm^3
# Si number density = 21.245061 Si / 1000 Ang^3
#
#
#
# Elastic Constant Matrix: (Units=GPa)
#
#
# Indices 1 2 3 4 5 6 
#
# 1 16.2225 15.6094 19.7633 0.0000 -2.5369 0.0000
# 2 15.6094 159.7510 53.5834 0.0000 -13.5442 0.0000
# 3 19.7633 53.5834 126.6388 0.0000 -14.2837 0.0000
# 4 0.0000 0.0000 0.0000 45.4861 0.0000 3.2173
# 5 -2.5369 -13.5442 -14.2837 0.0000 19.4360 0.0000
# 6 0.0000 0.0000 0.0000 3.2173 0.0000 10.1488
#
#
#
# Elastic Compliance Matrix: (Units=1/GPa)
#
#
# Indices 1 2 3 4 5 6 
#
# 1 0.078403 -0.004167 -0.010518 0.000000 -0.000400 0.000000
# 2 -0.004167 0.007688 -0.002246 0.000000 0.003163 0.000000
# 3 -0.010518 -0.002246 0.011075 0.000000 0.005201 0.000000
# 4 0.000000 0.000000 0.000000 0.022489 0.000000 -0.007129
# 5 -0.000400 0.003163 0.005201 0.000000 0.057425 0.000000
# 6 0.000000 0.000000 0.000000 -0.007129 0.000000 0.100794
#
#
# Mechanical properties :
#
#
# Convention : Reuss Voigt Hill
#
# Bulk Modulus (GPa) = 15.79647 53.39161 34.59404
# Shear Modulus (GPa) = 15.02234 29.25793 22.14014
#
# Velocity S-wave (km/s) = 2.66202 3.71504 3.23171
# Velocity P-wave (km/s) = 4.11095 6.60211 5.49945
#
# Compressibility (1/GPa) = 0.06330526
#
# Stress axis : x y z
#
# Youngs Moduli (GPa) = 12.75459 130.06515 90.29488
#
# Poissons Ratio (x) = 0.54197 0.94968
# Poissons Ratio (y) = 0.05315 0.20281
# Poissons Ratio (z) = 0.13415 0.29213
#
# Static dielectric constant tensor:
#      x y z
#    x 1.759420 0.000000 -0.035630 
#    y 0.000000 1.772680 0.000000 
#    z -0.035630 0.000000 1.865360 
# 
# From -- ./inp_files/247633.got.cif
#   From: 2010.05.17/outbox.cif.g08.bks.cpg/sg15_124_cif.got.tgz:247633.got - 2010.06.03 18:47:42.
