data_PCOD9259974
_publ_section_title
;
Structure prediction by ZEFSAII (Michael W. Deem and Ramdas Pophale) SiO2 
 PCOD9259974
Probable space group: C 2/C
;
_chemical_formula_sum "Si O2"
_cell_formula_units_Z 64
_cell_length_a 29.242163
_cell_length_b 9.281969
_cell_length_c 15.028433
_cell_angle_alpha 90.000000
_cell_angle_beta 134.353739
_cell_angle_gamma 90.000000
_cell_volume 2916.701872
_symmetry_space_group_name_H-M "C 2/C"
_symmetry_group_IT_number 15
_symmetry_cell_setting 'monoclinic'
loop_
_space_group_symop_operation_xyz
x,y,z
-x,y,1/2-z
-x,-y,-z
x,-y,1/2+z
1/2+x,1/2+y,z
1/2-x,1/2+y,1/2-z
1/2-x,1/2-y,-z
1/2+x,1/2-y,1/2+z
loop_
_atom_site_type_symbol
_atom_site_label
_atom_site_fract_x
_atom_site_fract_y
_atom_site_fract_z
Si Si1 0.691889 0.098625 0.557726
Si Si2 0.686729 0.236143 0.050803
Si Si3 0.430687 0.427644 0.677088
Si Si4 0.683763 0.777977 0.763524
Si Si5 0.066719 0.795056 0.578881
Si Si6 0.571059 0.580081 0.633037
Si Si7 0.681958 0.888707 0.261400
Si Si8 0.566670 0.749791 0.882594
O O1 0.755315 0.187188 0.621329
O O2 0.686453 0.111988 0.658744
O O3 0.629505 0.174054 0.433092
O O4 0.691098 0.931600 0.531497
O O5 0.679886 0.236534 0.149863
O O6 0.754425 0.308824 0.119813
O O7 0.627804 0.323648 0.927129
O O8 0.500000 0.359359 0.750000
O O9 0.434742 0.489182 0.783254
O O10 0.426248 0.577819 0.617495
O O11 0.620571 0.705093 0.714614
O O12 0.685528 0.944636 0.791366
O O13 0.116526 0.694994 0.699870
O O14 0.059953 0.715123 0.476776
O O15 0.993289 0.848276 0.494810
O O16 0.099526 0.952452 0.610475
O O17 0.500000 0.793129 0.750000
#
# Coordination Sequence:
#
# PCOD9259974 Si02
#       8
#     8   8   8   8   8   8   8   8
#     4   9  19  35  60  90 115 151 194 242 291 348
#     4  10  20  37  61  86 117 151 196 243 289 347
#     4  11  22  38  57  86 116 157 196 237 294 351
#     4  10  20  36  60  89 116 150 198 240 294 346
#     4  10  20  37  60  84 116 149 196 235 287 346
#     4  11  22  36  59  88 115 159 189 240 292 350
#     4   9  19  37  61  89 114 153 194 245 289 346
#     4  10  18  36  60  82 113 154 192 233 286 349
#
# _framework density 21.942592000000001
#
# number of rings (size 3 to 8) (size 9 to 14) (size 15 to 20)
#    0.000    2.000    2.500    2.250    1.750    5.000 
#    0.000    6.250    0.000    0.000    0.000    0.000 
#    0.000    0.000    0.000    0.000    0.000    0.000 
#
# Total GULP energy -178484.504648 kJ/mol
# GULP energy per Si atom -5577.640770 kJ/mol
# Density = 2.189265 g / cm^3
# Si number density = 21.942592 Si / 1000 Ang^3
#
#
#
# Elastic Constant Matrix: (Units=GPa)
#
#
# Indices 1 2 3 4 5 6 
#
# 1 35.4358 30.0795 49.8882 0.0000 12.1448 0.0000
# 2 30.0795 148.6188 97.6559 0.0000 50.0711 0.0000
# 3 49.8882 97.6559 165.8783 0.0000 45.3756 0.0000
# 4 0.0000 0.0000 0.0000 40.2781 0.0000 13.7056
# 5 12.1448 50.0711 45.3756 0.0000 43.2563 0.0000
# 6 0.0000 0.0000 0.0000 13.7056 0.0000 21.2119
#
#
#
# Elastic Compliance Matrix: (Units=1/GPa)
#
#
# Indices 1 2 3 4 5 6 
#
# 1 0.049231 -0.001238 -0.014990 0.000000 0.003335 0.000000
# 2 -0.001238 0.013648 -0.004819 0.000000 -0.010396 0.000000
# 3 -0.014990 -0.004819 0.015001 0.000000 -0.005950 0.000000
# 4 0.000000 0.000000 0.000000 0.031824 0.000000 -0.020563
# 5 0.003335 -0.010396 -0.005950 0.000000 0.040456 0.000000
# 6 0.000000 0.000000 0.000000 -0.020563 0.000000 0.060429
#
#
# Mechanical properties :
#
#
# Convention : Reuss Voigt Hill
#
# Bulk Modulus (GPa) = 27.94294 78.35334 53.14814
# Shear Modulus (GPa) = 18.89552 32.43654 25.66603
#
# Velocity S-wave (km/s) = 2.93769 3.84897 3.42378
# Velocity P-wave (km/s) = 4.92635 7.45242 6.31694
#
# Compressibility (1/GPa) = 0.03578722
#
# Stress axis : x y z
#
# Youngs Moduli (GPa) = 20.31221 73.27105 66.66159
#
# Poissons Ratio (x) = 0.09071 0.99925
# Poissons Ratio (y) = 0.02515 0.32123
# Poissons Ratio (z) = 0.30448 0.35308
#
# Static dielectric constant tensor:
#      x y z
#    x 1.956530 0.000000 -0.106290 
#    y 0.000000 1.765380 0.000000 
#    z -0.106290 0.000000 1.891020 
# 
# From -- ./inp_files/224646.got.cif
#   From: 2010.05.17/outbox.cif.g08.bks.cpg/sg15_113_cif.got.tgz:224646.got - 2010.06.03 18:47:42.
