data_PCOD9259500
_publ_section_title
;
Structure prediction by ZEFSAII (Michael W. Deem and Ramdas Pophale) SiO2 
 PCOD9259500
Probable space group: C 2/C
;
_chemical_formula_sum "Si O2"
_cell_formula_units_Z 64
_cell_length_a 24.063152
_cell_length_b 13.856949
_cell_length_c 14.373072
_cell_angle_alpha 90.000000
_cell_angle_beta 139.364407
_cell_angle_gamma 90.000000
_cell_volume 3121.150025
_symmetry_space_group_name_H-M "C 2/C"
_symmetry_group_IT_number 15
_symmetry_cell_setting 'monoclinic'
loop_
_space_group_symop_operation_xyz
x,y,z
-x,y,1/2-z
-x,-y,-z
x,-y,1/2+z
1/2+x,1/2+y,z
1/2-x,1/2+y,1/2-z
1/2-x,1/2-y,-z
1/2+x,1/2-y,1/2+z
loop_
_atom_site_type_symbol
_atom_site_label
_atom_site_fract_x
_atom_site_fract_y
_atom_site_fract_z
Si Si1 0.382290 0.242570 0.749297
Si Si2 0.188534 0.630124 0.681967
Si Si3 0.778666 0.976305 0.909344
Si Si4 0.575495 0.767865 0.541750
Si Si5 0.600326 0.635603 0.396358
Si Si6 0.439865 0.010054 0.536150
Si Si7 0.878178 0.533659 0.662135
Si Si8 0.264570 0.759701 0.628423
O O1 0.315371 0.211415 0.742907
O O2 0.356774 0.324624 0.643930
O O3 0.390726 0.147875 0.694633
O O4 0.475033 0.261911 0.914319
O O5 0.249008 0.540985 0.784531
O O6 0.097024 0.577942 0.569168
O O7 0.212748 0.678028 0.616907
O O8 0.707878 0.999387 0.898733
O O9 0.773257 0.863146 0.888097
O O10 0.866935 0.027323 0.047151
O O11 0.613612 0.705649 0.502859
O O12 0.574796 0.882902 0.521912
O O13 0.637824 0.752097 0.709213
O O14 0.500000 0.639526 0.250000
O O15 0.388318 0.009990 0.567563
O O16 0.538437 0.990226 0.682184
O O17 0.250000 0.750000 0.500000
#
# Coordination Sequence:
#
# PCOD9259500 Si02
#       8
#     8   8   8   8   8   8   8   8
#     4   9  20  35  61  97 121 154 208 265 319 364
#     4  11  23  38  60  94 126 161 214 266 311 387
#     4  11  23  39  64  92 120 168 210 257 318 378
#     4  10  19  37  65  89 126 165 204 257 316 382
#     4  10  20  41  66  94 127 165 214 269 317 372
#     4  10  18  35  58  93 130 161 195 254 329 382
#     4   9  19  32  60  95 126 158 201 255 322 382
#     4  12  26  44  59  89 131 171 212 258 319 384
#
# _framework density 20.505261999999998
#
# number of rings (size 3 to 8) (size 9 to 14) (size 15 to 20)
#    0.000    1.750    3.750    0.750    1.750    4.500 
#    2.250    1.250    0.000    3.000    0.000    0.000 
#    0.000    0.000    0.000    0.000    0.000    0.000 
#
# Total GULP energy -178593.860534 kJ/mol
# GULP energy per Si atom -5581.058142 kJ/mol
# Density = 2.045859 g / cm^3
# Si number density = 20.505262 Si / 1000 Ang^3
#
#
#
# Elastic Constant Matrix: (Units=GPa)
#
#
# Indices 1 2 3 4 5 6 
#
# 1 70.7900 24.3949 23.6230 0.0000 -20.6866 0.0000
# 2 24.3949 74.6381 26.6438 0.0000 -7.4451 0.0000
# 3 23.6230 26.6438 94.6546 0.0000 -15.2199 0.0000
# 4 0.0000 0.0000 0.0000 27.9613 0.0000 0.3830
# 5 -20.6866 -7.4451 -15.2199 0.0000 27.4621 0.0000
# 6 0.0000 0.0000 0.0000 0.3830 0.0000 23.7868
#
#
#
# Elastic Compliance Matrix: (Units=1/GPa)
#
#
# Indices 1 2 3 4 5 6 
#
# 1 0.020064 -0.004693 -0.001604 0.000000 0.012953 0.000000
# 2 -0.004693 0.016082 -0.003538 0.000000 -0.001136 0.000000
# 3 -0.001604 -0.003538 0.012748 0.000000 0.004898 0.000000
# 4 0.000000 0.000000 0.000000 0.035772 0.000000 -0.000576
# 5 0.012953 -0.001136 0.004898 0.000000 0.048577 0.000000
# 6 0.000000 0.000000 0.000000 -0.000576 0.000000 0.042049
#
#
# Mechanical properties :
#
#
# Convention : Reuss Voigt Hill
#
# Bulk Modulus (GPa) = 34.21854 43.26734 38.74294
# Shear Modulus (GPa) = 24.42559 26.87012 25.64786
#
# Velocity S-wave (km/s) = 3.45510 3.62387 3.54049
# Velocity P-wave (km/s) = 5.71322 6.21742 5.97065
#
# Compressibility (1/GPa) = 0.02922393
#
# Stress axis : x y z
#
# Youngs Moduli (GPa) = 49.84105 62.18282 78.44083
#
# Poissons Ratio (x) = 0.29184 0.12578
# Poissons Ratio (y) = 0.23392 0.27754
# Poissons Ratio (z) = 0.07992 0.22001
#
# Static dielectric constant tensor:
#      x y z
#    x 1.735720 0.000000 -0.001180 
#    y 0.000000 1.713640 0.000000 
#    z -0.001180 0.000000 1.795140 
# 
# From -- ./inp_files/178183.got.cif
#   From: 2010.05.17/outbox.cif.g08.bks.cpg/sg15_90_cif.got.tgz:178183.got - 2010.06.03 18:47:42.
