data_PCOD9259095
_publ_section_title
;
Structure prediction by ZEFSAII (Michael W. Deem and Ramdas Pophale) SiO2 
 PCOD9259095
Probable space group: C 2/C
;
_chemical_formula_sum "Si O2"
_cell_formula_units_Z 36
_cell_length_a 15.918146
_cell_length_b 22.611184
_cell_length_c 9.392890
_cell_angle_alpha 90.000000
_cell_angle_beta 30.846062
_cell_angle_gamma 90.000000
_cell_volume 1733.430774
_symmetry_space_group_name_H-M "C 2/C"
_symmetry_group_IT_number 15
_symmetry_cell_setting 'monoclinic'
loop_
_space_group_symop_operation_xyz
x,y,z
-x,y,1/2-z
-x,-y,-z
x,-y,1/2+z
1/2+x,1/2+y,z
1/2-x,1/2+y,1/2-z
1/2-x,1/2-y,-z
1/2+x,1/2-y,1/2+z
loop_
_atom_site_type_symbol
_atom_site_label
_atom_site_fract_x
_atom_site_fract_y
_atom_site_fract_z
Si Si1 0.298469 0.577685 0.528462
Si Si2 0.500000 0.614083 0.750000
Si Si3 0.324527 0.522517 0.196224
Si Si4 0.227337 0.711691 0.674640
Si Si5 0.093834 0.222437 0.803534
O O1 0.500000 0.582055 0.250000
O O2 0.249260 0.550556 0.447151
O O3 0.245505 0.533102 0.731206
O O4 0.223405 0.642424 0.648415
O O5 0.635464 0.571811 0.481637
O O6 0.562420 0.657781 0.783007
O O7 0.500000 0.500000 0.000000
O O8 0.250000 0.750000 0.500000
O O9 0.370742 0.719550 0.580671
O O10 0.063977 0.736703 0.985975
O O11 0.250000 0.250000 0.500000
#
# Coordination Sequence:
#
# PCOD9259095 Si02
#       5
#     8   4   8   8   8
#     4  10  20  35  60  97 130 168 223 274 330 392
#     4  12  20  38  66  94 136 172 232 272 330 406
#     4  10  18  34  59  96 125 171 224 273 324 399
#     4  12  24  43  66  99 135 173 223 280 339 398
#     4  12  25  43  65 101 131 180 223 273 338 403
#
# _framework density 20.768065
#
# number of rings (size 3 to 8) (size 9 to 14) (size 15 to 20)
#    0.000    0.889    5.556    6.000    0.000    0.000 
#    0.000    0.000    0.000    1.333    5.778    0.000 
#    0.000    0.000    0.000    0.000    0.000    0.000 
#
# Total GULP energy -100573.216790 kJ/mol
# GULP energy per Si atom -5587.400933 kJ/mol
# Density = 2.072080 g / cm^3
# Si number density = 20.768065 Si / 1000 Ang^3
#
#
#
# Elastic Constant Matrix: (Units=GPa)
#
#
# Indices 1 2 3 4 5 6 
#
# 1 123.8421 62.8260 24.0647 0.0001 35.4628 -0.0001
# 2 62.8260 180.3190 34.6239 0.0000 18.8376 0.0000
# 3 24.0647 34.6239 51.4157 -0.0004 10.5481 0.0000
# 4 0.0001 0.0000 -0.0004 30.1650 0.0001 22.6908
# 5 35.4628 18.8376 10.5481 0.0001 31.0710 0.0001
# 6 -0.0001 0.0000 0.0000 22.6908 0.0001 44.5918
#
#
#
# Elastic Compliance Matrix: (Units=1/GPa)
#
#
# Indices 1 2 3 4 5 6 
#
# 1 0.013765 -0.003095 -0.001634 0.000000 -0.013280 0.000000
# 2 -0.003095 0.007264 -0.003509 0.000000 0.000319 0.000000
# 3 -0.001634 -0.003509 0.023387 0.000001 -0.003947 0.000000
# 4 0.000000 0.000000 0.000001 0.053710 0.000000 -0.027331
# 5 -0.013280 0.000319 -0.003947 0.000000 0.048487 0.000000
# 6 0.000000 0.000000 0.000000 -0.027331 0.000000 0.036333
#
#
# Mechanical properties :
#
#
# Convention : Reuss Voigt Hill
#
# Bulk Modulus (GPa) = 35.79044 66.51178 51.15111
# Shear Modulus (GPa) = 23.95373 36.76970 30.36172
#
# Velocity S-wave (km/s) = 3.39985 4.21229 3.82768
# Velocity P-wave (km/s) = 5.71688 7.46682 6.64967
#
# Compressibility (1/GPa) = 0.02794042
#
# Stress axis : x y z
#
# Youngs Moduli (GPa) = 72.64760 137.65684 42.75913
#
# Poissons Ratio (x) = 0.42603 0.06987
# Poissons Ratio (y) = 0.22484 0.15004
# Poissons Ratio (z) = 0.11872 0.48303
#
# Static dielectric constant tensor:
#      x y z
#    x 1.753290 0.000000 0.043660 
#    y 0.000000 1.729040 0.000000 
#    z 0.043660 0.000000 1.707340 
# 
# From -- ./inp_files/23846.got.cif
#   From: 2010.05.17/outbox.cif.g08.bks.cpg/sg15_12_cif.got.tgz:23846.got - 2010.06.03 18:47:42.
