data_PCOD9259570
_publ_section_title
;
Structure prediction by ZEFSAII (Michael W. Deem and Ramdas Pophale) SiO2 
 PCOD9259570
Probable space group: C 2/C
;
_chemical_formula_sum "Si O2"
_cell_formula_units_Z 48
_cell_length_a 25.385142
_cell_length_b 15.050806
_cell_length_c 13.640454
_cell_angle_alpha 90.000000
_cell_angle_beta 154.833891
_cell_angle_gamma 90.000000
_cell_volume 2216.186874
_symmetry_space_group_name_H-M "C 2/C"
_symmetry_group_IT_number 15
_symmetry_cell_setting 'monoclinic'
loop_
_space_group_symop_operation_xyz
x,y,z
-x,y,1/2-z
-x,-y,-z
x,-y,1/2+z
1/2+x,1/2+y,z
1/2-x,1/2+y,1/2-z
1/2-x,1/2-y,-z
1/2+x,1/2-y,1/2+z
loop_
_atom_site_type_symbol
_atom_site_label
_atom_site_fract_x
_atom_site_fract_y
_atom_site_fract_z
Si Si1 0.654695 0.414351 0.949801
Si Si2 0.192276 0.074792 0.884324
Si Si3 0.587889 0.341967 0.031404
Si Si4 0.357543 0.824489 0.184547
Si Si5 0.353736 0.840912 0.822612
Si Si6 0.639099 0.960510 0.480848
O O1 0.555276 0.340209 0.744128
O O2 0.625398 0.503895 0.842094
O O3 0.640217 0.412620 0.041216
O O4 0.793274 0.392472 0.152245
O O5 0.275698 0.136637 0.094675
O O6 0.094952 0.127702 0.654921
O O7 0.274794 0.023828 0.940709
O O8 0.671164 0.253290 0.165474
O O9 0.501358 0.821005 0.457658
O O10 0.250000 0.750000 0.000000
O O11 0.364789 0.870597 0.090786
O O12 0.333901 0.922786 0.864646
O O13 0.500000 0.998879 0.250000
#
# Coordination Sequence:
#
# PCOD9259570 Si02
#       6
#     8   8   8   8   8   8
#     4  10  22  38  64  85 115 166 206 240 295 375
#     4  11  23  39  58  92 127 157 195 255 314 361
#     4  11  22  39  63  87 121 160 207 249 299 362
#     4  10  18  35  60  88 113 151 205 247 288 360
#     4  11  22  37  63  91 122 155 202 257 307 353
#     4   9  21  36  59  83 119 155 197 240 302 361
#
# _framework density 21.658823000000002
#
# number of rings (size 3 to 8) (size 9 to 14) (size 15 to 20)
#    0.000    1.667    1.667    3.000    4.667    7.333 
#    0.000    0.000    0.000    0.000    0.000    0.000 
#    0.000    0.000    0.000    0.000    0.000    0.000 
#
# Total GULP energy -133624.588471 kJ/mol
# GULP energy per Si atom -5567.691186 kJ/mol
# Density = 2.160953 g / cm^3
# Si number density = 21.658823 Si / 1000 Ang^3
#
#
#
# Elastic Constant Matrix: (Units=GPa)
#
#
# Indices 1 2 3 4 5 6 
#
# 1 99.1614 16.1660 39.8899 0.0000 -7.7790 0.0000
# 2 16.1660 62.1481 23.0338 0.0000 -8.5374 0.0000
# 3 39.8899 23.0338 97.3829 0.0000 -30.0144 0.0000
# 4 0.0000 0.0000 0.0000 32.3501 0.0000 -3.0353
# 5 -7.7790 -8.5374 -30.0144 0.0000 33.3765 0.0000
# 6 0.0000 0.0000 0.0000 -3.0353 0.0000 15.9774
#
#
#
# Elastic Compliance Matrix: (Units=1/GPa)
#
#
# Indices 1 2 3 4 5 6 
#
# 1 0.012329 -0.001524 -0.005429 0.000000 -0.002398 0.000000
# 2 -0.001524 0.017852 -0.003182 0.000000 0.001349 0.000000
# 3 -0.005429 -0.003182 0.017437 0.000000 0.013602 0.000000
# 4 0.000000 0.000000 0.000000 0.031473 0.000000 0.005979
# 5 -0.002398 0.001349 0.013602 0.000000 0.041979 0.000000
# 6 0.000000 0.000000 0.000000 0.005979 0.000000 0.063724
#
#
# Mechanical properties :
#
#
# Convention : Reuss Voigt Hill
#
# Bulk Modulus (GPa) = 36.56660 46.31910 41.44285
# Shear Modulus (GPa) = 23.34484 28.31431 25.82958
#
# Velocity S-wave (km/s) = 3.28662 3.61957 3.45710
# Velocity P-wave (km/s) = 5.59662 6.23703 5.92548
#
# Compressibility (1/GPa) = 0.02734736
#
# Stress axis : x y z
#
# Youngs Moduli (GPa) = 81.11108 56.01649 57.34853
#
# Poissons Ratio (x) = 0.08539 0.31133
# Poissons Ratio (y) = 0.12365 0.18249
# Poissons Ratio (z) = 0.44033 0.17825
#
# Static dielectric constant tensor:
#      x y z
#    x 1.802950 0.000000 0.035220 
#    y 0.000000 1.996820 0.000000 
#    z 0.035220 0.000000 1.799090 
# 
# From -- ./inp_files/119490.got.cif
#   From: 2010.05.17/outbox.cif.g08.bks.cpg/sg15_60_cif.got.tgz:119490.got - 2010.06.03 18:47:42.
