data_PCOD9259828
_publ_section_title
;
Structure prediction by ZEFSAII (Michael W. Deem and Ramdas Pophale) SiO2 
 PCOD9259828
Probable space group: C 2/C
;
_chemical_formula_sum "Si O2"
_cell_formula_units_Z 60
_cell_length_a 22.391771
_cell_length_b 9.244597
_cell_length_c 23.057783
_cell_angle_alpha 90.000000
_cell_angle_beta 136.861482
_cell_angle_gamma 90.000000
_cell_volume 3263.626969
_symmetry_space_group_name_H-M "C 2/C"
_symmetry_group_IT_number 15
_symmetry_cell_setting 'monoclinic'
loop_
_space_group_symop_operation_xyz
x,y,z
-x,y,1/2-z
-x,-y,-z
x,-y,1/2+z
1/2+x,1/2+y,z
1/2-x,1/2+y,1/2-z
1/2-x,1/2-y,-z
1/2+x,1/2-y,1/2+z
loop_
_atom_site_type_symbol
_atom_site_label
_atom_site_fract_x
_atom_site_fract_y
_atom_site_fract_z
Si Si1 0.094223 0.033786 0.801163
Si Si2 0.904210 0.182077 0.890226
Si Si3 0.500000 0.184366 0.250000
Si Si4 0.571005 0.410742 0.660732
Si Si5 0.796080 0.670436 0.714173
Si Si6 0.755808 0.822950 0.566507
Si Si7 0.060998 0.435795 0.673079
Si Si8 0.442048 0.182177 0.539163
O O1 0.096911 0.008079 0.734318
O O2 0.177460 0.957058 0.887503
O O3 0.000000 0.963551 0.750000
O O4 0.080620 0.200562 0.809776
O O5 0.800890 0.166517 0.829374
O O6 0.923641 0.288813 0.850720
O O7 0.937295 0.022411 0.897624
O O8 0.944246 0.257787 0.975376
O O9 0.484675 0.093956 0.297280
O O10 0.647511 0.291210 0.711428
O O11 0.483409 0.315053 0.605555
O O12 0.791671 0.720662 0.643798
O O13 0.847954 0.520597 0.754360
O O14 0.750000 0.750000 0.500000
O O15 0.656874 0.856591 0.515039
O O16 0.000914 0.543291 0.592997
#
# Coordination Sequence:
#
# PCOD9259828 Si02
#       8
#     8   8   4   8   8   8   8   8
#     4   9  18  36  57  81 106 155 200 229 282 346
#     4  11  19  38  60  84 120 150 197 248 294 347
#     4  10  22  38  62  82 118 156 204 236 296 352
#     4  10  18  36  57  81 115 153 194 239 289 359
#     4   9  22  35  57  88 112 152 202 241 292 343
#     4  10  20  35  57  82 119 150 192 244 289 346
#     4  11  22  39  60  87 120 155 199 242 290 355
#     4  10  23  35  56  89 119 153 190 243 305 346
#
# _framework density 18.384454999999999
#
# number of rings (size 3 to 8) (size 9 to 14) (size 15 to 20)
#    0.400    1.600    1.333    2.400    1.867    0.000 
#    2.400    0.667    5.867    0.000    0.000    0.000 
#    0.000    0.000    0.000    0.000    0.000    0.000 
#
# Total GULP energy -167152.530012 kJ/mol
# GULP energy per Si atom -5571.751000 kJ/mol
# Density = 1.834261 g / cm^3
# Si number density = 18.384455 Si / 1000 Ang^3
#
#
#
# Elastic Constant Matrix: (Units=GPa)
#
#
# Indices 1 2 3 4 5 6 
#
# 1 57.6916 32.1483 21.6125 0.0000 -5.0861 0.0000
# 2 32.1483 97.6705 39.8732 0.0000 5.0571 0.0000
# 3 21.6125 39.8732 85.7016 0.0000 5.8573 0.0000
# 4 0.0000 0.0000 0.0000 25.3835 0.0000 -0.3343
# 5 -5.0861 5.0571 5.8573 0.0000 27.2757 0.0000
# 6 0.0000 0.0000 0.0000 -0.3343 0.0000 19.7646
#
#
#
# Elastic Compliance Matrix: (Units=1/GPa)
#
#
# Indices 1 2 3 4 5 6 
#
# 1 0.022660 -0.006507 -0.003104 0.000000 0.006098 0.000000
# 2 -0.006507 0.014540 -0.004929 0.000000 -0.002851 0.000000
# 3 -0.003104 -0.004929 0.014941 0.000000 -0.002873 0.000000
# 4 0.000000 0.000000 0.000000 0.039404 0.000000 0.000667
# 5 0.006098 -0.002851 -0.002873 0.000000 0.038945 0.000000
# 6 0.000000 0.000000 0.000000 0.000667 0.000000 0.050607
#
#
# Mechanical properties :
#
#
# Convention : Reuss Voigt Hill
#
# Bulk Modulus (GPa) = 43.36345 47.59242 45.47793
# Shear Modulus (GPa) = 22.95001 24.31340 23.63171
#
# Velocity S-wave (km/s) = 3.53702 3.64056 3.58916
# Velocity P-wave (km/s) = 6.34971 6.60417 6.47819
#
# Compressibility (1/GPa) = 0.02306089
#
# Stress axis : x y z
#
# Youngs Moduli (GPa) = 44.13061 68.77479 66.93091
#
# Poissons Ratio (x) = 0.44753 0.20774
# Poissons Ratio (y) = 0.28717 0.32991
# Poissons Ratio (z) = 0.13697 0.33900
#
# Static dielectric constant tensor:
#      x y z
#    x 1.639190 0.000000 -0.015720 
#    y 0.000000 1.627860 0.000000 
#    z -0.015720 0.000000 1.642950 
# 
# From -- ./inp_files/281686.got.cif
#   From: 2010.05.17/outbox.cif.g08.bks.cpg/sg15_141_cif.got.tgz:281686.got - 2010.06.03 18:47:42.
