data_PCOD9259422
_publ_section_title
;
Structure prediction by ZEFSAII (Michael W. Deem and Ramdas Pophale) SiO2 
 PCOD9259422
Probable space group: C 2/C
;
_chemical_formula_sum "Si O2"
_cell_formula_units_Z 48
_cell_length_a 9.300580
_cell_length_b 16.182765
_cell_length_c 18.865721
_cell_angle_alpha 90.000000
_cell_angle_beta 53.564903
_cell_angle_gamma 90.000000
_cell_volume 2284.433330
_symmetry_space_group_name_H-M "C 2/C"
_symmetry_group_IT_number 15
_symmetry_cell_setting 'monoclinic'
loop_
_space_group_symop_operation_xyz
x,y,z
-x,y,1/2-z
-x,-y,-z
x,-y,1/2+z
1/2+x,1/2+y,z
1/2-x,1/2+y,1/2-z
1/2-x,1/2-y,-z
1/2+x,1/2-y,1/2+z
loop_
_atom_site_type_symbol
_atom_site_label
_atom_site_fract_x
_atom_site_fract_y
_atom_site_fract_z
Si Si1 0.078778 0.053429 0.326142
Si Si2 0.691591 0.417372 0.088424
Si Si3 0.279514 0.030571 0.408584
Si Si4 0.492754 0.804679 0.020832
Si Si5 0.328631 0.359424 0.003647
Si Si6 0.140324 0.438193 0.870996
O O1 0.182017 0.078833 0.225704
O O2 0.918331 0.110579 0.403145
O O3 0.215871 0.060285 0.351545
O O4 0.000525 0.959675 0.339429
O O5 0.820923 0.487191 0.085739
O O6 0.708884 0.420425 0.998458
O O7 0.785141 0.332780 0.088464
O O8 0.193994 0.940476 0.443370
O O9 0.490457 0.030480 0.359852
O O10 0.627360 0.829007 0.045744
O O11 0.564280 0.858945 0.934036
O O12 0.544694 0.709172 0.998801
#
# Coordination Sequence:
#
# PCOD9259422 Si02
#       6
#     8   8   8   8   8   8
#     4  11  22  33  58  86 118 147 197 252 288 332
#     4  10  18  35  57  82 109 149 203 229 279 350
#     4  10  19  37  56  83 113 149 193 239 284 351
#     4  10  19  34  59  83 111 154 191 238 282 359
#     4  10  19  35  57  84 113 149 194 232 294 347
#     4  11  19  36  58  85 112 155 198 244 290 338
#
# _framework density 21.011775
#
# number of rings (size 3 to 8) (size 9 to 14) (size 15 to 20)
#    0.000    1.667    5.000    4.000    0.000    0.000 
#    0.000    9.167    3.667    2.000    0.000    0.000 
#    0.000    0.000    0.000    0.000    0.000    0.000 
#
# Total GULP energy -133709.142688 kJ/mol
# GULP energy per Si atom -5571.214279 kJ/mol
# Density = 2.096395 g / cm^3
# Si number density = 21.011775 Si / 1000 Ang^3
#
#
#
# Elastic Constant Matrix: (Units=GPa)
#
#
# Indices 1 2 3 4 5 6 
#
# 1 124.6503 24.5488 -1.1340 0.0000 -7.1514 0.0000
# 2 24.5488 82.5232 -3.5967 0.0000 -1.2430 0.0000
# 3 -1.1340 -3.5967 61.2013 -0.0001 1.9956 0.0000
# 4 0.0000 0.0000 -0.0001 11.4788 0.0001 -8.2266
# 5 -7.1514 -1.2430 1.9956 0.0001 27.2151 0.0000
# 6 0.0000 0.0000 0.0000 -8.2266 0.0000 42.9263
#
#
#
# Elastic Compliance Matrix: (Units=1/GPa)
#
#
# Indices 1 2 3 4 5 6 
#
# 1 0.008647 -0.002542 -0.000060 0.000000 0.002160 0.000000
# 2 -0.002542 0.012903 0.000715 0.000000 -0.000131 0.000000
# 3 -0.000060 0.000715 0.016419 0.000000 -0.001187 0.000000
# 4 0.000000 0.000000 0.000000 0.100987 0.000000 0.019354
# 5 0.002160 -0.000131 -0.001187 0.000000 0.037393 0.000000
# 6 0.000000 0.000000 0.000000 0.019354 0.000000 0.027005
#
#
# Mechanical properties :
#
#
# Convention : Reuss Voigt Hill
#
# Bulk Modulus (GPa) = 29.24302 34.22345 31.73323
# Shear Modulus (GPa) = 22.88063 32.89449 27.88756
#
# Velocity S-wave (km/s) = 3.30349 3.96097 3.64708
# Velocity P-wave (km/s) = 5.33839 6.10263 5.73326
#
# Compressibility (1/GPa) = 0.03419620
#
# Stress axis : x y z
#
# Youngs Moduli (GPa) = 115.65364 77.49985 60.90444
#
# Poissons Ratio (x) = 0.19702 0.00363
# Poissons Ratio (y) = 0.29401 -0.04358
# Poissons Ratio (z) = 0.00690 -0.05545
#
# Static dielectric constant tensor:
#      x y z
#    x 1.851930 0.000000 -0.062360 
#    y 0.000000 1.793720 0.000000 
#    z -0.062360 0.000000 1.774400 
# 
# From -- ./inp_files/189950.got.cif
#   From: 2010.05.17/outbox.cif.g08.bks.cpg/sg15_95_cif.got.tgz:189950.got - 2010.06.03 18:47:42.
