data_PCOD9259231
_publ_section_title
;
Structure prediction by ZEFSAII (Michael W. Deem and Ramdas Pophale) SiO2 
 PCOD9259231
Probable space group: C 2/C
;
_chemical_formula_sum "Si O2"
_cell_formula_units_Z 36
_cell_length_a 22.353178
_cell_length_b 11.959359
_cell_length_c 8.981797
_cell_angle_alpha 90.000000
_cell_angle_beta 52.924226
_cell_angle_gamma 90.000000
_cell_volume 1915.691738
_symmetry_space_group_name_H-M "C 2/C"
_symmetry_group_IT_number 15
_symmetry_cell_setting 'monoclinic'
loop_
_space_group_symop_operation_xyz
x,y,z
-x,y,1/2-z
-x,-y,-z
x,-y,1/2+z
1/2+x,1/2+y,z
1/2-x,1/2+y,1/2-z
1/2-x,1/2-y,-z
1/2+x,1/2-y,1/2+z
loop_
_atom_site_type_symbol
_atom_site_label
_atom_site_fract_x
_atom_site_fract_y
_atom_site_fract_z
Si Si1 0.766925 0.626397 0.529704
Si Si2 0.500000 0.927216 0.250000
Si Si3 0.223153 0.090327 0.939681
Si Si4 0.868779 0.717470 0.804460
Si Si5 0.076692 0.640869 0.080229
O O1 0.750000 0.750000 0.500000
O O2 0.738641 0.605228 0.741094
O O3 0.726919 0.537947 0.481997
O O4 0.857702 0.616521 0.400113
O O5 0.562414 0.847879 0.226060
O O6 0.545892 0.017284 0.079033
O O7 0.292905 0.144173 0.927245
O O8 0.151307 0.162727 0.096545
O O9 0.887934 0.715424 0.601269
O O10 0.000000 0.696576 0.250000
#
# Coordination Sequence:
#
# PCOD9259231 Si02
#       5
#     8   4   8   8   8
#     4  11  24  40  66  91 125 165 207 256 305 372
#     4  10  18  34  62  90 118 160 208 252 312 358
#     4  10  23  39  60  93 125 158 206 251 316 361
#     4  10  20  35  59  90 126 154 196 263 310 362
#     4   9  20  35  58  93 120 156 206 258 303 362
#
# _framework density 18.792166999999999
#
# number of rings (size 3 to 8) (size 9 to 14) (size 15 to 20)
#    0.667    1.333    2.222    0.667    9.333    1.778 
#    0.000    0.000    2.444    2.667    0.000    0.000 
#    0.000    0.000    0.000    0.000    0.000    0.000 
#
# Total GULP energy -100214.355068 kJ/mol
# GULP energy per Si atom -5567.464170 kJ/mol
# Density = 1.874940 g / cm^3
# Si number density = 18.792167 Si / 1000 Ang^3
#
#
#
# Elastic Constant Matrix: (Units=GPa)
#
#
# Indices 1 2 3 4 5 6 
#
# 1 80.6474 42.5991 24.0778 0.0000 -3.2383 0.0000
# 2 42.5991 142.0542 48.0778 0.0000 6.1779 0.0000
# 3 24.0778 48.0778 69.0933 0.0000 -5.4151 0.0000
# 4 0.0000 0.0000 0.0000 28.4263 0.0000 0.6952
# 5 -3.2383 6.1779 -5.4151 0.0000 28.1406 0.0000
# 6 0.0000 0.0000 0.0000 0.6952 0.0000 18.7883
#
#
#
# Elastic Compliance Matrix: (Units=1/GPa)
#
#
# Indices 1 2 3 4 5 6 
#
# 1 0.015246 -0.003822 -0.002488 0.000000 0.002115 0.000000
# 2 -0.003822 0.010479 -0.006269 0.000000 -0.003947 0.000000
# 3 -0.002488 -0.006269 0.020091 0.000000 0.004956 0.000000
# 4 0.000000 0.000000 0.000000 0.035210 0.000000 -0.001303
# 5 0.002115 -0.003947 0.004956 0.000000 0.037599 0.000000
# 6 0.000000 0.000000 0.000000 -0.001303 0.000000 0.053273
#
#
# Mechanical properties :
#
#
# Convention : Reuss Voigt Hill
#
# Bulk Modulus (GPa) = 48.40683 57.92270 53.16476
# Shear Modulus (GPa) = 24.51665 26.87373 25.69519
#
# Velocity S-wave (km/s) = 3.61587 3.78570 3.70176
# Velocity P-wave (km/s) = 6.57630 7.07096 6.82811
#
# Compressibility (1/GPa) = 0.02065824
#
# Stress axis : x y z
#
# Youngs Moduli (GPa) = 65.59042 95.42760 49.77367
#
# Poissons Ratio (x) = 0.36472 0.12383
# Poissons Ratio (y) = 0.25069 0.31204
# Poissons Ratio (z) = 0.16317 0.59826
#
# Static dielectric constant tensor:
#      x y z
#    x 1.684550 0.000000 0.017240 
#    y 0.000000 1.659680 0.000000 
#    z 0.017240 0.000000 1.704570 
# 
# From -- ./inp_files/53923.got.cif
#   From: 2010.05.17/outbox.cif.g08.bks.cpg/sg15_27_cif.got.tgz:53923.got - 2010.06.03 18:47:42.
