data_PCOD9259136
_publ_section_title
;
Structure prediction by ZEFSAII (Michael W. Deem and Ramdas Pophale) SiO2 
 PCOD9259136
Probable space group: C 2/C
;
_chemical_formula_sum "Si O2"
_cell_formula_units_Z 52
_cell_length_a 23.238471
_cell_length_b 11.022742
_cell_length_c 14.516568
_cell_angle_alpha 90.000000
_cell_angle_beta 133.060910
_cell_angle_gamma 90.000000
_cell_volume 2716.799677
_symmetry_space_group_name_H-M "C 2/C"
_symmetry_group_IT_number 15
_symmetry_cell_setting 'monoclinic'
loop_
_space_group_symop_operation_xyz
x,y,z
-x,y,1/2-z
-x,-y,-z
x,-y,1/2+z
1/2+x,1/2+y,z
1/2-x,1/2+y,1/2-z
1/2-x,1/2-y,-z
1/2+x,1/2-y,1/2+z
loop_
_atom_site_type_symbol
_atom_site_label
_atom_site_fract_x
_atom_site_fract_y
_atom_site_fract_z
Si Si1 0.212005 0.730053 0.058225
Si Si2 0.500000 0.176030 0.250000
Si Si3 0.884034 0.508893 0.011456
Si Si4 0.354489 0.194882 0.829644
Si Si5 0.492520 0.649237 0.577656
Si Si6 0.518635 0.849122 0.164995
Si Si7 0.567662 0.387956 0.970920
O O1 0.278898 0.736211 0.209548
O O2 0.147748 0.833385 0.016022
O O3 0.250000 0.750000 0.000000
O O4 0.170019 0.599295 0.011131
O O5 0.426439 0.096567 0.132265
O O6 0.476881 0.261687 0.310021
O O7 0.956530 0.434101 0.043642
O O8 0.839728 0.591583 0.888988
O O9 0.396620 0.135141 0.786250
O O10 0.420036 0.281857 0.947727
O O11 0.457155 0.524443 0.579284
O O12 0.558502 0.620519 0.572438
O O13 0.500000 0.878576 0.250000
O O14 0.497196 0.708099 0.134030
#
# Coordination Sequence:
#
# PCOD9259136 Si02
#       7
#     8   4   8   8   8   8   8
#     4  11  24  41  59  91 123 164 204 245 314 375
#     4  10  20  38  64  94 118 146 208 254 306 350
#     4  10  21  38  60  89 122 155 198 255 299 360
#     4  10  21  36  61  85 121 156 196 249 305 365
#     4   9  20  39  62  91 115 158 203 255 303 361
#     4  10  18  34  60  89 112 153 206 246 293 348
#     4   9  20  38  58  87 118 154 204 249 305 355
#
# _framework density 19.140167000000002
#
# number of rings (size 3 to 8) (size 9 to 14) (size 15 to 20)
#    0.000    2.154    0.769    2.308    3.231    1.231 
#    2.769    0.000    0.000    3.692    0.000    0.000 
#    0.000    0.000    0.000    0.000    0.000    0.000 
#
# Total GULP energy -144835.438839 kJ/mol
# GULP energy per Si atom -5570.593801 kJ/mol
# Density = 1.909660 g / cm^3
# Si number density = 19.140167 Si / 1000 Ang^3
#
#
#
# Elastic Constant Matrix: (Units=GPa)
#
#
# Indices 1 2 3 4 5 6 
#
# 1 102.9190 48.1857 37.7148 0.0000 -3.3245 0.0000
# 2 48.1857 121.3515 47.4039 0.0000 -10.5755 0.0000
# 3 37.7148 47.4039 88.5352 0.0000 -8.6007 0.0000
# 4 0.0000 0.0000 0.0000 20.7307 0.0000 8.2822
# 5 -3.3245 -10.5755 -8.6007 0.0000 18.9118 0.0000
# 6 0.0000 0.0000 0.0000 8.2822 0.0000 12.6139
#
#
#
# Elastic Compliance Matrix: (Units=1/GPa)
#
#
# Indices 1 2 3 4 5 6 
#
# 1 0.012748 -0.003811 -0.003535 0.000000 -0.001498 0.000000
# 2 -0.003811 0.011778 -0.004298 0.000000 0.003962 0.000000
# 3 -0.003535 -0.004298 0.015493 0.000000 0.004021 0.000000
# 4 0.000000 0.000000 0.000000 0.065391 0.000000 -0.042935
# 5 -0.001498 0.003962 0.004021 0.000000 0.056658 0.000000
# 6 0.000000 0.000000 0.000000 -0.042935 0.000000 0.107468
#
#
# Mechanical properties :
#
#
# Convention : Reuss Voigt Hill
#
# Bulk Modulus (GPa) = 59.77389 64.37940 62.07665
# Shear Modulus (GPa) = 16.75602 22.41804 19.58703
#
# Velocity S-wave (km/s) = 2.96199 3.42608 3.20245
# Velocity P-wave (km/s) = 6.55707 7.02563 6.79539
#
# Compressibility (1/GPa) = 0.01672971
#
# Stress axis : x y z
#
# Youngs Moduli (GPa) = 78.44373 84.90356 64.54676
#
# Poissons Ratio (x) = 0.32361 0.22819
# Poissons Ratio (y) = 0.29899 0.27741
# Poissons Ratio (z) = 0.27732 0.36489
#
# Static dielectric constant tensor:
#      x y z
#    x 1.676990 0.000000 -0.035990 
#    y 0.000000 1.682420 0.000000 
#    z -0.035990 0.000000 1.731810 
# 
# From -- ./inp_files/173008.got.cif
#   From: 2010.05.17/outbox.cif.g08.bks.cpg/sg15_87_cif.got.tgz:173008.got - 2010.06.03 18:47:42.
