data_PCOD9259850
_publ_section_title
;
Structure prediction by ZEFSAII (Michael W. Deem and Ramdas Pophale) SiO2 
 PCOD9259850
Probable space group: C 2/C
;
_chemical_formula_sum "Si O2"
_cell_formula_units_Z 48
_cell_length_a 17.506523
_cell_length_b 9.165429
_cell_length_c 16.636185
_cell_angle_alpha 90.000000
_cell_angle_beta 99.079025
_cell_angle_gamma 90.000000
_cell_volume 2635.912981
_symmetry_space_group_name_H-M "C 2/C"
_symmetry_group_IT_number 15
_symmetry_cell_setting 'monoclinic'
loop_
_space_group_symop_operation_xyz
x,y,z
-x,y,1/2-z
-x,-y,-z
x,-y,1/2+z
1/2+x,1/2+y,z
1/2-x,1/2+y,1/2-z
1/2-x,1/2-y,-z
1/2+x,1/2-y,1/2+z
loop_
_atom_site_type_symbol
_atom_site_label
_atom_site_fract_x
_atom_site_fract_y
_atom_site_fract_z
Si Si1 0.154007 0.165909 0.668542
Si Si2 0.084598 0.869211 0.721881
Si Si3 0.918105 0.591218 0.251358
Si Si4 0.105985 0.644002 0.009656
Si Si5 0.328453 0.153571 0.647829
Si Si6 0.563148 0.878538 0.095456
O O1 0.146579 0.295871 0.731984
O O2 0.116937 0.239323 0.582605
O O3 0.241573 0.125935 0.661726
O O4 0.110092 0.028781 0.698775
O O5 0.139886 0.791338 0.796352
O O6 0.088687 0.770864 0.641489
O O7 0.000000 0.866194 0.750000
O O8 0.882944 0.484376 0.178966
O O9 0.942097 0.484721 0.328395
O O10 0.000000 0.670269 0.250000
O O11 0.162448 0.677006 0.945323
O O12 0.018561 0.648521 0.961134
O O13 0.115436 0.478017 0.045059
#
# Coordination Sequence:
#
# PCOD9259850 Si02
#       6
#     8   8   8   8   8   8
#     4  11  24  33  54  87 118 136 173 235 286 314
#     4  11  21  40  58  82 112 146 181 223 274 323
#     4  10  18  36  58  77 102 148 195 217 254 331
#     4  10  19  36  58  81 108 143 189 220 267 324
#     4  11  20  39  58  79 108 150 184 222 269 327
#     4   9  18  35  60  81 100 147 189 223 254 326
#
# _framework density 18.210008999999999
#
# number of rings (size 3 to 8) (size 9 to 14) (size 15 to 20)
#    0.000    1.667    3.333    3.000    0.000    0.667 
#    0.000    0.833    0.000    0.000    0.000    0.000 
#    0.000    0.000    0.000    0.000    0.000    0.000 
#
# Total GULP energy -133712.060363 kJ/mol
# GULP energy per Si atom -5571.335848 kJ/mol
# Density = 1.816856 g / cm^3
# Si number density = 18.210009 Si / 1000 Ang^3
#
#
#
# Elastic Constant Matrix: (Units=GPa)
#
#
# Indices 1 2 3 4 5 6 
#
# 1 53.5641 15.5605 2.6854 0.0000 -2.6530 0.0000
# 2 15.5605 101.4260 35.1772 0.0000 -3.2466 0.0000
# 3 2.6854 35.1772 70.7675 0.0000 -3.9157 0.0000
# 4 0.0000 0.0000 0.0000 10.0281 0.0000 -4.9548
# 5 -2.6530 -3.2466 -3.9157 0.0000 17.4550 0.0000
# 6 0.0000 0.0000 0.0000 -4.9548 0.0000 19.4445
#
#
#
# Elastic Compliance Matrix: (Units=1/GPa)
#
#
# Indices 1 2 3 4 5 6 
#
# 1 0.019705 -0.003299 0.001037 0.000000 0.002614 0.000000
# 2 -0.003299 0.012480 -0.006053 0.000000 0.000462 0.000000
# 3 0.001037 -0.006053 0.017261 0.000000 0.002904 0.000000
# 4 0.000000 0.000000 0.000000 0.114084 0.000000 0.029071
# 5 0.002614 0.000462 0.002904 0.000000 0.058425 0.000000
# 6 0.000000 0.000000 0.000000 0.029071 0.000000 0.058836
#
#
# Mechanical properties :
#
#
# Convention : Reuss Voigt Hill
#
# Bulk Modulus (GPa) = 30.47321 36.95597 33.71459
# Shear Modulus (GPa) = 16.21491 20.87449 18.54470
#
# Velocity S-wave (km/s) = 2.98726 3.38941 3.19467
# Velocity P-wave (km/s) = 5.35434 5.97125 5.67119
#
# Compressibility (1/GPa) = 0.03281571
#
# Stress axis : x y z
#
# Youngs Moduli (GPa) = 50.74831 80.13138 57.93494
#
# Poissons Ratio (x) = 0.26435 -0.06006
# Poissons Ratio (y) = 0.16742 0.35066
# Poissons Ratio (z) = -0.05261 0.48500
#
# Static dielectric constant tensor:
#      x y z
#    x 1.623340 0.000000 -0.010590 
#    y 0.000000 1.620610 0.000000 
#    z -0.010590 0.000000 1.637550 
# 
# From -- ./inp_files/203027.got.cif
#   From: 2010.05.17/outbox.cif.g08.bks.cpg/sg15_102_cif.got.tgz:203027.got - 2010.06.03 18:47:42.
