data_PCOD9259659
_publ_section_title
;
Structure prediction by ZEFSAII (Michael W. Deem and Ramdas Pophale) SiO2 
 PCOD9259659
Probable space group: C 2/C
;
_chemical_formula_sum "Si O2"
_cell_formula_units_Z 40
_cell_length_a 7.141684
_cell_length_b 23.367804
_cell_length_c 14.414747
_cell_angle_alpha 90.000000
_cell_angle_beta 49.323841
_cell_angle_gamma 90.000000
_cell_volume 1824.429530
_symmetry_space_group_name_H-M "C 2/C"
_symmetry_group_IT_number 15
_symmetry_cell_setting 'monoclinic'
loop_
_space_group_symop_operation_xyz
x,y,z
-x,y,1/2-z
-x,-y,-z
x,-y,1/2+z
1/2+x,1/2+y,z
1/2-x,1/2+y,1/2-z
1/2-x,1/2-y,-z
1/2+x,1/2-y,1/2+z
loop_
_atom_site_type_symbol
_atom_site_label
_atom_site_fract_x
_atom_site_fract_y
_atom_site_fract_z
Si Si1 0.898626 0.414666 0.479229
Si Si2 0.760931 0.285319 0.721890
Si Si3 0.105974 0.466634 0.588213
Si Si4 0.161387 0.089901 0.321341
Si Si5 0.004043 0.716506 0.545907
O O1 0.854949 0.465553 0.420234
O O2 0.624615 0.408212 0.610619
O O3 0.976157 0.350261 0.431817
O O4 0.092591 0.441987 0.488676
O O5 0.500000 0.280803 0.750000
O O6 0.772463 0.348872 0.759572
O O7 0.971164 0.278657 0.574609
O O8 0.720298 0.244135 0.823689
O O9 0.293704 0.428372 0.586751
O O10 0.831815 0.456069 0.715807
O O11 0.250000 0.750000 0.500000
#
# Coordination Sequence:
#
# PCOD9259659 Si02
#       5
#     8   8   8   8   8
#     4  11  20  40  60  87 126 158 203 264 306 366
#     4  10  18  35  62  90 118 164 205 256 305 374
#     4  10  23  34  61  91 116 163 208 244 314 384
#     4  11  19  39  60  87 123 160 206 248 319 370
#     4  10  19  35  63  92 116 165 212 247 320 367
#
# _framework density 21.924662999999999
#
# number of rings (size 3 to 8) (size 9 to 14) (size 15 to 20)
#    0.000    1.600    6.000    1.200    0.000    0.000 
#   10.800    1.000    0.000    0.000    0.000    0.000 
#    0.000    0.000    0.000    0.000    0.000    0.000 
#
# Total GULP energy -111473.124287 kJ/mol
# GULP energy per Si atom -5573.656214 kJ/mol
# Density = 2.187476 g / cm^3
# Si number density = 21.924663 Si / 1000 Ang^3
#
#
#
# Elastic Constant Matrix: (Units=GPa)
#
#
# Indices 1 2 3 4 5 6 
#
# 1 66.7974 10.7385 25.5437 0.0002 11.9223 -0.0001
# 2 10.7385 180.7274 80.6681 0.0001 6.7301 0.0000
# 3 25.5437 80.6681 103.2878 0.0002 5.6411 -0.0001
# 4 0.0002 0.0001 0.0002 -746.9380 -0.0002 284.5846
# 5 11.9223 6.7301 5.6411 -0.0002 30.9532 0.0001
# 6 -0.0001 0.0000 -0.0001 284.5846 0.0001 -84.4085
#
#
#
# Elastic Compliance Matrix: (Units=1/GPa)
#
#
# Indices 1 2 3 4 5 6 
#
# 1 0.017853 0.001520 -0.005261 0.000000 -0.006248 0.000000
# 2 0.001520 0.008637 -0.007057 0.000000 -0.001177 0.000000
# 3 -0.005261 -0.007057 0.016464 0.000000 0.000560 0.000000
# 4 0.000000 0.000000 0.000000 0.004705 0.000000 0.015863
# 5 -0.006248 -0.001177 0.000560 0.000000 0.034867 0.000000
# 6 0.000000 0.000000 0.000000 0.015863 0.000000 0.041634
#
#
# Mechanical properties :
#
#
# Convention : Reuss Voigt Hill
#
# Bulk Modulus (GPa) = 46.82125 64.96814 55.89470
# Shear Modulus (GPa) = 32.70639 -144.48785 -55.89073
#
# Velocity S-wave (km/s) = 3.86652 -8.12681 -5.05445
# Velocity P-wave (km/s) = 6.42925 7.63959 2.91788
#
# Compressibility (1/GPa) = 0.02135782
#
# Stress axis : x y z
#
# Youngs Moduli (GPa) = 56.01152 115.78711 60.73988
#
# Poissons Ratio (x) = -0.17603 0.31957
# Poissons Ratio (y) = -0.08515 0.42863
# Poissons Ratio (z) = 0.29470 0.81709
#
# Static dielectric constant tensor:
#      x y z
#    x 1.945620 0.000000 -0.011370 
#    y 0.000000 1.787960 0.000000 
#    z -0.011370 0.000000 2.052340 
# 
# From -- ./inp_files/135769.got.cif
#   From: 2010.05.17/outbox.cif.g08.bks.cpg/sg15_68_cif.got.tgz:135769.got - 2010.06.03 18:47:42.
