data_PCOD9259056
_publ_section_title
;
Structure prediction by ZEFSAII (Michael W. Deem and Ramdas Pophale) SiO2 
 PCOD9259056
Probable space group: C 2/C
;
_chemical_formula_sum "Si O2"
_cell_formula_units_Z 44
_cell_length_a 8.842514
_cell_length_b 13.960898
_cell_length_c 14.832781
_cell_angle_alpha 90.000000
_cell_angle_beta 108.769252
_cell_angle_gamma 90.000000
_cell_volume 1733.724422
_symmetry_space_group_name_H-M "C 2/C"
_symmetry_group_IT_number 15
_symmetry_cell_setting 'monoclinic'
loop_
_space_group_symop_operation_xyz
x,y,z
-x,y,1/2-z
-x,-y,-z
x,-y,1/2+z
1/2+x,1/2+y,z
1/2-x,1/2+y,1/2-z
1/2-x,1/2-y,-z
1/2+x,1/2-y,1/2+z
loop_
_atom_site_type_symbol
_atom_site_label
_atom_site_fract_x
_atom_site_fract_y
_atom_site_fract_z
Si Si1 0.500000 0.988905 0.750000
Si Si2 0.154484 0.339512 0.644651
Si Si3 0.334066 0.152514 0.979051
Si Si4 0.290552 0.524208 0.919948
Si Si5 0.963954 0.114296 0.099626
Si Si6 0.647682 0.209929 0.709144
O O1 0.587502 0.917721 0.699322
O O2 0.637916 0.043073 0.830367
O O3 0.326569 0.376146 0.646033
O O4 0.194886 0.241612 0.705867
O O5 0.021178 0.336238 0.541459
O O6 0.321087 0.137947 0.868120
O O7 0.250000 0.250000 0.000000
O O8 0.262645 0.060316 0.019378
O O9 0.432139 0.481297 0.886686
O O10 0.362434 0.612985 0.987715
O O11 0.089352 0.197761 0.139762
O O12 0.500000 0.199141 0.750000
#
# Coordination Sequence:
#
# PCOD9259056 Si02
#       6
#     4   8   8   8   8   8
#     4  10  18  34  58  94 110 170 194 256 304 398
#     4  10  21  37  68  82 124 163 216 242 318 379
#     4  11  21  38  63  92 125 162 207 265 313 377
#     4  10  21  37  65  89 128 157 213 257 322 370
#     4  10  20  38  63  91 115 168 208 261 303 383
#     4  10  20  38  65  89 119 165 214 250 313 381
#
# _framework density 25.378888
#
# number of rings (size 3 to 8) (size 9 to 14) (size 15 to 20)
#    0.000    1.818    3.636    1.091    0.000    5.818 
#    0.000    0.000   28.000    0.000    0.000    0.000 
#    0.000    0.000    0.000    0.000    0.000    0.000 
#
# Total GULP energy -123089.455370 kJ/mol
# GULP energy per Si atom -5594.975244 kJ/mol
# Density = 2.532112 g / cm^3
# Si number density = 25.378888 Si / 1000 Ang^3
#
#
#
# Elastic Constant Matrix: (Units=GPa)
#
#
# Indices 1 2 3 4 5 6 
#
# 1 111.8124 0.7384 25.7376 0.0000 4.6567 0.0000
# 2 0.7384 46.6070 19.8625 0.0000 1.1584 0.0000
# 3 25.7376 19.8625 136.4819 0.0000 13.7698 0.0000
# 4 0.0000 0.0000 0.0000 35.7936 0.0000 25.7094
# 5 4.6567 1.1584 13.7698 0.0000 48.7582 0.0000
# 6 0.0000 0.0000 0.0000 25.7094 0.0000 -29.0536
#
#
#
# Elastic Compliance Matrix: (Units=1/GPa)
#
#
# Indices 1 2 3 4 5 6 
#
# 1 0.009375 0.000637 -0.001821 0.000000 -0.000396 0.000000
# 2 0.000637 0.022926 -0.003495 0.000000 0.000382 0.000000
# 3 -0.001821 -0.003495 0.008392 0.000000 -0.002113 0.000000
# 4 0.000000 0.000000 0.000000 0.017081 0.000000 0.015115
# 5 -0.000396 0.000382 -0.002113 0.000000 0.021135 0.000000
# 6 0.000000 0.000000 0.000000 0.015115 0.000000 -0.021044
#
#
# Mechanical properties :
#
#
# Convention : Reuss Voigt Hill
#
# Bulk Modulus (GPa) = 31.91224 43.06427 37.48826
# Shear Modulus (GPa) = 64.37674 27.67050 46.02362
#
# Velocity S-wave (km/s) = 5.04196 3.30555 4.26309
# Velocity P-wave (km/s) = 6.81885 5.61909 6.24784
#
# Compressibility (1/GPa) = 0.03133594
#
# Stress axis : x y z
#
# Youngs Moduli (GPa) = 106.66736 43.61869 119.15873
#
# Poissons Ratio (x) = -0.02780 0.21695
# Poissons Ratio (y) = -0.06797 0.41648
# Poissons Ratio (z) = 0.19421 0.15245
#
# Static dielectric constant tensor:
#      x y z
#    x 1.932040 0.000000 -0.017130 
#    y 0.000000 2.079850 0.000000 
#    z -0.017130 0.000000 2.053450 
# 
# From -- ./inp_files/134260.got.cif
#   From: 2010.05.17/outbox.cif.g08.bks.cpg/sg15_68_cif.got.tgz:134260.got - 2010.06.03 18:47:42.
