data_PCOD9259851
_publ_section_title
;
Structure prediction by ZEFSAII (Michael W. Deem and Ramdas Pophale) SiO2 
 PCOD9259851
Probable space group: C 2/C
;
_chemical_formula_sum "Si O2"
_cell_formula_units_Z 48
_cell_length_a 16.848266
_cell_length_b 8.859074
_cell_length_c 20.626819
_cell_angle_alpha 90.000000
_cell_angle_beta 59.807493
_cell_angle_gamma 90.000000
_cell_volume 2661.096967
_symmetry_space_group_name_H-M "C 2/C"
_symmetry_group_IT_number 15
_symmetry_cell_setting 'monoclinic'
loop_
_space_group_symop_operation_xyz
x,y,z
-x,y,1/2-z
-x,-y,-z
x,-y,1/2+z
1/2+x,1/2+y,z
1/2-x,1/2+y,1/2-z
1/2-x,1/2-y,-z
1/2+x,1/2-y,1/2+z
loop_
_atom_site_type_symbol
_atom_site_label
_atom_site_fract_x
_atom_site_fract_y
_atom_site_fract_z
Si Si1 0.604140 0.611408 0.685973
Si Si2 0.778754 0.882415 0.776197
Si Si3 0.534626 0.207809 0.807673
Si Si4 0.626032 0.387094 0.566202
Si Si5 0.741650 0.317119 0.403435
Si Si6 0.359778 0.945776 0.781669
O O1 0.500000 0.578818 0.750000
O O2 0.676750 0.520261 0.701359
O O3 0.612083 0.544878 0.609740
O O4 0.619231 0.787810 0.693081
O O5 0.867096 0.783451 0.720023
O O6 0.718016 0.775963 0.848421
O O7 0.719470 0.927203 0.739346
O O8 0.500000 0.253820 0.750000
O O9 0.461517 0.277704 0.886986
O O10 0.556009 0.029680 0.790146
O O11 0.660242 0.390472 0.478302
O O12 0.706881 0.305538 0.573382
O O13 0.818251 0.438890 0.351493
#
# Coordination Sequence:
#
# PCOD9259851 Si02
#       6
#     8   8   8   8   8   8
#     4  11  19  32  57  84 104 140 188 231 261 313
#     4  10  19  37  55  79 110 146 180 217 278 333
#     4  11  17  37  58  79 103 150 192 212 262 334
#     4  10  18  36  58  78 109 145 187 224 267 326
#     4   9  20  35  57  81 107 147 182 222 277 323
#     4  11  22  32  57  85 112 135 185 234 271 317
#
# _framework density 18.037673999999999
#
# number of rings (size 3 to 8) (size 9 to 14) (size 15 to 20)
#    0.000    1.667    6.667    2.500    0.000    0.667 
#    0.000    1.667    0.000    0.000    0.000    0.000 
#    0.000    0.000    0.000    0.000    0.000    0.000 
#
# Total GULP energy -133676.611977 kJ/mol
# GULP energy per Si atom -5569.858832 kJ/mol
# Density = 1.799662 g / cm^3
# Si number density = 18.037674 Si / 1000 Ang^3
#
#
#
# Elastic Constant Matrix: (Units=GPa)
#
#
# Indices 1 2 3 4 5 6 
#
# 1 47.9544 -3.7757 -0.7613 0.0000 -2.2889 0.0000
# 2 -3.7757 102.7851 6.5084 0.0000 -5.4246 0.0001
# 3 -0.7613 6.5084 72.6780 0.0000 -16.9354 0.0000
# 4 0.0000 0.0000 0.0000 5.7868 0.0000 -7.2409
# 5 -2.2889 -5.4246 -16.9354 0.0000 15.9960 0.0000
# 6 0.0000 0.0001 0.0000 -7.2409 0.0000 21.7260
#
#
#
# Elastic Compliance Matrix: (Units=1/GPa)
#
#
# Indices 1 2 3 4 5 6 
#
# 1 0.021168 0.000945 0.001218 0.000000 0.004639 0.000000
# 2 0.000945 0.009950 -0.000084 0.000000 0.003420 0.000000
# 3 0.001218 -0.000084 0.018338 0.000000 0.019560 0.000000
# 4 0.000000 0.000000 0.000000 0.296422 0.000000 0.098792
# 5 0.004639 0.003420 0.019560 0.000000 0.085048 0.000000
# 6 0.000000 0.000000 0.000000 0.098792 0.000000 0.078953
#
#
# Mechanical properties :
#
#
# Convention : Reuss Voigt Hill
#
# Bulk Modulus (GPa) = 18.65180 25.26228 21.95704
# Shear Modulus (GPa) = 9.54943 23.46483 16.50713
#
# Velocity S-wave (km/s) = 2.30340 3.61068 3.02842
# Velocity P-wave (km/s) = 4.17578 5.60521 4.94244
#
# Compressibility (1/GPa) = 0.05361413
#
# Stress axis : x y z
#
# Youngs Moduli (GPa) = 47.24038 100.50659 54.53295
#
# Poissons Ratio (x) = -0.09501 -0.06643
# Poissons Ratio (y) = -0.04466 0.00459
# Poissons Ratio (z) = -0.05754 0.00845
#
# Static dielectric constant tensor:
#      x y z
#    x 1.623410 0.000000 -0.012460 
#    y 0.000000 1.682240 0.000000 
#    z -0.012460 0.000000 1.657210 
# 
# From -- ./inp_files/208533.got.cif
#   From: 2010.05.17/outbox.cif.g08.bks.cpg/sg15_105_cif.got.tgz:208533.got - 2010.06.03 18:47:42.
