data_PCOD9259137
_publ_section_title
;
Structure prediction by ZEFSAII (Michael W. Deem and Ramdas Pophale) SiO2 
 PCOD9259137
Probable space group: C 2/C
;
_chemical_formula_sum "Si O2"
_cell_formula_units_Z 48
_cell_length_a 23.729434
_cell_length_b 13.006156
_cell_length_c 13.036359
_cell_angle_alpha 90.000000
_cell_angle_beta 146.837978
_cell_angle_gamma 90.000000
_cell_volume 2200.830998
_symmetry_space_group_name_H-M "C 2/C"
_symmetry_group_IT_number 15
_symmetry_cell_setting 'monoclinic'
loop_
_space_group_symop_operation_xyz
x,y,z
-x,y,1/2-z
-x,-y,-z
x,-y,1/2+z
1/2+x,1/2+y,z
1/2-x,1/2+y,1/2-z
1/2-x,1/2-y,-z
1/2+x,1/2-y,1/2+z
loop_
_atom_site_type_symbol
_atom_site_label
_atom_site_fract_x
_atom_site_fract_y
_atom_site_fract_z
Si Si1 0.300058 0.799749 0.413491
Si Si2 0.074628 0.716391 0.782207
Si Si3 0.371368 0.327208 0.831910
Si Si4 0.600087 0.719820 0.745882
Si Si5 0.695880 0.962917 0.592799
Si Si6 0.925862 0.407732 0.908030
O O1 0.311039 0.753308 0.315559
O O2 0.360453 0.717131 0.577563
O O3 0.187130 0.806940 0.294255
O O4 0.336301 0.918714 0.469197
O O5 0.135492 0.788480 0.796350
O O6 0.000000 0.772397 0.750000
O O7 0.992390 0.665174 0.581524
O O8 0.135080 0.622002 0.930018
O O9 0.314456 0.436042 0.753291
O O10 0.489578 0.327543 0.051184
O O11 0.593689 0.843482 0.722295
O O12 0.672158 0.938611 0.675684
O O13 0.000000 0.500000 0.000000
#
# Coordination Sequence:
#
# PCOD9259137 Si02
#       6
#     8   8   8   8   8   8
#     4  11  23  39  62  87 124 167 204 257 308 377
#     4   9  20  35  59  87 119 158 205 258 304 365
#     4  11  22  40  63  89 127 162 204 263 315 367
#     4  10  22  40  59  86 126 158 207 255 312 362
#     4  11  21  36  60  94 121 160 209 250 316 373
#     4  10  18  34  60  89 116 154 207 259 299 363
#
# _framework density 21.809943000000001
#
# number of rings (size 3 to 8) (size 9 to 14) (size 15 to 20)
#    0.000    1.667    1.667    4.000    0.000    3.333 
#    0.000    0.000    0.000    0.000    0.000    0.000 
#    0.000    0.000    0.000    0.000    0.000    0.000 
#
# Total GULP energy -133723.440037 kJ/mol
# GULP energy per Si atom -5571.810002 kJ/mol
# Density = 2.176030 g / cm^3
# Si number density = 21.809943 Si / 1000 Ang^3
#
#
#
# Elastic Constant Matrix: (Units=GPa)
#
#
# Indices 1 2 3 4 5 6 
#
# 1 105.5478 9.4126 12.5200 0.0000 -4.1113 0.0000
# 2 9.4126 28.6428 -1.1154 0.0000 -3.5038 0.0000
# 3 12.5200 -1.1154 55.1162 0.0000 3.6010 0.0000
# 4 0.0000 0.0000 0.0000 14.3889 0.0000 6.4142
# 5 -4.1113 -3.5038 3.6010 0.0000 32.3953 0.0000
# 6 0.0000 0.0000 0.0000 6.4142 0.0000 27.7303
#
#
#
# Elastic Compliance Matrix: (Units=1/GPa)
#
#
# Indices 1 2 3 4 5 6 
#
# 1 0.010102 -0.003268 -0.002439 0.000000 0.001200 0.000000
# 2 -0.003268 0.036450 0.001259 0.000000 0.003388 0.000000
# 3 -0.002439 0.001259 0.018871 0.000000 -0.002271 0.000000
# 4 0.000000 0.000000 0.000000 0.077487 0.000000 -0.017923
# 5 0.001200 0.003388 -0.002271 0.000000 0.031640 0.000000
# 6 0.000000 0.000000 0.000000 -0.017923 0.000000 0.040207
#
#
# Mechanical properties :
#
#
# Convention : Reuss Voigt Hill
#
# Bulk Modulus (GPa) = 17.69085 25.66016 21.67550
# Shear Modulus (GPa) = 20.61880 26.13555 23.37717
#
# Velocity S-wave (km/s) = 3.07805 3.46545 3.27748
# Velocity P-wave (km/s) = 4.55648 5.27289 4.92772
#
# Compressibility (1/GPa) = 0.05652639
#
# Stress axis : x y z
#
# Youngs Moduli (GPa) = 98.99150 27.43478 52.99019
#
# Poissons Ratio (x) = 0.08965 0.12926
# Poissons Ratio (y) = 0.32350 -0.06670
# Poissons Ratio (z) = 0.24146 -0.03453
#
# Static dielectric constant tensor:
#      x y z
#    x 1.886520 0.000000 -0.006690 
#    y 0.000000 1.642260 0.000000 
#    z -0.006690 0.000000 1.862010 
# 
# From -- ./inp_files/96830.got.cif
#   From: 2010.05.17/outbox.cif.g08.bks.cpg/sg15_49_cif.got.tgz:96830.got - 2010.06.03 18:47:42.
