data_PCOD9259754
_publ_section_title
;
Structure prediction by ZEFSAII (Michael W. Deem and Ramdas Pophale) SiO2 
 PCOD9259754
Probable space group: C 2/C
;
_chemical_formula_sum "Si O2"
_cell_formula_units_Z 64
_cell_length_a 9.274523
_cell_length_b 25.269074
_cell_length_c 13.762221
_cell_angle_alpha 90.000000
_cell_angle_beta 92.724860
_cell_angle_gamma 90.000000
_cell_volume 3221.648251
_symmetry_space_group_name_H-M "C 2/C"
_symmetry_group_IT_number 15
_symmetry_cell_setting 'monoclinic'
loop_
_space_group_symop_operation_xyz
x,y,z
-x,y,1/2-z
-x,-y,-z
x,-y,1/2+z
1/2+x,1/2+y,z
1/2-x,1/2+y,1/2-z
1/2-x,1/2-y,-z
1/2+x,1/2-y,1/2+z
loop_
_atom_site_type_symbol
_atom_site_label
_atom_site_fract_x
_atom_site_fract_y
_atom_site_fract_z
Si Si1 0.483353 0.549392 0.148588
Si Si2 0.538962 0.881061 0.862436
Si Si3 0.717856 0.023227 0.435147
Si Si4 0.042300 0.877430 0.038200
Si Si5 0.173913 0.057507 0.854281
Si Si6 0.397055 0.134431 0.826677
Si Si7 0.346287 0.900852 0.030036
Si Si8 0.741552 0.687243 0.996735
O O1 0.500000 0.580369 0.250000
O O2 0.632977 0.523627 0.118674
O O3 0.373367 0.501937 0.168556
O O4 0.441588 0.584164 0.055183
O O5 0.500000 0.868189 0.750000
O O6 0.605158 0.940495 0.873795
O O7 0.657669 0.842158 0.918436
O O8 0.395524 0.883031 0.924193
O O9 0.750026 0.053536 0.537313
O O10 0.678479 0.963702 0.460628
O O11 0.209702 0.866677 0.062819
O O12 0.969210 0.908613 0.125875
O O13 0.923691 0.833846 0.004884
O O14 0.286368 0.087944 0.789493
O O15 0.500000 0.160290 0.750000
O O16 0.515025 0.108880 0.900291
O O17 0.301930 0.171044 0.892559
O O18 0.750000 0.750000 0.000000
#
# Coordination Sequence:
#
# PCOD9259754 Si02
#       8
#     8   8   8   8   8   8   8   8
#     4  11  21  30  53  88 126 165 218 246 282 371
#     4  11  24  39  61  95 128 160 211 266 317 384
#     4  11  19  36  53  84 130 173 201 236 305 369
#     4  10  19  37  60  82 115 163 205 259 306 373
#     4  10  18  36  53  77 125 168 206 235 295 365
#     4  10  23  39  59  92 125 159 212 257 312 384
#     4  11  21  36  59  89 130 170 204 247 309 379
#     4  10  22  48  71  85 117 167 207 276 349 374
#
# _framework density 19.865608000000002
#
# number of rings (size 3 to 8) (size 9 to 14) (size 15 to 20)
#    0.000    1.500    7.500    1.125    3.500    0.500 
#    0.000    7.500    0.000    0.000    0.000    0.000 
#    0.000    0.000    0.000    0.000    0.000    0.000 
#
# Total GULP energy -178427.954467 kJ/mol
# GULP energy per Si atom -5575.873577 kJ/mol
# Density = 1.982039 g / cm^3
# Si number density = 19.865608 Si / 1000 Ang^3
#
#
#
# Elastic Constant Matrix: (Units=GPa)
#
#
# Indices 1 2 3 4 5 6 
#
# 1 118.1800 38.0478 17.3865 0.0000 -15.0016 0.0000
# 2 38.0478 88.6843 10.1452 0.0000 -8.3836 0.0000
# 3 17.3865 10.1452 74.5348 0.0000 -5.2531 0.0000
# 4 0.0000 0.0000 0.0000 9.0351 0.0000 1.6760
# 5 -15.0016 -8.3836 -5.2531 0.0000 18.5436 0.0000
# 6 0.0000 0.0000 0.0000 1.6760 0.0000 12.2574
#
#
#
# Elastic Compliance Matrix: (Units=1/GPa)
#
#
# Indices 1 2 3 4 5 6 
#
# 1 0.010745 -0.003817 -0.001526 0.000000 0.006534 0.000000
# 2 -0.003817 0.013251 -0.000723 0.000000 0.002698 0.000000
# 3 -0.001526 -0.000723 0.014041 0.000000 0.002416 0.000000
# 4 0.000000 0.000000 0.000000 0.113559 0.000000 -0.015527
# 5 0.006534 0.002698 0.002416 0.000000 0.061117 0.000000
# 6 0.000000 0.000000 0.000000 -0.015527 0.000000 0.083707
#
#
# Mechanical properties :
#
#
# Convention : Reuss Voigt Hill
#
# Bulk Modulus (GPa) = 38.60427 45.83981 42.22204
# Shear Modulus (GPa) = 15.76349 22.35520 19.05934
#
# Velocity S-wave (km/s) = 2.81998 3.35822 3.10080
# Velocity P-wave (km/s) = 5.48434 6.17753 5.84123
#
# Compressibility (1/GPa) = 0.02590387
#
# Stress axis : x y z
#
# Youngs Moduli (GPa) = 93.06954 75.46319 71.21861
#
# Poissons Ratio (x) = 0.28808 0.10870
# Poissons Ratio (y) = 0.35529 0.05150
# Poissons Ratio (z) = 0.14205 0.05457
#
# Static dielectric constant tensor:
#      x y z
#    x 1.788630 0.000000 0.008190 
#    y 0.000000 1.705180 0.000000 
#    z 0.008190 0.000000 1.780590 
# 
# From -- ./inp_files/138606.got.cif
#   From: 2010.05.17/outbox.cif.g08.bks.cpg/sg15_70_cif.got.tgz:138606.got - 2010.06.03 18:47:42.
