data_PCOD9259955
_publ_section_title
;
Structure prediction by ZEFSAII (Michael W. Deem and Ramdas Pophale) SiO2 
 PCOD9259955
Probable space group: C 2/C
;
_chemical_formula_sum "Si O2"
_cell_formula_units_Z 60
_cell_length_a 18.907331
_cell_length_b 12.337254
_cell_length_c 21.813230
_cell_angle_alpha 90.000000
_cell_angle_beta 36.448644
_cell_angle_gamma 90.000000
_cell_volume 3022.941517
_symmetry_space_group_name_H-M "C 2/C"
_symmetry_group_IT_number 15
_symmetry_cell_setting 'monoclinic'
loop_
_space_group_symop_operation_xyz
x,y,z
-x,y,1/2-z
-x,-y,-z
x,-y,1/2+z
1/2+x,1/2+y,z
1/2-x,1/2+y,1/2-z
1/2-x,1/2-y,-z
1/2+x,1/2-y,1/2+z
loop_
_atom_site_type_symbol
_atom_site_label
_atom_site_fract_x
_atom_site_fract_y
_atom_site_fract_z
Si Si1 0.080161 0.368084 0.347857
Si Si2 0.479565 0.589222 0.960030
Si Si3 0.121495 0.224486 0.061464
Si Si4 0.176601 0.575690 0.327695
Si Si5 0.718416 0.272720 0.849252
Si Si6 0.000000 0.919447 0.750000
Si Si7 0.316952 0.293647 0.115455
Si Si8 0.372683 0.432671 0.253826
O O1 0.075676 0.490803 0.376796
O O2 0.118303 0.290691 0.378321
O O3 0.190362 0.343789 0.224059
O O4 0.961487 0.326873 0.397943
O O5 0.587495 0.669380 0.901475
O O6 0.506418 0.563946 0.870647
O O7 0.500000 0.500000 0.000000
O O8 0.355356 0.650841 0.054120
O O9 0.047251 0.154423 0.161693
O O10 0.250000 0.250000 0.000000
O O11 0.146145 0.170009 0.978037
O O12 0.213559 0.647462 0.244116
O O13 0.174257 0.662983 0.384392
O O14 0.282317 0.495702 0.272558
O O15 0.810969 0.183099 0.809048
O O16 0.103461 0.997198 0.702952
#
# Coordination Sequence:
#
# PCOD9259955 Si02
#       8
#     8   8   8   8   8   4   8   8
#     4  10  20  36  60  91 132 158 195 259 314 367
#     4  12  19  34  64  95 118 157 209 258 314 365
#     4  12  24  40  59  88 126 169 212 251 304 389
#     4  10  18  36  59  94 128 152 196 262 323 357
#     4  10  19  36  59  98 125 151 208 263 314 367
#     4  12  26  46  62  84 128 176 212 250 324 380
#     4  11  21  36  60  94 123 156 205 257 314 369
#     4  11  22  39  62  89 126 167 206 261 315 376
#
# _framework density 19.848217000000002
#
# number of rings (size 3 to 8) (size 9 to 14) (size 15 to 20)
#    0.000    1.067    6.667    4.000    0.000    0.533 
#    2.400    0.667    0.000    4.000    0.000    0.000 
#    0.000    0.000    0.000    0.000    0.000    0.000 
#
# Total GULP energy -167274.632154 kJ/mol
# GULP energy per Si atom -5575.821072 kJ/mol
# Density = 1.980304 g / cm^3
# Si number density = 19.848217 Si / 1000 Ang^3
#
#
#
# Elastic Constant Matrix: (Units=GPa)
#
#
# Indices 1 2 3 4 5 6 
#
# 1 62.5612 16.3682 7.8982 0.0000 -5.8357 0.0000
# 2 16.3682 94.8995 18.1737 0.0000 -2.8309 0.0000
# 3 7.8982 18.1737 84.9966 0.0000 10.1848 0.0000
# 4 0.0000 0.0000 0.0000 19.1924 0.0000 -0.6378
# 5 -5.8357 -2.8309 10.1848 0.0000 30.7801 0.0000
# 6 0.0000 0.0000 0.0000 -0.6378 0.0000 34.0425
#
#
#
# Elastic Compliance Matrix: (Units=1/GPa)
#
#
# Indices 1 2 3 4 5 6 
#
# 1 0.017170 -0.002577 -0.001464 0.000000 0.003503 0.000000
# 2 -0.002577 0.011477 -0.002377 0.000000 0.001354 0.000000
# 3 -0.001464 -0.002377 0.012984 0.000000 -0.004792 0.000000
# 4 0.000000 0.000000 0.000000 0.052136 0.000000 0.000977
# 5 0.003503 0.001354 -0.004792 0.000000 0.034863 0.000000
# 6 0.000000 0.000000 0.000000 0.000977 0.000000 0.029393
#
#
# Mechanical properties :
#
#
# Convention : Reuss Voigt Hill
#
# Bulk Modulus (GPa) = 34.72736 36.37084 35.54910
# Shear Modulus (GPa) = 27.70730 30.13747 28.92239
#
# Velocity S-wave (km/s) = 3.74031 3.90089 3.82144
# Velocity P-wave (km/s) = 6.01562 6.21719 6.11724
#
# Compressibility (1/GPa) = 0.02879574
#
# Stress axis : x y z
#
# Youngs Moduli (GPa) = 58.24085 87.12760 77.01954
#
# Poissons Ratio (x) = 0.22449 0.11278
# Poissons Ratio (y) = 0.15006 0.18306
# Poissons Ratio (z) = 0.08528 0.20709
#
# Static dielectric constant tensor:
#      x y z
#    x 1.692060 0.000000 0.014210 
#    y 0.000000 1.786610 0.000000 
#    z 0.014210 0.000000 1.801430 
# 
# From -- ./inp_files/248762.got.cif
#   From: 2010.05.17/outbox.cif.g08.bks.cpg/sg15_125_cif.got.tgz:248762.got - 2010.06.03 18:47:42.
