data_PCOD9259189
_publ_section_title
;
Structure prediction by ZEFSAII (Michael W. Deem and Ramdas Pophale) SiO2 
 PCOD9259189
Probable space group: C 2/C
;
_chemical_formula_sum "Si O2"
_cell_formula_units_Z 64
_cell_length_a 20.685444
_cell_length_b 9.789151
_cell_length_c 32.595983
_cell_angle_alpha 90.000000
_cell_angle_beta 146.956637
_cell_angle_gamma 90.000000
_cell_volume 3599.054597
_symmetry_space_group_name_H-M "C 2/C"
_symmetry_group_IT_number 15
_symmetry_cell_setting 'monoclinic'
loop_
_space_group_symop_operation_xyz
x,y,z
-x,y,1/2-z
-x,-y,-z
x,-y,1/2+z
1/2+x,1/2+y,z
1/2-x,1/2+y,1/2-z
1/2-x,1/2-y,-z
1/2+x,1/2-y,1/2+z
loop_
_atom_site_type_symbol
_atom_site_label
_atom_site_fract_x
_atom_site_fract_y
_atom_site_fract_z
Si Si1 0.619582 0.812960 0.933976
Si Si2 0.036181 0.524999 0.951793
Si Si3 0.928037 0.917838 0.352664
Si Si4 0.789406 0.823985 0.199395
Si Si5 0.540822 0.075883 0.225471
Si Si6 0.174678 0.420459 0.606991
Si Si7 0.084731 0.221221 0.145856
Si Si8 0.283949 0.827643 0.205578
O O1 0.530352 0.691941 0.900147
O O2 0.562073 0.886435 0.862771
O O3 0.615581 0.922561 0.968337
O O4 0.750000 0.750000 0.000000
O O5 0.916616 0.446036 0.903372
O O6 0.002641 0.652336 0.905623
O O7 0.097719 0.581990 0.025148
O O8 0.846224 0.902298 0.268600
O O9 0.840488 0.885889 0.343819
O O10 0.971082 0.072165 0.381683
O O11 0.880163 0.713058 0.231298
O O12 0.675765 0.741918 0.156404
O O13 0.751585 0.941113 0.147908
O O14 0.500000 0.046550 0.250000
O O15 0.625250 0.949950 0.256358
O O16 0.251308 0.284598 0.654061
O O17 0.160064 0.243368 0.226990
#
# Coordination Sequence:
#
# PCOD9259189 Si02
#       8
#     8   8   8   8   8   8   8   8
#     4  11  24  43  62  87 128 173 201 243 311 385
#     4  10  21  38  59  90 127 162 193 248 316 366
#     4  10  19  35  63  93 115 154 209 255 302 358
#     4   9  19  32  60  89 116 152 199 254 302 352
#     4  11  24  41  60  90 124 164 206 252 305 363
#     4  10  20  36  61  93 123 151 199 260 308 357
#     4  10  18  34  61  93 116 148 204 261 302 352
#     4  11  19  37  64  93 122 151 209 263 304 351
#
# _framework density 17.782447000000001
#
# number of rings (size 3 to 8) (size 9 to 14) (size 15 to 20)
#    0.000    1.750    5.000    0.000    1.750    0.000 
#    2.250    3.125    0.000    0.000    0.000    0.000 
#    0.000    0.000    0.000    0.000    0.000    0.000 
#
# Total GULP energy -178390.057330 kJ/mol
# GULP energy per Si atom -5574.689292 kJ/mol
# Density = 1.774197 g / cm^3
# Si number density = 17.782447 Si / 1000 Ang^3
#
#
#
# Elastic Constant Matrix: (Units=GPa)
#
#
# Indices 1 2 3 4 5 6 
#
# 1 65.8174 32.9470 21.4516 0.0000 5.0805 0.0000
# 2 32.9470 107.8425 39.2175 0.0000 5.1232 0.0000
# 3 21.4516 39.2175 69.3856 0.0000 8.7043 0.0000
# 4 0.0000 0.0000 0.0000 28.9093 0.0000 2.0903
# 5 5.0805 5.1232 8.7043 0.0000 8.2220 0.0000
# 6 0.0000 0.0000 0.0000 2.0903 0.0000 20.7981
#
#
#
# Elastic Compliance Matrix: (Units=1/GPa)
#
#
# Indices 1 2 3 4 5 6 
#
# 1 0.018742 -0.004540 -0.002456 0.000000 -0.006151 0.000000
# 2 -0.004540 0.012773 -0.005961 0.000000 0.001157 0.000000
# 3 -0.002456 -0.005961 0.020623 0.000000 -0.016601 0.000000
# 4 0.000000 0.000000 0.000000 0.034844 0.000000 -0.003502
# 5 -0.006151 0.001157 -0.016601 0.000000 0.142279 0.000000
# 6 0.000000 0.000000 0.000000 -0.003502 0.000000 0.048433
#
#
# Mechanical properties :
#
#
# Convention : Reuss Voigt Hill
#
# Bulk Modulus (GPa) = 38.13475 47.80864 42.97169
# Shear Modulus (GPa) = 16.00773 21.54785 18.77779
#
# Velocity S-wave (km/s) = 3.00359 3.48479 3.25310
# Velocity P-wave (km/s) = 5.78968 6.56775 6.19095
#
# Compressibility (1/GPa) = 0.02622280
#
# Stress axis : x y z
#
# Youngs Moduli (GPa) = 53.35677 78.29295 48.48903
#
# Poissons Ratio (x) = 0.35547 0.11911
# Poissons Ratio (y) = 0.24226 0.28903
# Poissons Ratio (z) = 0.13107 0.46668
#
# Static dielectric constant tensor:
#      x y z
#    x 1.614570 0.000000 0.004590 
#    y 0.000000 1.607530 0.000000 
#    z 0.004590 0.000000 1.611160 
# 
# From -- ./inp_files/315752.got.cif
#   From: 2010.05.17/outbox.cif.g08.bks.cpg/sg15_158_cif.got.tgz:315752.got - 2010.06.03 18:47:42.
