data_PCOD9259544
_publ_section_title
;
Structure prediction by ZEFSAII (Michael W. Deem and Ramdas Pophale) SiO2 
 PCOD9259544
Probable space group: C 2/C
;
_chemical_formula_sum "Si O2"
_cell_formula_units_Z 48
_cell_length_a 10.402750
_cell_length_b 16.331718
_cell_length_c 13.164478
_cell_angle_alpha 90.000000
_cell_angle_beta 93.650711
_cell_angle_gamma 90.000000
_cell_volume 2232.037544
_symmetry_space_group_name_H-M "C 2/C"
_symmetry_group_IT_number 15
_symmetry_cell_setting 'monoclinic'
loop_
_space_group_symop_operation_xyz
x,y,z
-x,y,1/2-z
-x,-y,-z
x,-y,1/2+z
1/2+x,1/2+y,z
1/2-x,1/2+y,1/2-z
1/2-x,1/2-y,-z
1/2+x,1/2-y,1/2+z
loop_
_atom_site_type_symbol
_atom_site_label
_atom_site_fract_x
_atom_site_fract_y
_atom_site_fract_z
Si Si1 0.898896 0.781033 0.337888
Si Si2 0.754918 0.980958 0.822917
Si Si3 0.492432 0.555617 0.597582
Si Si4 0.302702 0.947105 0.446190
Si Si5 0.107122 0.600323 0.166081
Si Si6 0.140620 0.647793 0.731448
O O1 0.950271 0.853027 0.413096
O O2 0.902680 0.689775 0.381723
O O3 0.759382 0.801005 0.282886
O O4 0.000000 0.784011 0.250000
O O5 0.899697 0.014387 0.827047
O O6 0.664225 0.057628 0.784752
O O7 0.735015 0.909625 0.740746
O O8 0.715621 0.950462 0.933753
O O9 0.500000 0.500000 0.500000
O O10 0.341124 0.554923 0.610726
O O11 0.360301 0.869443 0.390102
O O12 0.381371 0.027720 0.414704
O O13 0.000000 0.591463 0.250000
O O14 0.000000 0.680017 0.750000
#
# Coordination Sequence:
#
# PCOD9259544 Si02
#       6
#     8   8   8   8   8   8
#     4  10  19  38  58  77 120 157 183 239 300 343
#     4   9  19  34  56  83 111 143 199 241 275 357
#     4   9  18  34  60  84 106 153 210 234 273 361
#     4  10  18  35  60  82 110 155 194 241 289 338
#     4  10  22  35  55  86 115 149 193 236 301 349
#     4  10  20  33  54  83 110 146 195 235 284 348
#
# _framework density 21.505015
#
# number of rings (size 3 to 8) (size 9 to 14) (size 15 to 20)
#    0.000    2.333    1.667    2.000    0.000    2.667 
#    3.000    8.333    3.667    0.000    0.000    0.000 
#    0.000    0.000    0.000    0.000    0.000    0.000 
#
# Total GULP energy -133716.596686 kJ/mol
# GULP energy per Si atom -5571.524862 kJ/mol
# Density = 2.145607 g / cm^3
# Si number density = 21.505015 Si / 1000 Ang^3
#
#
#
# Elastic Constant Matrix: (Units=GPa)
#
#
# Indices 1 2 3 4 5 6 
#
# 1 109.8683 25.6235 -8.4869 0.0000 -2.3696 0.0000
# 2 25.6235 76.1913 -5.3576 0.0000 4.4471 0.0000
# 3 -8.4869 -5.3576 67.9437 0.0000 3.7953 0.0000
# 4 0.0000 0.0000 0.0000 16.2139 0.0000 -2.0142
# 5 -2.3696 4.4471 3.7953 0.0000 29.9900 0.0000
# 6 0.0000 0.0000 0.0000 -2.0142 0.0000 8.4527
#
#
#
# Elastic Compliance Matrix: (Units=1/GPa)
#
#
# Indices 1 2 3 4 5 6 
#
# 1 0.009982 -0.003361 0.000916 0.000000 0.001171 0.000000
# 2 -0.003361 0.014463 0.000861 0.000000 -0.002519 0.000000
# 3 0.000916 0.000861 0.015010 0.000000 -0.001955 0.000000
# 4 0.000000 0.000000 0.000000 0.063557 0.000000 0.015145
# 5 0.001171 -0.002519 -0.001955 0.000000 0.034058 0.000000
# 6 0.000000 0.000000 0.000000 0.015145 0.000000 0.121915
#
#
# Mechanical properties :
#
#
# Convention : Reuss Voigt Hill
#
# Bulk Modulus (GPa) = 27.55739 30.84016 29.19877
# Shear Modulus (GPa) = 18.23182 27.07960 22.65571
#
# Velocity S-wave (km/s) = 2.91485 3.55240 3.24930
# Velocity P-wave (km/s) = 4.91637 5.58553 5.26160
#
# Compressibility (1/GPa) = 0.03628791
#
# Stress axis : x y z
#
# Youngs Moduli (GPa) = 100.18375 69.14330 66.62382
#
# Poissons Ratio (x) = 0.23238 -0.06105
# Poissons Ratio (y) = 0.33670 -0.05739
# Poissons Ratio (z) = -0.09181 -0.05956
#
# Static dielectric constant tensor:
#      x y z
#    x 1.865450 0.000000 0.013370 
#    y 0.000000 1.796380 0.000000 
#    z 0.013370 0.000000 1.658320 
# 
# From -- ./inp_files/143615.got.cif
#   From: 2010.05.17/outbox.cif.g08.bks.cpg/sg15_72_cif.got.tgz:143615.got - 2010.06.03 18:47:42.
