data_PCOD9259858
_publ_section_title
;
Structure prediction by ZEFSAII (Michael W. Deem and Ramdas Pophale) SiO2 
 PCOD9259858
Probable space group: C 2/C
;
_chemical_formula_sum "Si O2"
_cell_formula_units_Z 48
_cell_length_a 6.648800
_cell_length_b 15.337439
_cell_length_c 17.794702
_cell_angle_alpha 90.000000
_cell_angle_beta 80.186711
_cell_angle_gamma 90.000000
_cell_volume 1788.073906
_symmetry_space_group_name_H-M "C 2/C"
_symmetry_group_IT_number 15
_symmetry_cell_setting 'monoclinic'
loop_
_space_group_symop_operation_xyz
x,y,z
-x,y,1/2-z
-x,-y,-z
x,-y,1/2+z
1/2+x,1/2+y,z
1/2-x,1/2+y,1/2-z
1/2-x,1/2-y,-z
1/2+x,1/2-y,1/2+z
loop_
_atom_site_type_symbol
_atom_site_label
_atom_site_fract_x
_atom_site_fract_y
_atom_site_fract_z
Si Si1 0.992313 0.750000 0.001292
Si Si2 0.440358 0.926178 0.173736
Si Si3 0.559641 0.426178 0.826265
Si Si4 0.340799 0.913808 0.574564
Si Si5 0.139465 0.750000 0.819880
Si Si6 0.340799 0.586192 0.574564
O O1 0.008870 0.660019 0.046843
O O2 0.008870 0.839981 0.046843
O O3 0.750000 0.750000 0.000000
O O4 0.100948 0.750000 0.914327
O O5 0.500000 0.965045 0.250000
O O6 0.275610 0.849228 0.192451
O O7 0.645101 0.876423 0.131844
O O8 0.400835 0.002180 0.118017
O O9 0.500000 0.465045 0.750000
O O10 0.354899 0.376423 0.868156
O O11 0.724389 0.349228 0.807550
O O12 0.599164 0.502180 0.881983
O O13 0.250000 0.942114 0.500000
O O14 0.000000 0.750000 0.750000
#
# Coordination Sequence:
#
# PCOD9259858 Si02
#       6
#     8   8   8   8   8   8
#     4  10  18  36  58  80 109 153 191 218 275 350
#     4  11  22  38  58  85 115 149 188 232 279 332
#     4  11  22  38  58  85 115 149 188 232 279 332
#     4  11  21  37  60  85 111 149 192 230 278 331
#     4  10  20  36  58  81 111 152 190 222 274 348
#     4  11  21  37  60  85 111 149 192 230 278 331
#
# _framework density 26.844528
#
# number of rings (size 3 to 8) (size 9 to 14) (size 15 to 20)
#    0.000    1.333    6.667    2.000    0.000    0.000 
#    0.000    3.333    0.000    0.000    0.000    0.000 
#    0.000    0.000    0.000    0.000    0.000    0.000 
#
# Total GULP energy -133774.798362 kJ/mol
# GULP energy per Si atom -5573.949932 kJ/mol
# Density = 2.678343 g / cm^3
# Si number density = 26.844528 Si / 1000 Ang^3
#
#
#
# Elastic Constant Matrix: (Units=GPa)
#
#
# Indices 1 2 3 4 5 6 
#
# 1 49.1933 12.3743 24.9303 0.0000 3.5720 0.0000
# 2 12.3743 255.9412 102.1709 0.0000 43.3717 0.0000
# 3 24.9303 102.1709 215.3091 0.0000 26.7296 0.0000
# 4 0.0000 0.0000 0.0000 63.2744 0.0000 18.4220
# 5 3.5720 43.3717 26.7296 0.0000 31.3315 0.0000
# 6 0.0000 0.0000 0.0000 18.4220 0.0000 9.1925
#
#
#
# Elastic Compliance Matrix: (Units=1/GPa)
#
#
# Indices 1 2 3 4 5 6 
#
# 1 0.021599 -0.000003 -0.002454 0.000000 -0.000365 0.000000
# 2 -0.000003 0.005752 -0.001947 0.000000 -0.006302 0.000000
# 3 -0.002454 -0.001947 0.006133 0.000000 -0.002257 0.000000
# 4 0.000000 0.000000 0.000000 0.037942 0.000000 -0.076036
# 5 -0.000365 -0.006302 -0.002257 0.000000 0.042607 0.000000
# 6 0.000000 0.000000 0.000000 -0.076036 0.000000 0.261164
#
#
# Mechanical properties :
#
#
# Convention : Reuss Voigt Hill
#
# Bulk Modulus (GPa) = 40.52527 88.82162 64.67345
# Shear Modulus (GPa) = 12.74763 46.15756 29.45259
#
# Velocity S-wave (km/s) = 2.18151 4.15111 3.31593
# Velocity P-wave (km/s) = 4.63405 7.49232 6.22934
#
# Compressibility (1/GPa) = 0.02467596
#
# Stress axis : x y z
#
# Youngs Moduli (GPa) = 46.29856 173.84036 163.05758
#
# Poissons Ratio (x) = 0.00046 0.40020
# Poissons Ratio (y) = 0.00012 0.31749
# Poissons Ratio (z) = 0.11363 0.33848
#
# Static dielectric constant tensor:
#      x y z
#    x 2.422720 0.000000 -0.062250 
#    y 0.000000 2.211070 0.000000 
#    z -0.062250 0.000000 2.091980 
# 
# From -- ./inp_files/143630.got.cif
#   From: 2010.05.17/outbox.cif.g08.bks.cpg/sg15_72_cif.got.tgz:143630.got - 2010.06.03 18:47:42.
