data_PCOD9259903
_publ_section_title
;
Structure prediction by ZEFSAII (Michael W. Deem and Ramdas Pophale) SiO2 
 PCOD9259903
Probable space group: C 2/C
;
_chemical_formula_sum "Si O2"
_cell_formula_units_Z 48
_cell_length_a 5.384571
_cell_length_b 25.460084
_cell_length_c 17.571394
_cell_angle_alpha 90.000000
_cell_angle_beta 101.392299
_cell_angle_gamma 90.000000
_cell_volume 2361.430428
_symmetry_space_group_name_H-M "C 2/C"
_symmetry_group_IT_number 15
_symmetry_cell_setting 'monoclinic'
loop_
_space_group_symop_operation_xyz
x,y,z
-x,y,1/2-z
-x,-y,-z
x,-y,1/2+z
1/2+x,1/2+y,z
1/2-x,1/2+y,1/2-z
1/2-x,1/2-y,-z
1/2+x,1/2-y,1/2+z
loop_
_atom_site_type_symbol
_atom_site_label
_atom_site_fract_x
_atom_site_fract_y
_atom_site_fract_z
Si Si1 0.716398 0.501306 0.946975
Si Si2 0.748014 0.884516 0.055468
Si Si3 0.500000 0.153084 0.250000
Si Si4 0.534389 0.219144 0.597806
Si Si5 0.152463 0.605640 0.105927
Si Si6 0.500000 0.723324 0.250000
Si Si7 0.567424 0.680158 0.469331
O O1 0.701215 0.558570 0.906456
O O2 0.708067 0.450425 0.892054
O O3 0.500000 0.500000 0.000000
O O4 0.000000 0.500000 0.000000
O O5 0.702865 0.833236 0.104605
O O6 0.971553 0.867770 0.013381
O O7 0.522109 0.890455 0.980054
O O8 0.501513 0.116915 0.174098
O O9 0.250344 0.189355 0.243982
O O10 0.455160 0.237938 0.675806
O O11 0.629415 0.273312 0.562746
O O12 0.291269 0.203570 0.533495
O O13 0.339546 0.654545 0.103336
#
# Coordination Sequence:
#
# PCOD9259903 Si02
#       7
#     8   8   4   8   8   4   8
#     4  10  20  36  61  90 117 152 198 256 306 355
#     4  10  20  35  61  87 121 158 204 254 301 358
#     4  12  26  40  61  88 125 164 198 248 314 368
#     4  10  22  34  57  88 120 159 203 247 303 363
#     4  10  21  37  59  91 122 158 205 257 305 364
#     4  12  26  42  59  88 127 168 196 250 314 378
#     4  10  18  36  58  88 116 155 206 253 296 358
#
# _framework density 20.326664000000001
#
# number of rings (size 3 to 8) (size 9 to 14) (size 15 to 20)
#    0.000    1.667    3.333    1.500    2.333    0.000 
#    0.000    0.833    0.000    0.000    8.667    0.000 
#    0.000    0.000    0.000    0.000    0.000    0.000 
#
# Total GULP energy -133620.390405 kJ/mol
# GULP energy per Si atom -5567.516267 kJ/mol
# Density = 2.028040 g / cm^3
# Si number density = 20.326664 Si / 1000 Ang^3
#
#
#
# Elastic Constant Matrix: (Units=GPa)
#
#
# Indices 1 2 3 4 5 6 
#
# 1 80.8116 28.2319 19.9480 0.0000 -22.6386 0.0000
# 2 28.2319 155.0857 71.9011 0.0000 -19.7645 0.0000
# 3 19.9480 71.9011 82.0627 0.0000 -34.5910 0.0000
# 4 0.0000 0.0000 0.0000 -95.5818 0.0000 -4.5896
# 5 -22.6386 -19.7645 -34.5910 0.0000 26.1109 0.0000
# 6 0.0000 0.0000 0.0000 -4.5896 0.0000 21.1179
#
#
#
# Elastic Compliance Matrix: (Units=1/GPa)
#
#
# Indices 1 2 3 4 5 6 
#
# 1 0.019399 -0.005592 0.012431 0.000000 0.029055 0.000000
# 2 -0.005592 0.013741 -0.018885 0.000000 -0.019466 0.000000
# 3 0.012431 -0.018885 0.054867 0.000000 0.069169 0.000000
# 4 0.000000 0.000000 0.000000 -0.010354 0.000000 -0.002250
# 5 0.029055 -0.019466 0.069169 0.000000 0.140387 0.000000
# 6 0.000000 0.000000 0.000000 -0.002250 0.000000 0.046864
#
#
# Mechanical properties :
#
#
# Convention : Reuss Voigt Hill
#
# Bulk Modulus (GPa) = 15.64602 62.01353 38.82977
# Shear Modulus (GPa) = 16.11343 3.52134 9.81739
#
# Velocity S-wave (km/s) = 2.81859 1.31763 2.20007
# Velocity P-wave (km/s) = 4.27862 5.73494 5.05945
#
# Compressibility (1/GPa) = 0.06391401
#
# Stress axis : x y z
#
# Youngs Moduli (GPa) = 51.54952 72.77575 18.22598
#
# Poissons Ratio (x) = 0.40695 -0.22657
# Poissons Ratio (y) = 0.28826 0.34420
# Poissons Ratio (z) = -0.64081 1.37439
#
# Static dielectric constant tensor:
#      x y z
#    x 2.791310 0.000000 0.266910 
#    y 0.000000 1.830360 0.000000 
#    z 0.266910 0.000000 1.797550 
# 
# From -- ./inp_files/130095.got.cif
#   From: 2010.05.17/outbox.cif.g08.bks.cpg/sg15_66_cif.got.tgz:130095.got - 2010.06.03 18:47:42.
