data_PCOD9259421
_publ_section_title
;
Structure prediction by ZEFSAII (Michael W. Deem and Ramdas Pophale) SiO2 
 PCOD9259421
Probable space group: C 2/C
;
_chemical_formula_sum "Si O2"
_cell_formula_units_Z 44
_cell_length_a 19.900775
_cell_length_b 11.541340
_cell_length_c 8.747399
_cell_angle_alpha 90.000000
_cell_angle_beta 118.809152
_cell_angle_gamma 90.000000
_cell_volume 1760.447749
_symmetry_space_group_name_H-M "C 2/C"
_symmetry_group_IT_number 15
_symmetry_cell_setting 'monoclinic'
loop_
_space_group_symop_operation_xyz
x,y,z
-x,y,1/2-z
-x,-y,-z
x,-y,1/2+z
1/2+x,1/2+y,z
1/2-x,1/2+y,1/2-z
1/2-x,1/2-y,-z
1/2+x,1/2-y,1/2+z
loop_
_atom_site_type_symbol
_atom_site_label
_atom_site_fract_x
_atom_site_fract_y
_atom_site_fract_z
Si Si1 0.420212 0.971025 0.657364
Si Si2 0.051763 0.759926 0.500867
Si Si3 0.000000 0.144728 0.250000
Si Si4 0.106147 0.135355 0.620319
Si Si5 0.833136 0.615832 0.348163
Si Si6 0.198332 0.137923 0.998085
O O1 0.500000 0.038673 0.750000
O O2 0.437137 0.867893 0.555344
O O3 0.397593 0.920161 0.795248
O O4 0.351041 0.046804 0.519557
O O5 0.046956 0.778984 0.678708
O O6 0.126035 0.822872 0.517630
O O7 0.968219 0.814084 0.369502
O O8 0.061711 0.078845 0.426959
O O9 0.153691 0.247313 0.613181
O O10 0.162407 0.079762 0.806831
O O11 0.755738 0.578971 0.178791
O O12 0.250000 0.250000 0.000000
#
# Coordination Sequence:
#
# PCOD9259421 Si02
#       6
#     8   8   4   8   8   8
#     4  12  21  35  52  81 114 153 178 215 259 338
#     4  10  18  35  57  82 109 140 191 217 267 324
#     4   8  20  28  54  88  98 134 180 238 262 302
#     4   9  18  34  53  80 106 140 187 215 268 319
#     4  11  24  31  53  80 116 148 177 218 276 320
#     4  10  18  36  52  77 111 151 180 219 267 332
#
# _framework density 24.993642000000001
#
# number of rings (size 3 to 8) (size 9 to 14) (size 15 to 20)
#    1.091    0.727    5.455    1.091    3.818    0.000 
#    0.000    5.455    0.000    0.000    0.000    5.091 
#    0.000    0.000    0.000    0.000    0.000    0.000 
#
# Total GULP energy -122701.978687 kJ/mol
# GULP energy per Si atom -5577.362668 kJ/mol
# Density = 2.493676 g / cm^3
# Si number density = 24.993642 Si / 1000 Ang^3
#
#
#
# Elastic Constant Matrix: (Units=GPa)
#
#
# Indices 1 2 3 4 5 6 
#
# 1 89.8202 15.7781 11.2258 0.0000 -4.6887 0.0000
# 2 15.7781 43.3378 12.3605 0.0000 -4.0103 0.0000
# 3 11.2258 12.3605 146.0224 0.0000 32.7905 0.0000
# 4 0.0000 0.0000 0.0000 27.0925 0.0000 -3.4737
# 5 -4.6887 -4.0103 32.7905 0.0000 56.9470 0.0000
# 6 0.0000 0.0000 0.0000 -3.4737 0.0000 18.5375
#
#
#
# Elastic Compliance Matrix: (Units=1/GPa)
#
#
# Indices 1 2 3 4 5 6 
#
# 1 0.012008 -0.004018 -0.000852 0.000000 0.001196 0.000000
# 2 -0.004018 0.025521 -0.002505 0.000000 0.002909 0.000000
# 3 -0.000852 -0.002505 0.008248 0.000000 -0.004995 0.000000
# 4 0.000000 0.000000 0.000000 0.037819 0.000000 0.007087
# 5 0.001196 0.002909 -0.004995 0.000000 0.020740 0.000000
# 6 0.000000 0.000000 0.000000 0.007087 0.000000 0.055273
#
#
# Mechanical properties :
#
#
# Convention : Reuss Voigt Hill
#
# Bulk Modulus (GPa) = 32.22915 39.76770 35.99842
# Shear Modulus (GPa) = 27.07097 36.50313 31.78705
#
# Velocity S-wave (km/s) = 3.29464 3.82579 3.57011
# Velocity P-wave (km/s) = 5.23410 5.95493 5.60611
#
# Compressibility (1/GPa) = 0.03102781
#
# Stress axis : x y z
#
# Youngs Moduli (GPa) = 83.27723 39.18347 121.24875
#
# Poissons Ratio (x) = 0.15745 0.10325
# Poissons Ratio (y) = 0.33463 0.30367
# Poissons Ratio (z) = 0.07092 0.09814
#
# Static dielectric constant tensor:
#      x y z
#    x 1.945700 0.000000 0.018460 
#    y 0.000000 2.033260 0.000000 
#    z 0.018460 0.000000 2.067660 
# 
# From -- ./inp_files/55477.got.cif
#   From: 2010.05.17/outbox.cif.g08.bks.cpg/sg15_28_cif.got.tgz:55477.got - 2010.06.03 18:47:42.
