data_PCOD9259285
_publ_section_title
;
Structure prediction by ZEFSAII (Michael W. Deem and Ramdas Pophale) SiO2 
 PCOD9259285
Probable space group: C 2/C
;
_chemical_formula_sum "Si O2"
_cell_formula_units_Z 48
_cell_length_a 5.333192
_cell_length_b 13.513032
_cell_length_c 27.309684
_cell_angle_alpha 90.000000
_cell_angle_beta 99.655925
_cell_angle_gamma 90.000000
_cell_volume 1940.260122
_symmetry_space_group_name_H-M "C 2/C"
_symmetry_group_IT_number 15
_symmetry_cell_setting 'monoclinic'
loop_
_space_group_symop_operation_xyz
x,y,z
-x,y,1/2-z
-x,-y,-z
x,-y,1/2+z
1/2+x,1/2+y,z
1/2-x,1/2+y,1/2-z
1/2-x,1/2-y,-z
1/2+x,1/2-y,1/2+z
loop_
_atom_site_type_symbol
_atom_site_label
_atom_site_fract_x
_atom_site_fract_y
_atom_site_fract_z
Si Si1 0.234941 0.913651 0.646780
Si Si2 0.391913 0.631747 0.057183
Si Si3 0.530479 0.024909 0.580994
Si Si4 0.431375 0.620521 0.644559
Si Si5 0.909363 0.827052 0.457804
Si Si6 0.500000 0.398074 0.250000
Si Si7 0.000000 0.535041 0.250000
O O1 0.411323 0.933704 0.605918
O O2 0.395029 0.900363 0.701007
O O3 0.026785 0.844602 0.613797
O O4 0.086247 0.017051 0.650849
O O5 0.260362 0.523650 0.057807
O O6 0.184608 0.715385 0.041892
O O7 0.557577 0.643708 0.012630
O O8 0.638717 0.091616 0.628860
O O9 0.323432 0.093201 0.548818
O O10 0.483178 0.667720 0.593613
O O11 0.491808 0.664226 0.699386
O O12 0.243067 0.466766 0.241797
#
# Coordination Sequence:
#
# PCOD9259285 Si02
#       7
#     8   8   8   8   8   4   4
#     4   9  19  34  58  91 118 157 208 261 313 387
#     4  10  22  38  57  87 126 166 211 262 320 390
#     4  10  19  36  60  86 116 160 205 258 322 382
#     4   9  19  34  58  91 118 157 208 261 313 387
#     4  10  22  38  57  87 126 166 211 262 320 390
#     4  10  18  34  64  97 125 162 218 270 331 388
#     4  10  18  34  64  97 125 162 218 270 331 388
#
# _framework density 24.738952000000001
#
# number of rings (size 3 to 8) (size 9 to 14) (size 15 to 20)
#    0.000    2.333    1.667    0.500    0.000    8.667 
#    0.000    3.333    0.000    6.000    0.000    0.000 
#    0.000    0.000    0.000    0.000    0.000    0.000 
#
# Total GULP energy -133682.708500 kJ/mol
# GULP energy per Si atom -5570.112854 kJ/mol
# Density = 2.468264 g / cm^3
# Si number density = 24.738952 Si / 1000 Ang^3
#
#
#
# Elastic Constant Matrix: (Units=GPa)
#
#
# Indices 1 2 3 4 5 6 
#
# 1 67.8157 10.1431 20.8327 0.0000 9.9427 0.0000
# 2 10.1431 63.6402 27.9843 0.0000 -5.0651 0.0000
# 3 20.8327 27.9843 216.0653 0.0000 18.4467 0.0000
# 4 0.0000 0.0000 0.0000 -5.7994 0.0000 -5.6542
# 5 9.9427 -5.0651 18.4467 0.0000 31.9603 0.0000
# 6 0.0000 0.0000 0.0000 -5.6542 0.0000 4.3430
#
#
#
# Elastic Compliance Matrix: (Units=1/GPa)
#
#
# Indices 1 2 3 4 5 6 
#
# 1 0.016108 -0.002616 -0.000790 0.000000 -0.004970 0.000000
# 2 -0.002616 0.017611 -0.002458 0.000000 0.005023 0.000000
# 3 -0.000790 -0.002458 0.005296 0.000000 -0.003200 0.000000
# 4 0.000000 0.000000 0.000000 -0.075984 0.000000 -0.098925
# 5 -0.004970 0.005023 -0.003200 0.000000 0.035478 0.000000
# 6 0.000000 0.000000 0.000000 -0.098925 0.000000 0.101465
#
#
# Mechanical properties :
#
#
# Convention : Reuss Voigt Hill
#
# Bulk Modulus (GPa) = 36.64525 51.71573 44.18049
# Shear Modulus (GPa) = 41.39213 25.33818 33.36516
#
# Velocity S-wave (km/s) = 4.09486 3.20382 3.67643
# Velocity P-wave (km/s) = 6.09935 5.88523 5.99325
#
# Compressibility (1/GPa) = 0.02728866
#
# Stress axis : x y z
#
# Youngs Moduli (GPa) = 62.07937 56.78388 188.82382
#
# Poissons Ratio (x) = 0.14852 0.14919
# Poissons Ratio (y) = 0.16237 0.46405
# Poissons Ratio (z) = 0.04905 0.13955
#
# Static dielectric constant tensor:
#      x y z
#    x 2.194210 0.000000 -0.042790 
#    y 0.000000 1.970560 0.000000 
#    z -0.042790 0.000000 2.068820 
# 
# From -- ./inp_files/305224.got.cif
#   From: 2010.05.17/outbox.cif.g08.bks.cpg/sg15_153_cif.got.tgz:305224.got - 2010.06.03 18:47:42.
