data_PCOD9259688
_publ_section_title
;
Structure prediction by ZEFSAII (Michael W. Deem and Ramdas Pophale) SiO2 
 PCOD9259688
Probable space group: C 2/C
;
_chemical_formula_sum "Si O2"
_cell_formula_units_Z 44
_cell_length_a 12.834508
_cell_length_b 16.015826
_cell_length_c 12.631183
_cell_angle_alpha 90.000000
_cell_angle_beta 120.248832
_cell_angle_gamma 90.000000
_cell_volume 2242.894301
_symmetry_space_group_name_H-M "C 2/C"
_symmetry_group_IT_number 15
_symmetry_cell_setting 'monoclinic'
loop_
_space_group_symop_operation_xyz
x,y,z
-x,y,1/2-z
-x,-y,-z
x,-y,1/2+z
1/2+x,1/2+y,z
1/2-x,1/2+y,1/2-z
1/2-x,1/2-y,-z
1/2+x,1/2-y,1/2+z
loop_
_atom_site_type_symbol
_atom_site_label
_atom_site_fract_x
_atom_site_fract_y
_atom_site_fract_z
Si Si1 0.164030 0.347957 0.161483
Si Si2 0.938037 0.056526 0.118589
Si Si3 0.800317 0.541806 0.024972
Si Si4 0.500000 0.064382 0.750000
Si Si5 0.569378 0.386582 0.121372
Si Si6 0.664335 0.694817 0.029256
O O1 0.301455 0.362570 0.268760
O O2 0.146694 0.250936 0.123360
O O3 0.073747 0.380416 0.204037
O O4 0.150160 0.403686 0.047606
O O5 0.000000 0.100583 0.250000
O O6 0.930405 0.107021 0.005897
O O7 0.024555 0.976283 0.140740
O O8 0.804047 0.020568 0.069780
O O9 0.904355 0.492841 0.138311
O O10 0.729773 0.605059 0.069000
O O11 0.462781 0.322182 0.092644
O O12 0.750000 0.750000 0.000000
#
# Coordination Sequence:
#
# PCOD9259688 Si02
#       6
#     8   8   8   4   8   8
#     4  11  22  41  62  90 134 166 208 262 326 378
#     4  10  18  35  63  93 117 147 210 262 304 359
#     4  10  21  38  64  96 118 166 210 267 309 377
#     4  12  24  40  62  96 134 168 214 262 328 374
#     4  10  20  36  62  90 118 160 207 253 309 378
#     4   9  22  38  60  90 121 163 209 254 316 375
#
# _framework density 19.617508999999998
#
# number of rings (size 3 to 8) (size 9 to 14) (size 15 to 20)
#    0.000    1.818    3.636    0.545    0.000    2.909 
#    1.636    2.727    0.000    0.000    0.000    0.000 
#    0.000    0.000    0.000    0.000    0.000    0.000 
#
# Total GULP energy -122813.877263 kJ/mol
# GULP energy per Si atom -5582.448966 kJ/mol
# Density = 1.957286 g / cm^3
# Si number density = 19.617509 Si / 1000 Ang^3
#
#
#
# Elastic Constant Matrix: (Units=GPa)
#
#
# Indices 1 2 3 4 5 6 
#
# 1 113.1089 43.5364 43.1021 0.0000 8.1157 0.0000
# 2 43.5364 54.8786 39.6056 0.0000 8.9221 0.0000
# 3 43.1021 39.6056 119.5903 0.0000 8.3034 0.0000
# 4 0.0000 0.0000 0.0000 15.7428 0.0000 0.7975
# 5 8.1157 8.9221 8.3034 0.0000 39.5690 0.0000
# 6 0.0000 0.0000 0.0000 0.7975 0.0000 26.1227
#
#
#
# Elastic Compliance Matrix: (Units=1/GPa)
#
#
# Indices 1 2 3 4 5 6 
#
# 1 0.012978 -0.009053 -0.001660 0.000000 -0.000272 0.000000
# 2 -0.009053 0.030834 -0.006692 0.000000 -0.003691 0.000000
# 3 -0.001660 -0.006692 0.011212 0.000000 -0.000503 0.000000
# 4 0.000000 0.000000 0.000000 0.063619 0.000000 -0.001942
# 5 -0.000272 -0.003691 -0.000503 0.000000 0.026266 0.000000
# 6 0.000000 0.000000 0.000000 -0.001942 0.000000 0.038340
#
#
# Mechanical properties :
#
#
# Convention : Reuss Voigt Hill
#
# Bulk Modulus (GPa) = 49.47595 60.00734 54.74165
# Shear Modulus (GPa) = 22.24219 27.04249 24.64234
#
# Velocity S-wave (km/s) = 3.37084 3.71683 3.54805
# Velocity P-wave (km/s) = 6.35807 7.00534 6.68954
#
# Compressibility (1/GPa) = 0.02021184
#
# Stress axis : x y z
#
# Youngs Moduli (GPa) = 77.05426 32.43169 89.19342
#
# Poissons Ratio (x) = 0.29361 0.14809
# Poissons Ratio (y) = 0.69758 0.59691
# Poissons Ratio (z) = 0.12794 0.21704
#
# Static dielectric constant tensor:
#      x y z
#    x 1.712680 0.000000 -0.042670 
#    y 0.000000 1.708250 0.000000 
#    z -0.042670 0.000000 1.685410 
# 
# From -- ./inp_files/87144.got.cif
#   From: 2010.05.17/outbox.cif.g08.bks.cpg/sg15_44_cif.got.tgz:87144.got - 2010.06.03 18:47:42.
