data_PCOD9259234
_publ_section_title
;
Structure prediction by ZEFSAII (Michael W. Deem and Ramdas Pophale) SiO2 
 PCOD9259234
Probable space group: C 2/C
;
_chemical_formula_sum "Si O2"
_cell_formula_units_Z 40
_cell_length_a 16.933729
_cell_length_b 9.899827
_cell_length_c 10.854895
_cell_angle_alpha 90.000000
_cell_angle_beta 65.804800
_cell_angle_gamma 90.000000
_cell_volume 1659.870555
_symmetry_space_group_name_H-M "C 2/C"
_symmetry_group_IT_number 15
_symmetry_cell_setting 'monoclinic'
loop_
_space_group_symop_operation_xyz
x,y,z
-x,y,1/2-z
-x,-y,-z
x,-y,1/2+z
1/2+x,1/2+y,z
1/2-x,1/2+y,1/2-z
1/2-x,1/2-y,-z
1/2+x,1/2-y,1/2+z
loop_
_atom_site_type_symbol
_atom_site_label
_atom_site_fract_x
_atom_site_fract_y
_atom_site_fract_z
Si Si1 0.844982 0.867451 0.870444
Si Si2 0.732475 0.851467 0.696712
Si Si3 0.540603 0.076553 0.090147
Si Si4 0.173404 0.413938 0.115405
Si Si5 0.377502 0.338431 0.390823
O O1 0.789272 0.849346 0.781802
O O2 0.885451 0.718821 0.854783
O O3 0.897681 0.006233 0.843463
O O4 0.772257 0.876518 0.023030
O O5 0.662976 0.736457 0.704044
O O6 0.801861 0.846558 0.541399
O O7 0.680560 0.993381 0.730472
O O8 0.500000 0.038300 0.250000
O O9 0.550603 0.239723 0.093428
O O10 0.638136 0.019612 0.038387
O O11 0.500000 0.000000 0.000000
#
# Coordination Sequence:
#
# PCOD9259234 Si02
#       5
#     8   8   8   8   8
#     4  10  18  34  62  91 120 145 187 265 314 357
#     4   9  17  32  60  85 123 147 187 255 305 360
#     4  11  26  44  63  82 120 171 212 248 289 370
#     4   9  21  34  56  94 114 152 199 240 313 358
#     4   9  20  36  55  91 114 156 203 242 307 356
#
# _framework density 24.098265999999999
#
# number of rings (size 3 to 8) (size 9 to 14) (size 15 to 20)
#    0.000    2.400    0.000    2.400    8.400    0.000 
#    0.000    2.000    0.000    0.000    0.000    0.000 
#    0.000    0.000    0.000    0.000    0.000    0.000 
#
# Total GULP energy -111368.562531 kJ/mol
# GULP energy per Si atom -5568.428127 kJ/mol
# Density = 2.404342 g / cm^3
# Si number density = 24.098266 Si / 1000 Ang^3
#
#
#
# Elastic Constant Matrix: (Units=GPa)
#
#
# Indices 1 2 3 4 5 6 
#
# 1 54.3419 12.8070 26.5077 0.0000 2.0198 0.0000
# 2 12.8070 204.5671 34.9290 0.0000 3.1333 0.0000
# 3 26.5077 34.9290 85.5359 0.0000 14.5013 0.0000
# 4 0.0000 0.0000 0.0000 -5.7704 0.0000 -1.2371
# 5 2.0198 3.1333 14.5013 0.0000 30.7326 0.0000
# 6 0.0000 0.0000 0.0000 -1.2371 0.0000 33.7319
#
#
#
# Elastic Compliance Matrix: (Units=1/GPa)
#
#
# Indices 1 2 3 4 5 6 
#
# 1 0.021789 -0.000199 -0.006991 0.000000 0.001887 0.000000
# 2 -0.000199 0.005264 -0.002173 0.000000 0.000502 0.000000
# 3 -0.006991 -0.002173 0.015901 0.000000 -0.006822 0.000000
# 4 0.000000 0.000000 0.000000 -0.171945 0.000000 -0.006306
# 5 0.001887 0.000502 -0.006822 0.000000 0.035583 0.000000
# 6 0.000000 0.000000 0.000000 -0.006306 0.000000 0.029414
#
#
# Mechanical properties :
#
#
# Convention : Reuss Voigt Hill
#
# Bulk Modulus (GPa) = 41.27430 54.77025 48.02227
# Shear Modulus (GPa) = -134.43964 29.75224 -52.34370
#
# Velocity S-wave (km/s) = -7.47725 3.51753 -4.66563
# Velocity P-wave (km/s) = 7.57502 6.26694 3.00885
#
# Compressibility (1/GPa) = 0.02422815
#
# Stress axis : x y z
#
# Youngs Moduli (GPa) = 45.89478 189.96285 62.88742
#
# Poissons Ratio (x) = 0.03787 0.43964
# Poissons Ratio (y) = 0.00915 0.13665
# Poissons Ratio (z) = 0.32085 0.41278
#
# Static dielectric constant tensor:
#      x y z
#    x 2.013590 0.000000 -0.031080 
#    y 0.000000 2.092970 0.000000 
#    z -0.031080 0.000000 1.959520 
# 
# From -- ./inp_files/109550.got.cif
#   From: 2010.05.17/outbox.cif.g08.bks.cpg/sg15_55_cif.got.tgz:109550.got - 2010.06.03 18:47:42.
