data_PCOD9259257
_publ_section_title
;
Structure prediction by ZEFSAII (Michael W. Deem and Ramdas Pophale) SiO2 
 PCOD9259257
Probable space group: C 2/C
;
_chemical_formula_sum "Si O2"
_cell_formula_units_Z 64
_cell_length_a 17.376683
_cell_length_b 10.821517
_cell_length_c 20.678231
_cell_angle_alpha 90.000000
_cell_angle_beta 127.820928
_cell_angle_gamma 90.000000
_cell_volume 3071.550166
_symmetry_space_group_name_H-M "C 2/C"
_symmetry_group_IT_number 15
_symmetry_cell_setting 'monoclinic'
loop_
_space_group_symop_operation_xyz
x,y,z
-x,y,1/2-z
-x,-y,-z
x,-y,1/2+z
1/2+x,1/2+y,z
1/2-x,1/2+y,1/2-z
1/2-x,1/2-y,-z
1/2+x,1/2-y,1/2+z
loop_
_atom_site_type_symbol
_atom_site_label
_atom_site_fract_x
_atom_site_fract_y
_atom_site_fract_z
Si Si1 0.536504 0.574010 0.338065
Si Si2 0.479425 0.201620 0.897771
Si Si3 0.089954 0.566807 0.846679
Si Si4 0.327180 0.978019 0.293344
Si Si5 0.884663 0.654267 0.202748
Si Si6 0.780255 0.206219 0.086169
Si Si7 0.378382 0.625158 0.785493
Si Si8 0.594510 0.186025 0.081245
O O1 0.500000 0.622740 0.250000
O O2 0.507354 0.667989 0.380040
O O3 0.652871 0.584762 0.388782
O O4 0.476748 0.449422 0.319550
O O5 0.548832 0.104418 0.895196
O O6 0.372056 0.159206 0.821098
O O7 0.503589 0.200585 0.986025
O O8 0.155903 0.678516 0.856611
O O9 0.000000 0.562706 0.750000
O O10 0.859678 0.432088 0.628255
O O11 0.211944 0.966039 0.246034
O O12 0.352079 0.057201 0.242307
O O13 0.389280 0.052713 0.378679
O O14 0.848189 0.785337 0.210172
O O15 0.000000 0.678334 0.250000
O O16 0.688660 0.197791 0.084415
O O17 0.750000 0.250000 0.000000
O O18 0.399859 0.713244 0.858331
#
# Coordination Sequence:
#
# PCOD9259257 Si02
#       8
#     8   8   8   8   8   8   8   8
#     4  11  24  40  68  93 131 166 221 269 319 382
#     4  11  21  39  63  95 121 169 215 269 324 377
#     4  10  18  34  63  90 114 162 226 263 300 382
#     4  11  23  39  64  90 127 169 215 271 322 394
#     4  10  20  38  64  87 117 168 219 259 310 387
#     4  11  20  38  61  97 125 168 216 268 321 390
#     4  11  26  41  62  99 133 169 213 274 342 381
#     4  11  24  40  63  93 133 165 214 269 335 394
#
# _framework density 20.836385
#
# number of rings (size 3 to 8) (size 9 to 14) (size 15 to 20)
#    0.000    1.250    5.000    3.750    5.250    0.500 
#    0.000    0.000    0.000    0.750    0.000    0.000 
#    0.000    0.000    0.000    0.000    0.000    0.000 
#
# Total GULP energy -178258.433902 kJ/mol
# GULP energy per Si atom -5570.576059 kJ/mol
# Density = 2.078896 g / cm^3
# Si number density = 20.836385 Si / 1000 Ang^3
#
#
#
# Elastic Constant Matrix: (Units=GPa)
#
#
# Indices 1 2 3 4 5 6 
#
# 1 69.9066 23.4541 -9.7138 0.0000 11.3479 0.0000
# 2 23.4541 87.5248 11.2626 0.0000 -3.0400 0.0000
# 3 -9.7138 11.2626 58.8022 0.0000 -6.6277 0.0000
# 4 0.0000 0.0000 0.0000 11.3845 0.0000 -4.3370
# 5 11.3479 -3.0400 -6.6277 0.0000 26.9620 0.0000
# 6 0.0000 0.0000 0.0000 -4.3370 0.0000 33.2335
#
#
#
# Elastic Compliance Matrix: (Units=1/GPa)
#
#
# Indices 1 2 3 4 5 6 
#
# 1 0.017744 -0.005413 0.003145 0.000000 -0.007305 0.000000
# 2 -0.005413 0.013382 -0.003117 0.000000 0.003021 0.000000
# 3 0.003145 -0.003117 0.018445 0.000000 0.002859 0.000000
# 4 0.000000 0.000000 0.000000 0.092434 0.000000 0.012063
# 5 -0.007305 0.003021 0.002859 0.000000 0.041207 0.000000
# 6 0.000000 0.000000 0.000000 0.012063 0.000000 0.031664
#
#
# Mechanical properties :
#
#
# Convention : Reuss Voigt Hill
#
# Bulk Modulus (GPa) = 25.77338 29.58214 27.67776
# Shear Modulus (GPa) = 20.95726 27.06470 24.01098
#
# Velocity S-wave (km/s) = 3.17488 3.60796 3.39832
# Velocity P-wave (km/s) = 5.08292 5.62002 5.35820
#
# Compressibility (1/GPa) = 0.03879973
#
# Stress axis : x y z
#
# Youngs Moduli (GPa) = 56.35766 74.72772 54.21559
#
# Poissons Ratio (x) = 0.40452 -0.17049
# Poissons Ratio (y) = 0.30508 0.16898
# Poissons Ratio (z) = -0.17722 0.23291
#
# Static dielectric constant tensor:
#      x y z
#    x 1.822160 0.000000 0.002050 
#    y 0.000000 1.870660 0.000000 
#    z 0.002050 0.000000 1.793800 
# 
# From -- ./inp_files/248657.got.cif
#   From: 2010.05.17/outbox.cif.g08.bks.cpg/sg15_125_cif.got.tgz:248657.got - 2010.06.03 18:47:42.
