data_PCOD9259867
_publ_section_title
;
Structure prediction by ZEFSAII (Michael W. Deem and Ramdas Pophale) SiO2 
 PCOD9259867
Probable space group: C 2/C
;
_chemical_formula_sum "Si O2"
_cell_formula_units_Z 64
_cell_length_a 11.875062
_cell_length_b 14.378526
_cell_length_c 26.201464
_cell_angle_alpha 90.000000
_cell_angle_beta 135.997959
_cell_angle_gamma 90.000000
_cell_volume 3107.871857
_symmetry_space_group_name_H-M "C 2/C"
_symmetry_group_IT_number 15
_symmetry_cell_setting 'monoclinic'
loop_
_space_group_symop_operation_xyz
x,y,z
-x,y,1/2-z
-x,-y,-z
x,-y,1/2+z
1/2+x,1/2+y,z
1/2-x,1/2+y,1/2-z
1/2-x,1/2-y,-z
1/2+x,1/2-y,1/2+z
loop_
_atom_site_type_symbol
_atom_site_label
_atom_site_fract_x
_atom_site_fract_y
_atom_site_fract_z
Si Si1 0.087697 0.115974 0.870906
Si Si2 0.261662 0.290664 0.299091
Si Si3 0.554778 0.872423 0.594035
Si Si4 0.161104 0.861210 0.997583
Si Si5 0.735940 0.438530 0.529311
Si Si6 0.411301 0.785006 0.153811
Si Si7 0.661157 0.418513 0.879563
Si Si8 0.630940 0.744764 0.048451
O O1 0.224804 0.183021 0.890697
O O2 0.913568 0.160345 0.822651
O O3 0.073817 0.015005 0.841214
O O4 0.152123 0.092522 0.949012
O O5 0.329162 0.185495 0.330084
O O6 0.201440 0.322448 0.336373
O O7 0.098614 0.310652 0.214531
O O8 0.427249 0.940216 0.579091
O O9 0.663100 0.925874 0.588453
O O10 0.458893 0.793806 0.529332
O O11 0.316312 0.810031 0.071812
O O12 0.163355 0.963982 0.024666
O O13 0.175970 0.892984 0.944084
O O14 0.009365 0.793623 0.959738
O O15 0.713688 0.351133 0.558638
O O16 0.417810 0.674835 0.167216
#
# Coordination Sequence:
#
# PCOD9259867 Si02
#       8
#     8   8   8   8   8   8   8   8
#     4  10  19  34  57  84 109 147 182 231 287 319
#     4  10  18  37  62  76 110 148 194 230 266 338
#     4  10  18  36  58  81 108 142 194 228 278 330
#     4  11  21  34  54  84 120 144 183 228 296 331
#     4  10  19  32  57  88 110 142 188 242 276 321
#     4  10  21  37  58  82 110 152 189 230 278 328
#     4  10  22  37  56  84 115 149 182 235 287 332
#     4  11  18  32  57  85 114 139 185 232 281 331
#
# _framework density 20.592870000000001
#
# number of rings (size 3 to 8) (size 9 to 14) (size 15 to 20)
#    0.000    1.750    5.000    1.500    0.000    5.500 
#    2.250    0.000    0.000    0.750    0.000    0.000 
#    0.000    0.000    0.000    0.000    0.000    0.000 
#
# Total GULP energy -178252.942846 kJ/mol
# GULP energy per Si atom -5570.404464 kJ/mol
# Density = 2.054600 g / cm^3
# Si number density = 20.592870 Si / 1000 Ang^3
#
#
#
# Elastic Constant Matrix: (Units=GPa)
#
#
# Indices 1 2 3 4 5 6 
#
# 1 99.3482 52.6084 53.4861 0.0000 30.6733 0.0000
# 2 52.6084 97.3856 -5.4365 0.0000 15.0671 0.0000
# 3 53.4861 -5.4365 46.1931 0.0000 29.2528 0.0000
# 4 0.0000 0.0000 0.0000 0.3372 0.0000 1.2135
# 5 30.6733 15.0671 29.2528 0.0000 28.4568 0.0000
# 6 0.0000 0.0000 0.0000 1.2135 0.0000 13.1484
#
#
#
# Elastic Compliance Matrix: (Units=1/GPa)
#
#
# Indices 1 2 3 4 5 6 
#
# 1 -0.032052 0.033398 0.086996 0.000000 -0.072565 0.000000
# 2 0.033398 -0.018736 -0.069799 0.000000 0.045673 0.000000
# 3 0.086996 -0.069799 -0.147037 0.000000 0.094335 0.000000
# 4 0.000000 0.000000 0.000000 4.440872 0.000000 -0.409843
# 5 -0.072565 0.045673 0.094335 0.000000 -0.007799 0.000000
# 6 0.000000 0.000000 0.000000 -0.409843 0.000000 0.113879
#
#
# Mechanical properties :
#
#
# Convention : Reuss Voigt Hill
#
# Bulk Modulus (GPa) = -10.34817 49.36031 19.50607
# Shear Modulus (GPa) = 1.18604 17.87307 9.52955
#
# Velocity S-wave (km/s) = 0.75973 2.94925 2.15352
# Velocity P-wave (km/s) = 2.06554 5.96817 3.95933
#
# Compressibility (1/GPa) = -0.09663542
#
# Stress axis : x y z
#
# Youngs Moduli (GPa) = -31.19936 -53.37255 -6.80101
#
# Poissons Ratio (x) = 1.78254 0.59166
# Poissons Ratio (y) = 1.04200 -0.47471
# Poissons Ratio (z) = 2.71422 -3.72536
#
# Static dielectric constant tensor:
#      x y z
#    x 1.799670 0.000000 -0.012650 
#    y 0.000000 1.805820 0.000000 
#    z -0.012650 0.000000 1.754200 
# 
# From -- ./inp_files/311200.got.cif
#   From: 2010.05.17/outbox.cif.g08.bks.cpg/sg15_156_cif.got.tgz:311200.got - 2010.06.03 18:47:42.
