data_PCOD9259586
_publ_section_title
;
Structure prediction by ZEFSAII (Michael W. Deem and Ramdas Pophale) SiO2 
 PCOD9259586
Probable space group: C 2/C
;
_chemical_formula_sum "Si O2"
_cell_formula_units_Z 48
_cell_length_a 14.350369
_cell_length_b 22.975139
_cell_length_c 11.051835
_cell_angle_alpha 90.000000
_cell_angle_beta 137.893316
_cell_angle_gamma 90.000000
_cell_volume 2443.221954
_symmetry_space_group_name_H-M "C 2/C"
_symmetry_group_IT_number 15
_symmetry_cell_setting 'monoclinic'
loop_
_space_group_symop_operation_xyz
x,y,z
-x,y,1/2-z
-x,-y,-z
x,-y,1/2+z
1/2+x,1/2+y,z
1/2-x,1/2+y,1/2-z
1/2-x,1/2-y,-z
1/2+x,1/2-y,1/2+z
loop_
_atom_site_type_symbol
_atom_site_label
_atom_site_fract_x
_atom_site_fract_y
_atom_site_fract_z
Si Si1 0.694000 0.780437 0.312965
Si Si2 0.000000 0.626954 0.250000
Si Si3 0.793418 0.087889 0.616589
Si Si4 0.123974 0.114954 0.529684
Si Si5 0.436581 0.776845 0.886044
Si Si6 0.500000 0.700171 0.250000
Si Si7 0.500000 0.680260 0.750000
Si Si8 0.000000 0.013929 0.250000
O O1 0.749999 0.845172 0.400185
O O2 0.801102 0.744367 0.329725
O O3 0.628084 0.742442 0.356916
O O4 0.559350 0.790153 0.097497
O O5 0.934413 0.668914 0.290761
O O6 0.129494 0.590653 0.430577
O O7 0.834691 0.105465 0.792959
O O8 0.869070 0.137486 0.609179
O O9 0.875116 0.027790 0.673568
O O10 0.002359 0.159564 0.370807
O O11 0.073114 0.055637 0.419446
O O12 0.477004 0.721930 0.841294
#
# Coordination Sequence:
#
# PCOD9259586 Si02
#       8
#     8   4   8   8   8   4   4   4
#     4  12  21  38  61  95 137 167 198 248 311 390
#     4  11  22  37  63  99 133 160 201 262 326 372
#     4  11  21  41  65  89 124 165 217 269 312 359
#     4  11  22  42  64  91 120 169 214 261 308 373
#     4  11  21  34  60  98 136 165 200 244 314 392
#     4  11  24  39  65  99 133 166 207 248 312 394
#     4  10  18  35  60  94 127 174 206 242 302 386
#     4  10  26  43  68  84 117 168 232 270 306 366
#
# _framework density 19.646187999999999
#
# number of rings (size 3 to 8) (size 9 to 14) (size 15 to 20)
#    0.000    1.000    5.000    2.000    0.000    4.000 
#    0.000    1.667    0.000    0.000    0.000    0.000 
#    0.000    0.000    0.000    0.000    0.000    0.000 
#
# Total GULP energy -133690.342190 kJ/mol
# GULP energy per Si atom -5570.430925 kJ/mol
# Density = 1.960147 g / cm^3
# Si number density = 19.646188 Si / 1000 Ang^3
#
#
#
# Elastic Constant Matrix: (Units=GPa)
#
#
# Indices 1 2 3 4 5 6 
#
# 1 101.5949 51.7055 44.1107 0.0000 2.0662 0.0000
# 2 51.7055 129.2634 57.5594 0.0000 6.6858 0.0000
# 3 44.1107 57.5594 116.4531 0.0000 24.3604 0.0000
# 4 0.0000 0.0000 0.0000 11.9855 0.0000 -4.5687
# 5 2.0662 6.6858 24.3604 0.0000 31.7554 0.0000
# 6 0.0000 0.0000 0.0000 -4.5687 0.0000 19.1485
#
#
#
# Elastic Compliance Matrix: (Units=1/GPa)
#
#
# Indices 1 2 3 4 5 6 
#
# 1 0.013362 -0.003813 -0.003767 0.000000 0.002823 0.000000
# 2 -0.003813 0.011115 -0.004302 0.000000 0.001208 0.000000
# 3 -0.003767 -0.004302 0.014174 0.000000 -0.009723 0.000000
# 4 0.000000 0.000000 0.000000 0.091782 0.000000 0.021899
# 5 0.002823 0.001208 -0.009723 0.000000 0.038511 0.000000
# 6 0.000000 0.000000 0.000000 0.021899 0.000000 0.057448
#
#
# Mechanical properties :
#
#
# Convention : Reuss Voigt Hill
#
# Bulk Modulus (GPa) = 67.17698 72.67362 69.92530
# Shear Modulus (GPa) = 19.59873 25.50692 22.55282
#
# Velocity S-wave (km/s) = 3.16188 3.60712 3.39182
# Velocity P-wave (km/s) = 6.89910 7.37699 7.14204
#
# Compressibility (1/GPa) = 0.01488605
#
# Stress axis : x y z
#
# Youngs Moduli (GPa) = 74.83929 89.97178 70.55093
#
# Poissons Ratio (x) = 0.34310 0.26577
# Poissons Ratio (y) = 0.28539 0.30350
# Poissons Ratio (z) = 0.28192 0.38705
#
# Static dielectric constant tensor:
#      x y z
#    x 1.715070 0.000000 -0.047570 
#    y 0.000000 1.695900 0.000000 
#    z -0.047570 0.000000 1.910360 
# 
# From -- ./inp_files/100033.got.cif
#   From: 2010.05.17/outbox.cif.g08.bks.cpg/sg15_51_cif.got.tgz:100033.got - 2010.06.03 18:47:42.
