data_PCOD9259769
_publ_section_title
;
Structure prediction by ZEFSAII (Michael W. Deem and Ramdas Pophale) SiO2 
 PCOD9259769
Probable space group: C 2/C
;
_chemical_formula_sum "Si O2"
_cell_formula_units_Z 48
_cell_length_a 11.449215
_cell_length_b 15.193711
_cell_length_c 15.542578
_cell_angle_alpha 90.000000
_cell_angle_beta 75.276626
_cell_angle_gamma 90.000000
_cell_volume 2614.946563
_symmetry_space_group_name_H-M "C 2/C"
_symmetry_group_IT_number 15
_symmetry_cell_setting 'monoclinic'
loop_
_space_group_symop_operation_xyz
x,y,z
-x,y,1/2-z
-x,-y,-z
x,-y,1/2+z
1/2+x,1/2+y,z
1/2-x,1/2+y,1/2-z
1/2-x,1/2-y,-z
1/2+x,1/2-y,1/2+z
loop_
_atom_site_type_symbol
_atom_site_label
_atom_site_fract_x
_atom_site_fract_y
_atom_site_fract_z
Si Si1 0.024729 0.518334 0.645434
Si Si2 0.145199 0.206270 0.726080
Si Si3 0.757025 0.603056 0.998640
Si Si4 0.116348 0.762277 0.424210
Si Si5 0.720237 0.931248 0.406488
Si Si6 0.879216 0.671093 0.418433
O O1 0.144888 0.565725 0.587698
O O2 0.046049 0.414044 0.628479
O O3 0.000000 0.537223 0.750000
O O4 0.912349 0.547652 0.607232
O O5 0.174372 0.227697 0.818825
O O6 0.203339 0.117070 0.680483
O O7 0.181150 0.283305 0.652579
O O8 0.000000 0.200470 0.750000
O O9 0.646369 0.649789 0.971394
O O10 0.823262 0.679818 0.039414
O O11 0.726713 0.521939 0.066615
O O12 0.975727 0.739733 0.439132
O O13 0.705013 0.865528 0.490448
#
# Coordination Sequence:
#
# PCOD9259769 Si02
#       6
#     8   8   8   8   8   8
#     4  11  19  32  56  89 109 138 184 229 266 313
#     4  10  22  36  57  76 111 145 186 218 270 327
#     4  10  20  33  57  78 117 143 172 224 280 318
#     4  10  18  36  54  82 106 151 172 215 282 326
#     4  11  20  36  55  84 109 138 187 231 265 316
#     4  10  19  36  57  80 107 145 183 226 267 321
#
# _framework density 18.356016
#
# number of rings (size 3 to 8) (size 9 to 14) (size 15 to 20)
#    0.000    1.667    3.333    4.000    0.000    0.000 
#    0.000    3.333    3.667    0.000    0.000    0.000 
#    0.000    0.000    0.000    0.000    0.000    0.000 
#
# Total GULP energy -133952.467344 kJ/mol
# GULP energy per Si atom -5581.352806 kJ/mol
# Density = 1.831424 g / cm^3
# Si number density = 18.356016 Si / 1000 Ang^3
#
#
#
# Elastic Constant Matrix: (Units=GPa)
#
#
# Indices 1 2 3 4 5 6 
#
# 1 15.1296 20.3219 2.1090 0.0000 7.6060 0.0000
# 2 20.3219 91.4915 27.6459 0.0000 -0.1337 0.0000
# 3 2.1090 27.6459 69.6274 0.0000 3.7325 0.0000
# 4 0.0000 0.0000 0.0000 26.3771 0.0000 6.1705
# 5 7.6060 -0.1337 3.7325 0.0000 22.2911 0.0000
# 6 0.0000 0.0000 0.0000 6.1705 0.0000 14.6938
#
#
#
# Elastic Compliance Matrix: (Units=1/GPa)
#
#
# Indices 1 2 3 4 5 6 
#
# 1 0.132755 -0.033079 0.011656 0.000000 -0.047448 0.000000
# 2 -0.033079 0.020681 -0.007892 0.000000 0.012732 0.000000
# 3 0.011656 -0.007892 0.017516 0.000000 -0.006958 0.000000
# 4 0.000000 0.000000 0.000000 0.042042 0.000000 -0.017655
# 5 -0.047448 0.012732 -0.006958 0.000000 0.062292 0.000000
# 6 0.000000 0.000000 0.000000 -0.017655 0.000000 0.075470
#
#
# Mechanical properties :
#
#
# Convention : Reuss Voigt Hill
#
# Bulk Modulus (GPa) = 8.90294 30.71136 19.80715
# Shear Modulus (GPa) = 11.19009 21.08386 16.13698
#
# Velocity S-wave (km/s) = 2.47172 3.39279 2.96820
# Velocity P-wave (km/s) = 3.60645 5.66704 4.74983
#
# Compressibility (1/GPa) = 0.11232244
#
# Stress axis : x y z
#
# Youngs Moduli (GPa) = 7.53269 48.35431 57.09205
#
# Poissons Ratio (x) = 1.59950 -0.66549
# Poissons Ratio (y) = 0.24917 0.45057
# Poissons Ratio (z) = -0.08780 0.38161
#
# Static dielectric constant tensor:
#      x y z
#    x 1.622930 0.000000 0.008250 
#    y 0.000000 1.635880 0.000000 
#    z 0.008250 0.000000 1.649110 
# 
# From -- ./inp_files/143516.got.cif
#   From: 2010.05.17/outbox.cif.g08.bks.cpg/sg15_72_cif.got.tgz:143516.got - 2010.06.03 18:47:42.
