data_PCOD9259308
_publ_section_title
;
Structure prediction by ZEFSAII (Michael W. Deem and Ramdas Pophale) SiO2 
 PCOD9259308
Probable space group: C 2/C
;
_chemical_formula_sum "Si O2"
_cell_formula_units_Z 40
_cell_length_a 13.955614
_cell_length_b 18.875281
_cell_length_c 14.374195
_cell_angle_alpha 90.000000
_cell_angle_beta 150.542260
_cell_angle_gamma 90.000000
_cell_volume 1862.078861
_symmetry_space_group_name_H-M "C 2/C"
_symmetry_group_IT_number 15
_symmetry_cell_setting 'monoclinic'
loop_
_space_group_symop_operation_xyz
x,y,z
-x,y,1/2-z
-x,-y,-z
x,-y,1/2+z
1/2+x,1/2+y,z
1/2-x,1/2+y,1/2-z
1/2-x,1/2-y,-z
1/2+x,1/2-y,1/2+z
loop_
_atom_site_type_symbol
_atom_site_label
_atom_site_fract_x
_atom_site_fract_y
_atom_site_fract_z
Si Si1 0.823911 0.159615 0.491248
Si Si2 0.895651 0.667667 0.807720
Si Si3 0.085109 0.675678 0.454601
Si Si4 0.525457 0.417611 0.002781
Si Si5 0.671882 0.325812 0.820261
O O1 0.894285 0.240594 0.547411
O O2 0.760109 0.141414 0.542277
O O3 0.620982 0.153525 0.262696
O O4 0.978143 0.116890 0.562432
O O5 0.738905 0.608051 0.650468
O O6 0.820279 0.745816 0.714897
O O7 0.912130 0.665389 0.933629
O O8 0.115660 0.659071 0.957523
O O9 0.381698 0.381899 0.805488
O O10 0.500000 0.500000 0.000000
O O11 0.500000 0.327135 0.750000
#
# Coordination Sequence:
#
# PCOD9259308 Si02
#       5
#     8   8   8   8   8
#     4  10  19  35  59  96 131 166 218 271 332 403
#     4  12  22  42  75  97 134 178 232 296 342 399
#     4  10  18  34  66  95 123 167 221 277 327 394
#     4  12  27  45  65 101 144 181 225 284 354 419
#     4  12  25  45  73 104 131 181 248 290 337 410
#
# _framework density 21.481366999999999
#
# number of rings (size 3 to 8) (size 9 to 14) (size 15 to 20)
#    0.000    0.800    6.000    1.800    0.000    3.200 
#    3.600    2.000    0.000    0.000    0.000    0.000 
#    0.000    0.000    0.000    0.000    0.000    0.000 
#
# Total GULP energy -111864.099313 kJ/mol
# GULP energy per Si atom -5593.204966 kJ/mol
# Density = 2.143247 g / cm^3
# Si number density = 21.481367 Si / 1000 Ang^3
#
#
#
# Elastic Constant Matrix: (Units=GPa)
#
#
# Indices 1 2 3 4 5 6 
#
# 1 100.9982 20.8456 13.5333 0.0000 18.6177 0.0000
# 2 20.8456 108.9106 39.0433 0.0000 11.2665 0.0000
# 3 13.5333 39.0433 99.2507 0.0000 29.9503 0.0000
# 4 0.0000 0.0000 0.0000 15.9239 0.0000 -0.6494
# 5 18.6177 11.2665 29.9503 0.0000 46.0639 0.0000
# 6 0.0000 0.0000 0.0000 -0.6494 0.0000 23.4275
#
#
#
# Elastic Compliance Matrix: (Units=1/GPa)
#
#
# Indices 1 2 3 4 5 6 
#
# 1 0.011013 -0.001851 0.000539 0.000000 -0.004349 0.000000
# 2 -0.001851 0.011001 -0.004341 0.000000 0.000880 0.000000
# 3 0.000539 -0.004341 0.014251 0.000000 -0.008422 0.000000
# 4 0.000000 0.000000 0.000000 0.062870 0.000000 0.001743
# 5 -0.004349 0.000880 -0.008422 0.000000 0.028727 0.000000
# 6 0.000000 0.000000 0.000000 0.001743 0.000000 0.042733
#
#
# Mechanical properties :
#
#
# Convention : Reuss Voigt Hill
#
# Bulk Modulus (GPa) = 40.06606 50.66711 45.36659
# Shear Modulus (GPa) = 26.28520 32.79886 29.54203
#
# Velocity S-wave (km/s) = 3.50183 3.91173 3.71245
# Velocity P-wave (km/s) = 5.91967 6.63626 6.28818
#
# Compressibility (1/GPa) = 0.02495878
#
# Stress axis : x y z
#
# Youngs Moduli (GPa) = 90.80482 90.89868 70.17027
#
# Poissons Ratio (x) = 0.16827 -0.03781
# Poissons Ratio (y) = 0.16809 0.30459
# Poissons Ratio (z) = -0.04893 0.39457
#
# Static dielectric constant tensor:
#      x y z
#    x 1.838440 0.000000 0.007820 
#    y 0.000000 1.748750 0.000000 
#    z 0.007820 0.000000 1.889270 
# 
# From -- ./inp_files/155603.got.cif
#   From: 2010.05.17/outbox.cif.g08.bks.cpg/sg15_78_cif.got.tgz:155603.got - 2010.06.03 18:47:42.
