data_PCOD9259504
_publ_section_title
;
Structure prediction by ZEFSAII (Michael W. Deem and Ramdas Pophale) SiO2 
 PCOD9259504
Probable space group: C 2/C
;
_chemical_formula_sum "Si O2"
_cell_formula_units_Z 44
_cell_length_a 16.508674
_cell_length_b 5.037844
_cell_length_c 28.321514
_cell_angle_alpha 90.000000
_cell_angle_beta 50.831542
_cell_angle_gamma 90.000000
_cell_volume 1826.160099
_symmetry_space_group_name_H-M "C 2/C"
_symmetry_group_IT_number 15
_symmetry_cell_setting 'monoclinic'
loop_
_space_group_symop_operation_xyz
x,y,z
-x,y,1/2-z
-x,-y,-z
x,-y,1/2+z
1/2+x,1/2+y,z
1/2-x,1/2+y,1/2-z
1/2-x,1/2-y,-z
1/2+x,1/2-y,1/2+z
loop_
_atom_site_type_symbol
_atom_site_label
_atom_site_fract_x
_atom_site_fract_y
_atom_site_fract_z
Si Si1 0.826331 0.000352 0.473531
Si Si2 0.671423 0.436796 0.629498
Si Si3 0.645576 0.456626 0.332762
Si Si4 0.114293 0.460104 0.286542
Si Si5 0.000000 0.777355 0.250000
Si Si6 0.182169 0.066187 0.421657
O O1 0.750000 0.750000 0.500000
O O2 0.875888 0.988418 0.507285
O O3 0.750000 0.250000 0.500000
O O4 0.881583 0.016222 0.402516
O O5 0.593853 0.532140 0.698753
O O6 0.769139 0.639934 0.595854
O O7 0.719999 0.143511 0.615413
O O8 0.771358 0.479160 0.279526
O O9 0.615234 0.159641 0.330551
O O10 0.621610 0.524745 0.395395
O O11 0.601720 0.666217 0.311081
O O12 0.032854 0.582200 0.280175
#
# Coordination Sequence:
#
# PCOD9259504 Si02
#       6
#     8   8   8   8   4   8
#     4   8  16  31  51  80 107 138 188 239 271 316
#     4  10  21  32  54  85 114 147 184 230 288 337
#     4  10  20  38  54  78 105 151 193 228 270 333
#     4  10  23  34  54  77 114 148 185 228 276 342
#     4  12  24  38  56  86 124 154 178 234 298 354
#     4  10  18  35  59  79 108 146 194 239 273 324
#
# _framework density 24.094272
#
# number of rings (size 3 to 8) (size 9 to 14) (size 15 to 20)
#    0.000    2.182    1.818    1.091    5.091    2.909 
#    0.000    0.000    0.000    2.182    0.000    0.000 
#    0.000    0.000    0.000    0.000    0.000    0.000 
#
# Total GULP energy -123051.119180 kJ/mol
# GULP energy per Si atom -5593.232690 kJ/mol
# Density = 2.403943 g / cm^3
# Si number density = 24.094272 Si / 1000 Ang^3
#
#
#
# Elastic Constant Matrix: (Units=GPa)
#
#
# Indices 1 2 3 4 5 6 
#
# 1 52.5577 -0.1465 34.5992 -0.0009 2.0761 0.0862
# 2 -0.1465 97.5855 -2.5019 -0.0009 -13.6266 0.1836
# 3 34.5992 -2.5019 116.3206 -0.0098 36.7960 0.0291
# 4 -0.0009 -0.0009 -0.0098 22.7283 -0.0014 11.6452
# 5 2.0761 -13.6266 36.7960 -0.0014 40.9094 0.0760
# 6 0.0862 0.1836 0.0291 11.6452 0.0760 17.3214
#
#
#
# Elastic Compliance Matrix: (Units=1/GPa)
#
#
# Indices 1 2 3 4 5 6 
#
# 1 0.025342 0.000908 -0.010073 0.000116 0.008077 -0.000233
# 2 0.000908 0.010914 -0.001636 0.000109 0.005062 -0.000213
# 3 -0.010073 -0.001636 0.016169 -0.000073 -0.014578 0.000153
# 4 0.000116 0.000109 -0.000073 0.067120 0.000182 -0.045128
# 5 0.008077 0.005062 -0.014578 0.000182 0.038833 -0.000362
# 6 -0.000233 -0.000213 0.000153 -0.045128 -0.000362 0.088076
#
#
# Mechanical properties :
#
#
# Convention : Reuss Voigt Hill
#
# Bulk Modulus (GPa) = 32.44448 36.70726 34.57587
# Shear Modulus (GPa) = 17.96413 31.82600 24.89507
#
# Velocity S-wave (km/s) = 2.73349 3.63835 3.21789
# Velocity P-wave (km/s) = 4.84329 5.73743 5.30922
#
# Compressibility (1/GPa) = 0.03082189
#
# Stress axis : x y z
#
# Youngs Moduli (GPa) = 39.46015 91.62521 61.84512
#
# Poissons Ratio (x) = -0.08321 0.62299
# Poissons Ratio (y) = -0.03583 0.10121
# Poissons Ratio (z) = 0.39750 0.14994
#
# Static dielectric constant tensor:
#      x y z
#    x 1.921440 -0.000020 0.046290 
#    y -0.000020 1.836840 -0.000090 
#    z 0.046290 -0.000090 1.959070 
# 
# From -- ./inp_files/271919.got.cif
#   From: 2010.05.17/outbox.cif.g08.bks.cpg/sg15_136_cif.got.tgz:271919.got - 2010.06.03 18:47:42.
