data_PCOD9259265
_publ_section_title
;
Structure prediction by ZEFSAII (Michael W. Deem and Ramdas Pophale) SiO2 
 PCOD9259265
Probable space group: C 2/C
;
_chemical_formula_sum "Si O2"
_cell_formula_units_Z 52
_cell_length_a 7.894695
_cell_length_b 22.234785
_cell_length_c 12.341116
_cell_angle_alpha 90.000000
_cell_angle_beta 88.052744
_cell_angle_gamma 90.000000
_cell_volume 2165.069594
_symmetry_space_group_name_H-M "C 2/C"
_symmetry_group_IT_number 15
_symmetry_cell_setting 'monoclinic'
loop_
_space_group_symop_operation_xyz
x,y,z
-x,y,1/2-z
-x,-y,-z
x,-y,1/2+z
1/2+x,1/2+y,z
1/2-x,1/2+y,1/2-z
1/2-x,1/2-y,-z
1/2+x,1/2-y,1/2+z
loop_
_atom_site_type_symbol
_atom_site_label
_atom_site_fract_x
_atom_site_fract_y
_atom_site_fract_z
Si Si1 0.331977 0.045819 0.829666
Si Si2 0.690299 0.663985 0.778563
Si Si3 0.616954 0.920210 0.600813
Si Si4 0.763084 0.099443 0.341041
Si Si5 0.855967 0.694685 0.547139
Si Si6 0.631813 0.732073 0.144689
Si Si7 0.000000 0.012200 0.250000
O O1 0.500000 0.041660 0.750000
O O2 0.287891 0.115283 0.851680
O O3 0.339130 0.990868 0.915155
O O4 0.163109 0.027366 0.768863
O O5 0.500000 0.648784 0.750000
O O6 0.795164 0.671736 0.665710
O O7 0.701941 0.730344 0.828036
O O8 0.412870 0.919895 0.603453
O O9 0.703767 0.902471 0.714661
O O10 0.662719 0.865354 0.522757
O O11 0.819870 0.164258 0.379941
O O12 0.925865 0.056125 0.344794
O O13 0.750000 0.750000 0.500000
O O14 0.036524 0.727021 0.559433
O O15 0.500000 0.728501 0.250000
#
# Coordination Sequence:
#
# PCOD9259265 Si02
#       7
#     8   8   8   8   8   8   4
#     4  11  20  41  70  94 129 182 232 273 335 414
#     4  11  25  45  68  94 134 186 228 277 350 422
#     4  10  21  38  64  99 129 178 225 284 338 403
#     4  10  19  36  66  94 131 176 229 271 342 411
#     4  11  25  43  63 103 143 174 229 298 348 402
#     4  10  21  38  62  91 130 183 215 272 347 411
#     4  10  18  34  64 100 120 164 238 270 308 406
#
# _framework density 24.017703000000001
#
# number of rings (size 3 to 8) (size 9 to 14) (size 15 to 20)
#    0.000    1.538    4.615    3.231    6.462    0.615 
#    0.000    3.846    0.000    0.000    0.000    0.000 
#    0.000    0.000    0.000    0.000    0.000    0.000 
#
# Total GULP energy -145075.477239 kJ/mol
# GULP energy per Si atom -5579.826048 kJ/mol
# Density = 2.396304 g / cm^3
# Si number density = 24.017703 Si / 1000 Ang^3
#
#
#
# Elastic Constant Matrix: (Units=GPa)
#
#
# Indices 1 2 3 4 5 6 
#
# 1 130.7025 39.9291 -2.3035 0.0000 10.1377 0.0000
# 2 39.9291 130.5489 16.8907 0.0000 4.6080 0.0000
# 3 -2.3035 16.8907 45.4808 0.0000 5.9731 0.0000
# 4 0.0000 0.0000 0.0000 34.9266 0.0000 13.6488
# 5 10.1377 4.6080 5.9731 0.0000 22.2550 0.0000
# 6 0.0000 0.0000 0.0000 13.6488 0.0000 43.7183
#
#
#
# Elastic Compliance Matrix: (Units=1/GPa)
#
#
# Indices 1 2 3 4 5 6 
#
# 1 0.008861 -0.002831 0.002025 0.000000 -0.003994 0.000000
# 2 -0.002831 0.008968 -0.003524 0.000000 0.000379 0.000000
# 3 0.002025 -0.003524 0.024280 0.000000 -0.006709 0.000000
# 4 0.000000 0.000000 0.000000 0.032610 0.000000 -0.010181
# 5 -0.003994 0.000379 -0.006709 0.000000 0.048475 0.000000
# 6 0.000000 0.000000 0.000000 -0.010181 0.000000 0.026052
#
#
# Mechanical properties :
#
#
# Convention : Reuss Voigt Hill
#
# Bulk Modulus (GPa) = 29.89641 46.19611 38.04626
# Shear Modulus (GPa) = 29.57576 36.99437 33.28507
#
# Velocity S-wave (km/s) = 3.51296 3.92892 3.72675
# Velocity P-wave (km/s) = 5.37859 6.31330 5.86460
#
# Compressibility (1/GPa) = 0.03344884
#
# Stress axis : x y z
#
# Youngs Moduli (GPa) = 112.84935 111.50140 41.18675
#
# Poissons Ratio (x) = 0.31569 -0.08340
# Poissons Ratio (y) = 0.31951 0.14514
# Poissons Ratio (z) = -0.22850 0.39291
#
# Static dielectric constant tensor:
#      x y z
#    x 1.912770 0.000000 0.009880 
#    y 0.000000 1.930600 0.000000 
#    z 0.009880 0.000000 2.011320 
# 
# From -- ./inp_files/136062.got.cif
#   From: 2010.05.17/outbox.cif.g08.bks.cpg/sg15_69_cif.got.tgz:136062.got - 2010.06.03 18:47:42.
