data_PCOD9259891
_publ_section_title
;
Structure prediction by ZEFSAII (Michael W. Deem and Ramdas Pophale) SiO2 
 PCOD9259891
Probable space group: C 2/C
;
_chemical_formula_sum "Si O2"
_cell_formula_units_Z 52
_cell_length_a 14.765143
_cell_length_b 30.517658
_cell_length_c 5.091096
_cell_angle_alpha 90.000000
_cell_angle_beta 106.404967
_cell_angle_gamma 90.000000
_cell_volume 2200.644213
_symmetry_space_group_name_H-M "C 2/C"
_symmetry_group_IT_number 15
_symmetry_cell_setting 'monoclinic'
loop_
_space_group_symop_operation_xyz
x,y,z
-x,y,1/2-z
-x,-y,-z
x,-y,1/2+z
1/2+x,1/2+y,z
1/2-x,1/2+y,1/2-z
1/2-x,1/2-y,-z
1/2+x,1/2-y,1/2+z
loop_
_atom_site_type_symbol
_atom_site_label
_atom_site_fract_x
_atom_site_fract_y
_atom_site_fract_z
Si Si1 0.889057 0.168901 0.590700
Si Si2 0.061557 0.553440 0.064753
Si Si3 0.108417 0.733315 0.449409
Si Si4 0.771024 0.973856 0.632137
Si Si5 0.806887 0.125355 0.023540
Si Si6 0.625935 0.146136 0.190637
Si Si7 0.000000 0.696493 0.750000
O O1 0.852563 0.219163 0.579899
O O2 0.872851 0.150710 0.285494
O O3 0.000000 0.167998 0.750000
O O4 0.834192 0.138504 0.752849
O O5 0.156808 0.529901 0.047283
O O6 0.104834 0.596568 0.253818
O O7 0.000000 0.531872 0.250000
O O8 0.000000 0.563896 0.750000
O O9 0.154207 0.688212 0.387247
O O10 0.087929 0.726411 0.742163
O O11 0.000000 0.736261 0.250000
O O12 0.809580 0.926479 0.579925
O O13 0.799817 0.010094 0.443109
O O14 0.702026 0.140727 0.020696
O O15 0.527559 0.163183 0.996576
#
# Coordination Sequence:
#
# PCOD9259891 Si02
#       7
#     8   8   8   8   8   8   4
#     4  11  25  45  68  93 127 163 209 272 333 389
#     4  11  22  36  59  92 131 177 223 257 291 356
#     4   9  21  35  59  89 129 182 216 256 309 362
#     4  11  24  44  67  92 128 165 202 262 332 392
#     4  11  26  43  69  97 123 164 215 265 326 392
#     4  10  22  36  58  91 135 180 225 255 298 354
#     4  10  18  36  58  84 134 186 212 254 292 356
#
# _framework density 23.629442000000001
#
# number of rings (size 3 to 8) (size 9 to 14) (size 15 to 20)
#    0.000    1.538    0.769    3.692    8.615    5.538 
#    0.000    0.000    0.000    9.231    0.000    0.000 
#    0.000    0.000    0.000    0.000    0.000    0.000 
#
# Total GULP energy -145131.454465 kJ/mol
# GULP energy per Si atom -5581.979018 kJ/mol
# Density = 2.357566 g / cm^3
# Si number density = 23.629442 Si / 1000 Ang^3
#
#
#
# Elastic Constant Matrix: (Units=GPa)
#
#
# Indices 1 2 3 4 5 6 
#
# 1 44.6941 23.5883 -7.9573 0.0000 -12.6393 0.0000
# 2 23.5883 144.4484 2.1439 0.0000 -14.3314 0.0000
# 3 -7.9573 2.1439 55.1555 0.0000 -7.9422 0.0000
# 4 0.0000 0.0000 0.0000 24.4451 0.0000 -4.0524
# 5 -12.6393 -14.3314 -7.9422 0.0000 41.2790 0.0000
# 6 0.0000 0.0000 0.0000 -4.0524 0.0000 31.9013
#
#
#
# Elastic Compliance Matrix: (Units=1/GPa)
#
#
# Indices 1 2 3 4 5 6 
#
# 1 0.027624 -0.003779 0.005308 0.000000 0.008167 0.000000
# 2 -0.003779 0.007687 -0.000644 0.000000 0.001388 0.000000
# 3 0.005308 -0.000644 0.019668 0.000000 0.005186 0.000000
# 4 0.000000 0.000000 0.000000 0.041788 0.000000 0.005308
# 5 0.008167 0.001388 0.005186 0.000000 0.028206 0.000000
# 6 0.000000 0.000000 0.000000 0.005308 0.000000 0.032021
#
#
# Mechanical properties :
#
#
# Convention : Reuss Voigt Hill
#
# Bulk Modulus (GPa) = 17.62160 31.09420 24.35790
# Shear Modulus (GPa) = 28.71239 34.62663 31.66951
#
# Velocity S-wave (km/s) = 3.48963 3.83221 3.66492
# Velocity P-wave (km/s) = 4.86932 5.72440 5.31409
#
# Compressibility (1/GPa) = 0.05674854
#
# Stress axis : x y z
#
# Youngs Moduli (GPa) = 36.20071 130.08456 50.84350
#
# Poissons Ratio (x) = 0.49164 -0.26989
# Poissons Ratio (y) = 0.13682 0.03276
# Poissons Ratio (z) = -0.19216 0.08380
#
# Static dielectric constant tensor:
#      x y z
#    x 2.004160 0.000000 -0.081790 
#    y 0.000000 1.915260 0.000000 
#    z -0.081790 0.000000 2.085100 
# 
# From -- ./inp_files/9121.got.cif
#   From: 2010.05.17/outbox.cif.g08.bks.cpg/sg15_5_cif.got.tgz:9121.got - 2010.06.03 18:47:42.
