data_PCOD9259814
_publ_section_title
;
Structure prediction by ZEFSAII (Michael W. Deem and Ramdas Pophale) SiO2 
 PCOD9259814
Probable space group: C 2/C
;
_chemical_formula_sum "Si O2"
_cell_formula_units_Z 64
_cell_length_a 15.511521
_cell_length_b 20.583373
_cell_length_c 11.587747
_cell_angle_alpha 90.000000
_cell_angle_beta 106.261941
_cell_angle_gamma 90.000000
_cell_volume 3551.708610
_symmetry_space_group_name_H-M "C 2/C"
_symmetry_group_IT_number 15
_symmetry_cell_setting 'monoclinic'
loop_
_space_group_symop_operation_xyz
x,y,z
-x,y,1/2-z
-x,-y,-z
x,-y,1/2+z
1/2+x,1/2+y,z
1/2-x,1/2+y,1/2-z
1/2-x,1/2-y,-z
1/2+x,1/2-y,1/2+z
loop_
_atom_site_type_symbol
_atom_site_label
_atom_site_fract_x
_atom_site_fract_y
_atom_site_fract_z
Si Si1 0.212284 0.844299 0.035511
Si Si2 0.831300 0.708657 0.167653
Si Si3 0.751923 0.649446 0.810039
Si Si4 0.854101 0.856627 0.898018
Si Si5 0.099081 0.079327 0.317254
Si Si6 0.371421 0.202475 0.445116
Si Si7 0.923339 0.712780 0.960476
Si Si8 0.911248 0.925671 0.145168
O O1 0.245383 0.865036 0.172678
O O2 0.164559 0.774966 0.040005
O O3 0.140476 0.888802 0.945684
O O4 0.298207 0.839920 0.984351
O O5 0.789862 0.780072 0.173120
O O6 0.747835 0.662006 0.102951
O O7 0.868281 0.689656 0.306778
O O8 0.901019 0.714133 0.089320
O O9 0.854891 0.659362 0.884478
O O10 0.683232 0.599854 0.841495
O O11 0.848072 0.896940 0.777060
O O12 0.899803 0.785120 0.903353
O O13 0.908966 0.897945 0.013795
O O14 0.000000 0.104106 0.250000
O O15 0.091662 0.002988 0.340062
O O16 0.473546 0.197030 0.523379
O O17 0.000000 0.902188 0.250000
#
# Coordination Sequence:
#
# PCOD9259814 Si02
#       8
#     8   8   8   8   8   8   8   8
#     4  10  22  39  53  81 119 153 187 229 286 342
#     4  10  18  36  56  87 113 145 187 233 290 333
#     4  10  21  36  55  82 119 148 188 233 282 341
#     4  11  21  39  58  82 119 148 186 237 282 336
#     4  11  25  39  57  82 114 157 194 229 276 342
#     4  10  21  34  58  86 116 149 185 233 288 347
#     4  11  20  34  60  89 115 148 186 236 291 339
#     4  11  25  37  58  86 113 151 195 234 277 335
#
# _framework density 18.019496
#
# number of rings (size 3 to 8) (size 9 to 14) (size 15 to 20)
#    0.000    1.500    3.750    1.875    8.750    1.500 
#    0.000    0.000    0.000    0.750    0.000    0.000 
#    0.000    0.000    0.000    0.000    0.000    0.000 
#
# Total GULP energy -178434.892449 kJ/mol
# GULP energy per Si atom -5576.090389 kJ/mol
# Density = 1.797848 g / cm^3
# Si number density = 18.019496 Si / 1000 Ang^3
#
#
#
# Elastic Constant Matrix: (Units=GPa)
#
#
# Indices 1 2 3 4 5 6 
#
# 1 86.1894 12.6266 26.0087 0.0000 25.7383 0.0000
# 2 12.6266 41.0916 28.3104 0.0000 5.3434 0.0000
# 3 26.0087 28.3104 113.6296 0.0000 12.9590 0.0000
# 4 0.0000 0.0000 0.0000 13.3349 0.0000 12.4607
# 5 25.7383 5.3434 12.9590 0.0000 25.6442 0.0000
# 6 0.0000 0.0000 0.0000 12.4607 0.0000 16.7263
#
#
#
# Elastic Compliance Matrix: (Units=1/GPa)
#
#
# Indices 1 2 3 4 5 6 
#
# 1 0.017162 -0.002106 -0.001580 0.000000 -0.015988 0.000000
# 2 -0.002106 0.029798 -0.006871 0.000000 -0.000623 0.000000
# 3 -0.001580 -0.006871 0.011174 0.000000 -0.002629 0.000000
# 4 0.000000 0.000000 0.000000 0.246794 0.000000 -0.183856
# 5 -0.015988 -0.000623 -0.002629 0.000000 0.056500 0.000000
# 6 0.000000 0.000000 0.000000 -0.183856 0.000000 0.196755
#
#
# Mechanical properties :
#
#
# Convention : Reuss Voigt Hill
#
# Bulk Modulus (GPa) = 27.01265 41.64465 34.32865
# Shear Modulus (GPa) = 8.45113 22.73873 15.59493
#
# Velocity S-wave (km/s) = 2.16799 3.55617 2.94504
# Velocity P-wave (km/s) = 4.61413 6.32636 5.53684
#
# Compressibility (1/GPa) = 0.03701970
#
# Stress axis : x y z
#
# Youngs Moduli (GPa) = 58.26816 33.55956 89.49428
#
# Poissons Ratio (x) = 0.07067 0.14142
# Poissons Ratio (y) = 0.12270 0.61491
# Poissons Ratio (z) = 0.09208 0.23059
#
# Static dielectric constant tensor:
#      x y z
#    x 1.647250 0.000000 -0.015620 
#    y 0.000000 1.594180 0.000000 
#    z -0.015620 0.000000 1.660920 
# 
# From -- ./inp_files/99796.got.cif
#   From: 2010.05.17/outbox.cif.g08.bks.cpg/sg15_50_cif.got.tgz:99796.got - 2010.06.03 18:47:42.
