data_PCOD9259218
_publ_section_title
;
Structure prediction by ZEFSAII (Michael W. Deem and Ramdas Pophale) SiO2 
 PCOD9259218
Probable space group: C 2/C
;
_chemical_formula_sum "Si O2"
_cell_formula_units_Z 56
_cell_length_a 6.031288
_cell_length_b 12.715688
_cell_length_c 32.300926
_cell_angle_alpha 90.000000
_cell_angle_beta 115.303706
_cell_angle_gamma 90.000000
_cell_volume 2239.544571
_symmetry_space_group_name_H-M "C 2/C"
_symmetry_group_IT_number 15
_symmetry_cell_setting 'monoclinic'
loop_
_space_group_symop_operation_xyz
x,y,z
-x,y,1/2-z
-x,-y,-z
x,-y,1/2+z
1/2+x,1/2+y,z
1/2-x,1/2+y,1/2-z
1/2-x,1/2-y,-z
1/2+x,1/2-y,1/2+z
loop_
_atom_site_type_symbol
_atom_site_label
_atom_site_fract_x
_atom_site_fract_y
_atom_site_fract_z
Si Si1 0.842666 0.806806 0.345799
Si Si2 0.108833 0.765337 0.912768
Si Si3 0.000000 0.625673 0.250000
Si Si4 0.261024 0.590529 0.581169
Si Si5 0.500000 0.257090 0.750000
Si Si6 0.172395 0.398438 0.851837
Si Si7 0.996210 0.843749 0.484794
Si Si8 0.151910 0.463764 0.938615
O O1 0.732267 0.776765 0.380982
O O2 0.630638 0.811702 0.295436
O O3 0.012522 0.907009 0.368699
O O4 0.012147 0.708281 0.345959
O O5 0.333454 0.760037 0.963895
O O6 0.921291 0.677237 0.914477
O O7 0.947947 0.861958 0.883902
O O8 0.738716 0.683359 0.246037
O O9 0.901001 0.569362 0.200396
O O10 0.346478 0.630670 0.543534
O O11 0.116598 0.481740 0.564763
O O12 0.113170 0.471863 0.886247
O O13 0.186834 0.861288 0.537362
O O14 0.806767 0.940680 0.469943
#
# Coordination Sequence:
#
# PCOD9259218 Si02
#       8
#     8   8   4   8   4   8   8   8
#     4   9  18  33  55  83 106 144 193 246 298 350
#     4   9  17  34  53  78 112 141 190 243 292 348
#     4  10  20  36  58  89 119 148 188 246 312 370
#     4   9  18  34  54  75 112 151 191 241 288 355
#     4  10  18  34  62  89 111 148 196 248 306 364
#     4  10  20  33  55  85 111 147 190 246 308 363
#     4   9  19  35  55  76 108 157 198 239 286 359
#     4  10  20  34  54  81 112 154 197 233 302 362
#
# _framework density 25.005082999999999
#
# number of rings (size 3 to 8) (size 9 to 14) (size 15 to 20)
#    0.000    2.571    1.429    0.429    0.000    1.714 
#    0.000    6.429    0.000    9.429    0.000    0.000 
#    0.000    0.000    0.000    0.000    0.000    0.000 
#
# Total GULP energy -156134.425332 kJ/mol
# GULP energy per Si atom -5576.229476 kJ/mol
# Density = 2.494817 g / cm^3
# Si number density = 25.005083 Si / 1000 Ang^3
#
#
#
# Elastic Constant Matrix: (Units=GPa)
#
#
# Indices 1 2 3 4 5 6 
#
# 1 110.9082 18.9443 45.6534 0.0000 20.0318 0.0000
# 2 18.9443 76.3212 21.6446 0.0000 20.0286 0.0000
# 3 45.6534 21.6446 201.5353 0.0000 3.3242 0.0000
# 4 0.0000 0.0000 0.0000 23.3597 0.0000 0.6146
# 5 20.0318 20.0286 3.3242 0.0000 40.6134 0.0000
# 6 0.0000 0.0000 0.0000 0.6146 0.0000 32.0411
#
#
#
# Elastic Compliance Matrix: (Units=1/GPa)
#
#
# Indices 1 2 3 4 5 6 
#
# 1 0.010982 -0.000799 -0.002322 0.000000 -0.004832 0.000000
# 2 -0.000799 0.015573 -0.001373 0.000000 -0.007173 0.000000
# 3 -0.002322 -0.001373 0.005613 0.000000 0.001363 0.000000
# 4 0.000000 0.000000 0.000000 0.042830 0.000000 -0.000821
# 5 -0.004832 -0.007173 0.001363 0.000000 0.030432 0.000000
# 6 0.000000 0.000000 0.000000 -0.000821 0.000000 0.031226
#
#
# Mechanical properties :
#
#
# Convention : Reuss Voigt Hill
#
# Bulk Modulus (GPa) = 43.14352 62.36103 52.75227
# Shear Modulus (GPa) = 32.60089 39.37100 35.98594
#
# Velocity S-wave (km/s) = 3.61469 3.97233 3.79772
# Velocity P-wave (km/s) = 5.89175 6.78474 6.35395
#
# Compressibility (1/GPa) = 0.02317845
#
# Stress axis : x y z
#
# Youngs Moduli (GPa) = 91.06122 64.21478 178.16029
#
# Poissons Ratio (x) = 0.05132 0.41371
# Poissons Ratio (y) = 0.07277 0.24464
# Poissons Ratio (z) = 0.21145 0.08818
#
# Static dielectric constant tensor:
#      x y z
#    x 2.082280 0.000000 0.039360 
#    y 0.000000 2.018120 0.000000 
#    z 0.039360 0.000000 1.956280 
# 
# From -- ./inp_files/305847.got.cif
#   From: 2010.05.17/outbox.cif.g08.bks.cpg/sg15_153_cif.got.tgz:305847.got - 2010.06.03 18:47:42.
