data_PCOD9259615
_publ_section_title
;
Structure prediction by ZEFSAII (Michael W. Deem and Ramdas Pophale) SiO2 
 PCOD9259615
Probable space group: C 2/C
;
_chemical_formula_sum "Si O2"
_cell_formula_units_Z 44
_cell_length_a 18.279007
_cell_length_b 14.225230
_cell_length_c 8.986213
_cell_angle_alpha 90.000000
_cell_angle_beta 131.697694
_cell_angle_gamma 90.000000
_cell_volume 1744.674337
_symmetry_space_group_name_H-M "C 2/C"
_symmetry_group_IT_number 15
_symmetry_cell_setting 'monoclinic'
loop_
_space_group_symop_operation_xyz
x,y,z
-x,y,1/2-z
-x,-y,-z
x,-y,1/2+z
1/2+x,1/2+y,z
1/2-x,1/2+y,1/2-z
1/2-x,1/2-y,-z
1/2+x,1/2-y,1/2+z
loop_
_atom_site_type_symbol
_atom_site_label
_atom_site_fract_x
_atom_site_fract_y
_atom_site_fract_z
Si Si1 0.407720 0.271764 0.879728
Si Si2 0.836263 0.146645 0.560661
Si Si3 0.190304 0.454946 0.635333
Si Si4 0.125851 0.945572 0.828000
Si Si5 0.500000 0.855345 0.250000
Si Si6 0.237603 0.154347 0.715949
O O1 0.399093 0.280545 0.047307
O O2 0.431346 0.377323 0.858471
O O3 0.468147 0.206243 0.850799
O O4 0.294915 0.235516 0.707262
O O5 0.743722 0.105074 0.338528
O O6 0.798357 0.181869 0.668553
O O7 0.899355 0.052227 0.676132
O O8 0.269007 0.452381 0.609761
O O9 0.089687 0.416096 0.435801
O O10 0.188083 0.565299 0.674297
O O11 0.145005 0.886667 0.002711
#
# Coordination Sequence:
#
# PCOD9259615 Si02
#       6
#     8   8   8   8   4   8
#     4  11  22  37  60  89 116 162 208 239 293 366
#     4   9  20  37  63  91 115 147 209 267 292 320
#     4   9  20  37  58  89 125 164 190 235 310 363
#     4   9  18  38  63  85 111 158 210 250 291 339
#     4  12  24  38  58  88 134 172 188 220 312 390
#     4  10  18  35  61  91 114 149 205 253 293 338
#
# _framework density 25.219605999999999
#
# number of rings (size 3 to 8) (size 9 to 14) (size 15 to 20)
#    0.000    2.182    1.818    2.182    2.545    0.727 
#    0.000    0.909    0.000    0.000    0.000    0.000 
#    0.000    0.000    0.000    0.000    0.000    0.000 
#
# Total GULP energy -122830.929488 kJ/mol
# GULP energy per Si atom -5583.224068 kJ/mol
# Density = 2.516221 g / cm^3
# Si number density = 25.219606 Si / 1000 Ang^3
#
#
#
# Elastic Constant Matrix: (Units=GPa)
#
#
# Indices 1 2 3 4 5 6 
#
# 1 123.8784 18.1409 46.5290 0.0000 -15.0016 0.0000
# 2 18.1409 82.9906 7.0432 0.0000 3.8474 0.0000
# 3 46.5290 7.0432 97.5853 0.0000 -10.5522 0.0000
# 4 0.0000 0.0000 0.0000 26.0619 0.0000 -21.2357
# 5 -15.0016 3.8474 -10.5522 0.0000 39.6904 0.0000
# 6 0.0000 0.0000 0.0000 -21.2357 0.0000 17.1720
#
#
#
# Elastic Compliance Matrix: (Units=1/GPa)
#
#
# Indices 1 2 3 4 5 6 
#
# 1 0.010417 -0.002031 -0.004503 0.000000 0.002937 0.000000
# 2 -0.002031 0.012601 -0.000161 0.000000 -0.002032 0.000000
# 3 -0.004503 -0.000161 0.012585 0.000000 0.001660 0.000000
# 4 0.000000 0.000000 0.000000 -5.018592 0.000000 -6.206243
# 5 0.002937 -0.002032 0.001660 0.000000 0.026943 0.000000
# 6 0.000000 0.000000 0.000000 -6.206243 0.000000 -7.616718
#
#
# Mechanical properties :
#
#
# Convention : Reuss Voigt Hill
#
# Bulk Modulus (GPa) = 45.01533 49.76450 47.38992
# Shear Modulus (GPa) = -0.39834 32.10093 15.85129
#
# Velocity S-wave (km/s) = -0.39786 3.57158 2.50977
# Velocity P-wave (km/s) = 4.20441 6.06494 5.21827
#
# Compressibility (1/GPa) = 0.02221465
#
# Stress axis : x y z
#
# Youngs Moduli (GPa) = 95.99985 79.35646 79.45744
#
# Poissons Ratio (x) = 0.16117 0.35776
# Poissons Ratio (y) = 0.19498 0.01278
# Poissons Ratio (z) = 0.43224 0.01276
#
# Static dielectric constant tensor:
#      x y z
#    x 1.977920 0.000000 0.025560 
#    y 0.000000 2.059020 0.000000 
#    z 0.025560 0.000000 2.081540 
# 
# From -- ./inp_files/47080.got.cif
#   From: 2010.05.17/outbox.cif.g08.bks.cpg/sg15_24_cif.got.tgz:47080.got - 2010.06.03 18:47:42.
