data_PCOD9259983
_publ_section_title
;
Structure prediction by ZEFSAII (Michael W. Deem and Ramdas Pophale) SiO2 
 PCOD9259983
Probable space group: C 2/C
;
_chemical_formula_sum "Si O2"
_cell_formula_units_Z 40
_cell_length_a 9.316718
_cell_length_b 9.166082
_cell_length_c 17.477359
_cell_angle_alpha 90.000000
_cell_angle_beta 79.959949
_cell_angle_gamma 90.000000
_cell_volume 1469.671646
_symmetry_space_group_name_H-M "C 2/C"
_symmetry_group_IT_number 15
_symmetry_cell_setting 'monoclinic'
loop_
_space_group_symop_operation_xyz
x,y,z
-x,y,1/2-z
-x,-y,-z
x,-y,1/2+z
1/2+x,1/2+y,z
1/2-x,1/2+y,1/2-z
1/2-x,1/2-y,-z
1/2+x,1/2-y,1/2+z
loop_
_atom_site_type_symbol
_atom_site_label
_atom_site_fract_x
_atom_site_fract_y
_atom_site_fract_z
Si Si1 0.098464 0.177917 0.332320
Si Si2 0.638220 0.388138 0.994721
Si Si3 0.268635 0.352422 0.924345
Si Si4 0.500000 0.573241 0.750000
Si Si5 0.000000 0.565884 0.750000
Si Si6 0.969166 0.682519 0.372049
O O1 0.927320 0.176431 0.373851
O O2 0.180905 0.151374 0.403960
O O3 0.112725 0.323940 0.281853
O O4 0.114559 0.036306 0.278110
O O5 0.740266 0.485634 0.039171
O O6 0.590073 0.239821 0.040618
O O7 0.500000 0.500000 0.000000
O O8 0.142386 0.326620 0.875137
O O9 0.250000 0.250000 0.000000
O O10 0.559205 0.679666 0.680024
O O11 0.057857 0.461600 0.676545
#
# Coordination Sequence:
#
# PCOD9259983 Si02
#       6
#     8   8   8   4   4   8
#     4  10  20  39  61  86 126 163 212 255 323 382
#     4  10  18  37  63  90 118 170 212 258 316 382
#     4  11  19  35  66  94 116 162 225 259 304 389
#     4  10  18  36  60  84 124 172 198 256 334 384
#     4  10  26  40  56  92 130 164 190 278 332 360
#     4  11  21  38  62  90 126 162 210 261 326 374
#
# _framework density 27.216961999999999
#
# number of rings (size 3 to 8) (size 9 to 14) (size 15 to 20)
#    0.000    1.600    8.000    0.000    0.000    2.400 
#    0.000    1.000    0.000    0.000    0.000    0.000 
#    0.000    0.000    0.000    0.000    0.000    0.000 
#
# Total GULP energy -112011.017784 kJ/mol
# GULP energy per Si atom -5600.550889 kJ/mol
# Density = 2.715502 g / cm^3
# Si number density = 27.216962 Si / 1000 Ang^3
#
#
#
# Elastic Constant Matrix: (Units=GPa)
#
#
# Indices 1 2 3 4 5 6 
#
# 1 75.6697 36.3171 34.8862 0.0000 13.3727 0.0000
# 2 36.3171 210.5733 79.3279 0.0000 -3.4986 0.0000
# 3 34.8862 79.3279 167.7794 0.0000 8.3763 0.0000
# 4 0.0000 0.0000 0.0000 77.9465 0.0000 4.9075
# 5 13.3727 -3.4986 8.3763 0.0000 46.1262 0.0000
# 6 0.0000 0.0000 0.0000 4.9075 0.0000 31.3528
#
#
#
# Elastic Compliance Matrix: (Units=1/GPa)
#
#
# Indices 1 2 3 4 5 6 
#
# 1 0.015946 -0.002015 -0.002144 0.000000 -0.004387 0.000000
# 2 -0.002015 0.006074 -0.002528 0.000000 0.001504 0.000000
# 3 -0.002144 -0.002528 0.007649 0.000000 -0.000959 0.000000
# 4 0.000000 0.000000 0.000000 0.012957 0.000000 -0.002028
# 5 -0.004387 0.001504 -0.000959 0.000000 0.023240 0.000000
# 6 0.000000 0.000000 0.000000 -0.002028 0.000000 0.032213
#
#
# Mechanical properties :
#
#
# Convention : Reuss Voigt Hill
#
# Bulk Modulus (GPa) = 61.36842 83.89829 72.63336
# Shear Modulus (GPa) = 42.77751 51.31787 47.04769
#
# Velocity S-wave (km/s) = 3.96880 4.34696 4.16217
# Velocity P-wave (km/s) = 6.60292 7.48915 7.05996
#
# Compressibility (1/GPa) = 0.01629502
#
# Stress axis : x y z
#
# Youngs Moduli (GPa) = 62.71087 164.64137 130.73606
#
# Poissons Ratio (x) = 0.33183 0.28026
# Poissons Ratio (y) = 0.12639 0.33047
# Poissons Ratio (z) = 0.13443 0.41618
#
# Static dielectric constant tensor:
#      x y z
#    x 2.264870 0.000000 -0.039910 
#    y 0.000000 2.076260 0.000000 
#    z -0.039910 0.000000 2.121810 
# 
# From -- ./inp_files/195200.got.cif
#   From: 2010.05.17/outbox.cif.g08.bks.cpg/sg15_98_cif.got.tgz:195200.got - 2010.06.03 18:47:42.
