data_PCOD9259354
_publ_section_title
;
Structure prediction by ZEFSAII (Michael W. Deem and Ramdas Pophale) SiO2 
 PCOD9259354
Probable space group: C 2/C
;
_chemical_formula_sum "Si O2"
_cell_formula_units_Z 60
_cell_length_a 17.643540
_cell_length_b 15.566564
_cell_length_c 11.780865
_cell_angle_alpha 90.000000
_cell_angle_beta 46.190862
_cell_angle_gamma 90.000000
_cell_volume 2334.974710
_symmetry_space_group_name_H-M "C 2/C"
_symmetry_group_IT_number 15
_symmetry_cell_setting 'monoclinic'
loop_
_space_group_symop_operation_xyz
x,y,z
-x,y,1/2-z
-x,-y,-z
x,-y,1/2+z
1/2+x,1/2+y,z
1/2-x,1/2+y,1/2-z
1/2-x,1/2-y,-z
1/2+x,1/2-y,1/2+z
loop_
_atom_site_type_symbol
_atom_site_label
_atom_site_fract_x
_atom_site_fract_y
_atom_site_fract_z
Si Si1 0.661178 0.591489 0.941971
Si Si2 0.392372 0.573815 0.082497
Si Si3 0.620570 0.308202 0.700176
Si Si4 0.129724 0.654543 0.548600
Si Si5 0.673441 0.023905 0.085354
Si Si6 0.330072 0.144002 0.230392
Si Si7 0.705933 0.323271 0.171628
Si Si8 0.000000 0.858589 0.250000
O O1 0.597605 0.529220 0.921130
O O2 0.711480 0.655733 0.800089
O O3 0.600527 0.642089 0.102503
O O4 0.741694 0.533979 0.932430
O O5 0.425298 0.642742 0.143115
O O6 0.265678 0.586391 0.216855
O O7 0.435745 0.591040 0.912254
O O8 0.746611 0.318417 0.582062
O O9 0.594657 0.209836 0.695250
O O10 0.115022 0.552593 0.581249
O O11 0.099583 0.673253 0.448546
O O12 0.732329 0.096710 0.948881
O O13 0.612090 0.083539 0.238943
O O14 0.266343 0.222112 0.357096
O O15 0.590470 0.315936 0.233215
#
# Coordination Sequence:
#
# PCOD9259354 Si02
#       8
#     8   8   8   8   8   8   8   4
#     4  10  18  35  55  79 115 154 186 232 278 338
#     4  10  22  37  55  82 119 149 197 230 282 344
#     4   9  17  33  55  82 110 151 187 238 282 327
#     4   9  17  32  55  86 116 138 187 241 289 332
#     4  10  19  32  54  89 116 143 182 238 292 339
#     4  10  19  36  58  83 112 150 192 238 287 339
#     4  12  22  37  56  81 121 154 194 234 282 339
#     4  12  26  40  48  82 120 164 194 230 270 340
#
# _framework density 25.696210000000001
#
# number of rings (size 3 to 8) (size 9 to 14) (size 15 to 20)
#    0.000    1.867    4.000    3.600    1.867    0.533 
#    0.000    0.000    0.000    0.000    0.000    3.733 
#    0.000    0.000    0.000    0.000    0.000    0.000 
#
# Total GULP energy -167106.047180 kJ/mol
# GULP energy per Si atom -5570.201573 kJ/mol
# Density = 2.563772 g / cm^3
# Si number density = 25.696210 Si / 1000 Ang^3
#
#
#
# Elastic Constant Matrix: (Units=GPa)
#
#
# Indices 1 2 3 4 5 6 
#
# 1 30.6212 -20.1921 5.5961 0.0000 14.2855 0.0000
# 2 -20.1921 169.3765 49.7643 0.0000 30.3264 0.0000
# 3 5.5961 49.7643 136.0764 0.0000 30.8769 0.0000
# 4 0.0000 0.0000 0.0000 30.4227 0.0000 19.6745
# 5 14.2855 30.3264 30.8769 0.0000 37.3672 0.0000
# 6 0.0000 0.0000 0.0000 19.6745 0.0000 5.9183
#
#
#
# Elastic Compliance Matrix: (Units=1/GPa)
#
#
# Indices 1 2 3 4 5 6 
#
# 1 0.055021 0.012012 0.000405 0.000000 -0.031118 0.000000
# 2 0.012012 0.009804 -0.001516 0.000000 -0.011296 0.000000
# 3 0.000405 -0.001516 0.009406 0.000000 -0.006697 0.000000
# 4 0.000000 0.000000 0.000000 -0.028586 0.000000 0.095029
# 5 -0.031118 -0.011296 -0.006697 0.000000 0.053359 0.000000
# 6 0.000000 0.000000 0.000000 0.095029 0.000000 -0.146944
#
#
# Mechanical properties :
#
#
# Convention : Reuss Voigt Hill
#
# Bulk Modulus (GPa) = 10.41310 45.15676 27.78493
# Shear Modulus (GPa) = -132.51955 34.80203 -48.85876
#
# Velocity S-wave (km/s) = -7.18913 3.68416 -4.36523
# Velocity P-wave (km/s) = 8.05297 5.97569 3.81716
#
# Compressibility (1/GPa) = 0.09603285
#
# Stress axis : x y z
#
# Youngs Moduli (GPa) = 18.17491 101.99958 106.31262
#
# Poissons Ratio (x) = -1.22519 -0.04310
# Poissons Ratio (y) = -0.21831 0.16120
# Poissons Ratio (z) = -0.00737 0.15466
#
# Static dielectric constant tensor:
#      x y z
#    x 2.159140 0.000000 -0.018660 
#    y 0.000000 2.123270 0.000000 
#    z -0.018660 0.000000 2.060180 
# 
# From -- ./inp_files/118765.got.cif
#   From: 2010.05.17/outbox.cif.g08.bks.cpg/sg15_60_cif.got.tgz:118765.got - 2010.06.03 18:47:42.
