data_PCOD9259593
_publ_section_title
;
Structure prediction by ZEFSAII (Michael W. Deem and Ramdas Pophale) SiO2 
 PCOD9259593
Probable space group: C 2/C
;
_chemical_formula_sum "Si O2"
_cell_formula_units_Z 44
_cell_length_a 20.562716
_cell_length_b 13.698416
_cell_length_c 8.830236
_cell_angle_alpha 90.000000
_cell_angle_beta 125.318156
_cell_angle_gamma 90.000000
_cell_volume 2029.499960
_symmetry_space_group_name_H-M "C 2/C"
_symmetry_group_IT_number 15
_symmetry_cell_setting 'monoclinic'
loop_
_space_group_symop_operation_xyz
x,y,z
-x,y,1/2-z
-x,-y,-z
x,-y,1/2+z
1/2+x,1/2+y,z
1/2-x,1/2+y,1/2-z
1/2-x,1/2-y,-z
1/2+x,1/2-y,1/2+z
loop_
_atom_site_type_symbol
_atom_site_label
_atom_site_fract_x
_atom_site_fract_y
_atom_site_fract_z
Si Si1 0.211934 0.737297 0.225307
Si Si2 0.671532 0.122539 0.467622
Si Si3 0.938826 0.135534 0.882731
Si Si4 0.000000 0.285229 0.750000
Si Si5 0.235925 0.924222 0.892228
Si Si6 0.878659 0.997205 0.025147
O O1 0.286111 0.808068 0.353055
O O2 0.208431 0.658047 0.357459
O O3 0.133080 0.798917 0.150394
O O4 0.220195 0.676037 0.084652
O O5 0.578498 0.148373 0.345050
O O6 0.700294 0.012303 0.528309
O O7 0.001683 0.212465 0.899028
O O8 0.908027 0.076670 0.693590
O O9 0.947736 0.057829 0.030871
O O10 0.184971 0.933151 0.976204
O O11 0.170200 0.942493 0.672099
#
# Coordination Sequence:
#
# PCOD9259593 Si02
#       6
#     8   8   8   4   8   8
#     4  10  18  35  61  80 116 148 203 240 279 344
#     4  10  19  36  56  87 115 156 192 235 289 351
#     4  10  21  38  57  89 111 158 190 241 294 340
#     4  10  22  36  58  80 124 162 190 218 296 370
#     4  11  18  33  60  91 110 147 195 251 284 327
#     4  10  19  34  58  89 113 139 201 247 288 320
#
# _framework density 21.680216999999999
#
# number of rings (size 3 to 8) (size 9 to 14) (size 15 to 20)
#    0.000    1.818    5.455    2.182    0.000    1.455 
#    0.000    3.636    0.000    0.000    0.000    0.000 
#    0.000    0.000    0.000    0.000    0.000    0.000 
#
# Total GULP energy -122879.928022 kJ/mol
# GULP energy per Si atom -5585.451274 kJ/mol
# Density = 2.163087 g / cm^3
# Si number density = 21.680217 Si / 1000 Ang^3
#
#
#
# Elastic Constant Matrix: (Units=GPa)
#
#
# Indices 1 2 3 4 5 6 
#
# 1 120.2899 58.2468 28.9886 0.0000 0.3263 0.0000
# 2 58.2468 103.4833 23.8669 0.0000 -10.4572 0.0000
# 3 28.9886 23.8669 41.5855 0.0000 -14.0758 0.0000
# 4 0.0000 0.0000 0.0000 28.5786 0.0000 -9.7654
# 5 0.3263 -10.4572 -14.0758 0.0000 25.6649 0.0000
# 6 0.0000 0.0000 0.0000 -9.7654 0.0000 26.1603
#
#
#
# Elastic Compliance Matrix: (Units=1/GPa)
#
#
# Indices 1 2 3 4 5 6 
#
# 1 0.013381 -0.006392 -0.008102 0.000000 -0.007218 0.000000
# 2 -0.006392 0.014225 -0.002111 0.000000 0.004720 0.000000
# 3 -0.008102 -0.002111 0.037636 0.000000 0.019884 0.000000
# 4 0.000000 0.000000 0.000000 0.040107 0.000000 0.014972
# 5 -0.007218 0.004720 0.019884 0.000000 0.051884 0.000000
# 6 0.000000 0.000000 0.000000 0.014972 0.000000 0.043815
#
#
# Mechanical properties :
#
#
# Convention : Reuss Voigt Hill
#
# Bulk Modulus (GPa) = 31.21834 54.17369 42.69602
# Shear Modulus (GPa) = 20.41359 26.36451 23.38905
#
# Velocity S-wave (km/s) = 3.07184 3.49099 3.28810
# Velocity P-wave (km/s) = 5.19734 6.42583 5.84395
#
# Compressibility (1/GPa) = 0.03203245
#
# Stress axis : x y z
#
# Youngs Moduli (GPa) = 74.73548 70.29854 26.57004
#
# Poissons Ratio (x) = 0.44936 0.21527
# Poissons Ratio (y) = 0.47772 0.05608
# Poissons Ratio (z) = 0.60550 0.14838
#
# Static dielectric constant tensor:
#      x y z
#    x 1.790550 0.000000 -0.025360 
#    y 0.000000 1.839910 0.000000 
#    z -0.025360 0.000000 1.793840 
# 
# From -- ./inp_files/54909.got.cif
#   From: 2010.05.17/outbox.cif.g08.bks.cpg/sg15_28_cif.got.tgz:54909.got - 2010.06.03 18:47:42.
