data_PCOD9259258
_publ_section_title
;
Structure prediction by ZEFSAII (Michael W. Deem and Ramdas Pophale) SiO2 
 PCOD9259258
Probable space group: C 2/C
;
_chemical_formula_sum "Si O2"
_cell_formula_units_Z 52
_cell_length_a 12.417326
_cell_length_b 15.009352
_cell_length_c 22.752363
_cell_angle_alpha 90.000000
_cell_angle_beta 38.683071
_cell_angle_gamma 90.000000
_cell_volume 2650.360290
_symmetry_space_group_name_H-M "C 2/C"
_symmetry_group_IT_number 15
_symmetry_cell_setting 'monoclinic'
loop_
_space_group_symop_operation_xyz
x,y,z
-x,y,1/2-z
-x,-y,-z
x,-y,1/2+z
1/2+x,1/2+y,z
1/2-x,1/2+y,1/2-z
1/2-x,1/2-y,-z
1/2+x,1/2-y,1/2+z
loop_
_atom_site_type_symbol
_atom_site_label
_atom_site_fract_x
_atom_site_fract_y
_atom_site_fract_z
Si Si1 0.963762 0.282670 0.534359
Si Si2 0.545284 0.064209 0.375091
Si Si3 0.809729 0.650972 0.805151
Si Si4 0.000000 0.193853 0.750000
Si Si5 0.301725 0.949810 0.810254
Si Si6 0.148733 0.361416 0.347133
Si Si7 0.721752 0.174099 0.079316
O O1 0.920808 0.376980 0.582498
O O2 0.803584 0.218381 0.609569
O O3 0.035053 0.301484 0.439144
O O4 0.117029 0.234842 0.506831
O O5 0.679548 0.081840 0.264648
O O6 0.362616 0.101555 0.427977
O O7 0.561840 0.959038 0.379094
O O8 0.734950 0.550424 0.840036
O O9 0.824924 0.674638 0.729852
O O10 0.000000 0.648106 0.750000
O O11 0.161054 0.137224 0.704705
O O12 0.075548 0.259193 0.667234
O O13 0.500000 0.952919 0.750000
O O14 0.211874 0.882231 0.892335
#
# Coordination Sequence:
#
# PCOD9259258 Si02
#       7
#     8   8   8   4   8   8   8
#     4  11  23  34  60  91 119 160 209 250 309 371
#     4  10  18  36  57  85 125 160 194 246 323 359
#     4  10  22  41  60  84 121 164 205 248 312 372
#     4  10  18  36  62  94 118 158 214 252 300 350
#     4   8  16  33  59  80 110 155 194 253 296 339
#     4  10  23  39  62  88 127 161 201 264 305 363
#     4  10  18  34  63  90 115 158 215 264 287 353
#
# _framework density 19.619973000000002
#
# number of rings (size 3 to 8) (size 9 to 14) (size 15 to 20)
#    0.000    2.154    2.308    2.769    2.154    2.462 
#    1.385    0.000    3.385    0.000    0.000    0.000 
#    0.000    0.000    0.000    0.000    0.000    0.000 
#
# Total GULP energy -144977.091470 kJ/mol
# GULP energy per Si atom -5576.041980 kJ/mol
# Density = 1.957532 g / cm^3
# Si number density = 19.619973 Si / 1000 Ang^3
#
#
#
# Elastic Constant Matrix: (Units=GPa)
#
#
# Indices 1 2 3 4 5 6 
#
# 1 60.4688 27.6085 23.1902 0.0000 7.2482 0.0000
# 2 27.6085 83.9378 42.3737 0.0001 0.3861 0.0000
# 3 23.1902 42.3737 69.2543 -0.0006 4.6338 -0.0001
# 4 0.0000 0.0001 -0.0006 -109.7693 0.0002 -15.6500
# 5 7.2482 0.3861 4.6338 0.0002 27.2712 0.0000
# 6 0.0000 0.0000 -0.0001 -15.6500 0.0000 31.7797
#
#
#
# Elastic Compliance Matrix: (Units=1/GPa)
#
#
# Indices 1 2 3 4 5 6 
#
# 1 0.020773 -0.005010 -0.003567 0.000000 -0.004844 0.000000
# 2 -0.005010 0.018513 -0.009833 0.000000 0.002740 0.000000
# 3 -0.003567 -0.009833 0.021825 0.000000 -0.002621 0.000000
# 4 0.000000 0.000000 0.000000 -0.008512 0.000000 -0.004192
# 5 -0.004844 0.002740 -0.002621 0.000000 0.038363 0.000000
# 6 0.000000 0.000000 0.000000 -0.004192 0.000000 0.029402
#
#
# Mechanical properties :
#
#
# Convention : Reuss Voigt Hill
#
# Bulk Modulus (GPa) = 41.16446 44.44510 42.80478
# Shear Modulus (GPa) = 30.25160 -2.11110 14.07025
#
# Velocity S-wave (km/s) = 3.93093 -1.03843 2.68085
# Velocity P-wave (km/s) = 6.45209 4.61133 5.60775
#
# Compressibility (1/GPa) = 0.02429280
#
# Stress axis : x y z
#
# Youngs Moduli (GPa) = 48.13863 54.01708 45.81797
#
# Poissons Ratio (x) = 0.27062 0.16341
# Poissons Ratio (y) = 0.24117 0.45052
# Poissons Ratio (z) = 0.17169 0.53114
#
# Static dielectric constant tensor:
#      x y z
#    x 1.737260 0.000000 0.032940 
#    y 0.000000 1.708090 0.000000 
#    z 0.032940 0.000000 1.685630 
# 
# From -- ./inp_files/269887.got.cif
#   From: 2010.05.17/outbox.cif.g08.bks.cpg/sg15_135_cif.got.tgz:269887.got - 2010.06.03 18:47:42.
