data_PCOD9259796
_publ_section_title
;
Structure prediction by ZEFSAII (Michael W. Deem and Ramdas Pophale) SiO2 
 PCOD9259796
Probable space group: C 2/C
;
_chemical_formula_sum "Si O2"
_cell_formula_units_Z 60
_cell_length_a 11.944725
_cell_length_b 8.753780
_cell_length_c 21.933822
_cell_angle_alpha 90.000000
_cell_angle_beta 75.944533
_cell_angle_gamma 90.000000
_cell_volume 2224.770282
_symmetry_space_group_name_H-M "C 2/C"
_symmetry_group_IT_number 15
_symmetry_cell_setting 'monoclinic'
loop_
_space_group_symop_operation_xyz
x,y,z
-x,y,1/2-z
-x,-y,-z
x,-y,1/2+z
1/2+x,1/2+y,z
1/2-x,1/2+y,1/2-z
1/2-x,1/2-y,-z
1/2+x,1/2-y,1/2+z
loop_
_atom_site_type_symbol
_atom_site_label
_atom_site_fract_x
_atom_site_fract_y
_atom_site_fract_z
Si Si1 0.500000 0.605760 0.250000
Si Si2 0.096310 0.883915 0.862520
Si Si3 0.560794 0.956009 0.389628
Si Si4 0.149973 0.530859 0.501450
Si Si5 0.169055 0.683915 0.657810
Si Si6 0.100893 0.247275 0.818786
Si Si7 0.360720 0.161213 0.324339
Si Si8 0.386377 0.644005 0.462584
O O1 0.444922 0.532380 0.195280
O O2 0.389870 0.700064 0.287685
O O3 0.055241 0.705825 0.857351
O O4 0.228305 0.849210 0.861219
O O5 0.007786 0.929537 0.928216
O O6 0.436772 0.012341 0.433216
O O7 0.630105 0.935948 0.443645
O O8 0.623948 0.080860 0.341936
O O9 0.284704 0.535230 0.498210
O O10 0.108001 0.707368 0.495083
O O11 0.304431 0.653802 0.655570
O O12 0.108590 0.519787 0.679391
O O13 0.162927 0.772608 0.593508
O O14 0.134021 0.263810 0.743553
O O15 0.961602 0.245074 0.844511
#
# Coordination Sequence:
#
# PCOD9259796 Si02
#       8
#     4   8   8   8   8   8   8   8
#     4  10  18  36  56  80 108 142 202 234 292 350
#     4  10  20  35  55  83 116 151 183 249 303 357
#     4  10  19  34  59  84 112 145 200 245 293 345
#     4   9  17  32  58  89 105 142 194 263 286 337
#     4  11  20  37  61  85 112 160 198 244 299 369
#     4  11  22  38  59  86 114 164 200 239 295 367
#     4  11  23  38  56  84 128 155 194 239 299 370
#     4   9  18  34  59  84 110 141 201 247 299 347
#
# _framework density 26.969073999999999
#
# number of rings (size 3 to 8) (size 9 to 14) (size 15 to 20)
#    0.000    1.867    2.667    4.000    0.000    0.000 
#    2.400    1.333    0.000   25.600    0.000    0.000 
#    0.000    0.000    0.000    0.000    0.000    0.000 
#
# Total GULP energy -167405.099294 kJ/mol
# GULP energy per Si atom -5580.169976 kJ/mol
# Density = 2.690769 g / cm^3
# Si number density = 26.969074 Si / 1000 Ang^3
#
#
#
# Elastic Constant Matrix: (Units=GPa)
#
#
# Indices 1 2 3 4 5 6 
#
# 1 179.7954 20.0290 24.7391 0.0000 -32.0648 0.0000
# 2 20.0290 23.5301 3.5134 0.0000 -2.7512 0.0000
# 3 24.7391 3.5134 62.5544 0.0000 -11.0239 0.0000
# 4 0.0000 0.0000 0.0000 28.4353 0.0000 -2.7370
# 5 -32.0648 -2.7512 -11.0239 0.0000 49.8707 0.0000
# 6 0.0000 0.0000 0.0000 -2.7370 0.0000 50.3695
#
#
#
# Elastic Compliance Matrix: (Units=1/GPa)
#
#
# Indices 1 2 3 4 5 6 
#
# 1 0.007094 -0.005314 -0.001826 0.000000 0.003865 0.000000
# 2 -0.005314 0.047014 -0.000712 0.000000 -0.000981 0.000000
# 3 -0.001826 -0.000712 0.017205 0.000000 0.002590 0.000000
# 4 0.000000 0.000000 0.000000 0.035352 0.000000 0.001921
# 5 0.003865 -0.000981 0.002590 0.000000 0.023055 0.000000
# 6 0.000000 0.000000 0.000000 0.001921 0.000000 0.019958
#
#
# Mechanical properties :
#
#
# Convention : Reuss Voigt Hill
#
# Bulk Modulus (GPa) = 17.98282 40.27145 29.12713
# Shear Modulus (GPa) = 27.18598 40.24165 33.71382
#
# Velocity S-wave (km/s) = 3.17841 3.86701 3.53950
# Velocity P-wave (km/s) = 4.48912 5.90790 5.24669
#
# Compressibility (1/GPa) = 0.05560865
#
# Stress axis : x y z
#
# Youngs Moduli (GPa) = 140.95728 21.27033 58.12384
#
# Poissons Ratio (x) = 0.11304 0.10614
# Poissons Ratio (y) = 0.74908 0.04137
# Poissons Ratio (z) = 0.25741 0.01514
#
# Static dielectric constant tensor:
#      x y z
#    x 2.310890 0.000000 0.068830 
#    y 0.000000 2.168720 0.000000 
#    z 0.068830 0.000000 2.091440 
# 
# From -- ./inp_files/268795.got.cif
#   From: 2010.05.17/outbox.cif.g08.bks.cpg/sg15_135_cif.got.tgz:268795.got - 2010.06.03 18:47:42.
