data_PCOD9259834
_publ_section_title
;
Structure prediction by ZEFSAII (Michael W. Deem and Ramdas Pophale) SiO2 
 PCOD9259834
Probable space group: C 2/C
;
_chemical_formula_sum "Si O2"
_cell_formula_units_Z 56
_cell_length_a 10.571561
_cell_length_b 12.718418
_cell_length_c 25.228810
_cell_angle_alpha 90.000000
_cell_angle_beta 130.889078
_cell_angle_gamma 90.000000
_cell_volume 2564.355843
_symmetry_space_group_name_H-M "C 2/C"
_symmetry_group_IT_number 15
_symmetry_cell_setting 'monoclinic'
loop_
_space_group_symop_operation_xyz
x,y,z
-x,y,1/2-z
-x,-y,-z
x,-y,1/2+z
1/2+x,1/2+y,z
1/2-x,1/2+y,1/2-z
1/2-x,1/2-y,-z
1/2+x,1/2-y,1/2+z
loop_
_atom_site_type_symbol
_atom_site_label
_atom_site_fract_x
_atom_site_fract_y
_atom_site_fract_z
Si Si1 0.668426 0.728499 0.147366
Si Si2 0.500000 0.064919 0.750000
Si Si3 0.647127 0.589942 0.982791
Si Si4 0.000000 0.087899 0.250000
Si Si5 0.097132 0.724693 0.851237
Si Si6 0.311826 0.083539 0.272680
Si Si7 0.906026 0.738716 0.117955
Si Si8 0.879231 0.862645 0.495346
O O1 0.579157 0.800177 0.167252
O O2 0.725567 0.627741 0.196055
O O3 0.822669 0.759642 0.152542
O O4 0.518157 0.695703 0.067652
O O5 0.556463 0.995801 0.716084
O O6 0.631782 0.144088 0.812931
O O7 0.608794 0.653086 0.918597
O O8 0.478610 0.598164 0.970781
O O9 0.790725 0.654397 0.053966
O O10 0.689224 0.465977 0.993037
O O11 0.071801 0.163632 0.316247
O O12 0.166000 0.037117 0.270093
O O13 0.238835 0.713837 0.933868
O O14 0.414740 0.181206 0.326681
#
# Coordination Sequence:
#
# PCOD9259834 Si02
#       8
#     8   4   8   4   8   8   8   8
#     4  10  21  36  55  85 114 155 200 231 294 348
#     4  11  22  36  66  85 114 156 201 232 302 350
#     4   9  20  31  57  90 109 151 198 238 289 349
#     4   9  22  38  60  87 118 152 203 230 304 348
#     4  10  21  38  58  84 118 159 190 243 291 354
#     4  11  20  38  61  86 115 157 189 249 288 356
#     4  10  18  36  57  84 120 153 192 239 297 347
#     4  10  19  35  56  83 117 149 198 244 282 344
#
# _framework density 21.837844
#
# number of rings (size 3 to 8) (size 9 to 14) (size 15 to 20)
#    0.000    2.000    1.429    2.143    4.000    0.000 
#    0.000    3.571    0.000    0.000    0.000    0.000 
#    0.000    0.000    0.000    0.000    0.000    0.000 
#
# Total GULP energy -156060.914456 kJ/mol
# GULP energy per Si atom -5573.604088 kJ/mol
# Density = 2.178814 g / cm^3
# Si number density = 21.837844 Si / 1000 Ang^3
#
#
#
# Elastic Constant Matrix: (Units=GPa)
#
#
# Indices 1 2 3 4 5 6 
#
# 1 96.5591 -0.4161 -13.1296 0.0000 -14.7886 0.0000
# 2 -0.4161 27.8308 -13.2407 0.0000 -6.6550 0.0000
# 3 -13.1296 -13.2407 51.9348 0.0000 2.2186 0.0000
# 4 0.0000 0.0000 0.0000 1.4808 0.0000 -9.8436
# 5 -14.7886 -6.6550 2.2186 0.0000 33.0504 0.0000
# 6 0.0000 0.0000 0.0000 -9.8436 0.0000 19.7655
#
#
#
# Elastic Compliance Matrix: (Units=1/GPa)
#
#
# Indices 1 2 3 4 5 6 
#
# 1 0.011717 0.003210 0.003539 0.000000 0.005652 0.000000
# 2 0.003210 0.043743 0.011559 0.000000 0.009469 0.000000
# 3 0.003539 0.011559 0.022996 0.000000 0.002368 0.000000
# 4 0.000000 0.000000 0.000000 -0.292267 0.000000 -0.145555
# 5 0.005652 0.009469 0.002368 0.000000 0.034533 0.000000
# 6 0.000000 0.000000 0.000000 -0.145555 0.000000 -0.021896
#
#
# Mechanical properties :
#
#
# Convention : Reuss Voigt Hill
#
# Bulk Modulus (GPa) = 8.69006 13.63910 11.16458
# Shear Modulus (GPa) = -25.07095 24.40006 -0.33544
#
# Velocity S-wave (km/s) = -3.39197 3.34627 -0.39235
# Velocity P-wave (km/s) = 3.36936 4.60318 2.21773
#
# Compressibility (1/GPa) = 0.11507398
#
# Stress axis : x y z
#
# Youngs Moduli (GPa) = 85.34583 22.86075 43.48658
#
# Poissons Ratio (x) = -0.07339 -0.15391
# Poissons Ratio (y) = -0.27400 -0.50268
# Poissons Ratio (z) = -0.30206 -0.26426
#
# Static dielectric constant tensor:
#      x y z
#    x 1.868220 0.000000 -0.007650 
#    y 0.000000 -1.222330 0.000000 
#    z -0.007650 0.000000 1.795840 
# 
# From -- ./inp_files/292318.got.cif
#   From: 2010.05.17/outbox.cif.g08.bks.cpg/sg15_147_cif.got.tgz:292318.got - 2010.06.03 18:47:42.
