data_PCOD9259501
_publ_section_title
;
Structure prediction by ZEFSAII (Michael W. Deem and Ramdas Pophale) SiO2 
 PCOD9259501
Probable space group: C 2/C
;
_chemical_formula_sum "Si O2"
_cell_formula_units_Z 40
_cell_length_a 27.325205
_cell_length_b 13.037828
_cell_length_c 5.438492
_cell_angle_alpha 90.000000
_cell_angle_beta 58.063069
_cell_angle_gamma 90.000000
_cell_volume 1644.243031
_symmetry_space_group_name_H-M "C 2/C"
_symmetry_group_IT_number 15
_symmetry_cell_setting 'monoclinic'
loop_
_space_group_symop_operation_xyz
x,y,z
-x,y,1/2-z
-x,-y,-z
x,-y,1/2+z
1/2+x,1/2+y,z
1/2-x,1/2+y,1/2-z
1/2-x,1/2-y,-z
1/2+x,1/2-y,1/2+z
loop_
_atom_site_type_symbol
_atom_site_label
_atom_site_fract_x
_atom_site_fract_y
_atom_site_fract_z
Si Si1 0.329628 0.606093 0.081672
Si Si2 0.344643 0.066723 0.461014
Si Si3 0.717632 0.623655 0.795158
Si Si4 0.966276 0.323608 0.577457
Si Si5 0.960407 0.898991 0.150520
O O1 0.312756 0.663190 0.376457
O O2 0.294786 0.499313 0.172209
O O3 0.312412 0.659823 0.874493
O O4 0.396693 0.572403 0.904108
O O5 0.285819 0.132227 0.615316
O O6 0.403342 0.130024 0.289412
O O7 0.343052 0.003762 0.720695
O O8 0.952300 0.204653 0.518395
O O9 0.000000 0.342453 0.750000
O O10 0.000000 0.369115 0.250000
O O11 0.000000 0.849238 0.250000
O O12 0.000000 0.000000 0.000000
#
# Coordination Sequence:
#
# PCOD9259501 Si02
#       5
#     8   8   8   8   8
#     4  10  19  34  61  95 125 165 221 259 321 403
#     4  12  22  42  72  94 133 182 221 276 344 393
#     4  10  18  35  58  94 124 163 219 264 317 400
#     4  11  27  45  64 101 139 170 230 282 327 409
#     4  11  23  42  69 100 135 182 219 277 344 395
#
# _framework density 24.327306
#
# number of rings (size 3 to 8) (size 9 to 14) (size 15 to 20)
#    0.000    1.200    4.000    4.200    0.000    5.600 
#    0.000    2.000    0.000    0.000    0.000    0.000 
#    0.000    0.000    0.000    0.000    0.000    0.000 
#
# Total GULP energy -111453.611187 kJ/mol
# GULP energy per Si atom -5572.680559 kJ/mol
# Density = 2.427194 g / cm^3
# Si number density = 24.327306 Si / 1000 Ang^3
#
#
#
# Elastic Constant Matrix: (Units=GPa)
#
#
# Indices 1 2 3 4 5 6 
#
# 1 178.1342 37.9448 115.7493 0.0000 -25.9932 0.0000
# 2 37.9448 53.6298 41.3681 0.0000 -7.6069 0.0000
# 3 115.7493 41.3681 222.6800 0.0000 -4.7521 0.0000
# 4 0.0000 0.0000 0.0000 -3.3344 0.0000 11.7031
# 5 -25.9932 -7.6069 -4.7521 0.0000 73.5903 0.0000
# 6 0.0000 0.0000 0.0000 11.7031 0.0000 -7.6738
#
#
#
# Elastic Compliance Matrix: (Units=1/GPa)
#
#
# Indices 1 2 3 4 5 6 
#
# 1 0.009440 -0.002976 -0.004295 0.000000 0.002749 0.000000
# 2 -0.002976 0.022999 -0.002701 0.000000 0.001152 0.000000
# 3 -0.004295 -0.002701 0.007197 0.000000 -0.001332 0.000000
# 4 0.000000 0.000000 0.000000 0.068900 0.000000 0.105078
# 5 0.002749 0.001152 -0.001332 0.000000 0.014593 0.000000
# 6 0.000000 0.000000 0.000000 0.105078 0.000000 0.029938
#
#
# Mechanical properties :
#
#
# Convention : Reuss Voigt Hill
#
# Bulk Modulus (GPa) = 50.78483 93.84093 72.31288
# Shear Modulus (GPa) = 27.84357 29.80856 28.82606
#
# Velocity S-wave (km/s) = 3.38677 3.50424 3.44601
# Velocity P-wave (km/s) = 6.01786 7.41829 6.75447
#
# Compressibility (1/GPa) = 0.01969092
#
# Stress axis : x y z
#
# Youngs Moduli (GPa) = 105.93371 43.48056 138.94916
#
# Poissons Ratio (x) = 0.12939 0.59684
# Poissons Ratio (y) = 0.31523 0.37533
# Poissons Ratio (z) = 0.45502 0.11745
#
# Static dielectric constant tensor:
#      x y z
#    x 2.935810 0.000000 0.932500 
#    y 0.000000 2.072910 0.000000 
#    z 0.932500 0.000000 2.754800 
# 
# From -- ./inp_files/17028.got.cif
#   From: 2010.05.17/outbox.cif.g08.bks.cpg/sg15_9_cif.got.tgz:17028.got - 2010.06.03 18:47:42.
