data_PCOD9259998
_publ_section_title
;
Structure prediction by ZEFSAII (Michael W. Deem and Ramdas Pophale) SiO2 
 PCOD9259998
Probable space group: C 2/C
;
_chemical_formula_sum "Si O2"
_cell_formula_units_Z 48
_cell_length_a 24.913026
_cell_length_b 17.823775
_cell_length_c 11.668579
_cell_angle_alpha 90.000000
_cell_angle_beta 25.610584
_cell_angle_gamma 90.000000
_cell_volume 2239.656883
_symmetry_space_group_name_H-M "C 2/C"
_symmetry_group_IT_number 15
_symmetry_cell_setting 'monoclinic'
loop_
_space_group_symop_operation_xyz
x,y,z
-x,y,1/2-z
-x,-y,-z
x,-y,1/2+z
1/2+x,1/2+y,z
1/2-x,1/2+y,1/2-z
1/2-x,1/2-y,-z
1/2+x,1/2-y,1/2+z
loop_
_atom_site_type_symbol
_atom_site_label
_atom_site_fract_x
_atom_site_fract_y
_atom_site_fract_z
Si Si1 0.625805 0.252483 0.810277
Si Si2 0.248276 0.093007 0.538131
Si Si3 0.059400 0.484574 0.256709
Si Si4 0.554849 0.164838 0.504357
Si Si5 0.537524 0.625035 0.798125
Si Si6 0.725100 0.759550 0.357385
O O1 0.750000 0.250000 0.500000
O O2 0.659599 0.215540 0.866615
O O3 0.513665 0.213884 0.959354
O O4 0.583992 0.337234 0.915552
O O5 0.339905 0.112849 0.256138
O O6 0.114601 0.078584 0.741237
O O7 0.252815 0.169122 0.604351
O O8 0.307291 0.023497 0.490844
O O9 0.000000 0.514311 0.250000
O O10 0.000000 0.500000 0.500000
O O11 0.050768 0.394989 0.257384
O O12 0.639475 0.219947 0.419122
O O13 0.500000 0.588630 0.750000
O O14 0.629205 0.696829 0.591829
#
# Coordination Sequence:
#
# PCOD9259998 Si02
#       6
#     8   8   8   8   8   8
#     4  11  22  31  52  89 120 157 194 261 324 368
#     4  10  18  36  60  87 111 161 210 251 306 377
#     4  10  24  37  61  90 127 166 206 264 320 391
#     4  10  20  38  54  89 122 150 205 261 319 363
#     4   9  17  34  57  85 113 153 209 259 306 371
#     4  10  19  33  62  81 117 161 205 260 307 379
#
# _framework density 21.431854000000001
#
# number of rings (size 3 to 8) (size 9 to 14) (size 15 to 20)
#    0.000    2.000    3.333    1.000    7.000    0.000 
#    0.000    0.000    0.000    1.000    4.333    0.000 
#    0.000    0.000    0.000    0.000    0.000    0.000 
#
# Total GULP energy -133622.975724 kJ/mol
# GULP energy per Si atom -5567.623988 kJ/mol
# Density = 2.138307 g / cm^3
# Si number density = 21.431854 Si / 1000 Ang^3
#
#
#
# Elastic Constant Matrix: (Units=GPa)
#
#
# Indices 1 2 3 4 5 6 
#
# 1 150.4219 14.3007 24.5757 0.0000 -20.8858 0.0000
# 2 14.3007 46.2775 9.9098 0.0000 -4.6835 0.0000
# 3 24.5757 9.9098 63.1287 0.0000 -15.2868 0.0000
# 4 0.0000 0.0000 0.0000 24.1344 0.0000 -12.5740
# 5 -20.8858 -4.6835 -15.2868 0.0000 28.3403 0.0000
# 6 0.0000 0.0000 0.0000 -12.5740 0.0000 14.7611
#
#
#
# Elastic Compliance Matrix: (Units=1/GPa)
#
#
# Indices 1 2 3 4 5 6 
#
# 1 0.007695 -0.001566 -0.001655 0.000000 0.004519 0.000000
# 2 -0.001566 0.022786 -0.002686 0.000000 0.001163 0.000000
# 3 -0.001655 -0.002686 0.018983 0.000000 0.008576 0.000000
# 4 0.000000 0.000000 0.000000 0.074496 0.000000 0.063458
# 5 0.004519 0.001163 0.008576 0.000000 0.043434 0.000000
# 6 0.000000 0.000000 0.000000 0.063458 0.000000 0.121801
#
#
# Mechanical properties :
#
#
# Convention : Reuss Voigt Hill
#
# Bulk Modulus (GPa) = 26.56071 39.71116 33.13594
# Shear Modulus (GPa) = 15.94596 27.51660 21.73128
#
# Velocity S-wave (km/s) = 2.73065 3.58706 3.18775
# Velocity P-wave (km/s) = 4.72884 5.97706 5.38921
#
# Compressibility (1/GPa) = 0.03764959
#
# Stress axis : x y z
#
# Youngs Moduli (GPa) = 129.95841 43.88756 52.67771
#
# Poissons Ratio (x) = 0.06873 0.08720
# Poissons Ratio (y) = 0.20352 0.14147
# Poissons Ratio (z) = 0.21513 0.11786
#
# Static dielectric constant tensor:
#      x y z
#    x 1.872530 0.000000 -0.000070 
#    y 0.000000 1.799920 0.000000 
#    z -0.000070 0.000000 1.755730 
# 
# From -- ./inp_files/119376.got.cif
#   From: 2010.05.17/outbox.cif.g08.bks.cpg/sg15_60_cif.got.tgz:119376.got - 2010.06.03 18:47:42.
