data_PCOD9259301
_publ_section_title
;
Structure prediction by ZEFSAII (Michael W. Deem and Ramdas Pophale) SiO2 
 PCOD9259301
Probable space group: C 2/C
;
_chemical_formula_sum "Si O2"
_cell_formula_units_Z 60
_cell_length_a 17.932619
_cell_length_b 16.952606
_cell_length_c 8.821834
_cell_angle_alpha 90.000000
_cell_angle_beta 68.267046
_cell_angle_gamma 90.000000
_cell_volume 2491.249766
_symmetry_space_group_name_H-M "C 2/C"
_symmetry_group_IT_number 15
_symmetry_cell_setting 'monoclinic'
loop_
_space_group_symop_operation_xyz
x,y,z
-x,y,1/2-z
-x,-y,-z
x,-y,1/2+z
1/2+x,1/2+y,z
1/2-x,1/2+y,1/2-z
1/2-x,1/2-y,-z
1/2+x,1/2-y,1/2+z
loop_
_atom_site_type_symbol
_atom_site_label
_atom_site_fract_x
_atom_site_fract_y
_atom_site_fract_z
Si Si1 0.801988 0.970672 0.202745
Si Si2 0.250000 0.750000 0.500000
Si Si3 0.113767 0.458542 0.384905
Si Si4 0.302108 0.609542 0.386967
Si Si5 0.394861 0.110438 0.935582
Si Si6 0.583618 0.194904 0.094450
Si Si7 0.341389 0.308248 0.231150
Si Si8 0.513063 0.726488 0.075586
O O1 0.706663 0.979160 0.289176
O O2 0.822025 0.897094 0.297265
O O3 0.830962 0.056673 0.228405
O O4 0.820762 0.942168 0.020191
O O5 0.326561 0.699256 0.376037
O O6 0.275223 0.716885 0.656765
O O7 0.079989 0.542236 0.466254
O O8 0.088107 0.422873 0.243896
O O9 0.107496 0.391487 0.517488
O O10 0.202761 0.629731 0.477821
O O11 0.441780 0.189443 0.932290
O O12 0.500000 0.187257 0.250000
O O13 0.646507 0.239912 0.154589
O O14 0.563930 0.249319 0.965039
O O15 0.427166 0.318024 0.082297
O O16 0.500000 0.689327 0.250000
#
# Coordination Sequence:
#
# PCOD9259301 Si02
#       8
#     8   4   8   8   8   8   8   8
#     4   9  20  37  58  86 122 158 195 254 323 370
#     4  10  18  34  66  88 116 154 198 254 318 362
#     4  10  21  35  54  83 121 166 206 259 318 372
#     4   9  18  35  57  89 122 156 195 250 311 377
#     4  10  20  33  53  81 121 159 207 253 305 376
#     4  10  23  37  54  82 119 163 215 256 300 365
#     4  10  22  38  60  88 121 160 208 257 313 373
#     4  11  21  38  57  82 123 164 212 258 303 368
#
# _framework density 24.084295000000001
#
# number of rings (size 3 to 8) (size 9 to 14) (size 15 to 20)
#    0.000    2.133    2.667    0.000    3.733    3.733 
#    0.000    5.333    0.000    0.000    0.000   48.533 
#    0.000    0.000    0.000    0.000    0.000    0.000 
#
# Total GULP energy -167201.841738 kJ/mol
# GULP energy per Si atom -5573.394725 kJ/mol
# Density = 2.402948 g / cm^3
# Si number density = 24.084295 Si / 1000 Ang^3
#
#
#
# Elastic Constant Matrix: (Units=GPa)
#
#
# Indices 1 2 3 4 5 6 
#
# 1 56.9218 5.6880 7.9069 0.0000 15.5858 0.0000
# 2 5.6880 80.3441 12.0947 0.0000 11.9006 0.0000
# 3 7.9069 12.0947 75.7152 0.0000 8.8390 0.0000
# 4 0.0000 0.0000 0.0000 43.8817 0.0000 3.2761
# 5 15.5858 11.9006 8.8390 0.0000 28.7750 0.0000
# 6 0.0000 0.0000 0.0000 3.2761 0.0000 15.4308
#
#
#
# Elastic Compliance Matrix: (Units=1/GPa)
#
#
# Indices 1 2 3 4 5 6 
#
# 1 0.020691 0.000311 -0.000920 0.000000 -0.011053 0.000000
# 2 0.000311 0.013437 -0.001567 0.000000 -0.005244 0.000000
# 3 -0.000920 -0.001567 0.013919 0.000000 -0.003129 0.000000
# 4 0.000000 0.000000 0.000000 0.023156 0.000000 -0.004916
# 5 -0.011053 -0.005244 -0.003129 0.000000 0.043870 0.000000
# 6 0.000000 0.000000 0.000000 -0.004916 0.000000 0.065849
#
#
# Mechanical properties :
#
#
# Convention : Reuss Voigt Hill
#
# Bulk Modulus (GPa) = 22.88560 29.37335 26.12948
# Shear Modulus (GPa) = 25.02018 30.10359 27.56188
#
# Velocity S-wave (km/s) = 3.22663 3.53926 3.38656
# Velocity P-wave (km/s) = 4.83781 5.37814 5.11512
#
# Compressibility (1/GPa) = 0.04369560
#
# Stress axis : x y z
#
# Youngs Moduli (GPa) = 48.32978 74.42076 71.84406
#
# Poissons Ratio (x) = -0.02314 0.06610
# Poissons Ratio (y) = -0.01502 0.11256
# Poissons Ratio (z) = 0.04447 0.11659
#
# Static dielectric constant tensor:
#      x y z
#    x 1.840230 0.000000 -0.029200 
#    y 0.000000 1.576360 0.000000 
#    z -0.029200 0.000000 1.988860 
# 
# From -- ./inp_files/56604.got.cif
#   From: 2010.05.17/outbox.cif.g08.bks.cpg/sg15_29_cif.got.tgz:56604.got - 2010.06.03 18:47:42.
