data_PCOD9259356
_publ_section_title
;
Structure prediction by ZEFSAII (Michael W. Deem and Ramdas Pophale) SiO2 
 PCOD9259356
Probable space group: C 2/C
;
_chemical_formula_sum "Si O2"
_cell_formula_units_Z 44
_cell_length_a 17.029709
_cell_length_b 25.810785
_cell_length_c 12.443995
_cell_angle_alpha 90.000000
_cell_angle_beta 153.878774
_cell_angle_gamma 90.000000
_cell_volume 2408.181208
_symmetry_space_group_name_H-M "C 2/C"
_symmetry_group_IT_number 15
_symmetry_cell_setting 'monoclinic'
loop_
_space_group_symop_operation_xyz
x,y,z
-x,y,1/2-z
-x,-y,-z
x,-y,1/2+z
1/2+x,1/2+y,z
1/2-x,1/2+y,1/2-z
1/2-x,1/2-y,-z
1/2+x,1/2-y,1/2+z
loop_
_atom_site_type_symbol
_atom_site_label
_atom_site_fract_x
_atom_site_fract_y
_atom_site_fract_z
Si Si1 0.000000 0.021730 0.250000
Si Si2 0.718344 0.589491 0.675362
Si Si3 0.204118 0.520647 0.538694
Si Si4 0.940273 0.421545 0.050703
Si Si5 0.958341 0.197504 0.072253
Si Si6 0.144702 0.309497 0.526454
O O1 0.061963 0.059498 0.421497
O O2 0.836579 0.990071 0.102038
O O3 0.733493 0.568711 0.813998
O O4 0.676332 0.650548 0.617329
O O5 0.892637 0.571620 0.822376
O O6 0.192848 0.470260 0.605309
O O7 0.000000 0.528344 0.250000
O O8 0.874334 0.364474 0.938866
O O9 0.000000 0.418006 0.250000
O O10 0.889534 0.254786 0.958199
O O11 0.000000 0.196328 0.250000
O O12 0.152630 0.190185 0.262177
O O13 0.000000 0.309474 0.250000
#
# Coordination Sequence:
#
# PCOD9259356 Si02
#       6
#     4   8   8   8   8   8
#     4  12  22  38  58  82 118 148 188 236 288 336
#     4  12  22  36  58  82 118 153 186 233 283 335
#     4  11  24  41  57  82 115 154 195 234 277 332
#     4  10  18  35  55  80 114 149 184 226 283 333
#     4  11  19  32  50  80 115 147 182 224 283 344
#     4  10  19  30  50  79 113 150 178 221 286 351
#
# _framework density 18.271051
#
# number of rings (size 3 to 8) (size 9 to 14) (size 15 to 20)
#    0.000    1.091    4.545    7.636    0.000    0.000 
#    0.000    0.000    0.000    0.000    0.000    5.091 
#    0.000    0.000    0.000    0.000    0.000    0.000 
#
# Total GULP energy -122625.633283 kJ/mol
# GULP energy per Si atom -5573.892422 kJ/mol
# Density = 1.822947 g / cm^3
# Si number density = 18.271051 Si / 1000 Ang^3
#
#
#
# Elastic Constant Matrix: (Units=GPa)
#
#
# Indices 1 2 3 4 5 6 
#
# 1 34.4839 0.8720 12.4689 0.0000 15.7216 0.0000
# 2 0.8720 95.9341 7.4864 0.0000 -11.0738 0.0000
# 3 12.4689 7.4864 34.9189 0.0000 9.0181 0.0000
# 4 0.0000 0.0000 0.0000 21.0377 0.0000 11.6832
# 5 15.7216 -11.0738 9.0181 0.0000 30.2557 0.0000
# 6 0.0000 0.0000 0.0000 11.6832 0.0000 28.3422
#
#
#
# Elastic Compliance Matrix: (Units=1/GPa)
#
#
# Indices 1 2 3 4 5 6 
#
# 1 0.041234 -0.001879 -0.009328 0.000000 -0.019333 0.000000
# 2 -0.001879 0.011414 -0.003367 0.000000 0.006157 0.000000
# 3 -0.009328 -0.003367 0.034405 0.000000 -0.006640 0.000000
# 4 0.000000 0.000000 0.000000 0.061646 0.000000 -0.025412
# 5 -0.019333 0.006157 -0.006640 0.000000 0.047331 0.000000
# 6 0.000000 0.000000 0.000000 -0.025412 0.000000 0.045758
#
#
# Mechanical properties :
#
#
# Convention : Reuss Voigt Hill
#
# Bulk Modulus (GPa) = 17.26906 22.99906 20.13406
# Shear Modulus (GPa) = 17.22733 25.56109 21.39421
#
# Velocity S-wave (km/s) = 3.07396 3.74437 3.42560
# Velocity P-wave (km/s) = 4.69799 5.59542 5.16623
#
# Compressibility (1/GPa) = 0.05790702
#
# Stress axis : x y z
#
# Youngs Moduli (GPa) = 24.25203 87.60890 29.06525
#
# Poissons Ratio (x) = 0.16458 0.27112
# Poissons Ratio (y) = 0.04556 0.09785
# Poissons Ratio (z) = 0.22622 0.29494
#
# Static dielectric constant tensor:
#      x y z
#    x 1.619640 0.000000 0.001470 
#    y 0.000000 1.693640 0.000000 
#    z 0.001470 0.000000 1.633990 
# 
# From -- ./inp_files/91117.got.cif
#   From: 2010.05.17/outbox.cif.g08.bks.cpg/sg15_46_cif.got.tgz:91117.got - 2010.06.03 18:47:42.
