data_PCOD9259550
_publ_section_title
;
Structure prediction by ZEFSAII (Michael W. Deem and Ramdas Pophale) SiO2 
 PCOD9259550
Probable space group: C 2/C
;
_chemical_formula_sum "Si O2"
_cell_formula_units_Z 64
_cell_length_a 11.867507
_cell_length_b 18.579302
_cell_length_c 15.847991
_cell_angle_alpha 90.000000
_cell_angle_beta 99.587695
_cell_angle_gamma 90.000000
_cell_volume 3445.514177
_symmetry_space_group_name_H-M "C 2/C"
_symmetry_group_IT_number 15
_symmetry_cell_setting 'monoclinic'
loop_
_space_group_symop_operation_xyz
x,y,z
-x,y,1/2-z
-x,-y,-z
x,-y,1/2+z
1/2+x,1/2+y,z
1/2-x,1/2+y,1/2-z
1/2-x,1/2-y,-z
1/2+x,1/2-y,1/2+z
loop_
_atom_site_type_symbol
_atom_site_label
_atom_site_fract_x
_atom_site_fract_y
_atom_site_fract_z
Si Si1 0.654428 0.306221 0.952004
Si Si2 0.300225 0.880812 0.412205
Si Si3 0.457944 0.007083 0.836362
Si Si4 0.058291 0.841642 0.342878
Si Si5 0.419957 0.557487 0.940281
Si Si6 0.305091 0.999934 0.043462
Si Si7 0.840677 0.383856 0.899088
Si Si8 0.530395 0.773600 0.988284
O O1 0.721094 0.340549 0.880873
O O2 0.750000 0.250000 0.000000
O O3 0.616956 0.373736 0.006391
O O4 0.539300 0.259908 0.940996
O O5 0.189543 0.862428 0.344319
O O6 0.359691 0.812544 0.461466
O O7 0.393660 0.927162 0.373137
O O8 0.262518 0.932548 0.484110
O O9 0.500000 0.027506 0.750000
O O10 0.374798 0.937718 0.828784
O O11 0.572264 0.985626 0.901205
O O12 0.000000 0.814575 0.250000
O O13 0.987059 0.910036 0.369301
O O14 0.056925 0.784727 0.419584
O O15 0.296799 0.521618 0.906639
O O16 0.500000 0.500000 0.000000
O O17 0.327330 0.936051 0.978848
O O18 0.944049 0.330224 0.933244
#
# Coordination Sequence:
#
# PCOD9259550 Si02
#       8
#     8   8   8   8   8   8   8   8
#     4   8  17  30  55  86 107 147 199 243 274 343
#     4  11  20  39  60  84 115 155 198 242 284 358
#     4  11  22  33  56  91 117 149 189 251 307 332
#     4  11  25  38  55  88 122 153 190 246 307 346
#     4  10  19  35  58  84 113 154 202 239 289 364
#     4  10  18  35  60  83 113 146 201 241 282 348
#     4   9  16  34  56  81 113 149 194 236 281 356
#     4  10  18  36  59  83 111 157 203 232 279 358
#
# _framework density 18.574876
#
# number of rings (size 3 to 8) (size 9 to 14) (size 15 to 20)
#    0.000    2.000    3.750    1.125    1.750    0.500 
#    0.000    0.000    0.000    0.000    0.000    7.000 
#    0.000    0.000    0.000    0.000    0.000    0.000 
#
# Total GULP energy -178151.491666 kJ/mol
# GULP energy per Si atom -5567.234115 kJ/mol
# Density = 1.853260 g / cm^3
# Si number density = 18.574876 Si / 1000 Ang^3
#
#
#
# Elastic Constant Matrix: (Units=GPa)
#
#
# Indices 1 2 3 4 5 6 
#
# 1 94.2568 28.2396 21.7044 0.0000 -0.2045 0.0000
# 2 28.2396 68.7918 10.0513 0.0000 0.1284 0.0000
# 3 21.7044 10.0513 37.1492 0.0000 -1.2193 0.0000
# 4 0.0000 0.0000 0.0000 10.7613 0.0000 4.8743
# 5 -0.2045 0.1284 -1.2193 0.0000 19.3064 0.0000
# 6 0.0000 0.0000 0.0000 4.8743 0.0000 11.8308
#
#
#
# Elastic Compliance Matrix: (Units=1/GPa)
#
#
# Indices 1 2 3 4 5 6 
#
# 1 0.013514 -0.004573 -0.006666 0.000000 -0.000247 0.000000
# 2 -0.004573 0.016685 -0.001852 0.000000 -0.000276 0.000000
# 3 -0.006666 -0.001852 0.031377 0.000000 0.001923 0.000000
# 4 0.000000 0.000000 0.000000 0.114246 0.000000 -0.047070
# 5 -0.000247 -0.000276 0.001923 0.000000 0.051917 0.000000
# 6 0.000000 0.000000 0.000000 -0.047070 0.000000 0.103918
#
#
# Mechanical properties :
#
#
# Convention : Reuss Voigt Hill
#
# Bulk Modulus (GPa) = 28.25318 35.57649 31.91484
# Shear Modulus (GPa) = 13.52678 17.72654 15.62666
#
# Velocity S-wave (km/s) = 2.70150 3.09257 2.90363
# Velocity P-wave (km/s) = 4.99743 5.65213 5.33483
#
# Compressibility (1/GPa) = 0.03539424
#
# Stress axis : x y z
#
# Youngs Moduli (GPa) = 73.99780 59.93423 31.87008
#
# Poissons Ratio (x) = 0.27408 0.21246
# Poissons Ratio (y) = 0.33840 0.05901
# Poissons Ratio (z) = 0.49329 0.11098
#
# Static dielectric constant tensor:
#      x y z
#    x 1.663950 0.000000 -0.023990 
#    y 0.000000 1.609600 0.000000 
#    z -0.023990 0.000000 1.618990 
# 
# From -- ./inp_files/147145.got.cif
#   From: 2010.05.17/outbox.cif.g08.bks.cpg/sg15_74_cif.got.tgz:147145.got - 2010.06.03 18:47:42.
