data_PCOD9259799
_publ_section_title
;
Structure prediction by ZEFSAII (Michael W. Deem and Ramdas Pophale) SiO2 
 PCOD9259799
Probable space group: C 2/C
;
_chemical_formula_sum "Si O2"
_cell_formula_units_Z 52
_cell_length_a 14.960487
_cell_length_b 8.432055
_cell_length_c 20.485703
_cell_angle_alpha 90.000000
_cell_angle_beta 71.234455
_cell_angle_gamma 90.000000
_cell_volume 2446.853421
_symmetry_space_group_name_H-M "C 2/C"
_symmetry_group_IT_number 15
_symmetry_cell_setting 'monoclinic'
loop_
_space_group_symop_operation_xyz
x,y,z
-x,y,1/2-z
-x,-y,-z
x,-y,1/2+z
1/2+x,1/2+y,z
1/2-x,1/2+y,1/2-z
1/2-x,1/2-y,-z
1/2+x,1/2-y,1/2+z
loop_
_atom_site_type_symbol
_atom_site_label
_atom_site_fract_x
_atom_site_fract_y
_atom_site_fract_z
Si Si1 0.616412 0.978458 0.404952
Si Si2 0.840018 0.788775 0.692409
Si Si3 0.950077 0.916873 0.139010
Si Si4 0.823970 0.569320 0.360876
Si Si5 0.254218 0.249161 0.146106
Si Si6 0.929282 0.696606 0.457013
Si Si7 0.000000 0.300753 0.750000
O O1 0.635895 0.890494 0.332589
O O2 0.604868 0.845334 0.463021
O O3 0.704620 0.094181 0.398813
O O4 0.519788 0.079361 0.424377
O O5 0.799864 0.799065 0.774930
O O6 0.930326 0.901658 0.660629
O O7 0.760288 0.848182 0.659865
O O8 0.849353 0.843688 0.142918
O O9 0.028122 0.870702 0.066739
O O10 0.978101 0.816085 0.195554
O O11 0.804955 0.383149 0.377090
O O12 0.850128 0.654781 0.422358
O O13 0.913611 0.592772 0.293065
#
# Coordination Sequence:
#
# PCOD9259799 Si02
#       7
#     8   8   8   8   8   8   4
#     4  10  21  39  60  80 121 147 196 235 293 344
#     4  11  21  35  58  86 112 154 185 248 289 349
#     4   9  19  35  56  80 114 147 197 228 295 340
#     4  10  21  35  59  81 113 153 197 229 299 343
#     4  10  20  35  57  86 112 152 188 240 293 355
#     4   9  21  40  58  82 110 164 188 238 286 349
#     4  10  18  36  56  80 120 150 184 254 280 356
#
# _framework density 21.251785000000002
#
# number of rings (size 3 to 8) (size 9 to 14) (size 15 to 20)
#    0.000    2.154    1.538    1.846    4.308    1.846 
#    2.769    0.000    0.000    0.000    0.000    0.000 
#    0.000    0.000    0.000    0.000    0.000    0.000 
#
# Total GULP energy -145118.492736 kJ/mol
# GULP energy per Si atom -5581.480490 kJ/mol
# Density = 2.120341 g / cm^3
# Si number density = 21.251785 Si / 1000 Ang^3
#
#
#
# Elastic Constant Matrix: (Units=GPa)
#
#
# Indices 1 2 3 4 5 6 
#
# 1 47.3156 8.7749 11.5827 0.0000 -3.3604 0.0000
# 2 8.7749 54.2530 -2.4617 0.0000 -22.5531 0.0000
# 3 11.5827 -2.4617 44.8567 0.0000 -7.9016 0.0000
# 4 0.0000 0.0000 0.0000 -0.9847 0.0000 11.6814
# 5 -3.3604 -22.5531 -7.9016 0.0000 21.1691 0.0000
# 6 0.0000 0.0000 0.0000 11.6814 0.0000 16.8925
#
#
#
# Elastic Compliance Matrix: (Units=1/GPa)
#
#
# Indices 1 2 3 4 5 6 
#
# 1 0.023825 -0.006848 -0.007650 0.000000 -0.006369 0.000000
# 2 -0.006848 0.038464 0.011674 0.000000 0.044248 0.000000
# 3 -0.007650 0.011674 0.028778 0.000000 0.021964 0.000000
# 4 0.000000 0.000000 0.000000 -0.110345 0.000000 0.076305
# 5 -0.006369 0.044248 0.021964 0.000000 0.101567 0.000000
# 6 0.000000 0.000000 0.000000 0.076305 0.000000 0.006432
#
#
# Mechanical properties :
#
#
# Convention : Reuss Voigt Hill
#
# Bulk Modulus (GPa) = 11.70718 20.24634 15.97676
# Shear Modulus (GPa) = 40.70250 15.98402 28.34326
#
# Velocity S-wave (km/s) = 4.38111 2.74547 3.65593
# Velocity P-wave (km/s) = 5.57789 4.42693 5.03540
#
# Compressibility (1/GPa) = 0.08541766
#
# Stress axis : x y z
#
# Youngs Moduli (GPa) = 41.97272 25.99860 34.74857
#
# Poissons Ratio (x) = 0.17805 0.26582
# Poissons Ratio (y) = 0.28744 -0.40564
# Poissons Ratio (z) = 0.32108 -0.30350
#
# Static dielectric constant tensor:
#      x y z
#    x 1.781090 0.000000 -0.012540 
#    y 0.000000 1.798920 0.000000 
#    z -0.012540 0.000000 1.764540 
# 
# From -- ./inp_files/246894.got.cif
#   From: 2010.05.17/outbox.cif.g08.bks.cpg/sg15_124_cif.got.tgz:246894.got - 2010.06.03 18:47:42.
