data_PCOD9259667
_publ_section_title
;
Structure prediction by ZEFSAII (Michael W. Deem and Ramdas Pophale) SiO2 
 PCOD9259667
Probable space group: C 2/C
;
_chemical_formula_sum "Si O2"
_cell_formula_units_Z 44
_cell_length_a 16.466908
_cell_length_b 7.977157
_cell_length_c 17.173740
_cell_angle_alpha 90.000000
_cell_angle_beta 103.315575
_cell_angle_gamma 90.000000
_cell_volume 2195.279541
_symmetry_space_group_name_H-M "C 2/C"
_symmetry_group_IT_number 15
_symmetry_cell_setting 'monoclinic'
loop_
_space_group_symop_operation_xyz
x,y,z
-x,y,1/2-z
-x,-y,-z
x,-y,1/2+z
1/2+x,1/2+y,z
1/2-x,1/2+y,1/2-z
1/2-x,1/2-y,-z
1/2+x,1/2-y,1/2+z
loop_
_atom_site_type_symbol
_atom_site_label
_atom_site_fract_x
_atom_site_fract_y
_atom_site_fract_z
Si Si1 0.000000 0.411008 0.250000
Si Si2 0.151725 0.444892 0.694965
Si Si3 0.112068 0.729965 0.904120
Si Si4 0.772989 0.109061 0.842312
Si Si5 0.339978 0.564003 0.505886
Si Si6 0.849760 0.427182 0.476223
O O1 0.926924 0.525068 0.267776
O O2 0.961117 0.299018 0.173177
O O3 0.167409 0.254060 0.675212
O O4 0.230561 0.511878 0.761706
O O5 0.138989 0.548018 0.612768
O O6 0.199151 0.699512 0.876264
O O7 0.111438 0.582943 0.968548
O O8 0.111852 0.910961 0.943806
O O9 0.818706 0.986416 0.912430
O O10 0.249891 0.571978 0.528828
O O11 0.380427 0.747555 0.514488
#
# Coordination Sequence:
#
# PCOD9259667 Si02
#       6
#     4   8   8   8   8   8
#     4  10  26  38  60  84 130 170 196 242 318 350
#     4  11  20  38  59  92 121 163 199 253 298 362
#     4  10  19  41  58  85 121 160 195 251 302 358
#     4  10  19  34  61  87 121 152 208 246 298 354
#     4  10  18  35  62  96 113 152 202 259 296 354
#     4  10  19  33  65  91 117 153 205 247 301 358
#
# _framework density 20.043005000000001
#
# number of rings (size 3 to 8) (size 9 to 14) (size 15 to 20)
#    0.000    1.818    3.636    2.182    0.000    2.182 
#    0.000    1.818    4.000    0.000    0.000    0.000 
#    0.000    0.000    0.000    0.000    0.000    0.000 
#
# Total GULP energy -122946.703259 kJ/mol
# GULP energy per Si atom -5588.486512 kJ/mol
# Density = 1.999739 g / cm^3
# Si number density = 20.043005 Si / 1000 Ang^3
#
#
#
# Elastic Constant Matrix: (Units=GPa)
#
#
# Indices 1 2 3 4 5 6 
#
# 1 30.6756 27.0315 22.3696 0.0000 7.0297 0.0000
# 2 27.0315 106.5873 18.8542 0.0000 -14.6010 0.0000
# 3 22.3696 18.8542 95.4373 0.0000 -10.0822 0.0000
# 4 0.0000 0.0000 0.0000 -3.5755 0.0000 -10.0070
# 5 7.0297 -14.6010 -10.0822 0.0000 14.6230 0.0000
# 6 0.0000 0.0000 0.0000 -10.0070 0.0000 8.0176
#
#
#
# Elastic Compliance Matrix: (Units=1/GPa)
#
#
# Indices 1 2 3 4 5 6 
#
# 1 0.122816 -0.042245 -0.033581 0.000000 -0.124376 0.000000
# 2 -0.042245 0.025504 0.010461 0.000000 0.052987 0.000000
# 3 -0.033581 0.010461 0.020591 0.000000 0.040786 0.000000
# 4 0.000000 0.000000 0.000000 -0.062246 0.000000 -0.077690
# 5 -0.124376 0.052987 0.040786 0.000000 0.209205 0.000000
# 6 0.000000 0.000000 0.000000 -0.077690 0.000000 0.027759
#
#
# Mechanical properties :
#
#
# Convention : Reuss Voigt Hill
#
# Bulk Modulus (GPa) = 26.19049 41.02341 33.60695
# Shear Modulus (GPa) = 10.26513 14.77600 12.52057
#
# Velocity S-wave (km/s) = 2.26554 2.71812 2.50208
# Velocity P-wave (km/s) = 4.46532 5.51026 5.01508
#
# Compressibility (1/GPa) = 0.03818180
#
# Stress axis : x y z
#
# Youngs Moduli (GPa) = 8.14225 39.21004 48.56462
#
# Poissons Ratio (x) = 1.65643 1.63083
# Poissons Ratio (y) = 0.34397 -0.50804
# Poissons Ratio (z) = 0.27342 -0.41018
#
# Static dielectric constant tensor:
#      x y z
#    x 1.702070 0.000000 -0.006390 
#    y 0.000000 1.702070 0.000000 
#    z -0.006390 0.000000 1.703780 
# 
# From -- ./inp_files/159390.got.cif
#   From: 2010.05.17/outbox.cif.g08.bks.cpg/sg15_80_cif.got.tgz:159390.got - 2010.06.03 18:47:42.
