data_PCOD9259986
_publ_section_title
;
Structure prediction by ZEFSAII (Michael W. Deem and Ramdas Pophale) SiO2 
 PCOD9259986
Probable space group: C 2/C
;
_chemical_formula_sum "Si O2"
_cell_formula_units_Z 40
_cell_length_a 7.423231
_cell_length_b 13.641617
_cell_length_c 15.532987
_cell_angle_alpha 90.000000
_cell_angle_beta 100.881069
_cell_angle_gamma 90.000000
_cell_volume 1544.666196
_symmetry_space_group_name_H-M "C 2/C"
_symmetry_group_IT_number 15
_symmetry_cell_setting 'monoclinic'
loop_
_space_group_symop_operation_xyz
x,y,z
-x,y,1/2-z
-x,-y,-z
x,-y,1/2+z
1/2+x,1/2+y,z
1/2-x,1/2+y,1/2-z
1/2-x,1/2-y,-z
1/2+x,1/2-y,1/2+z
loop_
_atom_site_type_symbol
_atom_site_label
_atom_site_fract_x
_atom_site_fract_y
_atom_site_fract_z
Si Si1 0.891785 0.674421 0.324683
Si Si2 0.884615 0.366581 0.484186
Si Si3 0.243758 0.049066 0.538559
Si Si4 0.834189 0.019491 0.283894
Si Si5 0.036827 0.804375 0.894436
O O1 0.821242 0.563970 0.292060
O O2 0.708918 0.727157 0.347970
O O3 0.000000 0.712259 0.250000
O O4 0.033093 0.663967 0.415837
O O5 0.720505 0.443173 0.488021
O O6 0.043877 0.427091 0.451873
O O7 0.894507 0.271141 0.424745
O O8 0.138108 0.134148 0.478879
O O9 0.212864 0.040015 0.636220
O O10 0.000000 0.967648 0.250000
O O11 0.920725 0.119489 0.329482
#
# Coordination Sequence:
#
# PCOD9259986 Si02
#       5
#     8   8   8   8   8
#     4  10  18  36  60  85 119 167 197 249 326 368
#     4  10  21  38  66  88 123 166 212 258 309 385
#     4  10  19  37  63  89 117 162 211 249 315 378
#     4  10  21  37  63  86 126 160 198 265 320 364
#     4  10  22  39  63  92 123 163 215 259 307 387
#
# _framework density 25.895565000000001
#
# number of rings (size 3 to 8) (size 9 to 14) (size 15 to 20)
#    0.000    2.000    2.000    3.000    0.000    0.800 
#    0.000    4.000   74.800    0.000    0.000    0.000 
#    0.000    0.000    0.000    0.000    0.000    0.000 
#
# Total GULP energy -111754.979811 kJ/mol
# GULP energy per Si atom -5587.748991 kJ/mol
# Density = 2.583663 g / cm^3
# Si number density = 25.895565 Si / 1000 Ang^3
#
#
#
# Elastic Constant Matrix: (Units=GPa)
#
#
# Indices 1 2 3 4 5 6 
#
# 1 85.1506 17.7842 41.4492 0.0000 -38.8844 0.0000
# 2 17.7842 81.3066 28.6404 0.0000 -18.0874 0.0000
# 3 41.4492 28.6404 154.4264 0.0000 -54.9512 0.0000
# 4 0.0000 0.0000 0.0000 19.3470 0.0000 1.3884
# 5 -38.8844 -18.0874 -54.9512 0.0000 49.6056 0.0000
# 6 0.0000 0.0000 0.0000 1.3884 0.0000 13.8070
#
#
#
# Elastic Compliance Matrix: (Units=1/GPa)
#
#
# Indices 1 2 3 4 5 6 
#
# 1 0.018365 -0.000933 0.000405 0.000000 0.014504 0.000000
# 2 -0.000933 0.013576 -0.001265 0.000000 0.002818 0.000000
# 3 0.000405 -0.001265 0.010812 0.000000 0.011834 0.000000
# 4 0.000000 0.000000 0.000000 0.052063 0.000000 -0.005235
# 5 0.014504 0.002818 0.011834 0.000000 0.045665 0.000000
# 6 0.000000 0.000000 0.000000 -0.005235 0.000000 0.072953
#
#
# Mechanical properties :
#
#
# Convention : Reuss Voigt Hill
#
# Bulk Modulus (GPa) = 25.53142 55.18122 40.35632
# Shear Modulus (GPa) = 21.73194 32.08590 26.90892
#
# Velocity S-wave (km/s) = 2.90006 3.52383 3.22705
# Velocity P-wave (km/s) = 4.59289 6.15727 5.43169
#
# Compressibility (1/GPa) = 0.03916743
#
# Stress axis : x y z
#
# Youngs Moduli (GPa) = 54.45110 73.66207 92.48621
#
# Poissons Ratio (x) = 0.06873 -0.03745
# Poissons Ratio (y) = 0.05080 0.11697
# Poissons Ratio (z) = -0.02205 0.09316
#
# Static dielectric constant tensor:
#      x y z
#    x 2.131580 0.000000 -0.018580 
#    y 0.000000 2.226540 0.000000 
#    z -0.018580 0.000000 2.032490 
# 
# From -- ./inp_files/133159.got.cif
#   From: 2010.05.17/outbox.cif.g08.bks.cpg/sg15_67_cif.got.tgz:133159.got - 2010.06.03 18:47:42.
