data_PCOD9259360
_publ_section_title
;
Structure prediction by ZEFSAII (Michael W. Deem and Ramdas Pophale) SiO2 
 PCOD9259360
Probable space group: C 2/C
;
_chemical_formula_sum "Si O2"
_cell_formula_units_Z 56
_cell_length_a 25.073165
_cell_length_b 6.936780
_cell_length_c 16.340168
_cell_angle_alpha 90.000000
_cell_angle_beta 108.960251
_cell_angle_gamma 90.000000
_cell_volume 2687.802099
_symmetry_space_group_name_H-M "C 2/C"
_symmetry_group_IT_number 15
_symmetry_cell_setting 'monoclinic'
loop_
_space_group_symop_operation_xyz
x,y,z
-x,y,1/2-z
-x,-y,-z
x,-y,1/2+z
1/2+x,1/2+y,z
1/2-x,1/2+y,1/2-z
1/2-x,1/2-y,-z
1/2+x,1/2-y,1/2+z
loop_
_atom_site_type_symbol
_atom_site_label
_atom_site_fract_x
_atom_site_fract_y
_atom_site_fract_z
Si Si1 0.198293 0.144478 0.298685
Si Si2 0.816115 0.136088 0.858537
Si Si3 0.691514 0.635873 0.471035
Si Si4 0.083243 0.339620 0.233215
Si Si5 0.563454 0.150550 0.085947
Si Si6 0.992783 0.029985 0.837799
Si Si7 0.426757 0.813986 0.090236
O O1 0.261266 0.227403 0.328164
O O2 0.188067 0.037932 0.380812
O O3 0.150709 0.311041 0.270184
O O4 0.188221 0.007619 0.218129
O O5 0.874095 0.253499 0.881995
O O6 0.813697 0.027838 0.945506
O O7 0.750000 0.750000 0.500000
O O8 0.640287 0.787577 0.448170
O O9 0.065111 0.479044 0.151822
O O10 0.056179 0.130887 0.199563
O O11 0.062497 0.400527 0.314126
O O12 0.522476 0.314272 0.101914
O O13 0.552757 0.097287 0.985295
O O14 0.000000 0.115671 0.750000
O O15 0.046238 0.900544 0.890644
#
# Coordination Sequence:
#
# PCOD9259360 Si02
#       7
#     8   8   8   8   8   8   8
#     4  10  18  35  55  81 115 151 188 241 290 337
#     4  10  19  33  57  84 109 151 196 231 290 352
#     4   8  17  33  56  80 113 153 187 233 292 341
#     4  10  21  38  57  83 122 150 192 246 288 338
#     4  11  21  38  60  86 114 154 201 236 288 358
#     4  10  21  38  59  84 117 154 194 239 290 345
#     4   9  20  37  59  84 119 158 189 239 299 338
#
# _framework density 20.834866000000002
#
# number of rings (size 3 to 8) (size 9 to 14) (size 15 to 20)
#    0.000    2.286    1.429    1.286    0.000    2.286 
#    0.000    5.000    0.000    0.000    0.000    0.000 
#    0.000    0.000    0.000    0.000    0.000    0.000 
#
# Total GULP energy -156124.371973 kJ/mol
# GULP energy per Si atom -5575.870428 kJ/mol
# Density = 2.078744 g / cm^3
# Si number density = 20.834866 Si / 1000 Ang^3
#
#
#
# Elastic Constant Matrix: (Units=GPa)
#
#
# Indices 1 2 3 4 5 6 
#
# 1 97.6527 14.1010 30.5841 0.0000 -2.7224 0.0000
# 2 14.1010 26.8552 34.3936 0.0000 -20.1579 0.0000
# 3 30.5841 34.3936 185.1222 0.0000 -52.7405 0.0000
# 4 0.0000 0.0000 0.0000 30.2498 0.0000 -4.8123
# 5 -2.7224 -20.1579 -52.7405 0.0000 55.4898 0.0000
# 6 0.0000 0.0000 0.0000 -4.8123 0.0000 13.6392
#
#
#
# Elastic Compliance Matrix: (Units=1/GPa)
#
#
# Indices 1 2 3 4 5 6 
#
# 1 0.011607 -0.006485 -0.001675 0.000000 -0.003379 0.000000
# 2 -0.006485 0.059762 -0.005399 0.000000 0.016260 0.000000
# 3 -0.001675 -0.005399 0.008364 0.000000 0.005906 0.000000
# 4 0.000000 0.000000 0.000000 0.035024 0.000000 0.012357
# 5 -0.003379 0.016260 0.005906 0.000000 0.029376 0.000000
# 6 0.000000 0.000000 0.000000 0.012357 0.000000 0.077678
#
#
# Mechanical properties :
#
#
# Convention : Reuss Voigt Hill
#
# Bulk Modulus (GPa) = 19.00636 51.97638 35.49137
# Shear Modulus (GPa) = 18.76385 35.24585 27.00485
#
# Velocity S-wave (km/s) = 3.00425 4.11746 3.60410
# Velocity P-wave (km/s) = 4.60176 6.89968 5.86438
#
# Compressibility (1/GPa) = 0.05261397
#
# Stress axis : x y z
#
# Youngs Moduli (GPa) = 86.15220 16.73304 119.55319
#
# Poissons Ratio (x) = 0.10852 0.20030
# Poissons Ratio (y) = 0.55872 0.64550
# Poissons Ratio (z) = 0.14434 0.09035
#
# Static dielectric constant tensor:
#      x y z
#    x 1.788150 0.000000 -0.006870 
#    y 0.000000 1.704710 0.000000 
#    z -0.006870 0.000000 1.805790 
# 
# From -- ./inp_files/171952.got.cif
#   From: 2010.05.17/outbox.cif.g08.bks.cpg/sg15_86_cif.got.tgz:171952.got - 2010.06.03 18:47:42.
