data_PCOD9259114
_publ_section_title
;
Structure prediction by ZEFSAII (Michael W. Deem and Ramdas Pophale) SiO2 
 PCOD9259114
Probable space group: C 2/C
;
_chemical_formula_sum "Si O2"
_cell_formula_units_Z 40
_cell_length_a 9.679358
_cell_length_b 14.902961
_cell_length_c 11.445543
_cell_angle_alpha 90.000000
_cell_angle_beta 98.194248
_cell_angle_gamma 90.000000
_cell_volume 1634.175969
_symmetry_space_group_name_H-M "C 2/C"
_symmetry_group_IT_number 15
_symmetry_cell_setting 'monoclinic'
loop_
_space_group_symop_operation_xyz
x,y,z
-x,y,1/2-z
-x,-y,-z
x,-y,1/2+z
1/2+x,1/2+y,z
1/2-x,1/2+y,1/2-z
1/2-x,1/2-y,-z
1/2+x,1/2-y,1/2+z
loop_
_atom_site_type_symbol
_atom_site_label
_atom_site_fract_x
_atom_site_fract_y
_atom_site_fract_z
Si Si1 0.203477 0.348970 0.257647
Si Si2 0.642773 0.223621 0.379610
Si Si3 0.044784 0.279792 0.442991
Si Si4 0.453996 0.570813 0.089809
Si Si5 0.247521 0.945485 0.752039
O O1 0.338769 0.308203 0.206902
O O2 0.078407 0.315631 0.158027
O O3 0.196168 0.455875 0.266325
O O4 0.179563 0.308904 0.384170
O O5 0.750000 0.250000 0.500000
O O6 0.501712 0.195890 0.431579
O O7 0.681140 0.137121 0.305512
O O8 0.040916 0.173231 0.446929
O O9 0.295138 0.556574 0.116242
O O10 0.590668 0.561887 0.186624
O O11 0.500000 0.500000 0.000000
#
# Coordination Sequence:
#
# PCOD9259114 Si02
#       5
#     8   8   8   8   8
#     4  10  19  35  58  89 120 150 200 243 296 366
#     4  10  18  34  60  84 115 161 198 242 301 354
#     4  10  19  37  61  82 117 164 188 244 306 358
#     4  11  21  38  62  91 113 159 216 248 290 353
#     4  11  21  34  60  95 116 154 206 250 296 359
#
# _framework density 24.477169
#
# number of rings (size 3 to 8) (size 9 to 14) (size 15 to 20)
#    0.000    1.600    6.000    2.400    2.800    0.800 
#    0.000    1.000    0.000    4.800    0.000    0.000 
#    0.000    0.000    0.000    0.000    0.000    0.000 
#
# Total GULP energy -111450.172978 kJ/mol
# GULP energy per Si atom -5572.508649 kJ/mol
# Density = 2.442146 g / cm^3
# Si number density = 24.477169 Si / 1000 Ang^3
#
#
#
# Elastic Constant Matrix: (Units=GPa)
#
#
# Indices 1 2 3 4 5 6 
#
# 1 57.8809 8.8839 38.6690 0.0000 -4.5512 0.0000
# 2 8.8839 192.3522 52.8314 0.0000 -16.0854 0.0000
# 3 38.6690 52.8314 101.8559 0.0000 -34.3827 0.0000
# 4 0.0000 0.0000 0.0000 53.4920 0.0000 -16.5299
# 5 -4.5512 -16.0854 -34.3827 0.0000 43.6239 0.0000
# 6 0.0000 0.0000 0.0000 -16.5299 0.0000 25.0927
#
#
#
# Elastic Compliance Matrix: (Units=1/GPa)
#
#
# Indices 1 2 3 4 5 6 
#
# 1 0.024924 0.001759 -0.012642 0.000000 -0.006715 0.000000
# 2 0.001759 0.006190 -0.004151 0.000000 -0.000805 0.000000
# 3 -0.012642 -0.004151 0.021539 0.000000 0.014127 0.000000
# 4 0.000000 0.000000 0.000000 0.023473 0.000000 0.015463
# 5 -0.006715 -0.000805 0.014127 0.000000 0.033060 0.000000
# 6 0.000000 0.000000 0.000000 0.015463 0.000000 0.050038
#
#
# Mechanical properties :
#
#
# Convention : Reuss Voigt Hill
#
# Bulk Modulus (GPa) = 44.27178 61.42863 52.85020
# Shear Modulus (GPa) = 25.40412 41.22204 33.31308
#
# Velocity S-wave (km/s) = 3.22509 4.10823 3.69316
# Velocity P-wave (km/s) = 5.65637 6.90320 6.31066
#
# Compressibility (1/GPa) = 0.02258775
#
# Stress axis : x y z
#
# Youngs Moduli (GPa) = 40.12127 161.54584 46.42828
#
# Poissons Ratio (x) = -0.28424 0.58693
# Poissons Ratio (y) = -0.07059 0.19270
# Poissons Ratio (z) = 0.50720 0.67051
#
# Static dielectric constant tensor:
#      x y z
#    x 2.095420 0.000000 0.078220 
#    y 0.000000 1.855020 0.000000 
#    z 0.078220 0.000000 0.994990 
# 
# From -- ./inp_files/85650.got.cif
#   From: 2010.05.17/outbox.cif.g08.bks.cpg/sg15_43_cif.got.tgz:85650.got - 2010.06.03 18:47:42.
