data_PCOD9259756
_publ_section_title
;
Structure prediction by ZEFSAII (Michael W. Deem and Ramdas Pophale) SiO2 
 PCOD9259756
Probable space group: C 2/C
;
_chemical_formula_sum "Si O2"
_cell_formula_units_Z 60
_cell_length_a 16.479290
_cell_length_b 20.845513
_cell_length_c 9.593971
_cell_angle_alpha 90.000000
_cell_angle_beta 114.366071
_cell_angle_gamma 90.000000
_cell_volume 3002.158374
_symmetry_space_group_name_H-M "C 2/C"
_symmetry_group_IT_number 15
_symmetry_cell_setting 'monoclinic'
loop_
_space_group_symop_operation_xyz
x,y,z
-x,y,1/2-z
-x,-y,-z
x,-y,1/2+z
1/2+x,1/2+y,z
1/2-x,1/2+y,1/2-z
1/2-x,1/2-y,-z
1/2+x,1/2-y,1/2+z
loop_
_atom_site_type_symbol
_atom_site_label
_atom_site_fract_x
_atom_site_fract_y
_atom_site_fract_z
Si Si1 0.865549 0.765890 0.745463
Si Si2 0.240171 0.462477 0.087652
Si Si3 0.058550 0.760382 0.010286
Si Si4 0.373477 0.986740 0.746063
Si Si5 0.070498 0.371823 0.573762
Si Si6 0.219274 0.156290 0.702711
Si Si7 0.768317 0.895404 0.596675
Si Si8 0.500000 0.910273 0.250000
O O1 0.892746 0.745079 0.605634
O O2 0.792180 0.714842 0.751110
O O3 0.827265 0.837893 0.701052
O O4 0.955934 0.771424 0.898790
O O5 0.160384 0.479002 0.138454
O O6 0.275836 0.394846 0.168785
O O7 0.295392 0.529807 0.136365
O O8 0.203916 0.457623 0.904802
O O9 0.065388 0.700374 0.119885
O O10 0.119889 0.815624 0.117032
O O11 0.443568 0.931995 0.837699
O O12 0.417134 0.042535 0.687664
O O13 0.171312 0.384032 0.594173
O O14 0.003327 0.372415 0.395121
O O15 0.236731 0.117577 0.571890
#
# Coordination Sequence:
#
# PCOD9259756 Si02
#       8
#     8   8   8   8   8   8   8   4
#     4  10  19  33  59  83 113 151 189 242 282 328
#     4  11  22  37  56  83 109 153 191 234 281 344
#     4  10  20  32  55  87 111 145 198 235 282 334
#     4  11  23  34  52  79 116 152 189 220 289 344
#     4  11  20  32  53  79 116 145 181 230 279 337
#     4  11  19  35  58  84 112 149 190 241 281 339
#     4  10  18  36  53  81 114 146 188 232 284 328
#     4  12  20  32  50  84 116 152 182 236 276 346
#
# _framework density 19.985621999999999
#
# number of rings (size 3 to 8) (size 9 to 14) (size 15 to 20)
#    0.000    1.333    6.667    2.000    1.867    0.000 
#    0.000    1.333    0.000    0.000    0.000    0.000 
#    0.000    0.000    0.000    0.000    0.000    0.000 
#
# Total GULP energy -167205.823413 kJ/mol
# GULP energy per Si atom -5573.527447 kJ/mol
# Density = 1.994013 g / cm^3
# Si number density = 19.985622 Si / 1000 Ang^3
#
#
#
# Elastic Constant Matrix: (Units=GPa)
#
#
# Indices 1 2 3 4 5 6 
#
# 1 41.9109 23.5645 17.8227 0.0000 18.3897 0.0000
# 2 23.5645 126.0571 41.4882 0.0000 24.8343 0.0000
# 3 17.8227 41.4882 66.8063 0.0000 16.7717 0.0000
# 4 0.0000 0.0000 0.0000 36.8336 0.0000 6.1312
# 5 18.3897 24.8343 16.7717 0.0000 25.6214 0.0000
# 6 0.0000 0.0000 0.0000 6.1312 0.0000 17.1781
#
#
#
# Elastic Compliance Matrix: (Units=1/GPa)
#
#
# Indices 1 2 3 4 5 6 
#
# 1 0.035709 -0.001232 -0.003143 0.000000 -0.022378 0.000000
# 2 -0.001232 0.011082 -0.004881 0.000000 -0.006662 0.000000
# 3 -0.003143 -0.004881 0.020444 0.000000 -0.006395 0.000000
# 4 0.000000 0.000000 0.000000 0.028864 0.000000 -0.010302
# 5 -0.022378 -0.006662 -0.006395 0.000000 0.065736 0.000000
# 6 0.000000 0.000000 0.000000 -0.010302 0.000000 0.061891
#
#
# Mechanical properties :
#
#
# Convention : Reuss Voigt Hill
#
# Bulk Modulus (GPa) = 20.52453 44.50279 32.51366
# Shear Modulus (GPa) = 19.34395 26.05322 22.69858
#
# Velocity S-wave (km/s) = 3.11447 3.61445 3.37374
# Velocity P-wave (km/s) = 4.81925 6.30355 5.61070
#
# Compressibility (1/GPa) = 0.04872219
#
# Stress axis : x y z
#
# Youngs Moduli (GPa) = 28.00441 90.23462 48.91402
#
# Poissons Ratio (x) = 0.11117 0.15375
# Poissons Ratio (y) = 0.03450 0.23875
# Poissons Ratio (z) = 0.08803 0.44044
#
# Static dielectric constant tensor:
#      x y z
#    x 1.736660 0.000000 -0.012110 
#    y 0.000000 1.776140 0.000000 
#    z -0.012110 0.000000 1.719560 
# 
# From -- ./inp_files/50301.got.cif
#   From: 2010.05.17/outbox.cif.g08.bks.cpg/sg15_26_cif.got.tgz:50301.got - 2010.06.03 18:47:42.
