data_PCOD9259353
_publ_section_title
;
Structure prediction by ZEFSAII (Michael W. Deem and Ramdas Pophale) SiO2 
 PCOD9259353
Probable space group: C 2/C
;
_chemical_formula_sum "Si O2"
_cell_formula_units_Z 60
_cell_length_a 23.445338
_cell_length_b 6.622572
_cell_length_c 25.051979
_cell_angle_alpha 90.000000
_cell_angle_beta 129.386790
_cell_angle_gamma 90.000000
_cell_volume 3006.334051
_symmetry_space_group_name_H-M "C 2/C"
_symmetry_group_IT_number 15
_symmetry_cell_setting 'monoclinic'
loop_
_space_group_symop_operation_xyz
x,y,z
-x,y,1/2-z
-x,-y,-z
x,-y,1/2+z
1/2+x,1/2+y,z
1/2-x,1/2+y,1/2-z
1/2-x,1/2-y,-z
1/2+x,1/2-y,1/2+z
loop_
_atom_site_type_symbol
_atom_site_label
_atom_site_fract_x
_atom_site_fract_y
_atom_site_fract_z
Si Si1 0.809562 0.955721 0.498026
Si Si2 0.094823 0.163478 0.237462
Si Si3 0.032305 0.517281 0.838620
Si Si4 0.000000 0.851456 0.250000
Si Si5 0.550548 0.447116 0.594674
Si Si6 0.329755 0.744903 0.118628
Si Si7 0.586065 0.292090 0.508549
Si Si8 0.420736 0.877281 0.021156
O O1 0.726464 0.924255 0.429248
O O2 0.813594 0.928113 0.564607
O O3 0.852934 0.762824 0.498137
O O4 0.853203 0.142227 0.499013
O O5 0.093826 0.087496 0.175540
O O6 0.167657 0.191951 0.317180
O O7 0.047379 0.372672 0.209648
O O8 0.050793 0.992523 0.244222
O O9 0.088206 0.678291 0.846160
O O10 0.057275 0.496421 0.913611
O O11 0.038726 0.306443 0.812676
O O12 0.598117 0.426068 0.569386
O O13 0.496246 0.641020 0.560186
O O14 0.489775 0.267930 0.552747
O O15 0.593023 0.056695 0.527935
#
# Coordination Sequence:
#
# PCOD9259353 Si02
#       8
#     8   8   8   4   8   8   8   8
#     4   9  21  34  53  72 102 142 175 206 254 305
#     4  11  20  33  52  75 109 133 164 212 270 308
#     4  10  19  31  48  80 106 127 160 213 261 307
#     4  12  18  28  52  80 102 128 162 204 264 312
#     4   9  20  33  54  80 102 134 163 218 267 303
#     4  10  18  38  49  71 110 139 165 213 260 304
#     4  10  18  35  55  76 104 130 177 212 253 307
#     4   9  18  32  53  78 102 126 170 213 256 300
#
# _framework density 19.957863
#
# number of rings (size 3 to 8) (size 9 to 14) (size 15 to 20)
#    0.000    2.133    2.667    2.000    1.867    0.000 
#    2.400    2.000    2.933    0.000    0.000    0.000 
#    0.000    0.000    0.000    0.000    0.000    0.000 
#
# Total GULP energy -167100.210997 kJ/mol
# GULP energy per Si atom -5570.007033 kJ/mol
# Density = 1.991244 g / cm^3
# Si number density = 19.957863 Si / 1000 Ang^3
#
#
#
# Elastic Constant Matrix: (Units=GPa)
#
#
# Indices 1 2 3 4 5 6 
#
# 1 26.1778 -5.9021 10.0866 -0.0002 -8.3139 -0.0002
# 2 -5.9021 68.0687 -0.7569 -0.0012 -3.6255 -0.0003
# 3 10.0866 -0.7569 96.7822 0.0001 -11.7543 0.0001
# 4 -0.0002 -0.0012 0.0001 17.2599 0.0000 -6.1838
# 5 -8.3139 -3.6255 -11.7543 0.0000 20.9856 -0.0002
# 6 -0.0002 -0.0003 0.0001 -6.1838 -0.0002 15.1774
#
#
#
# Elastic Compliance Matrix: (Units=1/GPa)
#
#
# Indices 1 2 3 4 5 6 
#
# 1 0.045885 0.004885 -0.002611 0.000001 0.017560 0.000002
# 2 0.004885 0.015366 0.000181 0.000002 0.004691 0.000001
# 3 -0.002611 0.000181 0.011249 0.000000 0.005298 0.000000
# 4 0.000001 0.000002 0.000000 0.067841 0.000001 0.027641
# 5 0.017560 0.004691 0.005298 0.000001 0.058386 0.000002
# 6 0.000002 0.000001 0.000000 0.027641 0.000002 0.077149
#
#
# Mechanical properties :
#
#
# Convention : Reuss Voigt Hill
#
# Bulk Modulus (GPa) = 12.91835 21.98709 17.45272
# Shear Modulus (GPa) = 16.84800 23.19131 20.01965
#
# Velocity S-wave (km/s) = 2.90863 3.41253 3.17061
# Velocity P-wave (km/s) = 4.21509 5.15440 4.70823
#
# Compressibility (1/GPa) = 0.07740927
#
# Stress axis : x y z
#
# Youngs Moduli (GPa) = 21.79384 65.07676 88.89324
#
# Poissons Ratio (x) = -0.31789 0.23212
# Poissons Ratio (y) = -0.10646 -0.01608
# Poissons Ratio (z) = 0.05691 -0.01177
#
# Static dielectric constant tensor:
#      x y z
#    x 1.753320 0.000000 -0.046980 
#    y 0.000000 1.792810 0.000000 
#    z -0.046980 0.000000 1.783130 
# 
# From -- ./inp_files/302835.got.cif
#   From: 2010.05.17/outbox.cif.g08.bks.cpg/sg15_152_cif.got.tgz:302835.got - 2010.06.03 18:47:42.
