data_PCOD9259107
_publ_section_title
;
Structure prediction by ZEFSAII (Michael W. Deem and Ramdas Pophale) SiO2 
 PCOD9259107
Probable space group: C 2/C
;
_chemical_formula_sum "Si O2"
_cell_formula_units_Z 60
_cell_length_a 18.223728
_cell_length_b 7.568593
_cell_length_c 19.907086
_cell_angle_alpha 90.000000
_cell_angle_beta 76.644376
_cell_angle_gamma 90.000000
_cell_volume 2671.485723
_symmetry_space_group_name_H-M "C 2/C"
_symmetry_group_IT_number 15
_symmetry_cell_setting 'monoclinic'
loop_
_space_group_symop_operation_xyz
x,y,z
-x,y,1/2-z
-x,-y,-z
x,-y,1/2+z
1/2+x,1/2+y,z
1/2-x,1/2+y,1/2-z
1/2-x,1/2-y,-z
1/2+x,1/2-y,1/2+z
loop_
_atom_site_type_symbol
_atom_site_label
_atom_site_fract_x
_atom_site_fract_y
_atom_site_fract_z
Si Si1 0.635435 0.114943 0.198584
Si Si2 0.820489 0.490785 0.165193
Si Si3 0.300514 0.581734 0.135030
Si Si4 0.932299 0.626633 0.037571
Si Si5 0.000000 0.063482 0.250000
Si Si6 0.532130 0.286529 0.130812
Si Si7 0.086818 0.983125 0.507372
Si Si8 0.842794 0.019408 0.268035
O O1 0.711463 0.048154 0.146368
O O2 0.563171 0.116380 0.165122
O O3 0.641560 0.328985 0.202773
O O4 0.636569 0.039126 0.274104
O O5 0.808523 0.280844 0.162068
O O6 0.861611 0.534510 0.086985
O O7 0.738280 0.582103 0.188409
O O8 0.352807 0.546233 0.060426
O O9 0.330356 0.474867 0.192557
O O10 0.907236 0.770815 0.987685
O O11 0.968160 0.725618 0.093725
O O12 0.000000 0.500000 0.000000
O O13 0.084273 0.143256 0.233447
O O14 0.998516 0.935129 0.186255
O O15 0.592119 0.391257 0.070949
O O16 0.000000 0.000000 0.500000
#
# Coordination Sequence:
#
# PCOD9259107 Si02
#       8
#     8   8   8   8   4   8   8   8
#     4   9  19  35  57  83 113 148 187 239 288 335
#     4  10  19  33  55  84 113 146 188 232 288 343
#     4  10  19  34  57  82 113 151 189 231 284 347
#     4  11  22  37  59  81 112 152 191 239 292 347
#     4  10  18  34  60  82 106 140 182 234 280 328
#     4  10  20  36  58  83 110 144 190 234 284 344
#     4  10  20  35  56  80 107 147 195 234 280 346
#     4   9  18  33  55  81 110 145 190 235 281 339
#
# _framework density 22.459412
#
# number of rings (size 3 to 8) (size 9 to 14) (size 15 to 20)
#    0.000    2.133    0.000    5.600    0.000    1.600 
#    0.000    5.333    0.000    8.800    0.000    0.000 
#    0.000    0.000    0.000    0.000    0.000    0.000 
#
# Total GULP energy -167185.097903 kJ/mol
# GULP energy per Si atom -5572.836597 kJ/mol
# Density = 2.240829 g / cm^3
# Si number density = 22.459412 Si / 1000 Ang^3
#
#
#
# Elastic Constant Matrix: (Units=GPa)
#
#
# Indices 1 2 3 4 5 6 
#
# 1 81.8986 3.9467 11.7220 0.0000 -20.7590 0.0000
# 2 3.9467 40.9085 6.7121 0.0000 -4.7142 0.0000
# 3 11.7220 6.7121 92.1196 0.0000 -40.9572 0.0000
# 4 0.0000 0.0000 0.0000 23.2350 0.0000 -8.4854
# 5 -20.7590 -4.7142 -40.9572 0.0000 42.6849 0.0000
# 6 0.0000 0.0000 0.0000 -8.4854 0.0000 12.0486
#
#
#
# Elastic Compliance Matrix: (Units=1/GPa)
#
#
# Indices 1 2 3 4 5 6 
#
# 1 0.014198 -0.000702 0.002232 0.000000 0.008969 0.000000
# 2 -0.000702 0.024850 -0.001139 0.000000 0.001310 0.000000
# 3 0.002232 -0.001139 0.019326 0.000000 0.019503 0.000000
# 4 0.000000 0.000000 0.000000 0.057941 0.000000 0.040806
# 5 0.008969 0.001310 0.019503 0.000000 0.046648 0.000000
# 6 0.000000 0.000000 0.000000 0.040806 0.000000 0.111736
#
#
# Mechanical properties :
#
#
# Convention : Reuss Voigt Hill
#
# Bulk Modulus (GPa) = 16.90427 28.85425 22.87926
# Shear Modulus (GPa) = 17.02789 28.43009 22.72899
#
# Velocity S-wave (km/s) = 2.75646 3.56173 3.18465
# Velocity P-wave (km/s) = 4.20401 5.45800 4.87152
#
# Compressibility (1/GPa) = 0.05915664
#
# Stress axis : x y z
#
# Youngs Moduli (GPa) = 70.43231 40.24086 51.74430
#
# Poissons Ratio (x) = 0.02827 -0.11551
# Poissons Ratio (y) = 0.04947 0.05892
# Poissons Ratio (z) = -0.15723 0.04582
#
# Static dielectric constant tensor:
#      x y z
#    x 1.955820 0.000000 -0.014790 
#    y 0.000000 1.964010 0.000000 
#    z -0.014790 0.000000 1.899810 
# 
# From -- ./inp_files/213841.got.cif
#   From: 2010.05.17/outbox.cif.g08.bks.cpg/sg15_107_cif.got.tgz:213841.got - 2010.06.03 18:47:42.
