data_PCOD9259775
_publ_section_title
;
Structure prediction by ZEFSAII (Michael W. Deem and Ramdas Pophale) SiO2 
 PCOD9259775
Probable space group: C 2/C
;
_chemical_formula_sum "Si O2"
_cell_formula_units_Z 52
_cell_length_a 26.694946
_cell_length_b 9.780900
_cell_length_c 14.289992
_cell_angle_alpha 90.000000
_cell_angle_beta 41.340435
_cell_angle_gamma 90.000000
_cell_volume 2464.526592
_symmetry_space_group_name_H-M "C 2/C"
_symmetry_group_IT_number 15
_symmetry_cell_setting 'monoclinic'
loop_
_space_group_symop_operation_xyz
x,y,z
-x,y,1/2-z
-x,-y,-z
x,-y,1/2+z
1/2+x,1/2+y,z
1/2-x,1/2+y,1/2-z
1/2-x,1/2-y,-z
1/2+x,1/2-y,1/2+z
loop_
_atom_site_type_symbol
_atom_site_label
_atom_site_fract_x
_atom_site_fract_y
_atom_site_fract_z
Si Si1 0.243975 0.573438 0.658921
Si Si2 0.166431 0.813305 0.993190
Si Si3 0.782850 0.482495 0.088555
Si Si4 0.515289 0.345922 0.857758
Si Si5 0.115793 0.272731 0.049472
Si Si6 0.500000 0.406437 0.250000
Si Si7 0.149493 0.181024 0.291196
O O1 0.280320 0.443011 0.556721
O O2 0.217787 0.524800 0.797372
O O3 0.312494 0.680315 0.576578
O O4 0.178289 0.671752 0.711433
O O5 0.205005 0.669958 0.964876
O O6 0.159491 0.815216 0.889077
O O7 0.079824 0.828695 0.150103
O O8 0.705583 0.563573 0.172715
O O9 0.854198 0.578804 0.967254
O O10 0.444273 0.243923 0.950365
O O11 0.574605 0.293524 0.696014
O O12 0.489808 0.492555 0.853678
O O13 0.563682 0.347948 0.883017
#
# Coordination Sequence:
#
# PCOD9259775 Si02
#       7
#     8   8   8   8   8   4   8
#     4   9  16  34  54  75 102 141 173 209 258 309
#     4  10  18  36  55  77 109 140 168 212 272 315
#     4   9  19  32  55  79 103 138 176 212 262 308
#     4  10  19  35  57  78 101 140 183 216 254 306
#     4   9  18  35  56  75 103 142 176 214 259 317
#     4  10  20  34  54  74 110 144 164 214 272 320
#     4   9  20  34  59  80  98 136 186 221 245 308
#
# _framework density 21.099387
#
# number of rings (size 3 to 8) (size 9 to 14) (size 15 to 20)
#    0.000    2.769    3.077    0.923    0.000    4.308 
#    0.000    3.846    3.385    0.000    0.000    0.000 
#    0.000    0.000    0.000    0.000    0.000    0.000 
#
# Total GULP energy -144992.587344 kJ/mol
# GULP energy per Si atom -5576.637975 kJ/mol
# Density = 2.105136 g / cm^3
# Si number density = 21.099387 Si / 1000 Ang^3
#
#
#
# Elastic Constant Matrix: (Units=GPa)
#
#
# Indices 1 2 3 4 5 6 
#
# 1 64.4765 13.9970 -9.0038 0.0000 -10.9854 0.0000
# 2 13.9970 114.3938 7.4930 -0.0002 -2.1824 0.0001
# 3 -9.0038 7.4930 38.9261 -0.0001 6.6138 0.0001
# 4 0.0000 -0.0002 -0.0001 31.2654 0.0000 -0.8370
# 5 -10.9854 -2.1824 6.6138 0.0000 19.7542 0.0000
# 6 0.0000 0.0001 0.0001 -0.8370 0.0000 -0.1519
#
#
#
# Elastic Compliance Matrix: (Units=1/GPa)
#
#
# Indices 1 2 3 4 5 6 
#
# 1 0.017903 -0.002228 0.003096 0.000000 0.008673 0.000001
# 2 -0.002228 0.009181 -0.002380 0.000000 0.000572 0.000006
# 3 0.003096 -0.002380 0.028221 0.000000 -0.007990 0.000007
# 4 0.000000 0.000000 0.000000 0.027873 0.000000 -0.153582
# 5 0.008673 0.000572 -0.007990 0.000000 0.058184 -0.000001
# 6 0.000001 0.000006 0.000007 -0.153582 -0.000001 -5.737266
#
#
# Mechanical properties :
#
#
# Convention : Reuss Voigt Hill
#
# Bulk Modulus (GPa) = 19.12667 26.97430 23.05049
# Shear Modulus (GPa) = -0.89679 23.86090 11.48205
#
# Velocity S-wave (km/s) = -0.65265 3.36651 2.33532
# Velocity P-wave (km/s) = 2.91835 5.28425 4.26849
#
# Compressibility (1/GPa) = 0.05228302
#
# Stress axis : x y z
#
# Youngs Moduli (GPa) = 55.85558 108.91894 35.43401
#
# Poissons Ratio (x) = 0.24267 -0.10972
# Poissons Ratio (y) = 0.12444 0.08433
# Poissons Ratio (z) = -0.17295 0.25921
#
# Static dielectric constant tensor:
#      x y z
#    x 1.847560 0.000000 0.022480 
#    y 0.000000 1.797590 0.000000 
#    z 0.022480 0.000000 1.764360 
# 
# From -- ./inp_files/213496.got.cif
#   From: 2010.05.17/outbox.cif.g08.bks.cpg/sg15_107_cif.got.tgz:213496.got - 2010.06.03 18:47:42.
