data_PCOD9259648
_publ_section_title
;
Structure prediction by ZEFSAII (Michael W. Deem and Ramdas Pophale) SiO2 
 PCOD9259648
Probable space group: C 2/C
;
_chemical_formula_sum "Si O2"
_cell_formula_units_Z 44
_cell_length_a 9.526771
_cell_length_b 15.648710
_cell_length_c 13.979237
_cell_angle_alpha 90.000000
_cell_angle_beta 130.540332
_cell_angle_gamma 90.000000
_cell_volume 1583.769457
_symmetry_space_group_name_H-M "C 2/C"
_symmetry_group_IT_number 15
_symmetry_cell_setting 'monoclinic'
loop_
_space_group_symop_operation_xyz
x,y,z
-x,y,1/2-z
-x,-y,-z
x,-y,1/2+z
1/2+x,1/2+y,z
1/2-x,1/2+y,1/2-z
1/2-x,1/2-y,-z
1/2+x,1/2-y,1/2+z
loop_
_atom_site_type_symbol
_atom_site_label
_atom_site_fract_x
_atom_site_fract_y
_atom_site_fract_z
Si Si1 0.103828 0.377501 0.413197
Si Si2 0.738883 0.326819 0.686718
Si Si3 0.948849 0.305652 0.536066
Si Si4 0.000000 0.231862 0.250000
Si Si5 0.817312 0.034536 0.560347
Si Si6 0.728874 0.481879 0.233681
O O1 0.078465 0.343629 0.509496
O O2 0.142207 0.297635 0.362768
O O3 0.903542 0.419748 0.301346
O O4 0.250139 0.452288 0.472677
O O5 0.665695 0.269460 0.566727
O O6 0.583253 0.319234 0.700060
O O7 0.766551 0.428847 0.695836
O O8 0.921656 0.285807 0.816268
O O9 0.816951 0.384701 0.505395
O O10 0.792474 0.005750 0.660462
O O11 0.025878 0.055137 0.622597
#
# Coordination Sequence:
#
# PCOD9259648 Si02
#       6
#     8   8   8   4   8   8
#     4  10  19  38  57  86 124 160 207 250 302 367
#     4  11  21  36  60  98 123 156 201 264 307 360
#     4  10  21  36  60  90 131 154 202 256 314 358
#     4  10  24  32  56  90 128 148 196 266 318 334
#     4  10  18  35  62  87 114 165 210 247 295 376
#     4  10  19  34  65  87 110 162 215 245 295 376
#
# _framework density 27.781821000000001
#
# number of rings (size 3 to 8) (size 9 to 14) (size 15 to 20)
#    0.000    1.818    3.636    2.182    2.545    1.455 
#    0.000    0.909    8.000   33.818    0.000    0.000 
#    0.000    0.000    0.000    0.000    0.000    0.000 
#
# Total GULP energy -123457.246445 kJ/mol
# GULP energy per Si atom -5611.693020 kJ/mol
# Density = 2.771859 g / cm^3
# Si number density = 27.781821 Si / 1000 Ang^3
#
#
#
# Elastic Constant Matrix: (Units=GPa)
#
#
# Indices 1 2 3 4 5 6 
#
# 1 97.6918 48.9740 31.8999 0.0000 -8.6821 0.0000
# 2 48.9740 129.3302 55.8141 0.0000 -3.7538 0.0000
# 3 31.8999 55.8141 141.1278 0.0000 11.4159 0.0000
# 4 0.0000 0.0000 0.0000 66.3633 0.0000 0.8066
# 5 -8.6821 -3.7538 11.4159 0.0000 45.5272 0.0000
# 6 0.0000 0.0000 0.0000 0.8066 0.0000 54.6729
#
#
#
# Elastic Compliance Matrix: (Units=1/GPa)
#
#
# Indices 1 2 3 4 5 6 
#
# 1 0.013067 -0.004236 -0.001482 0.000000 0.002514 0.000000
# 2 -0.004236 0.010832 -0.003402 0.000000 0.000938 0.000000
# 3 -0.001482 -0.003402 0.008994 0.000000 -0.002818 0.000000
# 4 0.000000 0.000000 0.000000 0.015071 0.000000 -0.000222
# 5 0.002514 0.000938 -0.002818 0.000000 0.023228 0.000000
# 6 0.000000 0.000000 0.000000 -0.000222 0.000000 0.018294
#
#
# Mechanical properties :
#
#
# Convention : Reuss Voigt Hill
#
# Bulk Modulus (GPa) = 68.24378 71.28064 69.76221
# Shear Modulus (GPa) = 44.40090 48.74346 46.57218
#
# Velocity S-wave (km/s) = 4.00209 4.19323 4.09877
# Velocity P-wave (km/s) = 6.78035 7.01122 6.89675
#
# Compressibility (1/GPa) = 0.01465335
#
# Stress axis : x y z
#
# Youngs Moduli (GPa) = 76.52881 92.32257 111.18217
#
# Poissons Ratio (x) = 0.39104 0.16476
# Poissons Ratio (y) = 0.32415 0.37827
# Poissons Ratio (z) = 0.11340 0.31410
#
# Static dielectric constant tensor:
#      x y z
#    x 2.148500 0.000000 -0.064060 
#    y 0.000000 2.052300 0.000000 
#    z -0.064060 0.000000 2.261220 
# 
# From -- ./inp_files/244632.got.cif
#   From: 2010.05.17/outbox.cif.g08.bks.cpg/sg15_123_cif.got.tgz:244632.got - 2010.06.03 18:47:42.
