data_PCOD9259306
_publ_section_title
;
Structure prediction by ZEFSAII (Michael W. Deem and Ramdas Pophale) SiO2 
 PCOD9259306
Probable space group: C 2/C
;
_chemical_formula_sum "Si O2"
_cell_formula_units_Z 52
_cell_length_a 15.865797
_cell_length_b 8.264115
_cell_length_c 16.992628
_cell_angle_alpha 90.000000
_cell_angle_beta 79.908879
_cell_angle_gamma 90.000000
_cell_volume 2193.551835
_symmetry_space_group_name_H-M "C 2/C"
_symmetry_group_IT_number 15
_symmetry_cell_setting 'monoclinic'
loop_
_space_group_symop_operation_xyz
x,y,z
-x,y,1/2-z
-x,-y,-z
x,-y,1/2+z
1/2+x,1/2+y,z
1/2-x,1/2+y,1/2-z
1/2-x,1/2-y,-z
1/2+x,1/2-y,1/2+z
loop_
_atom_site_type_symbol
_atom_site_label
_atom_site_fract_x
_atom_site_fract_y
_atom_site_fract_z
Si Si1 0.895456 0.428472 0.408526
Si Si2 0.453688 0.253478 0.542369
Si Si3 0.141967 0.214241 0.643570
Si Si4 0.207680 0.515858 0.941278
Si Si5 0.514987 0.436002 0.376750
Si Si6 0.000000 0.437115 0.250000
Si Si7 0.142128 0.668821 0.306324
O O1 0.965768 0.364238 0.457916
O O2 0.892989 0.617679 0.386044
O O3 0.808710 0.417410 0.474743
O O4 0.931174 0.353438 0.320434
O O5 0.369279 0.146064 0.553846
O O6 0.470338 0.361816 0.462772
O O7 0.456082 0.382665 0.612636
O O8 0.206199 0.118065 0.577613
O O9 0.060903 0.098599 0.672677
O O10 0.185206 0.272556 0.718053
O O11 0.200436 0.407620 0.864046
O O12 0.595912 0.325069 0.348336
O O13 0.064462 0.546167 0.293605
#
# Coordination Sequence:
#
# PCOD9259306 Si02
#       7
#     8   8   8   8   8   4   8
#     4  11  20  40  65  93 122 168 218 254 309 398
#     4  11  22  36  66  94 122 162 218 258 314 386
#     4  11  24  39  63  93 127 165 214 268 321 372
#     4  12  22  40  67  92 123 171 212 261 320 385
#     4  11  21  40  61  94 128 164 210 268 314 378
#     4  10  18  34  66  92 112 158 222 262 298 380
#     4  11  20  41  65  86 125 173 216 255 316 385
#
# _framework density 23.705845
#
# number of rings (size 3 to 8) (size 9 to 14) (size 15 to 20)
#    0.000    0.923    7.692    0.923    0.000    1.231 
#    2.769    5.385    0.000    0.000    0.000    0.000 
#    0.000    0.000    0.000    0.000    0.000    0.000 
#
# Total GULP energy -145001.166812 kJ/mol
# GULP energy per Si atom -5576.967954 kJ/mol
# Density = 2.365189 g / cm^3
# Si number density = 23.705845 Si / 1000 Ang^3
#
#
#
# Elastic Constant Matrix: (Units=GPa)
#
#
# Indices 1 2 3 4 5 6 
#
# 1 49.9637 24.3330 19.0588 0.0000 -18.6285 0.0000
# 2 24.3330 64.8772 14.3097 0.0000 4.8957 0.0000
# 3 19.0588 14.3097 109.7462 0.0000 -6.2551 0.0000
# 4 0.0000 0.0000 0.0000 23.5783 0.0000 -3.7453
# 5 -18.6285 4.8957 -6.2551 0.0000 30.1180 0.0000
# 6 0.0000 0.0000 0.0000 -3.7453 0.0000 23.0481
#
#
#
# Elastic Compliance Matrix: (Units=1/GPa)
#
#
# Indices 1 2 3 4 5 6 
#
# 1 0.038394 -0.015635 -0.003168 0.000000 0.025631 0.000000
# 2 -0.015635 0.022518 -0.000992 0.000000 -0.013537 0.000000
# 3 -0.003168 -0.000992 0.009805 0.000000 0.000238 0.000000
# 4 0.000000 0.000000 0.000000 0.043536 0.000000 0.007075
# 5 0.025631 -0.013537 0.000238 0.000000 0.051306 0.000000
# 6 0.000000 0.000000 0.000000 0.007075 0.000000 0.044537
#
#
# Mechanical properties :
#
#
# Convention : Reuss Voigt Hill
#
# Bulk Modulus (GPa) = 32.12795 37.77668 34.95231
# Shear Modulus (GPa) = 19.22612 26.47458 22.85035
#
# Velocity S-wave (km/s) = 2.85095 3.34547 3.10806
# Velocity P-wave (km/s) = 4.94160 5.55816 5.25892
#
# Compressibility (1/GPa) = 0.03112555
#
# Stress axis : x y z
#
# Youngs Moduli (GPa) = 26.04585 44.40816 101.98796
#
# Poissons Ratio (x) = 0.69434 0.32310
# Poissons Ratio (y) = 0.40724 0.10122
# Poissons Ratio (z) = 0.08251 0.04407
#
# Static dielectric constant tensor:
#      x y z
#    x 1.841220 0.000000 0.055960 
#    y 0.000000 1.863930 0.000000 
#    z 0.055960 0.000000 2.094850 
# 
# From -- ./inp_files/209036.got.cif
#   From: 2010.05.17/outbox.cif.g08.bks.cpg/sg15_105_cif.got.tgz:209036.got - 2010.06.03 18:47:42.
