data_PCOD9259143
_publ_section_title
;
Structure prediction by ZEFSAII (Michael W. Deem and Ramdas Pophale) SiO2 
 PCOD9259143
Probable space group: C 2/C
;
_chemical_formula_sum "Si O2"
_cell_formula_units_Z 64
_cell_length_a 6.784509
_cell_length_b 19.233706
_cell_length_c 18.370469
_cell_angle_alpha 90.000000
_cell_angle_beta 85.031108
_cell_angle_gamma 90.000000
_cell_volume 2388.176558
_symmetry_space_group_name_H-M "C 2/C"
_symmetry_group_IT_number 15
_symmetry_cell_setting 'monoclinic'
loop_
_space_group_symop_operation_xyz
x,y,z
-x,y,1/2-z
-x,-y,-z
x,-y,1/2+z
1/2+x,1/2+y,z
1/2-x,1/2+y,1/2-z
1/2-x,1/2-y,-z
1/2+x,1/2-y,1/2+z
loop_
_atom_site_type_symbol
_atom_site_label
_atom_site_fract_x
_atom_site_fract_y
_atom_site_fract_z
Si Si1 0.742961 0.998345 0.357640
Si Si2 0.235293 0.372718 0.753984
Si Si3 0.149587 0.403264 0.970815
Si Si4 0.329533 0.489594 0.091938
Si Si5 0.521903 0.757215 0.979781
Si Si6 0.354916 0.269904 0.185217
Si Si7 0.732024 0.584513 0.767582
Si Si8 0.916058 0.141038 0.087550
O O1 0.832708 0.142771 0.172420
O O2 0.592908 0.034315 0.418254
O O3 0.935301 0.976933 0.398563
O O4 0.799472 0.058966 0.297103
O O5 0.166177 0.565174 0.811510
O O6 0.260636 0.301937 0.799875
O O7 0.000000 0.381785 0.750000
O O8 0.997853 0.340519 0.982995
O O9 0.349583 0.373591 0.927029
O O10 0.241286 0.475771 0.174231
O O11 0.233143 0.434284 0.042103
O O12 0.325862 0.567848 0.063086
O O13 0.530665 0.731909 0.895501
O O14 0.393385 0.710097 0.038985
O O15 0.750000 0.750000 0.000000
O O16 0.500000 0.270342 0.250000
O O17 0.231985 0.340649 0.198082
O O18 0.500000 0.583497 0.750000
#
# Coordination Sequence:
#
# PCOD9259143 Si02
#       8
#     8   8   8   8   8   8   8   8
#     4  10  18  34  60  90 122 165 227 281 343 401
#     4  11  23  40  61  87 128 185 237 285 345 417
#     4  10  20  34  62  96 132 165 215 290 366 423
#     4  10  19  33  60  98 126 161 214 283 352 427
#     4  10  20  37  60  95 138 174 216 296 364 427
#     4  10  21  38  59  88 128 178 223 277 345 419
#     4   9  17  30  56  88 119 152 211 279 330 394
#     4  10  20  35  62  94 127 173 229 283 350 426
#
# _framework density 26.798689
#
# number of rings (size 3 to 8) (size 9 to 14) (size 15 to 20)
#    0.000    2.000    2.500    3.000    1.750    2.000 
#    0.000    2.500    2.750    3.000    0.000    0.000 
#    0.000    0.000    0.000    0.000    0.000    0.000 
#
# Total GULP energy -179033.725068 kJ/mol
# GULP energy per Si atom -5594.803908 kJ/mol
# Density = 2.673769 g / cm^3
# Si number density = 26.798689 Si / 1000 Ang^3
#
#
#
# Elastic Constant Matrix: (Units=GPa)
#
#
# Indices 1 2 3 4 5 6 
#
# 1 124.7226 30.9396 33.1190 0.0000 -10.0590 0.0000
# 2 30.9396 169.8898 90.1117 0.0000 5.3951 0.0000
# 3 33.1190 90.1117 207.7389 0.0000 -15.1623 0.0000
# 4 0.0000 0.0000 0.0000 57.9426 0.0000 12.0094
# 5 -10.0590 5.3951 -15.1623 0.0000 23.8881 0.0000
# 6 0.0000 0.0000 0.0000 12.0094 0.0000 21.7252
#
#
#
# Elastic Compliance Matrix: (Units=1/GPa)
#
#
# Indices 1 2 3 4 5 6 
#
# 1 0.008813 -0.001457 -0.000501 0.000000 0.003722 0.000000
# 2 -0.001457 0.008272 -0.003709 0.000000 -0.004836 0.000000
# 3 -0.000501 -0.003709 0.006866 0.000000 0.004985 0.000000
# 4 0.000000 0.000000 0.000000 0.019492 0.000000 -0.010775
# 5 0.003722 -0.004836 0.004985 0.000000 0.047685 0.000000
# 6 0.000000 0.000000 0.000000 -0.010775 0.000000 0.051985
#
#
# Mechanical properties :
#
#
# Convention : Reuss Voigt Hill
#
# Bulk Modulus (GPa) = 79.26186 90.07687 84.66936
# Shear Modulus (GPa) = 31.51507 43.92325 37.71916
#
# Velocity S-wave (km/s) = 3.43300 4.05286 3.75574
# Velocity P-wave (km/s) = 6.73461 7.45562 7.10427
#
# Compressibility (1/GPa) = 0.01261641
#
# Stress axis : x y z
#
# Youngs Moduli (GPa) = 113.47457 120.88309 145.63784
#
# Poissons Ratio (x) = 0.17616 0.07299
# Poissons Ratio (y) = 0.16536 0.54017
# Poissons Ratio (z) = 0.05687 0.44836
#
# Static dielectric constant tensor:
#      x y z
#    x 2.602160 0.000000 0.421690 
#    y 0.000000 2.180760 0.000000 
#    z 0.421690 0.000000 2.416770 
# 
# From -- ./inp_files/244755.got.cif
#   From: 2010.05.17/outbox.cif.g08.bks.cpg/sg15_123_cif.got.tgz:244755.got - 2010.06.03 18:47:42.
