data_PCOD9259722
_publ_section_title
;
Structure prediction by ZEFSAII (Michael W. Deem and Ramdas Pophale) SiO2 
 PCOD9259722
Probable space group: C 2/C
;
_chemical_formula_sum "Si O2"
_cell_formula_units_Z 56
_cell_length_a 21.818740
_cell_length_b 27.402771
_cell_length_c 5.314223
_cell_angle_alpha 90.000000
_cell_angle_beta 54.954915
_cell_angle_gamma 90.000000
_cell_volume 2601.291096
_symmetry_space_group_name_H-M "C 2/C"
_symmetry_group_IT_number 15
_symmetry_cell_setting 'monoclinic'
loop_
_space_group_symop_operation_xyz
x,y,z
-x,y,1/2-z
-x,-y,-z
x,-y,1/2+z
1/2+x,1/2+y,z
1/2-x,1/2+y,1/2-z
1/2-x,1/2-y,-z
1/2+x,1/2-y,1/2+z
loop_
_atom_site_type_symbol
_atom_site_label
_atom_site_fract_x
_atom_site_fract_y
_atom_site_fract_z
Si Si1 0.636075 0.108169 0.782922
Si Si2 0.203339 0.125138 0.917030
Si Si3 0.428619 0.689179 0.236530
Si Si4 0.846737 0.070421 0.959408
Si Si5 0.000000 0.898401 0.250000
Si Si6 0.951923 0.702315 0.607327
Si Si7 0.000000 0.464089 0.750000
Si Si8 0.200843 0.474891 0.811905
O O1 0.706727 0.121455 0.795308
O O2 0.607816 0.159386 0.742203
O O3 0.668422 0.076267 0.476200
O O4 0.570417 0.073822 0.054137
O O5 0.172532 0.091616 0.767066
O O6 0.155444 0.174536 0.982708
O O7 0.181306 0.105165 0.245885
O O8 0.500000 0.696023 0.250000
O O9 0.422736 0.742509 0.126903
O O10 0.457372 0.640623 0.026564
O O11 0.791239 0.025041 0.113527
O O12 0.935883 0.068633 0.776502
O O13 0.000000 0.700972 0.750000
O O14 0.000000 0.689779 0.250000
O O15 0.000000 0.500000 0.500000
O O16 0.176525 0.489459 0.593228
#
# Coordination Sequence:
#
# PCOD9259722 Si02
#       8
#     8   8   8   8   4   8   4   8
#     4  11  25  46  67  96 133 168 221 274 339 382
#     4  10  22  37  65  97 131 169 213 269 316 386
#     4  10  19  38  65  97 134 174 219 251 314 388
#     4  10  21  37  62  97 126 166 214 264 320 378
#     4  10  18  35  66  90 132 170 216 253 306 392
#     4  11  25  41  66  95 134 174 214 270 324 387
#     4  12  28  45  72  98 124 172 228 279 332 400
#     4  11  23  42  65  88 125 165 211 267 329 387
#
# _framework density 21.527773
#
# number of rings (size 3 to 8) (size 9 to 14) (size 15 to 20)
#    0.000    1.429    2.857    2.571    1.000    6.286 
#    0.000    0.714    0.000    7.714    0.000    0.000 
#    0.000    0.000    0.000    0.000    0.000    0.000 
#
# Total GULP energy -155930.441049 kJ/mol
# GULP energy per Si atom -5568.944323 kJ/mol
# Density = 2.147877 g / cm^3
# Si number density = 21.527773 Si / 1000 Ang^3
#
#
#
# Elastic Constant Matrix: (Units=GPa)
#
#
# Indices 1 2 3 4 5 6 
#
# 1 209.3535 -1.1819 123.4388 0.0000 40.0408 0.0000
# 2 -1.1819 46.9770 9.6329 0.0000 -26.9751 0.0000
# 3 123.4388 9.6329 146.1671 0.0000 53.3779 0.0000
# 4 0.0000 0.0000 0.0000 33.6350 0.0000 -8.1303
# 5 40.0408 -26.9751 53.3779 0.0000 89.7332 0.0000
# 6 0.0000 0.0000 0.0000 -8.1303 0.0000 25.5486
#
#
#
# Elastic Compliance Matrix: (Units=1/GPa)
#
#
# Indices 1 2 3 4 5 6 
#
# 1 0.009926 0.003449 -0.009416 0.000000 0.002209 0.000000
# 2 0.003449 0.031406 -0.010052 0.000000 0.013881 0.000000
# 3 -0.009416 -0.010052 0.019195 0.000000 -0.010238 0.000000
# 4 0.000000 0.000000 0.000000 0.032209 0.000000 0.010250
# 5 0.002209 0.013881 -0.010238 0.000000 0.020421 0.000000
# 6 0.000000 0.000000 0.000000 0.010250 0.000000 0.042403
#
#
# Mechanical properties :
#
#
# Convention : Reuss Voigt Hill
#
# Bulk Modulus (GPa) = 35.10199 74.03080 54.56639
# Shear Modulus (GPa) = 25.36877 47.82388 36.59633
#
# Velocity S-wave (km/s) = 3.43654 4.71839 4.12753
# Velocity P-wave (km/s) = 5.66456 8.00921 6.93667
#
# Compressibility (1/GPa) = 0.02848841
#
# Stress axis : x y z
#
# Youngs Moduli (GPa) = 100.75016 31.84112 52.09772
#
# Poissons Ratio (x) = -0.10982 0.49056
# Poissons Ratio (y) = -0.34750 0.52367
# Poissons Ratio (z) = 0.94868 0.32006
#
# Static dielectric constant tensor:
#      x y z
#    x 1.860570 0.000000 -0.094420 
#    y 0.000000 1.819760 0.000000 
#    z -0.094420 0.000000 1.845370 
# 
# From -- ./inp_files/16440.got.cif
#   From: 2010.05.17/outbox.cif.g08.bks.cpg/sg15_9_cif.got.tgz:16440.got - 2010.06.03 18:47:42.
