data_PCOD9259033
_publ_section_title
;
Structure prediction by ZEFSAII (Michael W. Deem and Ramdas Pophale) SiO2 
 PCOD9259033
Probable space group: C 2/C
;
_chemical_formula_sum "Si O2"
_cell_formula_units_Z 56
_cell_length_a 16.038789
_cell_length_b 13.169016
_cell_length_c 19.169508
_cell_angle_alpha 90.000000
_cell_angle_beta 138.805904
_cell_angle_gamma 90.000000
_cell_volume 2666.646547
_symmetry_space_group_name_H-M "C 2/C"
_symmetry_group_IT_number 15
_symmetry_cell_setting 'monoclinic'
loop_
_space_group_symop_operation_xyz
x,y,z
-x,y,1/2-z
-x,-y,-z
x,-y,1/2+z
1/2+x,1/2+y,z
1/2-x,1/2+y,1/2-z
1/2-x,1/2-y,-z
1/2+x,1/2-y,1/2+z
loop_
_atom_site_type_symbol
_atom_site_label
_atom_site_fract_x
_atom_site_fract_y
_atom_site_fract_z
Si Si1 0.500000 0.036024 0.250000
Si Si2 0.293460 0.710256 0.126460
Si Si3 0.380777 0.289219 0.824913
Si Si4 0.575115 0.857687 0.397509
Si Si5 0.705284 0.203222 0.344114
Si Si6 0.579695 0.586878 0.951022
Si Si7 0.109762 0.109823 0.550466
Si Si8 0.000000 0.126747 0.750000
O O1 0.608872 0.109024 0.289308
O O2 0.553590 0.960170 0.342434
O O3 0.352639 0.662315 0.232128
O O4 0.386563 0.764089 0.130105
O O5 0.193581 0.639513 0.024248
O O6 0.215724 0.806101 0.108781
O O7 0.446467 0.179756 0.853003
O O8 0.264117 0.287289 0.804048
O O9 0.489025 0.352054 0.931205
O O10 0.824268 0.180447 0.471528
O O11 0.619341 0.300759 0.306242
O O12 0.644649 0.493834 0.033698
O O13 0.547975 0.570410 0.850162
O O14 0.445670 0.599341 0.907102
#
# Coordination Sequence:
#
# PCOD9259033 Si02
#       8
#     4   8   8   8   8   8   8   4
#     4  11  20  40  57  88 114 158 199 242 294 365
#     4  10  18  34  58  87 119 152 192 251 302 349
#     4  10  19  37  57  86 118 154 195 243 298 361
#     4  10  20  33  59  88 113 155 200 243 296 359
#     4  10  23  38  62  81 120 156 196 242 302 354
#     4  10  20  39  58  85 117 155 202 238 296 356
#     4   9  20  35  58  87 119 155 192 244 297 356
#     4  11  22  40  59  88 110 156 199 250 284 359
#
# _framework density 21.000157999999999
#
# number of rings (size 3 to 8) (size 9 to 14) (size 15 to 20)
#    0.000    2.000    1.429    2.143    0.000    0.000 
#   12.857    0.714    0.000    0.000    0.000    0.000 
#    0.000    0.000    0.000    0.000    0.000    0.000 
#
# Total GULP energy -156310.182729 kJ/mol
# GULP energy per Si atom -5582.506526 kJ/mol
# Density = 2.095236 g / cm^3
# Si number density = 21.000158 Si / 1000 Ang^3
#
#
#
# Elastic Constant Matrix: (Units=GPa)
#
#
# Indices 1 2 3 4 5 6 
#
# 1 128.9074 25.3476 33.1777 0.0000 -0.7520 0.0000
# 2 25.3476 40.0787 -5.2558 0.0000 7.5116 0.0000
# 3 33.1777 -5.2558 92.5338 0.0000 -17.6169 0.0000
# 4 0.0000 0.0000 0.0000 4.1105 0.0000 -8.7167
# 5 -0.7520 7.5116 -17.6169 0.0000 33.5644 0.0000
# 6 0.0000 0.0000 0.0000 -8.7167 0.0000 16.6386
#
#
#
# Elastic Compliance Matrix: (Units=1/GPa)
#
#
# Indices 1 2 3 4 5 6 
#
# 1 0.010170 -0.006899 -0.004112 0.000000 -0.000386 0.000000
# 2 -0.006899 0.030737 0.003200 -0.000001 -0.005354 0.000000
# 3 -0.004112 0.003200 0.013676 -0.000001 0.006370 0.000000
# 4 0.000000 -0.000001 -0.000001 -2.193093 -0.000001 -1.148924
# 5 -0.000386 -0.005354 0.006370 -0.000001 0.034326 0.000000
# 6 0.000000 0.000000 0.000000 -1.148924 0.000000 -0.541800
#
#
# Mechanical properties :
#
#
# Convention : Reuss Voigt Hill
#
# Bulk Modulus (GPa) = 25.66630 40.89544 33.28087
# Shear Modulus (GPa) = -1.91031 24.74607 11.41788
#
# Velocity S-wave (km/s) = -0.95480 3.43647 2.33428
# Velocity P-wave (km/s) = 3.32159 5.93818 4.81118
#
# Compressibility (1/GPa) = 0.03896159
#
# Stress axis : x y z
#
# Youngs Moduli (GPa) = 98.32757 32.53396 73.12310
#
# Poissons Ratio (x) = 0.22445 0.30067
# Poissons Ratio (y) = 0.67834 -0.23400
# Poissons Ratio (z) = 0.40431 -0.10411
#
# Static dielectric constant tensor:
#      x y z
#    x 1.787690 0.000000 -0.004520 
#    y 0.000000 1.815870 0.000000 
#    z -0.004520 0.000000 1.781270 
# 
# From -- ./inp_files/205522.got.cif
#   From: 2010.05.17/outbox.cif.g08.bks.cpg/sg15_103_cif.got.tgz:205522.got - 2010.06.03 18:47:42.
