data_PCOD9259211
_publ_section_title
;
Structure prediction by ZEFSAII (Michael W. Deem and Ramdas Pophale) SiO2 
 PCOD9259211
Probable space group: C 2/C
;
_chemical_formula_sum "Si O2"
_cell_formula_units_Z 56
_cell_length_a 9.968892
_cell_length_b 17.264420
_cell_length_c 20.394972
_cell_angle_alpha 90.000000
_cell_angle_beta 120.917662
_cell_angle_gamma 90.000000
_cell_volume 3011.355208
_symmetry_space_group_name_H-M "C 2/C"
_symmetry_group_IT_number 15
_symmetry_cell_setting 'monoclinic'
loop_
_space_group_symop_operation_xyz
x,y,z
-x,y,1/2-z
-x,-y,-z
x,-y,1/2+z
1/2+x,1/2+y,z
1/2-x,1/2+y,1/2-z
1/2-x,1/2-y,-z
1/2+x,1/2-y,1/2+z
loop_
_atom_site_type_symbol
_atom_site_label
_atom_site_fract_x
_atom_site_fract_y
_atom_site_fract_z
Si Si1 0.936247 0.538152 0.550739
Si Si2 0.363456 0.830457 0.446344
Si Si3 0.436557 0.528832 0.054292
Si Si4 0.850760 0.827039 0.882252
Si Si5 0.365107 0.758574 0.772669
Si Si6 0.443101 0.115042 0.112844
Si Si7 0.517643 0.607314 0.830343
O O1 0.749595 0.539744 0.498663
O O2 0.981815 0.475776 0.617598
O O3 0.000000 0.500000 0.500000
O O4 0.020410 0.620716 0.571227
O O5 0.392121 0.739665 0.444718
O O6 0.386714 0.856846 0.527025
O O7 0.186015 0.850961 0.381987
O O8 0.516353 0.609884 0.092890
O O9 0.479762 0.463927 0.119013
O O10 0.500000 0.500000 0.000000
O O11 0.794364 0.780801 0.803566
O O12 0.698738 0.871329 0.872617
O O13 0.500000 0.756380 0.750000
O O14 0.415987 0.829015 0.831706
O O15 0.386603 0.673868 0.809803
O O16 0.500000 0.581988 0.750000
#
# Coordination Sequence:
#
# PCOD9259211 Si02
#       7
#     8   8   8   8   8   8   8
#     4  10  21  38  59  92 123 161 209 244 311 376
#     4  11  20  36  63  85 122 168 208 253 302 382
#     4  12  24  39  64 100 129 159 212 268 316 365
#     4  11  21  37  58  93 126 153 209 270 308 364
#     4   9  19  34  58  91 118 157 215 259 303 368
#     4  10  18  34  62  87 119 159 211 257 305 366
#     4  11  20  38  65  93 121 165 217 252 307 388
#
# _framework density 18.596278999999999
#
# number of rings (size 3 to 8) (size 9 to 14) (size 15 to 20)
#    0.000    1.429    8.571    0.429    2.000    1.714 
#    0.000    0.000    0.000    0.000    0.000    0.000 
#    0.000    0.000    0.000    0.000    0.000    0.000 
#
# Total GULP energy -156131.294766 kJ/mol
# GULP energy per Si atom -5576.117670 kJ/mol
# Density = 1.855395 g / cm^3
# Si number density = 18.596279 Si / 1000 Ang^3
#
#
#
# Elastic Constant Matrix: (Units=GPa)
#
#
# Indices 1 2 3 4 5 6 
#
# 1 66.7502 27.4647 9.8208 0.0000 4.9852 0.0000
# 2 27.4647 95.0401 9.0022 0.0000 -0.7687 0.0000
# 3 9.8208 9.0022 74.6371 0.0000 5.7066 0.0000
# 4 0.0000 0.0000 0.0000 31.7781 0.0000 -2.0134
# 5 4.9852 -0.7687 5.7066 0.0000 14.9189 0.0000
# 6 0.0000 0.0000 0.0000 -2.0134 0.0000 31.0972
#
#
#
# Elastic Compliance Matrix: (Units=1/GPa)
#
#
# Indices 1 2 3 4 5 6 
#
# 1 0.017663 -0.005028 -0.001284 0.000000 -0.005670 0.000000
# 2 -0.005028 0.012092 -0.001002 0.000000 0.002687 0.000000
# 3 -0.001284 -0.001002 0.014071 0.000000 -0.005005 0.000000
# 4 0.000000 0.000000 0.000000 0.031598 0.000000 0.002046
# 5 -0.005670 0.002687 -0.005005 0.000000 0.070976 0.000000
# 6 0.000000 0.000000 0.000000 0.002046 0.000000 0.032290
#
#
# Mechanical properties :
#
#
# Convention : Reuss Voigt Hill
#
# Bulk Modulus (GPa) = 34.25173 36.55588 35.40380
# Shear Modulus (GPa) = 24.62453 28.23484 26.42968
#
# Velocity S-wave (km/s) = 3.64285 3.90077 3.77402
# Velocity P-wave (km/s) = 6.01269 6.32363 6.17012
#
# Compressibility (1/GPa) = 0.02919561
#
# Stress axis : x y z
#
# Youngs Moduli (GPa) = 56.61704 82.70191 71.06988
#
# Poissons Ratio (x) = 0.41585 0.09126
# Poissons Ratio (y) = 0.28469 0.07123
# Poissons Ratio (z) = 0.07270 0.08288
#
# Static dielectric constant tensor:
#      x y z
#    x 1.626570 0.000000 -0.002390 
#    y 0.000000 1.701290 0.000000 
#    z -0.002390 0.000000 1.661060 
# 
# From -- ./inp_files/191068.got.cif
#   From: 2010.05.17/outbox.cif.g08.bks.cpg/sg15_96_cif.got.tgz:191068.got - 2010.06.03 18:47:42.
