data_PCOD9259392
_publ_section_title
;
Structure prediction by ZEFSAII (Michael W. Deem and Ramdas Pophale) SiO2 
 PCOD9259392
Probable space group: C 2/C
;
_chemical_formula_sum "Si O2"
_cell_formula_units_Z 60
_cell_length_a 13.161935
_cell_length_b 21.644828
_cell_length_c 11.284335
_cell_angle_alpha 90.000000
_cell_angle_beta 119.608806
_cell_angle_gamma 90.000000
_cell_volume 2794.981773
_symmetry_space_group_name_H-M "C 2/C"
_symmetry_group_IT_number 15
_symmetry_cell_setting 'monoclinic'
loop_
_space_group_symop_operation_xyz
x,y,z
-x,y,1/2-z
-x,-y,-z
x,-y,1/2+z
1/2+x,1/2+y,z
1/2-x,1/2+y,1/2-z
1/2-x,1/2-y,-z
1/2+x,1/2-y,1/2+z
loop_
_atom_site_type_symbol
_atom_site_label
_atom_site_fract_x
_atom_site_fract_y
_atom_site_fract_z
Si Si1 0.276164 0.296656 0.836294
Si Si2 0.852503 0.973228 0.488753
Si Si3 0.915331 0.089226 0.387129
Si Si4 0.406231 0.180096 0.455806
Si Si5 0.809895 0.546774 0.392844
Si Si6 0.651299 0.827722 0.995036
Si Si7 0.000000 0.661484 0.750000
Si Si8 0.323900 0.924954 0.292952
O O1 0.392919 0.338529 0.897736
O O2 0.208937 0.293243 0.672506
O O3 0.292618 0.229711 0.901634
O O4 0.195281 0.331556 0.886614
O O5 0.745179 0.977283 0.517037
O O6 0.798860 0.940299 0.341119
O O7 0.959242 0.929959 0.591914
O O8 0.901315 0.041608 0.489531
O O9 0.804421 0.070312 0.243812
O O10 0.387332 0.106460 0.458578
O O11 0.514208 0.186143 0.428785
O O12 0.444404 0.200417 0.609560
O O13 0.871091 0.492919 0.353406
O O14 0.684413 0.887629 0.089791
O O15 0.901932 0.617671 0.752795
#
# Coordination Sequence:
#
# PCOD9259392 Si02
#       8
#     8   8   8   8   8   8   4   8
#     4  10  21  41  60  87 116 155 198 245 295 354
#     4  10  18  35  56  84 118 152 191 245 287 346
#     4   9  20  33  57  84 115 153 198 234 293 348
#     4  10  21  39  61  86 118 158 189 245 299 351
#     4  10  19  35  58  84 118 154 191 238 296 352
#     4  10  22  38  62  86 119 148 199 250 288 353
#     4  10  20  38  56  84 126 148 192 244 284 358
#     4  10  21  36  57  88 118 155 192 241 296 349
#
# _framework density 21.467044999999999
#
# number of rings (size 3 to 8) (size 9 to 14) (size 15 to 20)
#    0.000    2.133    1.333    1.600    0.000    3.200 
#    7.200    6.000   23.467    0.000    0.000    0.000 
#    0.000    0.000    0.000    0.000    0.000    0.000 
#
# Total GULP energy -167334.828945 kJ/mol
# GULP energy per Si atom -5577.827631 kJ/mol
# Density = 2.141819 g / cm^3
# Si number density = 21.467045 Si / 1000 Ang^3
#
#
#
# Elastic Constant Matrix: (Units=GPa)
#
#
# Indices 1 2 3 4 5 6 
#
# 1 52.3048 -11.7309 -0.3564 0.0000 -2.1413 0.0000
# 2 -11.7309 33.1420 13.0070 0.0000 3.2416 0.0000
# 3 -0.3564 13.0070 87.9779 0.0000 7.9715 0.0000
# 4 0.0000 0.0000 0.0000 19.8863 0.0000 -2.0818
# 5 -2.1413 3.2416 7.9715 0.0000 26.2591 0.0000
# 6 0.0000 0.0000 0.0000 -2.0818 0.0000 21.1729
#
#
#
# Elastic Compliance Matrix: (Units=1/GPa)
#
#
# Indices 1 2 3 4 5 6 
#
# 1 0.020892 0.007743 -0.001160 0.000000 0.001100 0.000000
# 2 0.007743 0.035073 -0.004955 0.000000 -0.002194 0.000000
# 3 -0.001160 -0.004955 0.012388 0.000000 -0.003244 0.000000
# 4 0.000000 0.000000 0.000000 0.050809 0.000000 0.004996
# 5 0.001100 -0.002194 -0.003244 0.000000 0.039427 0.000000
# 6 0.000000 0.000000 0.000000 0.004996 0.000000 0.047721
#
#
# Mechanical properties :
#
#
# Convention : Reuss Voigt Hill
#
# Bulk Modulus (GPa) = 13.96471 19.47378 16.71924
# Shear Modulus (GPa) = 22.03365 24.96399 23.49882
#
# Velocity S-wave (km/s) = 3.20721 3.41383 3.31213
# Velocity P-wave (km/s) = 4.49825 4.96288 4.73626
#
# Compressibility (1/GPa) = 0.07160909
#
# Stress axis : x y z
#
# Youngs Moduli (GPa) = 47.86448 28.51189 80.72145
#
# Poissons Ratio (x) = -0.22076 0.09361
# Poissons Ratio (y) = -0.37059 0.39999
# Poissons Ratio (z) = 0.05551 0.14128
#
# Static dielectric constant tensor:
#      x y z
#    x 1.790330 0.000000 -0.004330 
#    y 0.000000 1.793050 0.000000 
#    z -0.004330 0.000000 1.814070 
# 
# From -- ./inp_files/99833.got.cif
#   From: 2010.05.17/outbox.cif.g08.bks.cpg/sg15_50_cif.got.tgz:99833.got - 2010.06.03 18:47:42.
