data_PCOD9259671
_publ_section_title
;
Structure prediction by ZEFSAII (Michael W. Deem and Ramdas Pophale) SiO2 
 PCOD9259671
Probable space group: C 2/C
;
_chemical_formula_sum "Si O2"
_cell_formula_units_Z 56
_cell_length_a 14.422124
_cell_length_b 13.049262
_cell_length_c 23.309651
_cell_angle_alpha 90.000000
_cell_angle_beta 33.514651
_cell_angle_gamma 90.000000
_cell_volume 2422.189851
_symmetry_space_group_name_H-M "C 2/C"
_symmetry_group_IT_number 15
_symmetry_cell_setting 'monoclinic'
loop_
_space_group_symop_operation_xyz
x,y,z
-x,y,1/2-z
-x,-y,-z
x,-y,1/2+z
1/2+x,1/2+y,z
1/2-x,1/2+y,1/2-z
1/2-x,1/2-y,-z
1/2+x,1/2-y,1/2+z
loop_
_atom_site_type_symbol
_atom_site_label
_atom_site_fract_x
_atom_site_fract_y
_atom_site_fract_z
Si Si1 0.408851 0.756654 0.652182
Si Si2 0.932198 0.872619 0.338523
Si Si3 0.280384 0.681658 0.088510
Si Si4 0.469205 0.593727 0.470921
Si Si5 0.234719 0.133178 0.028339
Si Si6 0.308048 0.749544 0.340442
Si Si7 0.122236 0.444844 0.577114
O O1 0.423989 0.670194 0.693355
O O2 0.560477 0.717221 0.531980
O O3 0.245433 0.766687 0.697662
O O4 0.472447 0.866943 0.641822
O O5 0.847165 0.773326 0.352704
O O6 0.775581 0.916569 0.454671
O O7 0.000000 0.937114 0.250000
O O8 0.358871 0.657550 0.109348
O O9 0.192199 0.584242 0.103844
O O10 0.500000 0.500000 0.500000
O O11 0.419003 0.584066 0.430010
O O12 0.313636 0.659442 0.575503
O O13 0.221451 0.150051 0.103406
O O14 0.394155 0.064599 0.926925
O O15 0.250000 0.250000 0.000000
O O16 0.500000 0.778243 0.250000
#
# Coordination Sequence:
#
# PCOD9259671 Si02
#       7
#     8   8   8   8   8   8   8
#     4   8  17  33  55  75 109 158 183 226 293 355
#     4   9  17  29  52  87 113 136 185 246 295 343
#     4   8  15  30  53  81 106 141 189 234 282 345
#     4  10  18  35  63  82 103 158 209 236 281 356
#     4  10  21  34  57  83 111 154 202 240 283 359
#     4  10  22  38  55  81 125 156 184 247 316 350
#     4   9  16  32  55  80 111 147 197 236 282 352
#
# _framework density 23.119574
#
# number of rings (size 3 to 8) (size 9 to 14) (size 15 to 20)
#    0.000    2.857    1.429    1.714    0.000    2.286 
#    0.000    2.143    6.286    0.000    0.000    0.000 
#    0.000    4.571    0.000    0.000    0.000    0.000 
#
# Total GULP energy -155993.443686 kJ/mol
# GULP energy per Si atom -5571.194417 kJ/mol
# Density = 2.306695 g / cm^3
# Si number density = 23.119574 Si / 1000 Ang^3
#
#
#
# Elastic Constant Matrix: (Units=GPa)
#
#
# Indices 1 2 3 4 5 6 
#
# 1 173.0165 19.5540 25.4707 -0.0001 -17.9173 0.0000
# 2 19.5540 93.4514 2.2150 -0.0002 -13.4475 0.0000
# 3 25.4707 2.2150 48.1717 -0.0013 -9.1981 0.0001
# 4 -0.0001 -0.0002 -0.0013 12.0651 0.0002 -3.7026
# 5 -17.9173 -13.4475 -9.1981 0.0002 30.9081 0.0001
# 6 0.0000 0.0000 0.0001 -3.7026 0.0001 25.7450
#
#
#
# Elastic Compliance Matrix: (Units=1/GPa)
#
#
# Indices 1 2 3 4 5 6 
#
# 1 0.006583 -0.000944 -0.002955 0.000000 0.002526 0.000000
# 2 -0.000944 0.011560 0.000873 0.000000 0.004742 0.000000
# 3 -0.002955 0.000873 0.023354 0.000003 0.005617 0.000000
# 4 0.000000 0.000000 0.000003 0.086710 0.000000 0.012471
# 5 0.002526 0.004742 0.005617 0.000000 0.037553 0.000000
# 6 0.000000 0.000000 0.000000 0.012471 0.000000 0.040636
#
#
# Mechanical properties :
#
#
# Convention : Reuss Voigt Hill
#
# Bulk Modulus (GPa) = 28.21269 45.45767 36.83518
# Shear Modulus (GPa) = 22.29521 31.57031 26.93276
#
# Velocity S-wave (km/s) = 3.10876 3.69931 3.41681
# Velocity P-wave (km/s) = 5.01151 6.16045 5.61544
#
# Compressibility (1/GPa) = 0.03544505
#
# Stress axis : x y z
#
# Youngs Moduli (GPa) = 151.90406 86.50553 42.81944
#
# Poissons Ratio (x) = 0.08165 0.12653
# Poissons Ratio (y) = 0.14338 -0.03738
# Poissons Ratio (z) = 0.44888 -0.07552
#
# Static dielectric constant tensor:
#      x y z
#    x 1.939260 0.000000 0.080020 
#    y 0.000000 1.983440 0.000000 
#    z 0.080020 0.000000 1.979880 
# 
# From -- ./inp_files/296297.got.cif
#   From: 2010.05.17/outbox.cif.g08.bks.cpg/sg15_149_cif.got.tgz:296297.got - 2010.06.03 18:47:42.
