data_PCOD9259328
_publ_section_title
;
Structure prediction by ZEFSAII (Michael W. Deem and Ramdas Pophale) SiO2 
 PCOD9259328
Probable space group: C 2/C
;
_chemical_formula_sum "Si O2"
_cell_formula_units_Z 52
_cell_length_a 23.166245
_cell_length_b 9.911420
_cell_length_c 21.447721
_cell_angle_alpha 90.000000
_cell_angle_beta 36.451108
_cell_angle_gamma 90.000000
_cell_volume 2925.896748
_symmetry_space_group_name_H-M "C 2/C"
_symmetry_group_IT_number 15
_symmetry_cell_setting 'monoclinic'
loop_
_space_group_symop_operation_xyz
x,y,z
-x,y,1/2-z
-x,-y,-z
x,-y,1/2+z
1/2+x,1/2+y,z
1/2-x,1/2+y,1/2-z
1/2-x,1/2-y,-z
1/2+x,1/2-y,1/2+z
loop_
_atom_site_type_symbol
_atom_site_label
_atom_site_fract_x
_atom_site_fract_y
_atom_site_fract_z
Si Si1 0.000000 0.663944 0.250000
Si Si2 0.358670 0.678509 0.797507
Si Si3 0.366635 0.525070 0.572223
Si Si4 0.657238 0.790602 0.425445
Si Si5 0.070853 0.058746 0.344033
Si Si6 0.966510 0.585294 0.145871
Si Si7 0.168868 0.659413 0.770924
O O1 0.907817 0.761470 0.316980
O O2 0.993117 0.576738 0.318367
O O3 0.243567 0.663419 0.895917
O O4 0.410978 0.544546 0.727732
O O5 0.386625 0.795401 0.722577
O O6 0.354950 0.370738 0.559415
O O7 0.457785 0.587223 0.456386
O O8 0.392781 0.510991 0.623007
O O9 0.267461 0.607918 0.653307
O O10 0.555189 0.861820 0.527894
O O11 0.686390 0.827083 0.329668
O O12 0.130729 0.195327 0.282561
O O13 0.914020 0.452077 0.168605
#
# Coordination Sequence:
#
# PCOD9259328 Si02
#       7
#     4   8   8   8   8   8   8
#     4   8  20  38  62  74 116 154 200 242 266 342
#     4  10  19  37  56  82 107 149 200 227 278 343
#     4  10  18  35  51  79 117 155 176 224 304 338
#     4  11  20  33  62  82 116 153 187 243 287 346
#     4  10  21  33  54  79 116 150 185 233 285 347
#     4  10  21  38  55  85 110 149 202 235 280 337
#     4  11  22  33  56  89 121 148 184 246 295 345
#
# _framework density 17.772328999999999
#
# number of rings (size 3 to 8) (size 9 to 14) (size 15 to 20)
#    0.923    0.923    4.615    0.462    0.000    1.846 
#    0.000    0.769    0.000    0.000    0.000    6.462 
#    0.000    0.000    0.000    0.000    0.000    0.000 
#
# Total GULP energy -144854.740086 kJ/mol
# GULP energy per Si atom -5571.336157 kJ/mol
# Density = 1.773188 g / cm^3
# Si number density = 17.772329 Si / 1000 Ang^3
#
#
#
# Elastic Constant Matrix: (Units=GPa)
#
#
# Indices 1 2 3 4 5 6 
#
# 1 55.2250 23.6061 13.2891 0.0000 -17.8036 0.0000
# 2 23.6061 56.0420 9.5752 0.0000 -5.2082 0.0000
# 3 13.2891 9.5752 62.3738 -0.0003 -20.4178 0.0002
# 4 0.0000 0.0000 -0.0003 25.7941 0.0000 -5.5795
# 5 -17.8036 -5.2082 -20.4178 0.0000 20.1693 0.0000
# 6 0.0000 0.0000 0.0002 -5.5795 0.0000 11.8496
#
#
#
# Elastic Compliance Matrix: (Units=1/GPa)
#
#
# Indices 1 2 3 4 5 6 
#
# 1 0.031284 -0.011243 0.004711 0.000000 0.029480 0.000000
# 2 -0.011243 0.022472 -0.003595 0.000000 -0.007760 0.000000
# 3 0.004711 -0.003595 0.024884 0.000000 0.028421 0.000000
# 4 0.000000 0.000000 0.000000 0.043165 0.000000 0.020325
# 5 0.029480 -0.007760 0.028421 0.000000 0.102370 -0.000001
# 6 0.000000 0.000000 0.000000 0.020325 -0.000001 0.093961
#
#
# Mechanical properties :
#
#
# Convention : Reuss Voigt Hill
#
# Bulk Modulus (GPa) = 17.12701 29.62019 23.37360
# Shear Modulus (GPa) = 13.97231 20.04062 17.00646
#
# Velocity S-wave (km/s) = 2.80694 3.36166 3.09675
# Velocity P-wave (km/s) = 4.49032 5.63652 5.09575
#
# Compressibility (1/GPa) = 0.05838731
#
# Stress axis : x y z
#
# Youngs Moduli (GPa) = 31.96548 44.49906 40.18667
#
# Poissons Ratio (x) = 0.50028 -0.18932
# Poissons Ratio (y) = 0.35937 0.14446
# Poissons Ratio (z) = -0.15059 0.15996
#
# Static dielectric constant tensor:
#      x y z
#    x 1.605450 0.000000 -0.015820 
#    y 0.000000 1.585930 0.000000 
#    z -0.015820 0.000000 1.619600 
# 
# From -- ./inp_files/303025.got.cif
#   From: 2010.05.17/outbox.cif.g08.bks.cpg/sg15_152_cif.got.tgz:303025.got - 2010.06.03 18:47:42.
