data_PCOD9259877
_publ_section_title
;
Structure prediction by ZEFSAII (Michael W. Deem and Ramdas Pophale) SiO2 
 PCOD9259877
Probable space group: C 2/C
;
_chemical_formula_sum "Si O2"
_cell_formula_units_Z 40
_cell_length_a 13.569842
_cell_length_b 6.868153
_cell_length_c 15.631443
_cell_angle_alpha 90.000000
_cell_angle_beta 73.539251
_cell_angle_gamma 90.000000
_cell_volume 1397.136394
_symmetry_space_group_name_H-M "C 2/C"
_symmetry_group_IT_number 15
_symmetry_cell_setting 'monoclinic'
loop_
_space_group_symop_operation_xyz
x,y,z
-x,y,1/2-z
-x,-y,-z
x,-y,1/2+z
1/2+x,1/2+y,z
1/2-x,1/2+y,1/2-z
1/2-x,1/2-y,-z
1/2+x,1/2-y,1/2+z
loop_
_atom_site_type_symbol
_atom_site_label
_atom_site_fract_x
_atom_site_fract_y
_atom_site_fract_z
Si Si1 0.973677 0.798531 0.162329
Si Si2 0.297276 0.632820 0.065958
Si Si3 0.351318 0.374004 0.916711
Si Si4 0.690439 0.625598 0.258638
Si Si5 0.960662 0.620251 0.617473
O O1 0.000000 0.721648 0.250000
O O2 0.063598 0.950129 0.115447
O O3 0.873977 0.934429 0.197544
O O4 0.955606 0.609833 0.109524
O O5 0.305395 0.421047 0.020972
O O6 0.250000 0.750000 0.000000
O O7 0.241592 0.644687 0.171977
O O8 0.404185 0.744106 0.061031
O O9 0.283423 0.391715 0.847127
O O10 0.422331 0.184825 0.901958
O O11 0.609557 0.804915 0.285644
#
# Coordination Sequence:
#
# PCOD9259877 Si02
#       5
#     8   8   8   8   8
#     4   9  16  30  57  90 108 134 191 239 278 327
#     4  10  22  38  54  80 119 151 187 227 282 350
#     4  10  18  36  58  83 110 149 187 240 286 326
#     4   8  19  34  57  80 114 145 182 236 282 328
#     4   9  18  33  60  83 111 142 191 240 280 327
#
# _framework density 28.629988000000001
#
# number of rings (size 3 to 8) (size 9 to 14) (size 15 to 20)
#    1.200    1.600    0.000    3.600    0.000    0.800 
#    0.000    5.000    0.000    0.000    0.000    0.000 
#    0.000    0.000    0.000    0.000    0.000    0.000 
#
# Total GULP energy -111862.861113 kJ/mol
# GULP energy per Si atom -5593.143056 kJ/mol
# Density = 2.856482 g / cm^3
# Si number density = 28.629988 Si / 1000 Ang^3
#
#
#
# Elastic Constant Matrix: (Units=GPa)
#
#
# Indices 1 2 3 4 5 6 
#
# 1 73.8239 20.6341 50.2756 0.0000 0.0257 0.0000
# 2 20.6341 153.3569 39.1327 0.0000 -7.9997 0.0000
# 3 50.2756 39.1327 225.7025 0.0000 13.1547 0.0000
# 4 0.0000 0.0000 0.0000 49.3676 0.0000 -4.8016
# 5 0.0257 -7.9997 13.1547 0.0000 38.9914 0.0000
# 6 0.0000 0.0000 0.0000 -4.8016 0.0000 41.9119
#
#
#
# Elastic Compliance Matrix: (Units=1/GPa)
#
#
# Indices 1 2 3 4 5 6 
#
# 1 0.016249 -0.001258 -0.003454 0.000000 0.000896 0.000000
# 2 -0.001258 0.007051 -0.001047 0.000000 0.001801 0.000000
# 3 -0.003454 -0.001047 0.005502 0.000000 -0.002069 0.000000
# 4 0.000000 0.000000 0.000000 0.020484 0.000000 0.002347
# 5 0.000896 0.001801 -0.002069 0.000000 0.026714 0.000000
# 6 0.000000 0.000000 0.000000 0.002347 0.000000 0.024128
#
#
# Mechanical properties :
#
#
# Convention : Reuss Voigt Hill
#
# Bulk Modulus (GPa) = 57.85648 74.77424 66.31536
# Shear Modulus (GPa) = 42.58641 48.91023 45.74832
#
# Velocity S-wave (km/s) = 3.86096 4.13771 4.00173
# Velocity P-wave (km/s) = 6.33469 7.00012 6.67570
#
# Compressibility (1/GPa) = 0.01728415
#
# Stress axis : x y z
#
# Youngs Moduli (GPa) = 61.54193 141.81982 181.75050
#
# Poissons Ratio (x) = 0.17845 0.62769
# Poissons Ratio (y) = 0.07744 0.19033
# Poissons Ratio (z) = 0.21254 0.14852
#
# Static dielectric constant tensor:
#      x y z
#    x 2.321500 0.000000 -0.060490 
#    y 0.000000 2.251060 0.000000 
#    z -0.060490 0.000000 2.245970 
# 
# From -- ./inp_files/153125.got.cif
#   From: 2010.05.17/outbox.cif.g08.bks.cpg/sg15_77_cif.got.tgz:153125.got - 2010.06.03 18:47:42.
