data_PCOD9259835
_publ_section_title
;
Structure prediction by ZEFSAII (Michael W. Deem and Ramdas Pophale) SiO2 
 PCOD9259835
Probable space group: C 2/C
;
_chemical_formula_sum "Si O2"
_cell_formula_units_Z 52
_cell_length_a 22.561346
_cell_length_b 8.712567
_cell_length_c 18.857697
_cell_angle_alpha 90.000000
_cell_angle_beta 42.158580
_cell_angle_gamma 90.000000
_cell_volume 2487.951736
_symmetry_space_group_name_H-M "C 2/C"
_symmetry_group_IT_number 15
_symmetry_cell_setting 'monoclinic'
loop_
_space_group_symop_operation_xyz
x,y,z
-x,y,1/2-z
-x,-y,-z
x,-y,1/2+z
1/2+x,1/2+y,z
1/2-x,1/2+y,1/2-z
1/2-x,1/2-y,-z
1/2+x,1/2-y,1/2+z
loop_
_atom_site_type_symbol
_atom_site_label
_atom_site_fract_x
_atom_site_fract_y
_atom_site_fract_z
Si Si1 0.026362 0.416056 0.593760
Si Si2 0.000000 0.362951 0.250000
Si Si3 0.287965 0.211711 0.388623
Si Si4 0.210940 0.513824 0.873738
Si Si5 0.968250 0.119078 0.703053
Si Si6 0.368857 0.673365 0.271285
Si Si7 0.666245 0.015921 0.761582
O O1 0.027705 0.522488 0.662582
O O2 0.106502 0.483589 0.478100
O O3 0.035028 0.235058 0.605277
O O4 0.929055 0.434029 0.647027
O O5 0.919740 0.259130 0.290575
O O6 0.250000 0.250000 0.500000
O O7 0.240756 0.319195 0.373083
O O8 0.388443 0.269844 0.297654
O O9 0.290778 0.043507 0.350601
O O10 0.271096 0.399024 0.867337
O O11 0.225266 0.485245 0.777871
O O12 0.000000 0.056050 0.750000
O O13 0.928931 0.973467 0.696641
O O14 0.356364 0.805248 0.224579
#
# Coordination Sequence:
#
# PCOD9259835 Si02
#       7
#     8   4   8   8   8   8   8
#     4  10  21  36  64  86 124 168 215 260 332 395
#     4  10  20  38  58  94 126 166 200 272 334 378
#     4  10  22  37  61  90 119 167 223 260 319 395
#     4  11  22  39  62  93 125 170 224 264 331 401
#     4  10  18  36  57  84 123 158 201 261 327 379
#     4  10  22  37  62  88 128 166 211 273 330 375
#     4  10  22  42  60  87 133 173 210 276 334 387
#
# _framework density 20.900727
#
# number of rings (size 3 to 8) (size 9 to 14) (size 15 to 20)
#    0.000    1.846    1.538    2.308    4.308    0.615 
#    2.769    2.308    0.000    0.000    0.000    0.000 
#    0.000    0.000    0.000    0.000    0.000    0.000 
#
# Total GULP energy -144792.443871 kJ/mol
# GULP energy per Si atom -5568.940149 kJ/mol
# Density = 2.085316 g / cm^3
# Si number density = 20.900727 Si / 1000 Ang^3
#
#
#
# Elastic Constant Matrix: (Units=GPa)
#
#
# Indices 1 2 3 4 5 6 
#
# 1 101.8099 30.3062 24.1361 0.0007 10.1774 -0.0003
# 2 30.3062 108.9649 14.1716 0.0035 11.2954 -0.0026
# 3 24.1361 14.1716 57.6293 0.0012 8.6569 -0.0012
# 4 0.0007 0.0035 0.0012 13.2612 -0.0009 -0.0845
# 5 10.1774 11.2954 8.6569 -0.0009 23.4096 0.0006
# 6 -0.0003 -0.0026 -0.0012 -0.0845 0.0006 25.1222
#
#
#
# Elastic Compliance Matrix: (Units=1/GPa)
#
#
# Indices 1 2 3 4 5 6 
#
# 1 0.011744 -0.002501 -0.003937 0.000000 -0.002443 0.000000
# 2 -0.002501 0.010367 -0.000968 -0.000003 -0.003557 0.000001
# 3 -0.003937 -0.000968 0.020024 -0.000002 -0.005227 0.000001
# 4 0.000000 -0.000003 -0.000002 0.075410 0.000005 0.000254
# 5 -0.002443 -0.003557 -0.005227 0.000005 0.047429 -0.000002
# 6 0.000000 0.000001 0.000001 0.000254 -0.000002 0.039806
#
#
# Mechanical properties :
#
#
# Convention : Reuss Voigt Hill
#
# Bulk Modulus (GPa) = 36.59638 45.07021 40.83330
# Shear Modulus (GPa) = 21.86274 25.67796 23.77035
#
# Velocity S-wave (km/s) = 3.23774 3.50890 3.37604
# Velocity P-wave (km/s) = 5.61471 6.16662 5.89713
#
# Compressibility (1/GPa) = 0.02732510
#
# Stress axis : x y z
#
# Youngs Moduli (GPa) = 85.14814 96.45529 49.93995
#
# Poissons Ratio (x) = 0.24125 0.19659
# Poissons Ratio (y) = 0.21297 0.04832
# Poissons Ratio (z) = 0.33519 0.09333
#
# Static dielectric constant tensor:
#      x y z
#    x 1.833870 0.000000 -0.022650 
#    y 0.000000 1.799720 0.000000 
#    z -0.022650 0.000000 1.778860 
# 
# From -- ./inp_files/255085.got.cif
#   From: 2010.05.17/outbox.cif.g08.bks.cpg/sg15_128_cif.got.tgz:255085.got - 2010.06.03 18:47:42.
