data_PCOD9259995
_publ_section_title
;
Structure prediction by ZEFSAII (Michael W. Deem and Ramdas Pophale) SiO2 
 PCOD9259995
Probable space group: C 2/C
;
_chemical_formula_sum "Si O2"
_cell_formula_units_Z 48
_cell_length_a 18.406140
_cell_length_b 7.374000
_cell_length_c 25.445519
_cell_angle_alpha 90.000000
_cell_angle_beta 135.248281
_cell_angle_gamma 90.000000
_cell_volume 2431.487570
_symmetry_space_group_name_H-M "C 2/C"
_symmetry_group_IT_number 15
_symmetry_cell_setting 'monoclinic'
loop_
_space_group_symop_operation_xyz
x,y,z
-x,y,1/2-z
-x,-y,-z
x,-y,1/2+z
1/2+x,1/2+y,z
1/2-x,1/2+y,1/2-z
1/2-x,1/2-y,-z
1/2+x,1/2-y,1/2+z
loop_
_atom_site_type_symbol
_atom_site_label
_atom_site_fract_x
_atom_site_fract_y
_atom_site_fract_z
Si Si1 0.347920 0.104686 0.773396
Si Si2 0.788030 0.806037 0.838083
Si Si3 0.553861 0.765428 0.720629
Si Si4 0.623028 0.250170 0.817804
Si Si5 0.365246 0.434762 0.093033
Si Si6 0.257733 0.578916 0.431862
O O1 0.355784 0.182662 0.835351
O O2 0.342352 0.255963 0.725168
O O3 0.244363 0.985325 0.711558
O O4 0.437584 0.961560 0.803378
O O5 0.674185 0.716007 0.788101
O O6 0.823155 0.860804 0.914222
O O7 0.500000 0.777286 0.750000
O O8 0.484890 0.624366 0.653446
O O9 0.500000 0.238256 0.750000
O O10 0.649239 0.412990 0.870265
O O11 0.677310 0.070345 0.869084
O O12 0.304224 0.253714 0.079102
O O13 0.323870 0.491828 0.014800
#
# Coordination Sequence:
#
# PCOD9259995 Si02
#       6
#     8   8   8   8   8   8
#     4   9  20  34  58  87 121 154 204 257 299 354
#     4   9  20  34  58  80 122 153 198 250 304 344
#     4  10  18  36  60  86 121 149 209 260 285 357
#     4  11  22  35  63  91 117 153 213 249 296 353
#     4  11  21  35  61  87 120 163 193 246 315 361
#     4  10  22  38  54  88 131 152 191 258 306 355
#
# _framework density 19.741002000000002
#
# number of rings (size 3 to 8) (size 9 to 14) (size 15 to 20)
#    1.000    1.000    1.667    2.500    2.333    0.000 
#    0.000    0.833    0.000   11.000    0.000    0.000 
#    0.000    0.000    0.000    0.000    0.000    0.000 
#
# Total GULP energy -133710.439886 kJ/mol
# GULP energy per Si atom -5571.268329 kJ/mol
# Density = 1.969607 g / cm^3
# Si number density = 19.741002 Si / 1000 Ang^3
#
#
#
# Elastic Constant Matrix: (Units=GPa)
#
#
# Indices 1 2 3 4 5 6 
#
# 1 73.8367 26.9827 37.3611 0.0000 -22.7289 0.0000
# 2 26.9827 70.4581 31.7818 0.0000 -12.4350 -0.0001
# 3 37.3611 31.7818 100.0285 0.0000 -21.4804 0.0000
# 4 0.0000 0.0000 0.0000 27.3285 0.0000 -8.5381
# 5 -22.7289 -12.4350 -21.4804 0.0000 21.4906 0.0000
# 6 0.0000 -0.0001 0.0000 -8.5381 0.0000 28.3749
#
#
#
# Elastic Compliance Matrix: (Units=1/GPa)
#
#
# Indices 1 2 3 4 5 6 
#
# 1 0.022084 -0.003860 -0.003166 0.000000 0.017959 0.000000
# 2 -0.003860 0.017770 -0.003658 0.000000 0.002543 0.000000
# 3 -0.003166 -0.003658 0.014221 0.000000 0.008749 0.000000
# 4 0.000000 0.000000 0.000000 0.040389 0.000000 0.012153
# 5 0.017959 0.002543 0.008749 0.000000 0.075742 0.000000
# 6 0.000000 0.000000 0.000000 0.012153 0.000000 0.038899
#
#
# Mechanical properties :
#
#
# Convention : Reuss Voigt Hill
#
# Bulk Modulus (GPa) = 30.57404 48.50828 39.54116
# Shear Modulus (GPa) = 20.71469 25.31865 23.01667
#
# Velocity S-wave (km/s) = 3.24284 3.58514 3.41828
# Velocity P-wave (km/s) = 5.43531 6.46246 5.97101
#
# Compressibility (1/GPa) = 0.03270749
#
# Stress axis : x y z
#
# Youngs Moduli (GPa) = 45.28188 56.27465 70.32040
#
# Poissons Ratio (x) = 0.21721 0.22260
# Poissons Ratio (y) = 0.17478 0.25724
# Poissons Ratio (z) = 0.14334 0.20586
#
# Static dielectric constant tensor:
#      x y z
#    x 1.712360 0.000000 -0.002190 
#    y 0.000000 1.759470 0.000000 
#    z -0.002190 0.000000 1.708670 
# 
# From -- ./inp_files/276395.got.cif
#   From: 2010.05.17/outbox.cif.g08.bks.cpg/sg15_139_cif.got.tgz:276395.got - 2010.06.03 18:47:42.
