data_PCOD9259790
_publ_section_title
;
Structure prediction by ZEFSAII (Michael W. Deem and Ramdas Pophale) SiO2 
 PCOD9259790
Probable space group: C 2/C
;
_chemical_formula_sum "Si O2"
_cell_formula_units_Z 36
_cell_length_a 27.108804
_cell_length_b 15.612155
_cell_length_c 25.763801
_cell_angle_alpha 90.000000
_cell_angle_beta 169.543666
_cell_angle_gamma 90.000000
_cell_volume 1978.912361
_symmetry_space_group_name_H-M "C 2/C"
_symmetry_group_IT_number 15
_symmetry_cell_setting 'monoclinic'
loop_
_space_group_symop_operation_xyz
x,y,z
-x,y,1/2-z
-x,-y,-z
x,-y,1/2+z
1/2+x,1/2+y,z
1/2-x,1/2+y,1/2-z
1/2-x,1/2-y,-z
1/2+x,1/2-y,1/2+z
loop_
_atom_site_type_symbol
_atom_site_label
_atom_site_fract_x
_atom_site_fract_y
_atom_site_fract_z
Si Si1 0.684097 0.053201 0.231433
Si Si2 0.738359 0.019900 0.137206
Si Si3 0.801592 0.023885 0.585942
Si Si4 0.194520 0.311185 0.657575
Si Si5 0.000000 0.812906 0.250000
O O1 0.726784 0.143304 0.247175
O O2 0.974428 0.009580 0.541153
O O3 0.500000 0.000000 0.000000
O O4 0.499360 0.046210 0.091627
O O5 0.772694 0.019854 0.111226
O O6 0.665173 0.111948 0.085760
O O7 0.000000 0.976981 0.750000
O O8 0.500000 0.037158 0.250000
O O9 0.957158 0.116249 0.751560
O O10 0.945136 0.247437 0.402188
O O11 0.250000 0.750000 0.500000
#
# Coordination Sequence:
#
# PCOD9259790 Si02
#       5
#     8   8   8   8   4
#     4  10  20  36  57  82 112 151 188 229 279 344
#     4  11  21  38  61  82 111 156 196 225 279 350
#     4  10  21  36  59  84 109 153 194 228 275 339
#     4  11  21  36  57  84 116 146 183 237 288 331
#     4  10  18  36  56  78 108 140 180 236 288 314
#
# _framework density 18.191811000000001
#
# number of rings (size 3 to 8) (size 9 to 14) (size 15 to 20)
#    0.667    0.889    1.111    8.000    0.000    0.000 
#    0.000    6.667    0.000    4.000    0.000    0.000 
#    0.000    0.000    0.000    0.000    0.000    0.000 
#
# Total GULP energy -100209.656624 kJ/mol
# GULP energy per Si atom -5567.203146 kJ/mol
# Density = 1.815041 g / cm^3
# Si number density = 18.191811 Si / 1000 Ang^3
#
#
#
# Elastic Constant Matrix: (Units=GPa)
#
#
# Indices 1 2 3 4 5 6 
#
# 1 124.8403 58.6513 44.5676 -0.0116 32.0381 -0.0065
# 2 58.6513 97.6264 50.5788 0.0807 13.9714 0.0186
# 3 44.5676 50.5788 145.9102 0.1498 29.5367 -0.0151
# 4 -0.0116 0.0807 0.1498 24.1954 -0.0316 5.8696
# 5 32.0381 13.9714 29.5367 -0.0316 35.2705 0.0689
# 6 -0.0065 0.0186 -0.0151 5.8696 0.0689 20.8597
#
#
#
# Elastic Compliance Matrix: (Units=1/GPa)
#
#
# Indices 1 2 3 4 5 6 
#
# 1 0.013741 -0.006950 0.000218 0.000005 -0.009912 0.000042
# 2 -0.006950 0.016075 -0.004140 -0.000021 0.003413 -0.000025
# 3 0.000218 -0.004140 0.009549 -0.000066 -0.006555 0.000051
# 4 0.000005 -0.000021 -0.000066 0.044359 0.000123 -0.012482
# 5 -0.009912 0.003413 -0.006555 0.000123 0.041494 -0.000182
# 6 0.000042 -0.000025 0.000051 -0.012482 -0.000182 0.051452
#
#
# Mechanical properties :
#
#
# Convention : Reuss Voigt Hill
#
# Bulk Modulus (GPa) = 56.74832 75.10805 65.92818
# Shear Modulus (GPa) = 24.47523 30.37040 27.42281
#
# Velocity S-wave (km/s) = 3.67195 4.09033 3.88677
# Velocity P-wave (km/s) = 7.01710 7.98023 7.51411
#
# Compressibility (1/GPa) = 0.01762167
#
# Stress axis : x y z
#
# Youngs Moduli (GPa) = 72.77425 62.20768 104.72230
#
# Poissons Ratio (x) = 0.43234 -0.02288
# Poissons Ratio (y) = 0.50578 0.43358
# Poissons Ratio (z) = -0.01590 0.25756
#
# Static dielectric constant tensor:
#      x y z
#    x 1.632420 0.000390 0.011360 
#    y 0.000390 1.626670 -0.000070 
#    z 0.011360 -0.000070 1.635490 
# 
# From -- ./inp_files/303380.got.cif
#   From: 2010.05.17/outbox.cif.g08.bks.cpg/sg15_152_cif.got.tgz:303380.got - 2010.06.03 18:47:42.
