data_PCOD9259758
_publ_section_title
;
Structure prediction by ZEFSAII (Michael W. Deem and Ramdas Pophale) SiO2 
 PCOD9259758
Probable space group: C 2/C
;
_chemical_formula_sum "Si O2"
_cell_formula_units_Z 52
_cell_length_a 8.889410
_cell_length_b 21.537041
_cell_length_c 11.942064
_cell_angle_alpha 90.000000
_cell_angle_beta 82.799084
_cell_angle_gamma 90.000000
_cell_volume 2268.294159
_symmetry_space_group_name_H-M "C 2/C"
_symmetry_group_IT_number 15
_symmetry_cell_setting 'monoclinic'
loop_
_space_group_symop_operation_xyz
x,y,z
-x,y,1/2-z
-x,-y,-z
x,-y,1/2+z
1/2+x,1/2+y,z
1/2-x,1/2+y,1/2-z
1/2-x,1/2-y,-z
1/2+x,1/2-y,1/2+z
loop_
_atom_site_type_symbol
_atom_site_label
_atom_site_fract_x
_atom_site_fract_y
_atom_site_fract_z
Si Si1 0.000000 0.349491 0.750000
Si Si2 0.791274 0.117657 0.858869
Si Si3 0.777066 0.756895 0.676203
Si Si4 0.645509 0.957674 0.172958
Si Si5 0.496967 0.893931 0.510298
Si Si6 0.901729 0.262680 0.414541
Si Si7 0.967843 0.989640 0.133295
O O1 0.143868 0.307242 0.698488
O O2 0.040545 0.387599 0.857072
O O3 0.798067 0.192228 0.859098
O O4 0.708377 0.097975 0.748719
O O5 0.943016 0.077075 0.858772
O O6 0.673182 0.097111 0.965745
O O7 0.841176 0.743223 0.794256
O O8 0.934264 0.773321 0.594833
O O9 0.500000 0.981679 0.250000
O O10 0.788928 0.999340 0.153450
O O11 0.599587 0.942219 0.051318
O O12 0.454322 0.830183 0.450053
O O13 0.750000 0.250000 0.500000
O O14 0.000000 0.023154 0.250000
O O15 0.000000 0.000000 0.000000
#
# Coordination Sequence:
#
# PCOD9259758 Si02
#       7
#     4   8   8   8   8   8   8
#     4  12  24  34  48  90 130 166 212 258 296 352
#     4   9  19  37  63  86 115 156 205 254 298 363
#     4  10  21  33  55  85 112 158 219 253 297 345
#     4   9  18  38  66  90 113 161 203 244 298 369
#     4  10  20  37  53  82 124 160 205 248 301 353
#     4  10  18  36  54  75 111 160 211 263 292 338
#     4  10  22  43  69 100 123 152 203 258 320 396
#
# _framework density 22.924717000000001
#
# number of rings (size 3 to 8) (size 9 to 14) (size 15 to 20)
#    0.000    2.154    3.077    0.000    3.231    2.462 
#    5.538    6.923    0.000    0.000    0.000    0.000 
#    0.000    0.000    0.000    0.000    0.000    0.000 
#
# Total GULP energy -144742.868912 kJ/mol
# GULP energy per Si atom -5567.033420 kJ/mol
# Density = 2.287254 g / cm^3
# Si number density = 22.924717 Si / 1000 Ang^3
#
#
#
# Elastic Constant Matrix: (Units=GPa)
#
#
# Indices 1 2 3 4 5 6 
#
# 1 152.7819 32.0934 69.0502 0.0000 -10.4647 0.0000
# 2 32.0934 28.0408 30.5949 0.0000 17.0162 0.0000
# 3 69.0502 30.5949 171.4090 0.0000 18.6156 0.0000
# 4 0.0000 0.0000 0.0000 12.3228 0.0000 1.8044
# 5 -10.4647 17.0162 18.6156 0.0000 33.1976 0.0000
# 6 0.0000 0.0000 0.0000 1.8044 0.0000 -1.9692
#
#
#
# Elastic Compliance Matrix: (Units=1/GPa)
#
#
# Indices 1 2 3 4 5 6 
#
# 1 0.014613 -0.024399 -0.003610 0.000000 0.019137 0.000000
# 2 -0.024399 0.101106 -0.001868 0.000000 -0.058468 0.000000
# 3 -0.003610 -0.001868 0.008137 0.000000 -0.004743 0.000000
# 4 0.000000 0.000000 0.000000 0.071551 0.000000 0.065560
# 5 0.019137 -0.058468 -0.004743 0.000000 0.068784 0.000000
# 6 0.000000 0.000000 0.000000 0.065560 0.000000 -0.447737
#
#
# Mechanical properties :
#
#
# Convention : Reuss Voigt Hill
#
# Bulk Modulus (GPa) = 15.60013 68.41207 42.00610
# Shear Modulus (GPa) = -48.81548 23.40979 -12.70284
#
# Velocity S-wave (km/s) = -4.61953 3.19903 -2.35651
# Velocity P-wave (km/s) = 4.65120 6.59938 3.31045
#
# Compressibility (1/GPa) = 0.06410203
#
# Stress axis : x y z
#
# Youngs Moduli (GPa) = 68.43316 9.89064 122.89925
#
# Poissons Ratio (x) = 0.24132 0.44366
# Poissons Ratio (y) = 1.66969 0.22955
# Poissons Ratio (z) = 0.24704 0.01847
#
# Static dielectric constant tensor:
#      x y z
#    x 1.863180 0.000000 -0.047400 
#    y 0.000000 1.917130 0.000000 
#    z -0.047400 0.000000 1.863120 
# 
# From -- ./inp_files/80700.got.cif
#   From: 2010.05.17/outbox.cif.g08.bks.cpg/sg15_41_cif.got.tgz:80700.got - 2010.06.03 18:47:42.
