data_PCOD9259973
_publ_section_title
;
Structure prediction by ZEFSAII (Michael W. Deem and Ramdas Pophale) SiO2 
 PCOD9259973
Probable space group: C 2/C
;
_chemical_formula_sum "Si O2"
_cell_formula_units_Z 64
_cell_length_a 27.734483
_cell_length_b 11.374194
_cell_length_c 16.574737
_cell_angle_alpha 90.000000
_cell_angle_beta 144.295304
_cell_angle_gamma 90.000000
_cell_volume 3051.465161
_symmetry_space_group_name_H-M "C 2/C"
_symmetry_group_IT_number 15
_symmetry_cell_setting 'monoclinic'
loop_
_space_group_symop_operation_xyz
x,y,z
-x,y,1/2-z
-x,-y,-z
x,-y,1/2+z
1/2+x,1/2+y,z
1/2-x,1/2+y,1/2-z
1/2-x,1/2-y,-z
1/2+x,1/2-y,1/2+z
loop_
_atom_site_type_symbol
_atom_site_label
_atom_site_fract_x
_atom_site_fract_y
_atom_site_fract_z
Si Si1 0.684186 0.685339 0.597396
Si Si2 0.877477 0.742605 0.818944
Si Si3 0.956964 0.561691 0.040998
Si Si4 0.352342 0.073520 0.157552
Si Si5 0.834760 0.687555 0.589744
Si Si6 0.668586 0.881310 0.689938
Si Si7 0.595482 0.234019 0.400839
Si Si8 0.156503 0.930871 0.607216
O O1 0.784471 0.690542 0.715469
O O2 0.645149 0.761629 0.471093
O O3 0.668823 0.747852 0.662057
O O4 0.642447 0.558484 0.550320
O O5 0.942232 0.662850 0.954751
O O6 0.891084 0.726469 0.742272
O O7 0.880570 0.873607 0.861357
O O8 0.913484 0.446913 0.948641
O O9 0.911208 0.614081 0.056659
O O10 0.051151 0.548522 0.192804
O O11 0.313926 0.094997 0.192900
O O12 0.352656 0.192255 0.105638
O O13 0.321820 0.952984 0.075458
O O14 0.750000 0.750000 0.500000
O O15 0.745257 0.933862 0.744624
O O16 0.500000 0.265734 0.250000
O O17 0.634448 0.333904 0.509341
#
# Coordination Sequence:
#
# PCOD9259973 Si02
#       8
#     8   8   8   8   8   8   8   8
#     4  10  20  35  54  82 114 147 186 233 279 339
#     4   9  18  34  59  79 105 151 186 230 285 333
#     4  10  18  36  60  82 112 141 189 240 280 327
#     4  11  21  35  59  86 114 143 188 240 279 328
#     4  10  19  35  53  82 114 146 183 229 286 336
#     4  11  20  33  55  87 114 138 187 236 282 331
#     4   9  21  38  59  81 108 152 188 225 283 333
#     4  10  20  38  56  78 116 150 184 228 282 339
#
# _framework density 20.973531999999999
#
# number of rings (size 3 to 8) (size 9 to 14) (size 15 to 20)
#    0.000    2.000    2.500    1.875    0.000    0.500 
#    2.250    1.250    0.000    2.250    0.000    0.000 
#    0.000    0.000    0.000    0.000    0.000    0.000 
#
# Total GULP energy -178386.386243 kJ/mol
# GULP energy per Si atom -5574.574570 kJ/mol
# Density = 2.092580 g / cm^3
# Si number density = 20.973532 Si / 1000 Ang^3
#
#
#
# Elastic Constant Matrix: (Units=GPa)
#
#
# Indices 1 2 3 4 5 6 
#
# 1 40.6338 31.9763 -3.2508 0.0000 -10.8163 0.0000
# 2 31.9763 101.7214 8.9816 0.0000 -8.2962 0.0000
# 3 -3.2508 8.9816 43.4877 0.0000 -9.9276 0.0000
# 4 0.0000 0.0000 0.0000 28.5868 0.0000 -12.3594
# 5 -10.8163 -8.2962 -9.9276 0.0000 22.1905 0.0000
# 6 0.0000 0.0000 0.0000 -12.3594 0.0000 22.3455
#
#
#
# Elastic Compliance Matrix: (Units=1/GPa)
#
#
# Indices 1 2 3 4 5 6 
#
# 1 0.039870 -0.011819 0.009856 0.000000 0.019424 0.000000
# 2 -0.011819 0.013717 -0.004300 0.000000 -0.002557 0.000000
# 3 0.009856 -0.004300 0.028233 0.000000 0.015827 0.000000
# 4 0.000000 0.000000 0.000000 0.045975 0.000000 0.025429
# 5 0.019424 -0.002557 0.015827 0.000000 0.060657 0.000000
# 6 0.000000 0.000000 0.000000 0.025429 0.000000 0.058817
#
#
# Mechanical properties :
#
#
# Convention : Reuss Voigt Hill
#
# Bulk Modulus (GPa) = 14.43144 29.02858 21.73001
# Shear Modulus (GPa) = 17.67438 24.50028 21.08733
#
# Velocity S-wave (km/s) = 2.90608 3.42153 3.17429
# Velocity P-wave (km/s) = 4.26100 5.42953 4.88036
#
# Compressibility (1/GPa) = 0.06929316
#
# Stress axis : x y z
#
# Youngs Moduli (GPa) = 25.08141 72.90028 35.41950
#
# Poissons Ratio (x) = 0.86163 -0.34909
# Poissons Ratio (y) = 0.29644 0.15231
# Poissons Ratio (z) = -0.24720 0.31349
#
# Static dielectric constant tensor:
#      x y z
#    x 1.829490 0.000000 -0.044680 
#    y 0.000000 1.782360 0.000000 
#    z -0.044680 0.000000 1.811850 
# 
# From -- ./inp_files/225189.got.cif
#   From: 2010.05.17/outbox.cif.g08.bks.cpg/sg15_113_cif.got.tgz:225189.got - 2010.06.03 18:47:42.
