data_PCOD9259363
_publ_section_title
;
Structure prediction by ZEFSAII (Michael W. Deem and Ramdas Pophale) SiO2 
 PCOD9259363
Probable space group: C 2/C
;
_chemical_formula_sum "Si O2"
_cell_formula_units_Z 64
_cell_length_a 31.159545
_cell_length_b 16.884230
_cell_length_c 11.468128
_cell_angle_alpha 90.000000
_cell_angle_beta 28.241023
_cell_angle_gamma 90.000000
_cell_volume 2854.912409
_symmetry_space_group_name_H-M "C 2/C"
_symmetry_group_IT_number 15
_symmetry_cell_setting 'monoclinic'
loop_
_space_group_symop_operation_xyz
x,y,z
-x,y,1/2-z
-x,-y,-z
x,-y,1/2+z
1/2+x,1/2+y,z
1/2-x,1/2+y,1/2-z
1/2-x,1/2-y,-z
1/2+x,1/2-y,1/2+z
loop_
_atom_site_type_symbol
_atom_site_label
_atom_site_fract_x
_atom_site_fract_y
_atom_site_fract_z
Si Si1 0.909239 0.949427 0.907794
Si Si2 0.739255 0.498809 0.543164
Si Si3 0.873355 0.090782 0.868075
Si Si4 0.407683 0.094776 0.233012
Si Si5 0.625167 0.719926 0.057027
Si Si6 0.415940 0.739235 0.609278
Si Si7 0.931974 0.546913 0.808031
Si Si8 0.734151 0.855355 0.878302
O O1 0.870341 0.873891 0.933831
O O2 0.000000 0.916742 0.750000
O O3 0.941512 0.026844 0.759591
O O4 0.832792 0.976061 0.183064
O O5 0.696291 0.530466 0.527931
O O6 0.832797 0.545577 0.339708
O O7 0.757205 0.406227 0.524541
O O8 0.903441 0.155980 0.704340
O O9 0.826632 0.137483 0.085395
O O10 0.387146 0.186701 0.259441
O O11 0.407681 0.046333 0.354418
O O12 0.508312 0.077579 0.943948
O O13 0.523051 0.748026 0.329148
O O14 0.635894 0.736706 0.891458
O O15 0.695492 0.767601 0.967452
O O16 0.000000 0.562287 0.750000
O O17 0.840616 0.596735 0.020372
#
# Coordination Sequence:
#
# PCOD9259363 Si02
#       8
#     8   8   8   8   8   8   8   8
#     4  11  23  41  61  86 115 157 201 249 297 347
#     4  10  21  39  56  88 118 154 195 241 298 355
#     4  11  23  39  63  86 118 157 201 247 294 352
#     4  10  21  32  57  88 119 154 201 237 294 356
#     4  11  20  37  58  87 117 147 193 250 293 340
#     4  11  21  35  59  89 114 154 202 244 291 342
#     4  10  18  35  55  82 123 165 189 235 294 361
#     4  10  22  35  59  89 122 150 194 249 295 348
#
# _framework density 22.4175
#
# number of rings (size 3 to 8) (size 9 to 14) (size 15 to 20)
#    0.000    1.500    3.750    2.250    1.750    3.000 
#    0.000    1.250    0.000    0.000    0.000    0.000 
#    0.000    0.000    0.000    0.000    0.000    0.000 
#
# Total GULP energy -178598.970755 kJ/mol
# GULP energy per Si atom -5581.217836 kJ/mol
# Density = 2.236648 g / cm^3
# Si number density = 22.417500 Si / 1000 Ang^3
#
#
#
# Elastic Constant Matrix: (Units=GPa)
#
#
# Indices 1 2 3 4 5 6 
#
# 1 13.0433 9.9488 -13.0813 0.0000 -7.7076 0.0000
# 2 9.9488 155.9344 12.0936 0.0000 0.6060 0.0000
# 3 -13.0813 12.0936 41.6162 0.0000 2.4271 0.0000
# 4 0.0000 0.0000 0.0000 23.0249 0.0000 -4.9861
# 5 -7.7076 0.6060 2.4271 0.0000 11.4140 0.0000
# 6 0.0000 0.0000 0.0000 -4.9861 0.0000 36.7417
#
#
#
# Elastic Compliance Matrix: (Units=1/GPa)
#
#
# Indices 1 2 3 4 5 6 
#
# 1 0.292091 -0.026233 0.088955 0.000000 0.179718 0.000000
# 2 -0.026233 0.008917 -0.009899 0.000000 -0.016083 0.000000
# 3 0.088955 -0.009899 0.051978 0.000000 0.049542 0.000000
# 4 0.000000 0.000000 0.000000 0.044746 0.000000 0.006072
# 5 0.179718 -0.016083 0.049542 0.000000 0.199290 0.000000
# 6 0.000000 0.000000 0.000000 0.006072 0.000000 0.028041
#
#
# Mechanical properties :
#
#
# Convention : Reuss Voigt Hill
#
# Bulk Modulus (GPa) = 2.18040 25.39068 13.78554
# Shear Modulus (GPa) = 7.43722 27.67831 17.55777
#
# Velocity S-wave (km/s) = 1.82340 3.51760 2.80164
# Velocity P-wave (km/s) = 2.32547 5.27721 4.07779
#
# Compressibility (1/GPa) = 0.45863139
#
# Stress axis : x y z
#
# Youngs Moduli (GPa) = 3.42359 112.14663 19.23896
#
# Poissons Ratio (x) = 2.94196 -1.71141
# Poissons Ratio (y) = 0.08981 0.19045
# Poissons Ratio (z) = -0.30455 1.11016
#
# Static dielectric constant tensor:
#      x y z
#    x 1.856320 0.000000 0.030290 
#    y 0.000000 1.872240 0.000000 
#    z 0.030290 0.000000 1.831010 
# 
# From -- ./inp_files/127290.got.cif
#   From: 2010.05.17/outbox.cif.g08.bks.cpg/sg15_64_cif.got.tgz:127290.got - 2010.06.03 18:47:42.
