data_PCOD9259626
_publ_section_title
;
Structure prediction by ZEFSAII (Michael W. Deem and Ramdas Pophale) SiO2 
 PCOD9259626
Probable space group: C 2/C
;
_chemical_formula_sum "Si O2"
_cell_formula_units_Z 44
_cell_length_a 7.839124
_cell_length_b 28.771000
_cell_length_c 8.684279
_cell_angle_alpha 90.000000
_cell_angle_beta 106.367936
_cell_angle_gamma 90.000000
_cell_volume 1879.266996
_symmetry_space_group_name_H-M "C 2/C"
_symmetry_group_IT_number 15
_symmetry_cell_setting 'monoclinic'
loop_
_space_group_symop_operation_xyz
x,y,z
-x,y,1/2-z
-x,-y,-z
x,-y,1/2+z
1/2+x,1/2+y,z
1/2-x,1/2+y,1/2-z
1/2-x,1/2-y,-z
1/2+x,1/2-y,1/2+z
loop_
_atom_site_type_symbol
_atom_site_label
_atom_site_fract_x
_atom_site_fract_y
_atom_site_fract_z
Si Si1 0.787953 0.376444 0.201949
Si Si2 0.357956 0.711518 0.940017
Si Si3 0.303690 0.972648 0.279728
Si Si4 0.301732 0.063596 0.134297
Si Si5 0.276797 0.336430 0.977785
Si Si6 0.000000 0.724806 0.250000
O O1 0.734424 0.338127 0.066669
O O2 0.712351 0.428428 0.173766
O O3 0.724105 0.354021 0.346280
O O4 0.000000 0.380428 0.250000
O O5 0.358305 0.738532 0.777739
O O6 0.250000 0.750000 0.000000
O O7 0.562117 0.697959 0.022456
O O8 0.500000 0.976032 0.250000
O O9 0.314479 0.957645 0.462179
O O10 0.221981 0.022652 0.220747
O O11 0.500000 0.072674 0.250000
O O12 0.212038 0.114160 0.108344
O O13 0.095927 0.308912 0.895040
#
# Coordination Sequence:
#
# PCOD9259626 Si02
#       6
#     8   8   8   8   8   4
#     4  10  21  40  64  94 128 173 222 267 329 395
#     4  12  26  42  66  91 131 171 222 272 336 397
#     4   9  18  32  60  92 129 170 217 264 327 390
#     4  10  18  35  61  93 131 170 217 269 326 393
#     4  11  23  42  63  96 127 174 215 278 331 391
#     4  12  24  42  68  88 130 160 226 270 332 398
#
# _framework density 23.413383
#
# number of rings (size 3 to 8) (size 9 to 14) (size 15 to 20)
#    0.000    1.455    2.727    3.818    2.545    0.000 
#    3.273    0.909    0.000    0.000    0.000    0.000 
#    0.000    0.000    0.000    0.000    0.000    0.000 
#
# Total GULP energy -122625.920943 kJ/mol
# GULP energy per Si atom -5573.905497 kJ/mol
# Density = 2.336009 g / cm^3
# Si number density = 23.413383 Si / 1000 Ang^3
#
#
#
# Elastic Constant Matrix: (Units=GPa)
#
#
# Indices 1 2 3 4 5 6 
#
# 1 53.4838 31.3841 10.1819 0.0000 -0.7199 0.0000
# 2 31.3841 206.1869 38.7148 0.0000 11.0824 0.0000
# 3 10.1819 38.7148 33.3695 0.0000 -3.4142 0.0000
# 4 0.0000 0.0000 0.0000 40.1505 0.0000 -3.1961
# 5 -0.7199 11.0824 -3.4142 0.0000 19.8278 0.0000
# 6 0.0000 0.0000 0.0000 -3.1961 0.0000 -18.8557
#
#
#
# Elastic Compliance Matrix: (Units=1/GPa)
#
#
# Indices 1 2 3 4 5 6 
#
# 1 0.020887 -0.002697 -0.003067 0.000000 0.001738 0.000000
# 2 -0.002697 0.007030 -0.007885 0.000000 -0.005385 0.000000
# 3 -0.003067 -0.007885 0.041216 0.000000 0.011393 0.000000
# 4 0.000000 0.000000 0.000000 0.024575 0.000000 -0.004165
# 5 0.001738 -0.005385 0.011393 0.000000 0.055469 0.000000
# 6 0.000000 0.000000 0.000000 -0.004165 0.000000 -0.052328
#
#
# Mechanical properties :
#
#
# Convention : Reuss Voigt Hill
#
# Bulk Modulus (GPa) = 23.90188 50.40019 37.15104
# Shear Modulus (GPa) = 36.20802 22.40848 29.30825
#
# Velocity S-wave (km/s) = 3.93678 3.09703 3.54188
# Velocity P-wave (km/s) = 5.55834 5.86189 5.71213
#
# Compressibility (1/GPa) = 0.04183771
#
# Stress axis : x y z
#
# Youngs Moduli (GPa) = 47.87690 142.24022 24.26221
#
# Poissons Ratio (x) = 0.38360 0.07440
# Poissons Ratio (y) = 0.12912 0.19130
# Poissons Ratio (z) = 0.14682 1.12151
#
# Static dielectric constant tensor:
#      x y z
#    x 1.967330 0.000000 0.059720 
#    y 0.000000 1.935350 0.000000 
#    z 0.059720 0.000000 2.006170 
# 
# From -- ./inp_files/25710.got.cif
#   From: 2010.05.17/outbox.cif.g08.bks.cpg/sg15_13_cif.got.tgz:25710.got - 2010.06.03 18:47:42.
