data_PCOD9259321
_publ_section_title
;
Structure prediction by ZEFSAII (Michael W. Deem and Ramdas Pophale) SiO2 
 PCOD9259321
Probable space group: C 2/C
;
_chemical_formula_sum "Si O2"
_cell_formula_units_Z 60
_cell_length_a 5.511590
_cell_length_b 18.707330
_cell_length_c 28.659704
_cell_angle_alpha 90.000000
_cell_angle_beta 93.910006
_cell_angle_gamma 90.000000
_cell_volume 2948.141764
_symmetry_space_group_name_H-M "C 2/C"
_symmetry_group_IT_number 15
_symmetry_cell_setting 'monoclinic'
loop_
_space_group_symop_operation_xyz
x,y,z
-x,y,1/2-z
-x,-y,-z
x,-y,1/2+z
1/2+x,1/2+y,z
1/2-x,1/2+y,1/2-z
1/2-x,1/2-y,-z
1/2+x,1/2-y,1/2+z
loop_
_atom_site_type_symbol
_atom_site_label
_atom_site_fract_x
_atom_site_fract_y
_atom_site_fract_z
Si Si1 0.293867 0.317696 0.395621
Si Si2 0.194774 0.397127 0.078505
Si Si3 0.500000 0.655366 0.250000
Si Si4 0.036028 0.457681 0.603096
Si Si5 0.615385 0.665162 0.423475
Si Si6 0.100404 0.238633 0.702997
Si Si7 0.170451 0.935567 0.518860
Si Si8 0.743163 0.135328 0.334445
O O1 0.552268 0.353703 0.412739
O O2 0.245726 0.241426 0.420510
O O3 0.309981 0.307246 0.339630
O O4 0.049357 0.359962 0.406005
O O5 0.201136 0.472530 0.105885
O O6 0.166490 0.415220 0.023320
O O7 0.688979 0.707562 0.278030
O O8 0.373853 0.611420 0.289043
O O9 0.809951 0.467446 0.565263
O O10 0.936304 0.425719 0.649663
O O11 0.181347 0.393870 0.581328
O O12 0.468204 0.636805 0.466489
O O13 0.429788 0.655867 0.377757
O O14 0.000000 0.204150 0.750000
O O15 0.895025 0.291460 0.679805
O O16 0.000000 0.000000 0.500000
#
# Coordination Sequence:
#
# PCOD9259321 Si02
#       8
#     8   8   4   8   8   8   8   8
#     4  12  26  45  64 105 142 172 225 287 350 397
#     4  12  28  43  67  98 143 185 222 280 345 410
#     4  10  18  34  70 104 126 160 234 282 330 402
#     4  11  23  42  70  93 132 181 233 279 339 403
#     4  11  23  40  71  92 138 175 228 286 330 401
#     4  10  21  38  69  98 130 176 223 273 330 419
#     4  11  24  44  69  96 130 185 242 275 333 415
#     4  10  19  37  66 104 127 166 230 285 337 387
#
# _framework density 20.351804000000001
#
# number of rings (size 3 to 8) (size 9 to 14) (size 15 to 20)
#    0.000    1.067    4.000    2.000    7.467    1.067 
#    0.000    0.000    1.467    1.600    0.000    0.000 
#    0.000    0.000    0.000    0.000    0.000    0.000 
#
# Total GULP energy -167478.607083 kJ/mol
# GULP energy per Si atom -5582.620236 kJ/mol
# Density = 2.030548 g / cm^3
# Si number density = 20.351804 Si / 1000 Ang^3
#
#
#
# Elastic Constant Matrix: (Units=GPa)
#
#
# Indices 1 2 3 4 5 6 
#
# 1 94.7431 38.2650 22.9126 0.0000 -22.6430 0.0000
# 2 38.2650 104.1565 7.5205 0.0000 -17.8527 0.0000
# 3 22.9126 7.5205 102.3028 0.0000 -42.4077 0.0000
# 4 0.0000 0.0000 0.0000 23.7779 0.0000 1.1583
# 5 -22.6430 -17.8527 -42.4077 0.0000 61.2439 0.0000
# 6 0.0000 0.0000 0.0000 1.1583 0.0000 385.8191
#
#
#
# Elastic Compliance Matrix: (Units=1/GPa)
#
#
# Indices 1 2 3 4 5 6 
#
# 1 0.013302 -0.004335 -0.001607 0.000000 0.002541 0.000000
# 2 -0.004335 0.011552 0.001197 0.000000 0.002593 0.000000
# 3 -0.001607 0.001197 0.013949 0.000000 0.009414 0.000000
# 4 0.000000 0.000000 0.000000 0.042062 0.000000 -0.000126
# 5 0.002541 0.002593 0.009414 0.000000 0.024542 0.000000
# 6 0.000000 0.000000 0.000000 -0.000126 0.000000 0.002592
#
#
# Mechanical properties :
#
#
# Convention : Reuss Voigt Hill
#
# Bulk Modulus (GPa) = 34.11610 48.73318 41.42464
# Shear Modulus (GPa) = 39.28954 109.66846 74.47900
#
# Velocity S-wave (km/s) = 4.39853 7.34870 6.05601
# Velocity P-wave (km/s) = 6.52654 9.79805 8.32459
#
# Compressibility (1/GPa) = 0.02931168
#
# Stress axis : x y z
#
# Youngs Moduli (GPa) = 75.17789 86.56760 71.68932
#
# Poissons Ratio (x) = 0.37529 0.11520
# Poissons Ratio (y) = 0.32591 -0.08579
# Poissons Ratio (z) = 0.12081 -0.10360
#
# Static dielectric constant tensor:
#      x y z
#    x 1.738560 0.000000 0.073560 
#    y 0.000000 1.722850 0.000000 
#    z 0.073560 0.000000 0.105670 
# 
# From -- ./inp_files/305683.got.cif
#   From: 2010.05.17/outbox.cif.g08.bks.cpg/sg15_153_cif.got.tgz:305683.got - 2010.06.03 18:47:42.
