data_PCOD9259689
_publ_section_title
;
Structure prediction by ZEFSAII (Michael W. Deem and Ramdas Pophale) SiO2 
 PCOD9259689
Probable space group: C 2/C
;
_chemical_formula_sum "Si O2"
_cell_formula_units_Z 52
_cell_length_a 22.748680
_cell_length_b 17.024391
_cell_length_c 9.400486
_cell_angle_alpha 90.000000
_cell_angle_beta 38.399017
_cell_angle_gamma 90.000000
_cell_volume 2261.328365
_symmetry_space_group_name_H-M "C 2/C"
_symmetry_group_IT_number 15
_symmetry_cell_setting 'monoclinic'
loop_
_space_group_symop_operation_xyz
x,y,z
-x,y,1/2-z
-x,-y,-z
x,-y,1/2+z
1/2+x,1/2+y,z
1/2-x,1/2+y,1/2-z
1/2-x,1/2-y,-z
1/2+x,1/2-y,1/2+z
loop_
_atom_site_type_symbol
_atom_site_label
_atom_site_fract_x
_atom_site_fract_y
_atom_site_fract_z
Si Si1 0.865771 0.970175 0.335917
Si Si2 0.625958 0.077137 0.021077
Si Si3 0.853390 0.097525 0.565705
Si Si4 0.500000 0.643952 0.750000
Si Si5 0.382626 0.232033 0.629755
Si Si6 0.333517 0.227712 0.047255
Si Si7 0.645289 0.927172 0.806796
O O1 0.892882 0.952519 0.122463
O O2 0.754775 0.951323 0.568919
O O3 0.921239 0.910363 0.329908
O O4 0.881964 0.057908 0.362817
O O5 0.740223 0.087166 0.794199
O O6 0.591435 0.152528 0.000851
O O7 0.603738 0.995718 0.984530
O O8 0.600435 0.077323 0.235509
O O9 0.872370 0.189845 0.534583
O O10 0.544489 0.700167 0.546630
O O11 0.279379 0.260391 0.766628
O O12 0.374972 0.215404 0.811361
O O13 0.353917 0.155315 0.111992
#
# Coordination Sequence:
#
# PCOD9259689 Si02
#       7
#     8   8   8   4   8   8   8
#     4  10  22  37  56  86 126 163 197 237 305 363
#     4   9  19  33  61  90 119 153 195 258 299 343
#     4   9  21  36  58  86 119 158 203 249 292 345
#     4  12  24  38  60  84 128 168 192 242 294 378
#     4  10  22  37  58  88 121 159 202 242 302 352
#     4  10  20  37  63  88 117 152 208 259 290 343
#     4  10  18  35  63  93 118 147 206 256 303 343
#
# _framework density 22.995334
#
# number of rings (size 3 to 8) (size 9 to 14) (size 15 to 20)
#    0.000    2.154    1.538    0.923    4.308    6.154 
#    0.000    0.000    0.000    3.692    0.000    0.000 
#    0.000    0.000    0.000    0.000    0.000    0.000 
#
# Total GULP energy -145506.258140 kJ/mol
# GULP energy per Si atom -5596.394544 kJ/mol
# Density = 2.294300 g / cm^3
# Si number density = 22.995334 Si / 1000 Ang^3
#
#
#
# Elastic Constant Matrix: (Units=GPa)
#
#
# Indices 1 2 3 4 5 6 
#
# 1 63.9925 38.5912 50.7705 0.0000 25.9598 0.0000
# 2 38.5912 163.3949 47.9614 0.0000 36.4914 0.0000
# 3 50.7705 47.9614 93.7595 0.0000 21.2091 0.0000
# 4 0.0000 0.0000 0.0000 32.7590 0.0000 17.4417
# 5 25.9598 36.4914 21.2091 0.0000 43.5783 0.0000
# 6 0.0000 0.0000 0.0000 17.4417 0.0000 17.5085
#
#
#
# Elastic Compliance Matrix: (Units=1/GPa)
#
#
# Indices 1 2 3 4 5 6 
#
# 1 0.032236 -0.000806 -0.014442 0.000000 -0.011499 0.000000
# 2 -0.000806 0.008223 -0.002608 0.000000 -0.005136 0.000000
# 3 -0.014442 -0.002608 0.019530 0.000000 0.001282 0.000000
# 4 0.000000 0.000000 0.000000 0.065003 0.000000 -0.064755
# 5 -0.011499 -0.005136 0.001282 0.000000 0.033474 0.000000
# 6 0.000000 0.000000 0.000000 -0.064755 0.000000 0.121623
#
#
# Mechanical properties :
#
#
# Convention : Reuss Voigt Hill
#
# Bulk Modulus (GPa) = 41.19204 66.19924 53.69564
# Shear Modulus (GPa) = 15.43710 31.02407 23.23059
#
# Velocity S-wave (km/s) = 2.59378 3.67706 3.18186
# Velocity P-wave (km/s) = 5.18868 6.84677 6.07457
#
# Compressibility (1/GPa) = 0.02427653
#
# Stress axis : x y z
#
# Youngs Moduli (GPa) = 31.02124 121.60692 51.20328
#
# Poissons Ratio (x) = 0.09805 0.73948
# Poissons Ratio (y) = 0.02501 0.13354
# Poissons Ratio (z) = 0.44801 0.31715
#
# Static dielectric constant tensor:
#      x y z
#    x 1.851440 0.000000 -0.022600 
#    y 0.000000 1.799370 0.000000 
#    z -0.022600 0.000000 1.850480 
# 
# From -- ./inp_files/56937.got.cif
#   From: 2010.05.17/outbox.cif.g08.bks.cpg/sg15_29_cif.got.tgz:56937.got - 2010.06.03 18:47:42.
