data_PCOD9259967
_publ_section_title
;
Structure prediction by ZEFSAII (Michael W. Deem and Ramdas Pophale) SiO2 
 PCOD9259967
Probable space group: C 2/C
;
_chemical_formula_sum "Si O2"
_cell_formula_units_Z 56
_cell_length_a 20.088345
_cell_length_b 9.993939
_cell_length_c 20.066446
_cell_angle_alpha 90.000000
_cell_angle_beta 46.406685
_cell_angle_gamma 90.000000
_cell_volume 2917.703842
_symmetry_space_group_name_H-M "C 2/C"
_symmetry_group_IT_number 15
_symmetry_cell_setting 'monoclinic'
loop_
_space_group_symop_operation_xyz
x,y,z
-x,y,1/2-z
-x,-y,-z
x,-y,1/2+z
1/2+x,1/2+y,z
1/2-x,1/2+y,1/2-z
1/2-x,1/2-y,-z
1/2+x,1/2-y,1/2+z
loop_
_atom_site_type_symbol
_atom_site_label
_atom_site_fract_x
_atom_site_fract_y
_atom_site_fract_z
Si Si1 0.843934 0.198817 0.779829
Si Si2 0.651076 0.902201 0.440408
Si Si3 0.679228 0.836530 0.840026
Si Si4 0.000000 0.327454 0.750000
Si Si5 0.939906 0.551086 0.890880
Si Si6 0.611889 0.397119 0.790253
Si Si7 0.500000 0.261763 0.750000
Si Si8 0.001801 0.735750 0.531256
O O1 0.740539 0.187649 0.877665
O O2 0.843359 0.304401 0.720278
O O3 0.913422 0.238364 0.789917
O O4 0.870205 0.054572 0.730505
O O5 0.559427 0.818755 0.487602
O O6 0.659249 0.011739 0.376006
O O7 0.646483 0.989167 0.510875
O O8 0.789102 0.821855 0.774179
O O9 0.607187 0.749808 0.934214
O O10 0.983743 0.425555 0.823456
O O11 0.933009 0.665105 0.839449
O O12 0.995366 0.621799 0.912711
O O13 0.557647 0.347120 0.762561
O O14 0.550082 0.357984 0.896990
#
# Coordination Sequence:
#
# PCOD9259967 Si02
#       8
#     8   8   8   4   8   8   4   8
#     4  11  22  35  54  81 117 147 181 225 281 332
#     4  10  19  35  58  83 107 143 189 233 272 322
#     4  10  20  36  57  83 108 144 189 231 273 323
#     4  11  21  36  54  80 115 147 180 228 280 331
#     4   9  19  35  58  82 102 143 193 226 272 319
#     4  10  21  37  55  84 112 150 185 222 281 332
#     4   9  19  38  58  78 115 147 182 230 276 327
#     4  10  18  36  60  80 110 143 186 237 270 321
#
# _framework density 19.193175
#
# number of rings (size 3 to 8) (size 9 to 14) (size 15 to 20)
#    0.000    2.000    1.429    3.857    0.000    1.143 
#    0.000   12.857    0.000    0.000    0.000    0.000 
#    0.000    0.000    0.000    0.000    0.000    0.000 
#
# Total GULP energy -156010.140429 kJ/mol
# GULP energy per Si atom -5571.790730 kJ/mol
# Density = 1.914949 g / cm^3
# Si number density = 19.193175 Si / 1000 Ang^3
#
#
#
# Elastic Constant Matrix: (Units=GPa)
#
#
# Indices 1 2 3 4 5 6 
#
# 1 80.9731 8.0072 15.1801 0.0000 -3.0855 0.0000
# 2 8.0072 28.0454 -0.0835 0.0000 -2.9715 0.0000
# 3 15.1801 -0.0835 50.9352 0.0000 -3.0877 0.0000
# 4 0.0000 0.0000 0.0000 16.6240 0.0000 -3.0375
# 5 -3.0855 -2.9715 -3.0877 0.0000 25.8893 0.0000
# 6 0.0000 0.0000 0.0000 -3.0375 0.0000 13.6686
#
#
#
# Elastic Compliance Matrix: (Units=1/GPa)
#
#
# Indices 1 2 3 4 5 6 
#
# 1 0.013499 -0.003792 -0.003987 0.000000 0.000698 0.000000
# 2 -0.003792 0.037166 0.001433 0.000000 0.003985 0.000000
# 3 -0.003987 0.001433 0.020956 0.000000 0.002189 0.000000
# 4 0.000000 0.000000 0.000000 0.062700 0.000000 0.013933
# 5 0.000698 0.003985 0.002189 0.000000 0.039428 0.000000
# 6 0.000000 0.000000 0.000000 0.013933 0.000000 0.076257
#
#
# Mechanical properties :
#
#
# Convention : Reuss Voigt Hill
#
# Bulk Modulus (GPa) = 16.96988 22.90680 19.93834
# Shear Modulus (GPa) = 17.70916 20.35971 19.03444
#
# Velocity S-wave (km/s) = 3.04086 3.26049 3.15259
# Velocity P-wave (km/s) = 4.60325 5.11226 4.86442
#
# Compressibility (1/GPa) = 0.05892792
#
# Stress axis : x y z
#
# Youngs Moduli (GPa) = 74.08072 26.90662 47.71892
#
# Poissons Ratio (x) = 0.10203 0.19025
# Poissons Ratio (y) = 0.28091 -0.06836
# Poissons Ratio (z) = 0.29535 -0.03855
#
# Static dielectric constant tensor:
#      x y z
#    x 1.641360 0.000000 -0.005710 
#    y 0.000000 1.679540 0.000000 
#    z -0.005710 0.000000 1.708330 
# 
# From -- ./inp_files/167230.got.cif
#   From: 2010.05.17/outbox.cif.g08.bks.cpg/sg15_84_cif.got.tgz:167230.got - 2010.06.03 18:47:42.
