data_PCOD9259576
_publ_section_title
;
Structure prediction by ZEFSAII (Michael W. Deem and Ramdas Pophale) SiO2 
 PCOD9259576
Probable space group: C 2/C
;
_chemical_formula_sum "Si O2"
_cell_formula_units_Z 60
_cell_length_a 14.185817
_cell_length_b 12.761363
_cell_length_c 13.863990
_cell_angle_alpha 90.000000
_cell_angle_beta 87.770261
_cell_angle_gamma 90.000000
_cell_volume 2507.902823
_symmetry_space_group_name_H-M "C 2/C"
_symmetry_group_IT_number 15
_symmetry_cell_setting 'monoclinic'
loop_
_space_group_symop_operation_xyz
x,y,z
-x,y,1/2-z
-x,-y,-z
x,-y,1/2+z
1/2+x,1/2+y,z
1/2-x,1/2+y,1/2-z
1/2-x,1/2-y,-z
1/2+x,1/2-y,1/2+z
loop_
_atom_site_type_symbol
_atom_site_label
_atom_site_fract_x
_atom_site_fract_y
_atom_site_fract_z
Si Si1 0.223494 0.886982 0.589314
Si Si2 0.157610 0.237457 0.381973
Si Si3 0.109782 0.016480 0.473870
Si Si4 0.935242 0.316369 0.942504
Si Si5 0.045689 0.145607 0.840156
Si Si6 0.334761 0.175229 0.264770
Si Si7 0.116385 0.336096 0.067152
Si Si8 0.500000 0.173371 0.750000
O O1 0.162555 0.988259 0.569511
O O2 0.279026 0.891467 0.687725
O O3 0.154536 0.783685 0.587231
O O4 0.297188 0.881983 0.497357
O O5 0.146245 0.312879 0.474280
O O6 0.255127 0.242618 0.322658
O O7 0.069670 0.261016 0.315682
O O8 0.143231 0.120753 0.422061
O O9 0.119688 0.922622 0.395292
O O10 0.000000 0.000000 0.500000
O O11 0.898300 0.372798 0.847970
O O12 0.962966 0.197943 0.907535
O O13 0.029292 0.348097 0.995475
O O14 0.099249 0.247291 0.797805
O O15 0.000000 0.088890 0.750000
O O16 0.072812 0.378310 0.169754
#
# Coordination Sequence:
#
# PCOD9259576 Si02
#       8
#     8   8   8   8   8   8   8   4
#     4  11  20  35  60  88 127 162 204 252 309 382
#     4  11  23  36  57  90 130 166 205 255 320 371
#     4  12  23  37  58  89 135 164 191 249 327 395
#     4  10  19  38  59  89 118 156 209 267 303 356
#     4  10  20  35  59  89 117 158 206 248 305 365
#     4  11  22  37  60  89 122 167 218 259 303 368
#     4  10  18  35  60  89 118 157 212 258 301 354
#     4  10  20  34  58  88 124 168 208 252 306 368
#
# _framework density 23.924371000000001
#
# number of rings (size 3 to 8) (size 9 to 14) (size 15 to 20)
#    0.000    1.333    5.333    2.000    0.933    0.000 
#    0.000    0.000    0.000    0.800    5.200    0.000 
#    0.000    0.000    0.000    0.000    0.000    0.000 
#
# Total GULP energy -167475.599437 kJ/mol
# GULP energy per Si atom -5582.519981 kJ/mol
# Density = 2.386992 g / cm^3
# Si number density = 23.924371 Si / 1000 Ang^3
#
#
#
# Elastic Constant Matrix: (Units=GPa)
#
#
# Indices 1 2 3 4 5 6 
#
# 1 116.2028 12.9918 59.3829 0.0000 3.8815 0.0000
# 2 12.9918 32.5774 21.2939 0.0000 13.0991 0.0000
# 3 59.3829 21.2939 155.5609 0.0000 19.5833 0.0000
# 4 0.0000 0.0000 0.0000 8.1315 0.0000 8.8525
# 5 3.8815 13.0991 19.5833 0.0000 74.0809 0.0000
# 6 0.0000 0.0000 0.0000 8.8525 0.0000 12.4079
#
#
#
# Elastic Compliance Matrix: (Units=1/GPa)
#
#
# Indices 1 2 3 4 5 6 
#
# 1 0.010832 -0.002073 -0.003957 0.000000 0.000845 0.000000
# 2 -0.002073 0.035924 -0.003455 0.000000 -0.005330 0.000000
# 3 -0.003957 -0.003455 0.008595 0.000000 -0.001454 0.000000
# 4 0.000000 0.000000 0.000000 0.550789 0.000000 -0.392964
# 5 0.000845 -0.005330 -0.001454 0.000000 0.014781 0.000000
# 6 0.000000 0.000000 0.000000 -0.392964 0.000000 0.360957
#
#
# Mechanical properties :
#
#
# Convention : Reuss Voigt Hill
#
# Bulk Modulus (GPa) = 27.48752 54.63095 41.05923
# Shear Modulus (GPa) = 4.93595 32.96889 18.95242
#
# Velocity S-wave (km/s) = 1.43792 3.71623 2.81762
# Velocity P-wave (km/s) = 3.77771 6.42637 5.27112
#
# Compressibility (1/GPa) = 0.03638015
#
# Stress axis : x y z
#
# Youngs Moduli (GPa) = 92.32328 27.83624 116.34629
#
# Poissons Ratio (x) = 0.05770 0.46043
# Poissons Ratio (y) = 0.19136 0.40201
# Poissons Ratio (z) = 0.36536 0.09618
#
# Static dielectric constant tensor:
#      x y z
#    x 1.938910 0.000000 0.003980 
#    y 0.000000 1.966900 0.000000 
#    z 0.003980 0.000000 2.070670 
# 
# From -- ./inp_files/153965.got.cif
#   From: 2010.05.17/outbox.cif.g08.bks.cpg/sg15_77_cif.got.tgz:153965.got - 2010.06.03 18:47:42.
