data_PCOD9259036
_publ_section_title
;
Structure prediction by ZEFSAII (Michael W. Deem and Ramdas Pophale) SiO2 
 PCOD9259036
Probable space group: C 2/C
;
_chemical_formula_sum "Si O2"
_cell_formula_units_Z 40
_cell_length_a 19.201603
_cell_length_b 6.927823
_cell_length_c 15.646613
_cell_angle_alpha 90.000000
_cell_angle_beta 119.252319
_cell_angle_gamma 90.000000
_cell_volume 1815.968095
_symmetry_space_group_name_H-M "C 2/C"
_symmetry_group_IT_number 15
_symmetry_cell_setting 'monoclinic'
loop_
_space_group_symop_operation_xyz
x,y,z
-x,y,1/2-z
-x,-y,-z
x,-y,1/2+z
1/2+x,1/2+y,z
1/2-x,1/2+y,1/2-z
1/2-x,1/2-y,-z
1/2+x,1/2-y,1/2+z
loop_
_atom_site_type_symbol
_atom_site_label
_atom_site_fract_x
_atom_site_fract_y
_atom_site_fract_z
Si Si1 0.675970 0.418993 0.650772
Si Si2 0.872004 0.469504 0.447706
Si Si3 0.239656 0.235401 0.394406
Si Si4 0.411545 0.957844 0.169313
Si Si5 0.643904 0.773641 0.720597
O O1 0.623931 0.253213 0.576257
O O2 0.704406 0.591476 0.606305
O O3 0.632703 0.547465 0.696508
O O4 0.760087 0.319951 0.728811
O O5 0.778082 0.528840 0.397969
O O6 0.897713 0.600538 0.381197
O O7 0.095076 0.483574 0.437725
O O8 0.250000 0.250000 0.500000
O O9 0.149207 0.300049 0.326943
O O10 0.500000 0.909845 0.250000
O O11 0.385465 0.150993 0.205587
#
# Coordination Sequence:
#
# PCOD9259036 Si02
#       5
#     8   8   8   8   8
#     4  10  18  34  58  88 118 146 199 275 297 337
#     4  10  20  38  63  91 119 158 206 261 311 348
#     4   8  18  34  58  88 112 148 205 251 301 358
#     4  10  22  39  60  90 132 170 198 244 310 383
#     4  10  20  35  60  91 120 154 210 253 310 360
#
# _framework density 22.026819
#
# number of rings (size 3 to 8) (size 9 to 14) (size 15 to 20)
#    0.000    2.400    2.000    0.000    0.000    8.000 
#    0.000    3.000    0.000   36.000    0.000    0.000 
#    0.000    0.000    0.000    0.000    0.000    0.000 
#
# Total GULP energy -111352.553387 kJ/mol
# GULP energy per Si atom -5567.627669 kJ/mol
# Density = 2.197668 g / cm^3
# Si number density = 22.026819 Si / 1000 Ang^3
#
#
#
# Elastic Constant Matrix: (Units=GPa)
#
#
# Indices 1 2 3 4 5 6 
#
# 1 49.8236 9.8172 -8.9330 0.0000 21.6023 0.0000
# 2 9.8172 131.6615 40.6548 0.0000 0.3780 0.0000
# 3 -8.9330 40.6548 124.5377 0.0000 2.6005 0.0000
# 4 0.0000 0.0000 0.0000 -25.4916 0.0000 20.7207
# 5 21.6023 0.3780 2.6005 0.0000 22.1529 0.0000
# 6 0.0000 0.0000 0.0000 20.7207 0.0000 -5.4546
#
#
#
# Elastic Compliance Matrix: (Units=1/GPa)
#
#
# Indices 1 2 3 4 5 6 
#
# 1 0.038127 -0.004251 0.004909 0.000000 -0.037683 0.000000
# 2 -0.004251 0.008921 -0.003309 0.000000 0.004381 0.000000
# 3 0.004909 -0.003309 0.009584 0.000000 -0.005856 0.000000
# 4 0.000000 0.000000 0.000000 0.018789 0.000000 0.071377
# 5 -0.037683 0.004381 -0.005856 0.000000 0.082500 0.000000
# 6 0.000000 0.000000 0.000000 0.071377 0.000000 0.087811
#
#
# Mechanical properties :
#
#
# Convention : Reuss Voigt Hill
#
# Bulk Modulus (GPa) = 19.48083 43.23341 31.35712
# Shear Modulus (GPa) = 18.64672 15.87360 17.26016
#
# Velocity S-wave (km/s) = 2.91270 2.68740 2.80232
# Velocity P-wave (km/s) = 4.49167 5.41292 4.97367
#
# Compressibility (1/GPa) = 0.05133251
#
# Stress axis : x y z
#
# Youngs Moduli (GPa) = 26.22810 112.09173 104.33813
#
# Poissons Ratio (x) = 0.47646 -0.51223
# Poissons Ratio (y) = 0.11149 0.34522
# Poissons Ratio (z) = -0.12876 0.37088
#
# Static dielectric constant tensor:
#      x y z
#    x 1.481300 0.000000 0.439060 
#    y 0.000000 1.906240 0.000000 
#    z 0.439060 0.000000 1.295320 
# 
# From -- ./inp_files/208041.got.cif
#   From: 2010.05.17/outbox.cif.g08.bks.cpg/sg15_105_cif.got.tgz:208041.got - 2010.06.03 18:47:42.
