data_PCOD9259291
_publ_section_title
;
Structure prediction by ZEFSAII (Michael W. Deem and Ramdas Pophale) SiO2 
 PCOD9259291
Probable space group: C 2/C
;
_chemical_formula_sum "Si O2"
_cell_formula_units_Z 48
_cell_length_a 8.517648
_cell_length_b 21.364101
_cell_length_c 23.857681
_cell_angle_alpha 90.000000
_cell_angle_beta 148.789769
_cell_angle_gamma 90.000000
_cell_volume 2249.639693
_symmetry_space_group_name_H-M "C 2/C"
_symmetry_group_IT_number 15
_symmetry_cell_setting 'monoclinic'
loop_
_space_group_symop_operation_xyz
x,y,z
-x,y,1/2-z
-x,-y,-z
x,-y,1/2+z
1/2+x,1/2+y,z
1/2-x,1/2+y,1/2-z
1/2-x,1/2-y,-z
1/2+x,1/2-y,1/2+z
loop_
_atom_site_type_symbol
_atom_site_label
_atom_site_fract_x
_atom_site_fract_y
_atom_site_fract_z
Si Si1 0.798640 0.129168 0.041326
Si Si2 0.653045 0.925262 0.734762
Si Si3 0.188016 0.539072 0.906780
Si Si4 0.188726 0.847444 0.139130
Si Si5 0.863568 0.173550 0.647693
Si Si6 0.259016 0.310473 0.912992
O O1 0.004531 0.096902 0.151419
O O2 0.023762 0.173249 0.073633
O O3 0.686509 0.075618 0.964482
O O4 0.496914 0.164783 0.966294
O O5 0.500000 0.932046 0.750000
O O6 0.464038 0.869425 0.648595
O O7 0.585217 0.990817 0.684663
O O8 0.215280 0.591398 0.866892
O O9 0.500000 0.500000 0.000000
O O10 0.500000 0.813229 0.250000
O O11 0.020530 0.863421 0.145283
O O12 0.970724 0.808143 0.032165
O O13 0.918426 0.247117 0.653047
O O14 0.000000 0.157199 0.750000
#
# Coordination Sequence:
#
# PCOD9259291 Si02
#       6
#     8   8   8   8   8   8
#     4  10  22  37  63  97 124 168 208 262 325 369
#     4  10  18  34  65  92 115 162 215 257 304 373
#     4  11  19  38  68  86 121 165 219 252 305 384
#     4  11  24  40  67  92 123 173 216 260 317 379
#     4  12  24  42  62  95 135 162 209 268 320 377
#     4  10  21  40  65  92 124 171 214 253 309 384
#
# _framework density 21.336751
#
# number of rings (size 3 to 8) (size 9 to 14) (size 15 to 20)
#    0.000    1.333    5.000    5.000    0.000    1.333 
#    0.000    1.667    3.667    0.000    0.000    0.000 
#    0.000    0.000    0.000    0.000    0.000    0.000 
#
# Total GULP energy -134160.007476 kJ/mol
# GULP energy per Si atom -5590.000311 kJ/mol
# Density = 2.128819 g / cm^3
# Si number density = 21.336751 Si / 1000 Ang^3
#
#
#
# Elastic Constant Matrix: (Units=GPa)
#
#
# Indices 1 2 3 4 5 6 
#
# 1 42.5229 1.3025 28.0806 -0.0035 1.6511 0.0007
# 2 1.3025 59.8180 15.2071 0.0006 4.2847 -0.0039
# 3 28.0806 15.2071 118.4734 0.0022 -11.4975 -0.0027
# 4 -0.0035 0.0006 0.0022 30.7837 -0.0036 -0.6596
# 5 1.6511 4.2847 -11.4975 -0.0036 23.4809 0.0018
# 6 0.0007 -0.0039 -0.0027 -0.6596 0.0018 1.2490
#
#
#
# Elastic Compliance Matrix: (Units=1/GPa)
#
#
# Indices 1 2 3 4 5 6 
#
# 1 0.028734 0.001748 -0.007624 0.000003 -0.006073 -0.000017
# 2 0.001748 0.017842 -0.003184 0.000001 -0.004938 0.000056
# 3 -0.007624 -0.003184 0.011302 -0.000001 0.006651 0.000009
# 4 0.000003 0.000001 -0.000001 0.032856 0.000003 0.017351
# 5 -0.006073 -0.004938 0.006651 0.000003 0.047172 -0.000064
# 6 -0.000017 0.000056 0.000009 0.017351 -0.000064 0.809797
#
#
# Mechanical properties :
#
#
# Convention : Reuss Voigt Hill
#
# Bulk Modulus (GPa) = 25.15247 34.44388 29.79817
# Shear Modulus (GPa) = 5.10685 22.85100 13.97892
#
# Velocity S-wave (km/s) = 1.54876 3.27612 2.56238
# Velocity P-wave (km/s) = 3.87455 5.52165 4.76973
#
# Compressibility (1/GPa) = 0.03975753
#
# Stress axis : x y z
#
# Youngs Moduli (GPa) = 34.80239 56.04649 88.48079
#
# Poissons Ratio (x) = -0.09794 0.67459
# Poissons Ratio (y) = -0.06082 0.28169
# Poissons Ratio (z) = 0.26534 0.17843
#
# Static dielectric constant tensor:
#      x y z
#    x 1.776820 0.000000 -0.002700 
#    y 0.000000 1.781100 0.000000 
#    z -0.002700 0.000000 1.799200 
# 
# From -- ./inp_files/191941.got.cif
#   From: 2010.05.17/outbox.cif.g08.bks.cpg/sg15_96_cif.got.tgz:191941.got - 2010.06.03 18:47:42.
