data_PCOD9259043
_publ_section_title
;
Structure prediction by ZEFSAII (Michael W. Deem and Ramdas Pophale) SiO2 
 PCOD9259043
Probable space group: C 2/C
;
_chemical_formula_sum "Si O2"
_cell_formula_units_Z 56
_cell_length_a 11.861180
_cell_length_b 9.710044
_cell_length_c 19.440873
_cell_angle_alpha 90.000000
_cell_angle_beta 66.769470
_cell_angle_gamma 90.000000
_cell_volume 2057.524736
_symmetry_space_group_name_H-M "C 2/C"
_symmetry_group_IT_number 15
_symmetry_cell_setting 'monoclinic'
loop_
_space_group_symop_operation_xyz
x,y,z
-x,y,1/2-z
-x,-y,-z
x,-y,1/2+z
1/2+x,1/2+y,z
1/2-x,1/2+y,1/2-z
1/2-x,1/2-y,-z
1/2+x,1/2-y,1/2+z
loop_
_atom_site_type_symbol
_atom_site_label
_atom_site_fract_x
_atom_site_fract_y
_atom_site_fract_z
Si Si1 0.688867 0.425003 0.366091
Si Si2 0.799880 0.473283 0.048071
Si Si3 0.488300 0.814963 0.541948
Si Si4 0.950014 0.973788 0.883642
Si Si5 0.445043 0.167342 0.839115
Si Si6 0.427559 0.223722 0.330011
Si Si7 0.715670 0.137141 0.812877
O O1 0.600504 0.314339 0.425712
O O2 0.585300 0.542542 0.383043
O O3 0.820674 0.422931 0.372516
O O4 0.731533 0.384460 0.276836
O O5 0.902063 0.589075 0.015094
O O6 0.669679 0.484906 0.041916
O O7 0.762422 0.486016 0.137905
O O8 0.873349 0.331156 0.020093
O O9 0.526112 0.848017 0.612226
O O10 0.963731 0.113957 0.834538
O O11 0.914572 0.826683 0.861591
O O12 0.500000 0.160055 0.750000
O O13 0.569640 0.142064 0.849965
O O14 0.500000 0.159764 0.250000
O O15 0.291801 0.239554 0.331253
#
# Coordination Sequence:
#
# PCOD9259043 Si02
#       7
#     8   8   8   8   8   8   8
#     4  10  20  36  60  89 118 157 210 256 304 377
#     4  10  22  37  61  87 118 164 206 251 310 376
#     4  10  20  38  62  87 121 159 207 252 311 373
#     4  10  19  33  63  83 114 159 206 246 299 378
#     4  10  21  36  56  87 124 163 197 255 322 371
#     4  10  18  34  58  90 114 149 200 259 299 361
#     4  10  21  36  56  89 123 152 202 258 309 368
#
# _framework density 27.217168000000001
#
# number of rings (size 3 to 8) (size 9 to 14) (size 15 to 20)
#    0.000    2.000    4.286    0.429    2.000    5.143 
#    2.571    1.429    0.000    4.286    0.000    0.000 
#    0.000    0.000    0.000    0.000    0.000    0.000 
#
# Total GULP energy -155912.471746 kJ/mol
# GULP energy per Si atom -5568.302562 kJ/mol
# Density = 2.715522 g / cm^3
# Si number density = 27.217168 Si / 1000 Ang^3
#
#
#
# Elastic Constant Matrix: (Units=GPa)
#
#
# Indices 1 2 3 4 5 6 
#
# 1 271.6893 30.6619 34.6803 0.0000 -30.6928 0.0000
# 2 30.6619 53.5314 -2.4890 0.0000 -7.6390 0.0000
# 3 34.6803 -2.4890 80.5388 0.0000 -10.3763 0.0000
# 4 0.0000 0.0000 0.0000 -17.9802 0.0000 -9.1869
# 5 -30.6928 -7.6390 -10.3763 0.0000 53.5673 0.0000
# 6 0.0000 0.0000 0.0000 -9.1869 0.0000 45.6988
#
#
#
# Elastic Compliance Matrix: (Units=1/GPa)
#
#
# Indices 1 2 3 4 5 6 
#
# 1 0.004369 -0.002320 -0.001716 0.000000 0.001840 0.000000
# 2 -0.002320 0.020374 0.001879 0.000000 0.001940 0.000000
# 3 -0.001716 0.001879 0.013457 0.000000 0.001891 0.000000
# 4 0.000000 0.000000 0.000000 -0.050436 0.000000 -0.010139
# 5 0.001840 0.001940 0.001891 0.000000 0.020366 0.000000
# 6 0.000000 0.000000 0.000000 -0.010139 0.000000 0.019844
#
#
# Mechanical properties :
#
#
# Convention : Reuss Voigt Hill
#
# Bulk Modulus (GPa) = 29.51139 59.05176 44.28157
# Shear Modulus (GPa) = 114.72176 39.11761 76.91969
#
# Velocity S-wave (km/s) = 6.49939 3.79521 5.32192
# Velocity P-wave (km/s) = 8.19690 6.39910 7.35315
#
# Compressibility (1/GPa) = 0.03388523
#
# Stress axis : x y z
#
# Youngs Moduli (GPa) = 228.86166 49.08305 74.31038
#
# Poissons Ratio (x) = 0.11387 0.12752
# Poissons Ratio (y) = 0.53094 -0.13960
# Poissons Ratio (z) = 0.39275 -0.09221
#
# Static dielectric constant tensor:
#      x y z
#    x 2.257990 0.000000 0.064830 
#    y 0.000000 2.188150 0.000000 
#    z 0.064830 0.000000 2.197260 
# 
# From -- ./inp_files/197750.got.cif
#   From: 2010.05.17/outbox.cif.g08.bks.cpg/sg15_99_cif.got.tgz:197750.got - 2010.06.03 18:47:42.
