data_PCOD9259469
_publ_section_title
;
Structure prediction by ZEFSAII (Michael W. Deem and Ramdas Pophale) SiO2 
 PCOD9259469
Probable space group: C 2/C
;
_chemical_formula_sum "Si O2"
_cell_formula_units_Z 60
_cell_length_a 20.360020
_cell_length_b 12.336319
_cell_length_c 19.972294
_cell_angle_alpha 90.000000
_cell_angle_beta 140.261061
_cell_angle_gamma 90.000000
_cell_volume 3206.934106
_symmetry_space_group_name_H-M "C 2/C"
_symmetry_group_IT_number 15
_symmetry_cell_setting 'monoclinic'
loop_
_space_group_symop_operation_xyz
x,y,z
-x,y,1/2-z
-x,-y,-z
x,-y,1/2+z
1/2+x,1/2+y,z
1/2-x,1/2+y,1/2-z
1/2-x,1/2-y,-z
1/2+x,1/2-y,1/2+z
loop_
_atom_site_type_symbol
_atom_site_label
_atom_site_fract_x
_atom_site_fract_y
_atom_site_fract_z
Si Si1 0.500000 0.730511 0.750000
Si Si2 0.901649 0.103964 0.486644
Si Si3 0.330378 0.584440 0.667728
Si Si4 0.889324 0.329910 0.541721
Si Si5 0.397333 0.454839 0.835983
Si Si6 0.975727 0.788975 0.651646
Si Si7 0.436385 0.047107 0.632728
Si Si8 0.698037 0.454139 0.983267
O O1 0.430980 0.658663 0.745399
O O2 0.418888 0.792965 0.640141
O O3 0.919521 0.229682 0.518341
O O4 0.861630 0.087029 0.379915
O O5 0.825410 0.046534 0.480006
O O6 0.007255 0.036606 0.576406
O O7 0.230218 0.650005 0.566946
O O8 0.318930 0.522007 0.728484
O O9 0.348230 0.498716 0.622404
O O10 0.939920 0.449543 0.581785
O O11 0.442204 0.356666 0.826759
O O12 0.973016 0.662034 0.633013
O O13 0.866023 0.846259 0.550691
O O14 0.000000 0.795564 0.750000
O O15 0.500000 0.022037 0.750000
O O16 0.318199 0.060905 0.564319
#
# Coordination Sequence:
#
# PCOD9259469 Si02
#       8
#     4   8   8   8   8   8   8   8
#     4  12  18  34  56  90 124 146 184 244 304 352
#     4  10  21  36  60  86 113 159 196 251 307 356
#     4  11  20  33  60  90 114 151 199 255 291 347
#     4  11  22  34  56  91 126 150 192 239 313 359
#     4  10  20  38  61  84 114 152 213 250 291 359
#     4  10  18  35  58  84 108 151 200 250 292 339
#     4  10  22  33  53  88 121 153 188 246 300 356
#     4  10  19  34  59  87 114 146 205 252 294 347
#
# _framework density 18.709458999999999
#
# number of rings (size 3 to 8) (size 9 to 14) (size 15 to 20)
#    0.000    1.600    4.667    1.600    1.867    0.000 
#    0.000    3.333   11.733    0.000    0.000    0.000 
#    0.000    0.000    0.000    0.000    0.000    0.000 
#
# Total GULP energy -167223.688357 kJ/mol
# GULP energy per Si atom -5574.122945 kJ/mol
# Density = 1.866688 g / cm^3
# Si number density = 18.709459 Si / 1000 Ang^3
#
#
#
# Elastic Constant Matrix: (Units=GPa)
#
#
# Indices 1 2 3 4 5 6 
#
# 1 24.5530 24.8992 30.7465 0.0000 -16.9937 0.0000
# 2 24.8992 130.0181 42.5528 0.0000 -7.6796 0.0000
# 3 30.7465 42.5528 97.0194 0.0000 -13.6860 0.0000
# 4 0.0000 0.0000 0.0000 29.9046 0.0000 -1.8401
# 5 -16.9937 -7.6796 -13.6860 0.0000 33.3377 0.0000
# 6 0.0000 0.0000 0.0000 -1.8401 0.0000 5.8723
#
#
#
# Elastic Compliance Matrix: (Units=1/GPa)
#
#
# Indices 1 2 3 4 5 6 
#
# 1 0.115307 -0.011128 -0.025190 0.000000 0.045873 0.000000
# 2 -0.011128 0.010062 -0.001443 0.000000 -0.003947 0.000000
# 3 -0.025190 -0.001443 0.018114 0.000000 -0.005737 0.000000
# 4 0.000000 0.000000 0.000000 0.034097 0.000000 0.010685
# 5 0.045873 -0.003947 -0.005737 0.000000 0.050115 0.000000
# 6 0.000000 0.000000 0.000000 0.010685 0.000000 0.173640
#
#
# Mechanical properties :
#
#
# Convention : Reuss Voigt Hill
#
# Bulk Modulus (GPa) = 14.71463 49.77642 32.24552
# Shear Modulus (GPa) = 10.00977 24.04905 17.02941
#
# Velocity S-wave (km/s) = 2.31554 3.58913 3.02023
# Velocity P-wave (km/s) = 3.87696 6.62107 5.42537
#
# Compressibility (1/GPa) = 0.06795956
#
# Stress axis : x y z
#
# Youngs Moduli (GPa) = 8.67247 99.38851 55.20578
#
# Poissons Ratio (x) = 1.10601 1.39065
# Poissons Ratio (y) = 0.09651 0.07967
# Poissons Ratio (z) = 0.21846 0.14344
#
# Static dielectric constant tensor:
#      x y z
#    x 1.630710 0.000000 -0.002420 
#    y 0.000000 1.700590 0.000000 
#    z -0.002420 0.000000 1.661640 
# 
# From -- ./inp_files/215233.got.cif
#   From: 2010.05.17/outbox.cif.g08.bks.cpg/sg15_108_cif.got.tgz:215233.got - 2010.06.03 18:47:42.
