data_PCOD9259140
_publ_section_title
;
Structure prediction by ZEFSAII (Michael W. Deem and Ramdas Pophale) SiO2 
 PCOD9259140
Probable space group: C 2/C
;
_chemical_formula_sum "Si O2"
_cell_formula_units_Z 56
_cell_length_a 17.835494
_cell_length_b 8.967754
_cell_length_c 16.015829
_cell_angle_alpha 90.000000
_cell_angle_beta 90.549766
_cell_angle_gamma 90.000000
_cell_volume 2561.522999
_symmetry_space_group_name_H-M "C 2/C"
_symmetry_group_IT_number 15
_symmetry_cell_setting 'monoclinic'
loop_
_space_group_symop_operation_xyz
x,y,z
-x,y,1/2-z
-x,-y,-z
x,-y,1/2+z
1/2+x,1/2+y,z
1/2-x,1/2+y,1/2-z
1/2-x,1/2-y,-z
1/2+x,1/2-y,1/2+z
loop_
_atom_site_type_symbol
_atom_site_label
_atom_site_fract_x
_atom_site_fract_y
_atom_site_fract_z
Si Si1 0.467814 0.117305 0.620976
Si Si2 0.744298 0.930033 0.993146
Si Si3 0.353128 0.882204 0.648850
Si Si4 0.582394 0.302593 0.213822
Si Si5 0.097839 0.881595 0.461920
Si Si6 0.899655 0.590421 0.437550
Si Si7 0.477212 0.425202 0.863492
O O1 0.431992 0.137643 0.528068
O O2 0.482712 0.274716 0.662468
O O3 0.409020 0.015813 0.670321
O O4 0.543718 0.026072 0.605072
O O5 0.825083 0.974112 0.029599
O O6 0.679895 0.011911 0.045265
O O7 0.750000 0.750000 0.000000
O O8 0.721530 0.947631 0.895075
O O9 0.354830 0.763368 0.723389
O O10 0.390627 0.784566 0.574204
O O11 0.500000 0.256149 0.250000
O O12 0.599386 0.230280 0.124441
O O13 0.573520 0.479721 0.200246
O O14 0.069041 0.875589 0.555541
O O15 0.039061 0.960796 0.400825
#
# Coordination Sequence:
#
# PCOD9259140 Si02
#       7
#     8   8   8   8   8   8   8
#     4  10  18  34  60  90 113 150 214 252 287 366
#     4   9  19  36  63  87 115 160 208 248 292 360
#     4  10  20  39  62  85 121 163 201 251 310 366
#     4  12  22  39  56  89 125 161 194 251 324 365
#     4  10  19  37  60  90 120 159 203 249 301 367
#     4  10  19  35  62  88 117 157 201 252 301 369
#     4  11  21  34  61  89 123 154 202 259 307 361
#
# _framework density 21.861993999999999
#
# number of rings (size 3 to 8) (size 9 to 14) (size 15 to 20)
#    0.000    1.714    2.857    5.143    0.000    0.000 
#    2.571    9.286    0.000    0.000    0.000    0.000 
#    0.000    0.000    0.000    0.000    0.000    0.000 
#
# Total GULP energy -156282.321260 kJ/mol
# GULP energy per Si atom -5581.511474 kJ/mol
# Density = 2.181224 g / cm^3
# Si number density = 21.861994 Si / 1000 Ang^3
#
#
#
# Elastic Constant Matrix: (Units=GPa)
#
#
# Indices 1 2 3 4 5 6 
#
# 1 66.1599 8.5016 5.0240 0.0000 5.7409 0.0000
# 2 8.5016 109.3929 25.7673 0.0000 2.4103 0.0000
# 3 5.0240 25.7673 71.9025 0.0000 10.5949 0.0000
# 4 0.0000 0.0000 0.0000 31.9459 0.0000 -4.8351
# 5 5.7409 2.4103 10.5949 0.0000 12.4385 0.0000
# 6 0.0000 0.0000 0.0000 -4.8351 0.0000 20.0458
#
#
#
# Elastic Compliance Matrix: (Units=1/GPa)
#
#
# Indices 1 2 3 4 5 6 
#
# 1 0.015880 -0.001166 0.000406 0.000000 -0.007449 0.000000
# 2 -0.001166 0.010087 -0.003802 0.000000 0.001822 0.000000
# 3 0.000406 -0.003802 0.017337 0.000000 -0.014218 0.000000
# 4 0.000000 0.000000 0.000000 0.032489 0.000000 0.007836
# 5 -0.007449 0.001822 -0.014218 0.000000 0.095591 0.000000
# 6 0.000000 0.000000 0.000000 0.007836 0.000000 0.051776
#
#
# Mechanical properties :
#
#
# Convention : Reuss Voigt Hill
#
# Bulk Modulus (GPa) = 29.25609 36.22680 32.74145
# Shear Modulus (GPa) = 20.51891 26.76353 23.64122
#
# Velocity S-wave (km/s) = 3.06693 3.50266 3.29201
# Velocity P-wave (km/s) = 5.09437 5.74150 5.42759
#
# Compressibility (1/GPa) = 0.03418092
#
# Stress axis : x y z
#
# Youngs Moduli (GPa) = 62.97131 99.13406 57.68055
#
# Poissons Ratio (x) = 0.11555 -0.02341
# Poissons Ratio (y) = 0.07340 0.21930
# Poissons Ratio (z) = -0.02555 0.37690
#
# Static dielectric constant tensor:
#      x y z
#    x 1.857420 0.000000 0.023720 
#    y 0.000000 1.815440 0.000000 
#    z 0.023720 0.000000 1.842800 
# 
# From -- ./inp_files/213403.got.cif
#   From: 2010.05.17/outbox.cif.g08.bks.cpg/sg15_107_cif.got.tgz:213403.got - 2010.06.03 18:47:42.
