data_PCOD9259590
_publ_section_title
;
Structure prediction by ZEFSAII (Michael W. Deem and Ramdas Pophale) SiO2 
 PCOD9259590
Probable space group: C 2/C
;
_chemical_formula_sum "Si O2"
_cell_formula_units_Z 52
_cell_length_a 20.449667
_cell_length_b 7.471120
_cell_length_c 32.043639
_cell_angle_alpha 90.000000
_cell_angle_beta 150.731749
_cell_angle_gamma 90.000000
_cell_volume 2393.497937
_symmetry_space_group_name_H-M "C 2/C"
_symmetry_group_IT_number 15
_symmetry_cell_setting 'monoclinic'
loop_
_space_group_symop_operation_xyz
x,y,z
-x,y,1/2-z
-x,-y,-z
x,-y,1/2+z
1/2+x,1/2+y,z
1/2-x,1/2+y,1/2-z
1/2-x,1/2-y,-z
1/2+x,1/2-y,1/2+z
loop_
_atom_site_type_symbol
_atom_site_label
_atom_site_fract_x
_atom_site_fract_y
_atom_site_fract_z
Si Si1 0.253896 0.999609 0.244590
Si Si2 0.286739 0.676182 0.203297
Si Si3 0.000000 0.361257 0.750000
Si Si4 0.489199 0.844617 0.651988
Si Si5 0.747993 0.379559 0.104282
Si Si6 0.085556 0.243197 0.373491
Si Si7 0.561950 0.478151 0.433449
O O1 0.271815 0.007204 0.304922
O O2 0.359228 0.126401 0.279379
O O3 0.095560 0.016027 0.148379
O O4 0.290887 0.810478 0.244935
O O5 0.206061 0.768894 0.121561
O O6 0.441989 0.668824 0.277065
O O7 0.982143 0.266890 0.695276
O O8 0.870845 0.489232 0.684603
O O9 0.423638 0.712982 0.581672
O O10 0.429646 0.045651 0.622941
O O11 0.808866 0.240184 0.104838
O O12 0.638330 0.495235 0.019134
O O13 0.115802 0.124424 0.430448
#
# Coordination Sequence:
#
# PCOD9259590 Si02
#       7
#     8   8   4   8   8   8   8
#     4  10  19  36  55  84 112 154 197 237 290 352
#     4  10  18  35  61  78 115 159 190 238 296 346
#     4  10  20  38  60  84 118 164 190 242 306 346
#     4  10  20  41  59  83 122 156 197 243 295 358
#     4  11  19  38  62  87 118 157 198 244 299 349
#     4   9  20  38  61  84 119 159 191 243 301 345
#     4  11  23  35  64  92 114 157 202 243 294 353
#
# _framework density 21.725525999999999
#
# number of rings (size 3 to 8) (size 9 to 14) (size 15 to 20)
#    0.000    1.846    6.154    0.462    0.000    3.077 
#    5.538    0.000    3.385    2.769    0.000    0.000 
#    0.000    0.000    0.000    0.000    0.000    0.000 
#
# Total GULP energy -144967.910293 kJ/mol
# GULP energy per Si atom -5575.688857 kJ/mol
# Density = 2.167608 g / cm^3
# Si number density = 21.725526 Si / 1000 Ang^3
#
#
#
# Elastic Constant Matrix: (Units=GPa)
#
#
# Indices 1 2 3 4 5 6 
#
# 1 65.3240 10.5018 2.1391 0.0001 1.1581 -0.0001
# 2 10.5018 68.4328 4.0327 0.0001 -8.7297 -0.0003
# 3 2.1391 4.0327 71.6557 0.0000 -12.7544 -0.0001
# 4 0.0001 0.0001 0.0000 17.4062 0.0000 -8.4690
# 5 1.1581 -8.7297 -12.7544 0.0000 25.8349 0.0001
# 6 -0.0001 -0.0003 -0.0001 -8.4690 0.0001 33.4253
#
#
#
# Elastic Compliance Matrix: (Units=1/GPa)
#
#
# Indices 1 2 3 4 5 6 
#
# 1 0.015787 -0.002629 -0.000666 0.000000 -0.001925 0.000000
# 2 -0.002629 0.015709 0.000176 0.000000 0.005513 0.000000
# 3 -0.000666 0.000176 0.015328 0.000000 0.007657 0.000000
# 4 0.000000 0.000000 0.000000 0.065529 0.000000 0.016603
# 5 -0.001925 0.005513 0.007657 0.000000 0.044436 0.000000
# 6 0.000000 0.000000 0.000000 0.016603 0.000000 0.034124
#
#
# Mechanical properties :
#
#
# Convention : Reuss Voigt Hill
#
# Bulk Modulus (GPa) = 24.63899 26.52884 25.58391
# Shear Modulus (GPa) = 23.73253 27.91589 25.82421
#
# Velocity S-wave (km/s) = 3.30870 3.58849 3.45143
# Velocity P-wave (km/s) = 5.09533 5.42283 5.26163
#
# Compressibility (1/GPa) = 0.04058608
#
# Stress axis : x y z
#
# Youngs Moduli (GPa) = 63.34374 63.65697 65.23800
#
# Poissons Ratio (x) = 0.16735 0.04344
# Poissons Ratio (y) = 0.16653 -0.01146
# Poissons Ratio (z) = 0.04218 -0.01118
#
# Static dielectric constant tensor:
#      x y z
#    x 1.862260 0.000000 -0.013580 
#    y 0.000000 1.936960 0.000000 
#    z -0.013580 0.000000 1.834350 
# 
# From -- ./inp_files/317396.got.cif
#   From: 2010.05.17/outbox.cif.g08.bks.cpg/sg15_159_cif.got.tgz:317396.got - 2010.06.03 18:47:42.
