data_PCOD9259567
_publ_section_title
;
Structure prediction by ZEFSAII (Michael W. Deem and Ramdas Pophale) SiO2 
 PCOD9259567
Probable space group: C 2/C
;
_chemical_formula_sum "Si O2"
_cell_formula_units_Z 56
_cell_length_a 25.948779
_cell_length_b 17.006140
_cell_length_c 16.010623
_cell_angle_alpha 90.000000
_cell_angle_beta 21.714875
_cell_angle_gamma 90.000000
_cell_volume 2614.077777
_symmetry_space_group_name_H-M "C 2/C"
_symmetry_group_IT_number 15
_symmetry_cell_setting 'monoclinic'
loop_
_space_group_symop_operation_xyz
x,y,z
-x,y,1/2-z
-x,-y,-z
x,-y,1/2+z
1/2+x,1/2+y,z
1/2-x,1/2+y,1/2-z
1/2-x,1/2-y,-z
1/2+x,1/2-y,1/2+z
loop_
_atom_site_type_symbol
_atom_site_label
_atom_site_fract_x
_atom_site_fract_y
_atom_site_fract_z
Si Si1 0.213416 0.012327 0.552937
Si Si2 0.666062 0.210362 0.840933
Si Si3 0.572416 0.655599 0.963278
Si Si4 0.296004 0.508988 0.236241
Si Si5 0.499578 0.360078 0.117887
Si Si6 0.356126 0.345421 0.914205
Si Si7 0.024142 0.458902 0.553702
O O1 0.370903 0.041208 0.322230
O O2 0.115208 0.083059 0.666483
O O3 0.180020 0.989242 0.699708
O O4 0.201568 0.933508 0.514990
O O5 0.799694 0.207906 0.700043
O O6 0.747034 0.208974 0.628324
O O7 0.562029 0.274039 0.038134
O O8 0.582375 0.129043 0.960975
O O9 0.617490 0.567609 0.924426
O O10 0.565852 0.652045 0.874894
O O11 0.424053 0.680582 0.224128
O O12 0.138719 0.501562 0.439919
O O13 0.365598 0.585206 0.093272
O O14 0.500000 0.349236 0.750000
O O15 0.000000 0.500000 0.500000
#
# Coordination Sequence:
#
# PCOD9259567 Si02
#       7
#     8   8   8   8   8   8   8
#     4  11  20  38  63  88 113 165 214 248 298 380
#     4  10  23  36  54  91 127 160 195 262 321 354
#     4   9  18  38  59  81 118 162 203 248 309 375
#     4  10  20  38  62  87 113 159 215 252 303 376
#     4  11  21  37  63  88 119 160 210 254 307 374
#     4  10  18  35  60  87 117 157 206 250 310 369
#     4  11  23  38  59  87 127 161 205 260 310 371
#
# _framework density 21.422469
#
# number of rings (size 3 to 8) (size 9 to 14) (size 15 to 20)
#    0.000    1.714    4.286    1.286    0.000    2.286 
#    0.000    2.857    0.000    6.857    0.000    0.000 
#    0.000    0.000    0.000    0.000    0.000    0.000 
#
# Total GULP energy -155949.250492 kJ/mol
# GULP energy per Si atom -5569.616089 kJ/mol
# Density = 2.137371 g / cm^3
# Si number density = 21.422469 Si / 1000 Ang^3
#
#
#
# Elastic Constant Matrix: (Units=GPa)
#
#
# Indices 1 2 3 4 5 6 
#
# 1 39.4174 27.7742 11.5105 0.0001 -14.5217 -0.0001
# 2 27.7742 58.4982 14.3993 0.0003 -29.4733 -0.0001
# 3 11.5105 14.3993 85.9627 0.0005 -31.8685 -0.0002
# 4 0.0001 0.0003 0.0005 20.4215 -0.0002 -16.1252
# 5 -14.5217 -29.4733 -31.8685 -0.0002 30.9201 0.0001
# 6 -0.0001 -0.0001 -0.0002 -16.1252 0.0001 19.9176
#
#
#
# Elastic Compliance Matrix: (Units=1/GPa)
#
#
# Indices 1 2 3 4 5 6 
#
# 1 0.038641 -0.019462 -0.003340 0.000000 -0.003845 0.000000
# 2 -0.019462 0.048868 0.013433 -0.000001 0.051287 -0.000001
# 3 -0.003340 0.013433 0.022650 -0.000001 0.034581 0.000000
# 4 0.000000 -0.000001 -0.000001 0.135747 -0.000001 0.109900
# 5 -0.003845 0.051287 0.034581 -0.000001 0.115064 0.000000
# 6 0.000000 -0.000001 0.000000 0.109900 0.000000 0.139182
#
#
# Mechanical properties :
#
#
# Convention : Reuss Voigt Hill
#
# Bulk Modulus (GPa) = 10.93807 32.36067 21.64937
# Shear Modulus (GPa) = 9.10146 22.93146 16.01646
#
# Velocity S-wave (km/s) = 2.06344 3.27531 2.73728
# Velocity P-wave (km/s) = 3.28542 5.42607 4.48532
#
# Compressibility (1/GPa) = 0.09142381
#
# Stress axis : x y z
#
# Youngs Moduli (GPa) = 25.87917 20.46329 44.15004
#
# Poissons Ratio (x) = 0.39825 0.14744
# Poissons Ratio (y) = 0.50365 -0.59309
# Poissons Ratio (z) = 0.08643 -0.27489
#
# Static dielectric constant tensor:
#      x y z
#    x 1.843830 0.000000 0.079040 
#    y 0.000000 1.832190 0.000000 
#    z 0.079040 0.000000 1.854450 
# 
# From -- ./inp_files/222988.got.cif
#   From: 2010.05.17/outbox.cif.g08.bks.cpg/sg15_112_cif.got.tgz:222988.got - 2010.06.03 18:47:42.
