data_PCOD9259419
_publ_section_title
;
Structure prediction by ZEFSAII (Michael W. Deem and Ramdas Pophale) SiO2 
 PCOD9259419
Probable space group: C 2/C
;
_chemical_formula_sum "Si O2"
_cell_formula_units_Z 56
_cell_length_a 30.470027
_cell_length_b 8.774979
_cell_length_c 10.921112
_cell_angle_alpha 90.000000
_cell_angle_beta 117.959455
_cell_angle_gamma 90.000000
_cell_volume 2579.193831
_symmetry_space_group_name_H-M "C 2/C"
_symmetry_group_IT_number 15
_symmetry_cell_setting 'monoclinic'
loop_
_space_group_symop_operation_xyz
x,y,z
-x,y,1/2-z
-x,-y,-z
x,-y,1/2+z
1/2+x,1/2+y,z
1/2-x,1/2+y,1/2-z
1/2-x,1/2-y,-z
1/2+x,1/2-y,1/2+z
loop_
_atom_site_type_symbol
_atom_site_label
_atom_site_fract_x
_atom_site_fract_y
_atom_site_fract_z
Si Si1 0.630244 0.645841 0.856322
Si Si2 0.302653 0.913361 0.635750
Si Si3 0.297475 0.198018 0.482780
Si Si4 0.860108 0.140967 0.259032
Si Si5 0.441972 0.924555 0.697488
Si Si6 0.102090 0.555027 0.615578
Si Si7 0.797993 0.995150 0.363055
O O1 0.676846 0.748369 0.871396
O O2 0.613373 0.516274 0.739146
O O3 0.586903 0.764974 0.823496
O O4 0.653731 0.550735 0.998280
O O5 0.250521 0.938879 0.634139
O O6 0.301175 0.016502 0.508350
O O7 0.344531 0.982963 0.781010
O O8 0.250000 0.250000 0.500000
O O9 0.344735 0.262268 0.619953
O O10 0.295359 0.310736 0.362959
O O11 0.889521 0.263126 0.376895
O O12 0.808438 0.079211 0.249950
O O13 0.500000 0.905928 0.750000
O O14 0.418386 0.997042 0.542660
O O15 0.431705 0.013219 0.811251
#
# Coordination Sequence:
#
# PCOD9259419 Si02
#       7
#     8   8   8   8   8   8   8
#     4  10  21  38  57  89 126 163 215 269 324 390
#     4   9  19  35  55  91 122 171 220 262 312 386
#     4   8  17  33  48  76 114 163 212 258 296 367
#     4  10  20  37  56  86 129 168 204 265 324 385
#     4  11  23  46  72  95 125 168 219 282 333 386
#     4  10  22  44  66  97 131 161 220 274 323 393
#     4  10  18  35  57  81 127 176 213 258 321 381
#
# _framework density 21.712211
#
# number of rings (size 3 to 8) (size 9 to 14) (size 15 to 20)
#    0.000    2.286    1.429    0.857    0.000    3.429 
#   38.571    1.429    0.000    0.000    0.000    0.000 
#    0.000    0.000    0.000    0.000    0.000    0.000 
#
# Total GULP energy -156151.568307 kJ/mol
# GULP energy per Si atom -5576.841725 kJ/mol
# Density = 2.166279 g / cm^3
# Si number density = 21.712211 Si / 1000 Ang^3
#
#
#
# Elastic Constant Matrix: (Units=GPa)
#
#
# Indices 1 2 3 4 5 6 
#
# 1 114.0770 13.0973 18.4729 0.0000 -3.6345 0.0000
# 2 13.0973 100.3300 19.4543 0.0000 -12.8376 0.0000
# 3 18.4729 19.4543 66.3623 0.0000 -10.2977 0.0000
# 4 0.0000 0.0000 0.0000 22.3812 0.0000 -5.3604
# 5 -3.6345 -12.8376 -10.2977 0.0000 26.2385 0.0000
# 6 0.0000 0.0000 0.0000 -5.3604 0.0000 -3.2267
#
#
#
# Elastic Compliance Matrix: (Units=1/GPa)
#
#
# Indices 1 2 3 4 5 6 
#
# 1 0.009233 -0.000751 -0.002352 0.000000 -0.000011 0.000000
# 2 -0.000751 0.011085 -0.002359 0.000000 0.004394 0.000000
# 3 -0.002352 -0.002359 0.017235 0.000000 0.005284 0.000000
# 4 0.000000 0.000000 0.000000 0.031963 0.000000 -0.053099
# 5 -0.000011 0.004394 0.005284 0.000000 0.042334 0.000000
# 6 0.000000 0.000000 0.000000 -0.053099 0.000000 -0.221703
#
#
# Mechanical properties :
#
#
# Convention : Reuss Voigt Hill
#
# Bulk Modulus (GPa) = 37.55186 42.53536 40.04361
# Shear Modulus (GPa) = -55.52194 24.39492 -15.56351
#
# Velocity S-wave (km/s) = -5.06234 3.35559 -2.68023
# Velocity P-wave (km/s) = 4.10328 5.88611 2.98408
#
# Compressibility (1/GPa) = 0.02662984
#
# Stress axis : x y z
#
# Youngs Moduli (GPa) = 108.31118 90.21480 58.02177
#
# Poissons Ratio (x) = 0.06772 0.13645
# Poissons Ratio (y) = 0.08131 0.13686
# Poissons Ratio (z) = 0.25472 0.21279
#
# Static dielectric constant tensor:
#      x y z
#    x 1.794250 0.000000 -0.078720 
#    y 0.000000 1.841640 0.000000 
#    z -0.078720 0.000000 1.948080 
# 
# From -- ./inp_files/125632.got.cif
#   From: 2010.05.17/outbox.cif.g08.bks.cpg/sg15_63_cif.got.tgz:125632.got - 2010.06.03 18:47:42.
