data_PCOD9259782
_publ_section_title
;
Structure prediction by ZEFSAII (Michael W. Deem and Ramdas Pophale) SiO2 
 PCOD9259782
Probable space group: C 2/C
;
_chemical_formula_sum "Si O2"
_cell_formula_units_Z 44
_cell_length_a 10.296734
_cell_length_b 21.589798
_cell_length_c 10.621831
_cell_angle_alpha 90.000000
_cell_angle_beta 91.329724
_cell_angle_gamma 90.000000
_cell_volume 2360.643962
_symmetry_space_group_name_H-M "C 2/C"
_symmetry_group_IT_number 15
_symmetry_cell_setting 'monoclinic'
loop_
_space_group_symop_operation_xyz
x,y,z
-x,y,1/2-z
-x,-y,-z
x,-y,1/2+z
1/2+x,1/2+y,z
1/2-x,1/2+y,1/2-z
1/2-x,1/2-y,-z
1/2+x,1/2-y,1/2+z
loop_
_atom_site_type_symbol
_atom_site_label
_atom_site_fract_x
_atom_site_fract_y
_atom_site_fract_z
Si Si1 0.878310 0.875246 0.919174
Si Si2 0.134997 0.689633 0.300715
Si Si3 0.141375 0.096491 0.793573
Si Si4 0.530634 0.240222 0.560205
Si Si5 0.000000 0.975753 0.750000
Si Si6 0.793663 0.297037 0.196968
O O1 0.754557 0.856544 0.830357
O O2 0.968017 0.814264 0.926665
O O3 0.958980 0.931718 0.863348
O O4 0.833778 0.889170 0.060051
O O5 0.099078 0.721129 0.433133
O O6 0.182448 0.744877 0.209621
O O7 0.000000 0.661011 0.250000
O O8 0.240101 0.133718 0.708604
O O9 0.000000 0.122483 0.750000
O O10 0.119475 0.023081 0.777149
O O11 0.619735 0.215408 0.676265
O O12 0.387485 0.214120 0.581729
#
# Coordination Sequence:
#
# PCOD9259782 Si02
#       6
#     8   8   8   8   4   8
#     4  11  19  42  57  83 124 145 194 244 287 342
#     4  11  21  35  57  89 122 151 183 239 297 348
#     4  10  21  36  60  84 111 152 193 243 282 334
#     4  10  20  33  63  87 114 158 176 241 307 339
#     4  10  24  36  64  86 104 160 204 234 288 330
#     4  10  18  36  55  86 119 147 191 231 295 348
#
# _framework density 18.638981999999999
#
# number of rings (size 3 to 8) (size 9 to 14) (size 15 to 20)
#    0.545    1.091    3.636    4.364    0.000    0.727 
#    3.273    0.000    4.000    2.182    0.000    0.000 
#    0.000    0.000    0.000    0.000    0.000    0.000 
#
# Total GULP energy -122682.855977 kJ/mol
# GULP energy per Si atom -5576.493454 kJ/mol
# Density = 1.859656 g / cm^3
# Si number density = 18.638982 Si / 1000 Ang^3
#
#
#
# Elastic Constant Matrix: (Units=GPa)
#
#
# Indices 1 2 3 4 5 6 
#
# 1 53.4952 31.5896 14.2719 0.0000 -14.9267 0.0000
# 2 31.5896 114.8649 16.0391 0.0000 -12.4775 0.0000
# 3 14.2719 16.0391 42.7975 0.0000 -10.0148 0.0000
# 4 0.0000 0.0000 0.0000 12.6817 0.0000 1.2178
# 5 -14.9267 -12.4775 -10.0148 0.0000 33.1454 0.0000
# 6 0.0000 0.0000 0.0000 1.2178 0.0000 18.2583
#
#
#
# Elastic Compliance Matrix: (Units=1/GPa)
#
#
# Indices 1 2 3 4 5 6 
#
# 1 0.025366 -0.005474 -0.004537 0.000000 0.007992 0.000000
# 2 -0.005474 0.010581 -0.001921 0.000000 0.000938 0.000000
# 3 -0.004537 -0.001921 0.026850 0.000000 0.005346 0.000000
# 4 0.000000 0.000000 0.000000 0.079362 0.000000 -0.005293
# 5 0.007992 0.000938 0.005346 0.000000 0.035738 0.000000
# 6 0.000000 0.000000 0.000000 -0.005293 0.000000 0.055123
#
#
# Mechanical properties :
#
#
# Convention : Reuss Voigt Hill
#
# Bulk Modulus (GPa) = 25.68515 37.21762 31.45139
# Shear Modulus (GPa) = 18.52797 22.76754 20.64775
#
# Velocity S-wave (km/s) = 3.15627 3.49879 3.33193
# Velocity P-wave (km/s) = 5.20509 6.02769 5.63143
#
# Compressibility (1/GPa) = 0.03893300
#
# Stress axis : x y z
#
# Youngs Moduli (GPa) = 39.42223 94.50476 37.24427
#
# Poissons Ratio (x) = 0.51736 0.16899
# Poissons Ratio (y) = 0.21582 0.07153
# Poissons Ratio (z) = 0.17887 0.18150
#
# Static dielectric constant tensor:
#      x y z
#    x 1.703060 0.000000 0.020990 
#    y 0.000000 1.628560 0.000000 
#    z 0.020990 0.000000 1.657180 
# 
# From -- ./inp_files/78224.got.cif
#   From: 2010.05.17/outbox.cif.g08.bks.cpg/sg15_40_cif.got.tgz:78224.got - 2010.06.03 18:47:42.
