data_PCOD9259571
_publ_section_title
;
Structure prediction by ZEFSAII (Michael W. Deem and Ramdas Pophale) SiO2 
 PCOD9259571
Probable space group: C 2/C
;
_chemical_formula_sum "Si O2"
_cell_formula_units_Z 56
_cell_length_a 8.335221
_cell_length_b 16.527425
_cell_length_c 19.752583
_cell_angle_alpha 90.000000
_cell_angle_beta 98.878810
_cell_angle_gamma 90.000000
_cell_volume 2688.503670
_symmetry_space_group_name_H-M "C 2/C"
_symmetry_group_IT_number 15
_symmetry_cell_setting 'monoclinic'
loop_
_space_group_symop_operation_xyz
x,y,z
-x,y,1/2-z
-x,-y,-z
x,-y,1/2+z
1/2+x,1/2+y,z
1/2-x,1/2+y,1/2-z
1/2-x,1/2-y,-z
1/2+x,1/2-y,1/2+z
loop_
_atom_site_type_symbol
_atom_site_label
_atom_site_fract_x
_atom_site_fract_y
_atom_site_fract_z
Si Si1 0.758237 0.556040 0.500767
Si Si2 0.767212 0.786458 0.102414
Si Si3 0.978461 0.666603 0.030880
Si Si4 0.905985 0.953281 0.904434
Si Si5 0.752658 0.788797 0.403041
Si Si6 0.445691 0.296504 0.822923
Si Si7 0.454045 0.613209 0.825079
O O1 0.725847 0.475007 0.544880
O O2 0.587032 0.557591 0.448837
O O3 0.766098 0.629605 0.555098
O O4 0.918750 0.581126 0.466383
O O5 0.854261 0.705078 0.079005
O O6 0.694340 0.768229 0.171294
O O7 0.895644 0.857284 0.119156
O O8 0.627224 0.817734 0.043165
O O9 0.121977 0.732228 0.049239
O O10 0.883524 0.876499 0.855676
O O11 0.903748 0.028120 0.852772
O O12 0.596732 0.736698 0.375873
O O13 0.822112 0.819134 0.335467
O O14 0.500000 0.308413 0.750000
O O15 0.500000 0.608838 0.750000
#
# Coordination Sequence:
#
# PCOD9259571 Si02
#       7
#     8   8   8   8   8   8   8
#     4  10  18  35  60  88 118 153 197 249 307 375
#     4  10  22  35  60  95 115 155 203 259 308 359
#     4  10  18  35  60  89 125 145 195 265 310 356
#     4  10  22  35  60  90 115 157 201 245 310 366
#     4  10  19  34  63  83 116 159 199 245 311 358
#     4  12  22  37  60  89 117 157 213 253 290 372
#     4  10  21  40  56  80 119 163 200 240 299 372
#
# _framework density 20.829431
#
# number of rings (size 3 to 8) (size 9 to 14) (size 15 to 20)
#    0.000    1.714    2.857    2.571    0.000    3.429 
#    0.000    2.857    0.000    0.000   11.143    0.000 
#    0.000    0.000    0.000    0.000    0.000    0.000 
#
# Total GULP energy -155927.294656 kJ/mol
# GULP energy per Si atom -5568.831952 kJ/mol
# Density = 2.078202 g / cm^3
# Si number density = 20.829431 Si / 1000 Ang^3
#
#
#
# Elastic Constant Matrix: (Units=GPa)
#
#
# Indices 1 2 3 4 5 6 
#
# 1 78.2305 18.9638 8.8733 0.0000 -13.7635 0.0000
# 2 18.9638 60.6105 -3.7690 0.0000 3.6921 0.0000
# 3 8.8733 -3.7690 73.8092 0.0000 -12.3911 0.0000
# 4 0.0000 0.0000 0.0000 35.2892 0.0000 -15.6671
# 5 -13.7635 3.6921 -12.3911 0.0000 28.0256 0.0000
# 6 0.0000 0.0000 0.0000 -15.6671 0.0000 45.5466
#
#
#
# Elastic Compliance Matrix: (Units=1/GPa)
#
#
# Indices 1 2 3 4 5 6 
#
# 1 0.015598 -0.005419 -0.000806 0.000000 0.008018 0.000000
# 2 -0.005419 0.018533 0.000801 0.000000 -0.004749 0.000000
# 3 -0.000806 0.000801 0.014693 0.000000 0.005995 0.000000
# 4 0.000000 0.000000 0.000000 0.033445 0.000000 0.011504
# 5 0.008018 -0.004749 0.005995 0.000000 0.042896 0.000000
# 6 0.000000 0.000000 0.000000 0.011504 0.000000 0.025913
#
#
# Mechanical properties :
#
#
# Convention : Reuss Voigt Hill
#
# Bulk Modulus (GPa) = 26.33247 28.97626 27.65436
# Shear Modulus (GPa) = 28.63943 34.34442 31.49192
#
# Velocity S-wave (km/s) = 3.71206 4.06500 3.89253
# Velocity P-wave (km/s) = 5.57152 5.99781 5.78859
#
# Compressibility (1/GPa) = 0.03797593
#
# Stress axis : x y z
#
# Youngs Moduli (GPa) = 64.10916 53.95688 68.06133
#
# Poissons Ratio (x) = 0.29239 0.05485
# Poissons Ratio (y) = 0.34740 -0.05449
# Poissons Ratio (z) = 0.05166 -0.04320
#
# Static dielectric constant tensor:
#      x y z
#    x 1.806200 0.000000 -0.066430 
#    y 0.000000 1.767540 0.000000 
#    z -0.066430 0.000000 1.740990 
# 
# From -- ./inp_files/231598.got.cif
#   From: 2010.05.17/outbox.cif.g08.bks.cpg/sg15_116_cif.got.tgz:231598.got - 2010.06.03 18:47:42.
