data_PCOD9259535
_publ_section_title
;
Structure prediction by ZEFSAII (Michael W. Deem and Ramdas Pophale) SiO2 
 PCOD9259535
Probable space group: C 2/C
;
_chemical_formula_sum "Si O2"
_cell_formula_units_Z 56
_cell_length_a 13.056481
_cell_length_b 8.944200
_cell_length_c 22.260530
_cell_angle_alpha 90.000000
_cell_angle_beta 109.176766
_cell_angle_gamma 90.000000
_cell_volume 2455.328151
_symmetry_space_group_name_H-M "C 2/C"
_symmetry_group_IT_number 15
_symmetry_cell_setting 'monoclinic'
loop_
_space_group_symop_operation_xyz
x,y,z
-x,y,1/2-z
-x,-y,-z
x,-y,1/2+z
1/2+x,1/2+y,z
1/2-x,1/2+y,1/2-z
1/2-x,1/2-y,-z
1/2+x,1/2-y,1/2+z
loop_
_atom_site_type_symbol
_atom_site_label
_atom_site_fract_x
_atom_site_fract_y
_atom_site_fract_z
Si Si1 0.148164 0.574234 0.174192
Si Si2 0.696878 0.389922 0.218690
Si Si3 0.692704 0.155883 0.054653
Si Si4 0.423255 0.403829 0.897117
Si Si5 0.642044 0.473006 0.995335
Si Si6 0.500000 0.992609 0.250000
Si Si7 0.080683 0.243520 0.347033
Si Si8 0.500000 0.519308 0.750000
O O1 0.218580 0.441418 0.215353
O O2 0.134183 0.577609 0.099783
O O3 0.049569 0.575856 0.202308
O O4 0.216105 0.726299 0.197625
O O5 0.664869 0.512993 0.162053
O O6 0.584006 0.383111 0.231575
O O7 0.742027 0.037344 0.016197
O O8 0.807311 0.231067 0.096885
O O9 0.628316 0.301569 0.018748
O O10 0.536967 0.494656 0.932035
O O11 0.475449 0.260963 0.872012
O O12 0.368507 0.409185 0.952373
O O13 0.581080 0.879429 0.300333
O O14 0.062529 0.092217 0.306333
#
# Coordination Sequence:
#
# PCOD9259535 Si02
#       8
#     8   8   8   8   8   4   8   4
#     4  12  24  38  57  91 124 161 199 253 307 372
#     4  11  22  36  60  89 122 154 200 251 313 361
#     4  10  18  35  59  89 118 156 207 252 300 357
#     4   9  18  33  59  92 117 151 203 255 292 355
#     4   9  18  33  59  92 116 156 207 254 289 355
#     4  11  25  38  54  84 130 158 196 238 332 358
#     4   9  18  35  57  85 117 159 191 248 295 369
#     4   9  17  32  54  84 118 148 194 240 298 360
#
# _framework density 22.807542999999999
#
# number of rings (size 3 to 8) (size 9 to 14) (size 15 to 20)
#    0.000    2.000    2.857    1.286    4.000    0.000 
#    0.000    0.000    0.000    8.571    0.000    0.000 
#    0.000    0.000    0.000    0.000    0.000    0.000 
#
# Total GULP energy -155913.927097 kJ/mol
# GULP energy per Si atom -5568.354539 kJ/mol
# Density = 2.275563 g / cm^3
# Si number density = 22.807543 Si / 1000 Ang^3
#
#
#
# Elastic Constant Matrix: (Units=GPa)
#
#
# Indices 1 2 3 4 5 6 
#
# 1 77.9607 20.5129 22.8461 0.0000 -36.7687 0.0000
# 2 20.5129 31.6814 1.0489 0.0000 -16.2944 0.0000
# 3 22.8461 1.0489 88.8112 0.0000 -31.1739 0.0000
# 4 0.0000 0.0000 0.0000 24.0837 0.0000 -26.0243
# 5 -36.7687 -16.2944 -31.1739 0.0000 55.5128 0.0000
# 6 0.0000 0.0000 0.0000 -26.0243 0.0000 -43.5575
#
#
#
# Elastic Compliance Matrix: (Units=1/GPa)
#
#
# Indices 1 2 3 4 5 6 
#
# 1 0.020115 -0.007720 -0.001497 0.000000 0.010217 0.000000
# 2 -0.007720 0.041457 0.004948 0.000000 0.009834 0.000000
# 3 -0.001497 0.004948 0.014633 0.000000 0.008678 0.000000
# 4 0.000000 0.000000 0.000000 0.025232 0.000000 -0.015075
# 5 0.010217 0.009834 0.008678 0.000000 0.032540 0.000000
# 6 0.000000 0.000000 0.000000 -0.015075 0.000000 -0.013951
#
#
# Mechanical properties :
#
#
# Convention : Reuss Voigt Hill
#
# Bulk Modulus (GPa) = 14.77834 31.91878 23.34856
# Shear Modulus (GPa) = 33.08629 17.47747 25.28188
#
# Velocity S-wave (km/s) = 3.81290 2.77122 3.33301
# Velocity P-wave (km/s) = 5.08704 4.92593 5.00713
#
# Compressibility (1/GPa) = 0.06766658
#
# Stress axis : x y z
#
# Youngs Moduli (GPa) = 49.71293 24.12148 68.34063
#
# Poissons Ratio (x) = 0.18622 0.10232
# Poissons Ratio (y) = 0.38379 -0.33816
# Poissons Ratio (z) = 0.07443 -0.11936
#
# Static dielectric constant tensor:
#      x y z
#    x 1.964110 0.000000 -0.084480 
#    y 0.000000 1.835030 0.000000 
#    z -0.084480 0.000000 1.945800 
# 
# From -- ./inp_files/272865.got.cif
#   From: 2010.05.17/outbox.cif.g08.bks.cpg/sg15_137_cif.got.tgz:272865.got - 2010.06.03 18:47:42.
