data_PCOD9259588
_publ_section_title
;
Structure prediction by ZEFSAII (Michael W. Deem and Ramdas Pophale) SiO2 
 PCOD9259588
Probable space group: C 2/C
;
_chemical_formula_sum "Si O2"
_cell_formula_units_Z 48
_cell_length_a 16.047168
_cell_length_b 10.118868
_cell_length_c 14.472593
_cell_angle_alpha 90.000000
_cell_angle_beta 53.461072
_cell_angle_gamma 90.000000
_cell_volume 1888.151799
_symmetry_space_group_name_H-M "C 2/C"
_symmetry_group_IT_number 15
_symmetry_cell_setting 'monoclinic'
loop_
_space_group_symop_operation_xyz
x,y,z
-x,y,1/2-z
-x,-y,-z
x,-y,1/2+z
1/2+x,1/2+y,z
1/2-x,1/2+y,1/2-z
1/2-x,1/2-y,-z
1/2+x,1/2-y,1/2+z
loop_
_atom_site_type_symbol
_atom_site_label
_atom_site_fract_x
_atom_site_fract_y
_atom_site_fract_z
Si Si1 0.056947 0.756758 0.013455
Si Si2 0.157505 0.760858 0.256556
Si Si3 0.980247 0.330589 0.162668
Si Si4 0.777488 0.506365 0.765282
Si Si5 0.180591 0.494831 0.973294
Si Si6 0.600895 0.456982 0.130040
O O1 0.070412 0.898195 0.051855
O O2 0.948943 0.707306 0.130094
O O3 0.140516 0.646661 0.990561
O O4 0.045310 0.757559 0.910379
O O5 0.233492 0.638343 0.182687
O O6 0.130937 0.836409 0.179531
O O7 0.199244 0.871392 0.301437
O O8 0.000000 0.272187 0.250000
O O9 0.881833 0.427980 0.234922
O O10 0.084036 0.410842 0.070297
O O11 0.793426 0.460157 0.649019
O O12 0.289302 0.469194 0.953299
O O13 0.500000 0.511167 0.250000
#
# Coordination Sequence:
#
# PCOD9259588 Si02
#       6
#     8   8   8   8   8   8
#     4  10  18  36  57  94 128 165 215 284 325 389
#     4  10  19  35  62  95 135 170 214 270 344 399
#     4  11  22  36  61  92 126 177 237 265 320 401
#     4  10  20  37  60  95 129 172 216 276 333 401
#     4  10  18  35  60  95 129 164 223 282 326 388
#     4   9  20  32  61 102 129 155 212 287 347 389
#
# _framework density 25.421686000000001
#
# number of rings (size 3 to 8) (size 9 to 14) (size 15 to 20)
#    0.000    2.000    3.333    1.500    2.333    0.000 
#    0.000    0.833    0.000   17.000    8.667    3.500 
#    0.000    0.000    0.000    0.000    0.000    0.000 
#
# Total GULP energy -134093.259341 kJ/mol
# GULP energy per Si atom -5587.219139 kJ/mol
# Density = 2.536383 g / cm^3
# Si number density = 25.421686 Si / 1000 Ang^3
#
#
#
# Elastic Constant Matrix: (Units=GPa)
#
#
# Indices 1 2 3 4 5 6 
#
# 1 154.0948 48.4995 38.3587 0.0000 -9.5133 0.0000
# 2 48.4995 107.9485 15.7738 0.0000 1.6354 0.0000
# 3 38.3587 15.7738 71.4650 0.0000 -4.4769 0.0000
# 4 0.0000 0.0000 0.0000 -23.9431 0.0000 5.9672
# 5 -9.5133 1.6354 -4.4769 0.0000 47.3174 0.0000
# 6 0.0000 0.0000 0.0000 5.9672 0.0000 3.1764
#
#
#
# Elastic Compliance Matrix: (Units=1/GPa)
#
#
# Indices 1 2 3 4 5 6 
#
# 1 0.008564 -0.003319 -0.003772 0.000000 0.001480 0.000000
# 2 -0.003319 0.010872 -0.000688 0.000000 -0.001108 0.000000
# 3 -0.003772 -0.000688 0.016219 0.000000 0.000800 0.000000
# 4 0.000000 0.000000 0.000000 -0.028447 0.000000 0.053440
# 5 0.001480 -0.001108 0.000800 0.000000 0.021545 0.000000
# 6 0.000000 0.000000 0.000000 0.053440 0.000000 0.214427
#
#
# Mechanical properties :
#
#
# Convention : Reuss Voigt Hill
#
# Bulk Modulus (GPa) = 49.75367 59.86360 54.80863
# Shear Modulus (GPa) = 18.83687 20.70190 19.76939
#
# Velocity S-wave (km/s) = 2.72504 2.85676 2.79168
# Velocity P-wave (km/s) = 5.43277 5.87204 5.65667
#
# Compressibility (1/GPa) = 0.02009902
#
# Stress axis : x y z
#
# Youngs Moduli (GPa) = 116.76252 91.97796 61.65551
#
# Poissons Ratio (x) = 0.30529 0.23254
# Poissons Ratio (y) = 0.38755 0.04239
# Poissons Ratio (z) = 0.44038 0.06324
#
# Static dielectric constant tensor:
#      x y z
#    x 2.051310 0.000000 -0.025280 
#    y 0.000000 2.021630 0.000000 
#    z -0.025280 0.000000 2.002480 
# 
# From -- ./inp_files/152465.got.cif
#   From: 2010.05.17/outbox.cif.g08.bks.cpg/sg15_77_cif.got.tgz:152465.got - 2010.06.03 18:47:42.
