data_PCOD9259946
_publ_section_title
;
Structure prediction by ZEFSAII (Michael W. Deem and Ramdas Pophale) SiO2 
 PCOD9259946
Probable space group: C 2/C
;
_chemical_formula_sum "Si O2"
_cell_formula_units_Z 52
_cell_length_a 16.881858
_cell_length_b 26.365762
_cell_length_c 11.198266
_cell_angle_alpha 90.000000
_cell_angle_beta 32.976841
_cell_angle_gamma 90.000000
_cell_volume 2712.999311
_symmetry_space_group_name_H-M "C 2/C"
_symmetry_group_IT_number 15
_symmetry_cell_setting 'monoclinic'
loop_
_space_group_symop_operation_xyz
x,y,z
-x,y,1/2-z
-x,-y,-z
x,-y,1/2+z
1/2+x,1/2+y,z
1/2-x,1/2+y,1/2-z
1/2-x,1/2-y,-z
1/2+x,1/2-y,1/2+z
loop_
_atom_site_type_symbol
_atom_site_label
_atom_site_fract_x
_atom_site_fract_y
_atom_site_fract_z
Si Si1 0.336995 0.690571 0.801902
Si Si2 0.175969 0.692269 0.242865
Si Si3 0.921424 0.623819 0.473344
Si Si4 0.632283 0.651864 0.316839
Si Si5 0.500000 0.623406 0.250000
Si Si6 0.939412 0.942737 0.455753
Si Si7 0.180556 0.049341 0.851631
O O1 0.359139 0.750226 0.749785
O O2 0.480606 0.665487 0.571248
O O3 0.299809 0.679562 0.986945
O O4 0.201106 0.666149 0.903359
O O5 0.244382 0.687953 0.286875
O O6 0.043124 0.653330 0.395875
O O7 0.837289 0.574818 0.630647
O O8 0.000000 0.609876 0.250000
O O9 0.602400 0.652854 0.213940
O O10 0.656210 0.596253 0.344310
O O11 0.400869 0.588002 0.457505
O O12 0.000000 0.926390 0.250000
O O13 0.085098 0.952400 0.350534
O O14 0.842420 0.993483 0.565512
#
# Coordination Sequence:
#
# PCOD9259946 Si02
#       7
#     8   8   8   8   4   8   8
#     4  10  18  36  59  87 119 150 194 250 291 343
#     4  10  21  33  58  90 118 152 193 245 305 347
#     4  10  20  35  57  86 125 153 179 246 312 348
#     4  11  21  36  60  86 112 156 206 243 283 356
#     4  10  20  38  58  80 120 158 198 250 282 336
#     4  10  19  32  63  88 105 145 207 249 273 341
#     4  10  20  37  57  87 117 151 193 244 297 343
#
# _framework density 19.166979000000001
#
# number of rings (size 3 to 8) (size 9 to 14) (size 15 to 20)
#    0.000    1.846    3.846    2.308    2.154    2.462 
#    0.000    2.308    0.000    0.000    0.000    0.000 
#    0.000    0.000    0.000    0.000    0.000    0.000 
#
# Total GULP energy -144914.497539 kJ/mol
# GULP energy per Si atom -5573.634521 kJ/mol
# Density = 1.912335 g / cm^3
# Si number density = 19.166979 Si / 1000 Ang^3
#
#
#
# Elastic Constant Matrix: (Units=GPa)
#
#
# Indices 1 2 3 4 5 6 
#
# 1 114.0578 19.1521 25.1613 0.0004 9.3296 -0.0005
# 2 19.1521 66.9220 27.0904 0.0000 -4.9559 0.0000
# 3 25.1613 27.0904 68.9861 -0.0003 -13.2851 0.0003
# 4 0.0004 0.0000 -0.0003 26.5742 0.0001 3.2776
# 5 9.3296 -4.9559 -13.2851 0.0001 19.1367 0.0000
# 6 -0.0005 0.0000 0.0003 3.2776 0.0000 12.6156
#
#
#
# Elastic Compliance Matrix: (Units=1/GPa)
#
#
# Indices 1 2 3 4 5 6 
#
# 1 0.010952 -0.001761 -0.005101 0.000000 -0.009337 0.000001
# 2 -0.001761 0.018052 -0.006211 0.000000 0.001221 0.000000
# 3 -0.005101 -0.006211 0.021891 0.000000 0.016076 -0.000001
# 4 0.000000 0.000000 0.000000 0.038876 0.000000 -0.010100
# 5 -0.009337 0.001221 0.016076 0.000000 0.068284 -0.000001
# 6 0.000001 0.000000 -0.000001 -0.010100 -0.000001 0.081891
#
#
# Mechanical properties :
#
#
# Convention : Reuss Voigt Hill
#
# Bulk Modulus (GPa) = 40.40682 43.64149 42.02416
# Shear Modulus (GPa) = 18.22539 23.56943 20.89741
#
# Velocity S-wave (km/s) = 3.08697 3.51050 3.30552
# Velocity P-wave (km/s) = 5.81662 6.26498 6.04496
#
# Compressibility (1/GPa) = 0.02474830
#
# Stress axis : x y z
#
# Youngs Moduli (GPa) = 91.30576 55.39699 45.68041
#
# Poissons Ratio (x) = 0.09754 0.23303
# Poissons Ratio (y) = 0.16077 0.28374
# Poissons Ratio (z) = 0.46577 0.34409
#
# Static dielectric constant tensor:
#      x y z
#    x 1.716010 0.000000 0.002320 
#    y 0.000000 1.730250 0.000000 
#    z 0.002320 0.000000 1.642270 
# 
# From -- ./inp_files/43657.got.cif
#   From: 2010.05.17/outbox.cif.g08.bks.cpg/sg15_22_cif.got.tgz:43657.got - 2010.06.03 18:47:42.
