data_PCOD9259145
_publ_section_title
;
Structure prediction by ZEFSAII (Michael W. Deem and Ramdas Pophale) SiO2 
 PCOD9259145
Probable space group: C 2/C
;
_chemical_formula_sum "Si O2"
_cell_formula_units_Z 36
_cell_length_a 11.497086
_cell_length_b 16.534207
_cell_length_c 11.012203
_cell_angle_alpha 90.000000
_cell_angle_beta 43.622590
_cell_angle_gamma 90.000000
_cell_volume 1444.224331
_symmetry_space_group_name_H-M "C 2/C"
_symmetry_group_IT_number 15
_symmetry_cell_setting 'monoclinic'
loop_
_space_group_symop_operation_xyz
x,y,z
-x,y,1/2-z
-x,-y,-z
x,-y,1/2+z
1/2+x,1/2+y,z
1/2-x,1/2+y,1/2-z
1/2-x,1/2-y,-z
1/2+x,1/2-y,1/2+z
loop_
_atom_site_type_symbol
_atom_site_label
_atom_site_fract_x
_atom_site_fract_y
_atom_site_fract_z
Si Si1 0.220991 0.645578 0.605934
Si Si2 0.360060 0.189136 0.086060
Si Si3 0.500000 0.564313 0.250000
Si Si4 0.388286 0.442132 0.169834
Si Si5 0.145962 0.202604 0.473346
O O1 0.238212 0.737221 0.635971
O O2 0.115429 0.641634 0.560375
O O3 0.408438 0.622194 0.412914
O O4 0.225369 0.587051 0.719456
O O5 0.266861 0.160725 0.280118
O O6 0.532902 0.227184 0.999972
O O7 0.360776 0.501840 0.303681
O O8 0.500000 0.500000 0.000000
O O9 0.505962 0.365151 0.113626
O O10 0.250000 0.250000 0.500000
#
# Coordination Sequence:
#
# PCOD9259145 Si02
#       5
#     8   8   4   8   8
#     4   9  18  32  56  89 113 153 198 250 301 345
#     4  10  20  36  58  86 128 153 201 252 306 364
#     4  10  18  34  60  90 124 152 218 252 288 368
#     4   9  19  33  57  87 116 157 203 252 290 364
#     4  11  23  36  59  92 123 157 201 256 315 363
#
# _framework density 24.926874999999999
#
# number of rings (size 3 to 8) (size 9 to 14) (size 15 to 20)
#    0.000    2.222    0.000    4.667    6.222    4.444 
#    0.000    0.000    0.000    5.333   40.444    0.000 
#    0.000    0.000    0.000    0.000    0.000    0.000 
#
# Total GULP energy -100281.642169 kJ/mol
# GULP energy per Si atom -5571.202343 kJ/mol
# Density = 2.487014 g / cm^3
# Si number density = 24.926875 Si / 1000 Ang^3
#
#
#
# Elastic Constant Matrix: (Units=GPa)
#
#
# Indices 1 2 3 4 5 6 
#
# 1 202.7358 53.6284 23.3535 -0.0006 8.8944 0.0003
# 2 53.6284 83.4130 10.3551 -0.0003 5.8176 0.0002
# 3 23.3535 10.3551 56.9939 -0.0002 18.4710 0.0002
# 4 -0.0006 -0.0003 -0.0002 29.7914 0.0003 8.5606
# 5 8.8944 5.8176 18.4710 0.0003 32.7992 -0.0002
# 6 0.0003 0.0002 0.0002 8.5606 -0.0002 46.6384
#
#
#
# Elastic Compliance Matrix: (Units=1/GPa)
#
#
# Indices 1 2 3 4 5 6 
#
# 1 0.006126 -0.003711 -0.001848 0.000000 0.000038 0.000000
# 2 -0.003711 0.014548 -0.000749 0.000000 -0.001152 0.000000
# 3 -0.001848 -0.000749 0.022304 0.000000 -0.011927 0.000000
# 4 0.000000 0.000000 0.000000 0.035436 -0.000001 -0.006504
# 5 0.000038 -0.001152 -0.011927 -0.000001 0.037399 0.000000
# 6 0.000000 0.000000 0.000000 -0.006504 0.000000 0.022635
#
#
# Mechanical properties :
#
#
# Convention : Reuss Voigt Hill
#
# Bulk Modulus (GPa) = 32.93685 57.53518 45.23601
# Shear Modulus (GPa) = 31.02012 38.89950 34.95981
#
# Velocity S-wave (km/s) = 3.53150 3.95466 3.74905
# Velocity P-wave (km/s) = 5.46541 6.63205 6.07679
#
# Compressibility (1/GPa) = 0.03036113
#
# Stress axis : x y z
#
# Youngs Moduli (GPa) = 163.25190 68.73757 44.83426
#
# Poissons Ratio (x) = 0.25512 0.08285
# Poissons Ratio (y) = 0.60591 0.03358
# Poissons Ratio (z) = 0.30167 0.05149
#
# Static dielectric constant tensor:
#      x y z
#    x 2.282830 0.000000 0.045590 
#    y 0.000000 1.970590 0.000000 
#    z 0.045590 0.000000 2.160460 
# 
# From -- ./inp_files/86605.got.cif
#   From: 2010.05.17/outbox.cif.g08.bks.cpg/sg15_44_cif.got.tgz:86605.got - 2010.06.03 18:47:42.
