data_PCOD9259727
_publ_section_title
;
Structure prediction by ZEFSAII (Michael W. Deem and Ramdas Pophale) SiO2 
 PCOD9259727
Probable space group: C 2/C
;
_chemical_formula_sum "Si O2"
_cell_formula_units_Z 56
_cell_length_a 13.094023
_cell_length_b 19.185491
_cell_length_c 18.995627
_cell_angle_alpha 90.000000
_cell_angle_beta 33.085219
_cell_angle_gamma 90.000000
_cell_volume 2604.962480
_symmetry_space_group_name_H-M "C 2/C"
_symmetry_group_IT_number 15
_symmetry_cell_setting 'monoclinic'
loop_
_space_group_symop_operation_xyz
x,y,z
-x,y,1/2-z
-x,-y,-z
x,-y,1/2+z
1/2+x,1/2+y,z
1/2-x,1/2+y,1/2-z
1/2-x,1/2-y,-z
1/2+x,1/2-y,1/2+z
loop_
_atom_site_type_symbol
_atom_site_label
_atom_site_fract_x
_atom_site_fract_y
_atom_site_fract_z
Si Si1 0.142467 0.767644 0.987303
Si Si2 0.428670 0.472901 0.615026
Si Si3 0.481554 0.062394 0.136333
Si Si4 0.000000 0.071535 0.750000
Si Si5 0.000000 0.662090 0.250000
Si Si6 0.476480 0.859858 0.496523
Si Si7 0.240218 0.050031 0.039555
Si Si8 0.665064 0.627038 0.782025
O O1 0.317029 0.792357 0.838468
O O2 0.250000 0.750000 0.000000
O O3 0.019881 0.707793 0.019584
O O4 0.988580 0.828134 0.089197
O O5 0.500000 0.500000 0.500000
O O6 0.238312 0.430819 0.720893
O O7 0.592401 0.434385 0.563265
O O8 0.363409 0.545218 0.687884
O O9 0.565948 0.114374 0.145947
O O10 0.504787 0.081143 0.040716
O O11 0.569177 0.986122 0.098406
O O12 0.887886 0.126354 0.768723
O O13 0.857104 0.017391 0.867947
O O14 0.288082 0.888048 0.566129
O O15 0.619083 0.853148 0.347826
#
# Coordination Sequence:
#
# PCOD9259727 Si02
#       8
#     8   8   8   4   4   8   8   8
#     4  12  24  40  61  95 134 185 226 278 341 409
#     4  11  24  41  68 100 135 173 217 286 350 412
#     4  12  22  41  65  99 136 175 222 284 352 404
#     4  10  18  35  66  96 133 164 216 278 338 398
#     4  12  24  43  64 100 137 178 228 288 352 408
#     4  12  23  39  63  93 137 176 224 275 337 417
#     4  11  22  39  62 102 131 172 221 278 347 407
#     4  11  21  39  60  94 132 168 223 274 334 405
#
# _framework density 21.497430999999999
#
# number of rings (size 3 to 8) (size 9 to 14) (size 15 to 20)
#    0.000    0.571    4.286    7.286    0.000    0.000 
#    0.000    0.000    0.000    3.429    7.429    0.000 
#    0.000    0.000    0.000    0.000    0.000    0.000 
#
# Total GULP energy -155887.313301 kJ/mol
# GULP energy per Si atom -5567.404046 kJ/mol
# Density = 2.144850 g / cm^3
# Si number density = 21.497431 Si / 1000 Ang^3
#
#
#
# Elastic Constant Matrix: (Units=GPa)
#
#
# Indices 1 2 3 4 5 6 
#
# 1 89.0987 20.5650 8.0596 0.0048 -17.9355 -0.0004
# 2 20.5650 65.9391 -5.9517 0.0075 -12.9576 -0.0004
# 3 8.0596 -5.9517 72.1083 0.0084 -12.8810 0.0016
# 4 0.0048 0.0075 0.0084 26.4718 -0.0009 2.9497
# 5 -17.9355 -12.9576 -12.8810 -0.0009 28.6155 -0.0011
# 6 -0.0004 -0.0004 0.0016 2.9497 -0.0011 29.6511
#
#
#
# Elastic Compliance Matrix: (Units=1/GPa)
#
#
# Indices 1 2 3 4 5 6 
#
# 1 0.013300 -0.002854 -0.000504 -0.000001 0.006817 0.000001
# 2 -0.002854 0.017861 0.003174 -0.000005 0.007727 0.000001
# 3 -0.000504 0.003174 0.015645 -0.000006 0.008163 0.000000
# 4 -0.000001 -0.000005 -0.000006 0.038199 -0.000005 -0.003800
# 5 0.006817 0.007727 0.008163 -0.000005 0.046392 0.000002
# 6 0.000001 0.000001 0.000000 -0.003800 0.000002 0.034104
#
#
# Mechanical properties :
#
#
# Convention : Reuss Voigt Hill
#
# Bulk Modulus (GPa) = 21.53523 30.27686 25.90604
# Shear Modulus (GPa) = 27.57117 30.57923 29.07520
#
# Velocity S-wave (km/s) = 3.58513 3.77564 3.68162
# Velocity P-wave (km/s) = 5.21315 5.75516 5.49084
#
# Compressibility (1/GPa) = 0.04643554
#
# Stress axis : x y z
#
# Youngs Moduli (GPa) = 75.18756 55.98927 63.91987
#
# Poissons Ratio (x) = 0.15979 0.03224
# Poissons Ratio (y) = 0.21458 -0.20285
# Poissons Ratio (z) = 0.03793 -0.17769
#
# Static dielectric constant tensor:
#      x y z
#    x 1.822340 0.000010 0.027130 
#    y 0.000010 1.843820 0.000010 
#    z 0.027130 0.000010 1.916790 
# 
# From -- ./inp_files/155165.got.cif
#   From: 2010.05.17/outbox.cif.g08.bks.cpg/sg15_78_cif.got.tgz:155165.got - 2010.06.03 18:47:42.
