data_PCOD9259243
_publ_section_title
;
Structure prediction by ZEFSAII (Michael W. Deem and Ramdas Pophale) SiO2 
 PCOD9259243
Probable space group: C 2/C
;
_chemical_formula_sum "Si O2"
_cell_formula_units_Z 52
_cell_length_a 12.456109
_cell_length_b 8.453184
_cell_length_c 29.165776
_cell_angle_alpha 90.000000
_cell_angle_beta 139.347549
_cell_angle_gamma 90.000000
_cell_volume 2000.644950
_symmetry_space_group_name_H-M "C 2/C"
_symmetry_group_IT_number 15
_symmetry_cell_setting 'monoclinic'
loop_
_space_group_symop_operation_xyz
x,y,z
-x,y,1/2-z
-x,-y,-z
x,-y,1/2+z
1/2+x,1/2+y,z
1/2-x,1/2+y,1/2-z
1/2-x,1/2-y,-z
1/2+x,1/2-y,1/2+z
loop_
_atom_site_type_symbol
_atom_site_label
_atom_site_fract_x
_atom_site_fract_y
_atom_site_fract_z
Si Si1 0.248411 0.113026 0.763665
Si Si2 0.743205 0.482621 0.399469
Si Si3 0.460337 0.071227 0.396476
Si Si4 0.617627 0.568256 0.621178
Si Si5 0.418485 0.802848 0.175919
Si Si6 0.500000 0.309822 0.250000
Si Si7 0.216648 0.936608 0.992023
O O1 0.303439 0.964151 0.812825
O O2 0.154412 0.058711 0.687518
O O3 0.425805 0.173266 0.805495
O O4 0.149558 0.238168 0.763811
O O5 0.692794 0.666157 0.380222
O O6 0.607529 0.394045 0.324874
O O7 0.736161 0.459243 0.451250
O O8 0.913306 0.467789 0.426400
O O9 0.455006 0.254204 0.406838
O O10 0.632715 0.014228 0.431090
O O11 0.791541 0.559540 0.650513
O O12 0.473625 0.456724 0.556453
O O13 0.500000 0.748538 0.250000
O O14 0.250000 0.750000 0.000000
#
# Coordination Sequence:
#
# PCOD9259243 Si02
#       7
#     8   8   8   8   8   4   8
#     4  10  20  36  65  95 126 161 221 266 317 382
#     4  10  19  37  63  89 123 168 221 262 321 388
#     4  10  23  40  63  94 127 176 219 266 327 392
#     4  10  22  41  67  91 132 175 217 261 329 396
#     4   9  18  35  62  91 124 169 209 266 327 390
#     4  10  18  34  62  94 122 162 214 266 316 380
#     4  12  24  40  63  97 134 170 217 278 328 387
#
# _framework density 25.991619
#
# number of rings (size 3 to 8) (size 9 to 14) (size 15 to 20)
#    0.000    1.846    2.308    1.846    2.154    1.231 
#    0.000   10.000    8.462    0.000    0.000    0.000 
#    0.000    0.000    0.000    0.000    0.000    0.000 
#
# Total GULP energy -145098.361398 kJ/mol
# GULP energy per Si atom -5580.706208 kJ/mol
# Density = 2.593246 g / cm^3
# Si number density = 25.991619 Si / 1000 Ang^3
#
#
#
# Elastic Constant Matrix: (Units=GPa)
#
#
# Indices 1 2 3 4 5 6 
#
# 1 185.9233 6.5556 32.9496 0.0000 30.6191 0.0000
# 2 6.5556 53.9529 5.2368 0.0000 18.8032 0.0000
# 3 32.9496 5.2368 109.1727 0.0000 18.5045 0.0000
# 4 0.0000 0.0000 0.0000 30.2791 0.0000 6.5666
# 5 30.6191 18.8032 18.5045 0.0000 52.0043 0.0000
# 6 0.0000 0.0000 0.0000 6.5666 0.0000 21.8011
#
#
#
# Elastic Compliance Matrix: (Units=1/GPa)
#
#
# Indices 1 2 3 4 5 6 
#
# 1 0.006143 0.000548 -0.001313 0.000000 -0.003348 0.000000
# 2 0.000548 0.021265 0.000184 0.000000 -0.008077 0.000000
# 3 -0.001313 0.000184 0.010033 0.000000 -0.002863 0.000000
# 4 0.000000 0.000000 0.000000 0.035334 0.000000 -0.010643
# 5 -0.003348 -0.008077 -0.002863 0.000000 0.025139 0.000000
# 6 0.000000 0.000000 0.000000 -0.010643 0.000000 0.049075
#
#
# Mechanical properties :
#
#
# Convention : Reuss Voigt Hill
#
# Bulk Modulus (GPa) = 27.56501 48.72589 38.14545
# Shear Modulus (GPa) = 31.20221 41.10405 36.15313
#
# Velocity S-wave (km/s) = 3.46854 3.98104 3.73359
# Velocity P-wave (km/s) = 5.16424 6.31815 5.77011
#
# Compressibility (1/GPa) = 0.03627787
#
# Stress axis : x y z
#
# Youngs Moduli (GPa) = 162.77926 47.02538 99.67555
#
# Poissons Ratio (x) = -0.02576 0.13087
# Poissons Ratio (y) = -0.08917 -0.01830
# Poissons Ratio (z) = 0.21372 -0.00863
#
# Static dielectric constant tensor:
#      x y z
#    x 2.187500 0.000000 0.013150 
#    y 0.000000 2.035020 0.000000 
#    z 0.013150 0.000000 2.120120 
# 
# From -- ./inp_files/310832.got.cif
#   From: 2010.05.17/outbox.cif.g08.bks.cpg/sg15_156_cif.got.tgz:310832.got - 2010.06.03 18:47:42.
