data_PCOD9259940
_publ_section_title
;
Structure prediction by ZEFSAII (Michael W. Deem and Ramdas Pophale) SiO2 
 PCOD9259940
Probable space group: C 2/C
;
_chemical_formula_sum "Si O2"
_cell_formula_units_Z 60
_cell_length_a 21.319743
_cell_length_b 8.557365
_cell_length_c 15.339898
_cell_angle_alpha 90.000000
_cell_angle_beta 88.919868
_cell_angle_gamma 90.000000
_cell_volume 2798.126319
_symmetry_space_group_name_H-M "C 2/C"
_symmetry_group_IT_number 15
_symmetry_cell_setting 'monoclinic'
loop_
_space_group_symop_operation_xyz
x,y,z
-x,y,1/2-z
-x,-y,-z
x,-y,1/2+z
1/2+x,1/2+y,z
1/2-x,1/2+y,1/2-z
1/2-x,1/2-y,-z
1/2+x,1/2-y,1/2+z
loop_
_atom_site_type_symbol
_atom_site_label
_atom_site_fract_x
_atom_site_fract_y
_atom_site_fract_z
Si Si1 0.776896 0.500053 0.911017
Si Si2 0.250000 0.750000 0.000000
Si Si3 0.640030 0.250337 0.877978
Si Si4 0.069394 0.055475 0.520685
Si Si5 0.849909 0.798450 0.902124
Si Si6 0.370635 0.235448 0.342746
Si Si7 0.302570 0.500053 0.250639
Si Si8 0.573669 0.083501 0.731454
O O1 0.811242 0.652790 0.940915
O O2 0.817457 0.333686 0.912703
O O3 0.758107 0.520038 0.810211
O O4 0.725609 0.434017 0.977331
O O5 0.204388 0.690150 0.918135
O O6 0.654456 0.394939 0.813332
O O7 0.608649 0.117205 0.820831
O O8 0.592380 0.318710 0.949804
O O9 0.081730 0.147711 0.611254
O O10 0.112080 0.901829 0.530868
O O11 0.000000 0.000000 0.500000
O O12 0.901157 0.712328 0.837961
O O13 0.804920 0.901633 0.840146
O O14 0.332182 0.333308 0.273000
O O15 0.405195 0.083910 0.306381
O O16 0.500000 0.092898 0.750000
#
# Coordination Sequence:
#
# PCOD9259940 Si02
#       8
#     8   4   8   8   8   8   8   8
#     4  10  18  36  59  85 118 156 199 245 306 360
#     4  10  20  38  58  86 124 156 190 258 310 366
#     4  10  21  40  59  85 119 161 198 249 316 357
#     4  11  22  40  61  86 123 162 199 253 311 366
#     4   9  20  37  58  88 116 156 208 238 300 373
#     4  10  21  38  58  89 118 154 208 246 306 364
#     4   9  19  35  60  83 117 155 198 246 301 364
#     4  10  21  40  61  86 118 159 207 255 298 367
#
# _framework density 21.442920000000001
#
# number of rings (size 3 to 8) (size 9 to 14) (size 15 to 20)
#    0.000    2.133    1.333    1.600    0.000    2.133 
#    7.200    4.667    0.000    0.000    0.000    0.000 
#    0.000    0.000    0.000    0.000    0.000    0.000 
#
# Total GULP energy -167065.312558 kJ/mol
# GULP energy per Si atom -5568.843752 kJ/mol
# Density = 2.139412 g / cm^3
# Si number density = 21.442920 Si / 1000 Ang^3
#
#
#
# Elastic Constant Matrix: (Units=GPa)
#
#
# Indices 1 2 3 4 5 6 
#
# 1 97.5421 41.1246 24.6717 0.0000 22.7309 0.0000
# 2 41.1246 99.1837 25.1510 0.0000 16.4552 0.0000
# 3 24.6717 25.1510 72.7179 0.0000 21.0096 0.0000
# 4 0.0000 0.0000 0.0000 28.8791 0.0000 6.0556
# 5 22.7309 16.4552 21.0096 0.0000 34.4129 0.0000
# 6 0.0000 0.0000 0.0000 6.0556 0.0000 30.3898
#
#
#
# Elastic Compliance Matrix: (Units=1/GPa)
#
#
# Indices 1 2 3 4 5 6 
#
# 1 0.013905 -0.004375 -0.001403 0.000000 -0.006236 0.000000
# 2 -0.004375 0.012804 -0.002441 0.000000 -0.001743 0.000000
# 3 -0.001403 -0.002441 0.017565 0.000000 -0.008630 0.000000
# 4 0.000000 0.000000 0.000000 0.036137 0.000000 -0.007201
# 5 -0.006236 -0.001743 -0.008630 0.000000 0.039280 0.000000
# 6 0.000000 0.000000 0.000000 -0.007201 0.000000 0.034341
#
#
# Mechanical properties :
#
#
# Convention : Reuss Voigt Hill
#
# Bulk Modulus (GPa) = 35.92290 50.14871 43.03581
# Shear Modulus (GPa) = 27.81671 30.63613 29.22642
#
# Velocity S-wave (km/s) = 3.60564 3.78395 3.69587
# Velocity P-wave (km/s) = 5.84152 6.52142 6.19081
#
# Compressibility (1/GPa) = 0.02783740
#
# Stress axis : x y z
#
# Youngs Moduli (GPa) = 71.91904 78.09844 56.93041
#
# Poissons Ratio (x) = 0.34168 0.07985
# Poissons Ratio (y) = 0.31464 0.13896
# Poissons Ratio (z) = 0.10087 0.19063
#
# Static dielectric constant tensor:
#      x y z
#    x 1.360950 0.000000 0.363060 
#    y 0.000000 1.745650 0.000000 
#    z 0.363060 0.000000 1.532600 
# 
# From -- ./inp_files/171932.got.cif
#   From: 2010.05.17/outbox.cif.g08.bks.cpg/sg15_86_cif.got.tgz:171932.got - 2010.06.03 18:47:42.
