data_PCOD9259283
_publ_section_title
;
Structure prediction by ZEFSAII (Michael W. Deem and Ramdas Pophale) SiO2 
 PCOD9259283
Probable space group: C 2/C
;
_chemical_formula_sum "Si O2"
_cell_formula_units_Z 60
_cell_length_a 15.812738
_cell_length_b 7.400381
_cell_length_c 23.807848
_cell_angle_alpha 90.000000
_cell_angle_beta 119.599718
_cell_angle_gamma 90.000000
_cell_volume 2422.420671
_symmetry_space_group_name_H-M "C 2/C"
_symmetry_group_IT_number 15
_symmetry_cell_setting 'monoclinic'
loop_
_space_group_symop_operation_xyz
x,y,z
-x,y,1/2-z
-x,-y,-z
x,-y,1/2+z
1/2+x,1/2+y,z
1/2-x,1/2+y,1/2-z
1/2-x,1/2-y,-z
1/2+x,1/2-y,1/2+z
loop_
_atom_site_type_symbol
_atom_site_label
_atom_site_fract_x
_atom_site_fract_y
_atom_site_fract_z
Si Si1 0.500000 0.495715 0.250000
Si Si2 0.978655 0.403780 0.307717
Si Si3 0.682879 0.923158 0.902389
Si Si4 0.680053 0.616906 0.639217
Si Si5 0.788871 0.950932 0.156929
Si Si6 0.769894 0.940432 0.536103
Si Si7 0.212092 0.655988 0.250232
Si Si8 0.500010 0.515260 0.128692
O O1 0.389541 0.557810 0.200737
O O2 0.516127 0.407231 0.193203
O O3 0.074598 0.502505 0.360766
O O4 0.000000 0.351022 0.250000
O O5 0.886708 0.538194 0.274926
O O6 0.969817 0.220618 0.341835
O O7 0.689256 0.732158 0.873805
O O8 0.758210 0.054491 0.893684
O O9 0.713006 0.924698 0.976771
O O10 0.707570 0.464287 0.693874
O O11 0.713709 0.797275 0.684159
O O12 0.563888 0.586207 0.602189
O O13 0.770473 0.841266 0.208482
O O14 0.731580 0.052856 0.087853
O O15 0.750000 0.750000 0.500000
O O16 0.886673 0.972004 0.574962
#
# Coordination Sequence:
#
# PCOD9259283 Si02
#       8
#     4   8   8   8   8   8   8   8
#     4  10  18  34  64  96 120 156 214 264 314 374
#     4  12  21  39  68  97 127 167 221 269 314 386
#     4  11  24  42  65  93 131 171 218 262 323 390
#     4  11  24  39  64  98 135 170 198 276 342 388
#     4  10  20  37  63  94 123 160 215 269 312 374
#     4  11  24  42  63  94 127 176 226 266 307 385
#     4  11  23  39  65  99 136 160 217 266 342 386
#     4  11  23  37  66  94 130 170 214 269 319 381
#
# _framework density 24.768612000000001
#
# number of rings (size 3 to 8) (size 9 to 14) (size 15 to 20)
#    0.000    1.067    6.000    2.000    1.867    1.600 
#    0.000    0.000    0.000    4.000    0.000    0.000 
#    0.000    0.000    0.000    0.000    0.000    0.000 
#
# Total GULP energy -167186.976783 kJ/mol
# GULP energy per Si atom -5572.899226 kJ/mol
# Density = 2.471224 g / cm^3
# Si number density = 24.768612 Si / 1000 Ang^3
#
#
#
# Elastic Constant Matrix: (Units=GPa)
#
#
# Indices 1 2 3 4 5 6 
#
# 1 68.7071 -29.8064 14.1923 0.0000 -0.6840 0.0000
# 2 -29.8064 32.9739 -8.9566 0.0000 -0.8217 0.0000
# 3 14.1923 -8.9566 148.7745 0.0000 -8.2628 0.0000
# 4 0.0000 0.0000 0.0000 43.6484 0.0000 3.9414
# 5 -0.6840 -0.8217 -8.2628 0.0000 52.0901 0.0000
# 6 0.0000 0.0000 0.0000 3.9414 0.0000 22.1067
#
#
#
# Elastic Compliance Matrix: (Units=1/GPa)
#
#
# Indices 1 2 3 4 5 6 
#
# 1 0.024104 0.021536 -0.000975 0.000000 0.000502 0.000000
# 2 0.021536 0.050105 0.001031 0.000000 0.001237 0.000000
# 3 -0.000975 0.001031 0.006938 0.000000 0.001104 0.000000
# 4 0.000000 0.000000 0.000000 0.023285 0.000000 -0.004151
# 5 0.000502 0.001237 0.001104 0.000000 0.019399 0.000000
# 6 0.000000 0.000000 0.000000 -0.004151 0.000000 0.045975
#
#
# Mechanical properties :
#
#
# Convention : Reuss Voigt Hill
#
# Bulk Modulus (GPa) = 8.04314 22.36823 15.20569
# Shear Modulus (GPa) = 29.75028 41.90412 35.82720
#
# Velocity S-wave (km/s) = 3.46949 4.11764 3.80738
# Velocity P-wave (km/s) = 4.39365 5.62646 5.04783
#
# Compressibility (1/GPa) = 0.12432950
#
# Stress axis : x y z
#
# Youngs Moduli (GPa) = 41.48762 19.95814 144.13464
#
# Poissons Ratio (x) = -0.42982 0.14053
# Poissons Ratio (y) = -0.89347 -0.14856
# Poissons Ratio (z) = 0.04045 -0.02057
#
# Static dielectric constant tensor:
#      x y z
#    x 2.087240 0.000000 -0.088160 
#    y 0.000000 2.338400 0.000000 
#    z -0.088160 0.000000 1.934770 
# 
# From -- ./inp_files/298412.got.cif
#   From: 2010.05.17/outbox.cif.g08.bks.cpg/sg15_150_cif.got.tgz:298412.got - 2010.06.03 18:47:42.
