data_PCOD9259466
_publ_section_title
;
Structure prediction by ZEFSAII (Michael W. Deem and Ramdas Pophale) SiO2 
 PCOD9259466
Probable space group: C 2/C
;
_chemical_formula_sum "Si O2"
_cell_formula_units_Z 48
_cell_length_a 8.685295
_cell_length_b 17.337784
_cell_length_c 14.230476
_cell_angle_alpha 90.000000
_cell_angle_beta 116.600980
_cell_angle_gamma 90.000000
_cell_volume 1916.047663
_symmetry_space_group_name_H-M "C 2/C"
_symmetry_group_IT_number 15
_symmetry_cell_setting 'monoclinic'
loop_
_space_group_symop_operation_xyz
x,y,z
-x,y,1/2-z
-x,-y,-z
x,-y,1/2+z
1/2+x,1/2+y,z
1/2-x,1/2+y,1/2-z
1/2-x,1/2-y,-z
1/2+x,1/2-y,1/2+z
loop_
_atom_site_type_symbol
_atom_site_label
_atom_site_fract_x
_atom_site_fract_y
_atom_site_fract_z
Si Si1 0.776117 0.087411 0.594799
Si Si2 0.809188 0.556419 0.207089
Si Si3 0.506379 0.273647 0.137034
Si Si4 0.807470 0.383780 0.209533
Si Si5 0.944198 0.076357 0.128286
Si Si6 0.906517 0.609442 0.426975
O O1 0.746573 0.102463 0.696892
O O2 0.907614 0.016484 0.613026
O O3 0.586313 0.071615 0.504197
O O4 0.848414 0.168287 0.574737
O O5 0.810004 0.469915 0.167444
O O6 0.627407 0.592423 0.126093
O O7 0.817380 0.557008 0.322540
O O8 0.000000 0.591508 0.250000
O O9 0.500000 0.264343 0.250000
O O10 0.668022 0.322413 0.142772
O O11 0.534084 0.192020 0.095485
O O12 0.000000 0.353117 0.250000
O O13 0.000000 0.100360 0.250000
O O14 0.761500 0.115173 0.051235
#
# Coordination Sequence:
#
# PCOD9259466 Si02
#       6
#     8   8   8   8   8   8
#     4  11  19  38  58  87 119 160 199 249 307 353
#     4  10  20  37  58  85 115 155 204 245 291 364
#     4  10  21  39  60  82 122 168 201 236 301 366
#     4  10  20  36  60  81 110 160 209 236 295 373
#     4  10  18  35  58  83 115 157 198 243 296 366
#     4  11  22  33  60  92 119 147 206 259 299 338
#
# _framework density 25.051570999999999
#
# number of rings (size 3 to 8) (size 9 to 14) (size 15 to 20)
#    0.000    1.667    5.000    2.000    0.000    2.000 
#    0.000    3.333    0.000    0.000    0.000    0.000 
#    0.000    0.000    0.000    0.000    0.000    0.000 
#
# Total GULP energy -133732.912536 kJ/mol
# GULP energy per Si atom -5572.204689 kJ/mol
# Density = 2.499455 g / cm^3
# Si number density = 25.051571 Si / 1000 Ang^3
#
#
#
# Elastic Constant Matrix: (Units=GPa)
#
#
# Indices 1 2 3 4 5 6 
#
# 1 146.4619 42.6600 40.4217 0.0000 60.5351 0.0000
# 2 42.6600 111.0605 12.8879 0.0000 9.8217 0.0000
# 3 40.4217 12.8879 61.5467 0.0000 30.0035 0.0000
# 4 0.0000 0.0000 0.0000 18.5353 0.0000 0.9761
# 5 60.5351 9.8217 30.0035 0.0000 60.0649 0.0000
# 6 0.0000 0.0000 0.0000 0.9761 0.0000 28.2883
#
#
#
# Elastic Compliance Matrix: (Units=1/GPa)
#
#
# Indices 1 2 3 4 5 6 
#
# 1 0.013454 -0.003861 -0.002281 0.000000 -0.011789 0.000000
# 2 -0.003861 0.010360 -0.000932 0.000000 0.002662 0.000000
# 3 -0.002281 -0.000932 0.022136 0.000000 -0.008607 0.000000
# 4 0.000000 0.000000 0.000000 0.054049 0.000000 -0.001865
# 5 -0.011789 0.002662 -0.008607 0.000000 0.032394 0.000000
# 6 0.000000 0.000000 0.000000 -0.001865 0.000000 0.035415
#
#
# Mechanical properties :
#
#
# Convention : Reuss Voigt Hill
#
# Bulk Modulus (GPa) = 31.44233 56.77869 44.11051
# Shear Modulus (GPa) = 25.96647 36.25100 31.10874
#
# Velocity S-wave (km/s) = 3.22300 3.80814 3.52772
# Velocity P-wave (km/s) = 5.14087 6.48459 5.85143
#
# Compressibility (1/GPa) = 0.03180426
#
# Stress axis : x y z
#
# Youngs Moduli (GPa) = 74.32571 96.52757 45.17428
#
# Poissons Ratio (x) = 0.37267 0.10303
# Poissons Ratio (y) = 0.28695 0.04208
# Poissons Ratio (z) = 0.16952 0.08992
#
# Static dielectric constant tensor:
#      x y z
#    x 2.387610 0.000000 -0.106720 
#    y 0.000000 1.962230 0.000000 
#    z -0.106720 0.000000 2.037980 
# 
# From -- ./inp_files/232872.got.cif
#   From: 2010.05.17/outbox.cif.g08.bks.cpg/sg15_117_cif.got.tgz:232872.got - 2010.06.03 18:47:42.
