data_PCOD9259111
_publ_section_title
;
Structure prediction by ZEFSAII (Michael W. Deem and Ramdas Pophale) SiO2 
 PCOD9259111
Probable space group: C 2/C
;
_chemical_formula_sum "Si O2"
_cell_formula_units_Z 56
_cell_length_a 15.804402
_cell_length_b 8.985494
_cell_length_c 29.202958
_cell_angle_alpha 90.000000
_cell_angle_beta 133.912696
_cell_angle_gamma 90.000000
_cell_volume 2987.576497
_symmetry_space_group_name_H-M "C 2/C"
_symmetry_group_IT_number 15
_symmetry_cell_setting 'monoclinic'
loop_
_space_group_symop_operation_xyz
x,y,z
-x,y,1/2-z
-x,-y,-z
x,-y,1/2+z
1/2+x,1/2+y,z
1/2-x,1/2+y,1/2-z
1/2-x,1/2-y,-z
1/2+x,1/2-y,1/2+z
loop_
_atom_site_type_symbol
_atom_site_label
_atom_site_fract_x
_atom_site_fract_y
_atom_site_fract_z
Si Si1 0.206118 0.918773 0.973514
Si Si2 0.734721 0.228966 0.333848
Si Si3 0.047104 0.285423 0.313889
Si Si4 0.654588 0.928569 0.897209
Si Si5 0.532346 0.696585 0.688165
Si Si6 0.065362 0.089858 0.152663
Si Si7 0.312112 0.503030 0.135030
O O1 0.241109 0.972612 0.935424
O O2 0.064407 0.916981 0.918592
O O3 0.250000 0.750000 0.000000
O O4 0.255717 0.037127 0.028386
O O5 0.711731 0.140300 0.372555
O O6 0.620424 0.232379 0.257862
O O7 0.840051 0.157660 0.345430
O O8 0.760278 0.400534 0.357952
O O9 0.102992 0.411093 0.365586
O O10 0.143935 0.164732 0.334035
O O11 0.000000 0.356512 0.250000
O O12 0.954388 0.194442 0.310037
O O13 0.545400 0.819485 0.867069
O O14 0.597647 0.577080 0.680756
O O15 0.432476 0.593150 0.674398
#
# Coordination Sequence:
#
# PCOD9259111 Si02
#       7
#     8   8   8   8   8   8   8
#     4  10  19  40  61  83 116 155 212 234 280 362
#     4  11  22  37  56  92 122 145 193 253 309 345
#     4  10  18  34  60  84 107 157 201 229 290 355
#     4  11  20  35  63  84 113 154 202 243 279 358
#     4   9  20  37  56  85 117 153 195 236 294 363
#     4  10  23  39  59  83 122 158 183 255 301 343
#     4   9  18  35  61  81 114 160 193 242 286 357
#
# _framework density 18.744288999999998
#
# number of rings (size 3 to 8) (size 9 to 14) (size 15 to 20)
#    0.000    2.286    2.857    4.286    0.000    8.000 
#    0.000    2.143    0.000    0.000    0.000    0.000 
#    0.000    0.000    0.000    0.000    0.000    0.000 
#
# Total GULP energy -156010.382479 kJ/mol
# GULP energy per Si atom -5571.799374 kJ/mol
# Density = 1.870163 g / cm^3
# Si number density = 18.744289 Si / 1000 Ang^3
#
#
#
# Elastic Constant Matrix: (Units=GPa)
#
#
# Indices 1 2 3 4 5 6 
#
# 1 69.2425 23.0024 16.2654 0.0000 -10.6506 0.0000
# 2 23.0024 66.2768 -2.1289 0.0000 3.7372 0.0000
# 3 16.2654 -2.1289 99.8714 0.0000 -8.0252 0.0000
# 4 0.0000 0.0000 0.0000 35.1307 0.0000 -7.4544
# 5 -10.6506 3.7372 -8.0252 0.0000 11.5113 0.0000
# 6 0.0000 0.0000 0.0000 -7.4544 0.0000 37.5649
#
#
#
# Elastic Compliance Matrix: (Units=1/GPa)
#
#
# Indices 1 2 3 4 5 6 
#
# 1 0.020905 -0.008488 -0.001917 0.000000 0.020761 0.000000
# 2 -0.008488 0.018816 0.000701 0.000000 -0.013473 0.000000
# 3 -0.001917 0.000701 0.010783 0.000000 0.005516 0.000000
# 4 0.000000 0.000000 0.000000 0.029716 0.000000 0.005897
# 5 0.020761 -0.013473 0.005516 0.000000 0.114300 0.000000
# 6 0.000000 0.000000 0.000000 0.005897 0.000000 0.027791
#
#
# Mechanical properties :
#
#
# Convention : Reuss Voigt Hill
#
# Bulk Modulus (GPa) = 32.15821 34.40762 33.28291
# Shear Modulus (GPa) = 19.83444 30.05817 24.94631
#
# Velocity S-wave (km/s) = 3.25647 4.00883 3.65207
# Velocity P-wave (km/s) = 5.59758 6.31061 5.96476
#
# Compressibility (1/GPa) = 0.03109626
#
# Stress axis : x y z
#
# Youngs Moduli (GPa) = 47.83434 53.14537 92.73558
#
# Poissons Ratio (x) = 0.45109 0.17781
# Poissons Ratio (y) = 0.40601 -0.06499
# Poissons Ratio (z) = 0.09172 -0.03724
#
# Static dielectric constant tensor:
#      x y z
#    x 1.669090 0.000000 -0.059510 
#    y 0.000000 1.695950 0.000000 
#    z -0.059510 0.000000 1.951500 
# 
# From -- ./inp_files/315543.got.cif
#   From: 2010.05.17/outbox.cif.g08.bks.cpg/sg15_158_cif.got.tgz:315543.got - 2010.06.03 18:47:42.
