data_PCOD9259405
_publ_section_title
;
Structure prediction by ZEFSAII (Michael W. Deem and Ramdas Pophale) SiO2 
 PCOD9259405
Probable space group: C 2/C
;
_chemical_formula_sum "Si O2"
_cell_formula_units_Z 56
_cell_length_a 10.464058
_cell_length_b 23.029715
_cell_length_c 17.880931
_cell_angle_alpha 90.000000
_cell_angle_beta 45.547397
_cell_angle_gamma 90.000000
_cell_volume 3075.910096
_symmetry_space_group_name_H-M "C 2/C"
_symmetry_group_IT_number 15
_symmetry_cell_setting 'monoclinic'
loop_
_space_group_symop_operation_xyz
x,y,z
-x,y,1/2-z
-x,-y,-z
x,-y,1/2+z
1/2+x,1/2+y,z
1/2-x,1/2+y,1/2-z
1/2-x,1/2-y,-z
1/2+x,1/2-y,1/2+z
loop_
_atom_site_type_symbol
_atom_site_label
_atom_site_fract_x
_atom_site_fract_y
_atom_site_fract_z
Si Si1 0.000000 0.541193 0.250000
Si Si2 0.000000 0.861753 0.750000
Si Si3 0.658283 0.144367 0.629712
Si Si4 0.183324 0.943615 0.218025
Si Si5 0.658551 0.461643 0.403665
Si Si6 0.528907 0.140190 0.955093
Si Si7 0.666132 0.068354 0.336373
Si Si8 0.223416 0.732139 0.425371
O O1 0.836841 0.499930 0.341372
O O2 0.926509 0.574805 0.206968
O O3 0.135688 0.902183 0.741924
O O4 0.133594 0.818088 0.652074
O O5 0.500000 0.124481 0.750000
O O6 0.818638 0.098893 0.563711
O O7 0.576405 0.141303 0.580577
O O8 0.724182 0.206786 0.633558
O O9 0.144188 0.944466 0.322513
O O10 0.279769 0.885932 0.146711
O O11 0.000000 0.953289 0.250000
O O12 0.310365 0.999981 0.156625
O O13 0.500000 0.500000 0.500000
O O14 0.448154 0.097876 0.051175
O O15 0.473549 0.204779 0.007209
O O16 0.250000 0.750000 0.500000
#
# Coordination Sequence:
#
# PCOD9259405 Si02
#       8
#     4   4   8   8   8   8   8   8
#     4  10  22  39  54  86 124 167 198 248 292 370
#     4  10  18  35  56  94 118 149 204 254 292 368
#     4  11  18  38  61  90 117 151 195 255 306 341
#     4  11  22  35  54  83 118 165 196 240 297 363
#     4  11  24  37  59  90 123 160 203 243 301 368
#     4  10  21  35  57  88 115 150 197 251 299 357
#     4  10  21  36  57  83 125 159 201 244 304 356
#     4   9  20  32  60  89 111 147 196 259 304 343
#
# _framework density 18.205992999999999
#
# number of rings (size 3 to 8) (size 9 to 14) (size 15 to 20)
#    0.000    1.714    3.571    1.286    4.000    3.429 
#    0.000    0.000    0.000    0.857   35.286    0.000 
#    0.000    0.000    0.000    0.000    0.000    0.000 
#
# Total GULP energy -155881.657683 kJ/mol
# GULP energy per Si atom -5567.202060 kJ/mol
# Density = 1.816456 g / cm^3
# Si number density = 18.205993 Si / 1000 Ang^3
#
#
#
# Elastic Constant Matrix: (Units=GPa)
#
#
# Indices 1 2 3 4 5 6 
#
# 1 98.2884 22.5214 28.9248 0.0000 6.9798 0.0000
# 2 22.5214 61.1970 22.5054 0.0000 -6.1021 0.0000
# 3 28.9248 22.5054 68.6518 0.0000 -9.5825 0.0000
# 4 0.0000 0.0000 0.0000 27.1600 0.0000 -5.8608
# 5 6.9798 -6.1021 -9.5825 0.0000 27.2473 0.0000
# 6 0.0000 0.0000 0.0000 -5.8608 0.0000 17.8822
#
#
#
# Elastic Compliance Matrix: (Units=1/GPa)
#
#
# Indices 1 2 3 4 5 6 
#
# 1 0.012888 -0.003446 -0.005120 0.000000 -0.005874 0.000000
# 2 -0.003446 0.019619 -0.004462 0.000000 0.003707 0.000000
# 3 -0.005120 -0.004462 0.019171 0.000000 0.007054 0.000000
# 4 0.000000 0.000000 0.000000 0.039621 0.000000 0.012985
# 5 -0.005874 0.003707 0.007054 0.000000 0.041517 0.000000
# 6 0.000000 0.000000 0.000000 0.012985 0.000000 0.060177
#
#
# Mechanical properties :
#
#
# Convention : Reuss Voigt Hill
#
# Bulk Modulus (GPa) = 39.02955 41.78226 40.40590
# Shear Modulus (GPa) = 21.96933 24.73695 23.35314
#
# Velocity S-wave (km/s) = 3.47754 3.69009 3.58539
# Velocity P-wave (km/s) = 6.13259 6.41523 6.27550
#
# Compressibility (1/GPa) = 0.02562161
#
# Stress axis : x y z
#
# Youngs Moduli (GPa) = 77.59436 50.96999 52.16183
#
# Poissons Ratio (x) = 0.17562 0.26708
# Poissons Ratio (y) = 0.26735 0.23277
# Poissons Ratio (z) = 0.39730 0.22745
#
# Static dielectric constant tensor:
#      x y z
#    x 1.619800 0.000000 -0.009870 
#    y 0.000000 1.716360 0.000000 
#    z -0.009870 0.000000 1.696870 
# 
# From -- ./inp_files/137774.got.cif
#   From: 2010.05.17/outbox.cif.g08.bks.cpg/sg15_69_cif.got.tgz:137774.got - 2010.06.03 18:47:42.
