data_PCOD9259856
_publ_section_title
;
Structure prediction by ZEFSAII (Michael W. Deem and Ramdas Pophale) SiO2 
 PCOD9259856
Probable space group: C 2/C
;
_chemical_formula_sum "Si O2"
_cell_formula_units_Z 52
_cell_length_a 14.411103
_cell_length_b 10.695380
_cell_length_c 27.252665
_cell_angle_alpha 90.000000
_cell_angle_beta 37.238081
_cell_angle_gamma 90.000000
_cell_volume 2541.850157
_symmetry_space_group_name_H-M "C 2/C"
_symmetry_group_IT_number 15
_symmetry_cell_setting 'monoclinic'
loop_
_space_group_symop_operation_xyz
x,y,z
-x,y,1/2-z
-x,-y,-z
x,-y,1/2+z
1/2+x,1/2+y,z
1/2-x,1/2+y,1/2-z
1/2-x,1/2-y,-z
1/2+x,1/2-y,1/2+z
loop_
_atom_site_type_symbol
_atom_site_label
_atom_site_fract_x
_atom_site_fract_y
_atom_site_fract_z
Si Si1 0.412796 0.070858 0.962087
Si Si2 0.829453 0.398283 0.608997
Si Si3 0.524582 0.817767 0.324134
Si Si4 0.000000 0.887501 0.750000
Si Si5 0.669988 0.625465 0.845133
Si Si6 0.809307 0.118537 0.995303
Si Si7 0.855632 0.546548 0.338359
O O1 0.454873 0.183119 0.907700
O O2 0.553964 0.972886 0.905705
O O3 0.271551 0.994327 0.999433
O O4 0.384221 0.105423 0.030028
O O5 0.660539 0.457978 0.682744
O O6 0.818154 0.255101 0.630028
O O7 0.498989 0.699637 0.299464
O O8 0.705648 0.850593 0.250075
O O9 0.439785 0.931845 0.331596
O O10 0.741194 0.513456 0.846959
O O11 0.491250 0.606718 0.911484
O O12 0.747317 0.113993 0.077495
O O13 0.750000 0.250000 0.000000
O O14 0.000000 0.612432 0.250000
#
# Coordination Sequence:
#
# PCOD9259856 Si02
#       7
#     8   8   8   4   8   8   8
#     4  10  22  36  55  79 113 146 176 214 277 325
#     4  10  20  37  57  78 111 146 173 224 272 319
#     4   9  17  34  57  80 105 137 182 225 262 313
#     4  10  18  36  62  78 102 142 182 230 266 306
#     4  10  18  36  58  79 107 139 180 223 269 312
#     4  11  21  34  55  81 110 141 176 219 268 322
#     4   9  17  35  58  78 102 141 179 221 264 315
#
# _framework density 20.457539000000001
#
# number of rings (size 3 to 8) (size 9 to 14) (size 15 to 20)
#    0.000    2.154    5.385    0.462    0.000    1.846 
#    0.000    1.538    5.077    0.000    0.000    0.000 
#    0.000    0.000    0.000    0.000    0.000    0.000 
#
# Total GULP energy -145002.193305 kJ/mol
# GULP energy per Si atom -5577.007435 kJ/mol
# Density = 2.041098 g / cm^3
# Si number density = 20.457539 Si / 1000 Ang^3
#
#
#
# Elastic Constant Matrix: (Units=GPa)
#
#
# Indices 1 2 3 4 5 6 
#
# 1 81.0938 -0.1519 38.1907 0.0000 -35.2806 0.0000
# 2 -0.1519 18.3163 7.5574 0.0000 -1.8859 0.0000
# 3 38.1907 7.5574 62.3100 0.0000 -33.3095 0.0000
# 4 0.0000 0.0000 0.0000 14.5787 0.0000 -0.7182
# 5 -35.2806 -1.8859 -33.3095 0.0000 52.9236 0.0000
# 6 0.0000 0.0000 0.0000 -0.7182 0.0000 8.1966
#
#
#
# Elastic Compliance Matrix: (Units=1/GPa)
#
#
# Indices 1 2 3 4 5 6 
#
# 1 0.019792 0.004438 -0.008336 0.000000 0.008105 0.000000
# 2 0.004438 0.058907 -0.010792 0.000000 -0.001735 0.000000
# 3 -0.008336 -0.010792 0.029072 0.000000 0.012356 0.000000
# 4 0.000000 0.000000 0.000000 0.068891 0.000000 0.006036
# 5 0.008105 -0.001735 0.012356 0.000000 0.032014 0.000000
# 6 0.000000 0.000000 0.000000 0.006036 0.000000 0.122531
#
#
# Mechanical properties :
#
#
# Convention : Reuss Voigt Hill
#
# Bulk Modulus (GPa) = 12.75651 28.10138 20.42895
# Shear Modulus (GPa) = 12.92933 22.88135 17.90534
#
# Velocity S-wave (km/s) = 2.51670 3.34800 2.96166
# Velocity P-wave (km/s) = 3.83330 5.35833 4.65864
#
# Compressibility (1/GPa) = 0.07839132
#
# Stress axis : x y z
#
# Youngs Moduli (GPa) = 50.52584 16.97585 34.39701
#
# Poissons Ratio (x) = -0.07534 0.28673
# Poissons Ratio (y) = -0.22424 0.37122
# Poissons Ratio (z) = 0.42118 0.18321
#
# Static dielectric constant tensor:
#      x y z
#    x 1.754450 0.000000 -0.019060 
#    y 0.000000 1.721190 0.000000 
#    z -0.019060 0.000000 1.792690 
# 
# From -- ./inp_files/295747.got.cif
#   From: 2010.05.17/outbox.cif.g08.bks.cpg/sg15_148_cif.got.tgz:295747.got - 2010.06.03 18:47:42.
