data_PCOD9259584
_publ_section_title
;
Structure prediction by ZEFSAII (Michael W. Deem and Ramdas Pophale) SiO2 
 PCOD9259584
Probable space group: C 2/C
;
_chemical_formula_sum "Si O2"
_cell_formula_units_Z 48
_cell_length_a 21.409068
_cell_length_b 14.849400
_cell_length_c 13.429075
_cell_angle_alpha 90.000000
_cell_angle_beta 24.525623
_cell_angle_gamma 90.000000
_cell_volume 1772.171092
_symmetry_space_group_name_H-M "C 2/C"
_symmetry_group_IT_number 15
_symmetry_cell_setting 'monoclinic'
loop_
_space_group_symop_operation_xyz
x,y,z
-x,y,1/2-z
-x,-y,-z
x,-y,1/2+z
1/2+x,1/2+y,z
1/2-x,1/2+y,1/2-z
1/2-x,1/2-y,-z
1/2+x,1/2-y,1/2+z
loop_
_atom_site_type_symbol
_atom_site_label
_atom_site_fract_x
_atom_site_fract_y
_atom_site_fract_z
Si Si1 0.224900 0.641891 0.296232
Si Si2 0.308549 0.070727 0.936728
Si Si3 0.041428 0.186904 0.836728
Si Si4 0.866156 0.620790 0.288002
Si Si5 0.819070 0.169700 0.534277
Si Si6 0.973622 0.924965 0.956119
O O1 0.182253 0.588908 0.459036
O O2 0.130603 0.620555 0.336152
O O3 0.221982 0.743211 0.341565
O O4 0.396885 0.633017 0.008328
O O5 0.312736 0.157406 0.857879
O O6 0.128788 0.061674 0.172198
O O7 0.393239 0.979866 0.786872
O O8 0.036594 0.292940 0.819888
O O9 0.199367 0.147999 0.569758
O O10 0.031141 0.165410 0.969813
O O11 0.830115 0.083552 0.593752
O O12 0.000000 0.187212 0.250000
O O13 0.000000 0.000000 0.000000
#
# Coordination Sequence:
#
# PCOD9259584 Si02
#       6
#     8   8   8   8   8   8
#     4  11  23  41  65  92 131 174 215 262 332 391
#     4  10  23  35  63  93 122 163 221 265 310 388
#     4  10  22  37  64  93 132 166 210 263 331 395
#     4  11  22  40  62  97 132 167 208 272 328 379
#     4  10  22  40  65  92 124 168 216 272 320 378
#     4  10  18  35  60  93 123 159 213 268 316 375
#
# _framework density 27.085421
#
# number of rings (size 3 to 8) (size 9 to 14) (size 15 to 20)
#    0.000    1.667    3.333    1.000    4.667    1.333 
#    0.000    0.833    0.000    0.000    0.000    0.000 
#    0.000    0.000    0.000    0.000    0.000    0.000 
#
# Total GULP energy -133940.044679 kJ/mol
# GULP energy per Si atom -5580.835195 kJ/mol
# Density = 2.702377 g / cm^3
# Si number density = 27.085421 Si / 1000 Ang^3
#
#
#
# Elastic Constant Matrix: (Units=GPa)
#
#
# Indices 1 2 3 4 5 6 
#
# 1 108.0826 39.8843 13.8116 0.0000 31.3016 0.0000
# 2 39.8843 144.5698 34.3578 0.0000 18.9556 0.0000
# 3 13.8116 34.3578 103.7821 0.0000 -7.7555 0.0000
# 4 0.0000 0.0000 0.0000 32.3612 0.0000 11.4046
# 5 31.3016 18.9556 -7.7555 0.0000 19.2381 0.0000
# 6 0.0000 0.0000 0.0000 11.4046 0.0000 31.0843
#
#
#
# Elastic Compliance Matrix: (Units=1/GPa)
#
#
# Indices 1 2 3 4 5 6 
#
# 1 0.019930 0.000365 -0.005386 0.000000 -0.034958 0.000000
# 2 0.000365 0.009235 -0.003949 0.000000 -0.011285 0.000000
# 3 -0.005386 -0.003949 0.012997 0.000000 0.017893 0.000000
# 4 0.000000 0.000000 0.000000 0.035490 0.000000 -0.013021
# 5 -0.034958 -0.011285 0.017893 0.000000 0.127192 0.000000
# 6 0.000000 0.000000 0.000000 -0.013021 0.000000 0.036948
#
#
# Mechanical properties :
#
#
# Convention : Reuss Voigt Hill
#
# Bulk Modulus (GPa) = 41.28449 59.17132 50.22791
# Shear Modulus (GPa) = 18.67037 34.42875 26.54956
#
# Velocity S-wave (km/s) = 2.62833 3.56914 3.13424
# Velocity P-wave (km/s) = 4.94836 6.23527 5.62872
#
# Compressibility (1/GPa) = 0.02422217
#
# Stress axis : x y z
#
# Youngs Moduli (GPa) = 50.17636 108.28922 76.94181
#
# Poissons Ratio (x) = -0.03955 0.41438
# Poissons Ratio (y) = -0.01833 0.30385
# Poissons Ratio (z) = 0.27023 0.42765
#
# Static dielectric constant tensor:
#      x y z
#    x 2.714470 0.000000 0.458990 
#    y 0.000000 3.012090 0.000000 
#    z 0.458990 0.000000 2.620860 
# 
# From -- ./inp_files/173606.got.cif
#   From: 2010.05.17/outbox.cif.g08.bks.cpg/sg15_87_cif.got.tgz:173606.got - 2010.06.03 18:47:42.
