data_PCOD9259121
_publ_section_title
;
Structure prediction by ZEFSAII (Michael W. Deem and Ramdas Pophale) SiO2 
 PCOD9259121
Probable space group: C 2/C
;
_chemical_formula_sum "Si O2"
_cell_formula_units_Z 52
_cell_length_a 12.092279
_cell_length_b 13.931994
_cell_length_c 15.936122
_cell_angle_alpha 90.000000
_cell_angle_beta 74.736083
_cell_angle_gamma 90.000000
_cell_volume 2590.042550
_symmetry_space_group_name_H-M "C 2/C"
_symmetry_group_IT_number 15
_symmetry_cell_setting 'monoclinic'
loop_
_space_group_symop_operation_xyz
x,y,z
-x,y,1/2-z
-x,-y,-z
x,-y,1/2+z
1/2+x,1/2+y,z
1/2-x,1/2+y,1/2-z
1/2-x,1/2-y,-z
1/2+x,1/2-y,1/2+z
loop_
_atom_site_type_symbol
_atom_site_label
_atom_site_fract_x
_atom_site_fract_y
_atom_site_fract_z
Si Si1 0.612448 0.049306 0.578741
Si Si2 0.870944 0.149599 0.246515
Si Si3 0.293754 0.819013 0.564312
Si Si4 0.201497 0.507803 0.740953
Si Si5 0.621057 0.169619 0.876124
Si Si6 0.449550 0.172415 0.432820
Si Si7 0.500000 0.858188 0.750000
O O1 0.691234 0.078946 0.485197
O O2 0.507399 0.124107 0.604894
O O3 0.677354 0.052886 0.654470
O O4 0.564584 0.943442 0.570615
O O5 0.792631 0.177760 0.341690
O O6 0.816699 0.052804 0.220665
O O7 0.867315 0.235089 0.180348
O O8 0.000000 0.136164 0.250000
O O9 0.250000 0.750000 0.500000
O O10 0.422106 0.794610 0.569089
O O11 0.194275 0.586196 0.816005
O O12 0.098330 0.428635 0.767872
O O13 0.632696 0.195452 0.972387
O O14 0.439307 0.200630 0.336891
#
# Coordination Sequence:
#
# PCOD9259121 Si02
#       7
#     8   8   8   8   8   8   4
#     4  10  19  36  63  87 108 151 202 254 295 336
#     4  12  24  36  56  89 126 157 193 240 300 360
#     4  11  20  33  55  87 116 148 194 246 288 340
#     4  11  19  36  61  88 122 150 194 246 302 347
#     4  11  19  35  62  92 113 150 202 253 291 343
#     4  10  19  34  61  89 110 141 201 254 298 327
#     4  10  18  34  60  86 112 146 192 252 298 330
#
# _framework density 20.076889000000001
#
# number of rings (size 3 to 8) (size 9 to 14) (size 15 to 20)
#    0.000    1.231    4.615    6.462    0.000    0.000 
#    0.000    3.846    1.692    0.000    0.000    0.000 
#    0.000    0.000    0.000    0.000    0.000    0.000 
#
# Total GULP energy -145045.344015 kJ/mol
# GULP energy per Si atom -5578.667077 kJ/mol
# Density = 2.003119 g / cm^3
# Si number density = 20.076889 Si / 1000 Ang^3
#
#
#
# Elastic Constant Matrix: (Units=GPa)
#
#
# Indices 1 2 3 4 5 6 
#
# 1 40.5866 30.3254 15.8325 0.0000 -5.0720 0.0000
# 2 30.3254 52.9521 38.1131 0.0000 -2.8733 0.0000
# 3 15.8325 38.1131 159.8528 0.0000 -0.2193 0.0000
# 4 0.0000 0.0000 0.0000 33.3899 0.0000 4.6179
# 5 -5.0720 -2.8733 -0.2193 0.0000 24.6785 0.0000
# 6 0.0000 0.0000 0.0000 4.6179 0.0000 15.4911
#
#
#
# Elastic Compliance Matrix: (Units=1/GPa)
#
#
# Indices 1 2 3 4 5 6 
#
# 1 0.044460 -0.026521 0.001928 0.000000 0.006067 0.000000
# 2 -0.026521 0.038786 -0.006622 0.000000 -0.000994 0.000000
# 3 0.001928 -0.006622 0.007643 0.000000 -0.000307 0.000000
# 4 0.000000 0.000000 0.000000 0.031237 0.000000 -0.009312
# 5 0.006067 -0.000994 -0.000307 0.000000 0.041650 0.000000
# 6 0.000000 0.000000 0.000000 -0.009312 0.000000 0.067329
#
#
# Mechanical properties :
#
#
# Convention : Reuss Voigt Hill
#
# Bulk Modulus (GPa) = 35.13744 46.88148 41.00946
# Shear Modulus (GPa) = 16.50049 25.98662 21.24355
#
# Velocity S-wave (km/s) = 2.86993 3.60162 3.25639
# Velocity P-wave (km/s) = 5.34054 6.37943 5.88297
#
# Compressibility (1/GPa) = 0.02845967
#
# Stress axis : x y z
#
# Youngs Moduli (GPa) = 22.49191 25.78269 130.83401
#
# Poissons Ratio (x) = 0.68378 -0.25225
# Poissons Ratio (y) = 0.59650 0.86640
# Poissons Ratio (z) = -0.04336 0.17074
#
# Static dielectric constant tensor:
#      x y z
#    x 1.735860 0.000000 0.021440 
#    y 0.000000 1.715260 0.000000 
#    z 0.021440 0.000000 1.803840 
# 
# From -- ./inp_files/144157.got.cif
#   From: 2010.05.17/outbox.cif.g08.bks.cpg/sg15_73_cif.got.tgz:144157.got - 2010.06.03 18:47:42.
