data_PCOD9259890
_publ_section_title
;
Structure prediction by ZEFSAII (Michael W. Deem and Ramdas Pophale) SiO2 
 PCOD9259890
Probable space group: C 2/C
;
_chemical_formula_sum "Si O2"
_cell_formula_units_Z 60
_cell_length_a 8.114205
_cell_length_b 12.392941
_cell_length_c 25.698585
_cell_angle_alpha 90.000000
_cell_angle_beta 101.985400
_cell_angle_gamma 90.000000
_cell_volume 2527.885920
_symmetry_space_group_name_H-M "C 2/C"
_symmetry_group_IT_number 15
_symmetry_cell_setting 'monoclinic'
loop_
_space_group_symop_operation_xyz
x,y,z
-x,y,1/2-z
-x,-y,-z
x,-y,1/2+z
1/2+x,1/2+y,z
1/2-x,1/2+y,1/2-z
1/2-x,1/2-y,-z
1/2+x,1/2-y,1/2+z
loop_
_atom_site_type_symbol
_atom_site_label
_atom_site_fract_x
_atom_site_fract_y
_atom_site_fract_z
Si Si1 0.305116 0.316599 0.052695
Si Si2 0.487422 0.168954 0.120696
Si Si3 0.635075 0.422104 0.037843
Si Si4 0.723873 0.770614 0.298479
Si Si5 0.961682 0.934863 0.672317
Si Si6 0.312646 0.006637 0.656024
Si Si7 0.787949 0.556825 0.442055
Si Si8 0.000000 0.868838 0.250000
O O1 0.314984 0.234750 0.101494
O O2 0.502223 0.341741 0.054906
O O3 0.204644 0.427136 0.051949
O O4 0.250000 0.250000 0.000000
O O5 0.629547 0.246983 0.150505
O O6 0.548872 0.109054 0.072722
O O7 0.466773 0.073980 0.160900
O O8 0.744763 0.468556 0.092621
O O9 0.500000 0.500000 0.000000
O O10 0.748408 0.391436 0.995638
O O11 0.604953 0.667195 0.299083
O O12 0.642702 0.883133 0.311687
O O13 0.838309 0.797379 0.255752
O O14 0.861562 0.928862 0.610702
O O15 0.159849 0.944317 0.674046
O O16 0.935392 0.048542 0.700708
#
# Coordination Sequence:
#
# PCOD9259890 Si02
#       8
#     8   8   8   8   8   8   8   4
#     4  11  21  34  56  88 125 169 213 253 304 346
#     4  11  23  39  61  90 123 166 209 255 304 362
#     4  10  18  36  58  84 128 172 204 255 293 351
#     4  10  23  44  65  94 120 160 202 251 324 374
#     4  10  21  42  68  90 121 164 199 255 321 373
#     4  11  21  40  63  91 132 163 207 256 296 363
#     4  10  22  40  58  87 127 165 216 255 298 368
#     4  10  22  42  70  92 124 148 200 268 314 380
#
# _framework density 23.735247000000001
#
# number of rings (size 3 to 8) (size 9 to 14) (size 15 to 20)
#    0.000    1.600    4.000    2.400    0.000    5.867 
#    2.400    2.667    0.000    0.000    0.000    0.000 
#    0.000    0.000    0.000    0.000    0.000    0.000 
#
# Total GULP energy -167434.085003 kJ/mol
# GULP energy per Si atom -5581.136167 kJ/mol
# Density = 2.368122 g / cm^3
# Si number density = 23.735247 Si / 1000 Ang^3
#
#
#
# Elastic Constant Matrix: (Units=GPa)
#
#
# Indices 1 2 3 4 5 6 
#
# 1 29.3630 18.9501 15.1227 0.0000 -16.2212 0.0000
# 2 18.9501 115.9591 13.6405 0.0000 -17.1533 0.0000
# 3 15.1227 13.6405 72.9943 0.0000 -13.7171 0.0000
# 4 0.0000 0.0000 0.0000 33.5274 0.0000 -16.1564
# 5 -16.2212 -17.1533 -13.7171 0.0000 46.4197 0.0000
# 6 0.0000 0.0000 0.0000 -16.1564 0.0000 29.0489
#
#
#
# Elastic Compliance Matrix: (Units=1/GPa)
#
#
# Indices 1 2 3 4 5 6 
#
# 1 0.047865 -0.005146 -0.006532 0.000000 0.012895 0.000000
# 2 -0.005146 0.009765 -0.000443 0.000000 0.001679 0.000000
# 3 -0.006532 -0.000443 0.015539 0.000000 0.002146 0.000000
# 4 0.000000 0.000000 0.000000 0.040747 0.000000 0.022663
# 5 0.012895 0.001679 0.002146 0.000000 0.027303 0.000000
# 6 0.000000 0.000000 0.000000 0.022663 0.000000 0.047029
#
#
# Mechanical properties :
#
#
# Convention : Reuss Voigt Hill
#
# Bulk Modulus (GPa) = 20.43858 34.86033 27.64945
# Shear Modulus (GPa) = 21.85308 33.17272 27.51290
#
# Velocity S-wave (km/s) = 3.03760 3.74252 3.40833
# Velocity P-wave (km/s) = 4.57520 5.77878 5.21185
#
# Compressibility (1/GPa) = 0.04892708
#
# Stress axis : x y z
#
# Youngs Moduli (GPa) = 20.89198 102.40371 64.35459
#
# Poissons Ratio (x) = 0.52701 0.42034
# Poissons Ratio (y) = 0.10752 0.02851
# Poissons Ratio (z) = 0.13646 0.04537
#
# Static dielectric constant tensor:
#      x y z
#    x 1.916010 0.000000 -0.043870 
#    y 0.000000 1.969550 0.000000 
#    z -0.043870 0.000000 2.065370 
# 
# From -- ./inp_files/307180.got.cif
#   From: 2010.05.17/outbox.cif.g08.bks.cpg/sg15_154_cif.got.tgz:307180.got - 2010.06.03 18:47:42.
