data_PCOD9259970
_publ_section_title
;
Structure prediction by ZEFSAII (Michael W. Deem and Ramdas Pophale) SiO2 
 PCOD9259970
Probable space group: C 2/C
;
_chemical_formula_sum "Si O2"
_cell_formula_units_Z 64
_cell_length_a 22.033366
_cell_length_b 11.226065
_cell_length_c 13.011068
_cell_angle_alpha 90.000000
_cell_angle_beta 70.573205
_cell_angle_gamma 90.000000
_cell_volume 3035.037039
_symmetry_space_group_name_H-M "C 2/C"
_symmetry_group_IT_number 15
_symmetry_cell_setting 'monoclinic'
loop_
_space_group_symop_operation_xyz
x,y,z
-x,y,1/2-z
-x,-y,-z
x,-y,1/2+z
1/2+x,1/2+y,z
1/2-x,1/2+y,1/2-z
1/2-x,1/2-y,-z
1/2+x,1/2-y,1/2+z
loop_
_atom_site_type_symbol
_atom_site_label
_atom_site_fract_x
_atom_site_fract_y
_atom_site_fract_z
Si Si1 0.967204 0.318001 0.556120
Si Si2 0.734345 0.308181 0.680259
Si Si3 0.091142 0.798841 0.768100
Si Si4 0.925536 0.854160 0.502125
Si Si5 0.745404 0.587074 0.971304
Si Si6 0.959369 0.449795 0.169734
Si Si7 0.728910 0.674962 0.414082
Si Si8 0.908633 0.120842 0.453351
O O1 0.937267 0.420011 0.644850
O O2 0.922397 0.213435 0.537298
O O3 0.028257 0.247232 0.571019
O O4 0.994536 0.392383 0.443428
O O5 0.661916 0.356083 0.734305
O O6 0.768811 0.392410 0.576028
O O7 0.727730 0.186232 0.620269
O O8 0.755337 0.289244 0.785974
O O9 0.055689 0.851291 0.887320
O O10 0.091876 0.655982 0.784073
O O11 0.066794 0.826252 0.668359
O O12 0.849613 0.822977 0.540222
O O13 0.933590 0.987036 0.456461
O O14 0.754615 0.457108 0.922164
O O15 0.668530 0.609102 0.012736
O O16 0.000000 0.463534 0.250000
O O17 0.750000 0.750000 0.500000
#
# Coordination Sequence:
#
# PCOD9259970 Si02
#       8
#     8   8   8   8   8   8   8   8
#     4  10  20  35  56  82 111 143 185 233 276 337
#     4   9  19  38  56  81 113 143 191 238 276 336
#     4   9  18  36  59  76 109 153 182 222 288 335
#     4   9  20  37  55  85 112 143 187 236 277 336
#     4   9  20  37  57  85 112 148 190 238 277 338
#     4  10  19  36  54  77 112 147 184 224 277 338
#     4  10  21  37  59  83 113 149 187 235 291 335
#     4  10  18  36  60  81 111 149 189 225 286 335
#
# _framework density 21.087057999999999
#
# number of rings (size 3 to 8) (size 9 to 14) (size 15 to 20)
#    0.000    2.500    1.250    0.375    1.750    0.000 
#    9.000    3.750    0.000    0.000    0.000    0.000 
#    0.000    0.000    0.000    0.000    0.000    0.000 
#
# Total GULP energy -178290.661969 kJ/mol
# GULP energy per Si atom -5571.583187 kJ/mol
# Density = 2.103906 g / cm^3
# Si number density = 21.087058 Si / 1000 Ang^3
#
#
#
# Elastic Constant Matrix: (Units=GPa)
#
#
# Indices 1 2 3 4 5 6 
#
# 1 19.5954 3.7380 18.5643 0.0000 9.8709 0.0000
# 2 3.7380 109.9113 50.5213 0.0000 7.9840 0.0000
# 3 18.5643 50.5213 115.1794 0.0000 13.8436 0.0000
# 4 0.0000 0.0000 0.0000 22.0969 0.0000 4.0426
# 5 9.8709 7.9840 13.8436 0.0000 27.3822 0.0000
# 6 0.0000 0.0000 0.0000 4.0426 0.0000 27.8455
#
#
#
# Elastic Compliance Matrix: (Units=1/GPa)
#
#
# Indices 1 2 3 4 5 6 
#
# 1 0.071166 0.004039 -0.010665 0.000000 -0.021440 0.000000
# 2 0.004039 0.011644 -0.005510 0.000000 -0.002065 0.000000
# 3 -0.010665 -0.005510 0.012950 0.000000 -0.001096 0.000000
# 4 0.000000 0.000000 0.000000 0.046490 0.000000 -0.006749
# 5 -0.021440 -0.002065 -0.001096 0.000000 0.045405 0.000000
# 6 0.000000 0.000000 0.000000 -0.006749 0.000000 0.036892
#
#
# Mechanical properties :
#
#
# Convention : Reuss Voigt Hill
#
# Bulk Modulus (GPa) = 13.98837 43.37035 28.67936
# Shear Modulus (GPa) = 18.33864 26.92242 22.63053
#
# Velocity S-wave (km/s) = 2.95220 3.57701 3.27952
# Velocity P-wave (km/s) = 4.27419 6.13775 5.28870
#
# Compressibility (1/GPa) = 0.07148793
#
# Stress axis : x y z
#
# Youngs Moduli (GPa) = 14.05158 85.88382 77.22192
#
# Poissons Ratio (x) = -0.34692 0.82359
# Poissons Ratio (y) = -0.05676 0.42550
# Poissons Ratio (z) = 0.14986 0.47323
#
# Static dielectric constant tensor:
#      x y z
#    x 1.824540 0.000000 -0.007010 
#    y 0.000000 1.762280 0.000000 
#    z -0.007010 0.000000 1.798370 
# 
# From -- ./inp_files/117582.got.cif
#   From: 2010.05.17/outbox.cif.g08.bks.cpg/sg15_59_cif.got.tgz:117582.got - 2010.06.03 18:47:42.
