data_PCOD9259492
_publ_section_title
;
Structure prediction by ZEFSAII (Michael W. Deem and Ramdas Pophale) SiO2 
 PCOD9259492
Probable space group: C 2/C
;
_chemical_formula_sum "Si O2"
_cell_formula_units_Z 56
_cell_length_a 16.445998
_cell_length_b 8.401114
_cell_length_c 27.666739
_cell_angle_alpha 90.000000
_cell_angle_beta 45.543332
_cell_angle_gamma 90.000000
_cell_volume 2728.473008
_symmetry_space_group_name_H-M "C 2/C"
_symmetry_group_IT_number 15
_symmetry_cell_setting 'monoclinic'
loop_
_space_group_symop_operation_xyz
x,y,z
-x,y,1/2-z
-x,-y,-z
x,-y,1/2+z
1/2+x,1/2+y,z
1/2-x,1/2+y,1/2-z
1/2-x,1/2-y,-z
1/2+x,1/2-y,1/2+z
loop_
_atom_site_type_symbol
_atom_site_label
_atom_site_fract_x
_atom_site_fract_y
_atom_site_fract_z
Si Si1 0.417248 0.038884 0.605153
Si Si2 0.889752 0.773986 0.530072
Si Si3 0.210170 0.693727 0.579705
Si Si4 0.546883 0.710406 0.334957
Si Si5 0.821322 0.513719 0.491630
Si Si6 0.907826 0.031887 0.604387
Si Si7 0.231875 0.766517 0.680833
O O1 0.429983 0.136550 0.550365
O O2 0.386894 0.159028 0.660842
O O3 0.541600 0.975288 0.568190
O O4 0.317448 0.913652 0.641032
O O5 0.801108 0.676046 0.531603
O O6 0.861921 0.915700 0.580451
O O7 0.998088 0.849612 0.457260
O O8 0.233353 0.532724 0.538351
O O9 0.287474 0.846360 0.532177
O O10 0.213157 0.693751 0.635752
O O11 0.079867 0.733529 0.622386
O O12 0.533761 0.566580 0.377582
O O13 0.619748 0.686472 0.256493
O O14 0.806729 0.126270 0.672728
#
# Coordination Sequence:
#
# PCOD9259492 Si02
#       7
#     8   8   8   8   8   8   8
#     4  10  19  34  63  85 113 158 204 244 307 354
#     4  10  18  35  58  90 124 144 194 260 312 354
#     4  10  22  35  60  88 116 157 198 242 309 363
#     4  10  23  39  54  86 121 157 202 248 296 368
#     4  10  18  35  58  89 119 150 195 251 301 371
#     4  10  22  35  60  93 116 154 200 261 305 352
#     4  12  20  38  62  83 114 162 210 244 289 367
#
# _framework density 20.524301999999999
#
# number of rings (size 3 to 8) (size 9 to 14) (size 15 to 20)
#    0.000    1.714    2.857    2.571    0.000    3.429 
#    0.000    2.857    0.000    0.000   11.143    0.000 
#    0.000    0.000    0.000    0.000    0.000    0.000 
#
# Total GULP energy -155876.296157 kJ/mol
# GULP energy per Si atom -5567.010577 kJ/mol
# Density = 2.047759 g / cm^3
# Si number density = 20.524302 Si / 1000 Ang^3
#
#
#
# Elastic Constant Matrix: (Units=GPa)
#
#
# Indices 1 2 3 4 5 6 
#
# 1 67.6164 30.9809 1.8282 -0.0002 8.5625 -0.0003
# 2 30.9809 105.5088 26.2680 -0.0001 2.9047 -0.0001
# 3 1.8282 26.2680 85.3626 0.0000 2.0035 -0.0001
# 4 -0.0002 -0.0001 0.0000 14.8269 -0.0001 -9.0050
# 5 8.5625 2.9047 2.0035 -0.0001 24.6163 -0.0001
# 6 -0.0003 -0.0001 -0.0001 -9.0050 -0.0001 25.7267
#
#
#
# Elastic Compliance Matrix: (Units=1/GPa)
#
#
# Indices 1 2 3 4 5 6 
#
# 1 0.017987 -0.005481 0.001436 0.000000 -0.005727 0.000000
# 2 -0.005481 0.011957 -0.003581 0.000000 0.000787 0.000000
# 3 0.001436 -0.003581 0.012812 0.000000 -0.001120 0.000000
# 4 0.000000 0.000000 0.000000 0.085653 0.000000 0.029981
# 5 -0.005727 0.000787 -0.001120 0.000000 0.042614 0.000000
# 6 0.000000 0.000000 0.000000 0.029981 0.000000 0.049364
#
#
# Mechanical properties :
#
#
# Convention : Reuss Voigt Hill
#
# Bulk Modulus (GPa) = 36.35798 41.84910 39.10354
# Shear Modulus (GPa) = 20.42420 26.32805 23.37612
#
# Velocity S-wave (km/s) = 3.15798 3.58547 3.37849
# Velocity P-wave (km/s) = 5.57227 6.12985 5.85770
#
# Compressibility (1/GPa) = 0.02750428
#
# Stress axis : x y z
#
# Youngs Moduli (GPa) = 55.59500 83.63171 78.05138
#
# Poissons Ratio (x) = 0.45843 -0.11208
# Poissons Ratio (y) = 0.30474 0.27947
# Poissons Ratio (z) = -0.07983 0.29945
#
# Static dielectric constant tensor:
#      x y z
#    x 1.794900 0.000000 0.055040 
#    y 0.000000 1.816240 0.000000 
#    z 0.055040 0.000000 1.725570 
# 
# From -- ./inp_files/312871.got.cif
#   From: 2010.05.17/outbox.cif.g08.bks.cpg/sg15_157_cif.got.tgz:312871.got - 2010.06.03 18:47:42.
