data_PCOD9259154
_publ_section_title
;
Structure prediction by ZEFSAII (Michael W. Deem and Ramdas Pophale) SiO2 
 PCOD9259154
Probable space group: C 2/C
;
_chemical_formula_sum "Si O2"
_cell_formula_units_Z 60
_cell_length_a 23.159111
_cell_length_b 16.487285
_cell_length_c 11.811823
_cell_angle_alpha 90.000000
_cell_angle_beta 141.936664
_cell_angle_gamma 90.000000
_cell_volume 2780.633251
_symmetry_space_group_name_H-M "C 2/C"
_symmetry_group_IT_number 15
_symmetry_cell_setting 'monoclinic'
loop_
_space_group_symop_operation_xyz
x,y,z
-x,y,1/2-z
-x,-y,-z
x,-y,1/2+z
1/2+x,1/2+y,z
1/2-x,1/2+y,1/2-z
1/2-x,1/2-y,-z
1/2+x,1/2-y,1/2+z
loop_
_atom_site_type_symbol
_atom_site_label
_atom_site_fract_x
_atom_site_fract_y
_atom_site_fract_z
Si Si1 0.285612 0.379022 0.178028
Si Si2 0.000000 0.708217 0.750000
Si Si3 0.236738 0.903594 0.732856
Si Si4 0.871969 0.570138 0.643627
Si Si5 0.597947 0.460983 0.687235
Si Si6 0.574403 0.109159 0.267182
Si Si7 0.122544 0.277068 0.645932
Si Si8 0.296641 0.565888 0.946814
O O1 0.332734 0.461474 0.208179
O O2 0.345446 0.301310 0.235476
O O3 0.291851 0.384686 0.323891
O O4 0.179481 0.373977 0.973861
O O5 0.065411 0.648070 0.778512
O O6 0.936760 0.749090 0.556219
O O7 0.283752 0.824413 0.752034
O O8 0.143925 0.898457 0.668028
O O9 0.213190 0.972012 0.605525
O O10 0.318491 0.939308 0.940581
O O11 0.927604 0.487977 0.756951
O O12 0.792441 0.585670 0.613307
O O13 0.500000 0.500000 0.500000
O O14 0.611280 0.424539 0.832932
O O15 0.500000 0.129031 0.250000
O O16 0.566673 0.160876 0.140614
#
# Coordination Sequence:
#
# PCOD9259154 Si02
#       8
#     8   4   8   8   8   8   8   8
#     4  11  24  43  63  92 134 173 213 270 346 383
#     4  10  24  36  60 100 128 174 212 260 334 386
#     4   9  18  36  58  86 120 168 209 262 328 373
#     4  10  18  34  60  93 125 153 216 269 311 384
#     4  10  21  38  62  93 121 167 232 270 312 389
#     4  12  23  39  68  99 127 169 218 273 337 397
#     4  11  24  42  63  91 143 169 210 273 336 409
#     4  10  18  36  64  84 122 168 213 265 320 381
#
# _framework density 21.577818000000001
#
# number of rings (size 3 to 8) (size 9 to 14) (size 15 to 20)
#    0.000    1.600    6.000    0.400    1.867    3.733 
#    2.400    6.000    0.000    0.000    0.000    0.000 
#    0.000    0.000    0.000    0.000    0.000    0.000 
#
# Total GULP energy -167485.588907 kJ/mol
# GULP energy per Si atom -5582.852964 kJ/mol
# Density = 2.152871 g / cm^3
# Si number density = 21.577818 Si / 1000 Ang^3
#
#
#
# Elastic Constant Matrix: (Units=GPa)
#
#
# Indices 1 2 3 4 5 6 
#
# 1 60.1342 -14.4399 28.2791 0.0000 -10.8632 0.0000
# 2 -14.4399 27.2626 -13.5269 0.0000 2.7614 0.0000
# 3 28.2791 -13.5269 96.4005 0.0000 -0.0056 0.0000
# 4 0.0000 0.0000 0.0000 14.3642 0.0000 -16.8448
# 5 -10.8632 2.7614 -0.0056 0.0000 31.4614 0.0000
# 6 0.0000 0.0000 0.0000 -16.8448 0.0000 -10.8292
#
#
#
# Elastic Compliance Matrix: (Units=1/GPa)
#
#
# Indices 1 2 3 4 5 6 
#
# 1 0.022481 0.008518 -0.005399 0.000000 0.007014 0.000000
# 2 0.008518 0.043033 0.003540 0.000000 -0.000835 0.000000
# 3 -0.005399 0.003540 0.012454 0.000000 -0.002173 0.000000
# 4 0.000000 0.000000 0.000000 0.024651 0.000000 -0.038345
# 5 0.007014 -0.000835 -0.002173 0.000000 0.034280 0.000000
# 6 0.000000 0.000000 0.000000 -0.038345 0.000000 -0.032698
#
#
# Mechanical properties :
#
#
# Convention : Reuss Voigt Hill
#
# Bulk Modulus (GPa) = 10.95481 20.49133 15.72307
# Shear Modulus (GPa) = 41.21611 19.23159 30.22385
#
# Velocity S-wave (km/s) = 4.37523 2.98865 3.74664
# Velocity P-wave (km/s) = 5.53276 4.62887 5.10087
#
# Compressibility (1/GPa) = 0.09128407
#
# Stress axis : x y z
#
# Youngs Moduli (GPa) = 44.48219 23.23812 80.29696
#
# Poissons Ratio (x) = -0.19794 0.43353
# Poissons Ratio (y) = -0.37890 -0.28421
# Poissons Ratio (z) = 0.24017 -0.08225
#
# Static dielectric constant tensor:
#      x y z
#    x 1.816040 0.000000 0.013340 
#    y 0.000000 1.793860 0.000000 
#    z 0.013340 0.000000 1.837790 
# 
# From -- ./inp_files/119468.got.cif
#   From: 2010.05.17/outbox.cif.g08.bks.cpg/sg15_60_cif.got.tgz:119468.got - 2010.06.03 18:47:42.
