data_PCOD9259020
_publ_section_title
;
Structure prediction by ZEFSAII (Michael W. Deem and Ramdas Pophale) SiO2 
 PCOD9259020
Probable space group: C 2/C
;
_chemical_formula_sum "Si O2"
_cell_formula_units_Z 36
_cell_length_a 5.339722
_cell_length_b 22.124137
_cell_length_c 15.742816
_cell_angle_alpha 90.000000
_cell_angle_beta 57.397761
_cell_angle_gamma 90.000000
_cell_volume 1566.758004
_symmetry_space_group_name_H-M "C 2/C"
_symmetry_group_IT_number 15
_symmetry_cell_setting 'monoclinic'
loop_
_space_group_symop_operation_xyz
x,y,z
-x,y,1/2-z
-x,-y,-z
x,-y,1/2+z
1/2+x,1/2+y,z
1/2-x,1/2+y,1/2-z
1/2-x,1/2-y,-z
1/2+x,1/2-y,1/2+z
loop_
_atom_site_type_symbol
_atom_site_label
_atom_site_fract_x
_atom_site_fract_y
_atom_site_fract_z
Si Si1 0.000000 0.368748 0.750000
Si Si2 0.371493 0.791009 0.399446
Si Si3 0.775613 0.926029 0.025961
Si Si4 0.105380 0.743778 0.119606
Si Si5 0.986768 0.452844 0.896003
O O1 0.147819 0.320881 0.657552
O O2 0.863439 0.415947 0.708044
O O3 0.250000 0.750000 0.500000
O O4 0.274509 0.859424 0.429722
O O5 0.721559 0.788562 0.350640
O O6 0.228927 0.760593 0.342930
O O7 0.666898 0.934920 0.947942
O O8 0.131910 0.936485 0.969046
O O9 0.558911 0.975494 0.110140
O O10 0.250000 0.750000 0.000000
#
# Coordination Sequence:
#
# PCOD9259020 Si02
#       5
#     4   8   8   8   8
#     4  12  24  42  64  94 124 164 218 254 314 382
#     4  10  18  34  58  85 118 157 193 245 307 365
#     4  10  20  40  62  88 122 162 209 253 318 369
#     4  10  22  36  58  87 120 157 199 254 308 363
#     4  10  22  36  62  91 120 161 207 263 303 374
#
# _framework density 22.977385999999999
#
# number of rings (size 3 to 8) (size 9 to 14) (size 15 to 20)
#    0.000    1.778    0.000    6.667    0.000    3.556 
#    0.000    2.222    0.000    0.000    0.000    0.000 
#    0.000    0.000    0.000    0.000    0.000    0.000 
#
# Total GULP energy -100211.676593 kJ/mol
# GULP energy per Si atom -5567.315366 kJ/mol
# Density = 2.292509 g / cm^3
# Si number density = 22.977386 Si / 1000 Ang^3
#
#
#
# Elastic Constant Matrix: (Units=GPa)
#
#
# Indices 1 2 3 4 5 6 
#
# 1 130.5406 -21.7685 9.4441 0.0000 -12.5266 0.0000
# 2 -21.7685 129.7561 19.5411 0.0000 0.1731 0.0000
# 3 9.4441 19.5411 90.4160 0.0000 1.3904 0.0000
# 4 0.0000 0.0000 0.0000 26.0065 0.0000 20.6884
# 5 -12.5266 0.1731 1.3904 0.0000 27.2783 0.0000
# 6 0.0000 0.0000 0.0000 20.6884 0.0000 9.5144
#
#
#
# Elastic Compliance Matrix: (Units=1/GPa)
#
#
# Indices 1 2 3 4 5 6 
#
# 1 0.008395 0.001596 -0.001282 0.000000 0.003910 0.000000
# 2 0.001596 0.008270 -0.001966 0.000000 0.000781 0.000000
# 3 -0.001282 -0.001966 0.011637 0.000000 -0.001169 0.000000
# 4 0.000000 0.000000 0.000000 -0.052690 0.000000 0.114571
# 5 0.003910 0.000781 -0.001169 0.000000 0.038509 0.000000
# 6 0.000000 0.000000 0.000000 0.114571 0.000000 -0.144023
#
#
# Mechanical properties :
#
#
# Convention : Reuss Voigt Hill
#
# Bulk Modulus (GPa) = 40.00414 40.57179 40.28797
# Shear Modulus (GPa) = -42.27732 35.45958 -3.40887
#
# Velocity S-wave (km/s) = -4.29412 3.93267 -1.21934
# Velocity P-wave (km/s) = 2.67170 6.19006 3.94834
#
# Compressibility (1/GPa) = 0.02499741
#
# Stress axis : x y z
#
# Youngs Moduli (GPa) = 119.12449 120.92518 85.93451
#
# Poissons Ratio (x) = -0.19302 0.11016
# Poissons Ratio (y) = -0.19014 0.16895
# Poissons Ratio (z) = 0.15271 0.23774
#
# Static dielectric constant tensor:
#      x y z
#    x 1.851560 0.000000 0.055570 
#    y 0.000000 1.885280 0.000000 
#    z 0.055570 0.000000 1.784880 
# 
# From -- ./inp_files/128652.got.cif
#   From: 2010.05.17/outbox.cif.g08.bks.cpg/sg15_65_cif.got.tgz:128652.got - 2010.06.03 18:47:42.
