data_PCOD9259938
_publ_section_title
;
Structure prediction by ZEFSAII (Michael W. Deem and Ramdas Pophale) SiO2 
 PCOD9259938
Probable space group: C 2/C
;
_chemical_formula_sum "Si O2"
_cell_formula_units_Z 48
_cell_length_a 14.611999
_cell_length_b 18.290412
_cell_length_c 14.168394
_cell_angle_alpha 90.000000
_cell_angle_beta 135.964813
_cell_angle_gamma 90.000000
_cell_volume 2632.091849
_symmetry_space_group_name_H-M "C 2/C"
_symmetry_group_IT_number 15
_symmetry_cell_setting 'monoclinic'
loop_
_space_group_symop_operation_xyz
x,y,z
-x,y,1/2-z
-x,-y,-z
x,-y,1/2+z
1/2+x,1/2+y,z
1/2-x,1/2+y,1/2-z
1/2-x,1/2-y,-z
1/2+x,1/2-y,1/2+z
loop_
_atom_site_type_symbol
_atom_site_label
_atom_site_fract_x
_atom_site_fract_y
_atom_site_fract_z
Si Si1 0.714480 0.468171 0.176083
Si Si2 0.168273 0.847116 0.441221
Si Si3 0.468564 0.495849 0.626931
Si Si4 0.607590 0.099590 0.257094
Si Si5 0.505190 0.764066 0.572062
Si Si6 0.765296 0.683081 0.799420
O O1 0.602260 0.490559 0.168259
O O2 0.814233 0.534827 0.235122
O O3 0.781945 0.394645 0.261744
O O4 0.634439 0.457024 0.018955
O O5 0.289212 0.853490 0.603935
O O6 0.218114 0.832117 0.372815
O O7 0.070361 0.784838 0.405709
O O8 0.096011 0.925184 0.396842
O O9 0.500000 0.459071 0.750000
O O10 0.500000 0.068964 0.250000
O O11 0.536734 0.155502 0.134526
O O12 0.645071 0.725204 0.660221
O O13 0.400756 0.772254 0.410014
#
# Coordination Sequence:
#
# PCOD9259938 Si02
#       6
#     8   8   8   8   8   8
#     4  10  23  35  56  88 124 157 203 241 293 361
#     4  11  19  33  57  85 124 154 186 234 302 363
#     4  10  18  36  59  84 120 158 200 243 286 357
#     4  11  22  37  54  88 125 160 195 238 294 368
#     4  12  22  34  58  86 125 162 187 238 319 366
#     4  12  22  35  56  89 123 155 193 240 298 370
#
# _framework density 18.236446000000001
#
# number of rings (size 3 to 8) (size 9 to 14) (size 15 to 20)
#    0.000    1.000    6.667    2.000    0.000    0.667 
#    0.000    0.000    0.000    0.000    0.000   10.500 
#    0.000    0.000    0.000    0.000    0.000    0.000 
#
# Total GULP energy -134050.290598 kJ/mol
# GULP energy per Si atom -5585.428775 kJ/mol
# Density = 1.819494 g / cm^3
# Si number density = 18.236446 Si / 1000 Ang^3
#
#
#
# Elastic Constant Matrix: (Units=GPa)
#
#
# Indices 1 2 3 4 5 6 
#
# 1 31.7499 7.7482 26.2677 0.0000 6.4134 0.0000
# 2 7.7482 59.7327 32.6026 0.0000 4.5211 0.0000
# 3 26.2677 32.6026 115.1723 0.0000 10.0412 0.0000
# 4 0.0000 0.0000 0.0000 24.8987 0.0000 4.3020
# 5 6.4134 4.5211 10.0412 0.0000 31.1535 0.0000
# 6 0.0000 0.0000 0.0000 4.3020 0.0000 31.7111
#
#
#
# Elastic Compliance Matrix: (Units=1/GPa)
#
#
# Indices 1 2 3 4 5 6 
#
# 1 0.039687 -0.000066 -0.008562 0.000000 -0.005401 0.000000
# 2 -0.000066 0.019837 -0.005505 0.000000 -0.001091 0.000000
# 3 -0.008562 -0.005505 0.012317 0.000000 -0.001408 0.000000
# 4 0.000000 0.000000 0.000000 0.041127 0.000000 -0.005579
# 5 -0.005401 -0.001091 -0.001408 0.000000 0.033823 0.000000
# 6 0.000000 0.000000 0.000000 -0.005579 0.000000 0.032292
#
#
# Mechanical properties :
#
#
# Convention : Reuss Voigt Hill
#
# Bulk Modulus (GPa) = 22.94940 37.76576 30.35758
# Shear Modulus (GPa) = 22.53539 26.88842 24.71191
#
# Velocity S-wave (km/s) = 3.51911 3.84400 3.68514
# Velocity P-wave (km/s) = 5.39666 6.36048 5.89829
#
# Compressibility (1/GPa) = 0.04357412
#
# Stress axis : x y z
#
# Youngs Moduli (GPa) = 25.19729 50.41034 81.19128
#
# Poissons Ratio (x) = 0.00333 0.69516
# Poissons Ratio (y) = 0.00166 0.44698
# Poissons Ratio (z) = 0.21574 0.27752
#
# Static dielectric constant tensor:
#      x y z
#    x 1.604230 0.000000 0.016350 
#    y 0.000000 1.616480 0.000000 
#    z 0.016350 0.000000 1.701840 
# 
# From -- ./inp_files/114304.got.cif
#   From: 2010.05.17/outbox.cif.g08.bks.cpg/sg15_58_cif.got.tgz:114304.got - 2010.06.03 18:47:42.
