data_PCOD9259286
_publ_section_title
;
Structure prediction by ZEFSAII (Michael W. Deem and Ramdas Pophale) SiO2 
 PCOD9259286
Probable space group: C 2/C
;
_chemical_formula_sum "Si O2"
_cell_formula_units_Z 52
_cell_length_a 10.512037
_cell_length_b 28.857466
_cell_length_c 10.654709
_cell_angle_alpha 90.000000
_cell_angle_beta 127.079219
_cell_angle_gamma 90.000000
_cell_volume 2578.589116
_symmetry_space_group_name_H-M "C 2/C"
_symmetry_group_IT_number 15
_symmetry_cell_setting 'monoclinic'
loop_
_space_group_symop_operation_xyz
x,y,z
-x,y,1/2-z
-x,-y,-z
x,-y,1/2+z
1/2+x,1/2+y,z
1/2-x,1/2+y,1/2-z
1/2-x,1/2-y,-z
1/2+x,1/2-y,1/2+z
loop_
_atom_site_type_symbol
_atom_site_label
_atom_site_fract_x
_atom_site_fract_y
_atom_site_fract_z
Si Si1 0.500000 0.157451 0.750000
Si Si2 0.579400 0.828388 0.578086
Si Si3 0.930274 0.428663 0.929470
Si Si4 0.568193 0.264497 0.415818
Si Si5 0.354468 0.017347 0.761026
Si Si6 0.051241 0.828416 0.648152
Si Si7 0.211528 0.906534 0.040114
O O1 0.453845 0.181055 0.590582
O O2 0.654201 0.125701 0.813425
O O3 0.506255 0.878188 0.571110
O O4 0.521677 0.783866 0.616545
O O5 0.763189 0.836504 0.719763
O O6 0.844433 0.462781 0.780807
O O7 0.799630 0.418924 0.961392
O O8 0.079452 0.457361 0.074821
O O9 0.500000 0.287888 0.250000
O O10 0.750000 0.250000 0.500000
O O11 0.537071 0.296179 0.518291
O O12 0.500000 0.023381 0.750000
O O13 0.207007 0.045950 0.616419
O O14 0.000000 0.805360 0.750000
O O15 0.944289 0.874952 0.569415
#
# Coordination Sequence:
#
# PCOD9259286 Si02
#       7
#     4   8   8   8   8   8   8
#     4  10  18  34  64  98 124 164 228 288 324 396
#     4  11  23  42  66  98 130 176 227 283 344 408
#     4   9  17  32  59  92 130 162 223 282 326 395
#     4  12  29  49  66  98 141 177 221 291 358 416
#     4   9  16  31  55  95 129 173 218 272 341 403
#     4  12  25  43  72  99 132 181 232 285 340 416
#     4  10  18  36  61  95 132 170 221 290 338 386
#
# _framework density 20.166067000000002
#
# number of rings (size 3 to 8) (size 9 to 14) (size 15 to 20)
#    0.000    1.538    8.462    0.000    3.231    1.231 
#    0.000    0.769    3.385    0.000    0.000    0.000 
#    0.000    0.000    0.000    0.000    0.000    0.000 
#
# Total GULP energy -144844.496498 kJ/mol
# GULP energy per Si atom -5570.942173 kJ/mol
# Density = 2.012017 g / cm^3
# Si number density = 20.166067 Si / 1000 Ang^3
#
#
#
# Elastic Constant Matrix: (Units=GPa)
#
#
# Indices 1 2 3 4 5 6 
#
# 1 39.7355 25.2963 34.4802 0.0000 -2.3590 0.0000
# 2 25.2963 84.2927 38.3950 0.0000 -15.0430 0.0000
# 3 34.4802 38.3950 116.1854 0.0000 -8.0628 0.0000
# 4 0.0000 0.0000 0.0000 39.3294 0.0000 -9.7783
# 5 -2.3590 -15.0430 -8.0628 0.0000 38.1135 0.0000
# 6 0.0000 0.0000 0.0000 -9.7783 0.0000 22.8945
#
#
#
# Elastic Compliance Matrix: (Units=1/GPa)
#
#
# Indices 1 2 3 4 5 6 
#
# 1 0.037543 -0.007736 -0.008765 0.000000 -0.002584 0.000000
# 2 -0.007736 0.016403 -0.002749 0.000000 0.005414 0.000000
# 3 -0.008765 -0.002749 0.012182 0.000000 0.000950 0.000000
# 4 0.000000 0.000000 0.000000 0.028447 0.000000 0.012150
# 5 -0.002584 0.005414 0.000950 0.000000 0.028415 0.000000
# 6 0.000000 0.000000 0.000000 0.012150 0.000000 0.048868
#
#
# Mechanical properties :
#
#
# Convention : Reuss Voigt Hill
#
# Bulk Modulus (GPa) = 36.19266 48.50627 42.34947
# Shear Modulus (GPa) = 22.77204 29.53696 26.15450
#
# Velocity S-wave (km/s) = 3.36404 3.83127 3.60523
# Velocity P-wave (km/s) = 5.75111 6.60887 6.19486
#
# Compressibility (1/GPa) = 0.02762991
#
# Stress axis : x y z
#
# Youngs Moduli (GPa) = 26.63610 60.96322 82.08536
#
# Poissons Ratio (x) = 0.47158 0.71944
# Poissons Ratio (y) = 0.20604 0.22568
# Poissons Ratio (z) = 0.23345 0.16761
#
# Static dielectric constant tensor:
#      x y z
#    x 1.735340 0.000000 -0.030440 
#    y 0.000000 1.788460 0.000000 
#    z -0.030440 0.000000 1.787830 
# 
# From -- ./inp_files/92670.got.cif
#   From: 2010.05.17/outbox.cif.g08.bks.cpg/sg15_47_cif.got.tgz:92670.got - 2010.06.03 18:47:42.
