data_PCOD9259709
_publ_section_title
;
Structure prediction by ZEFSAII (Michael W. Deem and Ramdas Pophale) SiO2 
 PCOD9259709
Probable space group: C 2/C
;
_chemical_formula_sum "Si O2"
_cell_formula_units_Z 44
_cell_length_a 8.725859
_cell_length_b 25.955322
_cell_length_c 11.840111
_cell_angle_alpha 90.000000
_cell_angle_beta 54.165977
_cell_angle_gamma 90.000000
_cell_volume 2173.998809
_symmetry_space_group_name_H-M "C 2/C"
_symmetry_group_IT_number 15
_symmetry_cell_setting 'monoclinic'
loop_
_space_group_symop_operation_xyz
x,y,z
-x,y,1/2-z
-x,-y,-z
x,-y,1/2+z
1/2+x,1/2+y,z
1/2-x,1/2+y,1/2-z
1/2-x,1/2-y,-z
1/2+x,1/2-y,1/2+z
loop_
_atom_site_type_symbol
_atom_site_label
_atom_site_fract_x
_atom_site_fract_y
_atom_site_fract_z
Si Si1 0.516166 0.529747 0.112816
Si Si2 0.653513 0.895207 0.773395
Si Si3 0.217961 0.210137 0.909440
Si Si4 0.945647 0.554257 0.967270
Si Si5 0.500000 0.881398 0.250000
Si Si6 0.627921 0.703942 0.305804
O O1 0.500000 0.506045 0.250000
O O2 0.347457 0.571857 0.184250
O O3 0.729989 0.550469 0.018166
O O4 0.500000 0.500000 0.000000
O O5 0.500000 0.913078 0.750000
O O6 0.555918 0.904595 0.933949
O O7 0.706629 0.835953 0.745607
O O8 0.338104 0.157731 0.863926
O O9 0.290326 0.240830 0.768180
O O10 0.250000 0.250000 0.000000
O O11 0.998295 0.201044 0.026967
O O12 0.000000 0.500000 0.000000
O O13 0.070129 0.578845 0.815305
O O14 0.500000 0.687238 0.250000
#
# Coordination Sequence:
#
# PCOD9259709 Si02
#       6
#     8   8   8   8   4   8
#     4  10  22  41  65  90 130 174 229 288 347 406
#     4  11  23  41  63  90 132 177 224 275 344 404
#     4  10  18  35  64  99 128 162 222 281 331 411
#     4  11  25  39  64  98 131 175 228 280 338 413
#     4  12  22  36  68  98 134 174 222 278 344 406
#     4  10  19  36  64  94 126 163 218 278 333 396
#
# _framework density 20.239201000000001
#
# number of rings (size 3 to 8) (size 9 to 14) (size 15 to 20)
#    0.000    1.455    2.727    6.000    6.364    0.000 
#    0.000    0.909    0.000    0.000    0.000    0.000 
#    0.000    0.000    0.000    0.000    0.000    0.000 
#
# Total GULP energy -122480.603843 kJ/mol
# GULP energy per Si atom -5567.300175 kJ/mol
# Density = 2.019314 g / cm^3
# Si number density = 20.239201 Si / 1000 Ang^3
#
#
#
# Elastic Constant Matrix: (Units=GPa)
#
#
# Indices 1 2 3 4 5 6 
#
# 1 79.9019 14.8184 19.7823 0.0000 7.9124 0.0000
# 2 14.8184 94.5428 43.6583 0.0000 1.9352 0.0000
# 3 19.7823 43.6583 109.4124 0.0000 5.9736 0.0000
# 4 0.0000 0.0000 0.0000 39.4841 0.0000 -0.1506
# 5 7.9124 1.9352 5.9736 0.0000 26.9221 0.0000
# 6 0.0000 0.0000 0.0000 -0.1506 0.0000 17.7009
#
#
#
# Elastic Compliance Matrix: (Units=1/GPa)
#
#
# Indices 1 2 3 4 5 6 
#
# 1 0.013527 -0.001235 -0.001762 0.000000 -0.003496 0.000000
# 2 -0.001235 0.013080 -0.005026 0.000000 0.000538 0.000000
# 3 -0.001762 -0.005026 0.011556 0.000000 -0.001685 0.000000
# 4 0.000000 0.000000 0.000000 0.025327 0.000000 0.000215
# 5 -0.003496 0.000538 -0.001685 0.000000 0.038507 0.000000
# 6 0.000000 0.000000 0.000000 0.000215 0.000000 0.056496
#
#
# Mechanical properties :
#
#
# Convention : Reuss Voigt Hill
#
# Bulk Modulus (GPa) = 45.21231 48.93057 47.07144
# Shear Modulus (GPa) = 27.48595 30.52795 29.00695
#
# Velocity S-wave (km/s) = 3.68918 3.88797 3.78988
# Velocity P-wave (km/s) = 6.36665 6.66211 6.51605
#
# Compressibility (1/GPa) = 0.02211787
#
# Stress axis : x y z
#
# Youngs Moduli (GPa) = 73.92725 76.44990 86.53787
#
# Poissons Ratio (x) = 0.09441 0.15249
# Poissons Ratio (y) = 0.09129 0.43490
# Poissons Ratio (z) = 0.13027 0.38420
#
# Static dielectric constant tensor:
#      x y z
#    x 1.755240 0.000000 -0.015360 
#    y 0.000000 1.885730 0.000000 
#    z -0.015360 0.000000 1.811290 
# 
# From -- ./inp_files/79687.got.cif
#   From: 2010.05.17/outbox.cif.g08.bks.cpg/sg15_40_cif.got.tgz:79687.got - 2010.06.03 18:47:42.
