data_PCOD9259672
_publ_section_title
;
Structure prediction by ZEFSAII (Michael W. Deem and Ramdas Pophale) SiO2 
 PCOD9259672
Probable space group: C 2/C
;
_chemical_formula_sum "Si O2"
_cell_formula_units_Z 64
_cell_length_a 7.861203
_cell_length_b 12.226122
_cell_length_c 25.225702
_cell_angle_alpha 90.000000
_cell_angle_beta 71.006341
_cell_angle_gamma 90.000000
_cell_volume 2292.490842
_symmetry_space_group_name_H-M "C 2/C"
_symmetry_group_IT_number 15
_symmetry_cell_setting 'monoclinic'
loop_
_space_group_symop_operation_xyz
x,y,z
-x,y,1/2-z
-x,-y,-z
x,-y,1/2+z
1/2+x,1/2+y,z
1/2-x,1/2+y,1/2-z
1/2-x,1/2-y,-z
1/2+x,1/2-y,1/2+z
loop_
_atom_site_type_symbol
_atom_site_label
_atom_site_fract_x
_atom_site_fract_y
_atom_site_fract_z
Si Si1 0.314521 0.888492 0.875860
Si Si2 0.937542 0.742081 0.947919
Si Si3 0.239880 0.831028 0.260120
Si Si4 0.281349 0.085263 0.215382
Si Si5 0.268799 0.874195 0.369217
Si Si6 0.588207 0.338956 0.132894
Si Si7 0.337823 0.579983 0.384961
Si Si8 0.960532 0.390245 0.971790
O O1 0.517066 0.899408 0.829149
O O2 0.279514 0.760345 0.871626
O O3 0.319151 0.903971 0.939228
O O4 0.228913 0.998669 0.862848
O O5 0.894830 0.654556 0.905326
O O6 0.963750 0.855983 0.913673
O O7 0.750000 0.750000 0.000000
O O8 0.069669 0.700915 0.980544
O O9 0.246386 0.697450 0.245606
O O10 0.348275 0.832675 0.305675
O O11 0.033627 0.846277 0.302212
O O12 0.277141 0.954050 0.231586
O O13 0.143018 0.097127 0.179839
O O14 0.069256 0.823501 0.394494
O O15 0.675698 0.451120 0.108731
O O16 0.146226 0.625041 0.421675
O O17 0.000000 0.500000 0.000000
#
# Coordination Sequence:
#
# PCOD9259672 Si02
#       8
#     8   8   8   8   8   8   8   8
#     4  10  20  39  64  83 125 158 199 259 302 373
#     4  10  18  35  63  82 113 157 201 244 301 358
#     4   9  21  39  61  88 121 163 203 253 306 379
#     4  10  20  40  62  89 120 161 210 251 314 361
#     4  10  19  39  59  86 115 161 198 246 308 367
#     4   9  21  40  56  84 128 156 193 254 318 354
#     4  10  20  38  60  85 119 159 195 257 307 359
#     4  10  19  35  60  90 110 153 208 246 296 365
#
# _framework density 27.91723
#
# number of rings (size 3 to 8) (size 9 to 14) (size 15 to 20)
#    0.750    1.500    2.500    1.500    0.000    2.000 
#    4.500   10.000    0.000    0.000    0.000    0.000 
#    0.000    0.000    0.000    0.000    0.000    0.000 
#
# Total GULP energy -178383.474858 kJ/mol
# GULP energy per Si atom -5574.483589 kJ/mol
# Density = 2.785369 g / cm^3
# Si number density = 27.917230 Si / 1000 Ang^3
#
#
#
# Elastic Constant Matrix: (Units=GPa)
#
#
# Indices 1 2 3 4 5 6 
#
# 1 37.9899 36.5392 10.9445 0.0000 4.7581 0.0000
# 2 36.5392 278.4457 51.9868 0.0000 -3.9430 0.0000
# 3 10.9445 51.9868 98.8170 0.0000 22.8070 0.0000
# 4 0.0000 0.0000 0.0000 55.5426 0.0000 -0.3124
# 5 4.7581 -3.9430 22.8070 0.0000 39.3309 0.0000
# 6 0.0000 0.0000 0.0000 -0.3124 0.0000 49.5982
#
#
#
# Elastic Compliance Matrix: (Units=1/GPa)
#
#
# Indices 1 2 3 4 5 6 
#
# 1 0.030794 -0.004023 -0.000394 0.000000 -0.003900 0.000000
# 2 -0.004023 0.004630 -0.002551 0.000000 0.002430 0.000000
# 3 -0.000394 -0.002551 0.013339 0.000000 -0.007943 0.000000
# 4 0.000000 0.000000 0.000000 0.018005 0.000000 0.000113
# 5 -0.003900 0.002430 -0.007943 0.000000 0.030747 0.000000
# 6 0.000000 0.000000 0.000000 0.000113 0.000000 0.020163
#
#
# Mechanical properties :
#
#
# Convention : Reuss Voigt Hill
#
# Bulk Modulus (GPa) = 28.71367 68.24373 48.47870
# Shear Modulus (GPa) = 34.91103 49.94649 42.42876
#
# Velocity S-wave (km/s) = 3.54010 4.23435 3.90270
# Velocity P-wave (km/s) = 5.19783 6.95733 6.14092
#
# Compressibility (1/GPa) = 0.03482662
#
# Stress axis : x y z
#
# Youngs Moduli (GPa) = 32.47413 215.98530 74.96975
#
# Poissons Ratio (x) = 0.86881 0.02955
# Poissons Ratio (y) = 0.13063 0.19126
# Poissons Ratio (z) = 0.01280 0.55101
#
# Static dielectric constant tensor:
#      x y z
#    x 2.364130 0.000000 0.020250 
#    y 0.000000 2.125870 0.000000 
#    z 0.020250 0.000000 2.169100 
# 
# From -- ./inp_files/292014.got.cif
#   From: 2010.05.17/outbox.cif.g08.bks.cpg/sg15_147_cif.got.tgz:292014.got - 2010.06.03 18:47:42.
