data_PCOD9259464
_publ_section_title
;
Structure prediction by ZEFSAII (Michael W. Deem and Ramdas Pophale) SiO2 
 PCOD9259464
Probable space group: C 2/C
;
_chemical_formula_sum "Si O2"
_cell_formula_units_Z 60
_cell_length_a 23.940487
_cell_length_b 22.544541
_cell_length_c 13.959898
_cell_angle_alpha 90.000000
_cell_angle_beta 24.151721
_cell_angle_gamma 90.000000
_cell_volume 3082.788673
_symmetry_space_group_name_H-M "C 2/C"
_symmetry_group_IT_number 15
_symmetry_cell_setting 'monoclinic'
loop_
_space_group_symop_operation_xyz
x,y,z
-x,y,1/2-z
-x,-y,-z
x,-y,1/2+z
1/2+x,1/2+y,z
1/2-x,1/2+y,1/2-z
1/2-x,1/2-y,-z
1/2+x,1/2-y,1/2+z
loop_
_atom_site_type_symbol
_atom_site_label
_atom_site_fract_x
_atom_site_fract_y
_atom_site_fract_z
Si Si1 0.287970 0.999774 0.853279
Si Si2 0.314372 0.832463 0.457406
Si Si3 0.344035 0.704036 0.486089
Si Si4 0.654280 0.012999 0.012439
Si Si5 0.941487 0.611964 0.042907
Si Si6 0.000000 0.943260 0.250000
Si Si7 0.305500 0.403173 0.692505
Si Si8 0.852043 0.385457 0.130013
O O1 0.401990 0.956657 0.626586
O O2 0.305932 0.065550 0.782677
O O3 0.304843 0.990196 0.940512
O O4 0.134754 0.979403 0.067151
O O5 0.346432 0.775223 0.472718
O O6 0.230759 0.813774 0.494977
O O7 0.215028 0.872407 0.675064
O O8 0.448209 0.867374 0.209482
O O9 0.500000 0.683425 0.250000
O O10 0.250911 0.669930 0.709597
O O11 0.647137 0.076558 0.969080
O O12 0.753249 0.969942 0.798004
O O13 0.500000 0.988705 0.250000
O O14 0.795972 0.629208 0.224541
O O15 0.003078 0.634027 0.048471
O O16 0.952691 0.905494 0.415322
#
# Coordination Sequence:
#
# PCOD9259464 Si02
#       8
#     8   8   8   8   8   4   8   8
#     4  11  22  36  54  83 126 153 195 239 295 373
#     4  10  21  38  63  89 107 153 213 247 300 351
#     4  10  22  37  58  87 123 151 190 258 304 355
#     4  12  21  33  60  87 113 155 193 243 310 356
#     4  10  18  35  58  83 114 143 196 261 286 337
#     4  10  24  38  48  78 114 156 190 232 292 352
#     4  11  21  35  58  80 111 152 200 243 286 355
#     4  11  21  35  55  88 122 155 189 244 310 363
#
# _framework density 19.462897999999999
#
# number of rings (size 3 to 8) (size 9 to 14) (size 15 to 20)
#    0.000    1.333    4.000    4.800    0.933    1.600 
#    0.000    0.000    1.467    0.000    0.000    9.333 
#    0.000    0.000    0.000    0.000    0.000    0.000 
#
# Total GULP energy -167020.129469 kJ/mol
# GULP energy per Si atom -5567.337649 kJ/mol
# Density = 1.941860 g / cm^3
# Si number density = 19.462898 Si / 1000 Ang^3
#
#
#
# Elastic Constant Matrix: (Units=GPa)
#
#
# Indices 1 2 3 4 5 6 
#
# 1 74.8769 17.5187 14.1348 -0.0007 11.3785 0.0008
# 2 17.5187 71.5422 43.4475 -0.0026 4.9555 0.0013
# 3 14.1348 43.4475 100.4184 -0.0007 8.9679 0.0006
# 4 -0.0007 -0.0026 -0.0007 24.7612 -0.0010 8.0113
# 5 11.3785 4.9555 8.9679 -0.0010 34.2589 -0.0005
# 6 0.0008 0.0013 0.0006 8.0113 -0.0005 18.8650
#
#
#
# Elastic Compliance Matrix: (Units=1/GPa)
#
#
# Indices 1 2 3 4 5 6 
#
# 1 0.014815 -0.003114 -0.000347 0.000000 -0.004379 -0.000001
# 2 -0.003114 0.019626 -0.008081 0.000002 0.000311 -0.000002
# 3 -0.000347 -0.008081 0.013709 -0.000001 -0.002304 0.000000
# 4 0.000000 0.000002 -0.000001 0.046818 0.000001 -0.019882
# 5 -0.004379 0.000311 -0.002304 0.000001 0.031202 0.000001
# 6 -0.000001 -0.000002 0.000000 -0.019882 0.000001 0.061451
#
#
# Mechanical properties :
#
#
# Convention : Reuss Voigt Hill
#
# Bulk Modulus (GPa) = 39.89320 44.11549 42.00435
# Shear Modulus (GPa) = 22.82463 27.02613 24.92538
#
# Velocity S-wave (km/s) = 3.42822 3.73043 3.58251
# Velocity P-wave (km/s) = 6.01763 6.42421 6.22424
#
# Compressibility (1/GPa) = 0.02506693
#
# Stress axis : x y z
#
# Youngs Moduli (GPa) = 67.50035 50.95200 72.94277
#
# Poissons Ratio (x) = 0.15864 0.02532
# Poissons Ratio (y) = 0.21017 0.58946
# Poissons Ratio (z) = 0.02343 0.41175
#
# Static dielectric constant tensor:
#      x y z
#    x 1.758220 0.000000 0.007100 
#    y 0.000000 1.737750 0.000000 
#    z 0.007100 0.000000 1.692300 
# 
# From -- ./inp_files/179266.got.cif
#   From: 2010.05.17/outbox.cif.g08.bks.cpg/sg15_90_cif.got.tgz:179266.got - 2010.06.03 18:47:42.
