data_PCOD9259597
_publ_section_title
;
Structure prediction by ZEFSAII (Michael W. Deem and Ramdas Pophale) SiO2 
 PCOD9259597
Probable space group: C 2/C
;
_chemical_formula_sum "Si O2"
_cell_formula_units_Z 40
_cell_length_a 13.532300
_cell_length_b 8.084405
_cell_length_c 17.570924
_cell_angle_alpha 90.000000
_cell_angle_beta 127.209060
_cell_angle_gamma 90.000000
_cell_volume 1530.961388
_symmetry_space_group_name_H-M "C 2/C"
_symmetry_group_IT_number 15
_symmetry_cell_setting 'monoclinic'
loop_
_space_group_symop_operation_xyz
x,y,z
-x,y,1/2-z
-x,-y,-z
x,-y,1/2+z
1/2+x,1/2+y,z
1/2-x,1/2+y,1/2-z
1/2-x,1/2-y,-z
1/2+x,1/2-y,1/2+z
loop_
_atom_site_type_symbol
_atom_site_label
_atom_site_fract_x
_atom_site_fract_y
_atom_site_fract_z
Si Si1 0.018538 0.363489 0.348555
Si Si2 0.673418 0.750697 0.635776
Si Si3 0.241491 0.407446 0.186142
Si Si4 0.101294 0.957036 0.980119
Si Si5 0.602042 0.178985 0.474126
O O1 0.880594 0.395735 0.317904
O O2 0.000000 0.363552 0.250000
O O3 0.063955 0.188117 0.404944
O O4 0.098693 0.519813 0.418243
O O5 0.658634 0.676275 0.713232
O O6 0.704675 0.622965 0.584016
O O7 0.537293 0.824476 0.553542
O O8 0.767820 0.901291 0.683860
O O9 0.199733 0.329904 0.088175
O O10 0.121292 0.135130 0.951470
O O11 0.000000 0.000000 0.000000
#
# Coordination Sequence:
#
# PCOD9259597 Si02
#       5
#     8   8   8   8   8
#     4  11  22  38  57  86 122 153 184 234 299 341
#     4  10  19  31  59  90 109 143 201 243 276 325
#     4  11  19  35  60  87 112 151 193 242 282 337
#     4  10  18  35  61  82 111 150 195 238 275 335
#     4  10  20  38  61  82 114 151 196 240 275 338
#
# _framework density 26.127374
#
# number of rings (size 3 to 8) (size 9 to 14) (size 15 to 20)
#    0.000    1.600    6.000    2.400    2.800    0.800 
#    0.000    1.000    0.000    6.000    0.000    0.000 
#    0.000    0.000    0.000    0.000    0.000    0.000 
#
# Total GULP energy -111848.815093 kJ/mol
# GULP energy per Si atom -5592.440755 kJ/mol
# Density = 2.606791 g / cm^3
# Si number density = 26.127374 Si / 1000 Ang^3
#
#
#
# Elastic Constant Matrix: (Units=GPa)
#
#
# Indices 1 2 3 4 5 6 
#
# 1 87.8458 17.2805 32.7207 0.0000 -28.2707 0.0000
# 2 17.2805 238.3736 90.4032 0.0000 -19.0747 0.0000
# 3 32.7207 90.4032 196.5858 0.0000 -19.8597 0.0000
# 4 0.0000 0.0000 0.0000 52.1577 0.0000 -8.8077
# 5 -28.2707 -19.0747 -19.8597 0.0000 28.1772 0.0000
# 6 0.0000 0.0000 0.0000 -8.8077 0.0000 -4.0308
#
#
#
# Elastic Compliance Matrix: (Units=1/GPa)
#
#
# Indices 1 2 3 4 5 6 
#
# 1 0.017149 0.000644 -0.001473 0.000000 0.016604 0.000000
# 2 0.000644 0.005205 -0.002239 0.000000 0.002592 0.000000
# 3 -0.001473 -0.002239 0.006524 0.000000 0.001604 0.000000
# 4 0.000000 0.000000 0.000000 0.014005 0.000000 -0.030602
# 5 0.016604 0.002592 0.001604 0.000000 0.055033 0.000000
# 6 0.000000 0.000000 0.000000 -0.030602 0.000000 -0.181223
#
#
# Mechanical properties :
#
#
# Convention : Reuss Voigt Hill
#
# Bulk Modulus (GPa) = 43.97236 89.29045 66.63140
# Shear Modulus (GPa) = -71.84937 40.75422 -15.54758
#
# Velocity S-wave (km/s) = -5.24970 3.95375 -2.44205
# Velocity P-wave (km/s) = 4.45862 7.42241 4.19600
#
# Compressibility (1/GPa) = 0.02274156
#
# Stress axis : x y z
#
# Youngs Moduli (GPa) = 58.31244 192.12617 153.28638
#
# Poissons Ratio (x) = -0.12376 0.22583
# Poissons Ratio (y) = -0.03756 0.34320
# Poissons Ratio (z) = 0.08591 0.43016
#
# Static dielectric constant tensor:
#      x y z
#    x 2.157790 0.000000 0.101500 
#    y 0.000000 2.158040 0.000000 
#    z 0.101500 0.000000 2.103490 
# 
# From -- ./inp_files/150586.got.cif
#   From: 2010.05.17/outbox.cif.g08.bks.cpg/sg15_76_cif.got.tgz:150586.got - 2010.06.03 18:47:42.
