data_PCOD9259555
_publ_section_title
;
Structure prediction by ZEFSAII (Michael W. Deem and Ramdas Pophale) SiO2 
 PCOD9259555
Probable space group: C 2/C
;
_chemical_formula_sum "Si O2"
_cell_formula_units_Z 56
_cell_length_a 12.085110
_cell_length_b 9.941657
_cell_length_c 26.878029
_cell_angle_alpha 90.000000
_cell_angle_beta 50.053611
_cell_angle_gamma 90.000000
_cell_volume 2475.719425
_symmetry_space_group_name_H-M "C 2/C"
_symmetry_group_IT_number 15
_symmetry_cell_setting 'monoclinic'
loop_
_space_group_symop_operation_xyz
x,y,z
-x,y,1/2-z
-x,-y,-z
x,-y,1/2+z
1/2+x,1/2+y,z
1/2-x,1/2+y,1/2-z
1/2-x,1/2-y,-z
1/2+x,1/2-y,1/2+z
loop_
_atom_site_type_symbol
_atom_site_label
_atom_site_fract_x
_atom_site_fract_y
_atom_site_fract_z
Si Si1 0.540643 0.132535 0.039148
Si Si2 0.972391 0.865287 0.386270
Si Si3 0.925472 0.584334 0.887664
Si Si4 0.636803 0.497710 0.423355
Si Si5 0.579530 0.861947 0.780056
Si Si6 0.332036 0.740010 0.150364
Si Si7 0.779902 0.526216 0.600545
O O1 0.588333 0.268597 0.052184
O O2 0.592069 0.009222 0.058687
O O3 0.366172 0.111074 0.087074
O O4 0.605735 0.109033 0.966517
O O5 0.862560 0.966966 0.391517
O O6 0.026059 0.759415 0.330173
O O7 0.093311 0.941593 0.382022
O O8 0.769166 0.585041 0.907826
O O9 0.033023 0.499541 0.820527
O O10 0.005675 0.720250 0.880711
O O11 0.500000 0.500000 0.500000
O O12 0.682861 0.647765 0.394499
O O13 0.500000 0.858360 0.750000
O O14 0.745165 0.832121 0.719324
O O15 0.261626 0.883991 0.155206
#
# Coordination Sequence:
#
# PCOD9259555 Si02
#       7
#     8   8   8   8   8   8   8
#     4   9  19  35  58  87 115 157 211 263 320 382
#     4  11  22  35  59  89 122 164 210 264 326 389
#     4  10  23  41  65  91 127 173 218 274 336 398
#     4  12  25  40  62  98 139 178 219 271 342 409
#     4  11  21  42  67  88 123 164 226 276 337 403
#     4  11  23  40  65  92 121 176 217 272 334 399
#     4  10  18  35  60  84 116 157 211 265 316 381
#
# _framework density 22.619686000000002
#
# number of rings (size 3 to 8) (size 9 to 14) (size 15 to 20)
#    0.000    1.429    2.857    3.000    2.000    1.714 
#    0.000    0.000    0.000    0.857    0.000    0.000 
#    0.000    0.000    0.000    0.000    0.000    0.000 
#
# Total GULP energy -156320.571304 kJ/mol
# GULP energy per Si atom -5582.877547 kJ/mol
# Density = 2.256820 g / cm^3
# Si number density = 22.619686 Si / 1000 Ang^3
#
#
#
# Elastic Constant Matrix: (Units=GPa)
#
#
# Indices 1 2 3 4 5 6 
#
# 1 148.7594 8.2499 -1.9017 0.0000 -3.0978 0.0000
# 2 8.2499 27.2049 5.1635 0.0000 -2.0206 0.0000
# 3 -1.9017 5.1635 68.5552 0.0000 2.5342 0.0000
# 4 0.0000 0.0000 0.0000 18.0807 0.0000 1.1957
# 5 -3.0978 -2.0206 2.5342 0.0000 35.9464 0.0000
# 6 0.0000 0.0000 0.0000 1.1957 0.0000 24.9218
#
#
#
# Elastic Compliance Matrix: (Units=1/GPa)
#
#
# Indices 1 2 3 4 5 6 
#
# 1 0.006853 -0.002108 0.000332 0.000000 0.000449 0.000000
# 2 -0.002108 0.038130 -0.003011 0.000000 0.002174 0.000000
# 3 0.000332 -0.003011 0.014867 0.000000 -0.001189 0.000000
# 4 0.000000 0.000000 0.000000 0.055484 0.000000 -0.002662
# 5 0.000449 0.002174 -0.001189 0.000000 0.028064 0.000000
# 6 0.000000 0.000000 0.000000 -0.002662 0.000000 0.040253
#
#
# Mechanical properties :
#
#
# Convention : Reuss Voigt Hill
#
# Bulk Modulus (GPa) = 19.88984 29.72700 24.80842
# Shear Modulus (GPa) = 23.81156 31.32364 27.56760
#
# Velocity S-wave (km/s) = 3.24804 3.72532 3.49484
# Velocity P-wave (km/s) = 4.78316 5.62802 5.22270
#
# Compressibility (1/GPa) = 0.05027693
#
# Stress axis : x y z
#
# Youngs Moduli (GPa) = 145.92684 26.22596 67.26432
#
# Poissons Ratio (x) = 0.05528 -0.02235
# Poissons Ratio (y) = 0.30759 0.20252
# Poissons Ratio (z) = -0.04849 0.07896
#
# Static dielectric constant tensor:
#      x y z
#    x 1.896170 0.000000 -0.038040 
#    y 0.000000 1.932760 0.000000 
#    z -0.038040 0.000000 1.859050 
# 
# From -- ./inp_files/292216.got.cif
#   From: 2010.05.17/outbox.cif.g08.bks.cpg/sg15_147_cif.got.tgz:292216.got - 2010.06.03 18:47:42.
