data_PCOD9259168
_publ_section_title
;
Structure prediction by ZEFSAII (Michael W. Deem and Ramdas Pophale) SiO2 
 PCOD9259168
Probable space group: C 2/C
;
_chemical_formula_sum "Si O2"
_cell_formula_units_Z 48
_cell_length_a 8.290823
_cell_length_b 30.405363
_cell_length_c 19.990929
_cell_angle_alpha 90.000000
_cell_angle_beta 30.979399
_cell_angle_gamma 90.000000
_cell_volume 2593.941403
_symmetry_space_group_name_H-M "C 2/C"
_symmetry_group_IT_number 15
_symmetry_cell_setting 'monoclinic'
loop_
_space_group_symop_operation_xyz
x,y,z
-x,y,1/2-z
-x,-y,-z
x,-y,1/2+z
1/2+x,1/2+y,z
1/2-x,1/2+y,1/2-z
1/2-x,1/2-y,-z
1/2+x,1/2-y,1/2+z
loop_
_atom_site_type_symbol
_atom_site_label
_atom_site_fract_x
_atom_site_fract_y
_atom_site_fract_z
Si Si1 0.623163 0.095756 0.879781
Si Si2 0.206629 0.317326 0.550327
Si Si3 0.874829 0.500794 0.120152
Si Si4 0.577440 0.271208 0.299899
Si Si5 0.875480 0.403187 0.619530
Si Si6 0.624300 0.832005 0.133443
O O1 0.473340 0.133119 0.887496
O O2 0.000000 0.100484 0.750000
O O3 0.541165 0.046912 0.880388
O O4 0.497420 0.098584 0.999941
O O5 0.351665 0.300588 0.427839
O O6 0.508440 0.323181 0.490545
O O7 0.986286 0.278792 0.656237
O O8 0.028484 0.362903 0.604105
O O9 0.500000 0.501262 0.250000
O O10 0.966766 0.548477 0.116099
O O11 0.000000 0.500000 0.000000
O O12 0.500000 0.277820 0.250000
O O13 0.928508 0.287612 0.189221
O O14 0.500000 0.399502 0.750000
O O15 0.500000 0.848353 0.250000
#
# Coordination Sequence:
#
# PCOD9259168 Si02
#       6
#     8   8   8   8   8   8
#     4  10  18  34  61  83 105 144 187 220 259 315
#     4  10  22  35  52  78 107 137 174 224 276 320
#     4   8  16  30  52  81 106 136 180 219 251 310
#     4  10  21  37  54  73 100 140 185 224 262 317
#     4  10  20  35  55  81 113 144 177 218 270 325
#     4  10  20  35  54  80 107 133 180 234 270 311
#
# _framework density 18.504657999999999
#
# number of rings (size 3 to 8) (size 9 to 14) (size 15 to 20)
#    0.000    2.333    0.000    3.500    0.000    5.333 
#    0.000    0.833    0.000    1.000    0.000    0.000 
#    0.000    0.000    0.000    0.000    0.000    0.000 
#
# Total GULP energy -133835.028000 kJ/mol
# GULP energy per Si atom -5576.459500 kJ/mol
# Density = 1.846254 g / cm^3
# Si number density = 18.504658 Si / 1000 Ang^3
#
#
#
# Elastic Constant Matrix: (Units=GPa)
#
#
# Indices 1 2 3 4 5 6 
#
# 1 81.1085 61.9592 34.5740 -0.0005 -8.3189 -0.0001
# 2 61.9592 181.5299 42.6773 -0.0010 -30.3713 -0.0003
# 3 34.5740 42.6773 99.0801 0.0054 -13.0936 0.0013
# 4 -0.0005 -0.0010 0.0054 43.1708 -0.0011 6.1098
# 5 -8.3189 -30.3713 -13.0936 -0.0011 21.7919 -0.0003
# 6 -0.0001 -0.0003 0.0013 6.1098 -0.0003 25.0755
#
#
#
# Elastic Compliance Matrix: (Units=1/GPa)
#
#
# Indices 1 2 3 4 5 6 
#
# 1 0.018261 -0.005842 -0.004356 0.000001 -0.003789 0.000000
# 2 -0.005842 0.009407 -0.000625 0.000000 0.010505 0.000000
# 3 -0.004356 -0.000625 0.012543 -0.000001 0.005002 0.000000
# 4 0.000001 0.000000 -0.000001 0.023991 0.000001 -0.005846
# 5 -0.003789 0.010505 0.005002 0.000001 0.062089 0.000000
# 6 0.000000 0.000000 0.000000 -0.005846 0.000000 0.041304
#
#
# Mechanical properties :
#
#
# Convention : Reuss Voigt Hill
#
# Bulk Modulus (GPa) = 53.86863 71.12660 62.49762
# Shear Modulus (GPa) = 25.58452 32.84150 29.21301
#
# Velocity S-wave (km/s) = 3.72237 4.21737 3.97758
# Velocity P-wave (km/s) = 6.90281 7.88895 7.41230
#
# Compressibility (1/GPa) = 0.01856368
#
# Stress axis : x y z
#
# Youngs Moduli (GPa) = 54.76291 106.29909 79.72393
#
# Poissons Ratio (x) = 0.62105 0.34729
# Poissons Ratio (y) = 0.31995 0.04984
# Poissons Ratio (z) = 0.23856 0.06645
#
# Static dielectric constant tensor:
#      x y z
#    x 1.599500 0.000000 0.006100 
#    y 0.000000 1.688780 0.000000 
#    z 0.006100 0.000000 1.635610 
# 
# From -- ./inp_files/80286.got.cif
#   From: 2010.05.17/outbox.cif.g08.bks.cpg/sg15_41_cif.got.tgz:80286.got - 2010.06.03 18:47:42.
