data_PCOD9259165
_publ_section_title
;
Structure prediction by ZEFSAII (Michael W. Deem and Ramdas Pophale) SiO2 
 PCOD9259165
Probable space group: C 2/C
;
_chemical_formula_sum "Si O2"
_cell_formula_units_Z 52
_cell_length_a 8.649328
_cell_length_b 17.267120
_cell_length_c 26.042659
_cell_angle_alpha 90.000000
_cell_angle_beta 40.015357
_cell_angle_gamma 90.000000
_cell_volume 2500.885349
_symmetry_space_group_name_H-M "C 2/C"
_symmetry_group_IT_number 15
_symmetry_cell_setting 'monoclinic'
loop_
_space_group_symop_operation_xyz
x,y,z
-x,y,1/2-z
-x,-y,-z
x,-y,1/2+z
1/2+x,1/2+y,z
1/2-x,1/2+y,1/2-z
1/2-x,1/2-y,-z
1/2+x,1/2-y,1/2+z
loop_
_atom_site_type_symbol
_atom_site_label
_atom_site_fract_x
_atom_site_fract_y
_atom_site_fract_z
Si Si1 0.322464 0.033448 0.118841
Si Si2 0.375908 0.317335 0.363280
Si Si3 0.948632 0.337733 0.701665
Si Si4 0.163312 0.958338 0.053820
Si Si5 0.000000 0.158527 0.250000
Si Si6 0.627584 0.011772 0.662535
Si Si7 0.817082 0.617354 0.682515
O O1 0.197067 0.110841 0.168196
O O2 0.223379 0.010192 0.088322
O O3 0.244996 0.966229 0.177484
O O4 0.609673 0.035610 0.041066
O O5 0.392386 0.226313 0.367774
O O6 0.351549 0.371685 0.418730
O O7 0.171620 0.332420 0.372045
O O8 0.618879 0.347365 0.271460
O O9 0.679674 0.313692 0.750480
O O10 0.000000 0.327034 0.750000
O O11 0.021582 0.427308 0.672693
O O12 0.913432 0.987861 0.094836
O O13 0.500000 0.022430 0.750000
O O14 0.554813 0.089899 0.650756
#
# Coordination Sequence:
#
# PCOD9259165 Si02
#       7
#     8   8   8   8   4   8   8
#     4  10  20  38  61  91 112 164 203 261 298 358
#     4  10  20  39  59  88 122 159 196 253 304 363
#     4  11  23  37  61  93 125 158 204 256 305 362
#     4  10  21  36  64  88 124 151 211 254 307 354
#     4  12  22  40  66  86 122 166 212 242 310 370
#     4  11  20  33  60  93 116 154 205 254 293 369
#     4  10  18  34  61  80 118 156 200 240 298 349
#
# _framework density 20.792636999999999
#
# number of rings (size 3 to 8) (size 9 to 14) (size 15 to 20)
#    0.000    1.538    4.615    3.692    0.000    1.846 
#    0.000    0.769    3.385    3.692    0.000    0.000 
#    0.000    0.000    0.000    0.000    0.000    0.000 
#
# Total GULP energy -144735.632437 kJ/mol
# GULP energy per Si atom -5566.755094 kJ/mol
# Density = 2.074531 g / cm^3
# Si number density = 20.792637 Si / 1000 Ang^3
#
#
#
# Elastic Constant Matrix: (Units=GPa)
#
#
# Indices 1 2 3 4 5 6 
#
# 1 107.9361 21.7385 24.8360 0.0018 -28.8648 0.0020
# 2 21.7385 59.0483 15.9656 0.0081 -5.3704 0.0046
# 3 24.8360 15.9656 67.3817 0.0099 -20.5488 0.0190
# 4 0.0018 0.0081 0.0099 0.5831 0.0035 -2.6876
# 5 -28.8648 -5.3704 -20.5488 0.0035 33.5612 -0.0007
# 6 0.0020 0.0046 0.0190 -2.6876 -0.0007 11.4655
#
#
#
# Elastic Compliance Matrix: (Units=1/GPa)
#
#
# Indices 1 2 3 4 5 6 
#
# 1 0.012846 -0.003595 -0.000848 0.000358 0.009954 0.000085
# 2 -0.003595 0.019103 -0.003950 0.002162 -0.002454 0.000506
# 3 -0.000848 -0.003950 0.019271 0.005847 0.010438 0.001341
# 4 0.000358 0.002162 0.005847-21.312163 0.006338 -4.995772
# 5 0.009954 -0.002454 0.010438 0.006338 0.044355 0.001470
# 6 0.000085 0.000506 0.001341 -4.995772 0.001470 -1.083837
#
#
# Mechanical properties :
#
#
# Convention : Reuss Voigt Hill
#
# Bulk Modulus (GPa) = 29.04004 39.93849 34.48927
# Shear Modulus (GPa) = -0.22450 20.57702 10.17626
#
# Velocity S-wave (km/s) = -0.32894 3.14925 2.21468
# Velocity P-wave (km/s) = 3.72190 5.69854 4.81279
#
# Compressibility (1/GPa) = 0.03443521
#
# Stress axis : x y z
#
# Youngs Moduli (GPa) = 77.84736 52.34720 51.89150
#
# Poissons Ratio (x) = 0.18817 0.04398
# Poissons Ratio (y) = 0.27984 0.20498
# Poissons Ratio (z) = 0.06598 0.20678
#
# Static dielectric constant tensor:
#      x y z
#    x 1.916150 0.000000 0.001420 
#    y 0.000000 1.762670 0.000000 
#    z 0.001420 0.000000 1.693160 
# 
# From -- ./inp_files/308482.got.cif
#   From: 2010.05.17/outbox.cif.g08.bks.cpg/sg15_155_cif.got.tgz:308482.got - 2010.06.03 18:47:42.
