data_PCOD9259262
_publ_section_title
;
Structure prediction by ZEFSAII (Michael W. Deem and Ramdas Pophale) SiO2 
 PCOD9259262
Probable space group: C 2/C
;
_chemical_formula_sum "Si O2"
_cell_formula_units_Z 44
_cell_length_a 5.476655
_cell_length_b 14.459128
_cell_length_c 25.528125
_cell_angle_alpha 90.000000
_cell_angle_beta 122.776979
_cell_angle_gamma 90.000000
_cell_volume 1699.655642
_symmetry_space_group_name_H-M "C 2/C"
_symmetry_group_IT_number 15
_symmetry_cell_setting 'monoclinic'
loop_
_space_group_symop_operation_xyz
x,y,z
-x,y,1/2-z
-x,-y,-z
x,-y,1/2+z
1/2+x,1/2+y,z
1/2-x,1/2+y,1/2-z
1/2-x,1/2-y,-z
1/2+x,1/2-y,1/2+z
loop_
_atom_site_type_symbol
_atom_site_label
_atom_site_fract_x
_atom_site_fract_y
_atom_site_fract_z
Si Si1 0.846599 0.514820 0.538177
Si Si2 0.000000 0.188791 0.750000
Si Si3 0.085516 0.984264 0.649796
Si Si4 0.500000 0.914343 0.250000
Si Si5 0.000000 0.111439 0.250000
Si Si6 0.788371 0.332365 0.388798
Si Si7 0.417161 0.852811 0.624572
O O1 0.500000 0.500000 0.500000
O O2 0.986632 0.432466 0.590325
O O3 0.000000 0.500000 0.500000
O O4 0.902642 0.619588 0.565654
O O5 0.226792 0.142857 0.736506
O O6 0.239682 0.210342 0.824341
O O7 0.128742 0.896778 0.618260
O O8 0.059282 0.948808 0.705920
O O9 0.411932 0.026595 0.689109
O O10 0.892691 0.073968 0.618654
O O11 0.304365 0.160345 0.302987
O O12 0.674582 0.246004 0.408985
#
# Coordination Sequence:
#
# PCOD9259262 Si02
#       7
#     8   4   8   4   4   8   8
#     4  12  29  56  81 110 154 217 286 345 390 456
#     4  10  23  39  68 118 150 188 245 299 408 496
#     4  11  21  43  68 109 164 199 241 310 393 486
#     4  10  18  34  63  93 152 206 224 284 363 465
#     4  12  23  45  73 117 168 202 249 323 407 513
#     4  11  26  49  77 116 155 209 254 334 409 483
#     4  12  27  48  78 117 159 205 268 325 411 491
#
# _framework density 25.887597
#
# number of rings (size 3 to 8) (size 9 to 14) (size 15 to 20)
#    0.000    0.727    3.636    4.364    2.545    5.818 
#    6.545    0.000    0.000    0.000    0.000    0.000 
#    0.000    0.000    0.000    0.000    0.000    0.000 
#
# Total GULP energy -122468.750042 kJ/mol
# GULP energy per Si atom -5566.761366 kJ/mol
# Density = 2.582868 g / cm^3
# Si number density = 25.887597 Si / 1000 Ang^3
#
#
#
# Elastic Constant Matrix: (Units=GPa)
#
#
# Indices 1 2 3 4 5 6 
#
# 1 101.8223 40.3366 24.6390 0.0001 -4.4295 0.0000
# 2 40.3366 193.2956 38.1545 0.0000 2.0164 0.0000
# 3 24.6390 38.1545 105.4473 0.0000 -2.1454 0.0000
# 4 0.0001 0.0000 0.0000 2.9199 0.0000 19.1091
# 5 -4.4295 2.0164 -2.1454 0.0000 53.4186 0.0000
# 6 0.0000 0.0000 0.0000 19.1091 0.0000 33.7266
#
#
#
# Elastic Compliance Matrix: (Units=1/GPa)
#
#
# Indices 1 2 3 4 5 6 
#
# 1 0.011087 -0.001955 -0.001864 0.000000 0.000918 0.000000
# 2 -0.001955 0.005921 -0.001695 0.000000 -0.000454 0.000000
# 3 -0.001864 -0.001695 0.010539 0.000000 0.000333 0.000000
# 4 0.000000 0.000000 0.000000 -0.126469 0.000000 0.071656
# 5 0.000918 -0.000454 0.000333 0.000000 0.018827 0.000000
# 6 0.000000 0.000000 0.000000 0.071656 0.000000 -0.010949
#
#
# Mechanical properties :
#
#
# Convention : Reuss Voigt Hill
#
# Bulk Modulus (GPa) = 60.54044 67.42503 63.98274
# Shear Modulus (GPa) = -67.10393 37.84203 -14.63095
#
# Velocity S-wave (km/s) = -5.09682 3.82747 -2.37991
# Velocity P-wave (km/s) = 3.34665 6.75534 4.14937
#
# Compressibility (1/GPa) = 0.01651788
#
# Stress axis : x y z
#
# Youngs Moduli (GPa) = 90.19871 168.90008 94.88545
#
# Poissons Ratio (x) = 0.33022 0.17691
# Poissons Ratio (y) = 0.17635 0.16080
# Poissons Ratio (z) = 0.16817 0.28623
#
# Static dielectric constant tensor:
#      x y z
#    x 2.175540 0.000000 -0.020770 
#    y 0.000000 2.137140 0.000000 
#    z -0.020770 0.000000 2.696890 
# 
# From -- ./inp_files/285642.got.cif
#   From: 2010.05.17/outbox.cif.g08.bks.cpg/sg15_143_cif.got.tgz:285642.got - 2010.06.03 18:47:42.
