data_PCOD9259942
_publ_section_title
;
Structure prediction by ZEFSAII (Michael W. Deem and Ramdas Pophale) SiO2 
 PCOD9259942
Probable space group: C 2/C
;
_chemical_formula_sum "Si O2"
_cell_formula_units_Z 56
_cell_length_a 20.727860
_cell_length_b 26.448655
_cell_length_c 13.151254
_cell_angle_alpha 90.000000
_cell_angle_beta 155.651051
_cell_angle_gamma 90.000000
_cell_volume 2972.562648
_symmetry_space_group_name_H-M "C 2/C"
_symmetry_group_IT_number 15
_symmetry_cell_setting 'monoclinic'
loop_
_space_group_symop_operation_xyz
x,y,z
-x,y,1/2-z
-x,-y,-z
x,-y,1/2+z
1/2+x,1/2+y,z
1/2-x,1/2+y,1/2-z
1/2-x,1/2-y,-z
1/2+x,1/2-y,1/2+z
loop_
_atom_site_type_symbol
_atom_site_label
_atom_site_fract_x
_atom_site_fract_y
_atom_site_fract_z
Si Si1 0.936705 0.101726 0.274887
Si Si2 0.170470 0.205710 0.448758
Si Si3 0.430446 0.174161 0.982697
Si Si4 0.000000 0.929257 0.250000
Si Si5 0.147220 0.002946 0.786480
Si Si6 0.752421 0.100971 0.639631
Si Si7 0.734655 0.651387 0.065499
Si Si8 0.000000 0.757825 0.250000
O O1 0.855841 0.156041 0.157715
O O2 0.000000 0.093798 0.250000
O O3 0.084324 0.103696 0.563368
O O4 0.824391 0.054804 0.141694
O O5 0.250000 0.250000 0.500000
O O6 0.286800 0.189544 0.705866
O O7 0.000000 0.219273 0.250000
O O8 0.376003 0.128157 0.976253
O O9 0.585978 0.157816 0.146342
O O10 0.475416 0.221381 0.118719
O O11 0.918265 0.965545 0.212487
O O12 0.133585 0.890456 0.481263
O O13 0.273190 0.041349 0.919503
O O14 0.000000 0.000000 0.500000
O O15 0.766439 0.131428 0.553374
O O16 0.646390 0.704657 0.945999
#
# Coordination Sequence:
#
# PCOD9259942 Si02
#       8
#     8   8   8   4   8   8   8   4
#     4  10  18  36  59  86 114 157 206 238 294 362
#     4  11  26  42  62  90 122 168 207 253 300 365
#     4  12  22  36  61  83 124 154 201 243 303 361
#     4   9  18  36  56  86 118 144 195 250 294 358
#     4   9  18  32  62  87 112 151 201 241 292 364
#     4  10  19  35  56  89 115 149 198 245 296 352
#     4  10  22  36  54  85 119 155 191 249 303 354
#     4  11  24  34  56  86 116 154 199 244 304 352
#
# _framework density 18.838965000000002
#
# number of rings (size 3 to 8) (size 9 to 14) (size 15 to 20)
#    0.000    1.714    5.000    0.429    4.000    0.000 
#    0.000    0.000    0.000   22.286    0.000    0.000 
#    0.000    0.000    0.000    0.000    0.000    0.000 
#
# Total GULP energy -156131.252981 kJ/mol
# GULP energy per Si atom -5576.116178 kJ/mol
# Density = 1.879609 g / cm^3
# Si number density = 18.838965 Si / 1000 Ang^3
#
#
#
# Elastic Constant Matrix: (Units=GPa)
#
#
# Indices 1 2 3 4 5 6 
#
# 1 28.5679 32.9035 14.8864 0.0000 15.1366 0.0000
# 2 32.9035 159.4170 23.6874 0.0000 25.3739 0.0000
# 3 14.8864 23.6874 80.5973 0.0000 14.5399 0.0000
# 4 0.0000 0.0000 0.0000 12.6817 0.0000 2.9764
# 5 15.1366 25.3739 14.5399 0.0000 32.5574 0.0000
# 6 0.0000 0.0000 0.0000 2.9764 0.0000 20.4979
#
#
#
# Elastic Compliance Matrix: (Units=1/GPa)
#
#
# Indices 1 2 3 4 5 6 
#
# 1 0.056168 -0.008064 -0.004815 0.000000 -0.017679 0.000000
# 2 -0.008064 0.008426 -0.000521 0.000000 -0.002585 0.000000
# 3 -0.004815 -0.000521 0.014109 0.000000 -0.003657 0.000000
# 4 0.000000 0.000000 0.000000 0.081636 0.000000 -0.011854
# 5 -0.017679 -0.002585 -0.003657 0.000000 0.042582 0.000000
# 6 0.000000 0.000000 0.000000 -0.011854 0.000000 0.050507
#
#
# Mechanical properties :
#
#
# Convention : Reuss Voigt Hill
#
# Bulk Modulus (GPa) = 19.26611 45.72631 32.49621
# Shear Modulus (GPa) = 16.80512 26.28773 21.54643
#
# Velocity S-wave (km/s) = 2.98995 3.73955 3.38556
# Velocity P-wave (km/s) = 4.70836 6.55519 5.70698
#
# Compressibility (1/GPa) = 0.05190461
#
# Stress axis : x y z
#
# Youngs Moduli (GPa) = 17.80381 118.67941 70.87473
#
# Poissons Ratio (x) = 0.95699 0.34126
# Poissons Ratio (y) = 0.14356 0.03690
# Poissons Ratio (z) = 0.08573 0.06179
#
# Static dielectric constant tensor:
#      x y z
#    x 1.671330 0.000000 0.010230 
#    y 0.000000 1.697510 0.000000 
#    z 0.010230 0.000000 1.650560 
# 
# From -- ./inp_files/174810.got.cif
#   From: 2010.05.17/outbox.cif.g08.bks.cpg/sg15_88_cif.got.tgz:174810.got - 2010.06.03 18:47:42.
