data_PCOD9259885
_publ_section_title
;
Structure prediction by ZEFSAII (Michael W. Deem and Ramdas Pophale) SiO2 
 PCOD9259885
Probable space group: C 2/C
;
_chemical_formula_sum "Si O2"
_cell_formula_units_Z 60
_cell_length_a 20.388151
_cell_length_b 9.561494
_cell_length_c 20.742743
_cell_angle_alpha 90.000000
_cell_angle_beta 54.099332
_cell_angle_gamma 90.000000
_cell_volume 3275.468777
_symmetry_space_group_name_H-M "C 2/C"
_symmetry_group_IT_number 15
_symmetry_cell_setting 'monoclinic'
loop_
_space_group_symop_operation_xyz
x,y,z
-x,y,1/2-z
-x,-y,-z
x,-y,1/2+z
1/2+x,1/2+y,z
1/2-x,1/2+y,1/2-z
1/2-x,1/2-y,-z
1/2+x,1/2-y,1/2+z
loop_
_atom_site_type_symbol
_atom_site_label
_atom_site_fract_x
_atom_site_fract_y
_atom_site_fract_z
Si Si1 0.379525 0.172825 0.724462
Si Si2 0.500000 0.300185 0.750000
Si Si3 0.317987 0.917155 0.696342
Si Si4 0.827921 0.126971 0.756519
Si Si5 0.649268 0.506528 0.121269
Si Si6 0.578447 0.569324 0.384461
Si Si7 0.771585 0.272281 0.601266
Si Si8 0.611468 0.532070 0.005138
O O1 0.457640 0.204176 0.721939
O O2 0.380978 0.296467 0.671394
O O3 0.299842 0.197255 0.815245
O O4 0.381797 0.022714 0.690216
O O5 0.429619 0.398738 0.818348
O O6 0.308353 0.785447 0.749372
O O7 0.329715 0.847885 0.619819
O O8 0.242770 0.022037 0.726832
O O9 0.842475 0.100513 0.823803
O O10 0.902121 0.066004 0.671324
O O11 0.725882 0.611511 0.085051
O O12 0.635343 0.451609 0.057042
O O13 0.481505 0.584642 0.439869
O O14 0.613729 0.547761 0.435580
O O15 0.825356 0.159601 0.534216
#
# Coordination Sequence:
#
# PCOD9259885 Si02
#       8
#     8   4   8   8   8   8   8   8
#     4  11  20  37  62  86 114 162 202 245 277 369
#     4  10  18  36  58  84 114 164 196 232 298 354
#     4  11  19  34  62  91 117 142 217 242 286 343
#     4  11  19  36  60  93 110 163 197 245 289 358
#     4  10  19  34  58  85 121 149 197 242 298 352
#     4  11  20  35  60  84 118 159 200 238 295 347
#     4  10  20  33  60  86 112 155 197 246 290 349
#     4  11  21  34  57  91 120 151 196 251 297 357
#
# _framework density 18.317988
#
# number of rings (size 3 to 8) (size 9 to 14) (size 15 to 20)
#    0.000    1.333    8.000    0.400    0.000    0.000 
#    0.000    2.667    0.000   14.400    0.000    0.000 
#    0.000    0.000    0.000    0.000    0.000    0.000 
#
# Total GULP energy -167215.008008 kJ/mol
# GULP energy per Si atom -5573.833600 kJ/mol
# Density = 1.827629 g / cm^3
# Si number density = 18.317988 Si / 1000 Ang^3
#
#
#
# Elastic Constant Matrix: (Units=GPa)
#
#
# Indices 1 2 3 4 5 6 
#
# 1 89.9119 27.9498 14.9025 0.0000 39.4498 0.0000
# 2 27.9498 74.1997 -4.5397 0.0000 15.9258 0.0001
# 3 14.9025 -4.5397 20.7414 0.0000 16.3625 0.0000
# 4 0.0000 0.0000 0.0000 4.9334 0.0000 5.4947
# 5 39.4498 15.9258 16.3625 0.0000 43.5990 0.0000
# 6 0.0000 0.0001 0.0000 5.4947 0.0000 27.7948
#
#
#
# Elastic Compliance Matrix: (Units=1/GPa)
#
#
# Indices 1 2 3 4 5 6 
#
# 1 0.019543 -0.004374 -0.003281 0.000000 -0.014854 0.000000
# 2 -0.004374 0.017424 0.012580 0.000000 -0.007128 0.000000
# 3 -0.003281 0.012580 0.077573 0.000000 -0.030739 0.000000
# 4 0.000000 0.000000 0.000000 0.259933 0.000000 -0.051385
# 5 -0.014854 -0.007128 -0.030739 0.000000 0.050517 0.000000
# 6 0.000000 0.000000 0.000000 -0.051385 0.000000 0.046136
#
#
# Mechanical properties :
#
#
# Convention : Reuss Voigt Hill
#
# Bulk Modulus (GPa) = 8.03924 29.05312 18.54618
# Shear Modulus (GPa) = 9.94552 25.03479 17.49016
#
# Velocity S-wave (km/s) = 2.33263 3.70087 3.09335
# Velocity P-wave (km/s) = 3.41367 5.84438 4.78591
#
# Compressibility (1/GPa) = 0.12438980
#
# Stress axis : x y z
#
# Youngs Moduli (GPa) = 51.16974 57.39108 12.89113
#
# Poissons Ratio (x) = 0.25103 0.04229
# Poissons Ratio (y) = 0.22381 -0.16216
# Poissons Ratio (z) = 0.16787 -0.72195
#
# Static dielectric constant tensor:
#      x y z
#    x 1.663290 0.000000 0.006630 
#    y 0.000000 1.610900 0.000000 
#    z 0.006630 0.000000 1.692330 
# 
# From -- ./inp_files/252097.got.cif
#   From: 2010.05.17/outbox.cif.g08.bks.cpg/sg15_127_cif.got.tgz:252097.got - 2010.06.03 18:47:42.
