data_PCOD9259181
_publ_section_title
;
Structure prediction by ZEFSAII (Michael W. Deem and Ramdas Pophale) SiO2 
 PCOD9259181
Probable space group: C 2/C
;
_chemical_formula_sum "Si O2"
_cell_formula_units_Z 44
_cell_length_a 25.795819
_cell_length_b 11.451430
_cell_length_c 14.229729
_cell_angle_alpha 90.000000
_cell_angle_beta 30.685946
_cell_angle_gamma 90.000000
_cell_volume 2145.153954
_symmetry_space_group_name_H-M "C 2/C"
_symmetry_group_IT_number 15
_symmetry_cell_setting 'monoclinic'
loop_
_space_group_symop_operation_xyz
x,y,z
-x,y,1/2-z
-x,-y,-z
x,-y,1/2+z
1/2+x,1/2+y,z
1/2-x,1/2+y,1/2-z
1/2-x,1/2-y,-z
1/2+x,1/2-y,1/2+z
loop_
_atom_site_type_symbol
_atom_site_label
_atom_site_fract_x
_atom_site_fract_y
_atom_site_fract_z
Si Si1 0.483011 0.548074 0.387258
Si Si2 0.141474 0.174367 0.468386
Si Si3 0.091263 0.545401 0.293087
Si Si4 0.192249 0.952249 0.083107
Si Si5 0.837919 0.225458 0.712134
Si Si6 0.500000 0.876564 0.750000
O O1 0.500000 0.568529 0.250000
O O2 0.414034 0.429811 0.500270
O O3 0.594003 0.529559 0.259063
O O4 0.423179 0.654371 0.525279
O O5 0.151618 0.126675 0.559791
O O6 0.256556 0.214117 0.269322
O O7 0.073529 0.289349 0.578160
O O8 0.115608 0.674955 0.294069
O O9 0.000000 0.500000 0.500000
O O10 0.055342 0.548277 0.242024
O O11 0.204269 0.488148 0.115121
O O12 0.215381 0.868014 0.134876
#
# Coordination Sequence:
#
# PCOD9259181 Si02
#       6
#     8   8   8   8   8   4
#     4  10  21  36  59  92 127 163 205 254 311 380
#     4  10  18  34  61  89 113 154 211 248 295 377
#     4  11  24  40  61  92 123 163 208 264 310 370
#     4  10  18  38  60  84 121 159 211 253 305 374
#     4  11  20  38  63  89 124 161 205 264 308 358
#     4  12  18  38  64  86 116 160 216 250 306 370
#
# _framework density 20.511348999999999
#
# number of rings (size 3 to 8) (size 9 to 14) (size 15 to 20)
#    0.000    1.455    6.364    1.636    0.000    4.364 
#    1.636    0.909    0.000    0.000    0.000    0.000 
#    0.000    0.000    0.000    0.000    0.000    0.000 
#
# Total GULP energy -122712.627022 kJ/mol
# GULP energy per Si atom -5577.846683 kJ/mol
# Density = 2.046466 g / cm^3
# Si number density = 20.511349 Si / 1000 Ang^3
#
#
#
# Elastic Constant Matrix: (Units=GPa)
#
#
# Indices 1 2 3 4 5 6 
#
# 1 70.0466 11.0585 38.2699 0.0000 -16.3551 0.0000
# 2 11.0585 29.5859 51.3903 0.0000 -6.9565 0.0000
# 3 38.2699 51.3903 143.6885 0.0000 -29.2718 0.0000
# 4 0.0000 0.0000 0.0000 47.7387 0.0000 1.2644
# 5 -16.3551 -6.9565 -29.2718 0.0000 30.2519 0.0000
# 6 0.0000 0.0000 0.0000 1.2644 0.0000 6.2387
#
#
#
# Elastic Compliance Matrix: (Units=1/GPa)
#
#
# Indices 1 2 3 4 5 6 
#
# 1 0.017650 0.002295 -0.004322 0.000000 0.005888 0.000000
# 2 0.002295 0.093773 -0.036747 0.000000 -0.012753 0.000000
# 3 -0.004322 -0.036747 0.023734 0.000000 0.012178 0.000000
# 4 0.000000 0.000000 0.000000 0.021060 0.000000 -0.004268
# 5 0.005888 -0.012753 0.012178 0.000000 0.045090 0.000000
# 6 0.000000 0.000000 0.000000 -0.004268 0.000000 0.161154
#
#
# Mechanical properties :
#
#
# Convention : Reuss Voigt Hill
#
# Bulk Modulus (GPa) = 17.35861 49.41757 33.38809
# Shear Modulus (GPa) = 10.88819 26.35269 18.62044
#
# Velocity S-wave (km/s) = 2.30649 3.58828 3.01626
# Velocity P-wave (km/s) = 3.94645 6.42750 5.33326
#
# Compressibility (1/GPa) = 0.05760829
#
# Stress axis : x y z
#
# Youngs Moduli (GPa) = 56.65694 10.66409 42.13327
#
# Poissons Ratio (x) = -0.02447 0.18211
# Poissons Ratio (y) = -0.13002 1.54827
# Poissons Ratio (z) = 0.24489 0.39187
#
# Static dielectric constant tensor:
#      x y z
#    x 1.750510 0.000000 -0.035980 
#    y 0.000000 1.722670 0.000000 
#    z -0.035980 0.000000 1.818940 
# 
# From -- ./inp_files/152248.got.cif
#   From: 2010.05.17/outbox.cif.g08.bks.cpg/sg15_77_cif.got.tgz:152248.got - 2010.06.03 18:47:42.
