data_PCOD9259518
_publ_section_title
;
Structure prediction by ZEFSAII (Michael W. Deem and Ramdas Pophale) SiO2 
 PCOD9259518
Probable space group: C 2/C
;
_chemical_formula_sum "Si O2"
_cell_formula_units_Z 64
_cell_length_a 14.682335
_cell_length_b 16.990533
_cell_length_c 22.549747
_cell_angle_alpha 90.000000
_cell_angle_beta 152.241431
_cell_angle_gamma 90.000000
_cell_volume 2619.954517
_symmetry_space_group_name_H-M "C 2/C"
_symmetry_group_IT_number 15
_symmetry_cell_setting 'monoclinic'
loop_
_space_group_symop_operation_xyz
x,y,z
-x,y,1/2-z
-x,-y,-z
x,-y,1/2+z
1/2+x,1/2+y,z
1/2-x,1/2+y,1/2-z
1/2-x,1/2-y,-z
1/2+x,1/2-y,1/2+z
loop_
_atom_site_type_symbol
_atom_site_label
_atom_site_fract_x
_atom_site_fract_y
_atom_site_fract_z
Si Si1 0.623597 0.461609 0.149216
Si Si2 0.313694 0.674598 0.241671
Si Si3 0.760338 0.324942 0.141550
Si Si4 0.242486 0.065677 0.389950
Si Si5 0.805912 0.095107 0.676599
Si Si6 0.255023 0.655985 0.993999
Si Si7 0.315302 0.270552 0.868135
Si Si8 0.784352 0.432085 0.645118
O O1 0.721025 0.389898 0.168300
O O2 0.649959 0.443410 0.233405
O O3 0.726944 0.536575 0.177883
O O4 0.393282 0.462459 0.998738
O O5 0.363975 0.748797 0.228364
O O6 0.199060 0.614400 0.134594
O O7 0.516796 0.633241 0.375791
O O8 0.230018 0.711836 0.253260
O O9 0.832344 0.360139 0.120618
O O10 0.545864 0.289289 0.001743
O O11 0.324245 0.109464 0.495091
O O12 0.000000 0.068505 0.250000
O O13 0.301775 0.975275 0.420300
O O14 0.716041 0.180707 0.633402
O O15 0.000000 0.108633 0.750000
O O16 0.250000 0.750000 0.000000
O O17 0.226499 0.337168 0.859552
O O18 0.000000 0.456698 0.750000
#
# Coordination Sequence:
#
# PCOD9259518 Si02
#       8
#     8   8   8   8   8   8   8   8
#     4  10  22  43  70  94 134 178 216 285 336 395
#     4  10  18  35  59  83 123 171 210 266 329 390
#     4  10  20  37  62  89 124 173 221 261 341 390
#     4   9  19  33  57  87 122 162 209 265 335 393
#     4  11  22  40  65  92 130 174 220 266 344 398
#     4  10  19  33  59  91 124 164 216 271 331 400
#     4  10  21  38  62  90 125 170 220 273 318 401
#     4  10  22  44  70 101 128 170 233 277 333 392
#
# _framework density 24.427904999999999
#
# number of rings (size 3 to 8) (size 9 to 14) (size 15 to 20)
#    0.000    2.000    2.500    1.125    0.000    6.000 
#    4.500    2.500    8.250    0.000    0.000    0.000 
#    0.000    0.000    0.000    0.000    0.000    0.000 
#
# Total GULP energy -179012.275599 kJ/mol
# GULP energy per Si atom -5594.133612 kJ/mol
# Density = 2.437231 g / cm^3
# Si number density = 24.427905 Si / 1000 Ang^3
#
#
#
# Elastic Constant Matrix: (Units=GPa)
#
#
# Indices 1 2 3 4 5 6 
#
# 1 111.3994 45.9115 48.8066 -0.0001 -14.9158 -0.0002
# 2 45.9115 175.3117 31.6486 0.0026 -9.3367 0.0002
# 3 48.8066 31.6486 83.7184 0.0036 -0.7894 0.0005
# 4 -0.0001 0.0026 0.0036 26.0094 -0.0002 0.2369
# 5 -14.9158 -9.3367 -0.7894 -0.0002 38.2100 -0.0003
# 6 -0.0002 0.0002 0.0005 0.2369 -0.0003 30.8296
#
#
#
# Elastic Compliance Matrix: (Units=1/GPa)
#
#
# Indices 1 2 3 4 5 6 
#
# 1 0.013533 -0.002018 -0.007083 0.000001 0.004644 0.000000
# 2 -0.002018 0.006504 -0.001275 0.000000 0.000775 0.000000
# 3 -0.007083 -0.001275 0.016530 -0.000002 -0.002735 0.000000
# 4 0.000001 0.000000 -0.000002 0.038450 0.000001 -0.000295
# 5 0.004644 0.000775 -0.002735 0.000001 0.028117 0.000000
# 6 0.000000 0.000000 0.000000 -0.000295 0.000000 0.032439
#
#
# Mechanical properties :
#
#
# Convention : Reuss Voigt Hill
#
# Bulk Modulus (GPa) = 63.22906 69.24034 66.23470
# Shear Modulus (GPa) = 30.94099 35.28062 33.11081
#
# Velocity S-wave (km/s) = 3.56283 3.80449 3.68564
# Velocity P-wave (km/s) = 6.54715 6.90689 6.72942
#
# Compressibility (1/GPa) = 0.01581551
#
# Stress axis : x y z
#
# Youngs Moduli (GPa) = 73.89072 153.74910 60.49491
#
# Poissons Ratio (x) = 0.31030 0.42849
# Poissons Ratio (y) = 0.14913 0.07712
# Poissons Ratio (z) = 0.52337 0.19601
#
# Static dielectric constant tensor:
#      x y z
#    x 1.988260 0.000000 0.024720 
#    y 0.000000 1.952080 0.000000 
#    z 0.024720 0.000000 2.005050 
# 
# From -- ./inp_files/274843.got.cif
#   From: 2010.05.17/outbox.cif.g08.bks.cpg/sg15_138_cif.got.tgz:274843.got - 2010.06.03 18:47:42.
