data_PCOD9259463
_publ_section_title
;
Structure prediction by ZEFSAII (Michael W. Deem and Ramdas Pophale) SiO2 
 PCOD9259463
Probable space group: C 2/C
;
_chemical_formula_sum "Si O2"
_cell_formula_units_Z 60
_cell_length_a 10.152924
_cell_length_b 17.061181
_cell_length_c 17.065487
_cell_angle_alpha 90.000000
_cell_angle_beta 83.695624
_cell_angle_gamma 90.000000
_cell_volume 2938.221779
_symmetry_space_group_name_H-M "C 2/C"
_symmetry_group_IT_number 15
_symmetry_cell_setting 'monoclinic'
loop_
_space_group_symop_operation_xyz
x,y,z
-x,y,1/2-z
-x,-y,-z
x,-y,1/2+z
1/2+x,1/2+y,z
1/2-x,1/2+y,1/2-z
1/2-x,1/2-y,-z
1/2+x,1/2-y,1/2+z
loop_
_atom_site_type_symbol
_atom_site_label
_atom_site_fract_x
_atom_site_fract_y
_atom_site_fract_z
Si Si1 0.605839 0.511801 0.423846
Si Si2 0.675524 0.481412 0.763964
Si Si3 0.949783 0.658747 0.498029
Si Si4 0.476788 0.684595 0.076357
Si Si5 0.335427 0.970010 0.121547
Si Si6 0.564761 0.079877 0.167708
Si Si7 0.748947 0.105613 0.488309
Si Si8 0.000000 0.160846 0.250000
O O1 0.500000 0.500000 0.500000
O O2 0.568784 0.491689 0.336100
O O3 0.612039 0.606328 0.424500
O O4 0.717802 0.449557 0.440128
O O5 0.733818 0.543169 0.699299
O O6 0.797919 0.454687 0.810723
O O7 0.621842 0.400170 0.731499
O O8 0.920823 0.746661 0.526538
O O9 0.107664 0.647349 0.503959
O O10 0.871584 0.598623 0.559640
O O11 0.926505 0.634967 0.409115
O O12 0.625544 0.660411 0.039017
O O13 0.482306 0.705337 0.168985
O O14 0.468923 0.008123 0.148421
O O15 0.270110 0.041060 0.077938
O O16 0.500000 0.117973 0.250000
#
# Coordination Sequence:
#
# PCOD9259463 Si02
#       8
#     8   8   8   8   8   8   8   4
#     4   9  19  34  57  78 108 156 200 231 285 354
#     4  10  18  35  58  83 112 156 208 242 286 353
#     4  11  21  35  60  96 121 146 196 256 311 342
#     4  10  21  37  57  86 125 156 193 249 304 360
#     4  10  19  33  59  86 120 147 198 245 292 356
#     4   9  19  35  57  85 116 159 196 235 295 369
#     4  10  18  37  59  86 111 158 200 240 282 361
#     4  10  20  38  56  82 116 168 202 234 298 370
#
# _framework density 20.420514000000001
#
# number of rings (size 3 to 8) (size 9 to 14) (size 15 to 20)
#    0.000    2.133    1.333    3.600    0.000    0.000 
#    6.000    6.000    0.000    3.200    0.000    0.000 
#    0.000    0.000    0.000    0.000    0.000    0.000 
#
# Total GULP energy -167110.939355 kJ/mol
# GULP energy per Si atom -5570.364645 kJ/mol
# Density = 2.037404 g / cm^3
# Si number density = 20.420514 Si / 1000 Ang^3
#
#
#
# Elastic Constant Matrix: (Units=GPa)
#
#
# Indices 1 2 3 4 5 6 
#
# 1 51.8080 9.4198 12.8270 0.0000 -3.0838 0.0000
# 2 9.4198 70.4125 52.0237 0.0000 -7.9327 0.0000
# 3 12.8270 52.0237 140.0888 0.0000 -23.5825 0.0000
# 4 0.0000 0.0000 0.0000 22.8354 0.0000 2.3709
# 5 -3.0838 -7.9327 -23.5825 0.0000 34.9978 0.0000
# 6 0.0000 0.0000 0.0000 2.3709 0.0000 17.5261
#
#
#
# Elastic Compliance Matrix: (Units=1/GPa)
#
#
# Indices 1 2 3 4 5 6 
#
# 1 0.019929 -0.001827 -0.001038 0.000000 0.000642 0.000000
# 2 -0.001827 0.019748 -0.007264 0.000000 -0.000579 0.000000
# 3 -0.001038 -0.007264 0.010872 0.000000 0.005588 0.000000
# 4 0.000000 0.000000 0.000000 0.044416 0.000000 -0.006009
# 5 0.000642 -0.000579 0.005588 0.000000 0.032264 0.000000
# 6 0.000000 0.000000 0.000000 -0.006009 0.000000 0.057871
#
#
# Mechanical properties :
#
#
# Convention : Reuss Voigt Hill
#
# Bulk Modulus (GPa) = 33.01287 45.65002 39.33145
# Shear Modulus (GPa) = 23.20683 27.60777 25.40730
#
# Velocity S-wave (km/s) = 3.37478 3.68089 3.53116
# Velocity P-wave (km/s) = 5.60242 6.36151 5.99400
#
# Compressibility (1/GPa) = 0.03029121
#
# Stress axis : x y z
#
# Youngs Moduli (GPa) = 50.17698 50.63791 91.98289
#
# Poissons Ratio (x) = 0.09250 0.09551
# Poissons Ratio (y) = 0.09166 0.66816
# Poissons Ratio (z) = 0.05210 0.36783
#
# Static dielectric constant tensor:
#      x y z
#    x 1.911920 0.000000 -0.035850 
#    y 0.000000 1.694830 0.000000 
#    z -0.035850 0.000000 1.847620 
# 
# From -- ./inp_files/145613.got.cif
#   From: 2010.05.17/outbox.cif.g08.bks.cpg/sg15_73_cif.got.tgz:145613.got - 2010.06.03 18:47:42.
