data_PCOD9259739
_publ_section_title
;
Structure prediction by ZEFSAII (Michael W. Deem and Ramdas Pophale) SiO2 
 PCOD9259739
Probable space group: C 2/C
;
_chemical_formula_sum "Si O2"
_cell_formula_units_Z 44
_cell_length_a 16.460469
_cell_length_b 16.689445
_cell_length_c 9.797637
_cell_angle_alpha 90.000000
_cell_angle_beta 53.881606
_cell_angle_gamma 90.000000
_cell_volume 2174.250928
_symmetry_space_group_name_H-M "C 2/C"
_symmetry_group_IT_number 15
_symmetry_cell_setting 'monoclinic'
loop_
_space_group_symop_operation_xyz
x,y,z
-x,y,1/2-z
-x,-y,-z
x,-y,1/2+z
1/2+x,1/2+y,z
1/2-x,1/2+y,1/2-z
1/2-x,1/2-y,-z
1/2+x,1/2-y,1/2+z
loop_
_atom_site_type_symbol
_atom_site_label
_atom_site_fract_x
_atom_site_fract_y
_atom_site_fract_z
Si Si1 0.194289 0.823325 0.844458
Si Si2 0.198897 0.827910 0.294132
Si Si3 0.877387 0.054158 0.855377
Si Si4 0.227082 0.593052 0.504576
Si Si5 0.999883 0.246441 0.097787
Si Si6 0.500000 0.096606 0.750000
O O1 0.238677 0.738380 0.850497
O O2 0.256483 0.858209 0.652815
O O3 0.087788 0.795650 0.893524
O O4 0.171181 0.890393 0.978640
O O5 0.158219 0.903269 0.249686
O O6 0.256819 0.852805 0.375739
O O7 0.102296 0.777576 0.430122
O O8 0.000000 0.048753 0.750000
O O9 0.817487 0.970805 0.920305
O O10 0.111680 0.558539 0.624713
O O11 0.000000 0.212085 0.250000
O O12 0.990578 0.341571 0.131446
#
# Coordination Sequence:
#
# PCOD9259739 Si02
#       6
#     8   8   8   8   8   4
#     4  12  22  43  68  97 126 170 222 265 319 384
#     4  12  22  43  68  97 126 170 222 265 319 384
#     4  12  29  41  61 100 145 169 203 269 340 382
#     4  12  24  42  68  98 128 174 219 266 321 389
#     4  10  18  35  69 103 114 156 226 284 302 361
#     4  10  20  42  68 102 118 160 232 280 304 368
#
# _framework density 20.236854000000001
#
# number of rings (size 3 to 8) (size 9 to 14) (size 15 to 20)
#    0.545    0.000    7.273    2.182    2.545    1.455 
#    0.000    5.455    0.000    0.000    0.000    0.000 
#    0.000    0.000    0.000    0.000    0.000    0.000 
#
# Total GULP energy -122581.498775 kJ/mol
# GULP energy per Si atom -5571.886308 kJ/mol
# Density = 2.019079 g / cm^3
# Si number density = 20.236854 Si / 1000 Ang^3
#
#
#
# Elastic Constant Matrix: (Units=GPa)
#
#
# Indices 1 2 3 4 5 6 
#
# 1 75.3784 7.5622 33.1098 0.0000 -28.5841 0.0000
# 2 7.5622 69.0793 16.7096 0.0000 -9.9560 0.0000
# 3 33.1098 16.7096 63.5184 0.0000 -8.3334 0.0000
# 4 0.0000 0.0000 0.0000 36.2917 0.0000 -2.2314
# 5 -28.5841 -9.9560 -8.3334 0.0000 38.1878 0.0000
# 6 0.0000 0.0000 0.0000 -2.2314 0.0000 37.8125
#
#
#
# Elastic Compliance Matrix: (Units=1/GPa)
#
#
# Indices 1 2 3 4 5 6 
#
# 1 0.024001 0.002368 -0.011011 0.000000 0.016179 0.000000
# 2 0.002368 0.016092 -0.004823 0.000000 0.004915 0.000000
# 3 -0.011011 -0.004823 0.022139 0.000000 -0.004668 0.000000
# 4 0.000000 0.000000 0.000000 0.027655 0.000000 0.001632
# 5 0.016179 0.004915 -0.004668 0.000000 0.038560 0.000000
# 6 0.000000 0.000000 0.000000 0.001632 0.000000 0.026543
#
#
# Mechanical properties :
#
#
# Convention : Reuss Voigt Hill
#
# Bulk Modulus (GPa) = 28.32816 35.85992 32.09404
# Shear Modulus (GPa) = 25.81480 32.49804 29.15642
#
# Velocity S-wave (km/s) = 3.57548 4.01170 3.79985
# Velocity P-wave (km/s) = 5.57441 6.26234 5.92836
#
# Compressibility (1/GPa) = 0.03530057
#
# Stress axis : x y z
#
# Youngs Moduli (GPa) = 41.66539 62.14318 45.16848
#
# Poissons Ratio (x) = -0.14715 0.49735
# Poissons Ratio (y) = -0.09866 0.21783
# Poissons Ratio (z) = 0.45877 0.29970
#
# Static dielectric constant tensor:
#      x y z
#    x 1.734460 0.000000 -0.022720 
#    y 0.000000 1.739790 0.000000 
#    z -0.022720 0.000000 1.832990 
# 
# From -- ./inp_files/48900.got.cif
#   From: 2010.05.17/outbox.cif.g08.bks.cpg/sg15_25_cif.got.tgz:48900.got - 2010.06.03 18:47:42.
