data_PCOD9259736
_publ_section_title
;
Structure prediction by ZEFSAII (Michael W. Deem and Ramdas Pophale) SiO2 
 PCOD9259736
Probable space group: C 2/C
;
_chemical_formula_sum "Si O2"
_cell_formula_units_Z 60
_cell_length_a 18.212799
_cell_length_b 7.028417
_cell_length_c 24.435590
_cell_angle_alpha 90.000000
_cell_angle_beta 54.479106
_cell_angle_gamma 90.000000
_cell_volume 2545.833913
_symmetry_space_group_name_H-M "C 2/C"
_symmetry_group_IT_number 15
_symmetry_cell_setting 'monoclinic'
loop_
_space_group_symop_operation_xyz
x,y,z
-x,y,1/2-z
-x,-y,-z
x,-y,1/2+z
1/2+x,1/2+y,z
1/2-x,1/2+y,1/2-z
1/2-x,1/2-y,-z
1/2+x,1/2-y,1/2+z
loop_
_atom_site_type_symbol
_atom_site_label
_atom_site_fract_x
_atom_site_fract_y
_atom_site_fract_z
Si Si1 0.889167 0.686390 0.929200
Si Si2 0.390662 0.555245 0.699019
Si Si3 0.500000 0.533747 0.750000
Si Si4 0.660221 0.233336 0.662780
Si Si5 0.097889 0.425067 0.479330
Si Si6 0.523705 0.551557 0.551762
Si Si7 0.790664 0.507313 0.170201
Si Si8 0.078740 0.595507 0.798938
O O1 0.679986 0.810689 0.091234
O O2 0.862862 0.574747 0.994837
O O3 0.975608 0.585534 0.862119
O O4 0.925867 0.888000 0.935897
O O5 0.460348 0.636009 0.714297
O O6 0.430130 0.596064 0.622939
O O7 0.290915 0.597581 0.763184
O O8 0.397085 0.320815 0.700020
O O9 0.583254 0.400372 0.694157
O O10 0.745764 0.313977 0.658688
O O11 0.611546 0.075914 0.722156
O O12 0.083728 0.236601 0.520098
O O13 0.159719 0.393901 0.399650
O O14 0.000000 0.500000 0.500000
O O15 0.500000 0.500000 0.500000
O O16 0.863861 0.534867 0.185622
#
# Coordination Sequence:
#
# PCOD9259736 Si02
#       8
#     8   8   4   8   8   8   8   8
#     4  11  20  40  67  87 128 179 221 272 325 409
#     4   9  19  34  66  87 122 168 223 262 340 392
#     4   8  12  32  62  90 102 172 218 256 324 398
#     4  10  18  35  68  87 123 178 223 266 349 388
#     4  12  23  38  63  93 134 174 217 273 339 404
#     4  11  21  38  66  95 120 173 227 262 333 407
#     4  10  21  36  59  96 129 165 221 283 322 397
#     4   9  16  34  62  89 121 167 219 271 331 388
#
# _framework density 23.567917999999999
#
# number of rings (size 3 to 8) (size 9 to 14) (size 15 to 20)
#    0.000    2.133    6.667    0.800    0.000    2.667 
#    0.000    0.667    8.800    0.000    0.000    0.000 
#    0.000    0.000    0.000    0.000    0.000    0.000 
#
# Total GULP energy -167541.499891 kJ/mol
# GULP energy per Si atom -5584.716663 kJ/mol
# Density = 2.351428 g / cm^3
# Si number density = 23.567918 Si / 1000 Ang^3
#
#
#
# Elastic Constant Matrix: (Units=GPa)
#
#
# Indices 1 2 3 4 5 6 
#
# 1 141.0112 19.1834 40.2585 0.0002 30.5107 0.0021
# 2 19.1834 60.3049 30.3541 0.0010 7.2629 0.0041
# 3 40.2585 30.3541 165.5416 0.0001 31.4892 0.0000
# 4 0.0002 0.0010 0.0001 21.6596 0.0000 5.1700
# 5 30.5107 7.2629 31.4892 0.0000 47.5743 0.0000
# 6 0.0021 0.0041 0.0000 5.1700 0.0000 23.8921
#
#
#
# Elastic Compliance Matrix: (Units=1/GPa)
#
#
# Indices 1 2 3 4 5 6 
#
# 1 0.008587 -0.001725 -0.000886 0.000000 -0.004657 0.000000
# 2 -0.001725 0.018633 -0.003050 0.000000 0.000281 -0.000003
# 3 -0.000886 -0.003050 0.007572 0.000000 -0.003978 0.000001
# 4 0.000000 0.000000 0.000000 0.048683 0.000000 -0.010535
# 5 -0.004657 0.000281 -0.003978 0.000000 0.026597 0.000000
# 6 0.000000 -0.000003 0.000001 -0.010535 0.000000 0.044134
#
#
# Mechanical properties :
#
#
# Convention : Reuss Voigt Hill
#
# Bulk Modulus (GPa) = 42.60868 60.71664 51.66266
# Shear Modulus (GPa) = 28.84300 37.09597 32.96948
#
# Velocity S-wave (km/s) = 3.50212 3.97167 3.74426
# Velocity P-wave (km/s) = 5.87124 6.84475 6.37660
#
# Compressibility (1/GPa) = 0.02346940
#
# Stress axis : x y z
#
# Youngs Moduli (GPa) = 116.45594 53.66917 132.05957
#
# Poissons Ratio (x) = 0.09256 0.11703
# Poissons Ratio (y) = 0.20084 0.40285
# Poissons Ratio (z) = 0.10320 0.16372
#
# Static dielectric constant tensor:
#      x y z
#    x 1.941630 0.000000 0.003960 
#    y 0.000000 2.051850 0.000000 
#    z 0.003960 0.000000 1.893470 
# 
# From -- ./inp_files/317258.got.cif
#   From: 2010.05.17/outbox.cif.g08.bks.cpg/sg15_159_cif.got.tgz:317258.got - 2010.06.03 18:47:42.
