data_PCOD9259008
_publ_section_title
;
Structure prediction by ZEFSAII (Michael W. Deem and Ramdas Pophale) SiO2 
 PCOD9259008
Probable space group: C 2/C
;
_chemical_formula_sum "Si O2"
_cell_formula_units_Z 44
_cell_length_a 24.906031
_cell_length_b 13.874362
_cell_length_c 25.012607
_cell_angle_alpha 90.000000
_cell_angle_beta 167.732025
_cell_angle_gamma 90.000000
_cell_volume 1836.552013
_symmetry_space_group_name_H-M "C 2/C"
_symmetry_group_IT_number 15
_symmetry_cell_setting 'monoclinic'
loop_
_space_group_symop_operation_xyz
x,y,z
-x,y,1/2-z
-x,-y,-z
x,-y,1/2+z
1/2+x,1/2+y,z
1/2-x,1/2+y,1/2-z
1/2-x,1/2-y,-z
1/2+x,1/2-y,1/2+z
loop_
_atom_site_type_symbol
_atom_site_label
_atom_site_fract_x
_atom_site_fract_y
_atom_site_fract_z
Si Si1 0.993632 0.863474 0.518602
Si Si2 0.937075 0.815094 0.585672
Si Si3 0.145509 0.022226 0.967260
Si Si4 0.000000 0.646802 0.250000
Si Si5 0.978494 0.649968 0.000487
Si Si6 0.387708 0.122233 0.031008
O O1 0.970737 0.864479 0.559877
O O2 0.255847 0.899854 0.750512
O O3 0.994471 0.750123 0.504406
O O4 0.755619 0.901531 0.254731
O O5 0.690502 0.745962 0.344575
O O6 0.891553 0.908872 0.577818
O O7 0.261306 0.077495 0.028888
O O8 0.884056 0.070939 0.731243
O O9 0.381379 0.045273 0.237148
O O10 0.932520 0.691569 0.126745
O O11 0.923607 0.670446 0.008923
#
# Coordination Sequence:
#
# PCOD9259008 Si02
#       6
#     8   8   8   4   8   8
#     4  10  19  35  56  82 121 152 182 223 267 343
#     4  12  21  39  60  82 116 158 185 226 281 336
#     4  10  22  38  60  85 110 146 195 235 283 335
#     4   8  22  40  60  78 114 146 184 250 282 336
#     4  10  18  34  58  84 112 155 185 219 283 328
#     4  10  20  38  61  83 111 148 187 240 283 334
#
# _framework density 23.957939
#
# number of rings (size 3 to 8) (size 9 to 14) (size 15 to 20)
#    1.091    0.727    3.636    2.727    0.000    0.000 
#    0.000    6.364    0.000    4.364    0.000    0.000 
#    0.000    0.000    0.000    0.000    0.000    0.000 
#
# Total GULP energy -122754.178935 kJ/mol
# GULP energy per Si atom -5579.735406 kJ/mol
# Density = 2.390341 g / cm^3
# Si number density = 23.957939 Si / 1000 Ang^3
#
#
#
# Elastic Constant Matrix: (Units=GPa)
#
#
# Indices 1 2 3 4 5 6 
#
# 1 -98.3366 143.7715 48.5959 0.2923 26.0131 -0.0008
# 2 143.7715 -50.6205 -6.2168 -0.3890 -23.2833 -0.1153
# 3 48.5959 -6.2168 231.4994 -0.2374 22.7678 -0.1018
# 4 0.2923 -0.3890 -0.2374 3.3915 -0.0595 -1.6101
# 5 26.0131 -23.2833 22.7678 -0.0595 18.7009 -0.0482
# 6 -0.0008 -0.1153 -0.1018 -1.6101 -0.0482 6.1720
#
#
#
# Elastic Compliance Matrix: (Units=1/GPa)
#
#
# Indices 1 2 3 4 5 6 
#
# 1 0.004265 0.009060 -0.001337 0.000909 0.006979 0.000439
# 2 0.009060 0.007065 -0.001520 -0.000077 -0.001957 0.000073
# 3 -0.001337 -0.001520 0.005184 0.000224 -0.006342 0.000066
# 4 0.000909 -0.000077 0.000224 0.336450 -0.000335 0.087771
# 5 0.006979 -0.001957 -0.006342 -0.000335 0.049049 0.000156
# 6 0.000439 0.000073 0.000066 0.087771 0.000156 0.184924
#
#
# Mechanical properties :
#
#
# Convention : Reuss Voigt Hill
#
# Bulk Modulus (GPa) = 34.57831 50.53816 42.55823
# Shear Modulus (GPa) = 8.55915 -1.25434 3.65240
#
# Velocity S-wave (km/s) = 1.89218 -0.72436 1.23605
# Velocity P-wave (km/s) = 4.38612 4.52114 4.45414
#
# Compressibility (1/GPa) = 0.02891987
#
# Stress axis : x y z
#
# Youngs Moduli (GPa) = 234.45037 141.54553 192.91749
#
# Poissons Ratio (x) = -1.28243 0.25800
# Poissons Ratio (y) = -2.12417 0.29320
# Poissons Ratio (z) = 0.31354 0.21512
#
# Static dielectric constant tensor:
#      x y z
#    x 1.918810 0.000260 -0.027790 
#    y 0.000260 1.704740 -0.000050 
#    z -0.027790 -0.000050 1.917180 
# 
# From -- ./inp_files/13106.got.cif
#   From: 2010.05.17/outbox.cif.g08.bks.cpg/sg15_7_cif.got.tgz:13106.got - 2010.06.03 18:47:42.
