data_PCOD9259201
_publ_section_title
;
Structure prediction by ZEFSAII (Michael W. Deem and Ramdas Pophale) SiO2 
 PCOD9259201
Probable space group: C 2/C
;
_chemical_formula_sum "Si O2"
_cell_formula_units_Z 60
_cell_length_a 17.606651
_cell_length_b 18.566815
_cell_length_c 8.824536
_cell_angle_alpha 90.000000
_cell_angle_beta 78.383377
_cell_angle_gamma 90.000000
_cell_volume 2825.647388
_symmetry_space_group_name_H-M "C 2/C"
_symmetry_group_IT_number 15
_symmetry_cell_setting 'monoclinic'
loop_
_space_group_symop_operation_xyz
x,y,z
-x,y,1/2-z
-x,-y,-z
x,-y,1/2+z
1/2+x,1/2+y,z
1/2-x,1/2+y,1/2-z
1/2-x,1/2-y,-z
1/2+x,1/2-y,1/2+z
loop_
_atom_site_type_symbol
_atom_site_label
_atom_site_fract_x
_atom_site_fract_y
_atom_site_fract_z
Si Si1 0.500000 0.442871 0.750000
Si Si2 0.954922 0.178119 0.037001
Si Si3 0.665166 0.433294 0.586165
Si Si4 0.815887 0.590296 0.588471
Si Si5 0.732131 0.031280 0.183244
Si Si6 0.810156 0.201094 0.880848
Si Si7 0.585754 0.191413 0.744066
Si Si8 0.627728 0.723324 0.958102
O O1 0.527754 0.396416 0.885243
O O2 0.582578 0.472839 0.656858
O O3 0.926783 0.229504 0.183306
O O4 0.889044 0.183574 0.937857
O O5 0.037236 0.210636 0.952628
O O6 0.715435 0.481015 0.448904
O O7 0.711428 0.426255 0.726160
O O8 0.652343 0.353415 0.522535
O O9 0.822335 0.576124 0.407707
O O10 0.818020 0.518619 0.686273
O O11 0.730872 0.625266 0.635923
O O12 0.872131 0.645950 0.645838
O O13 0.826003 0.237009 0.713241
O O14 0.750000 0.250000 0.000000
O O15 0.500000 0.160837 0.750000
O O16 0.631751 0.209280 0.571845
#
# Coordination Sequence:
#
# PCOD9259201 Si02
#       8
#     4   8   8   8   8   8   8   8
#     4  10  18  34  62  80 120 166 198 244 300 360
#     4  10  18  36  59  91 127 158 187 244 315 365
#     4  10  19  38  58  83 119 168 202 244 297 355
#     4  11  23  41  61  88 120 161 204 255 300 354
#     4  10  23  40  58  81 126 161 210 251 291 346
#     4  12  23  36  60  98 121 155 203 254 308 372
#     4  10  20  41  67  92 118 155 197 254 320 374
#     4  10  21  39  60  88 129 161 193 251 321 366
#
# _framework density 21.234072999999999
#
# number of rings (size 3 to 8) (size 9 to 14) (size 15 to 20)
#    0.000    1.600    6.000    1.200    0.000    1.067 
#    7.200    2.000    0.000    0.000    0.000    0.000 
#    0.000    0.000    0.000    0.000    0.000    0.000 
#
# Total GULP energy -167446.904305 kJ/mol
# GULP energy per Si atom -5581.563477 kJ/mol
# Density = 2.118574 g / cm^3
# Si number density = 21.234073 Si / 1000 Ang^3
#
#
#
# Elastic Constant Matrix: (Units=GPa)
#
#
# Indices 1 2 3 4 5 6 
#
# 1 63.7140 26.4895 37.4737 0.0000 42.1568 0.0000
# 2 26.4895 30.1723 24.3455 0.0000 16.4891 0.0000
# 3 37.4737 24.3455 138.1873 0.0000 18.0895 0.0000
# 4 0.0000 0.0000 0.0000 30.9997 0.0000 12.9616
# 5 42.1568 16.4891 18.0895 0.0000 42.8830 0.0000
# 6 0.0000 0.0000 0.0000 12.9616 0.0000 13.7653
#
#
#
# Elastic Compliance Matrix: (Units=1/GPa)
#
#
# Indices 1 2 3 4 5 6 
#
# 1 0.060326 -0.021468 -0.006239 0.000000 -0.048418 0.000000
# 2 -0.021468 0.054118 -0.003970 0.000000 0.001971 0.000000
# 3 -0.006239 -0.003970 0.009129 0.000000 0.003809 0.000000
# 4 0.000000 0.000000 0.000000 0.053206 0.000000 -0.050100
# 5 -0.048418 0.001971 0.003809 0.000000 0.068553 0.000000
# 6 0.000000 0.000000 0.000000 -0.050100 0.000000 0.119821
#
#
# Mechanical properties :
#
#
# Convention : Reuss Voigt Hill
#
# Bulk Modulus (GPa) = 16.60638 45.41011 31.00824
# Shear Modulus (GPa) = 11.14623 27.11392 19.13008
#
# Velocity S-wave (km/s) = 2.29360 3.57726 3.00478
# Velocity P-wave (km/s) = 3.85380 6.20438 5.16459
#
# Compressibility (1/GPa) = 0.06021783
#
# Stress axis : x y z
#
# Youngs Moduli (GPa) = 16.57647 18.47828 109.53714
#
# Poissons Ratio (x) = 0.39670 0.68339
# Poissons Ratio (y) = 0.35587 0.43491
# Poissons Ratio (z) = 0.10342 0.07337
#
# Static dielectric constant tensor:
#      x y z
#    x 1.805950 0.000000 0.002450 
#    y 0.000000 1.805440 0.000000 
#    z 0.002450 0.000000 1.828960 
# 
# From -- ./inp_files/50218.got.cif
#   From: 2010.05.17/outbox.cif.g08.bks.cpg/sg15_26_cif.got.tgz:50218.got - 2010.06.03 18:47:42.
