data_PCOD9259680
_publ_section_title
;
Structure prediction by ZEFSAII (Michael W. Deem and Ramdas Pophale) SiO2 
 PCOD9259680
Probable space group: C 2/C
;
_chemical_formula_sum "Si O2"
_cell_formula_units_Z 56
_cell_length_a 7.087675
_cell_length_b 17.878768
_cell_length_c 25.467923
_cell_angle_alpha 90.000000
_cell_angle_beta 129.324824
_cell_angle_gamma 90.000000
_cell_volume 2496.503200
_symmetry_space_group_name_H-M "C 2/C"
_symmetry_group_IT_number 15
_symmetry_cell_setting 'monoclinic'
loop_
_space_group_symop_operation_xyz
x,y,z
-x,y,1/2-z
-x,-y,-z
x,-y,1/2+z
1/2+x,1/2+y,z
1/2-x,1/2+y,1/2-z
1/2-x,1/2-y,-z
1/2+x,1/2-y,1/2+z
loop_
_atom_site_type_symbol
_atom_site_label
_atom_site_fract_x
_atom_site_fract_y
_atom_site_fract_z
Si Si1 0.453891 0.530006 0.840432
Si Si2 0.987217 0.555869 0.911072
Si Si3 0.161511 0.168744 0.466947
Si Si4 0.500000 0.870369 0.750000
Si Si5 0.000000 0.916010 0.750000
Si Si6 0.218979 0.434103 0.887992
Si Si7 0.528180 0.298778 0.828458
Si Si8 0.225511 0.355779 0.225329
O O1 0.450606 0.471295 0.790505
O O2 0.375778 0.493133 0.881077
O O3 0.291293 0.598526 0.789886
O O4 0.734403 0.550661 0.896859
O O5 0.902207 0.590954 0.840204
O O6 0.167055 0.608633 0.974743
O O7 0.107136 0.476707 0.917554
O O8 0.250000 0.250000 0.500000
O O9 0.887986 0.137396 0.430480
O O10 0.169042 0.179580 0.405827
O O11 0.523724 0.915303 0.808303
O O12 0.751791 0.827007 0.790357
O O13 0.844406 0.850568 0.692589
O O14 0.463871 0.213234 0.803942
O O15 0.500000 0.336061 0.250000
#
# Coordination Sequence:
#
# PCOD9259680 Si02
#       8
#     8   8   8   4   4   8   8   8
#     4  11  22  40  64  97 127 161 214 275 322 374
#     4  11  22  39  66  87 127 171 209 262 316 381
#     4  11  23  41  63  88 128 175 216 250 324 392
#     4  10  18  35  63  86 120 154 210 256 318 367
#     4  12  20  39  59  94 128 150 214 274 324 375
#     4  11  23  40  64  97 121 164 217 268 313 383
#     4  11  22  36  63  93 122 169 207 263 322 392
#     4  10  20  37  63  92 126 165 211 259 331 377
#
# _framework density 22.431377000000001
#
# number of rings (size 3 to 8) (size 9 to 14) (size 15 to 20)
#    0.000    1.143    7.143    2.143    0.000    1.714 
#    0.000    0.000    0.000    1.714    0.000    0.000 
#    0.000    0.000    0.000    0.000    0.000    0.000 
#
# Total GULP energy -156081.506007 kJ/mol
# GULP energy per Si atom -5574.339500 kJ/mol
# Density = 2.238032 g / cm^3
# Si number density = 22.431377 Si / 1000 Ang^3
#
#
#
# Elastic Constant Matrix: (Units=GPa)
#
#
# Indices 1 2 3 4 5 6 
#
# 1 38.0031 12.5197 16.0324 0.0000 2.4335 0.0000
# 2 12.5197 105.9795 31.6089 0.0000 6.4864 0.0000
# 3 16.0324 31.6089 125.1547 0.0000 9.5203 0.0001
# 4 0.0000 0.0000 0.0000 40.7500 0.0000 -7.9419
# 5 2.4335 6.4864 9.5203 0.0000 25.7638 0.0000
# 6 0.0000 0.0000 0.0001 -7.9419 0.0000 16.2929
#
#
#
# Elastic Compliance Matrix: (Units=1/GPa)
#
#
# Indices 1 2 3 4 5 6 
#
# 1 0.028419 -0.002416 -0.002956 0.000000 -0.000984 0.000000
# 2 -0.002416 0.010480 -0.002216 0.000000 -0.001591 0.000000
# 3 -0.002956 -0.002216 0.009121 0.000000 -0.002533 0.000000
# 4 0.000000 0.000000 0.000000 0.027116 0.000000 0.013218
# 5 -0.000984 -0.001591 -0.002533 0.000000 0.040244 0.000000
# 6 0.000000 0.000000 0.000000 0.013218 0.000000 0.067819
#
#
# Mechanical properties :
#
#
# Convention : Reuss Voigt Hill
#
# Bulk Modulus (GPa) = 30.44578 43.27327 36.85952
# Shear Modulus (GPa) = 23.88663 30.49310 27.18986
#
# Velocity S-wave (km/s) = 3.26678 3.69100 3.48535
# Velocity P-wave (km/s) = 5.27556 6.12355 5.71530
#
# Compressibility (1/GPa) = 0.03284527
#
# Stress axis : x y z
#
# Youngs Moduli (GPa) = 35.18732 95.42415 109.63517
#
# Poissons Ratio (x) = 0.23050 0.32404
# Poissons Ratio (y) = 0.08500 0.24298
# Poissons Ratio (z) = 0.10400 0.21148
#
# Static dielectric constant tensor:
#      x y z
#    x 1.898650 0.000000 0.232250 
#    y 0.000000 1.899250 0.000000 
#    z 0.232250 0.000000 1.831930 
# 
# From -- ./inp_files/308679.got.cif
#   From: 2010.05.17/outbox.cif.g08.bks.cpg/sg15_155_cif.got.tgz:308679.got - 2010.06.03 18:47:42.
