data_PCOD9259310
_publ_section_title
;
Structure prediction by ZEFSAII (Michael W. Deem and Ramdas Pophale) SiO2 
 PCOD9259310
Probable space group: C 2/C
;
_chemical_formula_sum "Si O2"
_cell_formula_units_Z 48
_cell_length_a 16.055921
_cell_length_b 10.194040
_cell_length_c 14.362742
_cell_angle_alpha 90.000000
_cell_angle_beta 73.567538
_cell_angle_gamma 90.000000
_cell_volume 2254.795668
_symmetry_space_group_name_H-M "C 2/C"
_symmetry_group_IT_number 15
_symmetry_cell_setting 'monoclinic'
loop_
_space_group_symop_operation_xyz
x,y,z
-x,y,1/2-z
-x,-y,-z
x,-y,1/2+z
1/2+x,1/2+y,z
1/2-x,1/2+y,1/2-z
1/2-x,1/2-y,-z
1/2+x,1/2-y,1/2+z
loop_
_atom_site_type_symbol
_atom_site_label
_atom_site_fract_x
_atom_site_fract_y
_atom_site_fract_z
Si Si1 0.954785 0.737342 0.364804
Si Si2 0.178030 0.485873 0.081542
Si Si3 0.917569 0.419886 0.565104
Si Si4 0.119201 0.018056 0.495867
Si Si5 0.515295 0.391376 0.852748
Si Si6 0.587916 0.112614 0.774303
O O1 0.884220 0.616276 0.386387
O O2 0.909041 0.860311 0.428539
O O3 0.000000 0.756644 0.250000
O O4 0.036961 0.704241 0.404647
O O5 0.278264 0.520150 0.046378
O O6 0.158464 0.386559 0.171826
O O7 0.149537 0.414274 0.996196
O O8 0.881862 0.509577 0.659214
O O9 0.000000 0.500000 0.500000
O O10 0.076062 0.030846 0.406741
O O11 0.077064 0.896129 0.565231
O O12 0.500000 0.435081 0.750000
O O13 0.559161 0.248700 0.828854
O O14 0.500000 0.064915 0.750000
#
# Coordination Sequence:
#
# PCOD9259310 Si02
#       6
#     8   8   8   8   8   8
#     4  11  20  39  68  98 134 181 215 267 337 410
#     4  11  22  38  67 103 131 161 232 284 323 383
#     4  10  18  34  66  96 123 171 220 271 323 394
#     4  11  25  43  64  99 138 173 218 278 342 395
#     4  10  24  45  66  85 131 185 215 264 344 412
#     4  11  19  39  67  93 125 171 229 266 323 394
#
# _framework density 21.287960000000002
#
# number of rings (size 3 to 8) (size 9 to 14) (size 15 to 20)
#    0.000    1.333    5.000    3.000    2.333    1.333 
#    0.000    6.667    0.000    0.000    0.000    0.000 
#    0.000    0.000    0.000    0.000    0.000    0.000 
#
# Total GULP energy -133932.438421 kJ/mol
# GULP energy per Si atom -5580.518268 kJ/mol
# Density = 2.123951 g / cm^3
# Si number density = 21.287960 Si / 1000 Ang^3
#
#
#
# Elastic Constant Matrix: (Units=GPa)
#
#
# Indices 1 2 3 4 5 6 
#
# 1 125.2835 31.9646 76.3480 0.0000 -14.9159 0.0000
# 2 31.9646 92.8054 46.9458 0.0000 -15.5331 0.0000
# 3 76.3480 46.9458 166.8184 0.0000 -2.7364 0.0000
# 4 0.0000 0.0000 0.0000 29.7908 0.0000 -0.9131
# 5 -14.9159 -15.5331 -2.7364 0.0000 20.2213 0.0000
# 6 0.0000 0.0000 0.0000 -0.9131 0.0000 11.4048
#
#
#
# Elastic Compliance Matrix: (Units=1/GPa)
#
#
# Indices 1 2 3 4 5 6 
#
# 1 0.012333 -0.000086 -0.005484 0.000000 0.008289 0.000000
# 2 -0.000086 0.014537 -0.003878 0.000000 0.010578 0.000000
# 3 -0.005484 -0.003878 0.009502 0.000000 -0.005738 0.000000
# 4 0.000000 0.000000 0.000000 0.033650 0.000000 0.002694
# 5 0.008289 0.010578 -0.005738 0.000000 0.062916 0.000000
# 6 0.000000 0.000000 0.000000 0.002694 0.000000 0.087898
#
#
# Mechanical properties :
#
#
# Convention : Reuss Voigt Hill
#
# Bulk Modulus (GPa) = 57.22528 77.26936 67.24732
# Shear Modulus (GPa) = 20.36185 27.59331 23.97758
#
# Velocity S-wave (km/s) = 3.09608 3.60417 3.35975
# Velocity P-wave (km/s) = 6.30245 7.32776 6.83436
#
# Compressibility (1/GPa) = 0.01747479
#
# Stress axis : x y z
#
# Youngs Moduli (GPa) = 81.08485 68.78906 105.24451
#
# Poissons Ratio (x) = 0.00594 0.57717
# Poissons Ratio (y) = 0.00700 0.40814
# Poissons Ratio (z) = 0.44468 0.26677
#
# Static dielectric constant tensor:
#      x y z
#    x 1.729860 0.000000 0.032180 
#    y 0.000000 1.891100 0.000000 
#    z 0.032180 0.000000 1.793520 
# 
# From -- ./inp_files/104190.got.cif
#   From: 2010.05.17/outbox.cif.g08.bks.cpg/sg15_53_cif.got.tgz:104190.got - 2010.06.03 18:47:42.
