data_PCOD9259695
_publ_section_title
;
Structure prediction by ZEFSAII (Michael W. Deem and Ramdas Pophale) SiO2 
 PCOD9259695
Probable space group: C 2/C
;
_chemical_formula_sum "Si O2"
_cell_formula_units_Z 60
_cell_length_a 20.033754
_cell_length_b 14.576826
_cell_length_c 13.668417
_cell_angle_alpha 90.000000
_cell_angle_beta 42.376264
_cell_angle_gamma 90.000000
_cell_volume 2690.302461
_symmetry_space_group_name_H-M "C 2/C"
_symmetry_group_IT_number 15
_symmetry_cell_setting 'monoclinic'
loop_
_space_group_symop_operation_xyz
x,y,z
-x,y,1/2-z
-x,-y,-z
x,-y,1/2+z
1/2+x,1/2+y,z
1/2-x,1/2+y,1/2-z
1/2-x,1/2-y,-z
1/2+x,1/2-y,1/2+z
loop_
_atom_site_type_symbol
_atom_site_label
_atom_site_fract_x
_atom_site_fract_y
_atom_site_fract_z
Si Si1 0.612099 0.481650 0.349462
Si Si2 0.136112 0.647121 0.461431
Si Si3 0.934731 0.366966 0.726908
Si Si4 0.845562 0.156899 0.304530
Si Si5 0.000000 0.735060 0.750000
Si Si6 0.183408 0.779791 0.226468
Si Si7 0.688625 0.004337 0.760754
Si Si8 0.617341 0.804971 0.399140
O O1 0.500000 0.500000 0.500000
O O2 0.632418 0.551224 0.239183
O O3 0.633175 0.377935 0.294991
O O4 0.693594 0.504335 0.346375
O O5 0.227247 0.661123 0.437428
O O6 0.034783 0.671869 0.623267
O O7 0.160052 0.717982 0.348146
O O8 0.142079 0.546361 0.407369
O O9 0.864084 0.277844 0.809554
O O10 0.862644 0.449209 0.771325
O O11 0.000000 0.388697 0.750000
O O12 0.014955 0.338120 0.556665
O O13 0.908385 0.199799 0.322912
O O14 0.882084 0.214481 0.168780
O O15 0.301348 0.790836 0.103434
O O16 0.661033 0.110410 0.789346
#
# Coordination Sequence:
#
# PCOD9259695 Si02
#       8
#     8   8   8   8   4   8   8   8
#     4  10  18  35  64  85 107 153 206 240 287 356
#     4   9  19  36  57  82 112 151 194 239 289 349
#     4  11  22  37  59  91 121 153 197 254 309 353
#     4  10  21  35  56  83 114 151 193 238 288 350
#     4  12  20  32  52  82 118 148 184 244 298 340
#     4   9  20  38  61  82 110 158 201 236 292 364
#     4   9  20  39  59  84 119 154 199 243 294 370
#     4  10  20  40  61  79 115 161 200 237 294 363
#
# _framework density 22.302325
#
# number of rings (size 3 to 8) (size 9 to 14) (size 15 to 20)
#    0.000    2.133    0.000    4.800    0.000    0.533 
#    6.000    0.000   11.733    0.000    0.000    0.000 
#    0.000    0.000    0.000    0.000    0.000    0.000 
#
# Total GULP energy -167589.571594 kJ/mol
# GULP energy per Si atom -5586.319053 kJ/mol
# Density = 2.225156 g / cm^3
# Si number density = 22.302325 Si / 1000 Ang^3
#
#
#
# Elastic Constant Matrix: (Units=GPa)
#
#
# Indices 1 2 3 4 5 6 
#
# 1 133.2697 18.0764 6.8296 0.0000 -26.4438 0.0000
# 2 18.0764 81.1497 -3.1854 0.0000 -0.6067 0.0000
# 3 6.8296 -3.1854 30.4550 0.0000 -18.7939 0.0000
# 4 0.0000 0.0000 0.0000 8.8317 0.0000 -13.1165
# 5 -26.4438 -0.6067 -18.7939 0.0000 31.9546 0.0000
# 6 0.0000 0.0000 0.0000 -13.1165 0.0000 26.0523
#
#
#
# Elastic Compliance Matrix: (Units=1/GPa)
#
#
# Indices 1 2 3 4 5 6 
#
# 1 0.009589 -0.001904 0.003964 0.000000 0.010230 0.000000
# 2 -0.001904 0.012802 0.001481 0.000000 -0.000461 0.000000
# 3 0.003964 0.001481 0.053595 0.000000 0.034830 0.000000
# 4 0.000000 0.000000 0.000000 0.448832 0.000000 0.225973
# 5 0.010230 -0.000461 0.034830 0.000000 0.060236 0.000000
# 6 0.000000 0.000000 0.000000 0.225973 0.000000 0.152154
#
#
# Mechanical properties :
#
#
# Convention : Reuss Voigt Hill
#
# Bulk Modulus (GPa) = 12.03842 32.03506 22.03674
# Shear Modulus (GPa) = 6.59791 28.24465 17.42128
#
# Velocity S-wave (km/s) = 1.72187 3.56257 2.79792
# Velocity P-wave (km/s) = 3.05984 5.59623 4.51001
#
# Compressibility (1/GPa) = 0.08306739
#
# Stress axis : x y z
#
# Youngs Moduli (GPa) = 104.29105 78.11473 18.65844
#
# Poissons Ratio (x) = 0.14872 -0.07395
# Poissons Ratio (y) = 0.19855 -0.02764
# Poissons Ratio (z) = -0.41337 -0.11571
#
# Static dielectric constant tensor:
#      x y z
#    x 1.894080 0.000000 -0.008120 
#    y 0.000000 1.844930 0.000000 
#    z -0.008120 0.000000 1.832160 
# 
# From -- ./inp_files/168614.got.cif
#   From: 2010.05.17/outbox.cif.g08.bks.cpg/sg15_85_cif.got.tgz:168614.got - 2010.06.03 18:47:42.
