data_PCOD9259438
_publ_section_title
;
Structure prediction by ZEFSAII (Michael W. Deem and Ramdas Pophale) SiO2 
 PCOD9259438
Probable space group: C 2/C
;
_chemical_formula_sum "Si O2"
_cell_formula_units_Z 48
_cell_length_a 9.095514
_cell_length_b 18.511035
_cell_length_c 13.487167
_cell_angle_alpha 90.000000
_cell_angle_beta 64.838380
_cell_angle_gamma 90.000000
_cell_volume 2055.327512
_symmetry_space_group_name_H-M "C 2/C"
_symmetry_group_IT_number 15
_symmetry_cell_setting 'monoclinic'
loop_
_space_group_symop_operation_xyz
x,y,z
-x,y,1/2-z
-x,-y,-z
x,-y,1/2+z
1/2+x,1/2+y,z
1/2-x,1/2+y,1/2-z
1/2-x,1/2-y,-z
1/2+x,1/2-y,1/2+z
loop_
_atom_site_type_symbol
_atom_site_label
_atom_site_fract_x
_atom_site_fract_y
_atom_site_fract_z
Si Si1 0.146612 0.079508 0.652079
Si Si2 0.515100 0.902726 0.348786
Si Si3 0.570320 0.718618 0.555371
Si Si4 0.305971 0.187442 0.060416
Si Si5 0.009820 0.889177 0.584869
Si Si6 0.226725 0.996367 0.922764
O O1 0.298401 0.085466 0.680938
O O2 0.077029 0.155710 0.634205
O O3 0.209213 0.041495 0.534715
O O4 0.000000 0.040333 0.750000
O O5 0.500000 0.859470 0.250000
O O6 0.431996 0.862528 0.464103
O O7 0.408221 0.974802 0.361784
O O8 0.750000 0.750000 0.500000
O O9 0.417766 0.773219 0.610567
O O10 0.551027 0.681853 0.452997
O O11 0.144680 0.138127 0.126043
O O12 0.250000 0.250000 0.000000
O O13 0.854740 0.943111 0.634602
O O14 0.117675 0.931906 0.470170
#
# Coordination Sequence:
#
# PCOD9259438 Si02
#       6
#     8   8   8   8   8   8
#     4  11  24  37  62  92 123 162 213 259 309 375
#     4  11  23  36  61  97 123 159 212 260 311 381
#     4  10  18  35  57  86 117 159 199 252 308 364
#     4   9  18  34  58  86 116 159 204 247 307 368
#     4   8  17  31  60  82 110 157 201 238 304 367
#     4   9  19  38  59  85 126 160 202 252 320 363
#
# _framework density 23.353943999999998
#
# number of rings (size 3 to 8) (size 9 to 14) (size 15 to 20)
#    0.000    2.333    1.667    0.500   14.000    0.000 
#    0.000    0.000    0.000   17.000    4.333    0.000 
#    0.000    0.000    0.000    0.000    0.000    0.000 
#
# Total GULP energy -133819.050836 kJ/mol
# GULP energy per Si atom -5575.793785 kJ/mol
# Density = 2.330079 g / cm^3
# Si number density = 23.353944 Si / 1000 Ang^3
#
#
#
# Elastic Constant Matrix: (Units=GPa)
#
#
# Indices 1 2 3 4 5 6 
#
# 1 205.2013 57.8187 15.2081 0.0000 4.5171 0.0000
# 2 57.8187 78.0300 7.7922 0.0000 -0.0426 0.0000
# 3 15.2081 7.7922 48.2291 0.0000 -1.7662 0.0000
# 4 0.0000 0.0000 0.0000 6.9857 0.0000 -7.8005
# 5 4.5171 -0.0426 -1.7662 0.0000 24.0581 0.0000
# 6 0.0000 0.0000 0.0000 -7.8005 0.0000 40.4277
#
#
#
# Elastic Compliance Matrix: (Units=1/GPa)
#
#
# Indices 1 2 3 4 5 6 
#
# 1 0.006270 -0.004518 -0.001294 0.000000 -0.001280 0.000000
# 2 -0.004518 0.016281 -0.001177 0.000000 0.000791 0.000000
# 3 -0.001294 -0.001177 0.021399 0.000000 0.001812 0.000000
# 4 0.000000 0.000000 0.000000 0.182464 0.000000 0.035206
# 5 -0.001280 0.000791 0.001812 0.000000 0.041941 0.000000
# 6 0.000000 0.000000 0.000000 0.035206 0.000000 0.031529
#
#
# Mechanical properties :
#
#
# Convention : Reuss Voigt Hill
#
# Bulk Modulus (GPa) = 33.36368 54.78870 44.07619
# Shear Modulus (GPa) = 15.43916 31.00373 23.22145
#
# Velocity S-wave (km/s) = 2.57397 3.64752 3.15672
# Velocity P-wave (km/s) = 4.81153 6.42264 5.67455
#
# Compressibility (1/GPa) = 0.02997271
#
# Stress axis : x y z
#
# Youngs Moduli (GPa) = 159.48285 61.42128 46.73122
#
# Poissons Ratio (x) = 0.27748 0.06048
# Poissons Ratio (y) = 0.72048 0.05500
# Poissons Ratio (z) = 0.20640 0.07229
#
# Static dielectric constant tensor:
#      x y z
#    x 1.889630 0.000000 0.000190 
#    y 0.000000 1.978900 0.000000 
#    z 0.000190 0.000000 1.927020 
# 
# From -- ./inp_files/135915.got.cif
#   From: 2010.05.17/outbox.cif.g08.bks.cpg/sg15_68_cif.got.tgz:135915.got - 2010.06.03 18:47:42.
