data_PCOD9259633
_publ_section_title
;
Structure prediction by ZEFSAII (Michael W. Deem and Ramdas Pophale) SiO2 
 PCOD9259633
Probable space group: C 2/C
;
_chemical_formula_sum "Si O2"
_cell_formula_units_Z 52
_cell_length_a 9.179067
_cell_length_b 30.826404
_cell_length_c 7.499121
_cell_angle_alpha 90.000000
_cell_angle_beta 88.996580
_cell_angle_gamma 90.000000
_cell_volume 2121.608093
_symmetry_space_group_name_H-M "C 2/C"
_symmetry_group_IT_number 15
_symmetry_cell_setting 'monoclinic'
loop_
_space_group_symop_operation_xyz
x,y,z
-x,y,1/2-z
-x,-y,-z
x,-y,1/2+z
1/2+x,1/2+y,z
1/2-x,1/2+y,1/2-z
1/2-x,1/2-y,-z
1/2+x,1/2-y,1/2+z
loop_
_atom_site_type_symbol
_atom_site_label
_atom_site_fract_x
_atom_site_fract_y
_atom_site_fract_z
Si Si1 0.325578 0.564851 0.712580
Si Si2 0.388567 0.960729 0.979169
Si Si3 0.683491 0.753023 0.708174
Si Si4 0.000000 0.390169 0.750000
Si Si5 0.154037 0.061412 0.181766
Si Si6 0.294583 0.657186 0.231671
Si Si7 0.167038 0.840796 0.194664
O O1 0.500000 0.563547 0.750000
O O2 0.218076 0.541896 0.851232
O O3 0.311335 0.546762 0.516272
O O4 0.272854 0.614793 0.728584
O O5 0.277142 0.046559 0.315972
O O6 0.490256 0.919275 0.928925
O O7 0.500000 0.000000 0.000000
O O8 0.500000 0.757692 0.750000
O O9 0.750000 0.750000 0.500000
O O10 0.780863 0.792373 0.787939
O O11 0.725654 0.704519 0.768305
O O12 0.867876 0.358405 0.752085
O O13 0.135407 0.114547 0.176718
O O14 0.000000 0.043550 0.250000
O O15 0.332058 0.656566 0.020630
O O16 0.000000 0.840439 0.250000
#
# Coordination Sequence:
#
# PCOD9259633 Si02
#       7
#     8   8   8   4   8   8   8
#     4  11  20  40  74 109 143 197 253 312 382 466
#     4  11  25  47  73 107 150 183 246 327 393 462
#     4   9  17  28  54  94 143 198 247 306 379 445
#     4  10  20  42  68  94 142 196 238 298 400 456
#     4  11  21  40  74 111 141 196 261 304 388 473
#     4  10  18  35  61  96 141 193 248 304 373 458
#     4   9  16  31  58  99 139 191 249 306 369 443
#
# _framework density 24.509710999999999
#
# number of rings (size 3 to 8) (size 9 to 14) (size 15 to 20)
#    0.000    1.846    5.385    0.923    0.000    0.615 
#    5.538    0.769    0.000    8.308    0.000    1.077 
#    0.000    0.000    0.000    0.000    0.000    0.000 
#
# Total GULP energy -144894.778491 kJ/mol
# GULP energy per Si atom -5572.876096 kJ/mol
# Density = 2.445393 g / cm^3
# Si number density = 24.509711 Si / 1000 Ang^3
#
#
#
# Elastic Constant Matrix: (Units=GPa)
#
#
# Indices 1 2 3 4 5 6 
#
# 1 107.2903 23.7391 61.9386 0.0000 -27.5575 0.0000
# 2 23.7391 182.2199 36.8699 0.0000 2.1113 0.0000
# 3 61.9386 36.8699 201.6902 0.0000 -25.2779 0.0000
# 4 0.0000 0.0000 0.0000 39.1483 0.0000 -10.3983
# 5 -27.5575 2.1113 -25.2779 0.0000 44.2393 0.0000
# 6 0.0000 0.0000 0.0000 -10.3983 0.0000 23.7312
#
#
#
# Elastic Compliance Matrix: (Units=1/GPa)
#
#
# Indices 1 2 3 4 5 6 
#
# 1 0.012933 -0.001162 -0.002954 0.000000 0.006424 0.000000
# 2 -0.001162 0.005839 -0.000901 0.000000 -0.001517 0.000000
# 3 -0.002954 -0.000901 0.006253 0.000000 0.001775 0.000000
# 4 0.000000 0.000000 0.000000 0.028908 0.000000 0.012667
# 5 0.006424 -0.001517 0.001775 0.000000 0.027693 0.000000
# 6 0.000000 0.000000 0.000000 0.012667 0.000000 0.047689
#
#
# Mechanical properties :
#
#
# Convention : Reuss Voigt Hill
#
# Bulk Modulus (GPa) = 66.70566 81.81064 74.25815
# Shear Modulus (GPa) = 34.63936 46.00061 40.31998
#
# Velocity S-wave (km/s) = 3.76346 4.33694 4.06034
# Velocity P-wave (km/s) = 6.79411 7.65050 7.23498
#
# Compressibility (1/GPa) = 0.01499123
#
# Stress axis : x y z
#
# Youngs Moduli (GPa) = 77.32225 171.26092 159.93531
#
# Poissons Ratio (x) = 0.19893 0.47249
# Poissons Ratio (y) = 0.08981 0.14407
# Poissons Ratio (z) = 0.22843 0.15428
#
# Static dielectric constant tensor:
#      x y z
#    x 2.029590 0.000000 -0.065190 
#    y 0.000000 2.073380 0.000000 
#    z -0.065190 0.000000 1.969250 
# 
# From -- ./inp_files/34067.got.cif
#   From: 2010.05.17/outbox.cif.g08.bks.cpg/sg15_18_cif.got.tgz:34067.got - 2010.06.03 18:47:42.
