data_PCOD9259131
_publ_section_title
;
Structure prediction by ZEFSAII (Michael W. Deem and Ramdas Pophale) SiO2 
 PCOD9259131
Probable space group: C 2/C
;
_chemical_formula_sum "Si O2"
_cell_formula_units_Z 52
_cell_length_a 8.180790
_cell_length_b 29.453108
_cell_length_c 11.217097
_cell_angle_alpha 90.000000
_cell_angle_beta 103.470967
_cell_angle_gamma 90.000000
_cell_volume 2628.398072
_symmetry_space_group_name_H-M "C 2/C"
_symmetry_group_IT_number 15
_symmetry_cell_setting 'monoclinic'
loop_
_space_group_symop_operation_xyz
x,y,z
-x,y,1/2-z
-x,-y,-z
x,-y,1/2+z
1/2+x,1/2+y,z
1/2-x,1/2+y,1/2-z
1/2-x,1/2-y,-z
1/2+x,1/2-y,1/2+z
loop_
_atom_site_type_symbol
_atom_site_label
_atom_site_fract_x
_atom_site_fract_y
_atom_site_fract_z
Si Si1 0.237884 0.582130 0.168239
Si Si2 0.677718 0.705492 0.118290
Si Si3 0.329582 0.601653 0.650583
Si Si4 0.186598 0.203329 0.834147
Si Si5 0.000000 0.354203 0.750000
Si Si6 0.978947 0.881665 0.915536
Si Si7 0.902851 0.514671 0.861087
O O1 0.337089 0.597552 0.067591
O O2 0.356699 0.595798 0.298309
O O3 0.216384 0.528846 0.172209
O O4 0.069361 0.611548 0.159924
O O5 0.692027 0.754937 0.179662
O O6 0.846530 0.677596 0.182713
O O7 0.522990 0.671791 0.116888
O O8 0.673843 0.708502 0.974567
O O9 0.500000 0.589659 0.750000
O O10 0.265107 0.651184 0.684423
O O11 0.394133 0.609768 0.527336
O O12 0.195068 0.561676 0.635858
O O13 0.000000 0.210272 0.750000
O O14 0.000000 0.517521 0.750000
O O15 0.000000 0.500000 0.000000
#
# Coordination Sequence:
#
# PCOD9259131 Si02
#       7
#     8   8   8   8   4   8   8
#     4  10  21  37  61  87 119 149 204 260 301 351
#     4   9  17  31  60  85 116 151 205 241 303 357
#     4  10  23  39  62  86 125 164 202 241 314 376
#     4   9  17  33  55  86 116 163 194 240 295 380
#     4  10  18  34  60  88 112 154 196 260 304 348
#     4   9  20  38  60  91 118 155 203 254 300 360
#     4  12  27  43  63  90 125 165 212 261 316 372
#
# _framework density 19.783912999999998
#
# number of rings (size 3 to 8) (size 9 to 14) (size 15 to 20)
#    0.000    2.154    1.538    0.923    8.615    0.615 
#    0.000    0.000    6.769    8.308    0.000    0.000 
#    0.000    0.000    0.000    0.000    0.000    0.000 
#
# Total GULP energy -144799.883670 kJ/mol
# GULP energy per Si atom -5569.226295 kJ/mol
# Density = 1.973888 g / cm^3
# Si number density = 19.783913 Si / 1000 Ang^3
#
#
#
# Elastic Constant Matrix: (Units=GPa)
#
#
# Indices 1 2 3 4 5 6 
#
# 1 73.8003 67.8740 11.7014 0.0000 -18.6739 0.0000
# 2 67.8740 193.1436 29.3570 0.0000 -2.1186 0.0000
# 3 11.7014 29.3570 72.5802 0.0000 3.1856 0.0000
# 4 0.0000 0.0000 0.0000 24.2194 0.0000 -10.1072
# 5 -18.6739 -2.1186 3.1856 0.0000 26.5509 0.0000
# 6 0.0000 0.0000 0.0000 -10.1072 0.0000 -74.6791
#
#
#
# Elastic Compliance Matrix: (Units=1/GPa)
#
#
# Indices 1 2 3 4 5 6 
#
# 1 0.026580 -0.008917 -0.001476 0.000000 0.018160 0.000000
# 2 -0.008917 0.008522 -0.001773 0.000000 -0.005379 0.000000
# 3 -0.001476 -0.001773 0.014863 0.000000 -0.002963 0.000000
# 4 0.000000 0.000000 0.000000 0.039082 0.000000 -0.005289
# 5 0.018160 -0.005379 -0.002963 0.000000 0.050362 0.000000
# 6 0.000000 0.000000 0.000000 -0.005289 0.000000 -0.012675
#
#
# Mechanical properties :
#
#
# Convention : Reuss Voigt Hill
#
# Bulk Modulus (GPa) = 39.01190 61.93208 50.47199
# Shear Modulus (GPa) = 31.32621 10.59101 20.95861
#
# Velocity S-wave (km/s) = 3.98354 2.31624 3.25834
# Velocity P-wave (km/s) = 6.39687 6.20689 6.30259
#
# Compressibility (1/GPa) = 0.02563321
#
# Stress axis : x y z
#
# Youngs Moduli (GPa) = 37.62162 117.34734 67.28142
#
# Poissons Ratio (x) = 1.04643 0.09927
# Poissons Ratio (y) = 0.33549 0.11930
# Poissons Ratio (z) = 0.05551 0.20807
#
# Static dielectric constant tensor:
#      x y z
#    x 1.800320 0.000000 0.015460 
#    y 0.000000 1.753140 0.000000 
#    z 0.015460 0.000000 2.073380 
# 
# From -- ./inp_files/80866.got.cif
#   From: 2010.05.17/outbox.cif.g08.bks.cpg/sg15_41_cif.got.tgz:80866.got - 2010.06.03 18:47:42.
