data_PCOD9259632
_publ_section_title
;
Structure prediction by ZEFSAII (Michael W. Deem and Ramdas Pophale) SiO2 
 PCOD9259632
Probable space group: C 2/C
;
_chemical_formula_sum "Si O2"
_cell_formula_units_Z 56
_cell_length_a 11.958249
_cell_length_b 13.346766
_cell_length_c 16.951226
_cell_angle_alpha 90.000000
_cell_angle_beta 108.593953
_cell_angle_gamma 90.000000
_cell_volume 2564.262047
_symmetry_space_group_name_H-M "C 2/C"
_symmetry_group_IT_number 15
_symmetry_cell_setting 'monoclinic'
loop_
_space_group_symop_operation_xyz
x,y,z
-x,y,1/2-z
-x,-y,-z
x,-y,1/2+z
1/2+x,1/2+y,z
1/2-x,1/2+y,1/2-z
1/2-x,1/2-y,-z
1/2+x,1/2-y,1/2+z
loop_
_atom_site_type_symbol
_atom_site_label
_atom_site_fract_x
_atom_site_fract_y
_atom_site_fract_z
Si Si1 0.071260 0.946767 0.903159
Si Si2 0.803466 0.482434 0.383709
Si Si3 0.384166 0.080695 0.259643
Si Si4 0.865645 0.189931 0.311225
Si Si5 0.866617 0.291806 0.483515
Si Si6 0.553100 0.646723 0.571873
Si Si7 0.210543 0.623141 0.778999
O O1 0.967974 0.892128 0.831557
O O2 0.079251 0.891528 0.989159
O O3 0.197961 0.949709 0.891229
O O4 0.030414 0.060725 0.909810
O O5 0.895830 0.546445 0.353358
O O6 0.853904 0.409427 0.461916
O O7 0.752042 0.411519 0.301409
O O8 0.500000 0.129472 0.250000
O O9 0.358749 0.975416 0.207539
O O10 0.263903 0.141832 0.225064
O O11 0.874392 0.238592 0.399877
O O12 0.869329 0.279562 0.249542
O O13 0.750000 0.250000 0.500000
O O14 0.980952 0.249928 0.554188
O O15 0.675072 0.648508 0.645564
#
# Coordination Sequence:
#
# PCOD9259632 Si02
#       7
#     8   8   8   8   8   8   8
#     4  10  18  35  61  96 121 158 206 259 312 366
#     4   9  20  38  61  93 122 161 210 257 306 364
#     4  10  22  41  59  85 124 166 205 255 312 363
#     4  10  21  38  60  94 120 166 213 252 314 365
#     4  10  19  34  59  96 127 158 198 260 314 371
#     4  10  19  32  61  93 129 159 197 259 318 365
#     4   9  21  39  58  94 121 161 215 253 307 366
#
# _framework density 21.838642
#
# number of rings (size 3 to 8) (size 9 to 14) (size 15 to 20)
#    0.857    1.429    2.857    0.000    0.000    3.429 
#    2.571    0.000    0.000    9.429    0.000    0.000 
#    0.000    0.000    0.000    0.000    0.000    0.000 
#
# Total GULP energy -156271.485296 kJ/mol
# GULP energy per Si atom -5581.124475 kJ/mol
# Density = 2.178894 g / cm^3
# Si number density = 21.838642 Si / 1000 Ang^3
#
#
#
# Elastic Constant Matrix: (Units=GPa)
#
#
# Indices 1 2 3 4 5 6 
#
# 1 85.5090 19.0364 13.8481 0.0000 -8.3677 0.0000
# 2 19.0364 66.3084 5.3344 0.0000 12.3056 0.0000
# 3 13.8481 5.3344 52.3079 0.0000 15.8437 0.0000
# 4 0.0000 0.0000 0.0000 13.0785 0.0000 12.2204
# 5 -8.3677 12.3056 15.8437 0.0000 22.9391 0.0000
# 6 0.0000 0.0000 0.0000 12.2204 0.0000 17.6909
#
#
#
# Elastic Compliance Matrix: (Units=1/GPa)
#
#
# Indices 1 2 3 4 5 6 
#
# 1 0.015972 -0.006722 -0.008093 0.000000 0.015022 0.000000
# 2 -0.006722 0.019646 0.004693 0.000000 -0.016232 0.000000
# 3 -0.008093 0.004693 0.028374 0.000000 -0.025067 0.000000
# 4 0.000000 0.000000 0.000000 0.215657 0.000000 -0.148970
# 5 0.015022 -0.016232 -0.025067 0.000000 0.075094 0.000000
# 6 0.000000 0.000000 0.000000 -0.148970 0.000000 0.159431
#
#
# Mechanical properties :
#
#
# Convention : Reuss Voigt Hill
#
# Bulk Modulus (GPa) = 22.85861 31.17371 27.01616
# Shear Modulus (GPa) = 9.10746 21.80211 15.45478
#
# Velocity S-wave (km/s) = 2.04436 3.16306 2.66311
# Velocity P-wave (km/s) = 4.00778 5.25790 4.67481
#
# Compressibility (1/GPa) = 0.04374718
#
# Stress axis : x y z
#
# Youngs Moduli (GPa) = 62.61040 50.90170 35.24339
#
# Poissons Ratio (x) = 0.34216 0.28522
# Poissons Ratio (y) = 0.42087 -0.16539
# Poissons Ratio (z) = 0.50670 -0.23886
#
# Static dielectric constant tensor:
#      x y z
#    x 1.776600 0.000000 -0.023220 
#    y 0.000000 1.831860 0.000000 
#    z -0.023220 0.000000 1.812410 
# 
# From -- ./inp_files/197966.got.cif
#   From: 2010.05.17/outbox.cif.g08.bks.cpg/sg15_99_cif.got.tgz:197966.got - 2010.06.03 18:47:42.
