data_PCOD9259902
_publ_section_title
;
Structure prediction by ZEFSAII (Michael W. Deem and Ramdas Pophale) SiO2 
 PCOD9259902
Probable space group: C 2/C
;
_chemical_formula_sum "Si O2"
_cell_formula_units_Z 36
_cell_length_a 12.813990
_cell_length_b 13.007300
_cell_length_c 17.032548
_cell_angle_alpha 90.000000
_cell_angle_beta 133.576390
_cell_angle_gamma 90.000000
_cell_volume 2056.663102
_symmetry_space_group_name_H-M "C 2/C"
_symmetry_group_IT_number 15
_symmetry_cell_setting 'monoclinic'
loop_
_space_group_symop_operation_xyz
x,y,z
-x,y,1/2-z
-x,-y,-z
x,-y,1/2+z
1/2+x,1/2+y,z
1/2-x,1/2+y,1/2-z
1/2-x,1/2-y,-z
1/2+x,1/2-y,1/2+z
loop_
_atom_site_type_symbol
_atom_site_label
_atom_site_fract_x
_atom_site_fract_y
_atom_site_fract_z
Si Si1 0.000000 0.258143 0.250000
Si Si2 0.695775 0.789762 0.636634
Si Si3 0.368726 0.911919 0.052567
Si Si4 0.154511 0.053107 0.570079
Si Si5 0.911665 0.578676 0.281109
O O1 0.131353 0.199167 0.278964
O O2 0.069500 0.329522 0.352967
O O3 0.639703 0.859066 0.535676
O O4 0.654587 0.670854 0.600447
O O5 0.639623 0.830605 0.689900
O O6 0.215274 0.942956 0.011845
O O7 0.478818 0.006173 0.113758
O O8 0.276717 0.989557 0.681127
O O9 0.000000 0.000000 0.500000
O O10 0.000000 0.612622 0.250000
#
# Coordination Sequence:
#
# PCOD9259902 Si02
#       5
#     4   8   8   8   8
#     4  10  18  36  58  88 108 142 186 254 274 316
#     4  11  22  34  63  86 109 148 200 229 279 342
#     4  10  19  39  57  83 116 148 193 230 288 329
#     4  10  21  36  59  85 113 150 188 238 279 329
#     4  10  21  40  56  79 124 155 176 230 298 334
#
# _framework density 17.504082
#
# number of rings (size 3 to 8) (size 9 to 14) (size 15 to 20)
#    0.000    1.778    5.556    3.333    6.222    0.000 
#    0.000    6.667    0.000    0.000    0.000    0.000 
#    0.000    0.000    0.000    0.000    0.000    0.000 
#
# Total GULP energy -100402.551009 kJ/mol
# GULP energy per Si atom -5577.919501 kJ/mol
# Density = 1.746424 g / cm^3
# Si number density = 17.504082 Si / 1000 Ang^3
#
#
#
# Elastic Constant Matrix: (Units=GPa)
#
#
# Indices 1 2 3 4 5 6 
#
# 1 138.9467 73.2000 61.5786 0.0000 14.9099 0.0000
# 2 73.2000 81.5321 26.7724 0.0000 1.0820 0.0000
# 3 61.5786 26.7724 52.8587 0.0000 8.0541 0.0000
# 4 0.0000 0.0000 0.0000 9.0553 0.0000 -0.4538
# 5 14.9099 1.0820 8.0541 0.0000 26.8480 0.0000
# 6 0.0000 0.0000 0.0000 -0.4538 0.0000 36.7331
#
#
#
# Elastic Compliance Matrix: (Units=1/GPa)
#
#
# Indices 1 2 3 4 5 6 
#
# 1 0.025570 -0.016131 -0.020491 0.000000 -0.007403 0.000000
# 2 -0.016131 0.024964 0.005172 0.000000 0.006400 0.000000
# 3 -0.020491 0.005172 0.040310 0.000000 -0.000922 0.000000
# 4 0.000000 0.000000 0.000000 0.110501 0.000000 0.001365
# 5 -0.007403 0.006400 -0.000922 0.000000 0.041377 0.000000
# 6 0.000000 0.000000 0.000000 0.001365 0.000000 0.027240
#
#
# Mechanical properties :
#
#
# Convention : Reuss Voigt Hill
#
# Bulk Modulus (GPa) = 35.78250 66.27105 51.02678
# Shear Modulus (GPa) = 14.61239 21.97973 18.29606
#
# Velocity S-wave (km/s) = 2.89242 3.54742 3.23653
# Velocity P-wave (km/s) = 5.62508 7.39739 6.57126
#
# Compressibility (1/GPa) = 0.02794662
#
# Stress axis : x y z
#
# Youngs Moduli (GPa) = 39.10760 40.05788 24.80778
#
# Poissons Ratio (x) = 0.64616 0.50833
# Poissons Ratio (y) = 0.63083 -0.12832
# Poissons Ratio (z) = 0.80134 -0.20720
#
# Static dielectric constant tensor:
#      x y z
#    x 1.613190 0.000000 0.020300 
#    y 0.000000 1.592340 0.000000 
#    z 0.020300 0.000000 1.597760 
# 
# From -- ./inp_files/84353.got.cif
#   From: 2010.05.17/outbox.cif.g08.bks.cpg/sg15_43_cif.got.tgz:84353.got - 2010.06.03 18:47:42.
