data_PCOD9259676
_publ_section_title
;
Structure prediction by ZEFSAII (Michael W. Deem and Ramdas Pophale) SiO2 
 PCOD9259676
Probable space group: C 2/C
;
_chemical_formula_sum "Si O2"
_cell_formula_units_Z 56
_cell_length_a 14.858603
_cell_length_b 10.991064
_cell_length_c 27.184011
_cell_angle_alpha 90.000000
_cell_angle_beta 134.006667
_cell_angle_gamma 90.000000
_cell_volume 3193.129532
_symmetry_space_group_name_H-M "C 2/C"
_symmetry_group_IT_number 15
_symmetry_cell_setting 'monoclinic'
loop_
_space_group_symop_operation_xyz
x,y,z
-x,y,1/2-z
-x,-y,-z
x,-y,1/2+z
1/2+x,1/2+y,z
1/2-x,1/2+y,1/2-z
1/2-x,1/2-y,-z
1/2+x,1/2-y,1/2+z
loop_
_atom_site_type_symbol
_atom_site_label
_atom_site_fract_x
_atom_site_fract_y
_atom_site_fract_z
Si Si1 0.367554 0.782372 0.726095
Si Si2 0.862552 0.636363 0.336254
Si Si3 0.369579 0.902159 0.574412
Si Si4 0.972911 0.878026 0.426182
Si Si5 0.658923 0.615852 0.915945
Si Si6 0.813438 0.914330 0.916121
Si Si7 0.361899 0.508860 0.699682
O O1 0.500000 0.818884 0.750000
O O2 0.345493 0.834750 0.771996
O O3 0.255054 0.825451 0.648065
O O4 0.373558 0.636551 0.733255
O O5 0.900708 0.758068 0.380904
O O6 0.745044 0.572032 0.316595
O O7 0.990868 0.557976 0.384342
O O8 0.369700 0.761303 0.594394
O O9 0.286373 0.901691 0.494187
O O10 0.293140 0.968232 0.588136
O O11 0.046642 0.933067 0.407334
O O12 0.082841 0.852646 0.508385
O O13 0.881802 0.977461 0.414044
O O14 0.667297 0.554095 0.866669
O O15 0.500000 0.450457 0.750000
#
# Coordination Sequence:
#
# PCOD9259676 Si02
#       7
#     8   8   8   8   8   8   8
#     4  11  21  37  58  82 108 145 192 234 274 333
#     4  11  23  36  56  83 114 143 184 235 278 338
#     4   9  16  34  57  84 101 136 190 231 267 304
#     4   9  20  36  60  84 113 148 189 225 284 332
#     4   9  17  33  58  79 108 141 182 230 263 330
#     4  10  18  35  63  84 110 147 189 234 271 331
#     4  11  23  38  54  80 114 151 182 224 290 333
#
# _framework density 17.537652999999999
#
# number of rings (size 3 to 8) (size 9 to 14) (size 15 to 20)
#    0.000    2.000    2.857    3.429    4.000    0.571 
#    0.000    2.143    0.000    2.571    0.000    0.000 
#    0.000    0.000    0.000    0.000    0.000    0.000 
#
# Total GULP energy -156043.503000 kJ/mol
# GULP energy per Si atom -5572.982250 kJ/mol
# Density = 1.749774 g / cm^3
# Si number density = 17.537653 Si / 1000 Ang^3
#
#
#
# Elastic Constant Matrix: (Units=GPa)
#
#
# Indices 1 2 3 4 5 6 
#
# 1 175.0956 56.0157 73.0853 0.0000 10.6416 0.0000
# 2 56.0157 36.4751 31.0425 0.0000 4.3162 0.0000
# 3 73.0853 31.0425 103.1657 0.0000 -0.6079 0.0000
# 4 0.0000 0.0000 0.0000 16.2641 0.0000 6.4908
# 5 10.6416 4.3162 -0.6079 0.0000 36.1237 0.0000
# 6 0.0000 0.0000 0.0000 6.4908 0.0000 35.5446
#
#
#
# Elastic Compliance Matrix: (Units=1/GPa)
#
#
# Indices 1 2 3 4 5 6 
#
# 1 0.012528 -0.015390 -0.004256 0.000000 -0.001923 0.000000
# 2 -0.015390 0.056537 -0.006123 0.000000 -0.002325 0.000000
# 3 -0.004256 -0.006123 0.014563 0.000000 0.002230 0.000000
# 4 0.000000 0.000000 0.000000 0.066318 0.000000 -0.012110
# 5 -0.001923 -0.002325 0.002230 0.000000 0.028565 0.000000
# 6 0.000000 0.000000 0.000000 -0.012110 0.000000 0.030345
#
#
# Mechanical properties :
#
#
# Convention : Reuss Voigt Hill
#
# Bulk Modulus (GPa) = 31.16129 70.55818 50.85974
# Shear Modulus (GPa) = 18.44408 27.89265 23.16836
#
# Velocity S-wave (km/s) = 3.24649 3.99236 3.63859
# Velocity P-wave (km/s) = 5.64444 7.84676 6.83489
#
# Compressibility (1/GPa) = 0.03209110
#
# Stress axis : x y z
#
# Youngs Moduli (GPa) = 79.82245 17.68762 68.66520
#
# Poissons Ratio (x) = 0.27221 0.29221
# Poissons Ratio (y) = 1.22846 0.42043
# Poissons Ratio (z) = 0.33969 0.10830
#
# Static dielectric constant tensor:
#      x y z
#    x 1.625180 0.000000 0.001890 
#    y 0.000000 1.580720 0.000000 
#    z 0.001890 0.000000 1.659920 
# 
# From -- ./inp_files/292310.got.cif
#   From: 2010.05.17/outbox.cif.g08.bks.cpg/sg15_147_cif.got.tgz:292310.got - 2010.06.03 18:47:42.
