data_PCOD9259089
_publ_section_title
;
Structure prediction by ZEFSAII (Michael W. Deem and Ramdas Pophale) SiO2 
 PCOD9259089
Probable space group: C 2/C
;
_chemical_formula_sum "Si O2"
_cell_formula_units_Z 60
_cell_length_a 13.900751
_cell_length_b 16.135386
_cell_length_c 14.822126
_cell_angle_alpha 90.000000
_cell_angle_beta 64.669877
_cell_angle_gamma 90.000000
_cell_volume 3004.887431
_symmetry_space_group_name_H-M "C 2/C"
_symmetry_group_IT_number 15
_symmetry_cell_setting 'monoclinic'
loop_
_space_group_symop_operation_xyz
x,y,z
-x,y,1/2-z
-x,-y,-z
x,-y,1/2+z
1/2+x,1/2+y,z
1/2-x,1/2+y,1/2-z
1/2-x,1/2-y,-z
1/2+x,1/2-y,1/2+z
loop_
_atom_site_type_symbol
_atom_site_label
_atom_site_fract_x
_atom_site_fract_y
_atom_site_fract_z
Si Si1 0.518827 0.997211 0.384803
Si Si2 0.035260 0.077091 0.132162
Si Si3 0.426575 0.608238 0.932829
Si Si4 0.330986 0.055842 0.823769
Si Si5 0.306409 0.391660 0.643089
Si Si6 0.859684 0.826162 0.052860
Si Si7 0.628635 0.176685 0.332145
Si Si8 0.000000 0.791898 0.250000
O O1 0.564192 0.090561 0.353902
O O2 0.500000 0.000000 0.500000
O O3 0.606622 0.939785 0.297599
O O4 0.413887 0.969878 0.370324
O O5 0.000000 0.077963 0.250000
O O6 0.922481 0.085667 0.129697
O O7 0.083919 0.989732 0.079915
O O8 0.110279 0.149447 0.061971
O O9 0.543966 0.629684 0.927732
O O10 0.422490 0.650544 0.837964
O O11 0.334165 0.644333 0.033734
O O12 0.253503 0.132775 0.876156
O O13 0.256838 0.975917 0.844668
O O14 0.243301 0.338670 0.741271
O O15 0.863680 0.729160 0.078315
O O16 0.565270 0.235598 0.290673
#
# Coordination Sequence:
#
# PCOD9259089 Si02
#       8
#     8   8   8   8   8   8   8   4
#     4  10  23  43  63  88 119 167 220 258 306 386
#     4  11  20  35  61  92 122 163 202 248 309 378
#     4  10  18  34  59  90 126 151 193 252 312 376
#     4  10  19  39  66  87 120 165 207 264 308 374
#     4  10  19  37  59  85 121 163 204 244 308 377
#     4  10  20  38  60  90 127 157 198 265 314 364
#     4  10  22  40  61  88 129 161 202 267 320 358
#     4  10  20  36  58  92 130 154 190 266 322 358
#
# _framework density 19.967469999999999
#
# number of rings (size 3 to 8) (size 9 to 14) (size 15 to 20)
#    0.000    1.867    3.333    2.400    0.000    2.667 
#   12.000    2.667    0.000    0.000    0.000    0.000 
#    0.000    0.000    0.000    0.000    0.000    0.000 
#
# Total GULP energy -167017.537449 kJ/mol
# GULP energy per Si atom -5567.251248 kJ/mol
# Density = 1.992202 g / cm^3
# Si number density = 19.967470 Si / 1000 Ang^3
#
#
#
# Elastic Constant Matrix: (Units=GPa)
#
#
# Indices 1 2 3 4 5 6 
#
# 1 41.8142 4.4877 11.1850 0.0000 -15.0466 0.0000
# 2 4.4877 43.8148 -0.4350 0.0000 -2.8174 0.0000
# 3 11.1850 -0.4350 99.8126 0.0000 5.0226 0.0000
# 4 0.0000 0.0000 0.0000 29.3736 0.0000 5.7781
# 5 -15.0466 -2.8174 5.0226 0.0000 24.5739 0.0000
# 6 0.0000 0.0000 0.0000 5.7781 0.0000 2.4420
#
#
#
# Elastic Compliance Matrix: (Units=1/GPa)
#
#
# Indices 1 2 3 4 5 6 
#
# 1 0.032928 -0.002076 -0.004750 0.000000 0.020894 0.000000
# 2 -0.002076 0.023124 0.000267 0.000000 0.001325 0.000000
# 3 -0.004750 0.000267 0.010808 0.000000 -0.005087 0.000000
# 4 0.000000 0.000000 0.000000 0.063687 0.000000 -0.150695
# 5 0.020894 0.001325 -0.005087 0.000000 0.054679 0.000000
# 6 0.000000 0.000000 0.000000 -0.150695 0.000000 0.766074
#
#
# Mechanical properties :
#
#
# Convention : Reuss Voigt Hill
#
# Bulk Modulus (GPa) = 18.60805 23.99077 21.29941
# Shear Modulus (GPa) = 5.08993 22.62482 13.85737
#
# Velocity S-wave (km/s) = 1.59832 3.36978 2.63724
# Velocity P-wave (km/s) = 3.57010 5.21360 4.46806
#
# Compressibility (1/GPa) = 0.05374017
#
# Stress axis : x y z
#
# Youngs Moduli (GPa) = 30.36971 43.24532 92.52202
#
# Poissons Ratio (x) = 0.08979 0.43951
# Poissons Ratio (y) = 0.06305 -0.02468
# Poissons Ratio (z) = 0.14427 -0.01154
#
# Static dielectric constant tensor:
#      x y z
#    x 1.795370 0.000000 0.055740 
#    y 0.000000 1.726830 0.000000 
#    z 0.055740 0.000000 1.747800 
# 
# From -- ./inp_files/154265.got.cif
#   From: 2010.05.17/outbox.cif.g08.bks.cpg/sg15_78_cif.got.tgz:154265.got - 2010.06.03 18:47:42.
