data_PCOD9259515
_publ_section_title
;
Structure prediction by ZEFSAII (Michael W. Deem and Ramdas Pophale) SiO2 
 PCOD9259515
Probable space group: C 2/C
;
_chemical_formula_sum "Si O2"
_cell_formula_units_Z 36
_cell_length_a 17.971556
_cell_length_b 7.003973
_cell_length_c 16.594456
_cell_angle_alpha 90.000000
_cell_angle_beta 66.730502
_cell_angle_gamma 90.000000
_cell_volume 1918.874047
_symmetry_space_group_name_H-M "C 2/C"
_symmetry_group_IT_number 15
_symmetry_cell_setting 'monoclinic'
loop_
_space_group_symop_operation_xyz
x,y,z
-x,y,1/2-z
-x,-y,-z
x,-y,1/2+z
1/2+x,1/2+y,z
1/2-x,1/2+y,1/2-z
1/2-x,1/2-y,-z
1/2+x,1/2-y,1/2+z
loop_
_atom_site_type_symbol
_atom_site_label
_atom_site_fract_x
_atom_site_fract_y
_atom_site_fract_z
Si Si1 0.356899 0.367548 0.414697
Si Si2 0.817238 0.587606 0.574071
Si Si3 0.000000 0.999093 0.750000
Si Si4 0.101299 0.815210 0.475813
Si Si5 0.428938 0.661209 0.126324
O O1 0.278769 0.383082 0.391489
O O2 0.350327 0.188606 0.477799
O O3 0.439038 0.375906 0.329248
O O4 0.358723 0.552257 0.472466
O O5 0.846289 0.370492 0.563077
O O6 0.857157 0.699619 0.631350
O O7 0.051701 0.868633 0.788803
O O8 0.011214 0.767174 0.546964
O O9 0.089788 0.953629 0.404250
#
# Coordination Sequence:
#
# PCOD9259515 Si02
#       5
#     8   8   4   8   8
#     4   9  20  35  57  79 111 142 182 228 278 317
#     4  10  18  35  59  83 100 142 196 227 253 335
#     4  10  20  40  50  74 124 150 162 230 290 316
#     4   9  17  34  57  79 101 142 182 223 269 324
#     4   9  19  33  54  77 110 142 177 220 275 326
#
# _framework density 18.761004
#
# number of rings (size 3 to 8) (size 9 to 14) (size 15 to 20)
#    0.000    2.667    0.000    2.667    0.000    0.000 
#    4.000   10.000    0.000    0.000    0.000    0.000 
#    0.000    0.000    0.000    0.000    0.000    0.000 
#
# Total GULP energy -100434.301811 kJ/mol
# GULP energy per Si atom -5579.683434 kJ/mol
# Density = 1.871830 g / cm^3
# Si number density = 18.761004 Si / 1000 Ang^3
#
#
#
# Elastic Constant Matrix: (Units=GPa)
#
#
# Indices 1 2 3 4 5 6 
#
# 1 91.4201 13.7293 18.0760 0.0001 23.9026 0.0001
# 2 13.7293 49.9306 13.4969 -0.0001 -3.2829 -0.0001
# 3 18.0760 13.4969 49.8325 0.0000 8.2757 0.0000
# 4 0.0001 -0.0001 0.0000 4.6071 -0.0001 -2.2298
# 5 23.9026 -3.2829 8.2757 -0.0001 25.0964 -0.0002
# 6 0.0001 -0.0001 0.0000 -2.2298 -0.0002 26.9883
#
#
#
# Elastic Compliance Matrix: (Units=1/GPa)
#
#
# Indices 1 2 3 4 5 6 
#
# 1 0.016058 -0.004890 -0.001962 -0.000001 -0.015287 0.000000
# 2 -0.004890 0.023717 -0.006283 0.000001 0.009832 0.000000
# 3 -0.001962 -0.006283 0.023599 0.000000 -0.006735 0.000000
# 4 -0.000001 0.000001 0.000000 0.226099 0.000002 0.018680
# 5 -0.015287 0.009832 -0.006735 0.000002 0.057913 0.000001
# 6 0.000000 0.000000 0.000000 0.018680 0.000001 0.038597
#
#
# Mechanical properties :
#
#
# Convention : Reuss Voigt Hill
#
# Bulk Modulus (GPa) = 26.95050 31.30972 29.13011
# Shear Modulus (GPa) = 11.77526 21.06374 16.41950
#
# Velocity S-wave (km/s) = 2.50800 3.35437 2.96158
# Velocity P-wave (km/s) = 4.77317 5.63270 5.22065
#
# Compressibility (1/GPa) = 0.03710506
#
# Stress axis : x y z
#
# Youngs Moduli (GPa) = 62.27588 42.16362 42.37484
#
# Poissons Ratio (x) = 0.20619 0.08312
# Poissons Ratio (y) = 0.30454 0.26622
# Poissons Ratio (z) = 0.12216 0.26490
#
# Static dielectric constant tensor:
#      x y z
#    x 1.671560 0.000000 0.007080 
#    y 0.000000 1.626530 0.000000 
#    z 0.007080 0.000000 1.642240 
# 
# From -- ./inp_files/171540.got.cif
#   From: 2010.05.17/outbox.cif.g08.bks.cpg/sg15_86_cif.got.tgz:171540.got - 2010.06.03 18:47:42.
