data_PCOD9259064
_publ_section_title
;
Structure prediction by ZEFSAII (Michael W. Deem and Ramdas Pophale) SiO2 
 PCOD9259064
Probable space group: C 2/C
;
_chemical_formula_sum "Si O2"
_cell_formula_units_Z 60
_cell_length_a 26.717640
_cell_length_b 7.230516
_cell_length_c 15.196719
_cell_angle_alpha 90.000000
_cell_angle_beta 60.960276
_cell_angle_gamma 90.000000
_cell_volume 2566.666467
_symmetry_space_group_name_H-M "C 2/C"
_symmetry_group_IT_number 15
_symmetry_cell_setting 'monoclinic'
loop_
_space_group_symop_operation_xyz
x,y,z
-x,y,1/2-z
-x,-y,-z
x,-y,1/2+z
1/2+x,1/2+y,z
1/2-x,1/2+y,1/2-z
1/2-x,1/2-y,-z
1/2+x,1/2-y,1/2+z
loop_
_atom_site_type_symbol
_atom_site_label
_atom_site_fract_x
_atom_site_fract_y
_atom_site_fract_z
Si Si1 0.326717 0.261145 0.543744
Si Si2 0.538686 0.209279 0.396685
Si Si3 0.500000 0.500000 0.000000
Si Si4 0.594743 0.536889 0.255544
Si Si5 0.443899 0.664180 0.879372
Si Si6 0.773853 0.016635 0.844122
Si Si7 0.755737 0.905688 0.155161
Si Si8 0.367653 0.905754 0.196794
O O1 0.382762 0.238020 0.438283
O O2 0.272525 0.136729 0.565725
O O3 0.302153 0.469556 0.566656
O O4 0.346121 0.197971 0.626205
O O5 0.502178 0.261350 0.511998
O O6 0.562235 0.427985 0.364375
O O7 0.495624 0.189603 0.351909
O O8 0.589802 0.071951 0.358955
O O9 0.453866 0.536260 0.955950
O O10 0.560116 0.464981 0.202017
O O11 0.660055 0.470892 0.187325
O O12 0.602067 0.750906 0.269668
O O13 0.772548 0.081861 0.743487
O O14 0.751219 0.806045 0.866879
O O15 0.690444 0.980697 0.208041
#
# Coordination Sequence:
#
# PCOD9259064 Si02
#       8
#     8   8   4   8   8   8   8   8
#     4  11  21  38  60  97 127 168 209 270 311 394
#     4  10  22  43  64  92 124 171 214 279 316 384
#     4   8  22  40  66  88 120 170 210 270 318 374
#     4  11  21  42  65  91 128 170 209 271 328 386
#     4  10  24  41  62  89 130 173 211 261 336 372
#     4  10  20  32  63  92 124 162 212 256 325 381
#     4  10  18  34  58  99 123 161 212 265 308 381
#     4  10  22  37  70  96 125 170 226 266 314 393
#
# _framework density 23.376624
#
# number of rings (size 3 to 8) (size 9 to 14) (size 15 to 20)
#    0.800    1.067    4.000    2.000    1.867    1.067 
#    0.000    8.000    0.000    0.000    0.000    0.000 
#    0.000    0.000    0.000    0.000    0.000    0.000 
#
# Total GULP energy -167009.589924 kJ/mol
# GULP energy per Si atom -5566.986331 kJ/mol
# Density = 2.332342 g / cm^3
# Si number density = 23.376624 Si / 1000 Ang^3
#
#
#
# Elastic Constant Matrix: (Units=GPa)
#
#
# Indices 1 2 3 4 5 6 
#
# 1 122.7644 43.0754 32.9757 0.0000 -22.1417 0.0001
# 2 43.0754 60.6246 8.0401 0.0001 -14.7085 -0.0004
# 3 32.9757 8.0401 40.8675 0.0000 0.4818 0.0001
# 4 0.0000 0.0001 0.0000 21.9125 0.0000 -22.1277
# 5 -22.1417 -14.7085 0.4818 0.0000 33.9795 0.0000
# 6 0.0001 -0.0004 0.0001 -22.1277 0.0000 37.7667
#
#
#
# Elastic Compliance Matrix: (Units=1/GPa)
#
#
# Indices 1 2 3 4 5 6 
#
# 1 0.014795 -0.007531 -0.010534 0.000000 0.006530 0.000000
# 2 -0.007531 0.022848 0.001523 0.000000 0.004961 0.000001
# 3 -0.010534 0.001523 0.032748 0.000000 -0.006669 0.000000
# 4 0.000000 0.000000 0.000000 0.111761 0.000000 0.065481
# 5 0.006530 0.004961 -0.006669 0.000000 0.035927 0.000000
# 6 0.000000 0.000001 0.000000 0.065481 0.000000 0.064844
#
#
# Mechanical properties :
#
#
# Convention : Reuss Voigt Hill
#
# Bulk Modulus (GPa) = 26.80392 43.60430 35.20411
# Shear Modulus (GPa) = 15.22341 28.07609 21.64975
#
# Velocity S-wave (km/s) = 2.55468 3.46935 3.04654
# Velocity P-wave (km/s) = 4.49364 5.89423 5.24094
#
# Compressibility (1/GPa) = 0.03730798
#
# Stress axis : x y z
#
# Youngs Moduli (GPa) = 67.58819 43.76822 30.53647
#
# Poissons Ratio (x) = 0.32963 0.32166
# Poissons Ratio (y) = 0.50902 -0.04652
# Poissons Ratio (z) = 0.71195 -0.06668
#
# Static dielectric constant tensor:
#      x y z
#    x 1.881690 0.000000 -0.099570 
#    y 0.000000 1.985230 0.000000 
#    z -0.099570 0.000000 2.525790 
# 
# From -- ./inp_files/252153.got.cif
#   From: 2010.05.17/outbox.cif.g08.bks.cpg/sg15_127_cif.got.tgz:252153.got - 2010.06.03 18:47:42.
