data_PCOD9259628
_publ_section_title
;
Structure prediction by ZEFSAII (Michael W. Deem and Ramdas Pophale) SiO2 
 PCOD9259628
Probable space group: C 2/C
;
_chemical_formula_sum "Si O2"
_cell_formula_units_Z 60
_cell_length_a 9.051536
_cell_length_b 18.163471
_cell_length_c 17.332689
_cell_angle_alpha 90.000000
_cell_angle_beta 62.805575
_cell_angle_gamma 90.000000
_cell_volume 2534.626128
_symmetry_space_group_name_H-M "C 2/C"
_symmetry_group_IT_number 15
_symmetry_cell_setting 'monoclinic'
loop_
_space_group_symop_operation_xyz
x,y,z
-x,y,1/2-z
-x,-y,-z
x,-y,1/2+z
1/2+x,1/2+y,z
1/2-x,1/2+y,1/2-z
1/2-x,1/2-y,-z
1/2+x,1/2-y,1/2+z
loop_
_atom_site_type_symbol
_atom_site_label
_atom_site_fract_x
_atom_site_fract_y
_atom_site_fract_z
Si Si1 0.352659 0.060232 0.106371
Si Si2 0.000000 0.720312 0.750000
Si Si3 0.283357 0.618188 0.199665
Si Si4 0.619255 0.661543 0.097233
Si Si5 0.389598 0.003148 0.852831
Si Si6 0.794760 0.211717 0.791368
Si Si7 0.571426 0.582034 0.958969
Si Si8 0.874915 0.078541 0.852237
O O1 0.307663 0.094764 0.200989
O O2 0.302695 0.128150 0.063796
O O3 0.522527 0.020238 0.088662
O O4 0.232549 0.993887 0.112296
O O5 0.084555 0.767470 0.658429
O O6 0.168800 0.689206 0.750669
O O7 0.478224 0.607201 0.166568
O O8 0.215731 0.567383 0.148846
O O9 0.250126 0.702930 0.187826
O O10 0.565472 0.649326 0.021371
O O11 0.500000 0.020113 0.750000
O O12 0.264637 0.068459 0.897467
O O13 0.757197 0.147630 0.861047
O O14 0.000000 0.212510 0.750000
O O15 0.479360 0.598514 0.902025
O O16 0.500000 0.500000 0.000000
O O17 0.000000 0.065932 0.750000
#
# Coordination Sequence:
#
# PCOD9259628 Si02
#       8
#     8   4   8   8   8   8   8   8
#     4  11  18  33  61  91 128 162 217 265 328 383
#     4  10  22  42  68  98 128 182 230 276 322 418
#     4  10  18  35  61  94 117 170 223 265 318 398
#     4  11  19  35  66  91 127 171 219 260 332 383
#     4  10  21  34  60  95 127 167 220 280 327 393
#     4  10  21  39  64  96 126 173 232 274 329 398
#     4  12  23  40  62  95 137 169 216 276 335 402
#     4  11  23  40  62  92 130 173 218 273 338 403
#
# _framework density 23.672129999999999
#
# number of rings (size 3 to 8) (size 9 to 14) (size 15 to 20)
#    0.000    1.333    5.333    3.600    0.000    0.533 
#    8.400    2.667    0.000    3.200    0.000    0.000 
#    0.000    0.000    0.000    0.000    0.000    0.000 
#
# Total GULP energy -167033.532583 kJ/mol
# GULP energy per Si atom -5567.784419 kJ/mol
# Density = 2.361825 g / cm^3
# Si number density = 23.672130 Si / 1000 Ang^3
#
#
#
# Elastic Constant Matrix: (Units=GPa)
#
#
# Indices 1 2 3 4 5 6 
#
# 1 160.3345 2.9356 21.0186 0.0000 30.1728 0.0000
# 2 2.9356 41.9384 0.0603 0.0000 -5.8704 0.0000
# 3 21.0186 0.0603 59.0717 0.0000 15.9244 0.0000
# 4 0.0000 0.0000 0.0000 -24.9918 0.0000 3.4836
# 5 30.1728 -5.8704 15.9244 0.0000 46.3322 0.0000
# 6 0.0000 0.0000 0.0000 3.4836 0.0000 29.8687
#
#
#
# Elastic Compliance Matrix: (Units=1/GPa)
#
#
# Indices 1 2 3 4 5 6 
#
# 1 0.007268 -0.001122 -0.001400 0.000000 -0.004394 0.000000
# 2 -0.001122 0.024496 -0.000727 0.000000 0.004084 0.000000
# 3 -0.001400 -0.000727 0.018964 0.000000 -0.005698 0.000000
# 4 0.000000 0.000000 0.000000 -0.039373 0.000000 0.004592
# 5 -0.004394 0.004084 -0.005698 0.000000 0.026920 0.000000
# 6 0.000000 0.000000 0.000000 0.004592 0.000000 0.032944
#
#
# Mechanical properties :
#
#
# Convention : Reuss Voigt Hill
#
# Bulk Modulus (GPa) = 22.60941 34.37484 28.49213
# Shear Modulus (GPa) = 54.07737 26.06384 40.07060
#
# Velocity S-wave (km/s) = 4.78476 3.32178 4.11875
# Velocity P-wave (km/s) = 6.33222 5.40972 5.88906
#
# Compressibility (1/GPa) = 0.04422937
#
# Stress axis : x y z
#
# Youngs Moduli (GPa) = 137.59027 40.82342 52.73257
#
# Poissons Ratio (x) = 0.04579 0.07385
# Poissons Ratio (y) = 0.15435 0.03833
# Poissons Ratio (z) = 0.19268 0.02967
#
# Static dielectric constant tensor:
#      x y z
#    x 1.963360 0.000000 -0.046370 
#    y 0.000000 1.920050 0.000000 
#    z -0.046370 0.000000 2.013350 
# 
# From -- ./inp_files/233468.got.cif
#   From: 2010.05.17/outbox.cif.g08.bks.cpg/sg15_117_cif.got.tgz:233468.got - 2010.06.03 18:47:42.
