data_PCOD9259470
_publ_section_title
;
Structure prediction by ZEFSAII (Michael W. Deem and Ramdas Pophale) SiO2 
 PCOD9259470
Probable space group: C 2/C
;
_chemical_formula_sum "Si O2"
_cell_formula_units_Z 64
_cell_length_a 14.767048
_cell_length_b 15.143555
_cell_length_c 13.933575
_cell_angle_alpha 90.000000
_cell_angle_beta 103.508667
_cell_angle_gamma 90.000000
_cell_volume 3029.701375
_symmetry_space_group_name_H-M "C 2/C"
_symmetry_group_IT_number 15
_symmetry_cell_setting 'monoclinic'
loop_
_space_group_symop_operation_xyz
x,y,z
-x,y,1/2-z
-x,-y,-z
x,-y,1/2+z
1/2+x,1/2+y,z
1/2-x,1/2+y,1/2-z
1/2-x,1/2-y,-z
1/2+x,1/2-y,1/2+z
loop_
_atom_site_type_symbol
_atom_site_label
_atom_site_fract_x
_atom_site_fract_y
_atom_site_fract_z
Si Si1 0.899146 0.292412 0.892046
Si Si2 0.160300 0.079199 0.019393
Si Si3 0.093845 0.758118 0.403264
Si Si4 0.346012 0.871238 0.257084
Si Si5 0.887862 0.409723 0.063244
Si Si6 0.646768 0.088071 0.531553
Si Si7 0.247926 0.300885 0.795185
Si Si8 0.188024 0.894189 0.082253
O O1 0.929565 0.351876 0.989264
O O2 0.815899 0.334403 0.808707
O O3 0.863105 0.198227 0.922199
O O4 0.990640 0.273034 0.852808
O O5 0.206028 0.126401 0.124618
O O6 0.130723 0.980766 0.040315
O O7 0.089852 0.147162 0.953558
O O8 0.244265 0.072105 0.963174
O O9 0.129360 0.686277 0.489354
O O10 0.171836 0.752665 0.340448
O O11 0.376819 0.917227 0.362355
O O12 0.323568 0.768883 0.274791
O O13 0.245624 0.908981 0.195846
O O14 0.408464 0.884427 0.177938
O O15 0.901805 0.512478 0.043921
O O16 0.776203 0.387831 0.031691
#
# Coordination Sequence:
#
# PCOD9259470 Si02
#       8
#     8   8   8   8   8   8   8   8
#     4  11  22  36  53  83 123 151 175 236 294 343
#     4  10  18  36  58  87 103 145 199 239 270 336
#     4  11  21  34  57  86 116 147 186 232 293 339
#     4   9  17  34  57  83 106 139 191 241 266 322
#     4   9  21  34  58  81 113 149 193 231 283 333
#     4  10  18  35  58  84 109 145 194 244 271 329
#     4  10  19  34  59  81 108 145 193 233 276 331
#     4   8  20  34  54  82 109 142 197 224 278 329
#
# _framework density 21.124193999999999
#
# number of rings (size 3 to 8) (size 9 to 14) (size 15 to 20)
#    0.750    1.500    2.500    1.500    1.750    1.000 
#    0.000    0.625    0.000    0.000    0.000    0.000 
#    0.000    0.000    0.000    0.000    0.000    0.000 
#
# Total GULP energy -178324.593542 kJ/mol
# GULP energy per Si atom -5572.643548 kJ/mol
# Density = 2.107611 g / cm^3
# Si number density = 21.124194 Si / 1000 Ang^3
#
#
#
# Elastic Constant Matrix: (Units=GPa)
#
#
# Indices 1 2 3 4 5 6 
#
# 1 30.7665 -2.1419 7.3174 0.0000 -7.2643 0.0000
# 2 -2.1419 55.5750 18.9976 0.0000 -11.7075 0.0000
# 3 7.3174 18.9976 110.1289 0.0000 -20.1389 0.0000
# 4 0.0000 0.0000 0.0000 11.2385 0.0000 -7.9436
# 5 -7.2643 -11.7075 -20.1389 0.0000 23.8316 0.0000
# 6 0.0000 0.0000 0.0000 -7.9436 0.0000 10.3793
#
#
#
# Elastic Compliance Matrix: (Units=1/GPa)
#
#
# Indices 1 2 3 4 5 6 
#
# 1 0.035915 0.004276 -0.000873 0.000000 0.012310 0.000000
# 2 0.004276 0.020945 -0.002102 0.000000 0.009816 0.000000
# 3 -0.000873 -0.002102 0.010957 0.000000 0.007960 0.000000
# 4 0.000000 0.000000 0.000000 0.193834 0.000000 0.148347
# 5 0.012310 0.009816 0.007960 0.000000 0.057263 0.000000
# 6 0.000000 0.000000 0.000000 0.148347 0.000000 0.209880
#
#
# Mechanical properties :
#
#
# Convention : Reuss Voigt Hill
#
# Bulk Modulus (GPa) = 14.20085 27.20184 20.70135
# Shear Modulus (GPa) = 9.09646 20.57636 14.83641
#
# Velocity S-wave (km/s) = 2.07739 3.12439 2.65305
# Velocity P-wave (km/s) = 3.53429 5.09125 4.38246
#
# Compressibility (1/GPa) = 0.07041832
#
# Stress axis : x y z
#
# Youngs Moduli (GPa) = 27.84370 47.74406 91.26989
#
# Poissons Ratio (x) = -0.20415 0.07965
# Poissons Ratio (y) = -0.11906 0.19186
# Poissons Ratio (z) = 0.02430 0.10036
#
# Static dielectric constant tensor:
#      x y z
#    x 1.783940 0.000000 0.013050 
#    y 0.000000 1.749200 0.000000 
#    z 0.013050 0.000000 1.784390 
# 
# From -- ./inp_files/161958.got.cif
#   From: 2010.05.17/outbox.cif.g08.bks.cpg/sg15_81_cif.got.tgz:161958.got - 2010.06.03 18:47:42.
