data_PCOD9259843
_publ_section_title
;
Structure prediction by ZEFSAII (Michael W. Deem and Ramdas Pophale) SiO2 
 PCOD9259843
Probable space group: C 2/C
;
_chemical_formula_sum "Si O2"
_cell_formula_units_Z 52
_cell_length_a 20.928228
_cell_length_b 15.009801
_cell_length_c 18.144220
_cell_angle_alpha 90.000000
_cell_angle_beta 153.056810
_cell_angle_gamma 90.000000
_cell_volume 2582.535493
_symmetry_space_group_name_H-M "C 2/C"
_symmetry_group_IT_number 15
_symmetry_cell_setting 'monoclinic'
loop_
_space_group_symop_operation_xyz
x,y,z
-x,y,1/2-z
-x,-y,-z
x,-y,1/2+z
1/2+x,1/2+y,z
1/2-x,1/2+y,1/2-z
1/2-x,1/2-y,-z
1/2+x,1/2-y,1/2+z
loop_
_atom_site_type_symbol
_atom_site_label
_atom_site_fract_x
_atom_site_fract_y
_atom_site_fract_z
Si Si1 0.745825 0.422920 0.703941
Si Si2 0.664481 0.487319 0.376842
Si Si3 0.172702 0.545183 0.593491
Si Si4 0.949947 0.299179 0.847151
Si Si5 0.446259 0.359629 0.448551
Si Si6 0.000000 0.817542 0.250000
Si Si7 0.120673 0.935851 0.975646
O O1 0.844567 0.459848 0.871109
O O2 0.794762 0.337963 0.706957
O O3 0.591379 0.411621 0.581404
O O4 0.731332 0.502552 0.631375
O O5 0.792191 0.483652 0.453152
O O6 0.629905 0.389856 0.377450
O O7 0.526282 0.510757 0.186384
O O8 0.673630 0.565681 0.446555
O O9 0.311343 0.597171 0.768201
O O10 0.048283 0.615323 0.457959
O O11 0.975611 0.233577 0.941153
O O12 0.979654 0.245191 0.801534
O O13 0.412430 0.358179 0.500787
#
# Coordination Sequence:
#
# PCOD9259843 Si02
#       7
#     8   8   8   8   8   4   8
#     4  11  21  38  55  82 110 157 187 219 270 342
#     4  10  18  36  57  89 108 144 189 234 266 336
#     4  11  21  38  58  81 116 149 189 220 274 337
#     4  12  25  34  54  88 123 144 171 235 292 330
#     4  11  19  38  57  81 106 152 193 228 260 328
#     4  10  22  36  50  86 126 144 166 224 300 340
#     4   9  18  33  60  78 105 144 193 226 257 321
#
# _framework density 20.135249999999999
#
# number of rings (size 3 to 8) (size 9 to 14) (size 15 to 20)
#    0.000    1.538    4.615    3.231    2.154    0.615 
#    0.000    0.000    0.000    0.923    4.000    0.000 
#    0.000    0.000    0.000    0.000    0.000    0.000 
#
# Total GULP energy -144748.440726 kJ/mol
# GULP energy per Si atom -5567.247720 kJ/mol
# Density = 2.008942 g / cm^3
# Si number density = 20.135250 Si / 1000 Ang^3
#
#
#
# Elastic Constant Matrix: (Units=GPa)
#
#
# Indices 1 2 3 4 5 6 
#
# 1 155.6325 46.2563 28.8494 -0.0001 -28.4894 -0.0001
# 2 46.2563 38.9738 0.5198 -0.0001 -13.6262 -0.0001
# 3 28.8494 0.5198 24.7949 -0.0002 -5.7473 -0.0002
# 4 -0.0001 -0.0001 -0.0002 6.0792 -0.0001 -20.0844
# 5 -28.4894 -13.6262 -5.7473 -0.0001 25.4003 -0.0001
# 6 -0.0001 -0.0001 -0.0002 -20.0844 -0.0001 25.8201
#
#
#
# Elastic Compliance Matrix: (Units=1/GPa)
#
#
# Indices 1 2 3 4 5 6 
#
# 1 0.014985 -0.015956 -0.016030 0.000001 0.004621 0.000000
# 2 -0.015956 0.048852 0.020544 -0.000002 0.012960 -0.000001
# 3 -0.016030 0.020544 0.060090 -0.000003 0.006639 -0.000002
# 4 0.000001 -0.000002 -0.000003 -0.104782 -0.000002 -0.081506
# 5 0.004621 0.012960 0.006639 -0.000002 0.053007 -0.000001
# 6 0.000000 -0.000001 -0.000002 -0.081506 -0.000001 -0.024671
#
#
# Mechanical properties :
#
#
# Convention : Reuss Voigt Hill
#
# Bulk Modulus (GPa) = 9.89655 41.18359 25.54007
# Shear Modulus (GPa) = 48.05652 21.04497 34.55074
#
# Velocity S-wave (km/s) = 4.89067 3.23643 4.14688
# Velocity P-wave (km/s) = 6.06772 5.87059 5.96997
#
# Compressibility (1/GPa) = 0.10104530
#
# Stress axis : x y z
#
# Youngs Moduli (GPa) = 66.73403 20.46988 16.64180
#
# Poissons Ratio (x) = 0.32661 0.26676
# Poissons Ratio (y) = 1.06478 -0.34190
# Poissons Ratio (z) = 1.06972 -0.42054
#
# Static dielectric constant tensor:
#      x y z
#    x 1.785590 0.000000 0.023210 
#    y 0.000000 1.735140 0.000000 
#    z 0.023210 0.000000 1.784100 
# 
# From -- ./inp_files/215614.got.cif
#   From: 2010.05.17/outbox.cif.g08.bks.cpg/sg15_108_cif.got.tgz:215614.got - 2010.06.03 18:47:42.
