data_PCOD9259875
_publ_section_title
;
Structure prediction by ZEFSAII (Michael W. Deem and Ramdas Pophale) SiO2 
 PCOD9259875
Probable space group: C 2/C
;
_chemical_formula_sum "Si O2"
_cell_formula_units_Z 44
_cell_length_a 13.011605
_cell_length_b 18.149318
_cell_length_c 12.748054
_cell_angle_alpha 90.000000
_cell_angle_beta 52.062507
_cell_angle_gamma 90.000000
_cell_volume 2374.307545
_symmetry_space_group_name_H-M "C 2/C"
_symmetry_group_IT_number 15
_symmetry_cell_setting 'monoclinic'
loop_
_space_group_symop_operation_xyz
x,y,z
-x,y,1/2-z
-x,-y,-z
x,-y,1/2+z
1/2+x,1/2+y,z
1/2-x,1/2+y,1/2-z
1/2-x,1/2-y,-z
1/2+x,1/2-y,1/2+z
loop_
_atom_site_type_symbol
_atom_site_label
_atom_site_fract_x
_atom_site_fract_y
_atom_site_fract_z
Si Si1 0.316005 0.942258 0.597154
Si Si2 0.910426 0.390864 0.020197
Si Si3 0.625753 0.596629 0.404617
Si Si4 0.500000 0.176051 0.250000
Si Si5 0.243569 0.249168 0.378373
Si Si6 0.406207 0.525468 0.407498
O O1 0.447928 0.895112 0.514041
O O2 0.239126 0.927312 0.753014
O O3 0.216703 0.931845 0.563453
O O4 0.351211 0.028563 0.571417
O O5 0.814610 0.326881 0.120853
O O6 0.935680 0.373474 0.881025
O O7 0.648043 0.682645 0.408221
O O8 0.490399 0.575033 0.434047
O O9 0.633488 0.548326 0.505455
O O10 0.391696 0.226041 0.259219
O O11 0.250000 0.250000 0.500000
O O12 0.500000 0.506846 0.250000
#
# Coordination Sequence:
#
# PCOD9259875 Si02
#       6
#     8   8   8   4   8   8
#     4  10  20  37  59  84 118 153 196 234 286 343
#     4  10  21  36  56  87 116 153 193 237 288 347
#     4  10  19  38  57  86 120 149 194 244 284 334
#     4  10  18  36  58  82 122 148 186 250 294 330
#     4  10  20  35  55  85 111 149 185 238 295 335
#     4   9  19  35  57  85 116 157 191 235 284 347
#
# _framework density 18.531718000000001
#
# number of rings (size 3 to 8) (size 9 to 14) (size 15 to 20)
#    0.000    2.182    1.818    2.182    0.000    0.000 
#   31.091    0.909    0.000    4.364    0.000    0.000 
#    0.000    0.000    0.000    0.000    0.000    0.000 
#
# Total GULP energy -122660.281802 kJ/mol
# GULP energy per Si atom -5575.467355 kJ/mol
# Density = 1.848954 g / cm^3
# Si number density = 18.531718 Si / 1000 Ang^3
#
#
#
# Elastic Constant Matrix: (Units=GPa)
#
#
# Indices 1 2 3 4 5 6 
#
# 1 107.5724 36.5808 13.5999 0.0000 -7.3674 0.0000
# 2 36.5808 101.9443 18.7833 0.0000 -7.1879 0.0000
# 3 13.5999 18.7833 28.0882 0.0000 9.3896 0.0000
# 4 0.0000 0.0000 0.0000 21.8981 0.0000 -5.6694
# 5 -7.3674 -7.1879 9.3896 0.0000 22.5202 0.0000
# 6 0.0000 0.0000 0.0000 -5.6694 0.0000 33.3790
#
#
#
# Elastic Compliance Matrix: (Units=1/GPa)
#
#
# Indices 1 2 3 4 5 6 
#
# 1 0.011229 -0.002695 -0.005316 0.000000 0.005030 0.000000
# 2 -0.002695 0.013143 -0.009983 0.000000 0.007475 0.000000
# 3 -0.005316 -0.009983 0.054029 0.000000 -0.027452 0.000000
# 4 0.000000 0.000000 0.000000 0.047767 0.000000 0.008113
# 5 0.005030 0.007475 -0.027452 0.000000 0.059882 0.000000
# 6 0.000000 0.000000 0.000000 0.008113 0.000000 0.031337
#
#
# Mechanical properties :
#
#
# Convention : Reuss Voigt Hill
#
# Bulk Modulus (GPa) = 23.57786 41.72586 32.65186
# Shear Modulus (GPa) = 18.69069 26.80217 22.74643
#
# Velocity S-wave (km/s) = 3.17926 3.80713 3.50727
# Velocity P-wave (km/s) = 5.12128 6.47229 5.83601
#
# Compressibility (1/GPa) = 0.04241266
#
# Stress axis : x y z
#
# Youngs Moduli (GPa) = 89.05381 76.08696 18.50856
#
# Poissons Ratio (x) = 0.20507 0.09839
# Poissons Ratio (y) = 0.24002 0.18477
# Poissons Ratio (z) = 0.47341 0.75957
#
# Static dielectric constant tensor:
#      x y z
#    x 1.707990 0.000000 -0.045320 
#    y 0.000000 1.623010 0.000000 
#    z -0.045320 0.000000 1.661270 
# 
# From -- ./inp_files/87727.got.cif
#   From: 2010.05.17/outbox.cif.g08.bks.cpg/sg15_44_cif.got.tgz:87727.got - 2010.06.03 18:47:42.
