data_PCOD9259184
_publ_section_title
;
Structure prediction by ZEFSAII (Michael W. Deem and Ramdas Pophale) SiO2 
 PCOD9259184
Probable space group: C 2/C
;
_chemical_formula_sum "Si O2"
_cell_formula_units_Z 64
_cell_length_a 8.028991
_cell_length_b 17.741062
_cell_length_c 21.447680
_cell_angle_alpha 90.000000
_cell_angle_beta 100.714466
_cell_angle_gamma 90.000000
_cell_volume 3001.805775
_symmetry_space_group_name_H-M "C 2/C"
_symmetry_group_IT_number 15
_symmetry_cell_setting 'monoclinic'
loop_
_space_group_symop_operation_xyz
x,y,z
-x,y,1/2-z
-x,-y,-z
x,-y,1/2+z
1/2+x,1/2+y,z
1/2-x,1/2+y,1/2-z
1/2-x,1/2-y,-z
1/2+x,1/2-y,1/2+z
loop_
_atom_site_type_symbol
_atom_site_label
_atom_site_fract_x
_atom_site_fract_y
_atom_site_fract_z
Si Si1 0.607855 0.160939 0.434296
Si Si2 0.772017 0.411386 0.943618
Si Si3 0.338023 0.617082 0.928803
Si Si4 0.687213 0.676441 0.929738
Si Si5 0.880004 0.056374 0.387215
Si Si6 0.612077 0.132564 0.810664
Si Si7 0.312650 0.497690 0.254551
Si Si8 0.342535 0.045261 0.873665
O O1 0.409883 0.140736 0.418731
O O2 0.659018 0.239105 0.405007
O O3 0.659157 0.172221 0.510602
O O4 0.732089 0.097727 0.414902
O O5 0.571988 0.413750 0.910766
O O6 0.845013 0.495732 0.936046
O O7 0.768536 0.389307 0.015836
O O8 0.518711 0.653699 0.955233
O O9 0.375831 0.531735 0.907615
O O10 0.251251 0.665673 0.867273
O O11 0.716592 0.614475 0.878732
O O12 0.831439 0.058064 0.310595
O O13 0.500000 0.174850 0.750000
O O14 0.707319 0.071085 0.775322
O O15 0.502492 0.085076 0.853622
O O16 0.500000 0.472549 0.250000
O O17 0.223175 0.513952 0.182906
#
# Coordination Sequence:
#
# PCOD9259184 Si02
#       8
#     8   8   8   8   8   8   8   8
#     4  11  26  41  60  94 140 176 206 264 336 391
#     4  12  21  36  65  95 123 165 218 268 323 383
#     4  11  20  37  63  93 126 165 218 273 319 378
#     4  11  23  43  60  91 137 175 211 265 326 393
#     4  11  21  40  62  95 128 166 217 272 326 384
#     4   9  20  33  55  92 122 151 208 261 314 376
#     4  10  18  34  61  89 121 158 202 269 325 367
#     4  11  20  37  63  93 121 166 221 271 319 378
#
# _framework density 21.320501
#
# number of rings (size 3 to 8) (size 9 to 14) (size 15 to 20)
#    0.000    1.250    3.750    4.125    0.000    2.000 
#    2.250    0.000    0.000   12.750    0.000    0.000 
#    0.000    0.000    0.000    0.000    0.000    0.000 
#
# Total GULP energy -178366.008747 kJ/mol
# GULP energy per Si atom -5573.937773 kJ/mol
# Density = 2.127197 g / cm^3
# Si number density = 21.320501 Si / 1000 Ang^3
#
#
#
# Elastic Constant Matrix: (Units=GPa)
#
#
# Indices 1 2 3 4 5 6 
#
# 1 96.5788 4.0221 14.4791 0.0000 -11.8625 0.0000
# 2 4.0221 49.4049 -1.7252 0.0000 2.4336 0.0000
# 3 14.4791 -1.7252 79.9290 0.0000 12.8462 0.0000
# 4 0.0000 0.0000 0.0000 6.4465 0.0000 2.4479
# 5 -11.8625 2.4336 12.8462 0.0000 34.7316 0.0000
# 6 0.0000 0.0000 0.0000 2.4479 0.0000 14.1142
#
#
#
# Elastic Compliance Matrix: (Units=1/GPa)
#
#
# Indices 1 2 3 4 5 6 
#
# 1 0.011471 -0.001287 -0.002924 0.000000 0.005090 0.000000
# 2 -0.001287 0.020493 0.001039 0.000000 -0.002260 0.000000
# 3 -0.002924 0.001039 0.014072 0.000000 -0.006276 0.000000
# 4 0.000000 0.000000 0.000000 0.166058 0.000000 -0.028800
# 5 0.005090 -0.002260 -0.006276 0.000000 0.033010 0.000000
# 6 0.000000 0.000000 0.000000 -0.028800 0.000000 0.075846
#
#
# Mechanical properties :
#
#
# Convention : Reuss Voigt Hill
#
# Bulk Modulus (GPa) = 25.19364 28.82941 27.01153
# Shear Modulus (GPa) = 14.68321 25.00091 19.84206
#
# Velocity S-wave (km/s) = 2.62714 3.42807 3.05398
# Velocity P-wave (km/s) = 4.58745 5.40557 5.01323
#
# Compressibility (1/GPa) = 0.03969256
#
# Stress axis : x y z
#
# Youngs Moduli (GPa) = 87.17417 48.79664 71.06379
#
# Poissons Ratio (x) = 0.06279 0.20777
# Poissons Ratio (y) = 0.11217 -0.07381
# Poissons Ratio (z) = 0.25488 -0.05068
#
# Static dielectric constant tensor:
#      x y z
#    x 1.818150 0.000000 0.056770 
#    y 0.000000 1.766660 0.000000 
#    z 0.056770 0.000000 1.853030 
# 
# From -- ./inp_files/233549.got.cif
#   From: 2010.05.17/outbox.cif.g08.bks.cpg/sg15_117_cif.got.tgz:233549.got - 2010.06.03 18:47:42.
