data_PCOD9259935
_publ_section_title
;
Structure prediction by ZEFSAII (Michael W. Deem and Ramdas Pophale) SiO2 
 PCOD9259935
Probable space group: C 2/C
;
_chemical_formula_sum "Si O2"
_cell_formula_units_Z 56
_cell_length_a 13.694821
_cell_length_b 12.409917
_cell_length_c 27.360838
_cell_angle_alpha 90.000000
_cell_angle_beta 140.709161
_cell_angle_gamma 90.000000
_cell_volume 2944.657063
_symmetry_space_group_name_H-M "C 2/C"
_symmetry_group_IT_number 15
_symmetry_cell_setting 'monoclinic'
loop_
_space_group_symop_operation_xyz
x,y,z
-x,y,1/2-z
-x,-y,-z
x,-y,1/2+z
1/2+x,1/2+y,z
1/2-x,1/2+y,1/2-z
1/2-x,1/2-y,-z
1/2+x,1/2-y,1/2+z
loop_
_atom_site_type_symbol
_atom_site_label
_atom_site_fract_x
_atom_site_fract_y
_atom_site_fract_z
Si Si1 0.777122 0.516900 0.408771
Si Si2 0.449635 0.485921 0.816645
Si Si3 0.946507 0.232001 0.807220
Si Si4 0.752755 0.730415 0.868729
Si Si5 0.532474 0.665533 0.437565
Si Si6 0.382879 0.927992 0.850577
Si Si7 0.360442 0.097223 0.549833
O O1 0.593663 0.539512 0.336972
O O2 0.796198 0.390693 0.402533
O O3 0.875838 0.579277 0.406571
O O4 0.820879 0.552351 0.480247
O O5 0.466267 0.611833 0.835200
O O6 0.463122 0.411292 0.869142
O O7 0.285464 0.470895 0.728527
O O8 0.820557 0.227850 0.714515
O O9 0.904067 0.315450 0.832270
O O10 0.110139 0.265303 0.847072
O O11 0.900980 0.807543 0.925982
O O12 0.569979 0.783268 0.429128
O O13 0.698207 0.613362 0.515273
O O14 0.512365 0.012714 0.882830
#
# Coordination Sequence:
#
# PCOD9259935 Si02
#       7
#     8   8   8   8   8   8   8
#     4  10  20  36  62  87 113 145 201 238 278 336
#     4  10  20  36  59  87 111 152 194 237 285 337
#     4  10  21  34  58  88 112 144 202 241 283 333
#     4  10  18  36  59  84 109 156 193 240 279 337
#     4  10  19  37  61  81 119 151 189 233 291 341
#     4  12  20  34  59  86 116 146 193 249 277 336
#     4  10  22  35  60  93 113 150 190 240 291 336
#
# _framework density 19.017495
#
# number of rings (size 3 to 8) (size 9 to 14) (size 15 to 20)
#    0.000    1.714    4.286    0.857    0.000    0.000 
#    0.000    7.143    9.429    0.000    0.000    0.000 
#    0.000    0.000    0.000    0.000    0.000    0.000 
#
# Total GULP energy -156180.525919 kJ/mol
# GULP energy per Si atom -5577.875926 kJ/mol
# Density = 1.897421 g / cm^3
# Si number density = 19.017495 Si / 1000 Ang^3
#
#
#
# Elastic Constant Matrix: (Units=GPa)
#
#
# Indices 1 2 3 4 5 6 
#
# 1 100.4817 53.2389 28.7913 0.0000 19.7407 0.0000
# 2 53.2389 79.7365 22.7917 0.0000 5.0126 0.0000
# 3 28.7913 22.7917 66.8356 0.0000 27.7391 0.0000
# 4 0.0000 0.0000 0.0000 24.4974 0.0000 2.2454
# 5 19.7407 5.0126 27.7391 0.0000 22.6271 0.0000
# 6 0.0000 0.0000 0.0000 2.2454 0.0000 36.5311
#
#
#
# Elastic Compliance Matrix: (Units=1/GPa)
#
#
# Indices 1 2 3 4 5 6 
#
# 1 0.019320 -0.012811 0.003794 0.000000 -0.018669 0.000000
# 2 -0.012811 0.022743 -0.009741 0.000000 0.018080 0.000000
# 3 0.003794 -0.009741 0.034869 0.000000 -0.043899 0.000000
# 4 0.000000 0.000000 0.000000 0.041052 0.000000 -0.002523
# 5 -0.018669 0.018080 -0.043899 0.000000 0.110295 0.000000
# 6 0.000000 0.000000 0.000000 -0.002523 0.000000 0.027529
#
#
# Mechanical properties :
#
#
# Convention : Reuss Voigt Hill
#
# Bulk Modulus (GPa) = 25.36936 50.74419 38.05677
# Shear Modulus (GPa) = 16.31532 26.21323 21.26428
#
# Velocity S-wave (km/s) = 2.93219 3.71667 3.34749
# Velocity P-wave (km/s) = 4.98323 6.72005 5.91573
#
# Compressibility (1/GPa) = 0.03941763
#
# Stress axis : x y z
#
# Youngs Moduli (GPa) = 51.75913 43.97052 28.67885
#
# Poissons Ratio (x) = 0.56330 -0.10881
# Poissons Ratio (y) = 0.66307 0.27935
# Poissons Ratio (z) = -0.19639 0.42830
#
# Static dielectric constant tensor:
#      x y z
#    x 1.677490 0.000000 0.039130 
#    y 0.000000 1.632650 0.000000 
#    z 0.039130 0.000000 1.712150 
# 
# From -- ./inp_files/313456.got.cif
#   From: 2010.05.17/outbox.cif.g08.bks.cpg/sg15_157_cif.got.tgz:313456.got - 2010.06.03 18:47:42.
