data_PCOD9259552
_publ_section_title
;
Structure prediction by ZEFSAII (Michael W. Deem and Ramdas Pophale) SiO2 
 PCOD9259552
Probable space group: C 2/C
;
_chemical_formula_sum "Si O2"
_cell_formula_units_Z 40
_cell_length_a 27.434069
_cell_length_b 7.290737
_cell_length_c 13.637873
_cell_angle_alpha 90.000000
_cell_angle_beta 37.335429
_cell_angle_gamma 90.000000
_cell_volume 1654.340509
_symmetry_space_group_name_H-M "C 2/C"
_symmetry_group_IT_number 15
_symmetry_cell_setting 'monoclinic'
loop_
_space_group_symop_operation_xyz
x,y,z
-x,y,1/2-z
-x,-y,-z
x,-y,1/2+z
1/2+x,1/2+y,z
1/2-x,1/2+y,1/2-z
1/2-x,1/2-y,-z
1/2+x,1/2-y,1/2+z
loop_
_atom_site_type_symbol
_atom_site_label
_atom_site_fract_x
_atom_site_fract_y
_atom_site_fract_z
Si Si1 0.541726 0.187842 0.400550
Si Si2 0.187087 0.667899 0.026598
Si Si3 0.893260 0.296558 0.026716
Si Si4 0.577333 0.772589 0.059875
Si Si5 0.742579 0.219684 0.396090
O O1 0.613059 0.124279 0.216164
O O2 0.473397 0.288278 0.445353
O O3 0.569151 0.281840 0.458152
O O4 0.500000 0.000000 0.500000
O O5 0.250000 0.750000 0.000000
O O6 0.147783 0.789166 0.003788
O O7 0.233135 0.499937 0.901615
O O8 0.822156 0.298237 0.219377
O O9 0.916661 0.503069 0.954735
O O10 0.500000 0.725424 0.250000
O O11 0.660149 0.710598 0.978434
O O12 0.750000 0.250000 0.500000
#
# Coordination Sequence:
#
# PCOD9259552 Si02
#       5
#     8   8   8   8   8
#     4  10  18  35  60  84 111 151 197 238 279 340
#     4  11  23  39  58  86 120 154 188 237 294 344
#     4  10  19  33  56  83 110 145 190 237 281 330
#     4  10  19  34  57  88 117 149 192 241 285 336
#     4  11  21  35  58  87 115 149 192 237 283 342
#
# _framework density 24.178818
#
# number of rings (size 3 to 8) (size 9 to 14) (size 15 to 20)
#    0.000    1.600    0.000   10.200    0.000    1.600 
#    0.000    1.000    0.000    7.200    0.000    0.000 
#    0.000    0.000    0.000    0.000    0.000    0.000 
#
# Total GULP energy -111730.144240 kJ/mol
# GULP energy per Si atom -5586.507212 kJ/mol
# Density = 2.412379 g / cm^3
# Si number density = 24.178818 Si / 1000 Ang^3
#
#
#
# Elastic Constant Matrix: (Units=GPa)
#
#
# Indices 1 2 3 4 5 6 
#
# 1 221.8403 0.7132 21.2536 -0.0007 -9.8441 0.0000
# 2 0.7132 56.9981 -2.9125 -0.0018 -4.9413 -0.0003
# 3 21.2536 -2.9125 156.7071 -0.0015 -1.2394 -0.0002
# 4 -0.0007 -0.0018 -0.0015 12.8996 0.0000 -0.6595
# 5 -9.8441 -4.9413 -1.2394 0.0000 51.0318 0.0001
# 6 0.0000 -0.0003 -0.0002 -0.6595 0.0001 12.8693
#
#
#
# Elastic Compliance Matrix: (Units=1/GPa)
#
#
# Indices 1 2 3 4 5 6 
#
# 1 0.004606 -0.000014 -0.000618 0.000000 0.000872 0.000000
# 2 -0.000014 0.017711 0.000345 0.000003 0.001721 0.000000
# 3 -0.000618 0.000345 0.006472 0.000001 0.000071 0.000000
# 4 0.000000 0.000003 0.000001 0.077725 0.000000 0.003983
# 5 0.000872 0.001721 0.000071 0.000000 0.019932 0.000000
# 6 0.000000 0.000000 0.000000 0.003983 0.000000 0.077908
#
#
# Mechanical properties :
#
#
# Convention : Reuss Voigt Hill
#
# Bulk Modulus (GPa) = 35.44183 52.62824 44.03504
# Shear Modulus (GPa) = 23.32807 43.12624 33.22716
#
# Velocity S-wave (km/s) = 3.10952 4.22789 3.71108
# Velocity P-wave (km/s) = 5.25187 6.75625 6.05100
#
# Compressibility (1/GPa) = 0.02821525
#
# Stress axis : x y z
#
# Youngs Moduli (GPa) = 217.12232 56.46083 154.50894
#
# Poissons Ratio (x) = 0.00077 0.09549
# Poissons Ratio (y) = 0.00295 -0.05325
# Poissons Ratio (z) = 0.13418 -0.01946
#
# Static dielectric constant tensor:
#      x y z
#    x 2.088870 0.000000 -0.037360 
#    y 0.000000 2.063400 0.000000 
#    z -0.037360 0.000000 1.807400 
# 
# From -- ./inp_files/181000.got.cif
#   From: 2010.05.17/outbox.cif.g08.bks.cpg/sg15_91_cif.got.tgz:181000.got - 2010.06.03 18:47:42.
