data_PCOD9259520
_publ_section_title
;
Structure prediction by ZEFSAII (Michael W. Deem and Ramdas Pophale) SiO2 
 PCOD9259520
Probable space group: C 2/C
;
_chemical_formula_sum "Si O2"
_cell_formula_units_Z 64
_cell_length_a 12.353027
_cell_length_b 15.807581
_cell_length_c 17.823617
_cell_angle_alpha 90.000000
_cell_angle_beta 92.094432
_cell_angle_gamma 90.000000
_cell_volume 3478.118869
_symmetry_space_group_name_H-M "C 2/C"
_symmetry_group_IT_number 15
_symmetry_cell_setting 'monoclinic'
loop_
_space_group_symop_operation_xyz
x,y,z
-x,y,1/2-z
-x,-y,-z
x,-y,1/2+z
1/2+x,1/2+y,z
1/2-x,1/2+y,1/2-z
1/2-x,1/2-y,-z
1/2+x,1/2-y,1/2+z
loop_
_atom_site_type_symbol
_atom_site_label
_atom_site_fract_x
_atom_site_fract_y
_atom_site_fract_z
Si Si1 0.579037 0.096775 0.154544
Si Si2 0.269157 0.057603 0.475872
Si Si3 0.654906 0.031135 0.306603
Si Si4 0.037036 0.202509 0.666660
Si Si5 0.576411 0.265570 0.481108
Si Si6 0.848811 0.782557 0.555891
Si Si7 0.760134 0.381504 0.547307
Si Si8 0.774844 0.638301 0.639449
O O1 0.631501 0.073704 0.077088
O O2 0.658031 0.070860 0.224431
O O3 0.466508 0.048371 0.165861
O O4 0.559658 0.196806 0.161267
O O5 0.172185 0.116894 0.441644
O O6 0.292948 0.092892 0.559625
O O7 0.249572 0.958951 0.488793
O O8 0.730120 0.078840 0.369259
O O9 0.679888 0.931549 0.303087
O O10 0.148096 0.154827 0.649738
O O11 0.000000 0.183031 0.750000
O O12 0.948180 0.189290 0.599411
O O13 0.461468 0.260287 0.519790
O O14 0.658841 0.320089 0.532714
O O15 0.633628 0.175650 0.466498
O O16 0.750000 0.750000 0.500000
O O17 0.832053 0.729357 0.631560
#
# Coordination Sequence:
#
# PCOD9259520 Si02
#       8
#     8   8   8   8   8   8   8   8
#     4  11  20  37  64  88 118 156 210 255 304 367
#     4  10  20  35  59  90 113 154 198 249 299 352
#     4  10  22  38  57  88 121 157 196 254 307 361
#     4  12  20  37  63  87 115 164 203 250 310 369
#     4  11  21  38  56  90 121 158 208 245 306 358
#     4  10  18  35  59  84 116 149 197 250 297 354
#     4  10  23  36  57  88 125 159 200 255 294 366
#     4  10  21  36  58  91 116 146 198 257 304 353
#
# _framework density 18.400751
#
# number of rings (size 3 to 8) (size 9 to 14) (size 15 to 20)
#    0.000    1.500    6.250    0.750    1.750    2.500 
#    0.000    0.000    0.000    0.000    0.000    0.000 
#    0.000    0.000    0.000    0.000    0.000    0.000 
#
# Total GULP energy -178400.425046 kJ/mol
# GULP energy per Si atom -5575.013283 kJ/mol
# Density = 1.835887 g / cm^3
# Si number density = 18.400751 Si / 1000 Ang^3
#
#
#
# Elastic Constant Matrix: (Units=GPa)
#
#
# Indices 1 2 3 4 5 6 
#
# 1 88.6350 30.8286 26.6418 0.0000 -7.1774 0.0000
# 2 30.8286 64.5467 12.1176 0.0000 8.6141 0.0000
# 3 26.6418 12.1176 73.3498 0.0000 -2.4673 0.0000
# 4 0.0000 0.0000 0.0000 13.8263 0.0000 5.3120
# 5 -7.1774 8.6141 -2.4673 0.0000 29.2536 0.0000
# 6 0.0000 0.0000 0.0000 5.3120 0.0000 26.6981
#
#
#
# Elastic Compliance Matrix: (Units=1/GPa)
#
#
# Indices 1 2 3 4 5 6 
#
# 1 0.015592 -0.007403 -0.004250 0.000000 0.005647 0.000000
# 2 -0.007403 0.020250 -0.000921 0.000000 -0.007857 0.000000
# 3 -0.004250 -0.000921 0.015347 0.000000 0.000523 0.000000
# 4 0.000000 0.000000 0.000000 0.078313 0.000000 -0.015582
# 5 0.005647 -0.007857 0.000523 0.000000 0.037927 0.000000
# 6 0.000000 0.000000 0.000000 -0.015582 0.000000 0.040556
#
#
# Mechanical properties :
#
#
# Convention : Reuss Voigt Hill
#
# Bulk Modulus (GPa) = 38.40133 40.63416 39.51775
# Shear Modulus (GPa) = 20.67728 24.41849 22.54788
#
# Velocity S-wave (km/s) = 3.35583 3.64680 3.50434
# Velocity P-wave (km/s) = 5.99418 6.31372 6.15602
#
# Compressibility (1/GPa) = 0.02604076
#
# Stress axis : x y z
#
# Youngs Moduli (GPa) = 64.13649 49.38362 65.16019
#
# Poissons Ratio (x) = 0.36556 0.27695
# Poissons Ratio (y) = 0.47477 0.06000
# Poissons Ratio (z) = 0.27260 0.04548
#
# Static dielectric constant tensor:
#      x y z
#    x 1.622480 0.000000 0.018790 
#    y 0.000000 1.692770 0.000000 
#    z 0.018790 0.000000 1.663720 
# 
# From -- ./inp_files/198320.got.cif
#   From: 2010.05.17/outbox.cif.g08.bks.cpg/sg15_100_cif.got.tgz:198320.got - 2010.06.03 18:47:42.
