data_PCOD9259187
_publ_section_title
;
Structure prediction by ZEFSAII (Michael W. Deem and Ramdas Pophale) SiO2 
 PCOD9259187
Probable space group: C 2/C
;
_chemical_formula_sum "Si O2"
_cell_formula_units_Z 44
_cell_length_a 27.521915
_cell_length_b 14.778262
_cell_length_c 15.144866
_cell_angle_alpha 90.000000
_cell_angle_beta 18.490149
_cell_angle_gamma 90.000000
_cell_volume 1953.532608
_symmetry_space_group_name_H-M "C 2/C"
_symmetry_group_IT_number 15
_symmetry_cell_setting 'monoclinic'
loop_
_space_group_symop_operation_xyz
x,y,z
-x,y,1/2-z
-x,-y,-z
x,-y,1/2+z
1/2+x,1/2+y,z
1/2-x,1/2+y,1/2-z
1/2-x,1/2-y,-z
1/2+x,1/2-y,1/2+z
loop_
_atom_site_type_symbol
_atom_site_label
_atom_site_fract_x
_atom_site_fract_y
_atom_site_fract_z
Si Si1 0.389248 0.180090 0.282674
Si Si2 0.000000 0.574962 0.250000
Si Si3 0.030979 0.116145 0.291654
Si Si4 0.794266 0.057328 0.004348
Si Si5 0.227530 0.961474 0.766257
Si Si6 0.061107 0.839721 0.935790
O O1 0.250000 0.250000 0.500000
O O2 0.395080 0.137595 0.369184
O O3 0.362044 0.096678 0.264066
O O4 0.540280 0.239982 0.010307
O O5 0.890547 0.508734 0.493352
O O6 0.041154 0.168519 0.365480
O O7 0.000000 0.161896 0.250000
O O8 0.892640 0.043541 0.537537
O O9 0.179299 0.049875 0.035548
O O10 0.814586 0.089206 0.070228
O O11 0.924356 0.098375 0.714530
O O12 0.208470 0.893726 0.716833
#
# Coordination Sequence:
#
# PCOD9259187 Si02
#       6
#     8   4   8   8   8   8
#     4  10  22  35  59  90 124 153 198 259 304 350
#     4  12  24  38  60  92 122 168 204 250 302 358
#     4   9  17  33  60  88 114 159 206 251 295 363
#     4   9  18  34  59  88 116 152 202 248 297 354
#     4  10  20  34  59  87 124 159 203 246 296 365
#     4  10  18  34  61  91 120 155 201 257 305 353
#
# _framework density 22.523299000000002
#
# number of rings (size 3 to 8) (size 9 to 14) (size 15 to 20)
#    0.000    2.182    0.000    7.091    5.091    0.727 
#    0.000    0.000    2.000    5.455    0.000    0.000 
#    0.000    0.000    0.000    0.000    0.000    0.000 
#
# Total GULP energy -122585.742093 kJ/mol
# GULP energy per Si atom -5572.079186 kJ/mol
# Density = 2.247203 g / cm^3
# Si number density = 22.523299 Si / 1000 Ang^3
#
#
#
# Elastic Constant Matrix: (Units=GPa)
#
#
# Indices 1 2 3 4 5 6 
#
# 1 144.1266 26.1962 14.3761 -0.0001 19.5312 -0.0001
# 2 26.1962 34.3075 13.5944 -0.0002 1.4235 -0.0002
# 3 14.3761 13.5944 35.0198 -0.0002 0.7614 -0.0002
# 4 -0.0001 -0.0002 -0.0002 18.7835 0.0000 -7.4945
# 5 19.5312 1.4235 0.7614 0.0000 29.1221 0.0001
# 6 -0.0001 -0.0002 -0.0002 -7.4945 0.0001 9.5630
#
#
#
# Elastic Compliance Matrix: (Units=1/GPa)
#
#
# Indices 1 2 3 4 5 6 
#
# 1 0.008936 -0.006125 -0.001167 0.000000 -0.005663 0.000000
# 2 -0.006125 0.038698 -0.012563 0.000001 0.002545 0.000001
# 3 -0.001167 -0.012563 0.033900 0.000001 0.000511 0.000001
# 4 0.000000 0.000001 0.000001 0.077459 0.000000 0.060705
# 5 -0.005663 0.002545 0.000511 0.000000 0.037998 -0.000001
# 6 0.000000 0.000001 0.000001 0.060705 -0.000001 0.152145
#
#
# Mechanical properties :
#
#
# Convention : Reuss Voigt Hill
#
# Bulk Modulus (GPa) = 23.91067 35.75416 29.83241
# Shear Modulus (GPa) = 12.41350 22.11286 17.26318
#
# Velocity S-wave (km/s) = 2.35018 3.13673 2.77150
# Velocity P-wave (km/s) = 4.24305 5.38772 4.84928
#
# Compressibility (1/GPa) = 0.04182234
#
# Stress axis : x y z
#
# Youngs Moduli (GPa) = 111.91307 25.84122 29.49837
#
# Poissons Ratio (x) = 0.15829 0.03443
# Poissons Ratio (y) = 0.68552 0.37059
# Poissons Ratio (z) = 0.13062 0.32464
#
# Static dielectric constant tensor:
#      x y z
#    x 1.875760 0.000000 -0.014720 
#    y 0.000000 1.842110 0.000000 
#    z -0.014720 0.000000 1.955950 
# 
# From -- ./inp_files/143884.got.cif
#   From: 2010.05.17/outbox.cif.g08.bks.cpg/sg15_72_cif.got.tgz:143884.got - 2010.06.03 18:47:42.
