data_PCOD9259871
_publ_section_title
;
Structure prediction by ZEFSAII (Michael W. Deem and Ramdas Pophale) SiO2 
 PCOD9259871
Probable space group: C 2/C
;
_chemical_formula_sum "Si O2"
_cell_formula_units_Z 48
_cell_length_a 28.406610
_cell_length_b 9.480084
_cell_length_c 18.665505
_cell_angle_alpha 90.000000
_cell_angle_beta 32.479840
_cell_angle_gamma 90.000000
_cell_volume 2699.279806
_symmetry_space_group_name_H-M "C 2/C"
_symmetry_group_IT_number 15
_symmetry_cell_setting 'monoclinic'
loop_
_space_group_symop_operation_xyz
x,y,z
-x,y,1/2-z
-x,-y,-z
x,-y,1/2+z
1/2+x,1/2+y,z
1/2-x,1/2+y,1/2-z
1/2-x,1/2-y,-z
1/2+x,1/2-y,1/2+z
loop_
_atom_site_type_symbol
_atom_site_label
_atom_site_fract_x
_atom_site_fract_y
_atom_site_fract_z
Si Si1 0.989803 0.651067 0.552942
Si Si2 0.574412 0.088180 0.703965
Si Si3 0.194084 0.176422 0.008873
Si Si4 0.271900 0.102549 0.436507
Si Si5 0.311008 0.181886 0.715438
Si Si6 0.817389 0.643768 0.213385
O O1 0.959536 0.627073 0.673266
O O2 0.908989 0.724834 0.615050
O O3 0.000000 0.500000 0.500000
O O4 0.088007 0.712425 0.425394
O O5 0.500000 0.022457 0.750000
O O6 0.607117 0.230315 0.621873
O O7 0.654269 0.980591 0.613401
O O8 0.248164 0.190261 0.865964
O O9 0.192591 0.010340 0.029185
O O10 0.250000 0.250000 0.000000
O O11 0.250000 0.250000 0.500000
O O12 0.308467 0.130451 0.310115
O O13 0.263840 0.273040 0.715744
O O14 0.315954 0.017397 0.686627
#
# Coordination Sequence:
#
# PCOD9259871 Si02
#       6
#     8   8   8   8   8   8
#     4  10  18  36  58  81 116 142 191 243 272 338
#     4  11  20  35  63  86 108 153 200 236 287 343
#     4   9  17  35  56  80 110 145 190 232 275 335
#     4  10  21  38  56  83 121 147 186 239 291 352
#     4  10  19  35  59  81 114 148 186 234 286 337
#     4  10  21  37  58  84 112 150 189 236 287 337
#
# _framework density 17.782522
#
# number of rings (size 3 to 8) (size 9 to 14) (size 15 to 20)
#    0.000    2.000    6.667    1.000    0.000    5.333 
#    0.000    1.667    3.667    0.000    0.000    0.000 
#    0.000    0.000    0.000    0.000    0.000    0.000 
#
# Total GULP energy -133674.089887 kJ/mol
# GULP energy per Si atom -5569.753745 kJ/mol
# Density = 1.774205 g / cm^3
# Si number density = 17.782522 Si / 1000 Ang^3
#
#
#
# Elastic Constant Matrix: (Units=GPa)
#
#
# Indices 1 2 3 4 5 6 
#
# 1 97.5870 31.9374 22.6633 0.0000 -30.1875 0.0000
# 2 31.9374 82.2275 35.6791 0.0002 -4.9917 -0.0003
# 3 22.6633 35.6791 70.2648 0.0000 -14.9855 0.0000
# 4 0.0000 0.0002 0.0000 22.7895 -0.0002 -0.7396
# 5 -30.1875 -4.9917 -14.9855 -0.0002 19.1420 0.0001
# 6 0.0000 -0.0003 0.0000 -0.7396 0.0001 29.4563
#
#
#
# Elastic Compliance Matrix: (Units=1/GPa)
#
#
# Indices 1 2 3 4 5 6 
#
# 1 0.024711 -0.009543 0.005589 0.000000 0.040857 0.000000
# 2 -0.009543 0.019388 -0.010682 0.000000 -0.018355 0.000000
# 3 0.005589 -0.010682 0.022975 0.000000 0.024014 0.000000
# 4 0.000000 0.000000 0.000000 0.043916 0.000001 0.001103
# 5 0.040857 -0.018355 0.024014 0.000001 0.130686 -0.000001
# 6 0.000000 0.000000 0.000000 0.001103 -0.000001 0.033976
#
#
# Mechanical properties :
#
#
# Convention : Reuss Voigt Hill
#
# Bulk Modulus (GPa) = 26.45300 47.84876 37.15088
# Shear Modulus (GPa) = 15.74682 24.93085 20.33884
#
# Velocity S-wave (km/s) = 2.97900 3.74837 3.38561
# Velocity P-wave (km/s) = 5.17114 6.76017 6.01833
#
# Compressibility (1/GPa) = 0.03780290
#
# Stress axis : x y z
#
# Youngs Moduli (GPa) = 40.46799 51.57728 43.52587
#
# Poissons Ratio (x) = 0.49218 -0.24326
# Poissons Ratio (y) = 0.38617 0.46494
# Poissons Ratio (z) = -0.22617 0.55094
#
# Static dielectric constant tensor:
#      x y z
#    x 1.635140 0.000000 -0.044140 
#    y 0.000000 1.625880 0.000000 
#    z -0.044140 0.000000 1.659220 
# 
# From -- ./inp_files/224542.got.cif
#   From: 2010.05.17/outbox.cif.g08.bks.cpg/sg15_113_cif.got.tgz:224542.got - 2010.06.03 18:47:42.
