data_PCOD9259275
_publ_section_title
;
Structure prediction by ZEFSAII (Michael W. Deem and Ramdas Pophale) SiO2 
 PCOD9259275
Probable space group: C 2/C
;
_chemical_formula_sum "Si O2"
_cell_formula_units_Z 64
_cell_length_a 21.177596
_cell_length_b 18.734559
_cell_length_c 20.991874
_cell_angle_alpha 90.000000
_cell_angle_beta 157.456580
_cell_angle_gamma 90.000000
_cell_volume 3193.042621
_symmetry_space_group_name_H-M "C 2/C"
_symmetry_group_IT_number 15
_symmetry_cell_setting 'monoclinic'
loop_
_space_group_symop_operation_xyz
x,y,z
-x,y,1/2-z
-x,-y,-z
x,-y,1/2+z
1/2+x,1/2+y,z
1/2-x,1/2+y,1/2-z
1/2-x,1/2-y,-z
1/2+x,1/2-y,1/2+z
loop_
_atom_site_type_symbol
_atom_site_label
_atom_site_fract_x
_atom_site_fract_y
_atom_site_fract_z
Si Si1 0.423932 0.408837 0.555607
Si Si2 0.872517 0.979330 0.191725
Si Si3 0.558371 0.674802 0.732494
Si Si4 0.321940 0.902620 0.053956
Si Si5 0.712815 0.704815 0.114874
Si Si6 0.620190 0.286351 0.801614
Si Si7 0.301586 0.824297 0.228125
Si Si8 0.565264 0.205094 0.070808
O O1 0.534034 0.479047 0.664432
O O2 0.310121 0.409190 0.512336
O O3 0.538619 0.339224 0.673488
O O4 0.306622 0.393995 0.386884
O O5 0.000000 0.976505 0.250000
O O6 0.835424 0.897601 0.172178
O O7 0.721068 0.029598 0.030520
O O8 0.500000 0.687553 0.750000
O O9 0.396138 0.662411 0.537669
O O10 0.662929 0.741787 0.805520
O O11 0.500000 0.904502 0.250000
O O12 0.276791 0.830201 0.974027
O O13 0.820263 0.666218 0.269976
O O14 0.577741 0.753445 0.024632
O O15 0.500000 0.279216 0.750000
O O16 0.657207 0.212864 0.801221
O O17 0.465643 0.835316 0.422525
O O18 0.183125 0.765356 0.150133
#
# Coordination Sequence:
#
# PCOD9259275 Si02
#       8
#     8   8   8   8   8   8   8   8
#     4   9  18  31  46  70 107 144 186 218 260 318
#     4   8  17  35  51  74 111 149 168 196 271 346
#     4  10  18  34  64  90 109 130 160 202 275 352
#     4   9  18  30  46  70 110 146 175 224 274 306
#     4   9  19  36  54  83 111 129 161 224 270 315
#     4   9  19  31  43  71 109 144 182 241 286 299
#     4  11  18  31  50  74 100 150 199 228 261 307
#     4   9  20  33  50  73 106 146 181 222 263 309
#
# _framework density 20.043578
#
# number of rings (size 3 to 8) (size 9 to 14) (size 15 to 20)
#    0.000    2.750    1.250    1.875    1.750    2.500 
#    0.000   10.000    0.000    7.500    0.000    0.000 
#    0.000    0.000    0.000    0.000    0.000    0.000 
#
# Total GULP energy -178424.710950 kJ/mol
# GULP energy per Si atom -5575.772217 kJ/mol
# Density = 1.999796 g / cm^3
# Si number density = 20.043578 Si / 1000 Ang^3
#
#
#
# Elastic Constant Matrix: (Units=GPa)
#
#
# Indices 1 2 3 4 5 6 
#
# 1 52.7832 5.6346 20.7935 0.0047 -8.6232 0.0008
# 2 5.6346 51.2984 18.6325 0.0185 -7.1966 0.0033
# 3 20.7935 18.6325 136.5958 0.0173 -29.5991 0.0024
# 4 0.0047 0.0185 0.0173 16.4372 0.0011 -1.5145
# 5 -8.6232 -7.1966 -29.5991 0.0011 34.5551 0.0017
# 6 0.0008 0.0033 0.0024 -1.5145 0.0017 -1.3867
#
#
#
# Elastic Compliance Matrix: (Units=1/GPa)
#
#
# Indices 1 2 3 4 5 6 
#
# 1 0.020449 -0.000987 -0.002354 -0.000002 0.002881 0.000010
# 2 -0.000987 0.020708 -0.002202 -0.000015 0.002180 0.000064
# 3 -0.002354 -0.002202 0.009520 -0.000005 0.007109 0.000024
# 4 -0.000002 -0.000015 -0.000005 0.055276 -0.000007 -0.060367
# 5 0.002881 0.002180 0.007109 -0.000007 0.036201 0.000070
# 6 0.000010 0.000064 0.000024 -0.060367 0.000070 -0.655188
#
#
# Mechanical properties :
#
#
# Convention : Reuss Voigt Hill
#
# Bulk Modulus (GPa) = 25.25834 36.75541 31.00687
# Shear Modulus (GPa) = -10.23014 22.96220 6.36603
#
# Velocity S-wave (km/s) = -2.26164 3.38836 1.78409
# Velocity P-wave (km/s) = 2.41019 5.80393 4.44379
#
# Compressibility (1/GPa) = 0.03959089
#
# Stress axis : x y z
#
# Youngs Moduli (GPa) = 48.90268 48.29079 105.04278
#
# Poissons Ratio (x) = 0.04766 0.24726
# Poissons Ratio (y) = 0.04826 0.23131
# Poissons Ratio (z) = 0.11511 0.10634
#
# Static dielectric constant tensor:
#      x y z
#    x 1.744560 0.000000 -0.029230 
#    y 0.000000 1.694380 0.000000 
#    z -0.029230 0.000000 1.774260 
# 
# From -- ./inp_files/282255.got.cif
#   From: 2010.05.17/outbox.cif.g08.bks.cpg/sg15_142_cif.got.tgz:282255.got - 2010.06.03 18:47:42.
