data_PCOD9259677
_publ_section_title
;
Structure prediction by ZEFSAII (Michael W. Deem and Ramdas Pophale) SiO2 
 PCOD9259677
Probable space group: C 2/C
;
_chemical_formula_sum "Si O2"
_cell_formula_units_Z 32
_cell_length_a 7.073044
_cell_length_b 34.203328
_cell_length_c 5.356589
_cell_angle_alpha 90.000000
_cell_angle_beta 104.433319
_cell_angle_gamma 90.000000
_cell_volume 1254.974905
_symmetry_space_group_name_H-M "C 2/C"
_symmetry_group_IT_number 15
_symmetry_cell_setting 'monoclinic'
loop_
_space_group_symop_operation_xyz
x,y,z
-x,y,1/2-z
-x,-y,-z
x,-y,1/2+z
1/2+x,1/2+y,z
1/2-x,1/2+y,1/2-z
1/2-x,1/2-y,-z
1/2+x,1/2-y,1/2+z
loop_
_atom_site_type_symbol
_atom_site_label
_atom_site_fract_x
_atom_site_fract_y
_atom_site_fract_z
Si Si1 0.276303 0.371693 0.402904
Si Si2 0.118510 0.785876 0.042111
Si Si3 0.277145 0.986460 0.871490
Si Si4 0.224081 0.902220 0.600756
O O1 0.278239 0.326053 0.338744
O O2 0.498375 0.388554 0.499597
O O3 0.192601 0.375524 0.651665
O O4 0.190668 0.396402 0.146214
O O5 0.000000 0.773469 0.250000
O O6 0.250000 0.750000 0.000000
O O7 0.000000 0.796647 0.750000
O O8 0.252674 0.945185 0.724731
O O9 0.193973 0.014877 0.626378
O O10 0.500000 0.000000 0.000000
#
# Coordination Sequence:
#
# PCOD9259677 Si02
#       4
#     8   8   8   8
#     4  10  19  37  61  93 123 170 227 273 332 411
#     4  12  23  43  72 106 148 185 235 300 357 426
#     4  10  21  37  57  85 124 167 214 272 344 404
#     4  10  18  35  63  84 122 166 223 271 332 397
#
# _framework density 25.498518000000001
#
# number of rings (size 3 to 8) (size 9 to 14) (size 15 to 20)
#    0.000    1.500    5.000    2.250    0.000    0.000 
#    0.000   15.000   22.000    0.000    0.000    0.000 
#    0.000    0.000    0.000    0.000    0.000    0.000 
#
# Total GULP energy -89365.213440 kJ/mol
# GULP energy per Si atom -5585.325840 kJ/mol
# Density = 2.544048 g / cm^3
# Si number density = 25.498518 Si / 1000 Ang^3
#
#
#
# Elastic Constant Matrix: (Units=GPa)
#
#
# Indices 1 2 3 4 5 6 
#
# 1 77.7340 17.7912 48.9043 0.0000 6.0716 0.0000
# 2 17.7912 181.6228 46.2765 0.0000 -8.0846 0.0000
# 3 48.9043 46.2765 254.8317 0.0000 -49.2027 0.0000
# 4 0.0000 0.0000 0.0000 56.6191 0.0000 37.7478
# 5 6.0716 -8.0846 -49.2027 0.0000 60.2249 0.0000
# 6 0.0000 0.0000 0.0000 37.7478 0.0000 269.4276
#
#
#
# Elastic Compliance Matrix: (Units=1/GPa)
#
#
# Indices 1 2 3 4 5 6 
#
# 1 0.015830 -0.000791 -0.003827 0.000000 -0.004828 0.000000
# 2 -0.000791 0.005813 -0.000876 0.000000 0.000144 0.000000
# 3 -0.003827 -0.000876 0.005781 0.000000 0.004991 0.000000
# 4 0.000000 0.000000 0.000000 0.019482 0.000000 -0.002729
# 5 -0.004828 0.000144 0.004991 0.000000 0.021188 0.000000
# 6 0.000000 0.000000 0.000000 -0.002729 0.000000 0.004094
#
#
# Mechanical properties :
#
#
# Convention : Reuss Voigt Hill
#
# Bulk Modulus (GPa) = 60.83523 82.23694 71.53608
# Shear Modulus (GPa) = 56.39918 104.00209 80.20064
#
# Velocity S-wave (km/s) = 4.70815 6.39344 5.61439
# Velocity P-wave (km/s) = 7.31202 9.31789 8.37522
#
# Compressibility (1/GPa) = 0.01643784
#
# Stress axis : x y z
#
# Youngs Moduli (GPa) = 63.17192 172.02847 172.97060
#
# Poissons Ratio (x) = 0.13600 0.66188
# Poissons Ratio (y) = 0.04994 0.15153
# Poissons Ratio (z) = 0.24173 0.15070
#
# Static dielectric constant tensor:
#      x y z
#    x 2.492970 0.000000 -0.193850 
#    y 0.000000 2.026900 0.000000 
#    z -0.193850 0.000000 2.105230 
# 
# From -- ./inp_files/2707.got.cif
#   From: 2010.05.17/outbox.cif.g08.bks.cpg/sg15_2_cif.got.tgz:2707.got - 2010.06.03 18:47:42.
