data_PCOD9259664
_publ_section_title
;
Structure prediction by ZEFSAII (Michael W. Deem and Ramdas Pophale) SiO2 
 PCOD9259664
Probable space group: C 2/C
;
_chemical_formula_sum "Si O2"
_cell_formula_units_Z 40
_cell_length_a 12.740742
_cell_length_b 24.183522
_cell_length_c 8.071612
_cell_angle_alpha 90.000000
_cell_angle_beta 49.018537
_cell_angle_gamma 90.000000
_cell_volume 1877.485163
_symmetry_space_group_name_H-M "C 2/C"
_symmetry_group_IT_number 15
_symmetry_cell_setting 'monoclinic'
loop_
_space_group_symop_operation_xyz
x,y,z
-x,y,1/2-z
-x,-y,-z
x,-y,1/2+z
1/2+x,1/2+y,z
1/2-x,1/2+y,1/2-z
1/2-x,1/2-y,-z
1/2+x,1/2-y,1/2+z
loop_
_atom_site_type_symbol
_atom_site_label
_atom_site_fract_x
_atom_site_fract_y
_atom_site_fract_z
Si Si1 0.500000 0.659779 0.750000
Si Si2 0.470589 0.180033 0.477508
Si Si3 0.652380 0.432871 0.908925
Si Si4 0.690714 0.737451 0.745164
Si Si5 0.000000 0.027518 0.250000
Si Si6 0.532943 0.061784 0.523906
O O1 0.617054 0.620365 0.553460
O O2 0.566820 0.694883 0.829007
O O3 0.500000 0.186615 0.250000
O O4 0.609330 0.210183 0.407400
O O5 0.327938 0.210136 0.682853
O O6 0.457675 0.114725 0.521511
O O7 0.552286 0.438391 0.853086
O O8 0.806453 0.430561 0.684686
O O9 0.619936 0.486290 0.057416
O O10 0.750000 0.750000 0.500000
O O11 0.500000 0.064901 0.750000
O O12 0.500000 0.000000 0.500000
#
# Coordination Sequence:
#
# PCOD9259664 Si02
#       6
#     4   8   8   8   4   8
#     4  11  20  34  66  96 120 168 203 274 306 384
#     4  10  21  38  66  92 126 164 215 263 311 376
#     4  10  21  37  61  88 126 160 217 253 329 368
#     4  10  18  35  62  94 123 160 213 256 312 367
#     4   9  20  38  58  88 122 168 201 272 306 394
#     4  12  26  42  64  91 129 170 212 264 321 386
#
# _framework density 21.305095000000001
#
# number of rings (size 3 to 8) (size 9 to 14) (size 15 to 20)
#    0.000    1.600    3.000    4.200    0.000    6.400 
#    0.000    1.000    2.200    0.000    0.000    0.000 
#    0.000    0.000    0.000    0.000    0.000    0.000 
#
# Total GULP energy -111600.215384 kJ/mol
# GULP energy per Si atom -5580.010769 kJ/mol
# Density = 2.125660 g / cm^3
# Si number density = 21.305095 Si / 1000 Ang^3
#
#
#
# Elastic Constant Matrix: (Units=GPa)
#
#
# Indices 1 2 3 4 5 6 
#
# 1 27.6738 25.6941 12.9448 0.0000 -12.0000 0.0000
# 2 25.6941 116.9982 19.1095 0.0000 -17.9116 0.0000
# 3 12.9448 19.1095 92.7633 0.0000 -18.9156 0.0000
# 4 0.0000 0.0000 0.0000 8.3408 0.0000 7.8104
# 5 -12.0000 -17.9116 -18.9156 0.0000 37.0762 0.0000
# 6 0.0000 0.0000 0.0000 7.8104 0.0000 18.8447
#
#
#
# Elastic Compliance Matrix: (Units=1/GPa)
#
#
# Indices 1 2 3 4 5 6 
#
# 1 0.050421 -0.008978 -0.003062 0.000000 0.010420 0.000000
# 2 -0.008978 0.010931 -0.000575 0.000000 0.002082 0.000000
# 3 -0.003062 -0.000575 0.012352 0.000000 0.005033 0.000000
# 4 0.000000 0.000000 0.000000 0.195938 0.000000 -0.081208
# 5 0.010420 0.002082 0.005033 0.000000 0.033918 0.000000
# 6 0.000000 0.000000 0.000000 -0.081208 0.000000 0.086723
#
#
# Mechanical properties :
#
#
# Convention : Reuss Voigt Hill
#
# Bulk Modulus (GPa) = 20.62859 39.21468 29.92163
# Shear Modulus (GPa) = 11.58291 24.83145 18.20718
#
# Velocity S-wave (km/s) = 2.33420 3.41767 2.92651
# Velocity P-wave (km/s) = 4.11924 5.83268 5.04917
#
# Compressibility (1/GPa) = 0.04847641
#
# Stress axis : x y z
#
# Youngs Moduli (GPa) = 19.83290 91.48000 80.95783
#
# Poissons Ratio (x) = 0.82128 0.24788
# Poissons Ratio (y) = 0.17805 0.04651
# Poissons Ratio (z) = 0.06073 0.05256
#
# Static dielectric constant tensor:
#      x y z
#    x 1.782180 0.000000 0.011440 
#    y 0.000000 1.949400 0.000000 
#    z 0.011440 0.000000 1.705500 
# 
# From -- ./inp_files/33353.got.cif
#   From: 2010.05.17/outbox.cif.g08.bks.cpg/sg15_17_cif.got.tgz:33353.got - 2010.06.03 18:47:42.
