data_PCOD9259737
_publ_section_title
;
Structure prediction by ZEFSAII (Michael W. Deem and Ramdas Pophale) SiO2 
 PCOD9259737
Probable space group: C 2/C
;
_chemical_formula_sum "Si O2"
_cell_formula_units_Z 56
_cell_length_a 7.522496
_cell_length_b 24.233189
_cell_length_c 14.502244
_cell_angle_alpha 90.000000
_cell_angle_beta 67.700832
_cell_angle_gamma 90.000000
_cell_volume 2445.966559
_symmetry_space_group_name_H-M "C 2/C"
_symmetry_group_IT_number 15
_symmetry_cell_setting 'monoclinic'
loop_
_space_group_symop_operation_xyz
x,y,z
-x,y,1/2-z
-x,-y,-z
x,-y,1/2+z
1/2+x,1/2+y,z
1/2-x,1/2+y,1/2-z
1/2-x,1/2-y,-z
1/2+x,1/2-y,1/2+z
loop_
_atom_site_type_symbol
_atom_site_label
_atom_site_fract_x
_atom_site_fract_y
_atom_site_fract_z
Si Si1 0.837306 0.522758 0.097499
Si Si2 0.983350 0.048347 0.928347
Si Si3 0.104152 0.336805 0.322220
Si Si4 0.500000 0.956385 0.750000
Si Si5 0.500000 0.396406 0.250000
Si Si6 0.903607 0.349053 0.553637
Si Si7 0.221919 0.128946 0.403178
Si Si8 0.718844 0.782041 0.750021
O O1 0.664240 0.483839 0.108984
O O2 0.911252 0.511440 0.184499
O O3 0.817947 0.588700 0.085023
O O4 0.000000 0.500000 0.000000
O O5 0.096087 0.074670 0.821440
O O6 0.935442 0.100057 0.003458
O O7 0.000000 0.000000 0.000000
O O8 0.306088 0.363735 0.319240
O O9 0.178012 0.276024 0.278720
O O10 0.000000 0.359687 0.250000
O O11 0.949981 0.337219 0.437455
O O12 0.668526 0.918330 0.676464
O O13 0.793940 0.306582 0.643488
O O14 0.114199 0.350409 0.559554
O O15 0.171574 0.175204 0.339303
O O16 0.500000 0.779341 0.750000
#
# Coordination Sequence:
#
# PCOD9259737 Si02
#       8
#     8   8   8   4   4   8   8   8
#     4  11  20  40  67  95 130 179 227 275 332 409
#     4  12  28  43  64 102 140 187 229 283 352 411
#     4  12  27  47  72 104 139 185 228 291 362 408
#     4  10  18  35  68  96 128 170 235 272 332 414
#     4  12  28  51  66 104 152 178 231 292 352 418
#     4  10  21  42  69 100 136 179 233 280 344 420
#     4  10  18  42  66  99 131 177 228 275 345 414
#     4  10  21  42  76  99 130 181 231 287 349 416
#
# _framework density 22.894833999999999
#
# number of rings (size 3 to 8) (size 9 to 14) (size 15 to 20)
#    0.000    1.143    8.571    0.000    4.000    4.000 
#    5.143    0.000    0.000    0.000    0.000    0.000 
#    0.000    0.000    0.000    0.000    0.000    0.000 
#
# Total GULP energy -155960.721988 kJ/mol
# GULP energy per Si atom -5570.025785 kJ/mol
# Density = 2.284272 g / cm^3
# Si number density = 22.894834 Si / 1000 Ang^3
#
#
#
# Elastic Constant Matrix: (Units=GPa)
#
#
# Indices 1 2 3 4 5 6 
#
# 1 43.8551 15.0270 16.7591 0.0000 18.6078 0.0000
# 2 15.0270 66.9841 35.7396 0.0000 -10.4056 0.0000
# 3 16.7591 35.7396 182.4573 0.0000 18.3902 0.0000
# 4 0.0000 0.0000 0.0000 54.4753 0.0000 -15.0700
# 5 18.6078 -10.4056 18.3902 0.0000 34.0136 0.0000
# 6 0.0000 0.0000 0.0000 -15.0700 0.0000 41.0444
#
#
#
# Elastic Compliance Matrix: (Units=1/GPa)
#
#
# Indices 1 2 3 4 5 6 
#
# 1 0.037544 -0.013318 0.001736 0.000000 -0.025552 0.000000
# 2 -0.013318 0.023283 -0.005066 0.000000 0.017148 0.000000
# 3 0.001736 -0.005066 0.006944 0.000000 -0.006254 0.000000
# 4 0.000000 0.000000 0.000000 0.020432 0.000000 0.007502
# 5 -0.025552 0.017148 -0.006254 0.000000 0.052006 0.000000
# 6 0.000000 0.000000 0.000000 0.007502 0.000000 0.027118
#
#
# Mechanical properties :
#
#
# Convention : Reuss Voigt Hill
#
# Bulk Modulus (GPa) = 29.00632 47.59421 38.30027
# Shear Modulus (GPa) = 23.57199 40.95805 32.26502
#
# Velocity S-wave (km/s) = 3.21218 4.23420 3.75810
# Velocity P-wave (km/s) = 5.14338 6.68864 5.96625
#
# Compressibility (1/GPa) = 0.03447524
#
# Stress axis : x y z
#
# Youngs Moduli (GPa) = 26.63517 42.94922 144.01106
#
# Poissons Ratio (x) = 0.57200 -0.24995
# Poissons Ratio (y) = 0.35473 0.72953
# Poissons Ratio (z) = -0.04623 0.21757
#
# Static dielectric constant tensor:
#      x y z
#    x 1.856950 0.000000 -0.005160 
#    y 0.000000 1.970110 0.000000 
#    z -0.005160 0.000000 1.855480 
# 
# From -- ./inp_files/81311.got.cif
#   From: 2010.05.17/outbox.cif.g08.bks.cpg/sg15_41_cif.got.tgz:81311.got - 2010.06.03 18:47:42.
