data_PCOD9259263
_publ_section_title
;
Structure prediction by ZEFSAII (Michael W. Deem and Ramdas Pophale) SiO2 
 PCOD9259263
Probable space group: C 2/C
;
_chemical_formula_sum "Si O2"
_cell_formula_units_Z 56
_cell_length_a 9.119302
_cell_length_b 16.216770
_cell_length_c 30.082905
_cell_angle_alpha 90.000000
_cell_angle_beta 37.156390
_cell_angle_gamma 90.000000
_cell_volume 2687.060199
_symmetry_space_group_name_H-M "C 2/C"
_symmetry_group_IT_number 15
_symmetry_cell_setting 'monoclinic'
loop_
_space_group_symop_operation_xyz
x,y,z
-x,y,1/2-z
-x,-y,-z
x,-y,1/2+z
1/2+x,1/2+y,z
1/2-x,1/2+y,1/2-z
1/2-x,1/2-y,-z
1/2+x,1/2-y,1/2+z
loop_
_atom_site_type_symbol
_atom_site_label
_atom_site_fract_x
_atom_site_fract_y
_atom_site_fract_z
Si Si1 0.153768 0.008856 0.509011
Si Si2 0.239917 0.074583 0.824570
Si Si3 0.222443 0.749394 0.934367
Si Si4 0.469130 0.845203 0.571980
Si Si5 0.770029 0.831795 0.023990
Si Si6 0.939156 0.727554 0.834066
Si Si7 0.541829 0.665622 0.790688
O O1 0.386284 0.070805 0.452292
O O2 0.954963 0.034510 0.594573
O O3 0.267880 0.918481 0.489861
O O4 0.000000 0.000000 0.500000
O O5 0.500000 0.031786 0.750000
O O6 0.325138 0.160881 0.827226
O O7 0.108698 0.093965 0.809532
O O8 0.435766 0.780218 0.914316
O O9 0.312164 0.711816 0.866983
O O10 0.051953 0.827615 0.969648
O O11 0.075613 0.683294 0.998806
O O12 0.186155 0.817771 0.638443
O O13 0.750000 0.750000 0.000000
O O14 0.620400 0.815748 0.104515
O O15 0.228148 0.727183 0.761171
O O16 0.500000 0.640706 0.750000
#
# Coordination Sequence:
#
# PCOD9259263 Si02
#       7
#     8   8   8   8   8   8   8
#     4  12  20  38  67 100 126 174 228 278 324 393
#     4  10  20  37  64  98 128 173 225 273 329 396
#     4  10  18  35  60  93 126 167 215 261 321 396
#     4  10  18  34  63  95 127 163 220 273 322 382
#     4  11  23  38  62  96 132 164 218 280 334 387
#     4  10  20  38  63  96 132 172 215 273 330 402
#     4  11  21  35  63  98 134 182 220 263 335 409
#
# _framework density 20.840619
#
# number of rings (size 3 to 8) (size 9 to 14) (size 15 to 20)
#    0.000    1.429    5.714    1.714    0.000    0.000 
#    0.000    5.000    0.000    0.000    3.714    0.000 
#    0.000    0.000    0.000    0.000    0.000    0.000 
#
# Total GULP energy -155976.563249 kJ/mol
# GULP energy per Si atom -5570.591545 kJ/mol
# Density = 2.079318 g / cm^3
# Si number density = 20.840619 Si / 1000 Ang^3
#
#
#
# Elastic Constant Matrix: (Units=GPa)
#
#
# Indices 1 2 3 4 5 6 
#
# 1 85.0150 32.9272 34.9762 -0.0028 19.2717 -0.0025
# 2 32.9272 88.3762 15.3759 -0.0014 6.3596 -0.0002
# 3 34.9762 15.3759 98.0056 -0.0028 27.6245 -0.0010
# 4 -0.0028 -0.0014 -0.0028 10.3643 0.0014 0.7070
# 5 19.2717 6.3596 27.6245 0.0014 38.2550 0.0013
# 6 -0.0025 -0.0002 -0.0010 0.7070 0.0013 23.0303
#
#
#
# Elastic Compliance Matrix: (Units=1/GPa)
#
#
# Indices 1 2 3 4 5 6 
#
# 1 0.016327 -0.005101 -0.003700 0.000003 -0.004705 0.000002
# 2 -0.005101 0.013245 -0.000454 0.000000 0.000695 -0.000001
# 3 -0.003700 -0.000454 0.013872 0.000004 -0.008078 0.000001
# 4 0.000003 0.000000 0.000004 0.096688 -0.000008 -0.002968
# 5 -0.004705 0.000695 -0.008078 -0.000008 0.034228 -0.000003
# 6 0.000002 -0.000001 0.000001 -0.002968 -0.000003 0.043512
#
#
# Mechanical properties :
#
#
# Convention : Reuss Voigt Hill
#
# Bulk Modulus (GPa) = 40.10521 48.66171 44.38346
# Shear Modulus (GPa) = 20.43378 26.87107 23.65242
#
# Velocity S-wave (km/s) = 3.13466 3.59466 3.37251
# Velocity P-wave (km/s) = 5.69096 6.37408 6.04218
#
# Compressibility (1/GPa) = 0.02493442
#
# Stress axis : x y z
#
# Youngs Moduli (GPa) = 61.24759 75.50249 72.08725
#
# Poissons Ratio (x) = 0.38512 0.26675
# Poissons Ratio (y) = 0.31241 0.03269
# Poissons Ratio (z) = 0.22664 0.03424
#
# Static dielectric constant tensor:
#      x y z
#    x 1.929190 0.000000 -0.049190 
#    y 0.000000 1.752810 0.000000 
#    z -0.049190 0.000000 1.773400 
# 
# From -- ./inp_files/289674.got.cif
#   From: 2010.05.17/outbox.cif.g08.bks.cpg/sg15_145_cif.got.tgz:289674.got - 2010.06.03 18:47:42.
