data_PCOD9259784
_publ_section_title
;
Structure prediction by ZEFSAII (Michael W. Deem and Ramdas Pophale) SiO2 
 PCOD9259784
Probable space group: C 2/C
;
_chemical_formula_sum "Si O2"
_cell_formula_units_Z 56
_cell_length_a 25.225032
_cell_length_b 20.358410
_cell_length_c 11.516685
_cell_angle_alpha 90.000000
_cell_angle_beta 152.532481
_cell_angle_gamma 90.000000
_cell_volume 2727.943642
_symmetry_space_group_name_H-M "C 2/C"
_symmetry_group_IT_number 15
_symmetry_cell_setting 'monoclinic'
loop_
_space_group_symop_operation_xyz
x,y,z
-x,y,1/2-z
-x,-y,-z
x,-y,1/2+z
1/2+x,1/2+y,z
1/2-x,1/2+y,1/2-z
1/2-x,1/2-y,-z
1/2+x,1/2-y,1/2+z
loop_
_atom_site_type_symbol
_atom_site_label
_atom_site_fract_x
_atom_site_fract_y
_atom_site_fract_z
Si Si1 0.170892 0.975025 0.381630
Si Si2 0.538721 0.375203 0.958434
Si Si3 0.500000 0.189263 0.750000
Si Si4 0.154604 0.891687 0.739643
Si Si5 0.223886 0.265329 0.580088
Si Si6 0.232696 0.287298 0.109981
Si Si7 0.500000 0.459877 0.250000
Si Si8 0.329734 0.148908 0.226480
O O1 0.265011 0.920399 0.597166
O O2 0.095312 0.991374 0.349246
O O3 0.211628 0.043984 0.407891
O O4 0.094042 0.939268 0.131573
O O5 0.500000 0.384403 0.750000
O O6 0.427624 0.359750 0.821676
O O7 0.643061 0.322760 0.165585
O O8 0.407153 0.234326 0.634149
O O9 0.433300 0.150207 0.519233
O O10 0.239124 0.841369 0.843137
O O11 0.070708 0.915896 0.476383
O O12 0.250000 0.250000 0.500000
O O13 0.290899 0.217975 0.799109
O O14 0.247352 0.210440 0.104101
O O15 0.146107 0.326905 0.858972
#
# Coordination Sequence:
#
# PCOD9259784 Si02
#       8
#     8   8   4   8   8   8   4   8
#     4  10  22  36  57  91 131 164 207 258 310 392
#     4  10  20  34  60  95 128 166 194 253 329 384
#     4  10  22  42  69  84 121 168 212 262 310 380
#     4  11  24  35  59  92 129 162 209 267 310 392
#     4  11  24  41  59  95 125 165 218 263 317 378
#     4   9  19  36  61  88 128 164 205 255 320 376
#     4  10  18  36  55  92 127 162 200 244 336 374
#     4   9  19  38  62  89 119 172 212 252 315 373
#
# _framework density 20.528282999999998
#
# number of rings (size 3 to 8) (size 9 to 14) (size 15 to 20)
#    0.000    2.000    0.000    4.286   12.000    1.143 
#    0.000    0.714    0.000    0.000    0.000    0.000 
#    0.000    0.000    0.000    0.000    0.000    0.000 
#
# Total GULP energy -156123.448990 kJ/mol
# GULP energy per Si atom -5575.837464 kJ/mol
# Density = 2.048156 g / cm^3
# Si number density = 20.528283 Si / 1000 Ang^3
#
#
#
# Elastic Constant Matrix: (Units=GPa)
#
#
# Indices 1 2 3 4 5 6 
#
# 1 134.3407 33.4479 43.0451 0.0000 -29.1957 0.0000
# 2 33.4479 102.0201 34.3906 0.0000 -2.8134 0.0000
# 3 43.0451 34.3906 100.7720 0.0000 -36.6771 0.0000
# 4 0.0000 0.0000 0.0000 3.9370 0.0000 3.5721
# 5 -29.1957 -2.8134 -36.6771 0.0000 35.9241 0.0000
# 6 0.0000 0.0000 0.0000 3.5721 0.0000 25.2934
#
#
#
# Elastic Compliance Matrix: (Units=1/GPa)
#
#
# Indices 1 2 3 4 5 6 
#
# 1 0.009917 -0.002830 -0.000665 0.000000 0.007160 0.000000
# 2 -0.002830 0.012420 -0.005590 0.000000 -0.007035 0.000000
# 3 -0.000665 -0.005590 0.018712 0.000000 0.018127 0.000000
# 4 0.000000 0.000000 0.000000 0.291331 0.000000 -0.041144
# 5 0.007160 -0.007035 0.018127 0.000000 0.051611 0.000000
# 6 0.000000 0.000000 0.000000 -0.041144 0.000000 0.045347
#
#
# Mechanical properties :
#
#
# Convention : Reuss Voigt Hill
#
# Bulk Modulus (GPa) = 43.70508 62.10000 52.90254
# Shear Modulus (GPa) = 10.98577 28.11420 19.54998
#
# Velocity S-wave (km/s) = 2.31585 3.70474 3.08935
# Velocity P-wave (km/s) = 5.33735 6.97257 6.20902
#
# Compressibility (1/GPa) = 0.02288064
#
# Stress axis : x y z
#
# Youngs Moduli (GPa) = 100.83406 80.51378 53.44037
#
# Poissons Ratio (x) = 0.22785 0.03551
# Poissons Ratio (y) = 0.28536 0.29874
# Poissons Ratio (z) = 0.06701 0.45008
#
# Static dielectric constant tensor:
#      x y z
#    x 1.805850 0.000000 -0.053750 
#    y 0.000000 1.804220 0.000000 
#    z -0.053750 0.000000 1.767050 
# 
# From -- ./inp_files/119900.got.cif
#   From: 2010.05.17/outbox.cif.g08.bks.cpg/sg15_60_cif.got.tgz:119900.got - 2010.06.03 18:47:42.
