data_PCOD9259731
_publ_section_title
;
Structure prediction by ZEFSAII (Michael W. Deem and Ramdas Pophale) SiO2 
 PCOD9259731
Probable space group: C 2/C
;
_chemical_formula_sum "Si O2"
_cell_formula_units_Z 56
_cell_length_a 21.717948
_cell_length_b 9.387952
_cell_length_c 16.879756
_cell_angle_alpha 90.000000
_cell_angle_beta 134.479705
_cell_angle_gamma 90.000000
_cell_volume 2455.551154
_symmetry_space_group_name_H-M "C 2/C"
_symmetry_group_IT_number 15
_symmetry_cell_setting 'monoclinic'
loop_
_space_group_symop_operation_xyz
x,y,z
-x,y,1/2-z
-x,-y,-z
x,-y,1/2+z
1/2+x,1/2+y,z
1/2-x,1/2+y,1/2-z
1/2-x,1/2-y,-z
1/2+x,1/2-y,1/2+z
loop_
_atom_site_type_symbol
_atom_site_label
_atom_site_fract_x
_atom_site_fract_y
_atom_site_fract_z
Si Si1 0.855598 0.137489 0.627725
Si Si2 0.723657 0.807731 0.131832
Si Si3 0.492814 0.270195 0.131117
Si Si4 0.768832 0.595585 0.552072
Si Si5 0.255811 0.980261 0.716050
Si Si6 0.416219 0.009820 0.578221
Si Si7 0.937409 0.363343 0.947262
O O1 0.786198 0.232192 0.614443
O O2 0.902669 0.182504 0.589015
O O3 0.935024 0.137185 0.760181
O O4 0.801044 0.000541 0.557042
O O5 0.698097 0.660631 0.150884
O O6 0.649171 0.911583 0.033199
O O7 0.769951 0.910123 0.238138
O O8 0.516350 0.261312 0.060046
O O9 0.495056 0.100929 0.157975
O O10 0.750000 0.750000 0.500000
O O11 0.761174 0.567969 0.638864
O O12 0.864205 0.549248 0.609243
O O13 0.347890 0.908237 0.824185
O O14 0.428190 0.148899 0.533878
O O15 0.000000 0.500000 0.000000
#
# Coordination Sequence:
#
# PCOD9259731 Si02
#       7
#     8   8   8   8   8   8   8
#     4  10  21  36  63  91 125 166 217 278 321 391
#     4  10  21  37  62  94 126 166 229 265 330 386
#     4  10  18  35  67  88 125 157 216 261 332 387
#     4  11  25  40  63  94 133 171 226 273 335 389
#     4  11  22  37  65  93 128 171 216 274 329 389
#     4   9  20  37  63  94 129 168 213 276 325 400
#     4   9  19  36  60  94 122 159 205 263 322 388
#
# _framework density 22.805471000000001
#
# number of rings (size 3 to 8) (size 9 to 14) (size 15 to 20)
#    0.000    2.000    1.429    1.714    8.000    2.286 
#    0.000    0.000   12.571    8.571    0.000    0.000 
#    0.000    0.000    0.000    0.000    0.000    0.000 
#
# Total GULP energy -156007.469313 kJ/mol
# GULP energy per Si atom -5571.695333 kJ/mol
# Density = 2.275356 g / cm^3
# Si number density = 22.805471 Si / 1000 Ang^3
#
#
#
# Elastic Constant Matrix: (Units=GPa)
#
#
# Indices 1 2 3 4 5 6 
#
# 1 107.1104 18.7201 19.8547 0.0000 -6.8037 0.0000
# 2 18.7201 77.7889 17.6318 0.0000 -13.0374 0.0000
# 3 19.8547 17.6318 68.1013 0.0000 -10.1362 0.0000
# 4 0.0000 0.0000 0.0000 21.5083 0.0000 -6.4026
# 5 -6.8037 -13.0374 -10.1362 0.0000 33.2884 0.0000
# 6 0.0000 0.0000 0.0000 -6.4026 0.0000 25.9906
#
#
#
# Elastic Compliance Matrix: (Units=1/GPa)
#
#
# Indices 1 2 3 4 5 6 
#
# 1 0.010134 -0.001788 -0.002396 0.000000 0.000641 0.000000
# 2 -0.001788 0.014640 -0.002587 0.000000 0.004580 0.000000
# 3 -0.002396 -0.002587 0.016580 0.000000 0.003546 0.000000
# 4 0.000000 0.000000 0.000000 0.050173 0.000000 0.012360
# 5 0.000641 0.004580 0.003546 0.000000 0.033045 0.000000
# 6 0.000000 0.000000 0.000000 0.012360 0.000000 0.041520
#
#
# Mechanical properties :
#
#
# Convention : Reuss Voigt Hill
#
# Bulk Modulus (GPa) = 35.95737 40.60152 38.27944
# Shear Modulus (GPa) = 26.46839 29.27707 27.87273
#
# Velocity S-wave (km/s) = 3.41048 3.58687 3.49978
# Velocity P-wave (km/s) = 5.59551 5.91576 5.75786
#
# Compressibility (1/GPa) = 0.02781071
#
# Stress axis : x y z
#
# Youngs Moduli (GPa) = 98.68212 68.30737 60.31314
#
# Poissons Ratio (x) = 0.12214 0.14451
# Poissons Ratio (y) = 0.17645 0.15604
# Poissons Ratio (z) = 0.23644 0.17673
#
# Static dielectric constant tensor:
#      x y z
#    x 1.981380 0.000000 -0.019350 
#    y 0.000000 1.850390 0.000000 
#    z -0.019350 0.000000 1.946190 
# 
# From -- ./inp_files/218658.got.cif
#   From: 2010.05.17/outbox.cif.g08.bks.cpg/sg15_110_cif.got.tgz:218658.got - 2010.06.03 18:47:42.
