data_PCOD9259302
_publ_section_title
;
Structure prediction by ZEFSAII (Michael W. Deem and Ramdas Pophale) SiO2 
 PCOD9259302
Probable space group: C 2/C
;
_chemical_formula_sum "Si O2"
_cell_formula_units_Z 32
_cell_length_a 13.296196
_cell_length_b 9.943355
_cell_length_c 13.744226
_cell_angle_alpha 90.000000
_cell_angle_beta 132.042373
_cell_angle_gamma 90.000000
_cell_volume 1349.474526
_symmetry_space_group_name_H-M "C 2/C"
_symmetry_group_IT_number 15
_symmetry_cell_setting 'monoclinic'
loop_
_space_group_symop_operation_xyz
x,y,z
-x,y,1/2-z
-x,-y,-z
x,-y,1/2+z
1/2+x,1/2+y,z
1/2-x,1/2+y,1/2-z
1/2-x,1/2-y,-z
1/2+x,1/2-y,1/2+z
loop_
_atom_site_type_symbol
_atom_site_label
_atom_site_fract_x
_atom_site_fract_y
_atom_site_fract_z
Si Si1 0.562568 0.446565 0.884487
Si Si2 0.881306 0.435562 0.807163
Si Si3 0.321635 0.104279 0.041818
Si Si4 0.850542 0.142358 0.846513
O O1 0.500000 0.372571 0.750000
O O2 0.466420 0.573500 0.853388
O O3 0.705095 0.501362 0.939382
O O4 0.594042 0.374551 0.007083
O O5 0.861405 0.422892 0.678540
O O6 0.823249 0.297824 0.811982
O O7 0.786940 0.562388 0.767168
O O8 0.042097 0.423806 0.930245
O O9 0.250000 0.250000 0.000000
#
# Coordination Sequence:
#
# PCOD9259302 Si02
#       4
#     8   8   8   8
#     4  10  20  38  64  89 124 167 208 254 307 372
#     4  10  21  37  62  97 121 161 208 265 308 369
#     4  10  18  34  66  88 116 158 225 254 290 358
#     4  10  21  38  65  93 126 159 210 260 315 364
#
# _framework density 23.712931999999999
#
# number of rings (size 3 to 8) (size 9 to 14) (size 15 to 20)
#    0.000    2.000    2.500    1.500    0.000    0.000 
#    0.000    6.250   11.000    0.000    0.000    7.000 
#    0.000    0.000    0.000    0.000    0.000    0.000 
#
# Total GULP energy -89372.989994 kJ/mol
# GULP energy per Si atom -5585.811875 kJ/mol
# Density = 2.365896 g / cm^3
# Si number density = 23.712932 Si / 1000 Ang^3
#
#
#
# Elastic Constant Matrix: (Units=GPa)
#
#
# Indices 1 2 3 4 5 6 
#
# 1 115.2868 48.1081 54.1022 0.0000 30.1814 0.0000
# 2 48.1081 65.6799 27.8851 0.0000 16.9929 0.0000
# 3 54.1022 27.8851 158.1960 0.0000 2.5056 0.0000
# 4 0.0000 0.0000 0.0000 11.8138 0.0000 9.2247
# 5 30.1814 16.9929 2.5056 0.0000 55.7393 0.0000
# 6 0.0000 0.0000 0.0000 9.2247 0.0000 19.2501
#
#
#
# Elastic Compliance Matrix: (Units=1/GPa)
#
#
# Indices 1 2 3 4 5 6 
#
# 1 0.015295 -0.008177 -0.003700 0.000000 -0.005622 0.000000
# 2 -0.008177 0.022278 -0.001094 0.000000 -0.002315 0.000000
# 3 -0.003700 -0.001094 0.007748 0.000000 0.001989 0.000000
# 4 0.000000 0.000000 0.000000 0.135257 0.000000 -0.064815
# 5 -0.005622 -0.002315 0.001989 0.000000 0.021601 0.000000
# 6 0.000000 0.000000 0.000000 -0.064815 0.000000 0.083007
#
#
# Mechanical properties :
#
#
# Convention : Reuss Voigt Hill
#
# Bulk Modulus (GPa) = 51.60362 66.59484 59.09923
# Shear Modulus (GPa) = 15.74367 31.29848 23.52108
#
# Velocity S-wave (km/s) = 2.57947 3.63697 3.15288
# Velocity P-wave (km/s) = 5.53901 6.76620 6.18313
#
# Compressibility (1/GPa) = 0.01937849
#
# Stress axis : x y z
#
# Youngs Moduli (GPa) = 65.38227 44.88719 129.06500
#
# Poissons Ratio (x) = 0.36705 0.47757
# Poissons Ratio (y) = 0.53464 0.14116
# Poissons Ratio (z) = 0.24193 0.04909
#
# Static dielectric constant tensor:
#      x y z
#    x 1.936960 0.000000 0.051200 
#    y 0.000000 1.874730 0.000000 
#    z 0.051200 0.000000 1.919370 
# 
# From -- ./inp_files/93426.got.cif
#   From: 2010.05.17/outbox.cif.g08.bks.cpg/sg15_47_cif.got.tgz:93426.got - 2010.06.03 18:47:42.
