data_PCOD9259683
_publ_section_title
;
Structure prediction by ZEFSAII (Michael W. Deem and Ramdas Pophale) SiO2 
 PCOD9259683
Probable space group: C 2/C
;
_chemical_formula_sum "Si O2"
_cell_formula_units_Z 56
_cell_length_a 9.085751
_cell_length_b 17.526262
_cell_length_c 22.337950
_cell_angle_alpha 90.000000
_cell_angle_beta 128.412776
_cell_angle_gamma 90.000000
_cell_volume 2787.166372
_symmetry_space_group_name_H-M "C 2/C"
_symmetry_group_IT_number 15
_symmetry_cell_setting 'monoclinic'
loop_
_space_group_symop_operation_xyz
x,y,z
-x,y,1/2-z
-x,-y,-z
x,-y,1/2+z
1/2+x,1/2+y,z
1/2-x,1/2+y,1/2-z
1/2-x,1/2-y,-z
1/2+x,1/2-y,1/2+z
loop_
_atom_site_type_symbol
_atom_site_label
_atom_site_fract_x
_atom_site_fract_y
_atom_site_fract_z
Si Si1 0.947031 0.901157 0.601703
Si Si2 0.820957 0.721989 0.452427
Si Si3 0.755788 0.889423 0.425043
Si Si4 0.377775 0.841371 0.279666
Si Si5 0.709491 0.792882 0.815754
Si Si6 0.952175 0.935005 0.361706
Si Si7 0.259127 0.805489 0.445423
O O1 0.144675 0.860969 0.638031
O O2 0.828913 0.838339 0.608909
O O3 0.832942 0.909420 0.510076
O O4 0.977700 0.982074 0.639709
O O5 0.750000 0.750000 0.500000
O O6 0.830208 0.804403 0.423758
O O7 0.019158 0.680923 0.506385
O O8 0.531060 0.880466 0.362587
O O9 0.842997 0.944626 0.397483
O O10 0.500000 0.828699 0.250000
O O11 0.295269 0.764238 0.287338
O O12 0.201346 0.895413 0.219923
O O13 0.500000 0.820192 0.750000
O O14 0.697590 0.742395 0.872301
O O15 0.129511 0.879495 0.416167
O O16 0.250000 0.750000 0.500000
#
# Coordination Sequence:
#
# PCOD9259683 Si02
#       7
#     8   8   8   8   8   8   8
#     4  11  22  39  63  95 125 163 208 274 314 372
#     4  10  18  35  63  88 116 167 215 246 302 382
#     4  10  18  38  65  88 120 171 214 252 311 393
#     4  10  22  39  66  91 122 177 217 255 320 400
#     4  12  22  39  67  94 127 169 216 260 324 380
#     4  11  23  37  60  96 134 154 209 275 323 357
#     4  12  22  39  66  98 124 169 221 260 307 395
#
# _framework density 20.092092000000001
#
# number of rings (size 3 to 8) (size 9 to 14) (size 15 to 20)
#    0.000    1.143    7.143    1.286    0.000    2.286 
#    0.000    0.000    3.143    0.000    0.000    0.000 
#    0.000    0.000    0.000    0.000    0.000    0.000 
#
# Total GULP energy -156259.723146 kJ/mol
# GULP energy per Si atom -5580.704398 kJ/mol
# Density = 2.004636 g / cm^3
# Si number density = 20.092092 Si / 1000 Ang^3
#
#
#
# Elastic Constant Matrix: (Units=GPa)
#
#
# Indices 1 2 3 4 5 6 
#
# 1 68.9619 19.2726 27.9134 0.0000 23.8671 0.0000
# 2 19.2726 90.7987 19.0936 0.0000 6.2618 0.0000
# 3 27.9134 19.0936 99.5432 0.0000 28.9527 0.0000
# 4 0.0000 0.0000 0.0000 21.6884 0.0000 5.9015
# 5 23.8671 6.2618 28.9527 0.0000 40.9312 0.0000
# 6 0.0000 0.0000 0.0000 5.9015 0.0000 19.0071
#
#
#
# Elastic Compliance Matrix: (Units=1/GPa)
#
#
# Indices 1 2 3 4 5 6 
#
# 1 0.019459 -0.003032 -0.002153 0.000000 -0.009360 0.000000
# 2 -0.003032 0.011951 -0.001794 0.000000 0.001208 0.000000
# 3 -0.002153 -0.001794 0.013281 0.000000 -0.007865 0.000000
# 4 0.000000 0.000000 0.000000 0.050363 0.000000 -0.015637
# 5 -0.009360 0.001208 -0.007865 0.000000 0.035267 0.000000
# 6 0.000000 0.000000 0.000000 -0.015637 0.000000 0.057467
#
#
# Mechanical properties :
#
#
# Convention : Reuss Voigt Hill
#
# Bulk Modulus (GPa) = 32.53693 43.54034 38.03864
# Shear Modulus (GPa) = 23.58614 29.19361 26.38988
#
# Velocity S-wave (km/s) = 3.42994 3.81595 3.62808
# Velocity P-wave (km/s) = 5.64934 6.41348 6.04350
#
# Compressibility (1/GPa) = 0.03073430
#
# Stress axis : x y z
#
# Youngs Moduli (GPa) = 51.39052 83.67664 75.29525
#
# Poissons Ratio (x) = 0.25372 0.16208
# Poissons Ratio (y) = 0.15582 0.13504
# Poissons Ratio (z) = 0.11062 0.15008
#
# Static dielectric constant tensor:
#      x y z
#    x 1.743130 0.000000 0.008710 
#    y 0.000000 1.709210 0.000000 
#    z 0.008710 0.000000 1.756100 
# 
# From -- ./inp_files/265594.got.cif
#   From: 2010.05.17/outbox.cif.g08.bks.cpg/sg15_133_cif.got.tgz:265594.got - 2010.06.03 18:47:42.
