data_PCOD9259482
_publ_section_title
;
Structure prediction by ZEFSAII (Michael W. Deem and Ramdas Pophale) SiO2 
 PCOD9259482
Probable space group: C 2/C
;
_chemical_formula_sum "Si O2"
_cell_formula_units_Z 52
_cell_length_a 16.689602
_cell_length_b 24.882347
_cell_length_c 10.250505
_cell_angle_alpha 90.000000
_cell_angle_beta 138.633703
_cell_angle_gamma 90.000000
_cell_volume 2813.189319
_symmetry_space_group_name_H-M "C 2/C"
_symmetry_group_IT_number 15
_symmetry_cell_setting 'monoclinic'
loop_
_space_group_symop_operation_xyz
x,y,z
-x,y,1/2-z
-x,-y,-z
x,-y,1/2+z
1/2+x,1/2+y,z
1/2-x,1/2+y,1/2-z
1/2-x,1/2-y,-z
1/2+x,1/2-y,1/2+z
loop_
_atom_site_type_symbol
_atom_site_label
_atom_site_fract_x
_atom_site_fract_y
_atom_site_fract_z
Si Si1 0.693974 0.317288 0.794694
Si Si2 0.096648 0.371579 0.578319
Si Si3 0.500000 0.055597 0.750000
Si Si4 0.188373 0.981317 0.241155
Si Si5 0.840650 0.527455 0.185574
Si Si6 0.024307 0.918159 0.626496
Si Si7 0.902643 0.705384 0.748875
O O1 0.790020 0.331509 0.798252
O O2 0.594760 0.364107 0.675895
O O3 0.629948 0.259495 0.714410
O O4 0.778925 0.314865 0.028967
O O5 0.094257 0.406750 0.440792
O O6 0.111548 0.415068 0.708747
O O7 0.971373 0.338803 0.419834
O O8 0.557599 0.017398 0.712709
O O9 0.277954 0.967322 0.468115
O O10 0.252847 0.003372 0.189523
O O11 0.108779 0.031068 0.196257
O O12 0.101153 0.931617 0.099690
O O13 0.000000 0.916958 0.750000
O O14 0.000000 0.716828 0.750000
#
# Coordination Sequence:
#
# PCOD9259482 Si02
#       7
#     8   8   4   8   8   8   8
#     4  10  18  35  58  86 120 158 198 262 307 349
#     4  11  21  37  59  89 126 155 202 257 306 355
#     4  12  22  38  62  92 126 162 198 240 308 374
#     4  11  24  37  58  89 127 165 204 243 302 371
#     4  12  23  41  59  88 128 168 200 246 302 370
#     4  11  21  35  57  89 125 160 202 249 304 367
#     4   9  19  34  58  88 117 155 205 260 311 351
#
# _framework density 18.484358
#
# number of rings (size 3 to 8) (size 9 to 14) (size 15 to 20)
#    0.000    1.231    6.923    0.923    0.000    0.000 
#    0.000    0.000    0.000    0.923    0.000    0.000 
#    0.000    0.000    0.000    0.000    0.000    0.000 
#
# Total GULP energy -145098.785664 kJ/mol
# GULP energy per Si atom -5580.722526 kJ/mol
# Density = 1.844229 g / cm^3
# Si number density = 18.484358 Si / 1000 Ang^3
#
#
#
# Elastic Constant Matrix: (Units=GPa)
#
#
# Indices 1 2 3 4 5 6 
#
# 1 18.1557 2.2444 15.5888 0.0000 6.2259 0.0000
# 2 2.2444 118.5122 53.5330 0.0000 10.5119 0.0000
# 3 15.5888 53.5330 82.4872 0.0000 0.0714 0.0000
# 4 0.0000 0.0000 0.0000 39.7610 0.0000 9.6577
# 5 6.2259 10.5119 0.0714 0.0000 22.3018 0.0000
# 6 0.0000 0.0000 0.0000 9.6577 0.0000 31.3520
#
#
#
# Elastic Compliance Matrix: (Units=1/GPa)
#
#
# Indices 1 2 3 4 5 6 
#
# 1 0.083310 0.011397 -0.023116 0.000000 -0.028555 0.000000
# 2 0.011397 0.014240 -0.011387 0.000000 -0.009857 0.000000
# 3 -0.023116 -0.011387 0.023871 0.000000 0.011744 0.000000
# 4 0.000000 0.000000 0.000000 0.027184 0.000000 -0.008374
# 5 -0.028555 -0.009857 0.011744 0.000000 0.057420 0.000000
# 6 0.000000 0.000000 0.000000 -0.008374 0.000000 0.034475
#
#
# Mechanical properties :
#
#
# Convention : Reuss Voigt Hill
#
# Bulk Modulus (GPa) = 13.29616 40.20972 26.75294
# Shear Modulus (GPa) = 16.03679 28.53555 22.28617
#
# Velocity S-wave (km/s) = 2.94868 3.93334 3.47605
# Velocity P-wave (km/s) = 4.33610 6.51374 5.53311
#
# Compressibility (1/GPa) = 0.07520970
#
# Stress axis : x y z
#
# Youngs Moduli (GPa) = 12.00330 70.22491 41.89117
#
# Poissons Ratio (x) = -0.80034 0.96836
# Poissons Ratio (y) = -0.13680 0.47701
# Poissons Ratio (z) = 0.27747 0.79964
#
# Static dielectric constant tensor:
#      x y z
#    x 1.653660 0.000000 0.029480 
#    y 0.000000 1.640640 0.000000 
#    z 0.029480 0.000000 1.678590 
# 
# From -- ./inp_files/107553.got.cif
#   From: 2010.05.17/outbox.cif.g08.bks.cpg/sg15_54_cif.got.tgz:107553.got - 2010.06.03 18:47:42.
