data_PCOD9259287
_publ_section_title
;
Structure prediction by ZEFSAII (Michael W. Deem and Ramdas Pophale) SiO2 
 PCOD9259287
Probable space group: C 2/C
;
_chemical_formula_sum "Si O2"
_cell_formula_units_Z 44
_cell_length_a 19.285620
_cell_length_b 13.966365
_cell_length_c 8.912873
_cell_angle_alpha 90.000000
_cell_angle_beta 40.051502
_cell_angle_gamma 90.000000
_cell_volume 1544.781354
_symmetry_space_group_name_H-M "C 2/C"
_symmetry_group_IT_number 15
_symmetry_cell_setting 'monoclinic'
loop_
_space_group_symop_operation_xyz
x,y,z
-x,y,1/2-z
-x,-y,-z
x,-y,1/2+z
1/2+x,1/2+y,z
1/2-x,1/2+y,1/2-z
1/2-x,1/2-y,-z
1/2+x,1/2-y,1/2+z
loop_
_atom_site_type_symbol
_atom_site_label
_atom_site_fract_x
_atom_site_fract_y
_atom_site_fract_z
Si Si1 0.565436 0.885479 0.457700
Si Si2 0.500000 0.622228 0.250000
Si Si3 0.182043 0.469541 0.980993
Si Si4 0.915983 0.234933 0.645794
Si Si5 0.894797 0.964931 0.275768
Si Si6 0.732285 0.270437 0.709237
O O1 0.390663 0.030464 0.510373
O O2 0.445283 0.842256 0.646234
O O3 0.626260 0.790316 0.412139
O O4 0.603349 0.919033 0.231183
O O5 0.505138 0.692898 0.381910
O O6 0.401775 0.546686 0.392269
O O7 0.276051 0.528526 0.905378
O O8 0.253536 0.383295 0.794726
O O9 0.909681 0.148419 0.774742
O O10 0.815993 0.232988 0.696128
O O11 0.000000 0.000000 0.000000
O O12 0.750000 0.250000 0.500000
#
# Coordination Sequence:
#
# PCOD9259287 Si02
#       6
#     8   4   8   8   8   8
#     4  11  24  44  71 107 145 191 244 299 361 440
#     4  10  18  34  64  98 126 178 242 290 346 416
#     4  11  23  42  68 106 143 189 240 302 359 432
#     4  11  21  40  65 102 139 188 237 295 367 438
#     4  10  21  36  64  99 138 177 240 303 357 413
#     4  10  20  38  66  97 139 186 242 287 354 434
#
# _framework density 28.482994999999999
#
# number of rings (size 3 to 8) (size 9 to 14) (size 15 to 20)
#    0.000    1.455    1.818    6.545    2.545    0.727 
#    0.000    2.727    0.000    0.000    0.000    0.000 
#    0.000    0.000    0.000    0.000    0.000    0.000 
#
# Total GULP energy -123058.232552 kJ/mol
# GULP energy per Si atom -5593.556025 kJ/mol
# Density = 2.841817 g / cm^3
# Si number density = 28.482995 Si / 1000 Ang^3
#
#
#
# Elastic Constant Matrix: (Units=GPa)
#
#
# Indices 1 2 3 4 5 6 
#
# 1 129.7862 73.9523 42.2722 0.0000 -22.0372 0.0000
# 2 73.9523 201.0446 24.6996 0.0000 -5.8614 0.0000
# 3 42.2722 24.6996 77.4085 0.0000 -4.5829 0.0000
# 4 0.0000 0.0000 0.0000 42.3487 0.0000 -10.5950
# 5 -22.0372 -5.8614 -4.5829 0.0000 56.7492 0.0000
# 6 0.0000 0.0000 0.0000 -10.5950 0.0000 76.8771
#
#
#
# Elastic Compliance Matrix: (Units=1/GPa)
#
#
# Indices 1 2 3 4 5 6 
#
# 1 0.012206 -0.003731 -0.005242 0.000000 0.003931 0.000000
# 2 -0.003731 0.006327 -0.000028 0.000000 -0.000798 0.000000
# 3 -0.005242 -0.000028 0.015745 0.000000 -0.000767 0.000000
# 4 0.000000 0.000000 0.000000 0.024457 0.000000 0.003371
# 5 0.003931 -0.000798 -0.000767 0.000000 0.019004 0.000000
# 6 0.000000 0.000000 0.000000 0.003371 0.000000 0.013472
#
#
# Mechanical properties :
#
#
# Convention : Reuss Voigt Hill
#
# Bulk Modulus (GPa) = 61.44832 76.67638 69.06235
# Shear Modulus (GPa) = 43.61534 53.01602 48.31568
#
# Velocity S-wave (km/s) = 3.91740 4.31898 4.12308
# Velocity P-wave (km/s) = 6.48705 7.20069 6.85317
#
# Compressibility (1/GPa) = 0.01627384
#
# Stress axis : x y z
#
# Youngs Moduli (GPa) = 81.92727 158.05955 63.51268
#
# Poissons Ratio (x) = 0.58975 0.33295
# Poissons Ratio (y) = 0.30569 0.00180
# Poissons Ratio (z) = 0.42949 0.00449
#
# Static dielectric constant tensor:
#      x y z
#    x 2.301500 0.000000 0.060450 
#    y 0.000000 2.193790 0.000000 
#    z 0.060450 0.000000 2.437590 
# 
# From -- ./inp_files/173434.got.cif
#   From: 2010.05.17/outbox.cif.g08.bks.cpg/sg15_87_cif.got.tgz:173434.got - 2010.06.03 18:47:42.
