data_PCOD9259155
_publ_section_title
;
Structure prediction by ZEFSAII (Michael W. Deem and Ramdas Pophale) SiO2 
 PCOD9259155
Probable space group: C 2/C
;
_chemical_formula_sum "Si O2"
_cell_formula_units_Z 56
_cell_length_a 9.520859
_cell_length_b 16.162560
_cell_length_c 24.023791
_cell_angle_alpha 90.000000
_cell_angle_beta 139.242583
_cell_angle_gamma 90.000000
_cell_volume 2413.495156
_symmetry_space_group_name_H-M "C 2/C"
_symmetry_group_IT_number 15
_symmetry_cell_setting 'monoclinic'
loop_
_space_group_symop_operation_xyz
x,y,z
-x,y,1/2-z
-x,-y,-z
x,-y,1/2+z
1/2+x,1/2+y,z
1/2-x,1/2+y,1/2-z
1/2-x,1/2-y,-z
1/2+x,1/2-y,1/2+z
loop_
_atom_site_type_symbol
_atom_site_label
_atom_site_fract_x
_atom_site_fract_y
_atom_site_fract_z
Si Si1 0.308358 0.407168 0.659951
Si Si2 0.040012 0.018044 0.897170
Si Si3 0.300317 0.836469 0.231846
Si Si4 0.910630 0.634596 0.979740
Si Si5 0.960781 0.556708 0.876605
Si Si6 0.323353 0.046892 0.146673
Si Si7 0.437198 0.233610 0.166191
O O1 0.500000 0.364327 0.750000
O O2 0.413432 0.459192 0.641078
O O3 0.120864 0.349921 0.579301
O O4 0.205017 0.480122 0.666728
O O5 0.920352 0.960700 0.905504
O O6 0.258635 0.070950 0.968461
O O7 0.859843 0.088931 0.833785
O O8 0.500000 0.829862 0.250000
O O9 0.375735 0.866167 0.315472
O O10 0.148099 0.757838 0.194695
O O11 0.758176 0.708757 0.913894
O O12 0.994145 0.588668 0.948979
O O13 0.142759 0.519071 0.891857
O O14 0.500000 0.032268 0.250000
O O15 0.373382 0.138755 0.141206
O O16 0.500000 0.248570 0.250000
#
# Coordination Sequence:
#
# PCOD9259155 Si02
#       7
#     8   8   8   8   8   8   8
#     4  11  21  38  64  95 124 161 222 285 325 389
#     4  10  18  34  60  93 126 159 220 262 309 390
#     4  11  18  33  60  92 129 170 212 272 316 378
#     4  10  23  38  61  98 123 171 223 267 334 386
#     4  11  18  35  62  94 124 162 214 267 316 389
#     4  11  20  36  60  96 127 181 220 249 319 396
#     4  10  22  38  62  90 137 177 212 264 325 388
#
# _framework density 23.202864000000002
#
# number of rings (size 3 to 8) (size 9 to 14) (size 15 to 20)
#    0.000    1.429    5.714    1.714    0.000    0.000 
#    0.000   10.714    0.000    0.000    0.000    0.000 
#    0.000    0.000    0.000    0.000    0.000    0.000 
#
# Total GULP energy -156533.744408 kJ/mol
# GULP energy per Si atom -5590.490872 kJ/mol
# Density = 2.315005 g / cm^3
# Si number density = 23.202864 Si / 1000 Ang^3
#
#
#
# Elastic Constant Matrix: (Units=GPa)
#
#
# Indices 1 2 3 4 5 6 
#
# 1 136.5501 25.3329 38.2684 0.0000 20.2559 0.0000
# 2 25.3329 74.2861 37.1554 0.0000 2.8033 0.0000
# 3 38.2684 37.1554 168.0146 -0.0001 2.8601 0.0000
# 4 0.0000 0.0000 -0.0001 12.6063 0.0000 1.7533
# 5 20.2559 2.8033 2.8601 0.0000 22.7075 0.0000
# 6 0.0000 0.0000 0.0000 1.7533 0.0000 35.9044
#
#
#
# Elastic Compliance Matrix: (Units=1/GPa)
#
#
# Indices 1 2 3 4 5 6 
#
# 1 0.009306 -0.002118 -0.001518 0.000000 -0.007849 0.000000
# 2 -0.002118 0.015666 -0.002988 0.000000 0.000332 0.000000
# 3 -0.001518 -0.002988 0.006944 0.000000 0.000848 0.000000
# 4 0.000000 0.000000 0.000000 0.079868 0.000000 -0.003900
# 5 -0.007849 0.000332 0.000848 0.000000 0.050892 0.000000
# 6 0.000000 0.000000 0.000000 -0.003900 0.000000 0.028042
#
#
# Mechanical properties :
#
#
# Convention : Reuss Voigt Hill
#
# Bulk Modulus (GPa) = 53.56609 64.48491 59.02550
# Shear Modulus (GPa) = 23.78841 32.78323 28.28582
#
# Velocity S-wave (km/s) = 3.20540 3.76293 3.49530
# Velocity P-wave (km/s) = 6.06923 6.83605 6.46402
#
# Compressibility (1/GPa) = 0.01866853
#
# Stress axis : x y z
#
# Youngs Moduli (GPa) = 107.45927 63.83423 144.01451
#
# Poissons Ratio (x) = 0.13522 0.21855
# Poissons Ratio (y) = 0.22763 0.43025
# Poissons Ratio (z) = 0.16307 0.19071
#
# Static dielectric constant tensor:
#      x y z
#    x 1.860470 0.000000 -0.008770 
#    y 0.000000 1.840080 0.000000 
#    z -0.008770 0.000000 1.961310 
# 
# From -- ./inp_files/289777.got.cif
#   From: 2010.05.17/outbox.cif.g08.bks.cpg/sg15_145_cif.got.tgz:289777.got - 2010.06.03 18:47:42.
