data_PCOD9259049
_publ_section_title
;
Structure prediction by ZEFSAII (Michael W. Deem and Ramdas Pophale) SiO2 
 PCOD9259049
Probable space group: C 2/C
;
_chemical_formula_sum "Si O2"
_cell_formula_units_Z 40
_cell_length_a 27.259754
_cell_length_b 9.016447
_cell_length_c 8.729681
_cell_angle_alpha 90.000000
_cell_angle_beta 75.199529
_cell_angle_gamma 90.000000
_cell_volume 2074.445097
_symmetry_space_group_name_H-M "C 2/C"
_symmetry_group_IT_number 15
_symmetry_cell_setting 'monoclinic'
loop_
_space_group_symop_operation_xyz
x,y,z
-x,y,1/2-z
-x,-y,-z
x,-y,1/2+z
1/2+x,1/2+y,z
1/2-x,1/2+y,1/2-z
1/2-x,1/2-y,-z
1/2+x,1/2-y,1/2+z
loop_
_atom_site_type_symbol
_atom_site_label
_atom_site_fract_x
_atom_site_fract_y
_atom_site_fract_z
Si Si1 0.137946 0.201560 0.863194
Si Si2 0.633931 0.415436 0.701023
Si Si3 0.463883 0.579948 0.648980
Si Si4 0.792297 0.576617 0.340556
Si Si5 0.699518 0.788008 0.334323
O O1 0.077088 0.192573 0.889739
O O2 0.162056 0.355362 0.796904
O O3 0.158271 0.074545 0.728314
O O4 0.149828 0.145919 0.024219
O O5 0.574353 0.455717 0.749981
O O6 0.649592 0.299953 0.819852
O O7 0.500000 0.645642 0.750000
O O8 0.500000 0.500000 0.500000
O O9 0.742671 0.665583 0.326175
O O10 0.786526 0.404098 0.309962
O O11 0.803598 0.619317 0.506568
#
# Coordination Sequence:
#
# PCOD9259049 Si02
#       5
#     8   8   8   8   8
#     4  10  20  34  58  88 118 151 196 238 292 343
#     4  10  20  34  58  88 118 151 196 239 290 345
#     4  10  18  34  58  92 118 154 194 247 289 344
#     4  11  24  40  59  84 118 156 196 243 295 353
#     4  11  24  40  59  84 118 156 196 242 297 352
#
# _framework density 19.282266
#
# number of rings (size 3 to 8) (size 9 to 14) (size 15 to 20)
#    1.200    0.400    2.000    3.600    2.800    6.400 
#    0.000    0.000    0.000    2.400    0.000    0.000 
#    0.000    0.000    0.000    0.000    0.000    0.000 
#
# Total GULP energy -111524.698274 kJ/mol
# GULP energy per Si atom -5576.234914 kJ/mol
# Density = 1.923838 g / cm^3
# Si number density = 19.282266 Si / 1000 Ang^3
#
#
#
# Elastic Constant Matrix: (Units=GPa)
#
#
# Indices 1 2 3 4 5 6 
#
# 1 72.2171 17.3418 24.4076 0.0000 14.4809 0.0000
# 2 17.3418 50.7639 -4.4368 0.0000 12.8779 0.0000
# 3 24.4076 -4.4368 40.9432 0.0000 13.9110 0.0000
# 4 0.0000 0.0000 0.0000 32.6899 0.0000 1.3698
# 5 14.4809 12.8779 13.9110 0.0000 32.9366 0.0000
# 6 0.0000 0.0000 0.0000 1.3698 0.0000 24.4367
#
#
#
# Elastic Compliance Matrix: (Units=1/GPa)
#
#
# Indices 1 2 3 4 5 6 
#
# 1 0.020115 -0.007883 -0.012712 0.000000 -0.000392 0.000000
# 2 -0.007883 0.026374 0.011539 0.000000 -0.011720 0.000000
# 3 -0.012712 0.011539 0.038397 0.000000 -0.015140 0.000000
# 4 0.000000 0.000000 0.000000 0.030662 0.000000 -0.001719
# 5 -0.000392 -0.011720 -0.015140 0.000000 0.041511 0.000000
# 6 0.000000 0.000000 0.000000 -0.001719 0.000000 0.041018
#
#
# Mechanical properties :
#
#
# Convention : Reuss Voigt Hill
#
# Bulk Modulus (GPa) = 14.97601 26.50549 20.74075
# Shear Modulus (GPa) = 20.96898 26.45343 23.71121
#
# Velocity S-wave (km/s) = 3.30127 3.70794 3.51050
# Velocity P-wave (km/s) = 4.72385 5.66636 5.21643
#
# Compressibility (1/GPa) = 0.06677348
#
# Stress axis : x y z
#
# Youngs Moduli (GPa) = 49.71334 37.91650 26.04384
#
# Poissons Ratio (x) = 0.29891 0.33108
# Poissons Ratio (y) = 0.39190 -0.30053
# Poissons Ratio (z) = 0.63197 -0.43753
#
# Static dielectric constant tensor:
#      x y z
#    x 1.675900 0.000000 0.011040 
#    y 0.000000 1.661250 0.000000 
#    z 0.011040 0.000000 1.712990 
# 
# From -- ./inp_files/64537.got.cif
#   From: 2010.05.17/outbox.cif.g08.bks.cpg/sg15_33_cif.got.tgz:64537.got - 2010.06.03 18:47:42.
