data_PCOD9259317
_publ_section_title
;
Structure prediction by ZEFSAII (Michael W. Deem and Ramdas Pophale) SiO2 
 PCOD9259317
Probable space group: C 2/C
;
_chemical_formula_sum "Si O2"
_cell_formula_units_Z 60
_cell_length_a 24.032643
_cell_length_b 16.219085
_cell_length_c 18.914582
_cell_angle_alpha 90.000000
_cell_angle_beta 22.808408
_cell_angle_gamma 90.000000
_cell_volume 2858.020822
_symmetry_space_group_name_H-M "C 2/C"
_symmetry_group_IT_number 15
_symmetry_cell_setting 'monoclinic'
loop_
_space_group_symop_operation_xyz
x,y,z
-x,y,1/2-z
-x,-y,-z
x,-y,1/2+z
1/2+x,1/2+y,z
1/2-x,1/2+y,1/2-z
1/2-x,1/2-y,-z
1/2+x,1/2-y,1/2+z
loop_
_atom_site_type_symbol
_atom_site_label
_atom_site_fract_x
_atom_site_fract_y
_atom_site_fract_z
Si Si1 0.500000 0.772300 0.250000
Si Si2 0.934470 0.456928 0.747794
Si Si3 0.875644 0.037630 0.945621
Si Si4 0.368937 0.315617 0.557343
Si Si5 0.850542 0.861142 0.018180
Si Si6 0.593569 0.774909 0.709467
Si Si7 0.528616 0.879076 0.356972
Si Si8 0.916607 0.236728 0.579767
O O1 0.385923 0.709391 0.418768
O O2 0.542833 0.831178 0.265144
O O3 0.931737 0.363127 0.723613
O O4 0.014181 0.526930 0.609067
O O5 0.000000 0.460726 0.750000
O O6 0.764543 0.476426 0.939722
O O7 0.000000 0.073906 0.750000
O O8 0.837565 0.095611 0.057783
O O9 0.925912 0.947740 0.912812
O O10 0.515678 0.292975 0.345503
O O11 0.233143 0.254601 0.702579
O O12 0.434609 0.294308 0.558076
O O13 0.683046 0.879650 0.211933
O O14 0.890175 0.827613 0.048197
O O15 0.500000 0.783820 0.750000
O O16 0.750000 0.750000 0.500000
O O17 0.432416 0.824918 0.521445
#
# Coordination Sequence:
#
# PCOD9259317 Si02
#       8
#     4   8   8   8   8   8   8   8
#     4  10  18  34  68  94 124 168 210 272 332 372
#     4  10  21  39  63 100 128 162 210 274 331 377
#     4  11  23  42  66  97 129 165 218 277 331 374
#     4  12  24  43  66  92 131 178 219 265 323 396
#     4  10  21  40  62  95 131 165 217 272 321 389
#     4  11  22  40  67  95 125 165 216 273 327 374
#     4  10  20  39  62  95 132 166 222 262 327 386
#     4  11  24  43  63  92 131 184 220 254 327 398
#
# _framework density 20.993549999999999
#
# number of rings (size 3 to 8) (size 9 to 14) (size 15 to 20)
#    0.000    1.333    2.667    4.000    0.000    1.600 
#    4.800    2.000    0.000    0.000    0.000    0.000 
#    0.000    0.000    0.000    0.000    0.000    0.000 
#
# Total GULP energy -167014.617973 kJ/mol
# GULP energy per Si atom -5567.153932 kJ/mol
# Density = 2.094577 g / cm^3
# Si number density = 20.993550 Si / 1000 Ang^3
#
#
#
# Elastic Constant Matrix: (Units=GPa)
#
#
# Indices 1 2 3 4 5 6 
#
# 1 82.1456 28.8983 15.9802 0.0002 -18.8864 -0.0001
# 2 28.8983 110.9953 5.7904 0.0002 -3.1236 -0.0001
# 3 15.9802 5.7904 48.4256 0.0004 -11.6161 -0.0003
# 4 0.0002 0.0002 0.0004 25.4061 -0.0002 -1.0702
# 5 -18.8864 -3.1236 -11.6161 -0.0002 28.2355 0.0000
# 6 -0.0001 -0.0001 -0.0003 -1.0702 0.0000 18.3979
#
#
#
# Elastic Compliance Matrix: (Units=1/GPa)
#
#
# Indices 1 2 3 4 5 6 
#
# 1 0.016168 -0.003809 -0.002648 0.000000 0.009304 0.000000
# 2 -0.003809 0.009973 -0.000313 0.000000 -0.001573 0.000000
# 3 -0.002648 -0.000313 0.023442 0.000000 0.007838 0.000000
# 4 0.000000 0.000000 0.000000 0.039457 0.000000 0.002295
# 5 0.009304 -0.001573 0.007838 0.000000 0.044690 0.000000
# 6 0.000000 0.000000 0.000000 0.002295 0.000000 0.054488
#
#
# Mechanical properties :
#
#
# Convention : Reuss Voigt Hill
#
# Bulk Modulus (GPa) = 27.74547 38.10048 32.92297
# Shear Modulus (GPa) = 23.38937 27.13441 25.26189
#
# Velocity S-wave (km/s) = 3.34147 3.59905 3.47265
# Velocity P-wave (km/s) = 5.30397 5.95474 5.63875
#
# Compressibility (1/GPa) = 0.03604192
#
# Stress axis : x y z
#
# Youngs Moduli (GPa) = 61.85131 100.26835 42.65914
#
# Poissons Ratio (x) = 0.38196 0.11296
# Poissons Ratio (y) = 0.23562 0.01335
# Poissons Ratio (z) = 0.16379 0.03137
#
# Static dielectric constant tensor:
#      x y z
#    x 1.819870 0.000000 0.009940 
#    y 0.000000 1.841680 0.000000 
#    z 0.009940 0.000000 1.804170 
# 
# From -- ./inp_files/211759.got.cif
#   From: 2010.05.17/outbox.cif.g08.bks.cpg/sg15_106_cif.got.tgz:211759.got - 2010.06.03 18:47:42.
