data_PCOD9259702
_publ_section_title
;
Structure prediction by ZEFSAII (Michael W. Deem and Ramdas Pophale) SiO2 
 PCOD9259702
Probable space group: C 2/C
;
_chemical_formula_sum "Si O2"
_cell_formula_units_Z 44
_cell_length_a 7.242319
_cell_length_b 24.351056
_cell_length_c 11.854809
_cell_angle_alpha 90.000000
_cell_angle_beta 114.716267
_cell_angle_gamma 90.000000
_cell_volume 1899.162463
_symmetry_space_group_name_H-M "C 2/C"
_symmetry_group_IT_number 15
_symmetry_cell_setting 'monoclinic'
loop_
_space_group_symop_operation_xyz
x,y,z
-x,y,1/2-z
-x,-y,-z
x,-y,1/2+z
1/2+x,1/2+y,z
1/2-x,1/2+y,1/2-z
1/2-x,1/2-y,-z
1/2+x,1/2-y,1/2+z
loop_
_atom_site_type_symbol
_atom_site_label
_atom_site_fract_x
_atom_site_fract_y
_atom_site_fract_z
Si Si1 0.898649 0.130220 0.473897
Si Si2 0.670483 0.082138 0.006281
Si Si3 0.755352 0.837666 0.710823
Si Si4 0.883335 0.786451 0.336136
Si Si5 0.000000 0.632082 0.750000
Si Si6 0.395766 0.478133 0.096034
O O1 0.741616 0.140020 0.334127
O O2 0.845515 0.085173 0.555218
O O3 0.108705 0.105171 0.478347
O O4 0.960044 0.190493 0.532155
O O5 0.629912 0.122098 0.099133
O O6 0.710493 0.020464 0.054794
O O7 0.525191 0.093290 0.864571
O O8 0.686282 0.775872 0.669769
O O9 0.000000 0.839305 0.750000
O O10 0.692716 0.827788 0.289764
O O11 0.000000 0.791873 0.250000
O O12 0.500000 0.481378 0.250000
O O13 0.500000 0.500000 0.000000
#
# Coordination Sequence:
#
# PCOD9259702 Si02
#       6
#     8   8   8   8   4   8
#     4   9  20  35  60  92 126 170 215 265 329 387
#     4   9  19  35  62  91 122 169 216 267 329 388
#     4  10  20  37  62  93 128 169 219 265 328 394
#     4  11  23  38  62  92 128 173 211 265 329 394
#     4  10  22  40  62  94 130 164 216 268 332 398
#     4  10  18  35  64  94 126 170 225 275 327 397
#
# _framework density 23.168108
#
# number of rings (size 3 to 8) (size 9 to 14) (size 15 to 20)
#    0.000    2.182    0.909    3.273    2.545    2.909 
#    0.000    0.000    2.000   18.545    0.000    0.000 
#    0.000    0.000    0.000    0.000    0.000    0.000 
#
# Total GULP energy -122725.727686 kJ/mol
# GULP energy per Si atom -5578.442168 kJ/mol
# Density = 2.311538 g / cm^3
# Si number density = 23.168108 Si / 1000 Ang^3
#
#
#
# Elastic Constant Matrix: (Units=GPa)
#
#
# Indices 1 2 3 4 5 6 
#
# 1 63.2395 34.3389 36.4207 0.0000 -11.5264 0.0000
# 2 34.3389 121.5431 85.6006 0.0000 7.5673 0.0000
# 3 36.4207 85.6006 224.0893 0.0000 3.4691 0.0000
# 4 0.0000 0.0000 0.0000 33.8462 0.0000 39.6247
# 5 -11.5264 7.5673 3.4691 0.0000 16.8682 0.0000
# 6 0.0000 0.0000 0.0000 39.6247 0.0000 -233.1645
#
#
#
# Elastic Compliance Matrix: (Units=1/GPa)
#
#
# Indices 1 2 3 4 5 6 
#
# 1 0.024124 -0.006946 -0.001576 0.000000 0.019925 0.000000
# 2 -0.006946 0.013557 -0.003895 0.000000 -0.010028 0.000000
# 3 -0.001576 -0.003895 0.006216 0.000000 -0.000608 0.000000
# 4 0.000000 0.000000 0.000000 0.024643 0.000000 0.004188
# 5 0.019925 -0.010028 -0.000608 0.000000 0.077522 0.000000
# 6 0.000000 0.000000 0.000000 0.004188 0.000000 -0.003577
#
#
# Mechanical properties :
#
#
# Convention : Reuss Voigt Hill
#
# Bulk Modulus (GPa) = 52.45630 80.17692 66.31661
# Shear Modulus (GPa) = 28.78996 -19.65590 4.56703
#
# Velocity S-wave (km/s) = 3.52895 -2.91590 1.40554
# Velocity P-wave (km/s) = 6.26861 4.83168 5.59645
#
# Compressibility (1/GPa) = 0.01906349
#
# Stress axis : x y z
#
# Youngs Moduli (GPa) = 41.45278 73.76149 160.88203
#
# Poissons Ratio (x) = 0.51237 0.25352
# Poissons Ratio (y) = 0.28794 0.62657
# Poissons Ratio (z) = 0.06532 0.28727
#
# Static dielectric constant tensor:
#      x y z
#    x 1.975830 0.000000 0.003180 
#    y 0.000000 1.877350 0.000000 
#    z 0.003180 0.000000 1.645740 
# 
# From -- ./inp_files/79990.got.cif
#   From: 2010.05.17/outbox.cif.g08.bks.cpg/sg15_40_cif.got.tgz:79990.got - 2010.06.03 18:47:42.
