data_PCOD9259644
_publ_section_title
;
Structure prediction by ZEFSAII (Michael W. Deem and Ramdas Pophale) SiO2 
 PCOD9259644
Probable space group: C 2/C
;
_chemical_formula_sum "Si O2"
_cell_formula_units_Z 56
_cell_length_a 11.342515
_cell_length_b 11.820838
_cell_length_c 18.458180
_cell_angle_alpha 90.000000
_cell_angle_beta 117.386237
_cell_angle_gamma 90.000000
_cell_volume 2197.471396
_symmetry_space_group_name_H-M "C 2/C"
_symmetry_group_IT_number 15
_symmetry_cell_setting 'monoclinic'
loop_
_space_group_symop_operation_xyz
x,y,z
-x,y,1/2-z
-x,-y,-z
x,-y,1/2+z
1/2+x,1/2+y,z
1/2-x,1/2+y,1/2-z
1/2-x,1/2-y,-z
1/2+x,1/2-y,1/2+z
loop_
_atom_site_type_symbol
_atom_site_label
_atom_site_fract_x
_atom_site_fract_y
_atom_site_fract_z
Si Si1 0.208501 0.605255 0.031674
Si Si2 0.398144 0.355009 0.471314
Si Si3 0.040601 0.774298 0.386681
Si Si4 0.361219 0.559159 0.214160
Si Si5 0.674466 0.136900 0.556901
Si Si6 0.119117 0.424863 0.741851
Si Si7 0.873791 0.173291 0.361361
O O1 0.271428 0.585936 0.970402
O O2 0.321872 0.608694 0.125675
O O3 0.137616 0.491126 0.033421
O O4 0.134163 0.723079 0.018087
O O5 0.434710 0.355443 0.397766
O O6 0.525424 0.388173 0.555617
O O7 0.164840 0.847766 0.392996
O O8 0.113604 0.705709 0.472335
O O9 0.955548 0.683275 0.316885
O O10 0.500000 0.489962 0.250000
O O11 0.221993 0.518318 0.213096
O O12 0.397850 0.654367 0.284002
O O13 0.623770 0.197715 0.614200
O O14 0.225033 0.375119 0.829750
O O15 0.000000 0.487956 0.750000
#
# Coordination Sequence:
#
# PCOD9259644 Si02
#       7
#     8   8   8   8   8   8   8
#     4  11  21  37  60  90 121 162 208 251 303 375
#     4  10  20  36  60  85 116 164 198 256 308 357
#     4  10  19  38  58  86 120 161 199 259 308 359
#     4  10  19  37  59  86 121 163 199 252 309 362
#     4  10  22  36  60  92 120 157 211 255 299 364
#     4  10  18  35  62  86 111 166 203 242 306 374
#     4   9  19  34  57  84 117 154 202 247 302 357
#
# _framework density 25.483837000000001
#
# number of rings (size 3 to 8) (size 9 to 14) (size 15 to 20)
#    0.857    1.143    4.286    0.000    0.000    2.857 
#    2.571    0.000    0.000    6.000    0.000    0.000 
#    0.000    0.000    0.000    0.000    0.000    0.000 
#
# Total GULP energy -156074.619272 kJ/mol
# GULP energy per Si atom -5574.093545 kJ/mol
# Density = 2.542583 g / cm^3
# Si number density = 25.483837 Si / 1000 Ang^3
#
#
#
# Elastic Constant Matrix: (Units=GPa)
#
#
# Indices 1 2 3 4 5 6 
#
# 1 164.7471 -7.8729 15.2202 0.0000 14.1234 0.0000
# 2 -7.8729 60.7658 10.1313 0.0000 9.1163 0.0000
# 3 15.2202 10.1313 72.3075 0.0000 9.9765 0.0000
# 4 0.0000 0.0000 0.0000 21.3848 0.0000 5.0735
# 5 14.1234 9.1163 9.9765 0.0000 43.9670 0.0000
# 6 0.0000 0.0000 0.0000 5.0735 0.0000 -2.4054
#
#
#
# Elastic Compliance Matrix: (Units=1/GPa)
#
#
# Indices 1 2 3 4 5 6 
#
# 1 0.006427 0.001351 -0.001258 0.000000 -0.002059 0.000000
# 2 0.001351 0.017541 -0.002251 0.000000 -0.003560 0.000000
# 3 -0.001258 -0.002251 0.014752 0.000000 -0.002476 0.000000
# 4 0.000000 0.000000 0.000000 0.031166 0.000000 0.065737
# 5 -0.002059 -0.003560 -0.002476 0.000000 0.024706 0.000000
# 6 0.000000 0.000000 0.000000 0.065737 0.000000 -0.277083
#
#
# Mechanical properties :
#
#
# Convention : Reuss Voigt Hill
#
# Bulk Modulus (GPa) = 29.06567 36.97526 33.02047
# Shear Modulus (GPa) = -29.99273 31.27876 0.64301
#
# Velocity S-wave (km/s) = -3.43437 3.50722 0.50286
# Velocity P-wave (km/s) = 2.07273 5.56252 3.65003
#
# Compressibility (1/GPa) = 0.03440484
#
# Stress axis : x y z
#
# Youngs Moduli (GPa) = 155.58715 57.00879 67.78869
#
# Poissons Ratio (x) = -0.07704 0.08529
# Poissons Ratio (y) = -0.21027 0.15259
# Poissons Ratio (z) = 0.19575 0.12833
#
# Static dielectric constant tensor:
#      x y z
#    x 2.169350 0.000000 -0.012620 
#    y 0.000000 1.992430 0.000000 
#    z -0.012620 0.000000 1.983730 
# 
# From -- ./inp_files/238422.got.cif
#   From: 2010.05.17/outbox.cif.g08.bks.cpg/sg15_120_cif.got.tgz:238422.got - 2010.06.03 18:47:42.
