data_PCOD9259222
_publ_section_title
;
Structure prediction by ZEFSAII (Michael W. Deem and Ramdas Pophale) SiO2 
 PCOD9259222
Probable space group: C 2/C
;
_chemical_formula_sum "Si O2"
_cell_formula_units_Z 44
_cell_length_a 10.803592
_cell_length_b 19.889083
_cell_length_c 12.384797
_cell_angle_alpha 90.000000
_cell_angle_beta 114.977405
_cell_angle_gamma 90.000000
_cell_volume 2412.278026
_symmetry_space_group_name_H-M "C 2/C"
_symmetry_group_IT_number 15
_symmetry_cell_setting 'monoclinic'
loop_
_space_group_symop_operation_xyz
x,y,z
-x,y,1/2-z
-x,-y,-z
x,-y,1/2+z
1/2+x,1/2+y,z
1/2-x,1/2+y,1/2-z
1/2-x,1/2-y,-z
1/2+x,1/2-y,1/2+z
loop_
_atom_site_type_symbol
_atom_site_label
_atom_site_fract_x
_atom_site_fract_y
_atom_site_fract_z
Si Si1 0.749328 0.803217 0.655237
Si Si2 0.531334 0.735796 0.877506
Si Si3 0.267558 0.343377 0.903139
Si Si4 0.572635 0.103924 0.960609
Si Si5 0.500000 0.797521 0.250000
Si Si6 0.086406 0.545792 0.390110
O O1 0.607350 0.764111 0.623943
O O2 0.783366 0.839396 0.780850
O O3 0.708970 0.857091 0.549292
O O4 0.870060 0.750331 0.681039
O O5 0.500000 0.702905 0.750000
O O6 0.637350 0.796126 0.887848
O O7 0.605140 0.687646 0.988325
O O8 0.229588 0.417258 0.927669
O O9 0.489279 0.154012 0.850937
O O10 0.600279 0.033616 0.911611
O O11 0.489746 0.080754 0.036720
O O12 0.000000 0.559170 0.250000
#
# Coordination Sequence:
#
# PCOD9259222 Si02
#       6
#     8   8   8   8   4   8
#     4  11  21  38  59  86 123 156 200 251 296 359
#     4   9  18  31  56  91 119 145 198 246 299 350
#     4  10  18  34  62  89 115 150 193 256 301 339
#     4  11  23  38  60  89 120 161 199 244 300 358
#     4  12  26  38  60  88 126 162 198 244 310 354
#     4  11  20  39  64  88 121 154 204 247 292 363
#
# _framework density 18.240020000000001
#
# number of rings (size 3 to 8) (size 9 to 14) (size 15 to 20)
#    0.000    1.455    4.545    2.182    5.091    0.000 
#    0.000    0.000    2.000    2.182    0.000    0.000 
#    0.000    0.000    0.000    0.000    0.000    0.000 
#
# Total GULP energy -122796.145353 kJ/mol
# GULP energy per Si atom -5581.642971 kJ/mol
# Density = 1.819850 g / cm^3
# Si number density = 18.240020 Si / 1000 Ang^3
#
#
#
# Elastic Constant Matrix: (Units=GPa)
#
#
# Indices 1 2 3 4 5 6 
#
# 1 41.0417 21.9979 13.8674 0.0000 6.9660 0.0000
# 2 21.9979 91.1178 34.8716 0.0000 1.6486 0.0000
# 3 13.8674 34.8716 101.5639 0.0000 7.3962 0.0000
# 4 0.0000 0.0000 0.0000 36.3228 0.0000 -2.8788
# 5 6.9660 1.6486 7.3962 0.0000 24.5478 0.0000
# 6 0.0000 0.0000 0.0000 -2.8788 0.0000 17.9915
#
#
#
# Elastic Compliance Matrix: (Units=1/GPa)
#
#
# Indices 1 2 3 4 5 6 
#
# 1 0.029570 -0.006525 -0.001245 0.000000 -0.007578 0.000000
# 2 -0.006525 0.014080 -0.004099 0.000000 0.002141 0.000000
# 3 -0.001245 -0.004099 0.011633 0.000000 -0.002876 0.000000
# 4 0.000000 0.000000 0.000000 0.027885 0.000000 0.004462
# 5 -0.007578 0.002141 -0.002876 0.000000 0.043610 0.000000
# 6 0.000000 0.000000 0.000000 0.004462 0.000000 0.056296
#
#
# Mechanical properties :
#
#
# Convention : Reuss Voigt Hill
#
# Bulk Modulus (GPa) = 31.70221 41.68857 36.69539
# Shear Modulus (GPa) = 23.00675 26.63817 24.82246
#
# Velocity S-wave (km/s) = 3.55538 3.82570 3.69301
# Velocity P-wave (km/s) = 5.85428 6.51305 6.19243
#
# Compressibility (1/GPa) = 0.03154355
#
# Stress axis : x y z
#
# Youngs Moduli (GPa) = 33.81829 71.02143 85.96224
#
# Poissons Ratio (x) = 0.46343 0.10704
# Poissons Ratio (y) = 0.22067 0.35239
# Poissons Ratio (z) = 0.04211 0.29114
#
# Static dielectric constant tensor:
#      x y z
#    x 1.624400 0.000000 -0.025400 
#    y 0.000000 1.632050 0.000000 
#    z -0.025400 0.000000 1.648670 
# 
# From -- ./inp_files/87957.got.cif
#   From: 2010.05.17/outbox.cif.g08.bks.cpg/sg15_44_cif.got.tgz:87957.got - 2010.06.03 18:47:42.
