data_PCOD9259498
_publ_section_title
;
Structure prediction by ZEFSAII (Michael W. Deem and Ramdas Pophale) SiO2 
 PCOD9259498
Probable space group: C 2/C
;
_chemical_formula_sum "Si O2"
_cell_formula_units_Z 36
_cell_length_a 12.714701
_cell_length_b 15.828990
_cell_length_c 13.879206
_cell_angle_alpha 90.000000
_cell_angle_beta 143.920144
_cell_angle_gamma 90.000000
_cell_volume 1645.032814
_symmetry_space_group_name_H-M "C 2/C"
_symmetry_group_IT_number 15
_symmetry_cell_setting 'monoclinic'
loop_
_space_group_symop_operation_xyz
x,y,z
-x,y,1/2-z
-x,-y,-z
x,-y,1/2+z
1/2+x,1/2+y,z
1/2-x,1/2+y,1/2-z
1/2-x,1/2-y,-z
1/2+x,1/2-y,1/2+z
loop_
_atom_site_type_symbol
_atom_site_label
_atom_site_fract_x
_atom_site_fract_y
_atom_site_fract_z
Si Si1 0.978054 0.364829 0.441574
Si Si2 0.786541 0.022565 0.248915
Si Si3 0.000000 0.627828 0.750000
Si Si4 0.189340 0.988024 0.513060
Si Si5 0.363878 0.168995 0.061301
O O1 0.817162 0.433288 0.320525
O O2 0.982915 0.323831 0.339159
O O3 0.948213 0.315797 0.518690
O O4 0.159958 0.416351 0.594770
O O5 0.797510 0.051259 0.368915
O O6 0.984810 0.016085 0.354581
O O7 0.169924 0.564820 0.886070
O O8 0.248082 0.916965 0.480622
O O9 0.500000 0.157688 0.250000
O O10 0.250000 0.250000 0.000000
#
# Coordination Sequence:
#
# PCOD9259498 Si02
#       5
#     8   8   4   8   8
#     4  10  20  37  56  87 123 152 202 246 301 351
#     4   9  18  32  60  88 122 155 187 261 309 352
#     4  10  20  36  62  90 120 152 188 262 310 352
#     4  10  18  35  58  92 123 151 202 244 315 348
#     4  12  25  40  58  87 125 166 201 240 286 365
#
# _framework density 21.884060000000002
#
# number of rings (size 3 to 8) (size 9 to 14) (size 15 to 20)
#    0.000    1.778    3.333    2.667    3.111    2.667 
#    0.000    0.000    0.000    1.333    0.000    0.000 
#    0.000    0.000    0.000    0.000    0.000    0.000 
#
# Total GULP energy -100522.598776 kJ/mol
# GULP energy per Si atom -5584.588821 kJ/mol
# Density = 2.183425 g / cm^3
# Si number density = 21.884060 Si / 1000 Ang^3
#
#
#
# Elastic Constant Matrix: (Units=GPa)
#
#
# Indices 1 2 3 4 5 6 
#
# 1 149.2131 12.1963 91.2553 0.0018 -26.0885 0.0008
# 2 12.1963 9.9618 7.4631 0.0015 -2.0305 0.0007
# 3 91.2553 7.4631 90.8338 0.0029 -9.0323 0.0027
# 4 0.0018 0.0015 0.0029 4.4286 0.0023 5.5131
# 5 -26.0885 -2.0305 -9.0323 0.0023 78.8874 0.0017
# 6 0.0008 0.0007 0.0027 5.5131 0.0017 9.7742
#
#
#
# Elastic Compliance Matrix: (Units=1/GPa)
#
#
# Indices 1 2 3 4 5 6 
#
# 1 0.019331 -0.009155 -0.018264 0.000002 0.004066 0.000002
# 2 -0.009155 0.111548 0.000018 -0.000084 -0.000155 0.000040
# 3 -0.018264 0.000018 0.029087 -0.000008 -0.002709 -0.000001
# 4 0.000002 -0.000084 -0.000008 0.758135 -0.000015 -0.427618
# 5 0.004066 -0.000155 -0.002709 -0.000015 0.013707 0.000007
# 6 0.000002 0.000040 -0.000001 -0.427618 0.000007 0.343503
#
#
# Mechanical properties :
#
#
# Convention : Reuss Voigt Hill
#
# Bulk Modulus (GPa) = 9.50913 52.42644 30.96778
# Shear Modulus (GPa) = 3.66255 27.89099 15.77677
#
# Velocity S-wave (km/s) = 1.29509 3.57387 2.68792
# Velocity P-wave (km/s) = 2.56729 6.40613 4.88004
#
# Compressibility (1/GPa) = 0.10516208
#
# Stress axis : x y z
#
# Youngs Moduli (GPa) = 51.73028 8.96475 34.37935
#
# Poissons Ratio (x) = 0.08208 0.62791
# Poissons Ratio (y) = 0.47361 -0.00060
# Poissons Ratio (z) = 0.94481 -0.00016
#
# Static dielectric constant tensor:
#      x y z
#    x 1.855980 0.000000 -0.084100 
#    y 0.000000 1.698840 0.000000 
#    z -0.084100 0.000000 1.912450 
# 
# From -- ./inp_files/38515.got.cif
#   From: 2010.05.17/outbox.cif.g08.bks.cpg/sg15_20_cif.got.tgz:38515.got - 2010.06.03 18:47:42.
