data_PCOD9259115
_publ_section_title
;
Structure prediction by ZEFSAII (Michael W. Deem and Ramdas Pophale) SiO2 
 PCOD9259115
Probable space group: C 2/C
;
_chemical_formula_sum "Si O2"
_cell_formula_units_Z 60
_cell_length_a 9.178899
_cell_length_b 22.368479
_cell_length_c 11.518338
_cell_angle_alpha 90.000000
_cell_angle_beta 98.954512
_cell_angle_gamma 90.000000
_cell_volume 2336.099091
_symmetry_space_group_name_H-M "C 2/C"
_symmetry_group_IT_number 15
_symmetry_cell_setting 'monoclinic'
loop_
_space_group_symop_operation_xyz
x,y,z
-x,y,1/2-z
-x,-y,-z
x,-y,1/2+z
1/2+x,1/2+y,z
1/2-x,1/2+y,1/2-z
1/2-x,1/2-y,-z
1/2+x,1/2-y,1/2+z
loop_
_atom_site_type_symbol
_atom_site_label
_atom_site_fract_x
_atom_site_fract_y
_atom_site_fract_z
Si Si1 0.500000 0.187530 0.750000
Si Si2 0.657308 0.192895 0.437792
Si Si3 0.800917 0.603390 0.843436
Si Si4 0.039939 0.527510 0.135078
Si Si5 0.919091 0.861580 0.862818
Si Si6 0.921902 0.756902 0.510430
Si Si7 0.744997 0.533024 0.506150
Si Si8 0.465865 0.564140 0.576833
O O1 0.360250 0.144548 0.748065
O O2 0.486526 0.227411 0.635732
O O3 0.750000 0.250000 0.500000
O O4 0.648612 0.138690 0.531499
O O5 0.495961 0.222258 0.412107
O O6 0.758663 0.169543 0.345172
O O7 0.877887 0.537887 0.837831
O O8 0.626245 0.602294 0.842915
O O9 0.000000 0.557621 0.250000
O O10 0.879011 0.508632 0.067285
O O11 0.152964 0.567725 0.073952
O O12 0.023291 0.824288 0.965961
O O13 0.000000 0.866804 0.750000
O O14 0.905544 0.920248 0.939301
O O15 0.750000 0.750000 0.500000
O O16 0.642175 0.561347 0.592137
O O17 0.618812 0.498954 0.417163
#
# Coordination Sequence:
#
# PCOD9259115 Si02
#       8
#     4   8   8   8   8   8   8   8
#     4  10  18  34  60  84 116 150 192 232 290 346
#     4   8  17  33  55  74 110 149 180 230 286 332
#     4   9  17  32  56  81 108 149 186 228 286 335
#     4  10  19  34  57  81 111 149 189 227 285 347
#     4  10  19  35  58  79 111 153 192 229 287 343
#     4  10  20  35  58  83 112 152 190 233 290 340
#     4   9  20  37  56  80 116 148 185 238 286 340
#     4   9  19  36  57  82 114 149 185 236 293 329
#
# _framework density 25.683843
#
# number of rings (size 3 to 8) (size 9 to 14) (size 15 to 20)
#    0.000    2.667    1.333    0.000    0.000    3.200 
#    0.000    6.000    5.867    0.000    0.000    0.000 
#    0.000    0.000    0.000    0.000    0.000    0.000 
#
# Total GULP energy -167078.904222 kJ/mol
# GULP energy per Si atom -5569.296807 kJ/mol
# Density = 2.562539 g / cm^3
# Si number density = 25.683843 Si / 1000 Ang^3
#
#
#
# Elastic Constant Matrix: (Units=GPa)
#
#
# Indices 1 2 3 4 5 6 
#
# 1 222.0367 24.7754 30.9109 0.0000 -47.4900 0.0000
# 2 24.7754 44.7086 -14.3068 0.0000 -2.3984 0.0000
# 3 30.9109 -14.3068 59.8339 0.0000 -39.3525 0.0000
# 4 0.0000 0.0000 0.0000 19.4618 0.0000 -13.3446
# 5 -47.4900 -2.3984 -39.3525 0.0000 54.4647 0.0000
# 6 0.0000 0.0000 0.0000 -13.3446 0.0000 28.5724
#
#
#
# Elastic Compliance Matrix: (Units=1/GPa)
#
#
# Indices 1 2 3 4 5 6 
#
# 1 0.005945 -0.003420 -0.001103 0.000000 0.004236 0.000000
# 2 -0.003420 0.029433 0.014664 0.000000 0.008909 0.000000
# 3 -0.001103 0.014664 0.039218 0.000000 0.028020 0.000000
# 4 0.000000 0.000000 0.000000 0.075590 0.000000 0.035304
# 5 0.004236 0.008909 0.028020 0.000000 0.042692 0.000000
# 6 0.000000 0.000000 0.000000 0.035304 0.000000 0.051487
#
#
# Mechanical properties :
#
#
# Convention : Reuss Voigt Hill
#
# Bulk Modulus (GPa) = 10.53988 45.48204 28.01096
# Shear Modulus (GPa) = 19.55353 39.51309 29.53331
#
# Velocity S-wave (km/s) = 2.76219 3.92655 3.39467
# Velocity P-wave (km/s) = 3.77962 6.18902 5.12784
#
# Compressibility (1/GPa) = 0.09487771
#
# Stress axis : x y z
#
# Youngs Moduli (GPa) = 168.20937 33.97571 25.49860
#
# Poissons Ratio (x) = 0.11620 0.02812
# Poissons Ratio (y) = 0.57529 -0.37391
# Poissons Ratio (z) = 0.18552 -0.49822
#
# Static dielectric constant tensor:
#      x y z
#    x 2.069430 0.000000 0.011580 
#    y 0.000000 2.097560 0.000000 
#    z 0.011580 0.000000 2.291520 
# 
# From -- ./inp_files/82226.got.cif
#   From: 2010.05.17/outbox.cif.g08.bks.cpg/sg15_42_cif.got.tgz:82226.got - 2010.06.03 18:47:42.
