data_PCOD9259772
_publ_section_title
;
Structure prediction by ZEFSAII (Michael W. Deem and Ramdas Pophale) SiO2 
 PCOD9259772
Probable space group: C 2/C
;
_chemical_formula_sum "Si O2"
_cell_formula_units_Z 48
_cell_length_a 5.375945
_cell_length_b 24.023743
_cell_length_c 19.542896
_cell_angle_alpha 90.000000
_cell_angle_beta 121.392727
_cell_angle_gamma 90.000000
_cell_volume 2154.504617
_symmetry_space_group_name_H-M "C 2/C"
_symmetry_group_IT_number 15
_symmetry_cell_setting 'monoclinic'
loop_
_space_group_symop_operation_xyz
x,y,z
-x,y,1/2-z
-x,-y,-z
x,-y,1/2+z
1/2+x,1/2+y,z
1/2-x,1/2+y,1/2-z
1/2-x,1/2-y,-z
1/2+x,1/2-y,1/2+z
loop_
_atom_site_type_symbol
_atom_site_label
_atom_site_fract_x
_atom_site_fract_y
_atom_site_fract_z
Si Si1 0.896501 0.280353 0.661122
Si Si2 0.907162 0.051971 0.342108
Si Si3 0.347954 0.424312 0.302208
Si Si4 0.849862 0.169280 0.564060
Si Si5 0.095002 0.600085 0.159707
Si Si6 0.181783 0.186520 0.472102
O O1 0.898707 0.230228 0.606648
O O2 0.571072 0.306581 0.620740
O O3 0.000000 0.259978 0.750000
O O4 0.087803 0.333475 0.665959
O O5 0.748625 0.074684 0.250102
O O6 0.730677 0.076365 0.380372
O O7 0.229569 0.075541 0.378665
O O8 0.891120 0.985749 0.339632
O O9 0.500000 0.426103 0.250000
O O10 0.510485 0.376810 0.367526
O O11 0.000000 0.413524 0.250000
O O12 0.501679 0.161622 0.505867
O O13 0.015740 0.165157 0.515918
O O14 0.250000 0.250000 0.500000
#
# Coordination Sequence:
#
# PCOD9259772 Si02
#       6
#     8   8   8   8   8   8
#     4  11  22  40  67 100 123 156 216 272 301 370
#     4  10  18  36  54  88 123 160 198 257 327 343
#     4  12  21  38  66  93 124 169 218 267 297 373
#     4  11  25  43  62  95 133 171 204 247 331 387
#     4  10  19  34  56  90 120 156 198 261 316 358
#     4  10  23  46  62  85 136 181 192 246 331 393
#
# _framework density 22.278903
#
# number of rings (size 3 to 8) (size 9 to 14) (size 15 to 20)
#    0.000    1.333    5.000    3.500    0.000    5.333 
#    3.000    0.000    0.000    6.000    0.000    0.000 
#    0.000    0.000    0.000    0.000    0.000    0.000 
#
# Total GULP energy -134141.658969 kJ/mol
# GULP energy per Si atom -5589.235790 kJ/mol
# Density = 2.222820 g / cm^3
# Si number density = 22.278903 Si / 1000 Ang^3
#
#
#
# Elastic Constant Matrix: (Units=GPa)
#
#
# Indices 1 2 3 4 5 6 
#
# 1 189.0934 28.0664 28.8389 0.0000 15.5915 0.0000
# 2 28.0664 140.8055 35.9931 0.0000 15.0524 0.0000
# 3 28.8389 35.9931 58.8801 0.0000 10.4272 0.0000
# 4 0.0000 0.0000 0.0000 333.8699 0.0000 -137.1232
# 5 15.5915 15.0524 10.4272 0.0000 27.6349 0.0000
# 6 0.0000 0.0000 0.0000 -137.1232 0.0000 78.0418
#
#
#
# Elastic Compliance Matrix: (Units=1/GPa)
#
#
# Indices 1 2 3 4 5 6 
#
# 1 0.005872 -0.000350 -0.002260 0.000000 -0.002270 0.000000
# 2 -0.000350 0.008650 -0.004626 0.000000 -0.002769 0.000000
# 3 -0.002260 -0.004626 0.021696 0.000000 -0.004391 0.000000
# 4 0.000000 0.000000 0.000000 0.010760 0.000000 0.018906
# 5 -0.002270 -0.002769 -0.004391 0.000000 0.040632 0.000000
# 6 0.000000 0.000000 0.000000 0.018906 0.000000 0.046032
#
#
# Mechanical properties :
#
#
# Convention : Reuss Voigt Hill
#
# Bulk Modulus (GPa) = 45.98552 63.84175 54.91364
# Shear Modulus (GPa) = 32.18259 107.63469 69.90864
#
# Velocity S-wave (km/s) = 3.80482 6.95825 5.60776
# Velocity P-wave (km/s) = 6.32360 9.65786 8.16279
#
# Compressibility (1/GPa) = 0.02174597
#
# Stress axis : x y z
#
# Youngs Moduli (GPa) = 170.29395 115.60300 46.09082
#
# Poissons Ratio (x) = 0.04047 0.10417
# Poissons Ratio (y) = 0.05962 0.21322
# Poissons Ratio (z) = 0.38490 0.53479
#
# Static dielectric constant tensor:
#      x y z
#    x 1.802560 0.000000 -0.010720 
#    y 0.000000 1.815780 0.000000 
#    z -0.010720 0.000000 1.858460 
# 
# From -- ./inp_files/228248.got.cif
#   From: 2010.05.17/outbox.cif.g08.bks.cpg/sg15_115_cif.got.tgz:228248.got - 2010.06.03 18:47:42.
