data_PCOD9259416
_publ_section_title
;
Structure prediction by ZEFSAII (Michael W. Deem and Ramdas Pophale) SiO2 
 PCOD9259416
Probable space group: C 2/C
;
_chemical_formula_sum "Si O2"
_cell_formula_units_Z 48
_cell_length_a 16.418707
_cell_length_b 8.839562
_cell_length_c 17.608165
_cell_angle_alpha 90.000000
_cell_angle_beta 118.704760
_cell_angle_gamma 90.000000
_cell_volume 2241.485900
_symmetry_space_group_name_H-M "C 2/C"
_symmetry_group_IT_number 15
_symmetry_cell_setting 'monoclinic'
loop_
_space_group_symop_operation_xyz
x,y,z
-x,y,1/2-z
-x,-y,-z
x,-y,1/2+z
1/2+x,1/2+y,z
1/2-x,1/2+y,1/2-z
1/2-x,1/2-y,-z
1/2+x,1/2-y,1/2+z
loop_
_atom_site_type_symbol
_atom_site_label
_atom_site_fract_x
_atom_site_fract_y
_atom_site_fract_z
Si Si1 0.218315 0.074858 0.112517
Si Si2 0.694491 0.990522 0.683356
Si Si3 0.019101 0.930050 0.153585
Si Si4 0.347826 0.331109 0.158521
Si Si5 0.442471 0.255637 0.882080
Si Si6 0.385202 0.710660 0.944942
O O1 0.252764 0.044529 0.214713
O O2 0.300878 0.173397 0.113645
O O3 0.126871 0.177525 0.084060
O O4 0.190220 0.914673 0.064109
O O5 0.659914 0.842270 0.624799
O O6 0.764916 0.070817 0.656569
O O7 0.610029 0.103970 0.665680
O O8 0.911236 0.903819 0.122114
O O9 0.080011 0.828290 0.238298
O O10 0.049195 0.881246 0.083970
O O11 0.046400 0.106934 0.173118
O O12 0.545387 0.228547 0.960254
#
# Coordination Sequence:
#
# PCOD9259416 Si02
#       6
#     8   8   8   8   8   8
#     4  10  18  35  57  81 107 147 197 229 272 342
#     4  11  19  36  58  85 109 149 196 229 276 348
#     4  10  19  36  56  81 115 141 188 240 291 325
#     4  10  20  34  58  84 108 144 192 242 285 328
#     4  10  21  35  57  86 113 153 183 229 292 349
#     4  11  20  36  59  83 117 147 187 233 284 347
#
# _framework density 21.414366000000001
#
# number of rings (size 3 to 8) (size 9 to 14) (size 15 to 20)
#    0.000    1.667    5.000    3.500    0.000    0.000 
#    0.000   10.000    0.000    0.000    0.000    0.000 
#    0.000    0.000    0.000    0.000    0.000    0.000 
#
# Total GULP energy -133879.802940 kJ/mol
# GULP energy per Si atom -5578.325122 kJ/mol
# Density = 2.136563 g / cm^3
# Si number density = 21.414366 Si / 1000 Ang^3
#
#
#
# Elastic Constant Matrix: (Units=GPa)
#
#
# Indices 1 2 3 4 5 6 
#
# 1 80.5658 38.4681 2.2291 0.0000 18.9595 0.0000
# 2 38.4681 88.1224 21.6156 0.0000 27.1345 0.0000
# 3 2.2291 21.6156 83.8625 0.0000 32.5932 0.0000
# 4 0.0000 0.0000 0.0000 15.4778 0.0000 2.8890
# 5 18.9595 27.1345 32.5932 0.0000 24.8831 0.0000
# 6 0.0000 0.0000 0.0000 2.8890 0.0000 19.7056
#
#
#
# Elastic Compliance Matrix: (Units=1/GPa)
#
#
# Indices 1 2 3 4 5 6 
#
# 1 0.019307 -0.003640 0.009369 0.000000 -0.023014 0.000000
# 2 -0.003640 0.019266 0.004519 0.000000 -0.024155 0.000000
# 3 0.009369 0.004519 0.030962 0.000000 -0.052623 0.000000
# 4 0.000000 0.000000 0.000000 0.066426 0.000000 -0.009739
# 5 -0.023014 -0.024155 -0.052623 0.000000 0.152992 0.000000
# 6 0.000000 0.000000 0.000000 -0.009739 0.000000 0.052175
#
#
# Mechanical properties :
#
#
# Convention : Reuss Voigt Hill
#
# Bulk Modulus (GPa) = 11.10715 41.90849 26.50782
# Shear Modulus (GPa) = 14.25955 24.69584 19.47769
#
# Velocity S-wave (km/s) = 2.58328 3.39962 3.01917
# Velocity P-wave (km/s) = 3.75444 5.91799 4.95573
#
# Compressibility (1/GPa) = 0.09003213
#
# Stress axis : x y z
#
# Youngs Moduli (GPa) = 51.79531 51.90484 32.29718
#
# Poissons Ratio (x) = 0.18892 -0.30261
# Poissons Ratio (y) = 0.18852 -0.14594
# Poissons Ratio (z) = -0.48529 -0.23454
#
# Static dielectric constant tensor:
#      x y z
#    x 1.777870 0.000000 0.004760 
#    y 0.000000 1.802700 0.000000 
#    z 0.004760 0.000000 1.802230 
# 
# From -- ./inp_files/208691.got.cif
#   From: 2010.05.17/outbox.cif.g08.bks.cpg/sg15_105_cif.got.tgz:208691.got - 2010.06.03 18:47:42.
