data_PCOD9259322
_publ_section_title
;
Structure prediction by ZEFSAII (Michael W. Deem and Ramdas Pophale) SiO2 
 PCOD9259322
Probable space group: C 2/C
;
_chemical_formula_sum "Si O2"
_cell_formula_units_Z 52
_cell_length_a 27.945297
_cell_length_b 25.173996
_cell_length_c 9.711851
_cell_angle_alpha 90.000000
_cell_angle_beta 152.377089
_cell_angle_gamma 90.000000
_cell_volume 3167.769016
_symmetry_space_group_name_H-M "C 2/C"
_symmetry_group_IT_number 15
_symmetry_cell_setting 'monoclinic'
loop_
_space_group_symop_operation_xyz
x,y,z
-x,y,1/2-z
-x,-y,-z
x,-y,1/2+z
1/2+x,1/2+y,z
1/2-x,1/2+y,1/2-z
1/2-x,1/2-y,-z
1/2+x,1/2-y,1/2+z
loop_
_atom_site_type_symbol
_atom_site_label
_atom_site_fract_x
_atom_site_fract_y
_atom_site_fract_z
Si Si1 0.399919 0.468423 0.798159
Si Si2 0.865023 0.752675 0.619134
Si Si3 0.000000 0.117983 0.750000
Si Si4 0.374348 0.560025 0.933890
Si Si5 0.299523 0.676502 0.695690
Si Si6 0.150077 0.209476 0.106939
Si Si7 0.404489 0.766685 0.787196
O O1 0.346646 0.509802 0.766898
O O2 0.344029 0.450722 0.515734
O O3 0.500000 0.500000 0.000000
O O4 0.443515 0.418848 0.994910
O O5 0.837577 0.797311 0.436670
O O6 0.865906 0.779110 0.772463
O O7 0.771651 0.710482 0.384219
O O8 0.976444 0.728186 0.871205
O O9 0.912790 0.156714 0.589073
O O10 0.327087 0.615073 0.761709
O O11 0.500000 0.565566 0.250000
O O12 0.359778 0.711861 0.737303
O O13 0.177578 0.689377 0.374469
O O14 0.104772 0.257526 0.900159
#
# Coordination Sequence:
#
# PCOD9259322 Si02
#       7
#     8   8   4   8   8   8   8
#     4  10  20  31  46  68  99 121 163 203 253 292
#     4  10  18  35  45  73 105 132 167 198 231 302
#     4  12  18  32  48  74 102 128 160 206 246 300
#     4  10  19  32  46  69  97 128 156 207 248 297
#     4  10  21  30  51  72 100 138 166 191 258 284
#     4  10  21  28  52  72  98 139 164 194 249 284
#     4  10  19  33  47  74 102 134 167 202 226 311
#
# _framework density 16.415337999999998
#
# number of rings (size 3 to 8) (size 9 to 14) (size 15 to 20)
#    0.000    1.846    3.846    2.308    4.308    0.000 
#    0.000    0.000    0.000    0.000    0.000    1.077 
#    4.615    0.000    0.000    0.000    0.000    0.000 
#
# Total GULP energy -144923.510615 kJ/mol
# GULP energy per Si atom -5573.981178 kJ/mol
# Density = 1.637798 g / cm^3
# Si number density = 16.415338 Si / 1000 Ang^3
#
#
#
# Elastic Constant Matrix: (Units=GPa)
#
#
# Indices 1 2 3 4 5 6 
#
# 1 68.7255 27.0583 30.3475 0.0000 -3.7127 0.0000
# 2 27.0583 93.9838 33.9693 0.0000 6.1108 0.0000
# 3 30.3475 33.9693 72.3730 0.0000 23.8661 0.0000
# 4 0.0000 0.0000 0.0000 29.2683 0.0000 -2.5368
# 5 -3.7127 6.1108 23.8661 0.0000 38.3921 0.0000
# 6 0.0000 0.0000 0.0000 -2.5368 0.0000 17.8664
#
#
#
# Elastic Compliance Matrix: (Units=1/GPa)
#
#
# Indices 1 2 3 4 5 6 
#
# 1 0.020662 -0.002818 -0.010250 0.000000 0.008818 0.000000
# 2 -0.002818 0.013339 -0.005396 0.000000 0.000958 0.000000
# 3 -0.010250 -0.005396 0.026027 0.000000 -0.016312 0.000000
# 4 0.000000 0.000000 0.000000 0.034592 0.000000 0.004912
# 5 0.008818 0.000958 -0.016312 0.000000 0.036887 0.000000
# 6 0.000000 0.000000 0.000000 0.004912 0.000000 0.056668
#
#
# Mechanical properties :
#
#
# Convention : Reuss Voigt Hill
#
# Bulk Modulus (GPa) = 43.28489 46.42585 44.85537
# Shear Modulus (GPa) = 21.47745 26.68585 24.08165
#
# Velocity S-wave (km/s) = 3.62107 4.03633 3.83433
# Velocity P-wave (km/s) = 6.62636 7.07573 6.85473
#
# Compressibility (1/GPa) = 0.02310275
#
# Stress axis : x y z
#
# Youngs Moduli (GPa) = 48.39731 74.96730 38.42210
#
# Poissons Ratio (x) = 0.21122 0.39381
# Poissons Ratio (y) = 0.13636 0.20731
# Poissons Ratio (z) = 0.49605 0.40449
#
# Static dielectric constant tensor:
#      x y z
#    x 1.593760 0.000000 -0.026990 
#    y 0.000000 1.538940 0.000000 
#    z -0.026990 0.000000 1.581780 
# 
# From -- ./inp_files/67779.got.cif
#   From: 2010.05.17/outbox.cif.g08.bks.cpg/sg15_34_cif.got.tgz:67779.got - 2010.06.03 18:47:42.
