data_PCOD9259832
_publ_section_title
;
Structure prediction by ZEFSAII (Michael W. Deem and Ramdas Pophale) SiO2 
 PCOD9259832
Probable space group: C 2/C
;
_chemical_formula_sum "Si O2"
_cell_formula_units_Z 56
_cell_length_a 19.837431
_cell_length_b 13.701310
_cell_length_c 26.251915
_cell_angle_alpha 90.000000
_cell_angle_beta 18.926007
_cell_angle_gamma 90.000000
_cell_volume 2314.292010
_symmetry_space_group_name_H-M "C 2/C"
_symmetry_group_IT_number 15
_symmetry_cell_setting 'monoclinic'
loop_
_space_group_symop_operation_xyz
x,y,z
-x,y,1/2-z
-x,-y,-z
x,-y,1/2+z
1/2+x,1/2+y,z
1/2-x,1/2+y,1/2-z
1/2-x,1/2-y,-z
1/2+x,1/2-y,1/2+z
loop_
_atom_site_type_symbol
_atom_site_label
_atom_site_fract_x
_atom_site_fract_y
_atom_site_fract_z
Si Si1 0.697498 0.029365 0.177453
Si Si2 0.829272 0.373233 0.904416
Si Si3 0.980139 0.803706 0.509927
Si Si4 0.365721 0.952669 0.176974
Si Si5 0.369981 0.648474 0.747243
Si Si6 0.317828 0.345567 0.731007
Si Si7 0.651648 0.555714 0.187183
O O1 0.714536 0.034982 0.103789
O O2 0.470797 0.082068 0.347629
O O3 0.896192 0.092672 0.050676
O O4 0.684649 0.941970 0.226813
O O5 0.000000 0.312345 0.750000
O O6 0.611649 0.323760 0.069542
O O7 0.783624 0.736493 0.633382
O O8 0.976692 0.813249 0.573695
O O9 0.172540 0.744550 0.350296
O O10 0.321477 0.066491 0.193702
O O11 0.222071 0.896568 0.239418
O O12 0.604180 0.925107 0.996578
O O13 0.363999 0.560046 0.791154
O O14 0.410138 0.389561 0.716621
O O15 0.500000 0.583067 0.250000
#
# Coordination Sequence:
#
# PCOD9259832 Si02
#       7
#     8   8   8   8   8   8   8
#     4   8  19  33  51  76 117 146 176 227 276 340
#     4   8  19  36  44  78 118 145 172 220 282 345
#     4  11  19  35  59  81 113 149 194 227 285 327
#     4  10  18  36  57  84 106 144 198 232 273 331
#     4  11  19  33  59  79 108 150 189 231 280 331
#     4  10  21  37  58  86 114 148 191 240 274 351
#     4  11  21  37  59  85 111 148 191 238 283 326
#
# _framework density 24.197464
#
# number of rings (size 3 to 8) (size 9 to 14) (size 15 to 20)
#    0.857    1.143    2.857    2.571    0.000    1.143 
#    2.571    2.143    0.000    0.000    0.000    0.000 
#    0.000    0.000    0.000    0.000    0.000    0.000 
#
# Total GULP energy -156321.747367 kJ/mol
# GULP energy per Si atom -5582.919549 kJ/mol
# Density = 2.414239 g / cm^3
# Si number density = 24.197464 Si / 1000 Ang^3
#
#
#
# Elastic Constant Matrix: (Units=GPa)
#
#
# Indices 1 2 3 4 5 6 
#
# 1 144.8789 12.2757 24.3002 0.0294 -5.1027 -0.0017
# 2 12.2757 63.1230 4.8732 0.0381 -2.7289 0.0157
# 3 24.3002 4.8732 98.4714 0.0239 -3.6877 0.0315
# 4 0.0294 0.0381 0.0239 25.4227 -0.0276 2.7690
# 5 -5.1027 -2.7289 -3.6877 -0.0276 34.0244 -0.0050
# 6 -0.0017 0.0157 0.0315 2.7690 -0.0050 26.2601
#
#
#
# Elastic Compliance Matrix: (Units=1/GPa)
#
#
# Indices 1 2 3 4 5 6 
#
# 1 0.007325 -0.001257 -0.001715 -0.000005 0.000812 0.000004
# 2 -0.001257 0.016167 -0.000450 -0.000020 0.001059 -0.000007
# 3 -0.001715 -0.000450 0.010633 -0.000005 0.000859 -0.000012
# 4 -0.000005 -0.000020 -0.000005 0.039792 0.000029 -0.004196
# 5 0.000812 0.001059 0.000859 0.000029 0.029690 0.000001
# 6 0.000004 -0.000007 -0.000012 -0.004196 0.000001 0.038523
#
#
# Mechanical properties :
#
#
# Convention : Reuss Voigt Hill
#
# Bulk Modulus (GPa) = 36.65609 43.26348 39.95978
# Shear Modulus (GPa) = 31.63182 34.80973 33.22078
#
# Velocity S-wave (km/s) = 3.61950 3.79696 3.70929
# Velocity P-wave (km/s) = 5.71396 6.09432 5.90720
#
# Compressibility (1/GPa) = 0.02728060
#
# Stress axis : x y z
#
# Youngs Moduli (GPa) = 136.51736 61.85398 94.04761
#
# Poissons Ratio (x) = 0.07775 0.16129
# Poissons Ratio (y) = 0.17161 0.04234
# Poissons Ratio (z) = 0.23413 0.02785
#
# Static dielectric constant tensor:
#      x y z
#    x 1.971900 0.000020 0.074580 
#    y 0.000020 2.022010 0.000050 
#    z 0.074580 0.000050 2.029130 
# 
# From -- ./inp_files/301292.got.cif
#   From: 2010.05.17/outbox.cif.g08.bks.cpg/sg15_151_cif.got.tgz:301292.got - 2010.06.03 18:47:42.
