data_PCOD9259475
_publ_section_title
;
Structure prediction by ZEFSAII (Michael W. Deem and Ramdas Pophale) SiO2 
 PCOD9259475
Probable space group: C 2/C
;
_chemical_formula_sum "Si O2"
_cell_formula_units_Z 48
_cell_length_a 25.351416
_cell_length_b 6.890708
_cell_length_c 10.829629
_cell_angle_alpha 90.000000
_cell_angle_beta 114.232518
_cell_angle_gamma 90.000000
_cell_volume 1725.126012
_symmetry_space_group_name_H-M "C 2/C"
_symmetry_group_IT_number 15
_symmetry_cell_setting 'monoclinic'
loop_
_space_group_symop_operation_xyz
x,y,z
-x,y,1/2-z
-x,-y,-z
x,-y,1/2+z
1/2+x,1/2+y,z
1/2-x,1/2+y,1/2-z
1/2-x,1/2-y,-z
1/2+x,1/2-y,1/2+z
loop_
_atom_site_type_symbol
_atom_site_label
_atom_site_fract_x
_atom_site_fract_y
_atom_site_fract_z
Si Si1 0.503976 0.770895 0.963213
Si Si2 0.195288 0.090782 0.446055
Si Si3 0.923266 0.258291 0.077070
Si Si4 0.289989 0.664699 0.299763
Si Si5 0.336233 0.090470 0.288131
Si Si6 0.418585 0.832674 0.666646
O O1 0.479884 0.668098 0.064518
O O2 0.458861 0.735139 0.808269
O O3 0.565763 0.744842 0.952918
O O4 0.500000 0.000000 0.000000
O O5 0.250000 0.250000 0.500000
O O6 0.127996 0.147379 0.404005
O O7 0.193878 0.032903 0.301706
O O8 0.204834 0.931713 0.561130
O O9 0.887082 0.344772 0.926683
O O10 0.938221 0.442620 0.174800
O O11 0.322933 0.864630 0.302976
O O12 0.221562 0.692258 0.223564
O O13 0.355595 0.138456 0.166894
#
# Coordination Sequence:
#
# PCOD9259475 Si02
#       6
#     8   8   8   8   8   8
#     4   8  16  28  54  88 110 141 193 248 309 354
#     4  12  23  43  58  87 130 170 208 266 309 369
#     4  10  18  35  58  85 125 153 203 257 307 364
#     4  12  24  41  61  87 126 175 213 255 311 373
#     4  11  21  35  58  86 122 164 209 251 308 368
#     4   9  16  32  53  83 120 146 189 256 307 351
#
# _framework density 27.824054
#
# number of rings (size 3 to 8) (size 9 to 14) (size 15 to 20)
#    0.000    1.667    5.000    0.000    0.000    0.667 
#    6.000    0.000    0.000    0.000    0.000   70.000 
#    0.000    0.000    0.000    0.000    0.000    0.000 
#
# Total GULP energy -134000.275273 kJ/mol
# GULP energy per Si atom -5583.344803 kJ/mol
# Density = 2.776072 g / cm^3
# Si number density = 27.824054 Si / 1000 Ang^3
#
#
#
# Elastic Constant Matrix: (Units=GPa)
#
#
# Indices 1 2 3 4 5 6 
#
# 1 240.3467 47.0877 59.3984 0.0000 -74.4645 0.0000
# 2 47.0877 85.2118 48.3839 0.0000 -28.1816 0.0000
# 3 59.3984 48.3839 109.6301 0.0000 -41.9304 0.0000
# 4 0.0000 0.0000 0.0000 33.8668 0.0000 -2.3647
# 5 -74.4645 -28.1816 -41.9304 0.0000 73.1934 0.0000
# 6 0.0000 0.0000 0.0000 -2.3647 0.0000 13.1590
#
#
#
# Elastic Compliance Matrix: (Units=1/GPa)
#
#
# Indices 1 2 3 4 5 6 
#
# 1 0.006291 -0.001225 -0.000769 0.000000 0.005488 0.000000
# 2 -0.001225 0.016310 -0.005903 0.000000 0.001652 0.000000
# 3 -0.000769 -0.005903 0.014054 0.000000 0.004996 0.000000
# 4 0.000000 0.000000 0.000000 0.029903 0.000000 0.005374
# 5 0.005488 0.001652 0.004996 0.000000 0.022744 0.000000
# 6 0.000000 0.000000 0.000000 0.005374 0.000000 0.076959
#
#
# Mechanical properties :
#
#
# Convention : Reuss Voigt Hill
#
# Bulk Modulus (GPa) = 47.93231 82.76983 65.35107
# Shear Modulus (GPa) = 26.45377 42.73174 34.59276
#
# Velocity S-wave (km/s) = 3.08677 3.92316 3.52983
# Velocity P-wave (km/s) = 5.47435 7.09463 6.33649
#
# Compressibility (1/GPa) = 0.02086275
#
# Stress axis : x y z
#
# Youngs Moduli (GPa) = 158.95775 61.31054 71.15280
#
# Poissons Ratio (x) = 0.07509 0.05471
# Poissons Ratio (y) = 0.19468 0.42000
# Poissons Ratio (z) = 0.12223 0.36191
#
# Static dielectric constant tensor:
#      x y z
#    x 2.388130 0.000000 -0.007780 
#    y 0.000000 2.330940 0.000000 
#    z -0.007780 0.000000 2.221470 
# 
# From -- ./inp_files/116436.got.cif
#   From: 2010.05.17/outbox.cif.g08.bks.cpg/sg15_59_cif.got.tgz:116436.got - 2010.06.03 18:47:42.
