data_PCOD9259365
_publ_section_title
;
Structure prediction by ZEFSAII (Michael W. Deem and Ramdas Pophale) SiO2 
 PCOD9259365
Probable space group: C 2/C
;
_chemical_formula_sum "Si O2"
_cell_formula_units_Z 64
_cell_length_a 9.110935
_cell_length_b 17.633918
_cell_length_c 17.729649
_cell_angle_alpha 90.000000
_cell_angle_beta 88.969985
_cell_angle_gamma 90.000000
_cell_volume 2848.011391
_symmetry_space_group_name_H-M "C 2/C"
_symmetry_group_IT_number 15
_symmetry_cell_setting 'monoclinic'
loop_
_space_group_symop_operation_xyz
x,y,z
-x,y,1/2-z
-x,-y,-z
x,-y,1/2+z
1/2+x,1/2+y,z
1/2-x,1/2+y,1/2-z
1/2-x,1/2-y,-z
1/2+x,1/2-y,1/2+z
loop_
_atom_site_type_symbol
_atom_site_label
_atom_site_fract_x
_atom_site_fract_y
_atom_site_fract_z
Si Si1 0.592526 0.808169 0.313765
Si Si2 0.015640 0.839271 0.412182
Si Si3 0.701308 0.781119 0.583120
Si Si4 0.160698 0.628482 0.590717
Si Si5 0.657099 0.031314 0.731055
Si Si6 0.126816 0.011228 0.655505
Si Si7 0.108163 0.079371 0.439090
Si Si8 0.335070 0.023707 0.025554
O O1 0.500000 0.766478 0.250000
O O2 0.719070 0.761894 0.349711
O O3 0.481451 0.826944 0.382641
O O4 0.644306 0.886224 0.273690
O O5 0.959330 0.753345 0.408415
O O6 0.980881 0.872747 0.496406
O O7 0.184898 0.836601 0.390418
O O8 0.934034 0.903707 0.361350
O O9 0.750000 0.750000 0.500000
O O10 0.759680 0.866088 0.589226
O O11 0.156382 0.552425 0.642998
O O12 0.163920 0.609695 0.502715
O O13 0.500000 0.992031 0.750000
O O14 0.812101 0.000181 0.760234
O O15 0.006043 0.954914 0.620003
O O16 0.281783 0.996706 0.609154
O O17 0.197824 0.014163 0.481806
O O18 0.500000 0.000000 0.000000
#
# Coordination Sequence:
#
# PCOD9259365 Si02
#       8
#     8   8   8   8   8   8   8   8
#     4   9  19  38  56  80 114 154 190 240 298 344
#     4  10  18  35  55  84 112 145 191 248 275 334
#     4  10  21  36  58  78 114 153 191 230 296 355
#     4  10  19  33  56  88 110 138 206 249 278 339
#     4   9  19  33  56  86 116 146 195 252 296 339
#     4  11  18  36  56  79 121 154 185 239 301 346
#     4  10  21  36  52  85 116 151 184 232 301 359
#     4  11  20  32  57  81 116 151 191 240 299 347
#
# _framework density 22.471819
#
# number of rings (size 3 to 8) (size 9 to 14) (size 15 to 20)
#    0.000    2.250    3.750    2.250    3.500    0.500 
#    0.000    5.000    0.000    0.000    0.000    5.250 
#    0.000    0.000    0.000    0.000    0.000    0.000 
#
# Total GULP energy -178245.674297 kJ/mol
# GULP energy per Si atom -5570.177322 kJ/mol
# Density = 2.242067 g / cm^3
# Si number density = 22.471819 Si / 1000 Ang^3
#
#
#
# Elastic Constant Matrix: (Units=GPa)
#
#
# Indices 1 2 3 4 5 6 
#
# 1 80.5173 12.5649 -0.7500 0.0000 4.4712 0.0000
# 2 12.5649 47.7459 1.6207 0.0000 1.9329 0.0000
# 3 -0.7500 1.6207 40.0362 0.0000 12.2651 0.0000
# 4 0.0000 0.0000 0.0000 13.6719 0.0000 1.2459
# 5 4.4712 1.9329 12.2651 0.0000 46.2163 0.0000
# 6 0.0000 0.0000 0.0000 1.2459 0.0000 26.8672
#
#
#
# Elastic Compliance Matrix: (Units=1/GPa)
#
#
# Indices 1 2 3 4 5 6 
#
# 1 0.013032 -0.003402 0.000789 0.000000 -0.001328 0.000000
# 2 -0.003402 0.021883 -0.000838 0.000000 -0.000364 0.000000
# 3 0.000789 -0.000838 0.027255 0.000000 -0.007274 0.000000
# 4 0.000000 0.000000 0.000000 0.073453 0.000000 -0.003406
# 5 -0.001328 -0.000364 -0.007274 0.000000 0.023711 0.000000
# 6 0.000000 0.000000 0.000000 -0.003406 0.000000 0.037378
#
#
# Mechanical properties :
#
#
# Convention : Reuss Voigt Hill
#
# Bulk Modulus (GPa) = 18.09463 21.68560 19.89012
# Shear Modulus (GPa) = 22.51873 27.67533 25.09703
#
# Velocity S-wave (km/s) = 3.16901 3.51316 3.34551
# Velocity P-wave (km/s) = 4.63247 5.11151 4.87787
#
# Compressibility (1/GPa) = 0.05526500
#
# Stress axis : x y z
#
# Youngs Moduli (GPa) = 76.73576 45.69804 36.69114
#
# Poissons Ratio (x) = 0.15549 -0.02893
# Poissons Ratio (y) = 0.26109 0.03075
# Poissons Ratio (z) = -0.06051 0.03830
#
# Static dielectric constant tensor:
#      x y z
#    x 1.900550 0.000000 0.066000 
#    y 0.000000 1.904550 0.000000 
#    z 0.066000 0.000000 2.354740 
# 
# From -- ./inp_files/232701.got.cif
#   From: 2010.05.17/outbox.cif.g08.bks.cpg/sg15_117_cif.got.tgz:232701.got - 2010.06.03 18:47:42.
