data_PCOD9259540
_publ_section_title
;
Structure prediction by ZEFSAII (Michael W. Deem and Ramdas Pophale) SiO2 
 PCOD9259540
Probable space group: C 2/C
;
_chemical_formula_sum "Si O2"
_cell_formula_units_Z 44
_cell_length_a 22.929029
_cell_length_b 7.194857
_cell_length_c 18.225587
_cell_angle_alpha 90.000000
_cell_angle_beta 32.731477
_cell_angle_gamma 90.000000
_cell_volume 1625.727565
_symmetry_space_group_name_H-M "C 2/C"
_symmetry_group_IT_number 15
_symmetry_cell_setting 'monoclinic'
loop_
_space_group_symop_operation_xyz
x,y,z
-x,y,1/2-z
-x,-y,-z
x,-y,1/2+z
1/2+x,1/2+y,z
1/2-x,1/2+y,1/2-z
1/2-x,1/2-y,-z
1/2+x,1/2-y,1/2+z
loop_
_atom_site_type_symbol
_atom_site_label
_atom_site_fract_x
_atom_site_fract_y
_atom_site_fract_z
Si Si1 0.879810 0.470224 0.744934
Si Si2 0.719319 0.683189 0.291988
Si Si3 0.274634 0.966835 0.996083
Si Si4 0.453295 0.566627 0.716936
Si Si5 0.000000 0.000000 0.000000
Si Si6 0.388930 0.042618 0.019401
O O1 0.792587 0.394910 0.780281
O O2 0.814222 0.561537 0.880028
O O3 0.936217 0.286020 0.718806
O O4 0.983917 0.575547 0.601797
O O5 0.627026 0.551342 0.357855
O O6 0.655373 0.862048 0.389780
O O7 0.810538 0.703018 0.132475
O O8 0.250000 0.750000 0.000000
O O9 0.163872 0.024314 0.150581
O O10 0.366168 0.999522 0.959167
O O11 0.500000 0.543619 0.750000
O O12 0.512105 0.505193 0.580253
#
# Coordination Sequence:
#
# PCOD9259540 Si02
#       6
#     8   8   8   8   4   8
#     4  11  21  38  63  94 128 176 224 290 340 393
#     4  12  24  41  61  98 138 175 229 274 346 410
#     4  10  18  35  59  95 126 159 228 287 329 383
#     4  11  20  36  63 103 135 173 229 296 344 398
#     4  12  22  38  62  94 146 174 212 288 348 410
#     4  12  23  40  64  99 133 175 225 284 346 414
#
# _framework density 27.064806999999998
#
# number of rings (size 3 to 8) (size 9 to 14) (size 15 to 20)
#    0.000    0.727    7.273    4.364    0.000    0.000 
#    0.000    0.000    0.000    1.091    4.727    2.545 
#    0.000    0.000    0.000    0.000    0.000    0.000 
#
# Total GULP energy -122636.628836 kJ/mol
# GULP energy per Si atom -5574.392220 kJ/mol
# Density = 2.700321 g / cm^3
# Si number density = 27.064807 Si / 1000 Ang^3
#
#
#
# Elastic Constant Matrix: (Units=GPa)
#
#
# Indices 1 2 3 4 5 6 
#
# 1 207.2199 8.8782 48.3736 -0.0041 26.5295 0.0027
# 2 8.8782 74.5138 9.5949 -0.0071 8.3576 0.0080
# 3 48.3736 9.5949 217.0182 -0.0035 11.6436 0.0032
# 4 -0.0041 -0.0071 -0.0035 16.0072 0.0037 2.8250
# 5 26.5295 8.3576 11.6436 0.0037 60.9603 -0.0028
# 6 0.0027 0.0080 0.0032 2.8250 -0.0028 12.8974
#
#
#
# Elastic Compliance Matrix: (Units=1/GPa)
#
#
# Indices 1 2 3 4 5 6 
#
# 1 0.005354 -0.000266 -0.001070 0.000002 -0.002089 -0.000002
# 2 -0.000266 0.013699 -0.000457 0.000008 -0.001675 -0.000010
# 3 -0.001070 -0.000457 0.004888 0.000001 -0.000406 -0.000001
# 4 0.000002 0.000008 0.000001 0.064984 -0.000007 -0.014234
# 5 -0.002089 -0.001675 -0.000406 -0.000007 0.017621 0.000007
# 6 -0.000002 -0.000010 -0.000001 -0.014234 0.000007 0.080653
#
#
# Mechanical properties :
#
#
# Convention : Reuss Voigt Hill
#
# Bulk Modulus (GPa) = 49.12244 70.27170 59.69707
# Shear Modulus (GPa) = 25.30769 46.76667 36.03718
#
# Velocity S-wave (km/s) = 3.06122 4.16137 3.65295
# Velocity P-wave (km/s) = 5.53932 7.00785 6.31641
#
# Compressibility (1/GPa) = 0.02035729
#
# Stress axis : x y z
#
# Youngs Moduli (GPa) = 186.76295 72.99967 204.57112
#
# Poissons Ratio (x) = 0.01941 0.21882
# Poissons Ratio (y) = 0.04966 0.09339
# Poissons Ratio (z) = 0.19977 0.03333
#
# Static dielectric constant tensor:
#      x y z
#    x 2.026300 0.000010 -0.054900 
#    y 0.000010 2.297580 0.000020 
#    z -0.054900 0.000020 2.089040 
# 
# From -- ./inp_files/218479.got.cif
#   From: 2010.05.17/outbox.cif.g08.bks.cpg/sg15_110_cif.got.tgz:218479.got - 2010.06.03 18:47:42.
