data_PCOD9259315
_publ_section_title
;
Structure prediction by ZEFSAII (Michael W. Deem and Ramdas Pophale) SiO2 
 PCOD9259315
Probable space group: C 2/C
;
_chemical_formula_sum "Si O2"
_cell_formula_units_Z 52
_cell_length_a 12.151605
_cell_length_b 28.585989
_cell_length_c 9.533051
_cell_angle_alpha 90.000000
_cell_angle_beta 123.474795
_cell_angle_gamma 90.000000
_cell_volume 2762.178660
_symmetry_space_group_name_H-M "C 2/C"
_symmetry_group_IT_number 15
_symmetry_cell_setting 'monoclinic'
loop_
_space_group_symop_operation_xyz
x,y,z
-x,y,1/2-z
-x,-y,-z
x,-y,1/2+z
1/2+x,1/2+y,z
1/2-x,1/2+y,1/2-z
1/2-x,1/2-y,-z
1/2+x,1/2-y,1/2+z
loop_
_atom_site_type_symbol
_atom_site_label
_atom_site_fract_x
_atom_site_fract_y
_atom_site_fract_z
Si Si1 0.146086 0.762293 0.051751
Si Si2 0.767846 0.615880 0.421359
Si Si3 0.066037 0.930463 0.145542
Si Si4 0.214797 0.352259 0.259965
Si Si5 0.382507 0.533547 0.278694
Si Si6 0.000000 0.174699 0.250000
Si Si7 0.468720 0.831887 0.891823
O O1 0.223661 0.800238 0.197752
O O2 0.088015 0.717181 0.087162
O O3 0.250000 0.750000 0.000000
O O4 0.026554 0.791225 0.898517
O O5 0.829438 0.633155 0.612519
O O6 0.734064 0.561520 0.378536
O O7 0.627662 0.642766 0.321496
O O8 0.854014 0.631966 0.351381
O O9 0.168134 0.889051 0.188207
O O10 0.000000 0.924002 0.250000
O O11 0.142623 0.980408 0.192285
O O12 0.946817 0.936613 0.950488
O O13 0.095700 0.349915 0.067499
O O14 0.500000 0.529499 0.250000
O O15 0.500000 0.828432 0.750000
#
# Coordination Sequence:
#
# PCOD9259315 Si02
#       7
#     8   8   8   8   8   4   8
#     4  11  21  40  66  89 120 169 218 262 300 381
#     4  11  21  40  67  91 122 170 214 261 303 391
#     4  10  22  36  64  99 132 162 201 276 314 371
#     4  11  23  43  64  89 127 171 218 248 329 383
#     4  10  18  38  65  99 125 158 219 258 317 365
#     4  10  18  34  68  92 112 152 228 252 302 350
#     4  12  28  42  58  94 132 169 208 269 326 378
#
# _framework density 18.82572
#
# number of rings (size 3 to 8) (size 9 to 14) (size 15 to 20)
#    0.000    1.231    5.385    2.308    2.154    1.231 
#    0.000    0.769    0.000    0.000    0.000    0.000 
#    0.000    0.000    0.000    0.000    0.000    0.000 
#
# Total GULP energy -145089.822668 kJ/mol
# GULP energy per Si atom -5580.377795 kJ/mol
# Density = 1.878287 g / cm^3
# Si number density = 18.825720 Si / 1000 Ang^3
#
#
#
# Elastic Constant Matrix: (Units=GPa)
#
#
# Indices 1 2 3 4 5 6 
#
# 1 91.8895 35.4697 37.8219 0.0000 -15.8879 0.0000
# 2 35.4697 100.3195 17.2158 0.0000 0.5571 0.0000
# 3 37.8219 17.2158 85.1323 0.0000 -7.5846 0.0000
# 4 0.0000 0.0000 0.0000 20.5178 0.0000 -5.4243
# 5 -15.8879 0.5571 -7.5846 0.0000 31.4901 0.0000
# 6 0.0000 0.0000 0.0000 -5.4243 0.0000 16.2099
#
#
#
# Elastic Compliance Matrix: (Units=1/GPa)
#
#
# Indices 1 2 3 4 5 6 
#
# 1 0.016260 -0.004821 -0.005631 0.000000 0.006933 0.000000
# 2 -0.004821 0.011771 -0.000484 0.000000 -0.002757 0.000000
# 3 -0.005631 -0.000484 0.014403 0.000000 0.000636 0.000000
# 4 0.000000 0.000000 0.000000 0.053468 0.000000 0.017892
# 5 0.006933 -0.002757 0.000636 0.000000 0.035456 0.000000
# 6 0.000000 0.000000 0.000000 0.017892 0.000000 0.067678
#
#
# Mechanical properties :
#
#
# Convention : Reuss Voigt Hill
#
# Bulk Modulus (GPa) = 48.63602 50.92846 49.78224
# Shear Modulus (GPa) = 21.95261 26.09915 24.02588
#
# Velocity S-wave (km/s) = 3.41852 3.72742 3.57631
# Velocity P-wave (km/s) = 6.43993 6.75546 6.59958
#
# Compressibility (1/GPa) = 0.02056089
#
# Stress axis : x y z
#
# Youngs Moduli (GPa) = 61.49988 84.95345 69.43055
#
# Poissons Ratio (x) = 0.40957 0.39099
# Poissons Ratio (y) = 0.29650 0.03362
# Poissons Ratio (z) = 0.34633 0.04113
#
# Static dielectric constant tensor:
#      x y z
#    x 1.640470 0.000000 -0.008640 
#    y 0.000000 1.706440 0.000000 
#    z -0.008640 0.000000 1.700440 
# 
# From -- ./inp_files/35354.got.cif
#   From: 2010.05.17/outbox.cif.g08.bks.cpg/sg15_18_cif.got.tgz:35354.got - 2010.06.03 18:47:42.
