data_PCOD9259495
_publ_section_title
;
Structure prediction by ZEFSAII (Michael W. Deem and Ramdas Pophale) SiO2 
 PCOD9259495
Probable space group: C 2/C
;
_chemical_formula_sum "Si O2"
_cell_formula_units_Z 64
_cell_length_a 23.512135
_cell_length_b 8.404028
_cell_length_c 18.319261
_cell_angle_alpha 90.000000
_cell_angle_beta 118.710694
_cell_angle_gamma 90.000000
_cell_volume 3174.790612
_symmetry_space_group_name_H-M "C 2/C"
_symmetry_group_IT_number 15
_symmetry_cell_setting 'monoclinic'
loop_
_space_group_symop_operation_xyz
x,y,z
-x,y,1/2-z
-x,-y,-z
x,-y,1/2+z
1/2+x,1/2+y,z
1/2-x,1/2+y,1/2-z
1/2-x,1/2-y,-z
1/2+x,1/2-y,1/2+z
loop_
_atom_site_type_symbol
_atom_site_label
_atom_site_fract_x
_atom_site_fract_y
_atom_site_fract_z
Si Si1 0.476078 0.101806 0.554346
Si Si2 0.781509 0.909113 0.602264
Si Si3 0.145608 0.432986 0.009451
Si Si4 0.821853 0.083014 0.487196
Si Si5 0.777820 0.564122 0.670384
Si Si6 0.620418 0.850840 0.164110
Si Si7 0.429951 0.580874 0.954680
Si Si8 0.166227 0.011972 0.715563
O O1 0.543555 0.154469 0.632214
O O2 0.438071 0.251379 0.498310
O O3 0.500000 0.000000 0.500000
O O4 0.421802 0.001150 0.563040
O O5 0.818568 0.964298 0.553081
O O6 0.785730 0.725122 0.628254
O O7 0.809916 0.013542 0.686838
O O8 0.706204 0.949627 0.542714
O O9 0.133661 0.402379 0.088970
O O10 0.164963 0.265287 0.986324
O O11 0.754059 0.066736 0.401506
O O12 0.879068 0.023848 0.469191
O O13 0.843390 0.536218 0.755581
O O14 0.723524 0.581979 0.700535
O O15 0.652209 0.676143 0.192554
O O16 0.500000 0.500000 0.000000
O O17 0.399238 0.593903 0.854832
#
# Coordination Sequence:
#
# PCOD9259495 Si02
#       8
#     8   8   8   8   8   8   8   8
#     4  10  21  35  58  94 117 154 203 260 310 362
#     4  11  23  37  59  93 127 161 203 259 319 371
#     4  11  19  36  58  85 128 158 199 251 311 366
#     4  11  23  39  60  91 123 165 204 256 318 375
#     4  10  20  36  62  86 124 156 210 260 304 369
#     4  10  18  35  58  91 119 148 209 259 296 363
#     4  11  19  38  65  88 116 159 208 255 305 374
#     4  10  19  35  61  93 113 155 206 260 304 358
#
# _framework density 20.158809999999999
#
# number of rings (size 3 to 8) (size 9 to 14) (size 15 to 20)
#    0.000    1.500    5.000    3.000    0.000    0.000 
#    4.500    0.625    0.000    2.250    3.250    0.000 
#    0.000    0.000    0.000    0.000    0.000    0.000 
#
# Total GULP energy -178565.151773 kJ/mol
# GULP energy per Si atom -5580.160993 kJ/mol
# Density = 2.011293 g / cm^3
# Si number density = 20.158810 Si / 1000 Ang^3
#
#
#
# Elastic Constant Matrix: (Units=GPa)
#
#
# Indices 1 2 3 4 5 6 
#
# 1 69.2889 11.5116 40.1580 0.0000 10.5499 0.0000
# 2 11.5116 50.7188 4.4426 0.0000 6.7532 0.0000
# 3 40.1580 4.4426 78.0062 0.0000 15.1943 0.0000
# 4 0.0000 0.0000 0.0000 18.7661 0.0000 5.3754
# 5 10.5499 6.7532 15.1943 0.0000 34.2109 0.0000
# 6 0.0000 0.0000 0.0000 5.3754 0.0000 32.4222
#
#
#
# Elastic Compliance Matrix: (Units=1/GPa)
#
#
# Indices 1 2 3 4 5 6 
#
# 1 0.021349 -0.003768 -0.010551 0.000000 -0.001154 0.000000
# 2 -0.003768 0.020926 0.001452 0.000000 -0.003614 0.000000
# 3 -0.010551 0.001452 0.019257 0.000000 -0.005585 0.000000
# 4 0.000000 0.000000 0.000000 0.055944 0.000000 -0.009275
# 5 -0.001154 -0.003614 -0.005585 0.000000 0.032780 0.000000
# 6 0.000000 0.000000 0.000000 -0.009275 0.000000 0.032381
#
#
# Mechanical properties :
#
#
# Convention : Reuss Voigt Hill
#
# Bulk Modulus (GPa) = 27.93549 34.47093 31.20321
# Shear Modulus (GPa) = 22.69587 26.53995 24.61791
#
# Velocity S-wave (km/s) = 3.35901 3.63236 3.49836
# Velocity P-wave (km/s) = 5.37883 5.89312 5.64183
#
# Compressibility (1/GPa) = 0.03579676
#
# Stress axis : x y z
#
# Youngs Moduli (GPa) = 46.83987 47.78810 51.92994
#
# Poissons Ratio (x) = 0.18006 0.54794
# Poissons Ratio (y) = 0.17648 -0.07539
# Poissons Ratio (z) = 0.49423 -0.06938
#
# Static dielectric constant tensor:
#      x y z
#    x 1.928990 0.000000 0.175440 
#    y 0.000000 1.801640 0.000000 
#    z 0.175440 0.000000 1.884350 
# 
# From -- ./inp_files/257025.got.cif
#   From: 2010.05.17/outbox.cif.g08.bks.cpg/sg15_129_cif.got.tgz:257025.got - 2010.06.03 18:47:42.
