data_PCOD9259349
_publ_section_title
;
Structure prediction by ZEFSAII (Michael W. Deem and Ramdas Pophale) SiO2 
 PCOD9259349
Probable space group: C 2/C
;
_chemical_formula_sum "Si O2"
_cell_formula_units_Z 60
_cell_length_a 22.166406
_cell_length_b 12.505974
_cell_length_c 8.223894
_cell_angle_alpha 90.000000
_cell_angle_beta 113.704572
_cell_angle_gamma 90.000000
_cell_volume 2087.423495
_symmetry_space_group_name_H-M "C 2/C"
_symmetry_group_IT_number 15
_symmetry_cell_setting 'monoclinic'
loop_
_space_group_symop_operation_xyz
x,y,z
-x,y,1/2-z
-x,-y,-z
x,-y,1/2+z
1/2+x,1/2+y,z
1/2-x,1/2+y,1/2-z
1/2-x,1/2-y,-z
1/2+x,1/2-y,1/2+z
loop_
_atom_site_type_symbol
_atom_site_label
_atom_site_fract_x
_atom_site_fract_y
_atom_site_fract_z
Si Si1 0.739653 0.500302 0.924165
Si Si2 0.408242 0.658892 0.500087
Si Si3 0.591174 0.558933 0.660169
Si Si4 0.247912 0.340974 0.831383
Si Si5 0.322712 0.321378 0.454305
Si Si6 0.500000 0.908028 0.750000
Si Si7 0.381434 0.162179 0.733058
Si Si8 0.914436 0.558349 0.428676
O O1 0.665917 0.526343 0.790136
O O2 0.772423 0.426567 0.827717
O O3 0.775345 0.605671 0.025679
O O4 0.725336 0.419704 0.057282
O O5 0.431322 0.627646 0.708489
O O6 0.435038 0.557600 0.422964
O O7 0.327412 0.662499 0.426867
O O8 0.422729 0.767333 0.412182
O O9 0.606111 0.629598 0.516244
O O10 0.207462 0.240088 0.731036
O O11 0.325626 0.249946 0.621079
O O12 0.558348 0.868780 0.692380
O O13 0.463863 0.984290 0.584691
O O14 0.400398 0.138635 0.564748
O O15 0.374864 0.042714 0.799492
#
# Coordination Sequence:
#
# PCOD9259349 Si02
#       8
#     8   8   8   8   8   4   8   8
#     4  10  18  36  49  69  95 143 201 260 292 361
#     4  10  19  36  55  75 111 153 199 263 283 350
#     4  10  18  35  55  73 101 150 199 249 298 341
#     4  10  21  34  54  68 100 157 212 251 310 336
#     4  12  21  35  54  75 112 156 201 268 292 344
#     4   8  16  40  68  84 124 152 170 216 272 374
#     4  11  22  36  55  85 126 149 189 243 286 333
#     4   9  20  37  62  94 120 152 181 217 287 359
#
# _framework density 28.743566999999999
#
# number of rings (size 3 to 8) (size 9 to 14) (size 15 to 20)
#    0.000    1.867    6.667    0.400    0.000    5.333 
#    0.000    0.000    0.000    0.000    0.000    0.000 
#    0.000  213.333    0.000    0.000    0.000    0.000 
#
# Total GULP energy -167141.672425 kJ/mol
# GULP energy per Si atom -5571.389081 kJ/mol
# Density = 2.867815 g / cm^3
# Si number density = 28.743567 Si / 1000 Ang^3
#
#
#
# Elastic Constant Matrix: (Units=GPa)
#
#
# Indices 1 2 3 4 5 6 
#
# 1 49.4768 30.3410 25.3632 0.0000 -21.3911 0.0000
# 2 30.3410 156.4142 49.8079 0.0000 -21.2025 0.0000
# 3 25.3632 49.8079 127.5295 0.0000 -51.0086 0.0000
# 4 0.0000 0.0000 0.0000 130.6020 0.0000 22.1462
# 5 -21.3911 -21.2025 -51.0086 0.0000 43.3884 0.0000
# 6 0.0000 0.0000 0.0000 22.1462 0.0000 53.7289
#
#
#
# Elastic Compliance Matrix: (Units=1/GPa)
#
#
# Indices 1 2 3 4 5 6 
#
# 1 0.027729 -0.004012 0.001389 0.000000 0.013343 0.000000
# 2 -0.004012 0.007886 -0.002891 0.000000 -0.001524 0.000000
# 3 0.001389 -0.002891 0.015862 0.000000 0.017919 0.000000
# 4 0.000000 0.000000 0.000000 0.008232 0.000000 -0.003393
# 5 0.013343 -0.001524 0.017919 0.000000 0.049948 0.000000
# 6 0.000000 0.000000 0.000000 -0.003393 0.000000 0.020011
#
#
# Mechanical properties :
#
#
# Convention : Reuss Voigt Hill
#
# Bulk Modulus (GPa) = 24.72356 60.49386 42.60871
# Shear Modulus (GPa) = 32.42999 60.73775 46.58387
#
# Velocity S-wave (km/s) = 3.36259 4.60182 4.03012
# Velocity P-wave (km/s) = 4.86787 7.02335 6.04250
#
# Compressibility (1/GPa) = 0.04044725
#
# Stress axis : x y z
#
# Youngs Moduli (GPa) = 36.06355 126.81074 63.04554
#
# Poissons Ratio (x) = 0.50883 -0.08760
# Poissons Ratio (y) = 0.14470 0.18229
# Poissons Ratio (z) = -0.05011 0.36666
#
# Static dielectric constant tensor:
#      x y z
#    x 2.543380 0.000000 -0.020050 
#    y 0.000000 2.274000 0.000000 
#    z -0.020050 0.000000 2.251710 
# 
# From -- ./inp_files/69124.got.cif
#   From: 2010.05.17/outbox.cif.g08.bks.cpg/sg15_35_cif.got.tgz:69124.got - 2010.06.03 18:47:42.
