data_PCOD9259060
_publ_section_title
;
Structure prediction by ZEFSAII (Michael W. Deem and Ramdas Pophale) SiO2 
 PCOD9259060
Probable space group: C 2/C
;
_chemical_formula_sum "Si O2"
_cell_formula_units_Z 60
_cell_length_a 13.428948
_cell_length_b 17.324683
_cell_length_c 23.779071
_cell_angle_alpha 90.000000
_cell_angle_beta 147.467141
_cell_angle_gamma 90.000000
_cell_volume 2975.153695
_symmetry_space_group_name_H-M "C 2/C"
_symmetry_group_IT_number 15
_symmetry_cell_setting 'monoclinic'
loop_
_space_group_symop_operation_xyz
x,y,z
-x,y,1/2-z
-x,-y,-z
x,-y,1/2+z
1/2+x,1/2+y,z
1/2-x,1/2+y,1/2-z
1/2-x,1/2-y,-z
1/2+x,1/2-y,1/2+z
loop_
_atom_site_type_symbol
_atom_site_label
_atom_site_fract_x
_atom_site_fract_y
_atom_site_fract_z
Si Si1 0.049270 0.088821 0.891156
Si Si2 0.729668 0.673223 0.529232
Si Si3 0.000000 0.863906 0.750000
Si Si4 0.719610 0.049642 0.040951
Si Si5 0.182741 0.386872 0.160155
Si Si6 0.994676 0.171665 0.968939
Si Si7 0.889163 0.720786 0.770770
Si Si8 0.164815 0.784926 0.364860
O O1 0.087729 0.174153 0.883823
O O2 0.845698 0.067901 0.770269
O O3 0.204335 0.033458 0.939746
O O4 0.044159 0.095848 0.956073
O O5 0.750000 0.750000 0.500000
O O6 0.722074 0.602717 0.483799
O O7 0.561801 0.668896 0.492688
O O8 0.923349 0.674163 0.655613
O O9 0.830629 0.915833 0.647067
O O10 0.936314 0.807089 0.770897
O O11 0.499535 0.063291 0.939398
O O12 0.134330 0.311813 0.176343
O O13 0.264920 0.353518 0.142183
O O14 0.166183 0.228802 0.044359
O O15 0.806460 0.201871 0.850253
O O16 0.000000 0.746709 0.250000
#
# Coordination Sequence:
#
# PCOD9259060 Si02
#       8
#     8   8   4   8   8   8   8   8
#     4  10  24  42  55  86 123 162 200 232 300 370
#     4  11  19  36  61  91 122 145 195 256 298 339
#     4  12  20  32  60  90 122 138 194 258 288 344
#     4  11  24  38  57  88 123 152 196 249 298 360
#     4   9  21  39  63  80 119 157 191 250 311 335
#     4  11  20  37  64  85 118 161 196 242 298 350
#     4  10  18  34  58  96 112 143 195 248 301 348
#     4  10  21  39  61  83 114 157 204 245 288 352
#
# _framework density 20.167024999999999
#
# number of rings (size 3 to 8) (size 9 to 14) (size 15 to 20)
#    0.000    1.600    2.667    2.800    2.800    1.067 
#    2.400    1.333    0.000    1.600    0.000    0.000 
#    0.000    0.000    0.000    0.000    0.000    0.000 
#
# Total GULP energy -167195.595500 kJ/mol
# GULP energy per Si atom -5573.186517 kJ/mol
# Density = 2.012112 g / cm^3
# Si number density = 20.167025 Si / 1000 Ang^3
#
#
#
# Elastic Constant Matrix: (Units=GPa)
#
#
# Indices 1 2 3 4 5 6 
#
# 1 93.2373 9.6140 24.0788 0.0000 2.8256 0.0000
# 2 9.6140 29.8953 21.6228 0.0001 -4.1188 0.0000
# 3 24.0788 21.6228 126.0818 0.0001 12.4093 0.0000
# 4 0.0000 0.0001 0.0001 23.3475 0.0000 3.5941
# 5 2.8256 -4.1188 12.4093 0.0000 32.0069 0.0000
# 6 0.0000 0.0000 0.0000 3.5941 0.0000 30.8350
#
#
#
# Elastic Compliance Matrix: (Units=1/GPa)
#
#
# Indices 1 2 3 4 5 6 
#
# 1 0.011444 -0.002561 -0.001678 0.000000 -0.000689 0.000000
# 2 -0.002561 0.040702 -0.007308 0.000000 0.008297 0.000000
# 3 -0.001678 -0.007308 0.009963 0.000000 -0.004655 0.000000
# 4 0.000000 0.000000 0.000000 0.043614 0.000000 -0.005084
# 5 -0.000689 0.008297 -0.004655 0.000000 0.034177 0.000000
# 6 0.000000 0.000000 0.000000 -0.005084 0.000000 0.033023
#
#
# Mechanical properties :
#
#
# Convention : Reuss Voigt Hill
#
# Bulk Modulus (GPa) = 25.63142 39.98285 32.80713
# Shear Modulus (GPa) = 23.92082 30.16448 27.04265
#
# Velocity S-wave (km/s) = 3.44777 3.87167 3.66585
# Velocity P-wave (km/s) = 5.34665 6.31310 5.84987
#
# Compressibility (1/GPa) = 0.03901462
#
# Stress axis : x y z
#
# Youngs Moduli (GPa) = 87.38389 24.56854 100.36766
#
# Poissons Ratio (x) = 0.06292 0.16846
# Poissons Ratio (y) = 0.22380 0.73348
# Poissons Ratio (z) = 0.14667 0.17954
#
# Static dielectric constant tensor:
#      x y z
#    x 1.772040 0.000000 -0.026980 
#    y 0.000000 1.717510 0.000000 
#    z -0.026980 0.000000 1.778290 
# 
# From -- ./inp_files/296819.got.cif
#   From: 2010.05.17/outbox.cif.g08.bks.cpg/sg15_149_cif.got.tgz:296819.got - 2010.06.03 18:47:42.
