data_PCOD9259050
_publ_section_title
;
Structure prediction by ZEFSAII (Michael W. Deem and Ramdas Pophale) SiO2 
 PCOD9259050
Probable space group: C 2/C
;
_chemical_formula_sum "Si O2"
_cell_formula_units_Z 60
_cell_length_a 26.948798
_cell_length_b 18.021613
_cell_length_c 16.032608
_cell_angle_alpha 90.000000
_cell_angle_beta 158.127316
_cell_angle_gamma 90.000000
_cell_volume 2900.790916
_symmetry_space_group_name_H-M "C 2/C"
_symmetry_group_IT_number 15
_symmetry_cell_setting 'monoclinic'
loop_
_space_group_symop_operation_xyz
x,y,z
-x,y,1/2-z
-x,-y,-z
x,-y,1/2+z
1/2+x,1/2+y,z
1/2-x,1/2+y,1/2-z
1/2-x,1/2-y,-z
1/2+x,1/2-y,1/2+z
loop_
_atom_site_type_symbol
_atom_site_label
_atom_site_fract_x
_atom_site_fract_y
_atom_site_fract_z
Si Si1 0.505589 0.382201 0.162154
Si Si2 0.500000 0.894716 0.750000
Si Si3 0.039718 0.288654 0.950734
Si Si4 0.377726 0.985722 0.175556
Si Si5 0.109232 0.749602 0.735183
Si Si6 0.196011 0.617472 0.347303
Si Si7 0.398960 0.142676 0.479499
Si Si8 0.823381 0.895100 0.736994
O O1 0.500000 0.405765 0.250000
O O2 0.463280 0.295541 0.085762
O O3 0.661817 0.384529 0.387543
O O4 0.414712 0.426248 0.954278
O O5 0.580115 0.842435 0.938776
O O6 0.594281 0.949938 0.847486
O O7 0.894706 0.320136 0.750481
O O8 0.116873 0.294688 0.158860
O O9 0.498181 0.926786 0.361382
O O10 0.364847 0.034748 0.238378
O O11 0.243233 0.946049 0.936455
O O12 0.088231 0.833286 0.671361
O O13 0.993641 0.713580 0.610782
O O14 0.250000 0.750000 0.000000
O O15 0.195853 0.636673 0.249320
O O16 0.305711 0.140192 0.415370
#
# Coordination Sequence:
#
# PCOD9259050 Si02
#       8
#     8   4   8   8   8   8   8   8
#     4  11  20  37  58  81 117 153 197 246 299 364
#     4  10  18  34  58  92 120 150 198 260 290 354
#     4   9  20  35  57  87 118 150 196 248 306 346
#     4  11  21  36  59  88 121 152 204 249 305 361
#     4  10  21  36  58  90 122 156 199 249 300 358
#     4  10  22  36  59  86 115 157 196 254 303 358
#     4  11  20  39  62  89 120 160 208 248 303 363
#     4  11  22  38  62  89 120 166 199 248 308 363
#
# _framework density 20.684014000000001
#
# number of rings (size 3 to 8) (size 9 to 14) (size 15 to 20)
#    0.000    1.600    4.667    0.800    0.000    0.533 
#    0.000    0.000    0.000    1.600    0.000    0.000 
#    0.000    0.000    0.000    0.000    0.000    0.000 
#
# Total GULP energy -167264.791750 kJ/mol
# GULP energy per Si atom -5575.493058 kJ/mol
# Density = 2.063694 g / cm^3
# Si number density = 20.684014 Si / 1000 Ang^3
#
#
#
# Elastic Constant Matrix: (Units=GPa)
#
#
# Indices 1 2 3 4 5 6 
#
# 1 45.1473 4.4135 6.9593 0.0000 -3.4496 0.0000
# 2 4.4135 53.2827 1.0723 0.0000 10.9175 0.0000
# 3 6.9593 1.0723 105.3717 0.0000 -7.9716 0.0000
# 4 0.0000 0.0000 0.0000 16.5170 0.0000 -0.7912
# 5 -3.4496 10.9175 -7.9716 0.0000 24.2165 0.0000
# 6 0.0000 0.0000 0.0000 -0.7912 0.0000 17.0668
#
#
#
# Elastic Compliance Matrix: (Units=1/GPa)
#
#
# Indices 1 2 3 4 5 6 
#
# 1 0.022909 -0.002714 -0.001175 0.000000 0.004100 0.000000
# 2 -0.002714 0.021090 -0.000804 0.000000 -0.010159 0.000000
# 3 -0.001175 -0.000804 0.009836 0.000000 0.003433 0.000000
# 4 0.000000 0.000000 0.000000 0.060678 0.000000 0.002813
# 5 0.004100 -0.010159 0.003433 0.000000 0.047588 0.000000
# 6 0.000000 0.000000 0.000000 0.002813 0.000000 0.058724
#
#
# Mechanical properties :
#
#
# Convention : Reuss Voigt Hill
#
# Bulk Modulus (GPa) = 22.49767 25.41021 23.95394
# Shear Modulus (GPa) = 20.40574 24.31717 22.36145
#
# Velocity S-wave (km/s) = 3.14434 3.43250 3.29157
# Velocity P-wave (km/s) = 4.90744 5.29349 5.10411
#
# Compressibility (1/GPa) = 0.04444904
#
# Stress axis : x y z
#
# Youngs Moduli (GPa) = 43.65009 47.41483 101.67033
#
# Poissons Ratio (x) = 0.12869 0.11949
# Poissons Ratio (y) = 0.11847 0.08174
# Poissons Ratio (z) = 0.05130 0.03812
#
# Static dielectric constant tensor:
#      x y z
#    x 1.829290 0.000000 -0.013260 
#    y 0.000000 1.765380 0.000000 
#    z -0.013260 0.000000 1.764810 
# 
# From -- ./inp_files/225789.got.cif
#   From: 2010.05.17/outbox.cif.g08.bks.cpg/sg15_113_cif.got.tgz:225789.got - 2010.06.03 18:47:42.
