data_PCOD9259183
_publ_section_title
;
Structure prediction by ZEFSAII (Michael W. Deem and Ramdas Pophale) SiO2 
 PCOD9259183
Probable space group: C 2/C
;
_chemical_formula_sum "Si O2"
_cell_formula_units_Z 48
_cell_length_a 8.132142
_cell_length_b 28.971904
_cell_length_c 12.072514
_cell_angle_alpha 90.000000
_cell_angle_beta 137.164734
_cell_angle_gamma 90.000000
_cell_volume 1933.838248
_symmetry_space_group_name_H-M "C 2/C"
_symmetry_group_IT_number 15
_symmetry_cell_setting 'monoclinic'
loop_
_space_group_symop_operation_xyz
x,y,z
-x,y,1/2-z
-x,-y,-z
x,-y,1/2+z
1/2+x,1/2+y,z
1/2-x,1/2+y,1/2-z
1/2-x,1/2-y,-z
1/2+x,1/2-y,1/2+z
loop_
_atom_site_type_symbol
_atom_site_label
_atom_site_fract_x
_atom_site_fract_y
_atom_site_fract_z
Si Si1 0.598785 0.908336 0.425043
Si Si2 0.512566 0.272490 0.634583
Si Si3 0.139491 0.840551 0.499273
Si Si4 0.894708 0.067353 0.406929
Si Si5 0.801515 0.019226 0.747084
Si Si6 0.670086 0.176303 0.637315
O O1 0.500000 0.906556 0.250000
O O2 0.882377 0.918374 0.562931
O O3 0.428609 0.948373 0.393302
O O4 0.550810 0.857733 0.449691
O O5 0.500000 0.294052 0.750000
O O6 0.250000 0.250000 0.500000
O O7 0.582450 0.306351 0.571189
O O8 0.672556 0.226247 0.695999
O O9 0.223034 0.887795 0.596682
O O10 0.892375 0.849691 0.307992
O O11 0.303220 0.819726 0.482046
O O12 0.040315 0.042889 0.578150
O O13 0.729668 0.030418 0.262575
O O14 0.000000 0.013845 0.750000
#
# Coordination Sequence:
#
# PCOD9259183 Si02
#       6
#     8   8   8   8   8   8
#     4  10  18  34  61  89 120 157 215 257 300 380
#     4  12  24  41  65  97 129 166 213 261 315 380
#     4  11  22  39  65  91 131 162 206 264 319 377
#     4  10  21  36  58  90 119 161 208 255 314 375
#     4  10  20  35  57  84 120 159 209 255 312 364
#     4  11  21  39  65  95 122 166 214 258 315 380
#
# _framework density 24.821103999999998
#
# number of rings (size 3 to 8) (size 9 to 14) (size 15 to 20)
#    0.000    1.333    5.000    3.000    0.000    1.333 
#    0.000    3.333    0.000    2.000    0.000    0.000 
#    0.000    0.000    0.000    0.000    0.000    0.000 
#
# Total GULP energy -134216.839860 kJ/mol
# GULP energy per Si atom -5592.368328 kJ/mol
# Density = 2.476461 g / cm^3
# Si number density = 24.821104 Si / 1000 Ang^3
#
#
#
# Elastic Constant Matrix: (Units=GPa)
#
#
# Indices 1 2 3 4 5 6 
#
# 1 81.5584 35.2786 41.3131 0.0000 -42.2700 0.0000
# 2 35.2786 133.8598 41.4040 0.0000 -31.6176 0.0000
# 3 41.3131 41.4040 83.1184 0.0000 -24.5720 0.0000
# 4 0.0000 0.0000 0.0000 -44.4999 0.0000 -4.4522
# 5 -42.2700 -31.6176 -24.5720 0.0000 41.7241 0.0000
# 6 0.0000 0.0000 0.0000 -4.4522 0.0000 31.1180
#
#
#
# Elastic Compliance Matrix: (Units=1/GPa)
#
#
# Indices 1 2 3 4 5 6 
#
# 1 0.028768 0.000619 -0.007086 0.000000 0.025440 0.000000
# 2 0.000619 0.009785 -0.003396 0.000000 0.006042 0.000000
# 3 -0.007086 -0.003396 0.017389 0.000000 0.000489 0.000000
# 4 0.000000 0.000000 0.000000 -0.022155 0.000000 -0.003170
# 5 0.025440 0.006042 0.000489 0.000000 0.054607 0.000000
# 6 0.000000 0.000000 0.000000 -0.003170 0.000000 0.031682
#
#
# Mechanical properties :
#
#
# Convention : Reuss Voigt Hill
#
# Bulk Modulus (GPa) = 27.61194 59.39201 43.50198
# Shear Modulus (GPa) = 32.92202 17.70450 25.31326
#
# Velocity S-wave (km/s) = 3.64589 2.67364 3.19694
# Velocity P-wave (km/s) = 5.37326 5.78888 5.58493
#
# Compressibility (1/GPa) = 0.03621621
#
# Stress axis : x y z
#
# Youngs Moduli (GPa) = 34.76059 102.19949 57.50720
#
# Poissons Ratio (x) = -0.06327 0.40752
# Poissons Ratio (y) = -0.02152 0.19527
# Poissons Ratio (z) = 0.24633 0.34703
#
# Static dielectric constant tensor:
#      x y z
#    x 2.158380 0.000000 -0.038120 
#    y 0.000000 2.115970 0.000000 
#    z -0.038120 0.000000 1.995840 
# 
# From -- ./inp_files/80950.got.cif
#   From: 2010.05.17/outbox.cif.g08.bks.cpg/sg15_41_cif.got.tgz:80950.got - 2010.06.03 18:47:42.
