data_PCOD9259305
_publ_section_title
;
Structure prediction by ZEFSAII (Michael W. Deem and Ramdas Pophale) SiO2 
 PCOD9259305
Probable space group: C 2/C
;
_chemical_formula_sum "Si O2"
_cell_formula_units_Z 28
_cell_length_a 23.646487
_cell_length_b 7.397302
_cell_length_c 11.457227
_cell_angle_alpha 90.000000
_cell_angle_beta 29.561483
_cell_angle_gamma 90.000000
_cell_volume 988.737489
_symmetry_space_group_name_H-M "C 2/C"
_symmetry_group_IT_number 15
_symmetry_cell_setting 'monoclinic'
loop_
_space_group_symop_operation_xyz
x,y,z
-x,y,1/2-z
-x,-y,-z
x,-y,1/2+z
1/2+x,1/2+y,z
1/2-x,1/2+y,1/2-z
1/2-x,1/2-y,-z
1/2+x,1/2-y,1/2+z
loop_
_atom_site_type_symbol
_atom_site_label
_atom_site_fract_x
_atom_site_fract_y
_atom_site_fract_z
Si Si1 0.140956 0.796815 0.919049
Si Si2 0.438477 0.769994 0.603002
Si Si3 0.500000 0.624038 0.250000
Si Si4 0.718392 0.978343 0.476984
O O1 0.165051 0.644173 0.969553
O O2 0.249149 0.833972 0.640724
O O3 0.032898 0.761409 0.030997
O O4 0.107023 0.984481 0.045441
O O5 0.491324 0.746797 0.380449
O O6 0.340252 0.614943 0.788928
O O7 0.366845 0.950803 0.761732
#
# Coordination Sequence:
#
# PCOD9259305 Si02
#       4
#     8   8   4   8
#     4  11  21  39  67  95 130 169 214 268 321 385
#     4  10  21  38  67  93 130 173 212 266 321 386
#     4  10  18  34  66  90 122 176 210 250 328 378
#     4  10  21  37  68  97 126 171 220 257 331 384
#
# _framework density 28.318943999999998
#
# number of rings (size 3 to 8) (size 9 to 14) (size 15 to 20)
#    0.000    1.714    2.857    3.429    4.000    0.000 
#    0.000    7.143   25.143    0.000    0.000    0.000 
#    0.000    0.000    0.000    0.000    0.000    0.000 
#
# Total GULP energy -78616.856693 kJ/mol
# GULP energy per Si atom -5615.489764 kJ/mol
# Density = 2.825449 g / cm^3
# Si number density = 28.318944 Si / 1000 Ang^3
#
#
#
# Elastic Constant Matrix: (Units=GPa)
#
#
# Indices 1 2 3 4 5 6 
#
# 1 198.1618 37.9255 67.3613 0.0000 -18.8002 0.0000
# 2 37.9255 79.5229 44.3339 0.0000 -4.4357 0.0000
# 3 67.3613 44.3339 207.6476 0.0000 22.7181 0.0000
# 4 0.0000 0.0000 0.0000 56.9173 0.0000 5.3102
# 5 -18.8002 -4.4357 22.7181 0.0000 43.7490 0.0000
# 6 0.0000 0.0000 0.0000 5.3102 0.0000 35.4090
#
#
#
# Elastic Compliance Matrix: (Units=1/GPa)
#
#
# Indices 1 2 3 4 5 6 
#
# 1 0.006446 -0.001674 -0.002140 0.000000 0.003712 0.000000
# 2 -0.001674 0.015148 -0.002948 0.000000 0.002347 0.000000
# 3 -0.002140 -0.002948 0.006651 0.000000 -0.004672 0.000000
# 4 0.000000 0.000000 0.000000 0.017819 0.000000 -0.002672
# 5 0.003712 0.002347 -0.004672 0.000000 0.027117 0.000000
# 6 0.000000 0.000000 0.000000 -0.002672 0.000000 0.028642
#
#
# Mechanical properties :
#
#
# Convention : Reuss Voigt Hill
#
# Bulk Modulus (GPa) = 67.93103 87.17486 77.55295
# Shear Modulus (GPa) = 41.57904 49.59583 45.58744
#
# Velocity S-wave (km/s) = 3.83592 4.18943 4.01657
# Velocity P-wave (km/s) = 6.60749 7.36558 6.99681
#
# Compressibility (1/GPa) = 0.01472081
#
# Stress axis : x y z
#
# Youngs Moduli (GPa) = 155.12664 66.01612 150.36461
#
# Poissons Ratio (x) = 0.11054 0.32175
# Poissons Ratio (y) = 0.25974 0.44324
# Poissons Ratio (z) = 0.33194 0.19460
#
# Static dielectric constant tensor:
#      x y z
#    x 2.118810 0.000000 0.025710 
#    y 0.000000 2.221400 0.000000 
#    z 0.025710 0.000000 2.257160 
# 
# From -- ./inp_files/117061.got.cif
#   From: 2010.05.17/outbox.cif.g08.bks.cpg/sg15_59_cif.got.tgz:117061.got - 2010.06.03 18:47:42.
