data_PCOD9259618
_publ_section_title
;
Structure prediction by ZEFSAII (Michael W. Deem and Ramdas Pophale) SiO2 
 PCOD9259618
Probable space group: C 2/C
;
_chemical_formula_sum "Si O2"
_cell_formula_units_Z 40
_cell_length_a 8.019932
_cell_length_b 24.241191
_cell_length_c 9.095904
_cell_angle_alpha 90.000000
_cell_angle_beta 75.410757
_cell_angle_gamma 90.000000
_cell_volume 1711.341155
_symmetry_space_group_name_H-M "C 2/C"
_symmetry_group_IT_number 15
_symmetry_cell_setting 'monoclinic'
loop_
_space_group_symop_operation_xyz
x,y,z
-x,y,1/2-z
-x,-y,-z
x,-y,1/2+z
1/2+x,1/2+y,z
1/2-x,1/2+y,1/2-z
1/2-x,1/2-y,-z
1/2+x,1/2-y,1/2+z
loop_
_atom_site_type_symbol
_atom_site_label
_atom_site_fract_x
_atom_site_fract_y
_atom_site_fract_z
Si Si1 0.876557 0.387826 0.636956
Si Si2 0.255359 0.961398 0.435449
Si Si3 0.631651 0.584683 0.420522
Si Si4 0.804706 0.115156 0.789005
Si Si5 0.158278 0.701536 0.608421
O O1 0.876561 0.444235 0.542690
O O2 0.690244 0.386066 0.758824
O O3 0.898355 0.341562 0.506475
O O4 0.000000 0.385685 0.750000
O O5 0.303230 0.931008 0.272417
O O6 0.069506 0.932121 0.518787
O O7 0.223655 0.025067 0.414856
O O8 0.715604 0.620992 0.533449
O O9 0.784349 0.168992 0.693365
O O10 0.000000 0.093321 0.750000
O O11 0.250000 0.750000 0.500000
O O12 0.000000 0.717964 0.750000
#
# Coordination Sequence:
#
# PCOD9259618 Si02
#       5
#     8   8   8   8   8
#     4  11  23  38  60  91 126 162 202 254 312 370
#     4   9  19  34  58  92 130 171 210 244 285 353
#     4  10  18  35  61  91 127 168 210 247 289 352
#     4   9  19  36  60  90 124 161 204 253 303 361
#     4  11  26  47  67  89 119 157 206 266 327 384
#
# _framework density 23.373481000000002
#
# number of rings (size 3 to 8) (size 9 to 14) (size 15 to 20)
#    0.000    2.000    0.000    3.000    0.000    9.600 
#    0.000    8.000    0.000    0.000    0.000    0.000 
#    0.000    0.000    0.000    0.000    0.000    0.000 
#
# Total GULP energy -111531.454130 kJ/mol
# GULP energy per Si atom -5576.572707 kJ/mol
# Density = 2.332028 g / cm^3
# Si number density = 23.373481 Si / 1000 Ang^3
#
#
#
# Elastic Constant Matrix: (Units=GPa)
#
#
# Indices 1 2 3 4 5 6 
#
# 1 91.8141 18.4192 46.5343 0.0000 11.3348 0.0000
# 2 18.4192 79.5546 45.4076 0.0000 7.2985 0.0000
# 3 46.5343 45.4076 187.0001 0.0000 12.9185 0.0000
# 4 0.0000 0.0000 0.0000 -76.0085 0.0000 44.4294
# 5 11.3348 7.2985 12.9185 0.0000 52.7497 0.0000
# 6 0.0000 0.0000 0.0000 44.4294 0.0000 -2.6760
#
#
#
# Elastic Compliance Matrix: (Units=1/GPa)
#
#
# Indices 1 2 3 4 5 6 
#
# 1 0.012763 -0.001211 -0.002751 0.000000 -0.001901 0.000000
# 2 -0.001211 0.014779 -0.003219 0.000000 -0.000996 0.000000
# 3 -0.002751 -0.003219 0.006858 0.000000 -0.000643 0.000000
# 4 0.000000 0.000000 0.000000 0.001511 0.000000 0.025093
# 5 -0.001901 -0.000996 -0.000643 0.000000 0.019661 0.000000
# 6 0.000000 0.000000 0.000000 0.025093 0.000000 0.042929
#
#
# Mechanical properties :
#
#
# Convention : Reuss Voigt Hill
#
# Bulk Modulus (GPa) = 49.89920 64.34344 57.12132
# Shear Modulus (GPa) = 41.82650 11.34687 26.58669
#
# Velocity S-wave (km/s) = 4.23482 2.20570 3.37630
# Velocity P-wave (km/s) = 6.73102 5.83738 6.30006
#
# Compressibility (1/GPa) = 0.02004040
#
# Stress axis : x y z
#
# Youngs Moduli (GPa) = 78.34919 67.66484 145.81350
#
# Poissons Ratio (x) = 0.08191 0.40111
# Poissons Ratio (y) = 0.09485 0.46930
# Poissons Ratio (z) = 0.21552 0.21778
#
# Static dielectric constant tensor:
#      x y z
#    x 2.010620 0.000000 -0.104290 
#    y 0.000000 1.838470 0.000000 
#    z -0.104290 0.000000 2.028240 
# 
# From -- ./inp_files/24455.got.cif
#   From: 2010.05.17/outbox.cif.g08.bks.cpg/sg15_13_cif.got.tgz:24455.got - 2010.06.03 18:47:42.
