data_PCOD9259582
_publ_section_title
;
Structure prediction by ZEFSAII (Michael W. Deem and Ramdas Pophale) SiO2 
 PCOD9259582
Probable space group: C 2/C
;
_chemical_formula_sum "Si O2"
_cell_formula_units_Z 56
_cell_length_a 14.700257
_cell_length_b 14.188018
_cell_length_c 13.517846
_cell_angle_alpha 90.000000
_cell_angle_beta 115.804969
_cell_angle_gamma 90.000000
_cell_volume 2538.237454
_symmetry_space_group_name_H-M "C 2/C"
_symmetry_group_IT_number 15
_symmetry_cell_setting 'monoclinic'
loop_
_space_group_symop_operation_xyz
x,y,z
-x,y,1/2-z
-x,-y,-z
x,-y,1/2+z
1/2+x,1/2+y,z
1/2-x,1/2+y,1/2-z
1/2-x,1/2-y,-z
1/2+x,1/2-y,1/2+z
loop_
_atom_site_type_symbol
_atom_site_label
_atom_site_fract_x
_atom_site_fract_y
_atom_site_fract_z
Si Si1 0.509269 0.454984 0.358368
Si Si2 0.761329 0.822247 0.856650
Si Si3 0.697204 0.473179 0.041595
Si Si4 0.594173 0.260429 0.422967
Si Si5 0.206385 0.149965 0.714504
Si Si6 0.830630 0.517525 0.918396
Si Si7 0.016497 0.586688 0.142890
O O1 0.500000 0.507746 0.250000
O O2 0.576952 0.518105 0.462948
O O3 0.580764 0.363863 0.373557
O O4 0.403392 0.403505 0.332832
O O5 0.775468 0.934565 0.877065
O O6 0.677241 0.795083 0.899058
O O7 0.726139 0.760225 0.746782
O O8 0.866021 0.778804 0.948142
O O9 0.735644 0.382148 0.118259
O O10 0.751774 0.478293 0.961167
O O11 0.493910 0.199588 0.366522
O O12 0.274799 0.097573 0.828931
O O13 0.883137 0.450083 0.862150
O O14 0.923081 0.553428 0.030641
O O15 0.000000 0.557865 0.250000
#
# Coordination Sequence:
#
# PCOD9259582 Si02
#       7
#     8   8   8   8   8   8   8
#     4  11  20  35  61  92 125 164 212 270 312 368
#     4  10  19  36  60  89 125 156 206 270 311 368
#     4  11  23  39  61  94 130 171 210 263 325 376
#     4  10  18  35  60  91 121 151 205 267 322 360
#     4  12  22  38  62  92 126 169 212 267 321 377
#     4  11  22  37  56  89 130 163 201 260 317 389
#     4  11  22  35  57  92 127 162 204 254 317 386
#
# _framework density 22.062553000000001
#
# number of rings (size 3 to 8) (size 9 to 14) (size 15 to 20)
#    0.000    1.143    5.714    2.571    0.000    0.000 
#    0.000    0.000    0.000    3.429    0.000    0.000 
#    0.000    0.000    0.000    0.000    0.000    0.000 
#
# Total GULP energy -156106.936652 kJ/mol
# GULP energy per Si atom -5575.247738 kJ/mol
# Density = 2.201234 g / cm^3
# Si number density = 22.062553 Si / 1000 Ang^3
#
#
#
# Elastic Constant Matrix: (Units=GPa)
#
#
# Indices 1 2 3 4 5 6 
#
# 1 80.7898 10.6384 35.3695 0.0000 4.4100 0.0000
# 2 10.6384 69.9382 46.3001 0.0000 -3.3921 0.0000
# 3 35.3695 46.3001 145.0439 0.0000 12.3920 0.0000
# 4 0.0000 0.0000 0.0000 32.5294 0.0000 4.7369
# 5 4.4100 -3.3921 12.3920 0.0000 39.2462 0.0000
# 6 0.0000 0.0000 0.0000 4.7369 0.0000 24.2380
#
#
#
# Elastic Compliance Matrix: (Units=1/GPa)
#
#
# Indices 1 2 3 4 5 6 
#
# 1 0.013867 0.000099 -0.003372 0.000000 -0.000485 0.000000
# 2 0.000099 0.018607 -0.006269 0.000000 0.003577 0.000000
# 3 -0.003372 -0.006269 0.010002 0.000000 -0.003321 0.000000
# 4 0.000000 0.000000 0.000000 0.031642 0.000000 -0.006184
# 5 -0.000485 0.003577 -0.003321 0.000000 0.026892 0.000000
# 6 0.000000 0.000000 0.000000 -0.006184 0.000000 0.042466
#
#
# Mechanical properties :
#
#
# Convention : Reuss Voigt Hill
#
# Bulk Modulus (GPa) = 42.74920 53.37644 48.06282
# Shear Modulus (GPa) = 29.34991 32.76698 31.05844
#
# Velocity S-wave (km/s) = 3.65129 3.85799 3.75606
# Velocity P-wave (km/s) = 6.09871 6.64012 6.37517
#
# Compressibility (1/GPa) = 0.02339225
#
# Stress axis : x y z
#
# Youngs Moduli (GPa) = 72.11161 53.74272 99.98244
#
# Poissons Ratio (x) = -0.00534 0.33713
# Poissons Ratio (y) = -0.00716 0.62684
# Poissons Ratio (z) = 0.24315 0.33694
#
# Static dielectric constant tensor:
#      x y z
#    x 1.887610 0.000000 0.015380 
#    y 0.000000 1.819820 0.000000 
#    z 0.015380 0.000000 1.883600 
# 
# From -- ./inp_files/98384.got.cif
#   From: 2010.05.17/outbox.cif.g08.bks.cpg/sg15_50_cif.got.tgz:98384.got - 2010.06.03 18:47:42.
