data_PCOD9259387
_publ_section_title
;
Structure prediction by ZEFSAII (Michael W. Deem and Ramdas Pophale) SiO2 
 PCOD9259387
Probable space group: C 2/C
;
_chemical_formula_sum "Si O2"
_cell_formula_units_Z 60
_cell_length_a 26.137733
_cell_length_b 9.674902
_cell_length_c 18.452144
_cell_angle_alpha 90.000000
_cell_angle_beta 45.810836
_cell_angle_gamma 90.000000
_cell_volume 3345.847879
_symmetry_space_group_name_H-M "C 2/C"
_symmetry_group_IT_number 15
_symmetry_cell_setting 'monoclinic'
loop_
_space_group_symop_operation_xyz
x,y,z
-x,y,1/2-z
-x,-y,-z
x,-y,1/2+z
1/2+x,1/2+y,z
1/2-x,1/2+y,1/2-z
1/2-x,1/2-y,-z
1/2+x,1/2-y,1/2+z
loop_
_atom_site_type_symbol
_atom_site_label
_atom_site_fract_x
_atom_site_fract_y
_atom_site_fract_z
Si Si1 0.720377 0.943499 0.241905
Si Si2 0.401596 0.138053 0.099307
Si Si3 0.629292 0.560557 0.827245
Si Si4 0.000000 0.320604 0.750000
Si Si5 0.354919 0.332652 0.345508
Si Si6 0.126726 0.218402 0.403891
Si Si7 0.268665 0.612735 0.071941
Si Si8 0.025216 0.445327 0.574010
O O1 0.790299 0.931400 0.221683
O O2 0.671831 0.810823 0.303350
O O3 0.677420 0.078190 0.312931
O O4 0.741691 0.974412 0.138227
O O5 0.406819 0.299970 0.107335
O O6 0.446960 0.060191 0.116743
O O7 0.434605 0.082498 0.992014
O O8 0.631399 0.572629 0.738315
O O9 0.599778 0.419632 0.890954
O O10 0.069091 0.230282 0.704625
O O11 0.022367 0.415386 0.660779
O O12 0.314095 0.402309 0.453611
O O13 0.299698 0.210962 0.375518
O O14 0.178873 0.179961 0.419478
O O15 0.066289 0.317216 0.495765
#
# Coordination Sequence:
#
# PCOD9259387 Si02
#       8
#     8   8   8   4   8   8   8   8
#     4  10  18  35  56  83 112 147 190 242 277 331
#     4  10  20  36  56  82 116 144 193 237 284 332
#     4  11  19  34  56  83 114 146 188 234 286 337
#     4  12  20  36  58  84 120 146 200 234 294 340
#     4  11  21  34  55  86 111 152 189 240 286 347
#     4  10  20  33  57  85 113 150 193 233 284 346
#     4  10  19  34  55  82 114 147 192 242 283 336
#     4  10  21  36  57  84 111 153 188 240 282 345
#
# _framework density 17.932673999999999
#
# number of rings (size 3 to 8) (size 9 to 14) (size 15 to 20)
#    0.000    1.600    5.333    0.800    0.000    0.533 
#    0.000    0.667    0.000   12.000    0.000    0.000 
#    0.000    0.000    0.000    0.000    0.000    0.000 
#
# Total GULP energy -167334.306417 kJ/mol
# GULP energy per Si atom -5577.810214 kJ/mol
# Density = 1.789186 g / cm^3
# Si number density = 17.932674 Si / 1000 Ang^3
#
#
#
# Elastic Constant Matrix: (Units=GPa)
#
#
# Indices 1 2 3 4 5 6 
#
# 1 77.7827 7.8588 41.7120 -0.0004 10.0326 0.0002
# 2 7.8588 77.9150 52.5693 -0.0007 20.2596 0.0011
# 3 41.7120 52.5693 122.9153 -0.0001 32.0098 0.0004
# 4 -0.0004 -0.0007 -0.0001 22.8601 0.0000 9.2608
# 5 10.0326 20.2596 32.0098 0.0000 32.5568 0.0000
# 6 0.0002 0.0011 0.0004 9.2608 0.0000 24.0148
#
#
#
# Elastic Compliance Matrix: (Units=1/GPa)
#
#
# Indices 1 2 3 4 5 6 
#
# 1 0.016175 0.002941 -0.006683 0.000000 -0.000243 0.000000
# 2 0.002941 0.019174 -0.007871 0.000001 -0.005100 -0.000001
# 3 -0.006683 -0.007871 0.016074 0.000000 -0.008846 0.000000
# 4 0.000000 0.000001 0.000000 0.051843 0.000000 -0.019992
# 5 -0.000243 -0.005100 -0.008846 0.000000 0.042662 0.000001
# 6 0.000000 -0.000001 0.000000 -0.019992 0.000001 0.049351
#
#
# Mechanical properties :
#
#
# Convention : Reuss Voigt Hill
#
# Bulk Modulus (GPa) = 35.46493 53.65480 44.55986
# Shear Modulus (GPa) = 21.93915 27.65119 24.79517
#
# Velocity S-wave (km/s) = 3.50153 3.93102 3.72248
# Velocity P-wave (km/s) = 6.01392 7.11259 6.58621
#
# Compressibility (1/GPa) = 0.02819687
#
# Stress axis : x y z
#
# Youngs Moduli (GPa) = 61.82507 52.15340 62.21344
#
# Poissons Ratio (x) = -0.15339 0.41580
# Poissons Ratio (y) = -0.18184 0.48966
# Poissons Ratio (z) = 0.41321 0.41048
#
# Static dielectric constant tensor:
#      x y z
#    x 1.620560 0.000000 -0.017910 
#    y 0.000000 1.618820 0.000000 
#    z -0.017910 0.000000 1.634460 
# 
# From -- ./inp_files/221884.got.cif
#   From: 2010.05.17/outbox.cif.g08.bks.cpg/sg15_111_cif.got.tgz:221884.got - 2010.06.03 18:47:42.
