data_PCOD9259448
_publ_section_title
;
Structure prediction by ZEFSAII (Michael W. Deem and Ramdas Pophale) SiO2 
 PCOD9259448
Probable space group: C 2/C
;
_chemical_formula_sum "Si O2"
_cell_formula_units_Z 64
_cell_length_a 32.134190
_cell_length_b 14.914610
_cell_length_c 12.465459
_cell_angle_alpha 90.000000
_cell_angle_beta 145.192110
_cell_angle_gamma 90.000000
_cell_volume 3410.293571
_symmetry_space_group_name_H-M "C 2/C"
_symmetry_group_IT_number 15
_symmetry_cell_setting 'monoclinic'
loop_
_space_group_symop_operation_xyz
x,y,z
-x,y,1/2-z
-x,-y,-z
x,-y,1/2+z
1/2+x,1/2+y,z
1/2-x,1/2+y,1/2-z
1/2-x,1/2-y,-z
1/2+x,1/2-y,1/2+z
loop_
_atom_site_type_symbol
_atom_site_label
_atom_site_fract_x
_atom_site_fract_y
_atom_site_fract_z
Si Si1 0.801938 0.910295 0.241132
Si Si2 0.382907 0.861909 0.178884
Si Si3 0.370691 0.921944 0.386266
Si Si4 0.084374 0.233968 0.430695
Si Si5 0.051887 0.402692 0.517429
Si Si6 0.133629 0.656218 0.400735
Si Si7 0.234597 0.448498 0.723645
Si Si8 0.703694 0.320187 0.476370
O O1 0.859946 0.840543 0.410950
O O2 0.814359 0.902698 0.140054
O O3 0.800458 0.005428 0.297704
O O4 0.718019 0.877153 0.079607
O O5 0.362260 0.865408 0.259919
O O6 0.387812 0.768128 0.126062
O O7 0.465633 0.896167 0.344653
O O8 0.327532 0.923254 0.994050
O O9 0.393258 0.864892 0.537420
O O10 0.427440 0.001741 0.486121
O O11 0.298174 0.978402 0.263196
O O12 0.080791 0.321989 0.501652
O O13 0.000000 0.202895 0.250000
O O14 0.090345 0.391815 0.713965
O O15 0.137108 0.760814 0.377498
O O16 0.254321 0.360734 0.833645
O O17 0.750000 0.250000 0.500000
#
# Coordination Sequence:
#
# PCOD9259448 Si02
#       8
#     8   8   8   8   8   8   8   8
#     4  10  20  36  57  82 108 146 195 243 278 340
#     4  11  22  34  52  81 122 154 183 236 298 352
#     4  11  21  33  47  81 118 149 186 233 294 349
#     4  10  21  38  59  82 109 150 198 238 286 344
#     4  11  21  34  54  81 115 160 194 231 279 359
#     4  10  21  33  54  82 111 155 194 231 285 348
#     4  11  21  34  55  85 113 147 193 242 289 340
#     4  10  18  35  58  78 111 147 192 235 282 345
#
# _framework density 18.766714
#
# number of rings (size 3 to 8) (size 9 to 14) (size 15 to 20)
#    0.000    1.500    2.500    5.625    0.000    1.500 
#    0.000    6.875    0.000    0.750    3.250    0.000 
#    0.000    0.000    0.000    0.000    0.000    0.000 
#
# Total GULP energy -178510.437454 kJ/mol
# GULP energy per Si atom -5578.451170 kJ/mol
# Density = 1.872400 g / cm^3
# Si number density = 18.766714 Si / 1000 Ang^3
#
#
#
# Elastic Constant Matrix: (Units=GPa)
#
#
# Indices 1 2 3 4 5 6 
#
# 1 90.7086 40.8198 51.0115 0.0000 -32.1705 0.0000
# 2 40.8198 52.5031 35.0317 0.0000 -5.1577 0.0000
# 3 51.0115 35.0317 110.1931 0.0000 -14.2974 0.0000
# 4 0.0000 0.0000 0.0000 18.2450 0.0000 -5.7637
# 5 -32.1705 -5.1577 -14.2974 0.0000 28.8199 0.0000
# 6 0.0000 0.0000 0.0000 -5.7637 0.0000 26.1821
#
#
#
# Elastic Compliance Matrix: (Units=1/GPa)
#
#
# Indices 1 2 3 4 5 6 
#
# 1 0.034571 -0.020083 -0.005428 0.000000 0.032303 0.000000
# 2 -0.020083 0.035849 -0.004463 0.000000 -0.018217 0.000000
# 3 -0.005428 -0.004463 0.012951 0.000000 -0.000433 0.000000
# 4 0.000000 0.000000 0.000000 0.058906 0.000000 0.012967
# 5 0.032303 -0.018217 -0.000433 0.000000 0.067282 0.000000
# 6 0.000000 0.000000 0.000000 0.012967 0.000000 0.041049
#
#
# Mechanical properties :
#
#
# Convention : Reuss Voigt Hill
#
# Bulk Modulus (GPa) = 42.69517 56.34786 49.52151
# Shear Modulus (GPa) = 15.70532 23.08553 19.39542
#
# Velocity S-wave (km/s) = 2.89601 3.51113 3.21830
# Velocity P-wave (km/s) = 5.82944 6.82114 6.34470
#
# Compressibility (1/GPa) = 0.02342185
#
# Stress axis : x y z
#
# Youngs Moduli (GPa) = 28.92601 27.89471 77.21701
#
# Poissons Ratio (x) = 0.56021 0.41913
# Poissons Ratio (y) = 0.58092 0.34465
# Poissons Ratio (z) = 0.15701 0.12451
#
# Static dielectric constant tensor:
#      x y z
#    x 1.717420 0.000000 -0.014220 
#    y 0.000000 1.716780 0.000000 
#    z -0.014220 0.000000 1.688570 
# 
# From -- ./inp_files/126896.got.cif
#   From: 2010.05.17/outbox.cif.g08.bks.cpg/sg15_64_cif.got.tgz:126896.got - 2010.06.03 18:47:42.
