data_PCOD9259595
_publ_section_title
;
Structure prediction by ZEFSAII (Michael W. Deem and Ramdas Pophale) SiO2 
 PCOD9259595
Probable space group: C 2/C
;
_chemical_formula_sum "Si O2"
_cell_formula_units_Z 32
_cell_length_a 38.278320
_cell_length_b 6.888177
_cell_length_c 5.278809
_cell_angle_alpha 90.000000
_cell_angle_beta 81.523550
_cell_angle_gamma 90.000000
_cell_volume 1376.648334
_symmetry_space_group_name_H-M "C 2/C"
_symmetry_group_IT_number 15
_symmetry_cell_setting 'monoclinic'
loop_
_space_group_symop_operation_xyz
x,y,z
-x,y,1/2-z
-x,-y,-z
x,-y,1/2+z
1/2+x,1/2+y,z
1/2-x,1/2+y,1/2-z
1/2-x,1/2-y,-z
1/2+x,1/2-y,1/2+z
loop_
_atom_site_type_symbol
_atom_site_label
_atom_site_fract_x
_atom_site_fract_y
_atom_site_fract_z
Si Si1 0.539389 0.130757 0.179755
Si Si2 0.284883 0.625705 0.507798
Si Si3 0.889241 0.792846 0.248235
Si Si4 0.860895 0.766755 0.777582
O O1 0.500000 0.216146 0.250000
O O2 0.571032 0.281049 0.192585
O O3 0.542258 0.970762 0.402324
O O4 0.285236 0.540882 0.790920
O O5 0.250000 0.750000 0.500000
O O6 0.321048 0.741269 0.417518
O O7 0.865362 0.692126 0.488654
O O8 0.873318 0.007675 0.227435
O O9 0.886352 0.698271 0.974934
#
# Coordination Sequence:
#
# PCOD9259595 Si02
#       4
#     8   8   8   8
#     4  10  21  37  55  83 122 156 189 241 301 358
#     4  12  23  43  66  91 127 169 205 261 326 376
#     4  10  18  35  61  81 107 156 192 235 293 348
#     4  10  19  37  61  79 113 147 195 246 294 343
#
# _framework density 23.244862999999999
#
# number of rings (size 3 to 8) (size 9 to 14) (size 15 to 20)
#    0.000    1.500    5.000    2.250    0.000    0.000 
#    0.000   12.500    0.000    0.000    0.000    0.000 
#    0.000    0.000    0.000    0.000    0.000    0.000 
#
# Total GULP energy -89369.431023 kJ/mol
# GULP energy per Si atom -5585.589439 kJ/mol
# Density = 2.319196 g / cm^3
# Si number density = 23.244863 Si / 1000 Ang^3
#
#
#
# Elastic Constant Matrix: (Units=GPa)
#
#
# Indices 1 2 3 4 5 6 
#
# 1 154.8222 -4.7202 -17.8510 0.0000 -9.7995 0.0000
# 2 -4.7202 44.1473 -20.5654 0.0000 -6.9713 0.0000
# 3 -17.8510 -20.5654 131.7579 0.0000 2.4102 0.0000
# 4 0.0000 0.0000 0.0000 -43.1061 0.0000 -9.5498
# 5 -9.7995 -6.9713 2.4102 0.0000 40.6784 0.0000
# 6 0.0000 0.0000 0.0000 -9.5498 0.0000 38.6703
#
#
#
# Elastic Compliance Matrix: (Units=1/GPa)
#
#
# Indices 1 2 3 4 5 6 
#
# 1 0.006750 0.001531 0.001120 0.000000 0.001822 0.000000
# 2 0.001531 0.025431 0.004095 0.000000 0.004485 0.000000
# 3 0.001120 0.004095 0.008372 0.000000 0.000476 0.000000
# 4 0.000000 0.000000 0.000000 -0.021995 0.000000 -0.005432
# 5 0.001822 0.004485 0.000476 0.000000 0.025762 0.000000
# 6 0.000000 0.000000 0.000000 -0.005432 0.000000 0.024518
#
#
# Mechanical properties :
#
#
# Convention : Reuss Voigt Hill
#
# Bulk Modulus (GPa) = 18.50292 27.16157 22.83224
# Shear Modulus (GPa) = 68.15626 32.17279 50.16453
#
# Velocity S-wave (km/s) = 5.42076 3.72436 4.65057
# Velocity P-wave (km/s) = 6.86708 5.49589 6.21939
#
# Compressibility (1/GPa) = 0.05404552
#
# Stress axis : x y z
#
# Youngs Moduli (GPa) = 148.14356 39.32242 119.44744
#
# Poissons Ratio (x) = -0.06021 -0.13381
# Poissons Ratio (y) = -0.22685 -0.48911
# Poissons Ratio (z) = -0.16595 -0.16102
#
# Static dielectric constant tensor:
#      x y z
#    x 1.849960 0.000000 0.002390 
#    y 0.000000 3.430850 0.000000 
#    z 0.002390 0.000000 1.954230 
# 
# From -- ./inp_files/17900.got.cif
#   From: 2010.05.17/outbox.cif.g08.bks.cpg/sg15_9_cif.got.tgz:17900.got - 2010.06.03 18:47:42.
