data_PCOD9259744
_publ_section_title
;
Structure prediction by ZEFSAII (Michael W. Deem and Ramdas Pophale) SiO2 
 PCOD9259744
Probable space group: C 2/C
;
_chemical_formula_sum "Si O2"
_cell_formula_units_Z 48
_cell_length_a 20.808674
_cell_length_b 23.418280
_cell_length_c 15.902333
_cell_angle_alpha 90.000000
_cell_angle_beta 19.780883
_cell_angle_gamma 90.000000
_cell_volume 2622.535422
_symmetry_space_group_name_H-M "C 2/C"
_symmetry_group_IT_number 15
_symmetry_cell_setting 'monoclinic'
loop_
_space_group_symop_operation_xyz
x,y,z
-x,y,1/2-z
-x,-y,-z
x,-y,1/2+z
1/2+x,1/2+y,z
1/2-x,1/2+y,1/2-z
1/2-x,1/2-y,-z
1/2+x,1/2-y,1/2+z
loop_
_atom_site_type_symbol
_atom_site_label
_atom_site_fract_x
_atom_site_fract_y
_atom_site_fract_z
Si Si1 0.406019 0.517665 0.528432
Si Si2 0.000000 0.946601 0.250000
Si Si3 0.776804 0.190155 0.515345
Si Si4 0.081921 0.590835 0.241679
Si Si5 0.500000 0.890012 0.250000
Si Si6 0.450176 0.033951 0.955212
Si Si7 0.178691 0.377673 0.285917
O O1 0.500000 0.500000 0.500000
O O2 0.496311 0.488950 0.335386
O O3 0.368637 0.585878 0.573914
O O4 0.205160 0.485139 0.786919
O O5 0.809683 0.907983 0.474549
O O6 0.750000 0.250000 0.500000
O O7 0.652143 0.147776 0.611973
O O8 0.704579 0.180087 0.700634
O O9 0.000000 0.177109 0.250000
O O10 0.000000 0.605505 0.250000
O O11 0.037295 0.523910 0.312204
O O12 0.959461 0.624184 0.463454
O O13 0.617410 0.930377 0.042087
O O14 0.587503 0.077478 0.832619
#
# Coordination Sequence:
#
# PCOD9259744 Si02
#       7
#     8   4   8   8   4   8   8
#     4  11  22  30  50  83 117 163 208 230 281 359
#     4  12  20  32  51  72 122 164 203 240 270 346
#     4  11  24  42  63  86 115 144 200 253 313 357
#     4  11  20  35  52  81 120 161 200 234 285 352
#     4  10  22  36  61  84 116 158 187 244 298 362
#     4  10  18  36  49  73 122 159 194 231 283 341
#     4  10  21  37  53  77 120 157 192 252 293 341
#
# _framework density 18.302899
#
# number of rings (size 3 to 8) (size 9 to 14) (size 15 to 20)
#    0.000    1.333    5.000    3.000    3.500    0.000 
#    0.000    0.000    0.000    0.000    0.000    1.167 
#    2.500    0.000    0.000    0.000    0.000    0.000 
#
# Total GULP energy -133644.834134 kJ/mol
# GULP energy per Si atom -5568.534756 kJ/mol
# Density = 1.826124 g / cm^3
# Si number density = 18.302899 Si / 1000 Ang^3
#
#
#
# Elastic Constant Matrix: (Units=GPa)
#
#
# Indices 1 2 3 4 5 6 
#
# 1 131.5913 32.7754 52.7627 0.0101 16.1819 0.0021
# 2 32.7754 56.0366 27.6683 0.1178 15.0236 -0.0083
# 3 52.7627 27.6683 96.7821 0.0460 13.4830 0.0126
# 4 0.0101 0.1178 0.0460 15.5852 -0.0010 8.9654
# 5 16.1819 15.0236 13.4830 -0.0010 41.3834 -0.0146
# 6 0.0021 -0.0083 0.0126 8.9654 -0.0146 21.8664
#
#
#
# Elastic Compliance Matrix: (Units=1/GPa)
#
#
# Indices 1 2 3 4 5 6 
#
# 1 0.010447 -0.003530 -0.004500 0.000044 -0.001337 -0.000019
# 2 -0.003530 0.023431 -0.003961 -0.000220 -0.005835 0.000098
# 3 -0.004500 -0.003961 0.014113 -0.000004 -0.001401 -0.000009
# 4 0.000044 -0.000220 -0.000004 0.083970 0.000054 -0.034429
# 5 -0.001337 -0.005835 -0.001401 0.000054 0.027262 -0.000005
# 6 -0.000019 0.000098 -0.000009 -0.034429 -0.000005 0.059848
#
#
# Mechanical properties :
#
#
# Convention : Reuss Voigt Hill
#
# Bulk Modulus (GPa) = 41.65067 56.75809 49.20438
# Shear Modulus (GPa) = 19.91575 27.18058 23.54817
#
# Velocity S-wave (km/s) = 3.30225 3.85781 3.59079
# Velocity P-wave (km/s) = 6.11110 7.13592 6.64330
#
# Compressibility (1/GPa) = 0.02400922
#
# Stress axis : x y z
#
# Youngs Moduli (GPa) = 95.71804 42.67871 70.85533
#
# Poissons Ratio (x) = 0.15066 0.31885
# Poissons Ratio (y) = 0.33790 0.28065
# Poissons Ratio (z) = 0.43074 0.16905
#
# Static dielectric constant tensor:
#      x y z
#    x 4.172070 -0.002860 -1.982380 
#    y -0.002860 1.620660 0.002250 
#    z -1.982380 0.002250 3.225230 
# 
# From -- ./inp_files/32058.got.cif
#   From: 2010.05.17/outbox.cif.g08.bks.cpg/sg15_17_cif.got.tgz:32058.got - 2010.06.03 18:47:42.
