data_PCOD9259601
_publ_section_title
;
Structure prediction by ZEFSAII (Michael W. Deem and Ramdas Pophale) SiO2 
 PCOD9259601
Probable space group: C 2/C
;
_chemical_formula_sum "Si O2"
_cell_formula_units_Z 40
_cell_length_a 15.445490
_cell_length_b 11.425924
_cell_length_c 12.052628
_cell_angle_alpha 90.000000
_cell_angle_beta 59.206738
_cell_angle_gamma 90.000000
_cell_volume 1827.166414
_symmetry_space_group_name_H-M "C 2/C"
_symmetry_group_IT_number 15
_symmetry_cell_setting 'monoclinic'
loop_
_space_group_symop_operation_xyz
x,y,z
-x,y,1/2-z
-x,-y,-z
x,-y,1/2+z
1/2+x,1/2+y,z
1/2-x,1/2+y,1/2-z
1/2-x,1/2-y,-z
1/2+x,1/2-y,1/2+z
loop_
_atom_site_type_symbol
_atom_site_label
_atom_site_fract_x
_atom_site_fract_y
_atom_site_fract_z
Si Si1 0.016667 0.948721 0.627688
Si Si2 0.665221 0.818114 0.485084
Si Si3 0.033371 0.187441 0.898287
Si Si4 0.256989 0.440489 0.983863
Si Si5 0.240471 0.740556 0.691367
O O1 0.133926 0.984565 0.545115
O O2 0.000000 0.877105 0.750000
O O3 0.993109 0.869859 0.539099
O O4 0.951390 0.066675 0.678888
O O5 0.750000 0.750000 0.500000
O O6 0.553794 0.771395 0.588224
O O7 0.684826 0.792104 0.341756
O O8 0.683775 0.953655 0.502094
O O9 0.140927 0.241951 0.853286
O O10 0.276743 0.362834 0.860739
O O11 0.221193 0.356330 0.107693
#
# Coordination Sequence:
#
# PCOD9259601 Si02
#       5
#     8   8   8   8   8
#     4  10  18  35  61  85 119 153 202 250 294 351
#     4  12  24  38  65  93 122 157 208 249 304 353
#     4  10  22  36  58  92 115 157 203 243 298 356
#     4  10  22  41  62  87 125 161 198 249 308 355
#     4  10  24  42  63  88 126 160 200 249 304 364
#
# _framework density 21.891822000000001
#
# number of rings (size 3 to 8) (size 9 to 14) (size 15 to 20)
#    0.000    1.600    2.000    2.400    2.800    0.800 
#    0.000    0.000    4.400    0.000    0.000    0.000 
#    0.000    0.000    0.000    0.000    0.000    0.000 
#
# Total GULP energy -111676.853711 kJ/mol
# GULP energy per Si atom -5583.842686 kJ/mol
# Density = 2.184200 g / cm^3
# Si number density = 21.891822 Si / 1000 Ang^3
#
#
#
# Elastic Constant Matrix: (Units=GPa)
#
#
# Indices 1 2 3 4 5 6 
#
# 1 118.6679 50.0315 -0.2880 0.0000 -6.6263 0.0000
# 2 50.0315 103.5793 11.8349 0.0000 -7.5387 0.0000
# 3 -0.2880 11.8349 84.0483 0.0000 22.7891 0.0000
# 4 0.0000 0.0000 0.0000 9.1088 0.0000 4.3158
# 5 -6.6263 -7.5387 22.7891 0.0000 31.1016 0.0000
# 6 0.0000 0.0000 0.0000 4.3158 0.0000 43.9778
#
#
#
# Elastic Compliance Matrix: (Units=1/GPa)
#
#
# Indices 1 2 3 4 5 6 
#
# 1 0.010639 -0.005167 0.000610 0.000000 0.000567 0.000000
# 2 -0.005167 0.012790 -0.002946 0.000000 0.004158 0.000000
# 3 0.000610 -0.002946 0.015566 0.000000 -0.011989 0.000000
# 4 0.000000 0.000000 0.000000 0.115138 0.000000 -0.011299
# 5 0.000567 0.004158 -0.011989 0.000000 0.042066 0.000000
# 6 0.000000 0.000000 0.000000 -0.011299 0.000000 0.023848
#
#
# Mechanical properties :
#
#
# Convention : Reuss Voigt Hill
#
# Bulk Modulus (GPa) = 41.68717 47.71691 44.70204
# Shear Modulus (GPa) = 20.57214 33.15212 26.86213
#
# Velocity S-wave (km/s) = 3.06881 3.89570 3.50671
# Velocity P-wave (km/s) = 5.62499 6.48686 6.07123
#
# Compressibility (1/GPa) = 0.02398820
#
# Stress axis : x y z
#
# Youngs Moduli (GPa) = 93.99788 78.18903 64.24388
#
# Poissons Ratio (x) = 0.40402 -0.03921
# Poissons Ratio (y) = 0.48570 0.18926
# Poissons Ratio (z) = -0.05737 0.23034
#
# Static dielectric constant tensor:
#      x y z
#    x 1.823040 0.000000 0.062900 
#    y 0.000000 1.807030 0.000000 
#    z 0.062900 0.000000 1.920390 
# 
# From -- ./inp_files/94674.got.cif
#   From: 2010.05.17/outbox.cif.g08.bks.cpg/sg15_48_cif.got.tgz:94674.got - 2010.06.03 18:47:42.
