data_PCOD9259238
_publ_section_title
;
Structure prediction by ZEFSAII (Michael W. Deem and Ramdas Pophale) SiO2 
 PCOD9259238
Probable space group: C 2/C
;
_chemical_formula_sum "Si O2"
_cell_formula_units_Z 60
_cell_length_a 14.401954
_cell_length_b 7.011237
_cell_length_c 24.789308
_cell_angle_alpha 90.000000
_cell_angle_beta 86.338730
_cell_angle_gamma 90.000000
_cell_volume 2498.004262
_symmetry_space_group_name_H-M "C 2/C"
_symmetry_group_IT_number 15
_symmetry_cell_setting 'monoclinic'
loop_
_space_group_symop_operation_xyz
x,y,z
-x,y,1/2-z
-x,-y,-z
x,-y,1/2+z
1/2+x,1/2+y,z
1/2-x,1/2+y,1/2-z
1/2-x,1/2-y,-z
1/2+x,1/2-y,1/2+z
loop_
_atom_site_type_symbol
_atom_site_label
_atom_site_fract_x
_atom_site_fract_y
_atom_site_fract_z
Si Si1 0.073940 0.099104 0.703798
Si Si2 0.209671 0.530393 0.804667
Si Si3 0.024960 0.719671 0.511613
Si Si4 0.887130 0.466743 0.303904
Si Si5 0.750000 0.250000 0.500000
Si Si6 0.220657 0.160607 0.875287
Si Si7 0.484493 0.336067 0.099655
Si Si8 0.958144 0.623505 0.626466
O O1 0.181372 0.054751 0.708888
O O2 0.071162 0.327309 0.708122
O O3 0.000000 0.022365 0.750000
O O4 0.049143 0.071272 0.642073
O O5 0.157763 0.583322 0.751466
O O6 0.205805 0.316100 0.828359
O O7 0.148736 0.643531 0.851368
O O8 0.135700 0.741365 0.504727
O O9 0.982445 0.840590 0.463456
O O10 0.000000 0.500000 0.500000
O O11 0.985168 0.742092 0.572835
O O12 0.803561 0.472030 0.350676
O O13 0.968945 0.342617 0.327423
O O14 0.751138 0.246182 0.567742
O O15 0.118209 0.079256 0.888137
O O16 0.473443 0.105075 0.112080
#
# Coordination Sequence:
#
# PCOD9259238 Si02
#       8
#     8   8   8   8   4   8   8   8
#     4  11  22  39  57  80 118 159 199 241 307 373
#     4  11  22  36  56  86 121 153 193 251 308 364
#     4   9  16  30  55  87 116 149 204 250 297 357
#     4  11  19  35  61  86 114 150 200 245 297 361
#     4  10  18  34  62  92 120 156 204 258 308 362
#     4  10  20  36  62  91 115 154 201 250 297 355
#     4   8  17  32  55  79 110 152 189 239 290 357
#     4   9  17  32  53  82 113 147 192 242 289 355
#
# _framework density 24.019174
#
# number of rings (size 3 to 8) (size 9 to 14) (size 15 to 20)
#    0.000    2.133    1.333    5.200    0.000    0.000 
#    0.000    5.333    0.000    1.600    0.000    0.000 
#    0.000    0.000    0.000    0.000    0.000    0.000 
#
# Total GULP energy -167036.486827 kJ/mol
# GULP energy per Si atom -5567.882894 kJ/mol
# Density = 2.396451 g / cm^3
# Si number density = 24.019174 Si / 1000 Ang^3
#
#
#
# Elastic Constant Matrix: (Units=GPa)
#
#
# Indices 1 2 3 4 5 6 
#
# 1 147.1076 12.0626 81.5972 0.0000 -6.8025 0.0000
# 2 12.0626 64.9282 33.1956 0.0000 -8.6225 0.0000
# 3 81.5972 33.1956 185.5180 0.0000 -13.6051 0.0000
# 4 0.0000 0.0000 0.0000 13.6273 0.0000 -10.2758
# 5 -6.8025 -8.6225 -13.6051 0.0000 45.3696 0.0000
# 6 0.0000 0.0000 0.0000 -10.2758 0.0000 23.1864
#
#
#
# Elastic Compliance Matrix: (Units=1/GPa)
#
#
# Indices 1 2 3 4 5 6 
#
# 1 0.009002 0.000411 -0.004017 0.000000 0.000223 0.000000
# 2 0.000411 0.017223 -0.003086 0.000000 0.002409 0.000000
# 3 -0.004017 -0.003086 0.007793 0.000000 0.001148 0.000000
# 4 0.000000 0.000000 0.000000 0.110214 0.000000 0.048845
# 5 0.000223 0.002409 0.001148 0.000000 0.022877 0.000000
# 6 0.000000 0.000000 0.000000 0.048845 0.000000 0.064776
#
#
# Mechanical properties :
#
#
# Convention : Reuss Voigt Hill
#
# Bulk Modulus (GPa) = 48.46060 72.36273 60.41166
# Shear Modulus (GPa) = 19.82970 34.48322 27.15646
#
# Velocity S-wave (km/s) = 2.87640 3.79311 3.36611
# Velocity P-wave (km/s) = 5.59028 7.02681 6.34930
#
# Compressibility (1/GPa) = 0.02063532
#
# Stress axis : x y z
#
# Youngs Moduli (GPa) = 111.08228 58.06208 128.31475
#
# Poissons Ratio (x) = -0.02385 0.51540
# Poissons Ratio (y) = -0.04563 0.39595
# Poissons Ratio (z) = 0.44618 0.17916
#
# Static dielectric constant tensor:
#      x y z
#    x 1.864460 0.000000 0.038250 
#    y 0.000000 1.786470 0.000000 
#    z 0.038250 0.000000 1.935920 
# 
# From -- ./inp_files/272754.got.cif
#   From: 2010.05.17/outbox.cif.g08.bks.cpg/sg15_137_cif.got.tgz:272754.got - 2010.06.03 18:47:42.
