data_PCOD9259083
_publ_section_title
;
Structure prediction by ZEFSAII (Michael W. Deem and Ramdas Pophale) SiO2 
 PCOD9259083
Probable space group: C 2/C
;
_chemical_formula_sum "Si O2"
_cell_formula_units_Z 32
_cell_length_a 24.388867
_cell_length_b 7.871770
_cell_length_c 19.478469
_cell_angle_alpha 90.000000
_cell_angle_beta 19.125326
_cell_angle_gamma 90.000000
_cell_volume 1225.208118
_symmetry_space_group_name_H-M "C 2/C"
_symmetry_group_IT_number 15
_symmetry_cell_setting 'monoclinic'
loop_
_space_group_symop_operation_xyz
x,y,z
-x,y,1/2-z
-x,-y,-z
x,-y,1/2+z
1/2+x,1/2+y,z
1/2-x,1/2+y,1/2-z
1/2-x,1/2-y,-z
1/2+x,1/2-y,1/2+z
loop_
_atom_site_type_symbol
_atom_site_label
_atom_site_fract_x
_atom_site_fract_y
_atom_site_fract_z
Si Si1 0.919789 0.321464 0.519587
Si Si2 0.193840 0.484412 0.530931
Si Si3 0.161151 0.092139 0.774472
Si Si4 0.789966 0.139315 0.553001
O O1 0.820027 0.478507 0.607218
O O2 0.915051 0.167748 0.468579
O O3 0.112148 0.360296 0.301328
O O4 0.833489 0.267420 0.691719
O O5 0.318754 0.391175 0.330599
O O6 0.186827 0.681777 0.514384
O O7 0.272164 0.498046 0.514839
O O8 0.000000 0.424200 0.750000
O O9 0.000000 0.000000 0.000000
#
# Coordination Sequence:
#
# PCOD9259083 Si02
#       4
#     8   8   8   8
#     4  11  21  39  64  90 127 161 200 257 310 358
#     4  10  18  34  59  88 119 153 201 258 295 348
#     4  11  22  40  59  94 128 160 200 260 303 363
#     4  10  19  34  60  93 113 157 209 252 295 359
#
# _framework density 26.118012
#
# number of rings (size 3 to 8) (size 9 to 14) (size 15 to 20)
#    0.000    1.500   10.000    0.000    0.000    1.000 
#    0.000    0.000    0.000    6.000    0.000    0.000 
#    0.000    0.000    0.000    0.000    0.000    0.000 
#
# Total GULP energy -89391.313667 kJ/mol
# GULP energy per Si atom -5586.957104 kJ/mol
# Density = 2.605857 g / cm^3
# Si number density = 26.118012 Si / 1000 Ang^3
#
#
#
# Elastic Constant Matrix: (Units=GPa)
#
#
# Indices 1 2 3 4 5 6 
#
# 1 110.0262 32.9982 15.1639 -0.0001 43.6029 0.0000
# 2 32.9982 45.4006 16.9869 0.0000 11.3955 0.0001
# 3 15.1639 16.9869 103.4031 -0.0001 16.6039 0.0001
# 4 -0.0001 0.0000 -0.0001 28.6468 0.0001 14.1428
# 5 43.6029 11.3955 16.6039 0.0001 55.1456 0.0000
# 6 0.0000 0.0001 0.0001 14.1428 0.0000 17.0099
#
#
#
# Elastic Compliance Matrix: (Units=1/GPa)
#
#
# Indices 1 2 3 4 5 6 
#
# 1 0.016166 -0.009307 0.000948 0.000000 -0.011144 0.000000
# 2 -0.009307 0.029643 -0.003891 0.000000 0.002405 0.000000
# 3 0.000948 -0.003891 0.010679 0.000000 -0.003161 0.000000
# 4 0.000000 0.000000 0.000000 0.059214 0.000000 -0.049233
# 5 -0.011144 0.002405 -0.003161 0.000000 0.027400 0.000000
# 6 0.000000 0.000000 0.000000 -0.049233 0.000000 0.099724
#
#
# Mechanical properties :
#
#
# Convention : Reuss Voigt Hill
#
# Bulk Modulus (GPa) = 31.26305 43.23641 37.24973
# Shear Modulus (GPa) = 17.98635 33.07252 25.52944
#
# Velocity S-wave (km/s) = 2.62707 3.56233 3.12984
# Velocity P-wave (km/s) = 4.60412 5.78882 5.23012
#
# Compressibility (1/GPa) = 0.03198664
#
# Stress axis : x y z
#
# Youngs Moduli (GPa) = 61.85884 33.73485 93.64508
#
# Poissons Ratio (x) = 0.31397 -0.08875
# Poissons Ratio (y) = 0.57573 0.36437
# Poissons Ratio (z) = -0.05863 0.13126
#
# Static dielectric constant tensor:
#      x y z
#    x 2.149450 0.000000 0.060480 
#    y 0.000000 2.099440 0.000000 
#    z 0.060480 0.000000 2.007610 
# 
# From -- ./inp_files/36553.got.cif
#   From: 2010.05.17/outbox.cif.g08.bks.cpg/sg15_19_cif.got.tgz:36553.got - 2010.06.03 18:47:42.
