data_PCOD9259792
_publ_section_title
;
Structure prediction by ZEFSAII (Michael W. Deem and Ramdas Pophale) SiO2 
 PCOD9259792
Probable space group: C 2/C
;
_chemical_formula_sum "Si O2"
_cell_formula_units_Z 60
_cell_length_a 8.962779
_cell_length_b 13.128354
_cell_length_c 25.401493
_cell_angle_alpha 90.000000
_cell_angle_beta 95.255970
_cell_angle_gamma 90.000000
_cell_volume 2976.338490
_symmetry_space_group_name_H-M "C 2/C"
_symmetry_group_IT_number 15
_symmetry_cell_setting 'monoclinic'
loop_
_space_group_symop_operation_xyz
x,y,z
-x,y,1/2-z
-x,-y,-z
x,-y,1/2+z
1/2+x,1/2+y,z
1/2-x,1/2+y,1/2-z
1/2-x,1/2-y,-z
1/2+x,1/2-y,1/2+z
loop_
_atom_site_type_symbol
_atom_site_label
_atom_site_fract_x
_atom_site_fract_y
_atom_site_fract_z
Si Si1 0.755759 0.521857 0.833520
Si Si2 0.179933 0.867284 0.169268
Si Si3 0.924177 0.238807 0.516222
Si Si4 0.891058 0.328739 0.886626
Si Si5 0.483572 0.806163 0.308406
Si Si6 0.442883 0.693871 0.084994
Si Si7 0.022006 0.956610 0.417096
Si Si8 0.000000 0.990783 0.250000
O O1 0.870595 0.439561 0.861089
O O2 0.654903 0.562921 0.878605
O O3 0.632861 0.464870 0.791771
O O4 0.847718 0.613206 0.809276
O O5 0.107695 0.755401 0.159366
O O6 0.357037 0.862410 0.180153
O O7 0.098142 0.923134 0.213816
O O8 0.133188 0.926955 0.115388
O O9 0.750000 0.250000 0.500000
O O10 0.954276 0.122819 0.535745
O O11 0.981160 0.308978 0.566302
O O12 0.008913 0.258506 0.464008
O O13 0.734426 0.302524 0.910799
O O14 0.500000 0.759883 0.250000
O O15 0.478478 0.729749 0.358042
O O16 0.477446 0.576325 0.074020
#
# Coordination Sequence:
#
# PCOD9259792 Si02
#       8
#     8   8   8   8   8   8   8   4
#     4  10  20  38  59  84 120 154 196 247 299 357
#     4   9  19  37  55  82 114 153 187 243 291 351
#     4  11  21  37  64  91 121 154 198 254 305 352
#     4   9  21  40  57  85 120 153 196 241 302 355
#     4  11  21  38  57  87 122 151 199 250 291 341
#     4  10  21  39  61  87 114 164 199 239 294 365
#     4   9  20  39  60  87 120 151 199 243 298 364
#     4  10  18  36  56  78 112 158 194 234 300 350
#
# _framework density 20.158999000000001
#
# number of rings (size 3 to 8) (size 9 to 14) (size 15 to 20)
#    0.000    2.133    1.333    1.600    0.000    1.067 
#   20.400    7.333    0.000    0.000    0.000    0.000 
#    0.000    0.000    0.000    0.000    0.000    0.000 
#
# Total GULP energy -167206.202569 kJ/mol
# GULP energy per Si atom -5573.540086 kJ/mol
# Density = 2.011312 g / cm^3
# Si number density = 20.158999 Si / 1000 Ang^3
#
#
#
# Elastic Constant Matrix: (Units=GPa)
#
#
# Indices 1 2 3 4 5 6 
#
# 1 43.0481 11.8562 37.2450 0.0000 28.0138 0.0000
# 2 11.8562 50.1165 35.2919 0.0000 10.2078 0.0000
# 3 37.2450 35.2919 107.5051 0.0000 12.5726 0.0000
# 4 0.0000 0.0000 0.0000 13.6655 0.0000 -0.1274
# 5 28.0138 10.2078 12.5726 0.0000 38.2215 0.0000
# 6 0.0000 0.0000 0.0000 -0.1274 0.0000 76.3297
#
#
#
# Elastic Compliance Matrix: (Units=1/GPa)
#
#
# Indices 1 2 3 4 5 6 
#
# 1 0.069320 0.007915 -0.021242 0.000000 -0.045933 0.000000
# 2 0.007915 0.027553 -0.010658 0.000000 -0.009654 0.000000
# 3 -0.021242 -0.010658 0.018727 0.000000 0.012256 0.000000
# 4 0.000000 0.000000 0.000000 0.073178 0.000000 0.000122
# 5 -0.045933 -0.009654 0.012256 0.000000 0.058376 0.000000
# 6 0.000000 0.000000 0.000000 0.000122 0.000000 0.013101
#
#
# Mechanical properties :
#
#
# Convention : Reuss Voigt Hill
#
# Bulk Modulus (GPa) = 14.78656 41.05065 27.91861
# Shear Modulus (GPa) = 15.11628 33.39511 24.25569
#
# Velocity S-wave (km/s) = 2.74131 4.07453 3.47251
# Velocity P-wave (km/s) = 4.16781 6.52253 5.47330
#
# Compressibility (1/GPa) = 0.06762897
#
# Stress axis : x y z
#
# Youngs Moduli (GPa) = 14.42585 36.29389 53.39909
#
# Poissons Ratio (x) = -0.28728 1.13433
# Poissons Ratio (y) = -0.11419 0.56914
# Poissons Ratio (z) = 0.30644 0.38683
#
# Static dielectric constant tensor:
#      x y z
#    x 1.690620 0.000000 0.018690 
#    y 0.000000 1.775120 0.000000 
#    z 0.018690 0.000000 1.743540 
# 
# From -- ./inp_files/264353.got.cif
#   From: 2010.05.17/outbox.cif.g08.bks.cpg/sg15_133_cif.got.tgz:264353.got - 2010.06.03 18:47:42.
