data_PCOD9259307
_publ_section_title
;
Structure prediction by ZEFSAII (Michael W. Deem and Ramdas Pophale) SiO2 
 PCOD9259307
Probable space group: C 2/C
;
_chemical_formula_sum "Si O2"
_cell_formula_units_Z 60
_cell_length_a 9.243277
_cell_length_b 18.319884
_cell_length_c 17.373552
_cell_angle_alpha 90.000000
_cell_angle_beta 108.022889
_cell_angle_gamma 90.000000
_cell_volume 2797.610318
_symmetry_space_group_name_H-M "C 2/C"
_symmetry_group_IT_number 15
_symmetry_cell_setting 'monoclinic'
loop_
_space_group_symop_operation_xyz
x,y,z
-x,y,1/2-z
-x,-y,-z
x,-y,1/2+z
1/2+x,1/2+y,z
1/2-x,1/2+y,1/2-z
1/2-x,1/2-y,-z
1/2+x,1/2-y,1/2+z
loop_
_atom_site_type_symbol
_atom_site_label
_atom_site_fract_x
_atom_site_fract_y
_atom_site_fract_z
Si Si1 0.444818 0.731062 0.152092
Si Si2 0.417818 0.564841 0.884536
Si Si3 0.371790 0.968116 0.425017
Si Si4 0.261705 0.755410 0.622145
Si Si5 0.094803 0.933993 0.845352
Si Si6 0.176389 0.863054 0.497078
Si Si7 0.910382 0.387657 0.155074
Si Si8 0.000000 0.833445 0.250000
O O1 0.500000 0.727866 0.250000
O O2 0.588232 0.748677 0.121200
O O3 0.383374 0.650108 0.125442
O O4 0.348674 0.805302 0.129318
O O5 0.492177 0.485844 0.882829
O O6 0.504841 0.607039 0.967681
O O7 0.238289 0.562017 0.867815
O O8 0.453633 0.613307 0.813083
O O9 0.266690 0.923250 0.465282
O O10 0.461696 0.915819 0.382083
O O11 0.500000 0.000000 0.500000
O O12 0.258504 0.025880 0.365898
O O13 0.260918 0.837824 0.588495
O O14 0.316315 0.705430 0.560294
O O15 0.363056 0.721701 0.706560
O O16 0.000000 0.933357 0.750000
O O17 0.000000 0.386722 0.250000
#
# Coordination Sequence:
#
# PCOD9259307 Si02
#       8
#     8   8   8   8   8   8   8   4
#     4  10  21  37  62  96 129 155 209 272 321 359
#     4  10  20  36  68  92 118 168 217 253 315 392
#     4  11  24  44  64  93 131 171 209 267 321 381
#     4  10  19  38  61  89 124 165 209 262 305 387
#     4  10  21  41  65  89 127 171 206 252 328 388
#     4   9  21  40  61  87 124 172 205 248 322 386
#     4  11  22  39  68 100 126 157 219 270 315 370
#     4  10  18  34  66  94 122 164 218 260 322 372
#
# _framework density 21.446876
#
# number of rings (size 3 to 8) (size 9 to 14) (size 15 to 20)
#    0.000    1.867    2.000    2.400    1.867    2.133 
#   12.000    4.000    1.467    0.000    0.000    0.000 
#    0.000    0.000    0.000    0.000    0.000    0.000 
#
# Total GULP energy -167232.747748 kJ/mol
# GULP energy per Si atom -5574.424925 kJ/mol
# Density = 2.139806 g / cm^3
# Si number density = 21.446876 Si / 1000 Ang^3
#
#
#
# Elastic Constant Matrix: (Units=GPa)
#
#
# Indices 1 2 3 4 5 6 
#
# 1 86.0236 35.7903 6.2681 0.0000 9.0630 0.0000
# 2 35.7903 121.3196 34.2111 0.0000 11.9782 0.0000
# 3 6.2681 34.2111 59.4350 0.0000 5.7252 0.0000
# 4 0.0000 0.0000 0.0000 25.9042 0.0000 3.7240
# 5 9.0630 11.9782 5.7252 0.0000 26.0652 0.0000
# 6 0.0000 0.0000 0.0000 3.7240 0.0000 17.0596
#
#
#
# Elastic Compliance Matrix: (Units=1/GPa)
#
#
# Indices 1 2 3 4 5 6 
#
# 1 0.013540 -0.004021 0.001187 0.000000 -0.003121 0.000000
# 2 -0.004021 0.011329 -0.005854 0.000000 -0.002522 0.000000
# 3 0.001187 -0.005854 0.020279 0.000000 -0.002177 0.000000
# 4 0.000000 0.000000 0.000000 0.039855 0.000000 -0.008700
# 5 -0.003121 -0.002522 -0.002177 0.000000 0.041088 0.000000
# 6 0.000000 0.000000 0.000000 -0.008700 0.000000 0.060517
#
#
# Mechanical properties :
#
#
# Convention : Reuss Voigt Hill
#
# Bulk Modulus (GPa) = 36.00699 46.59080 41.29890
# Shear Modulus (GPa) = 23.44775 26.50636 24.97706
#
# Velocity S-wave (km/s) = 3.31009 3.51936 3.41633
# Velocity P-wave (km/s) = 5.60663 6.18753 5.90423
#
# Compressibility (1/GPa) = 0.02777238
#
# Stress axis : x y z
#
# Youngs Moduli (GPa) = 73.85545 88.27139 49.31184
#
# Poissons Ratio (x) = 0.35494 -0.05854
# Poissons Ratio (y) = 0.29698 0.28866
# Poissons Ratio (z) = -0.08768 0.51673
#
# Static dielectric constant tensor:
#      x y z
#    x 1.733490 0.000000 0.007130 
#    y 0.000000 1.841600 0.000000 
#    z 0.007130 0.000000 1.873100 
# 
# From -- ./inp_files/190997.got.cif
#   From: 2010.05.17/outbox.cif.g08.bks.cpg/sg15_96_cif.got.tgz:190997.got - 2010.06.03 18:47:42.
