data_PCOD9259901
_publ_section_title
;
Structure prediction by ZEFSAII (Michael W. Deem and Ramdas Pophale) SiO2 
 PCOD9259901
Probable space group: C 2/C
;
_chemical_formula_sum "Si O2"
_cell_formula_units_Z 56
_cell_length_a 12.570396
_cell_length_b 8.523156
_cell_length_c 25.745657
_cell_angle_alpha 90.000000
_cell_angle_beta 63.230704
_cell_angle_gamma 90.000000
_cell_volume 2462.752913
_symmetry_space_group_name_H-M "C 2/C"
_symmetry_group_IT_number 15
_symmetry_cell_setting 'monoclinic'
loop_
_space_group_symop_operation_xyz
x,y,z
-x,y,1/2-z
-x,-y,-z
x,-y,1/2+z
1/2+x,1/2+y,z
1/2-x,1/2+y,1/2-z
1/2-x,1/2-y,-z
1/2+x,1/2-y,1/2+z
loop_
_atom_site_type_symbol
_atom_site_label
_atom_site_fract_x
_atom_site_fract_y
_atom_site_fract_z
Si Si1 0.444143 0.780611 0.959181
Si Si2 0.329240 0.701782 0.433898
Si Si3 0.750844 0.376927 0.076197
Si Si4 0.057316 0.016222 0.890660
Si Si5 0.987810 0.464784 0.365142
Si Si6 0.444035 0.735120 0.709352
Si Si7 0.281605 0.747375 0.177475
O O1 0.342942 0.699047 0.944075
O O2 0.546410 0.648296 0.937529
O O3 0.484482 0.936521 0.919979
O O4 0.379038 0.819557 0.027032
O O5 0.250000 0.750000 0.500000
O O6 0.256480 0.564043 0.422363
O O7 0.452034 0.610665 0.421983
O O8 0.372881 0.852087 0.391917
O O9 0.722617 0.324654 0.140034
O O10 0.175303 0.918668 0.854619
O O11 0.042364 0.114269 0.840551
O O12 0.997052 0.599575 0.319933
O O13 0.103424 0.354281 0.335231
O O14 0.500000 0.672990 0.750000
O O15 0.306059 0.764113 0.754729
#
# Coordination Sequence:
#
# PCOD9259901 Si02
#       7
#     8   8   8   8   8   8   8
#     4   9  18  37  57  86 118 162 197 250 282 365
#     4  10  18  36  58  87 118 160 192 248 294 354
#     4  10  20  35  62  85 121 162 205 232 305 356
#     4   9  21  37  58  88 120 152 197 242 307 354
#     4  10  21  37  59  88 122 150 203 251 304 354
#     4  11  22  43  65  82 114 160 206 249 297 364
#     4  11  22  38  59  89 120 160 192 252 309 359
#
# _framework density 22.738782
#
# number of rings (size 3 to 8) (size 9 to 14) (size 15 to 20)
#    0.000    2.000    1.429    3.429    0.000    1.143 
#    0.000   12.857    0.000    0.000    0.000    0.000 
#    0.000    0.000    0.000    0.000    0.000    0.000 
#
# Total GULP energy -156428.616055 kJ/mol
# GULP energy per Si atom -5586.736288 kJ/mol
# Density = 2.268703 g / cm^3
# Si number density = 22.738782 Si / 1000 Ang^3
#
#
#
# Elastic Constant Matrix: (Units=GPa)
#
#
# Indices 1 2 3 4 5 6 
#
# 1 29.7575 28.0306 27.3362 0.0000 -12.2287 0.0000
# 2 28.0306 141.3406 57.9542 0.0000 -16.1641 0.0000
# 3 27.3362 57.9542 152.9064 0.0000 -37.9465 0.0000
# 4 0.0000 0.0000 0.0000 35.9515 0.0000 -9.5015
# 5 -12.2287 -16.1641 -37.9465 0.0000 38.9625 0.0000
# 6 0.0000 0.0000 0.0000 -9.5015 0.0000 32.4253
#
#
#
# Elastic Compliance Matrix: (Units=1/GPa)
#
#
# Indices 1 2 3 4 5 6 
#
# 1 0.046848 -0.006812 -0.003753 0.000000 0.008223 0.000000
# 2 -0.006812 0.009375 -0.002507 0.000000 -0.000690 0.000000
# 3 -0.003753 -0.002507 0.010036 0.000000 0.007557 0.000000
# 4 0.000000 0.000000 0.000000 0.030150 0.000000 0.008835
# 5 0.008223 -0.000690 0.007557 0.000000 0.035320 0.000000
# 6 0.000000 0.000000 0.000000 0.008835 0.000000 0.033429
#
#
# Mechanical properties :
#
#
# Convention : Reuss Voigt Hill
#
# Bulk Modulus (GPa) = 24.92742 61.18294 43.05518
# Shear Modulus (GPa) = 24.42918 35.51343 29.97130
#
# Velocity S-wave (km/s) = 3.28127 3.95625 3.63446
# Velocity P-wave (km/s) = 5.03408 6.91625 6.04882
#
# Compressibility (1/GPa) = 0.04011646
#
# Stress axis : x y z
#
# Youngs Moduli (GPa) = 21.34561 106.66748 99.63794
#
# Poissons Ratio (x) = 0.72658 0.37395
# Poissons Ratio (y) = 0.14540 0.24976
# Poissons Ratio (z) = 0.08011 0.26738
#
# Static dielectric constant tensor:
#      x y z
#    x 1.977940 0.000000 -0.055400 
#    y 0.000000 1.854910 0.000000 
#    z -0.055400 0.000000 1.794960 
# 
# From -- ./inp_files/295059.got.cif
#   From: 2010.05.17/outbox.cif.g08.bks.cpg/sg15_148_cif.got.tgz:295059.got - 2010.06.03 18:47:42.
