data_PCOD9259485
_publ_section_title
;
Structure prediction by ZEFSAII (Michael W. Deem and Ramdas Pophale) SiO2 
 PCOD9259485
Probable space group: C 2/C
;
_chemical_formula_sum "Si O2"
_cell_formula_units_Z 44
_cell_length_a 5.498498
_cell_length_b 13.593188
_cell_length_c 22.325502
_cell_angle_alpha 90.000000
_cell_angle_beta 99.512742
_cell_angle_gamma 90.000000
_cell_volume 1645.709391
_symmetry_space_group_name_H-M "C 2/C"
_symmetry_group_IT_number 15
_symmetry_cell_setting 'monoclinic'
loop_
_space_group_symop_operation_xyz
x,y,z
-x,y,1/2-z
-x,-y,-z
x,-y,1/2+z
1/2+x,1/2+y,z
1/2-x,1/2+y,1/2-z
1/2-x,1/2-y,-z
1/2+x,1/2-y,1/2+z
loop_
_atom_site_type_symbol
_atom_site_label
_atom_site_fract_x
_atom_site_fract_y
_atom_site_fract_z
Si Si1 0.937948 0.299004 0.432628
Si Si2 0.769237 0.074269 0.267667
Si Si3 0.900299 0.934807 0.911733
Si Si4 0.921569 0.407885 0.941028
Si Si5 0.394506 0.285557 0.369432
Si Si6 0.000000 0.113547 0.750000
O O1 0.031152 0.340688 0.499281
O O2 0.142048 0.322428 0.389932
O O3 0.929334 0.179637 0.432389
O O4 0.651890 0.322771 0.408744
O O5 0.500000 0.116333 0.250000
O O6 0.834409 0.057013 0.339393
O O7 0.000000 0.134420 0.250000
O O8 0.783129 0.968940 0.233325
O O9 0.664297 0.971096 0.938237
O O10 0.175070 0.970947 0.933894
O O11 0.893841 0.331700 0.883762
O O12 0.424639 0.321416 0.303097
#
# Coordination Sequence:
#
# PCOD9259485 Si02
#       6
#     8   8   8   8   8   4
#     4  10  20  36  61  91 117 143 180 239 306 349
#     4  10  23  40  58  76 113 163 197 241 268 328
#     4  10  18  35  58  87 111 146 189 228 297 339
#     4  10  19  36  62  92 116 142 179 242 303 354
#     4  10  20  35  58  85 116 154 183 235 289 352
#     4  10  26  40  58  78 118 162 208 228 282 328
#
# _framework density 26.736191999999999
#
# number of rings (size 3 to 8) (size 9 to 14) (size 15 to 20)
#    0.545    1.455    0.000    6.545    2.545    0.000 
#   19.636    0.000    0.000   12.000    0.000    0.000 
#    0.000    0.000    0.000    0.000    0.000    0.000 
#
# Total GULP energy -123106.662766 kJ/mol
# GULP energy per Si atom -5595.757398 kJ/mol
# Density = 2.667534 g / cm^3
# Si number density = 26.736192 Si / 1000 Ang^3
#
#
#
# Elastic Constant Matrix: (Units=GPa)
#
#
# Indices 1 2 3 4 5 6 
#
# 1 266.2538 4.5825 51.3625 0.0000 -2.2354 0.0000
# 2 4.5825 126.2600 4.3747 0.0000 -10.7840 0.0000
# 3 51.3625 4.3747 102.2171 0.0000 -21.3189 0.0000
# 4 0.0000 0.0000 0.0000 34.2812 0.0000 -1.8781
# 5 -2.2354 -10.7840 -21.3189 0.0000 43.4642 0.0000
# 6 0.0000 0.0000 0.0000 -1.8781 0.0000 -34.7903
#
#
#
# Elastic Compliance Matrix: (Units=1/GPa)
#
#
# Indices 1 2 3 4 5 6 
#
# 1 0.004194 -0.000154 -0.002299 0.000000 -0.000950 0.000000
# 2 -0.000154 0.008098 0.000165 0.000000 0.002082 0.000000
# 3 -0.002299 0.000165 0.012159 0.000000 0.005887 0.000000
# 4 0.000000 0.000000 0.000000 0.029085 0.000000 -0.001570
# 5 -0.000950 0.002082 0.005887 0.000000 0.026363 0.000000
# 6 0.000000 0.000000 0.000000 -0.001570 0.000000 -0.028659
#
#
# Mechanical properties :
#
#
# Convention : Reuss Voigt Hill
#
# Bulk Modulus (GPa) = 50.31368 68.37448 59.34408
# Shear Modulus (GPa) = 80.07743 37.55176 58.81460
#
# Velocity S-wave (km/s) = 5.47868 3.75177 4.69530
# Velocity P-wave (km/s) = 7.67338 6.66311 7.18602
#
# Compressibility (1/GPa) = 0.01987531
#
# Stress axis : x y z
#
# Youngs Moduli (GPa) = 238.43719 123.48922 82.24376
#
# Poissons Ratio (x) = 0.01898 0.18908
# Poissons Ratio (y) = 0.03665 -0.01356
# Poissons Ratio (z) = 0.54816 -0.02037
#
# Static dielectric constant tensor:
#      x y z
#    x 2.240150 0.000000 -0.010530 
#    y 0.000000 2.067160 0.000000 
#    z -0.010530 0.000000 2.027740 
# 
# From -- ./inp_files/227026.got.cif
#   From: 2010.05.17/outbox.cif.g08.bks.cpg/sg15_114_cif.got.tgz:227026.got - 2010.06.03 18:47:42.
