data_PCOD9259499
_publ_section_title
;
Structure prediction by ZEFSAII (Michael W. Deem and Ramdas Pophale) SiO2 
 PCOD9259499
Probable space group: C 2/C
;
_chemical_formula_sum "Si O2"
_cell_formula_units_Z 60
_cell_length_a 5.022962
_cell_length_b 23.727508
_cell_length_c 21.684297
_cell_angle_alpha 90.000000
_cell_angle_beta 90.603029
_cell_angle_gamma 90.000000
_cell_volume 2584.242793
_symmetry_space_group_name_H-M "C 2/C"
_symmetry_group_IT_number 15
_symmetry_cell_setting 'monoclinic'
loop_
_space_group_symop_operation_xyz
x,y,z
-x,y,1/2-z
-x,-y,-z
x,-y,1/2+z
1/2+x,1/2+y,z
1/2-x,1/2+y,1/2-z
1/2-x,1/2-y,-z
1/2+x,1/2-y,1/2+z
loop_
_atom_site_type_symbol
_atom_site_label
_atom_site_fract_x
_atom_site_fract_y
_atom_site_fract_z
Si Si1 0.016198 0.949565 0.373695
Si Si2 0.152294 0.377648 0.989577
Si Si3 0.263125 0.280977 0.795384
Si Si4 0.000000 0.998517 0.250000
Si Si5 0.111974 0.263088 0.932275
Si Si6 0.500691 0.980435 0.587427
Si Si7 0.162892 0.404272 0.809557
Si Si8 0.335818 0.652738 0.939469
O O1 0.960148 0.884157 0.385156
O O2 0.114636 0.959847 0.304114
O O3 0.235809 0.982587 0.414035
O O4 0.740383 0.979088 0.393474
O O5 0.062514 0.329721 0.940114
O O6 0.082219 0.440579 0.969021
O O7 0.464456 0.368142 0.004644
O O8 0.966119 0.363027 0.047182
O O9 0.500000 0.263441 0.750000
O O10 0.235596 0.253185 0.863927
O O11 0.321194 0.346343 0.818054
O O12 0.000000 0.274708 0.750000
O O13 0.172192 0.041846 0.211274
O O14 0.867756 0.219371 0.932573
O O15 0.250000 0.250000 0.000000
O O16 0.526427 0.931148 0.639470
O O17 0.000000 0.388539 0.750000
#
# Coordination Sequence:
#
# PCOD9259499 Si02
#       8
#     8   8   8   4   8   8   8   8
#     4  11  24  39  61  91 129 175 211 264 325 409
#     4  11  23  42  68  97 125 171 220 283 333 387
#     4  11  24  40  69 103 135 164 222 295 350 387
#     4  10  20  36  60  86 126 168 212 256 334 410
#     4  10  24  48  72  98 138 187 232 278 347 414
#     4  11  22  37  64  92 128 162 211 265 343 386
#     4  10  18  35  58  93 125 157 205 271 336 403
#     4  11  25  43  64  90 131 176 230 264 316 411
#
# _framework density 23.217634
#
# number of rings (size 3 to 8) (size 9 to 14) (size 15 to 20)
#    0.000    1.333    3.333    2.000    0.000    7.467 
#    1.200    0.000    2.933    0.000    0.000    0.000 
#    0.000    0.000    0.000    0.000    0.000    0.000 
#
# Total GULP energy -167034.048170 kJ/mol
# GULP energy per Si atom -5567.801606 kJ/mol
# Density = 2.316479 g / cm^3
# Si number density = 23.217634 Si / 1000 Ang^3
#
#
#
# Elastic Constant Matrix: (Units=GPa)
#
#
# Indices 1 2 3 4 5 6 
#
# 1 77.3285 -0.7230 5.5404 0.0000 -3.0713 0.0000
# 2 -0.7230 57.4932 16.5367 0.0000 8.5715 0.0000
# 3 5.5404 16.5367 119.0805 0.0000 -5.3794 0.0000
# 4 0.0000 0.0000 0.0000 31.0438 0.0000 -10.1440
# 5 -3.0713 8.5715 -5.3794 0.0000 22.0373 0.0000
# 6 0.0000 0.0000 0.0000 -10.1440 0.0000 20.1933
#
#
#
# Elastic Compliance Matrix: (Units=1/GPa)
#
#
# Indices 1 2 3 4 5 6 
#
# 1 0.013037 0.000073 -0.000542 0.000000 0.001656 0.000000
# 2 0.000073 0.019527 -0.003092 0.000000 -0.008340 0.000000
# 3 -0.000542 -0.003092 0.009002 0.000000 0.003325 0.000000
# 4 0.000000 0.000000 0.000000 0.038539 0.000000 0.019360
# 5 0.001656 -0.008340 0.003325 0.000000 0.049664 0.000000
# 6 0.000000 0.000000 0.000000 0.019360 0.000000 0.059246
#
#
# Mechanical properties :
#
#
# Convention : Reuss Voigt Hill
#
# Bulk Modulus (GPa) = 29.03193 32.95671 30.99432
# Shear Modulus (GPa) = 24.08263 30.15810 27.12036
#
# Velocity S-wave (km/s) = 3.22414 3.60798 3.42145
# Velocity P-wave (km/s) = 5.13727 5.61980 5.38394
#
# Compressibility (1/GPa) = 0.03444483
#
# Stress axis : x y z
#
# Youngs Moduli (GPa) = 76.70397 51.21136 111.08103
#
# Poissons Ratio (x) = -0.00373 0.06019
# Poissons Ratio (y) = -0.00559 0.34344
# Poissons Ratio (z) = 0.04156 0.15834
#
# Static dielectric constant tensor:
#      x y z
#    x 1.865700 0.000000 0.027820 
#    y 0.000000 2.059740 0.000000 
#    z 0.027820 0.000000 2.051740 
# 
# From -- ./inp_files/228138.got.cif
#   From: 2010.05.17/outbox.cif.g08.bks.cpg/sg15_115_cif.got.tgz:228138.got - 2010.06.03 18:47:42.
