data_PCOD9259514
_publ_section_title
;
Structure prediction by ZEFSAII (Michael W. Deem and Ramdas Pophale) SiO2 
 PCOD9259514
Probable space group: C 2/C
;
_chemical_formula_sum "Si O2"
_cell_formula_units_Z 60
_cell_length_a 18.288638
_cell_length_b 19.043717
_cell_length_c 8.373760
_cell_angle_alpha 90.000000
_cell_angle_beta 86.089207
_cell_angle_gamma 90.000000
_cell_volume 2909.652579
_symmetry_space_group_name_H-M "C 2/C"
_symmetry_group_IT_number 15
_symmetry_cell_setting 'monoclinic'
loop_
_space_group_symop_operation_xyz
x,y,z
-x,y,1/2-z
-x,-y,-z
x,-y,1/2+z
1/2+x,1/2+y,z
1/2-x,1/2+y,1/2-z
1/2-x,1/2-y,-z
1/2+x,1/2-y,1/2+z
loop_
_atom_site_type_symbol
_atom_site_label
_atom_site_fract_x
_atom_site_fract_y
_atom_site_fract_z
Si Si1 0.000000 0.765865 0.250000
Si Si2 0.699398 0.287376 0.872145
Si Si3 0.789196 0.430405 0.185742
Si Si4 0.916386 0.362226 0.650631
Si Si5 0.542139 0.884698 0.403591
Si Si6 0.298102 0.811161 0.412266
Si Si7 0.782456 0.580929 0.326216
Si Si8 0.538574 0.713298 0.411639
O O1 0.066299 0.709904 0.258461
O O2 0.002358 0.805596 0.417084
O O3 0.675213 0.229244 0.748677
O O4 0.743696 0.348123 0.774063
O O5 0.620138 0.315282 0.933013
O O6 0.750000 0.250000 0.000000
O O7 0.876479 0.416426 0.135843
O O8 0.762819 0.379224 0.332055
O O9 0.768388 0.508316 0.242180
O O10 0.758561 0.418287 0.013841
O O11 0.863915 0.339690 0.511196
O O12 0.868419 0.407781 0.778316
O O13 0.987670 0.399597 0.562878
O O14 0.500000 0.906166 0.250000
O O15 0.540978 0.799002 0.411371
O O16 0.250000 0.750000 0.500000
O O17 0.500000 0.692534 0.250000
#
# Coordination Sequence:
#
# PCOD9259514 Si02
#       8
#     4   8   8   8   8   8   8   8
#     4  10  20  32  60  86 130 156 210 260 312 392
#     4  12  21  40  65  92 125 171 213 267 325 380
#     4  12  25  43  56  88 129 167 212 265 316 383
#     4  11  21  38  56  93 121 172 217 258 313 382
#     4  10  18  35  59  82 123 169 204 257 303 376
#     4  12  23  38  66  88 122 165 214 269 322 378
#     4  12  26  40  59  85 130 168 216 261 314 383
#     4  10  20  37  60  94 129 161 211 271 327 381
#
# _framework density 20.621016999999998
#
# number of rings (size 3 to 8) (size 9 to 14) (size 15 to 20)
#    0.000    0.800    5.333    4.800    0.000    0.533 
#    1.200    0.000    0.000    0.000    0.000    0.933 
#    2.000    2.133    0.000    0.000    0.000    0.000 
#
# Total GULP energy -167067.775895 kJ/mol
# GULP energy per Si atom -5568.925863 kJ/mol
# Density = 2.057408 g / cm^3
# Si number density = 20.621017 Si / 1000 Ang^3
#
#
#
# Elastic Constant Matrix: (Units=GPa)
#
#
# Indices 1 2 3 4 5 6 
#
# 1 39.3734 9.7386 27.4864 0.0000 2.1305 0.0000
# 2 9.7386 71.1713 17.3686 0.0000 -4.2282 0.0000
# 3 27.4864 17.3686 124.8450 0.0000 16.4231 0.0000
# 4 0.0000 0.0000 0.0000 2.6134 0.0000 3.3938
# 5 2.1305 -4.2282 16.4231 0.0000 31.2153 0.0000
# 6 0.0000 0.0000 0.0000 3.3938 0.0000 13.0340
#
#
#
# Elastic Compliance Matrix: (Units=1/GPa)
#
#
# Indices 1 2 3 4 5 6 
#
# 1 0.030504 -0.002530 -0.006494 0.000000 0.000992 0.000000
# 2 -0.002530 0.015070 -0.001967 0.000000 0.003249 0.000000
# 3 -0.006494 -0.001967 0.010411 0.000000 -0.005300 0.000000
# 4 0.000000 0.000000 0.000000 0.578149 0.000000 -0.150541
# 5 0.000992 0.003249 -0.005300 0.000000 0.035197 0.000000
# 6 0.000000 0.000000 0.000000 -0.150541 0.000000 0.115921
#
#
# Mechanical properties :
#
#
# Convention : Reuss Voigt Hill
#
# Bulk Modulus (GPa) = 29.41042 38.28631 33.84836
# Shear Modulus (GPa) = 6.10823 21.42559 13.76691
#
# Velocity S-wave (km/s) = 1.72295 3.22688 2.58663
# Velocity P-wave (km/s) = 4.27217 5.70005 5.03696
#
# Compressibility (1/GPa) = 0.03400155
#
# Stress axis : x y z
#
# Youngs Moduli (GPa) = 32.78294 66.35781 96.05542
#
# Poissons Ratio (x) = 0.16789 0.62382
# Poissons Ratio (y) = 0.08294 0.18893
# Poissons Ratio (z) = 0.21290 0.13052
#
# Static dielectric constant tensor:
#      x y z
#    x 1.840370 0.000000 -0.019710 
#    y 0.000000 1.754850 0.000000 
#    z -0.019710 0.000000 1.891140 
# 
# From -- ./inp_files/56594.got.cif
#   From: 2010.05.17/outbox.cif.g08.bks.cpg/sg15_29_cif.got.tgz:56594.got - 2010.06.03 18:47:42.
