data_PCOD9259979
_publ_section_title
;
Structure prediction by ZEFSAII (Michael W. Deem and Ramdas Pophale) SiO2 
 PCOD9259979
Probable space group: C 2/C
;
_chemical_formula_sum "Si O2"
_cell_formula_units_Z 48
_cell_length_a 9.324263
_cell_length_b 15.674832
_cell_length_c 14.113006
_cell_angle_alpha 90.000000
_cell_angle_beta 88.763750
_cell_angle_gamma 90.000000
_cell_volume 2062.223990
_symmetry_space_group_name_H-M "C 2/C"
_symmetry_group_IT_number 15
_symmetry_cell_setting 'monoclinic'
loop_
_space_group_symop_operation_xyz
x,y,z
-x,y,1/2-z
-x,-y,-z
x,-y,1/2+z
1/2+x,1/2+y,z
1/2-x,1/2+y,1/2-z
1/2-x,1/2-y,-z
1/2+x,1/2-y,1/2+z
loop_
_atom_site_type_symbol
_atom_site_label
_atom_site_fract_x
_atom_site_fract_y
_atom_site_fract_z
Si Si1 0.603354 0.313594 0.332643
Si Si2 0.709765 0.539091 0.937605
Si Si3 0.703683 0.874162 0.776320
Si Si4 0.972055 0.900538 0.880084
Si Si5 0.040767 0.581097 0.087817
Si Si6 0.920504 0.749875 0.509862
O O1 0.500000 0.342166 0.250000
O O2 0.714883 0.385126 0.361457
O O3 0.676759 0.223734 0.307505
O O4 0.495763 0.298354 0.421530
O O5 0.595854 0.469708 0.899049
O O6 0.864256 0.496878 0.950136
O O7 0.642634 0.576808 0.034192
O O8 0.867263 0.900152 0.790809
O O9 0.602343 0.929749 0.847946
O O10 0.644260 0.881245 0.671043
O O11 0.032411 0.805426 0.900558
O O12 0.027440 0.653180 0.007194
O O13 0.750000 0.750000 0.500000
#
# Coordination Sequence:
#
# PCOD9259979 Si02
#       6
#     8   8   8   8   8   8
#     4  10  20  37  59  85 117 158 194 241 299 356
#     4  10  22  36  58  90 117 149 199 249 307 338
#     4  10  21  40  60  85 117 161 206 235 294 371
#     4  10  22  37  59  93 115 154 205 247 289 366
#     4  10  20  38  60  84 121 161 191 247 304 350
#     4  10  18  36  60  83 120 153 199 238 289 355
#
# _framework density 23.275842000000001
#
# number of rings (size 3 to 8) (size 9 to 14) (size 15 to 20)
#    0.000    2.000    5.000    0.000    2.333    6.667 
#    0.000    0.000    0.000    4.000    0.000    0.000 
#    0.000    0.000    0.000    0.000    0.000    0.000 
#
# Total GULP energy -134128.602095 kJ/mol
# GULP energy per Si atom -5588.691754 kJ/mol
# Density = 2.322287 g / cm^3
# Si number density = 23.275842 Si / 1000 Ang^3
#
#
#
# Elastic Constant Matrix: (Units=GPa)
#
#
# Indices 1 2 3 4 5 6 
#
# 1 125.8009 19.1917 -1.5915 0.0000 14.4266 0.0000
# 2 19.1917 69.0063 12.3305 0.0000 -1.5222 0.0000
# 3 -1.5915 12.3305 31.1508 0.0000 19.0180 0.0000
# 4 0.0000 0.0000 0.0000 26.0883 0.0000 7.7062
# 5 14.4266 -1.5222 19.0180 0.0000 38.1212 0.0000
# 6 0.0000 0.0000 0.0000 7.7062 0.0000 38.9363
#
#
#
# Elastic Compliance Matrix: (Units=1/GPa)
#
#
# Indices 1 2 3 4 5 6 
#
# 1 0.009392 -0.003859 0.006142 0.000000 -0.006773 0.000000
# 2 -0.003859 0.017969 -0.012424 0.000000 0.008376 0.000000
# 3 0.006142 -0.012424 0.056160 0.000000 -0.030838 0.000000
# 4 0.000000 0.000000 0.000000 0.040711 0.000000 -0.008057
# 5 -0.006773 0.008376 -0.030838 0.000000 0.044514 0.000000
# 6 0.000000 0.000000 0.000000 -0.008057 0.000000 0.027278
#
#
# Mechanical properties :
#
#
# Convention : Reuss Voigt Hill
#
# Bulk Modulus (GPa) = 15.81254 31.75773 23.78514
# Shear Modulus (GPa) = 21.06275 33.69765 27.38020
#
# Velocity S-wave (km/s) = 3.01145 3.80906 3.43350
# Velocity P-wave (km/s) = 4.34742 5.74621 5.09505
#
# Compressibility (1/GPa) = 0.06324096
#
# Stress axis : x y z
#
# Youngs Moduli (GPa) = 106.47167 55.65032 17.80621
#
# Poissons Ratio (x) = 0.21476 -0.10937
# Poissons Ratio (y) = 0.41088 0.22122
# Poissons Ratio (z) = -0.65397 0.69137
#
# Static dielectric constant tensor:
#      x y z
#    x 1.884430 0.000000 -0.002840 
#    y 0.000000 1.887340 0.000000 
#    z -0.002840 0.000000 1.954020 
# 
# From -- ./inp_files/189913.got.cif
#   From: 2010.05.17/outbox.cif.g08.bks.cpg/sg15_95_cif.got.tgz:189913.got - 2010.06.03 18:47:42.
