data_PCOD9259076
_publ_section_title
;
Structure prediction by ZEFSAII (Michael W. Deem and Ramdas Pophale) SiO2 
 PCOD9259076
Probable space group: C 2/C
;
_chemical_formula_sum "Si O2"
_cell_formula_units_Z 64
_cell_length_a 25.392072
_cell_length_b 9.126839
_cell_length_c 19.294057
_cell_angle_alpha 90.000000
_cell_angle_beta 127.485506
_cell_angle_gamma 90.000000
_cell_volume 3548.076873
_symmetry_space_group_name_H-M "C 2/C"
_symmetry_group_IT_number 15
_symmetry_cell_setting 'monoclinic'
loop_
_space_group_symop_operation_xyz
x,y,z
-x,y,1/2-z
-x,-y,-z
x,-y,1/2+z
1/2+x,1/2+y,z
1/2-x,1/2+y,1/2-z
1/2-x,1/2-y,-z
1/2+x,1/2-y,1/2+z
loop_
_atom_site_type_symbol
_atom_site_label
_atom_site_fract_x
_atom_site_fract_y
_atom_site_fract_z
Si Si1 0.632058 0.422890 0.801434
Si Si2 0.179334 0.914409 0.212560
Si Si3 0.811416 0.588318 0.339476
Si Si4 0.943697 0.589526 0.916348
Si Si5 0.005136 0.265701 0.174666
Si Si6 0.260364 0.244898 0.425125
Si Si7 0.619587 0.566976 0.452527
Si Si8 0.932124 0.917035 0.963613
O O1 0.655804 0.555151 0.772396
O O2 0.559988 0.364382 0.721668
O O3 0.685636 0.287819 0.837227
O O4 0.630858 0.466675 0.880933
O O5 0.185399 0.747466 0.193862
O O6 0.249305 0.996087 0.262369
O O7 0.125027 0.999547 0.124145
O O8 0.876486 0.498799 0.373297
O O9 0.799933 0.620107 0.412839
O O10 0.966582 0.616404 0.855820
O O11 0.936664 0.750489 0.943768
O O12 0.000000 0.500000 0.000000
O O13 0.000000 0.317758 0.250000
O O14 0.934726 0.199888 0.092497
O O15 0.250000 0.250000 0.500000
O O16 0.310572 0.382079 0.457370
O O17 0.586718 0.440025 0.471317
O O18 0.000000 0.000000 0.000000
#
# Coordination Sequence:
#
# PCOD9259076 Si02
#       8
#     8   8   8   8   8   8   8   8
#     4   9  19  34  58  85 115 146 192 237 289 346
#     4  11  21  38  59  85 116 149 195 239 288 346
#     4  11  23  37  60  85 118 153 192 242 288 345
#     4  12  24  38  57  87 122 154 199 243 287 346
#     4  10  20  36  58  85 113 153 197 235 285 353
#     4   9  18  34  59  85 110 146 192 235 286 351
#     4  10  18  34  59  86 112 148 190 239 292 348
#     4  12  21  36  61  87 115 151 195 240 296 340
#
# _framework density 18.037939999999999
#
# number of rings (size 3 to 8) (size 9 to 14) (size 15 to 20)
#    0.000    1.500    3.750    2.250    1.750    0.000 
#    0.000    1.250    2.750    3.000    0.000    0.000 
#    0.000    0.000    0.000    0.000    0.000    0.000 
#
# Total GULP energy -178312.846128 kJ/mol
# GULP energy per Si atom -5572.276441 kJ/mol
# Density = 1.799689 g / cm^3
# Si number density = 18.037940 Si / 1000 Ang^3
#
#
#
# Elastic Constant Matrix: (Units=GPa)
#
#
# Indices 1 2 3 4 5 6 
#
# 1 151.2806 67.1606 56.9438 0.0000 -5.3535 0.0000
# 2 67.1606 124.9931 49.4939 0.0000 3.0259 0.0000
# 3 56.9438 49.4939 77.3038 0.0000 10.3436 0.0000
# 4 0.0000 0.0000 0.0000 25.1143 0.0000 3.5778
# 5 -5.3535 3.0259 10.3436 0.0000 35.8126 0.0000
# 6 0.0000 0.0000 0.0000 3.5778 0.0000 33.5575
#
#
#
# Elastic Compliance Matrix: (Units=1/GPa)
#
#
# Indices 1 2 3 4 5 6 
#
# 1 0.010507 -0.003318 -0.006098 0.000000 0.003612 0.000000
# 2 -0.003318 0.011809 -0.005114 0.000000 -0.000017 0.000000
# 3 -0.006098 -0.005114 0.021602 0.000000 -0.006719 0.000000
# 4 0.000000 0.000000 0.000000 0.040432 0.000000 -0.004311
# 5 0.003612 -0.000017 -0.006719 0.000000 0.030405 0.000000
# 6 0.000000 0.000000 0.000000 -0.004311 0.000000 0.030259
#
#
# Mechanical properties :
#
#
# Convention : Reuss Voigt Hill
#
# Bulk Modulus (GPa) = 67.31439 77.86381 72.58910
# Shear Modulus (GPa) = 27.92884 30.89548 29.41216
#
# Velocity S-wave (km/s) = 3.93916 4.14310 4.04242
# Velocity P-wave (km/s) = 7.62159 8.13310 7.88150
#
# Compressibility (1/GPa) = 0.01485566
#
# Stress axis : x y z
#
# Youngs Moduli (GPa) = 95.17835 84.68297 46.29290
#
# Poissons Ratio (x) = 0.28098 0.28231
# Poissons Ratio (y) = 0.31580 0.23675
# Poissons Ratio (z) = 0.58044 0.43309
#
# Static dielectric constant tensor:
#      x y z
#    x 1.649440 0.000000 -0.016500 
#    y 0.000000 1.573830 0.000000 
#    z -0.016500 0.000000 1.630030 
# 
# From -- ./inp_files/255047.got.cif
#   From: 2010.05.17/outbox.cif.g08.bks.cpg/sg15_128_cif.got.tgz:255047.got - 2010.06.03 18:47:42.
