data_PCOD9259407
_publ_section_title
;
Structure prediction by ZEFSAII (Michael W. Deem and Ramdas Pophale) SiO2 
 PCOD9259407
Probable space group: C 2/C
;
_chemical_formula_sum "Si O2"
_cell_formula_units_Z 64
_cell_length_a 24.746694
_cell_length_b 22.017987
_cell_length_c 14.429135
_cell_angle_alpha 90.000000
_cell_angle_beta 26.634120
_cell_angle_gamma 90.000000
_cell_volume 3524.484327
_symmetry_space_group_name_H-M "C 2/C"
_symmetry_group_IT_number 15
_symmetry_cell_setting 'monoclinic'
loop_
_space_group_symop_operation_xyz
x,y,z
-x,y,1/2-z
-x,-y,-z
x,-y,1/2+z
1/2+x,1/2+y,z
1/2-x,1/2+y,1/2-z
1/2-x,1/2-y,-z
1/2+x,1/2-y,1/2+z
loop_
_atom_site_type_symbol
_atom_site_label
_atom_site_fract_x
_atom_site_fract_y
_atom_site_fract_z
Si Si1 0.202239 0.554319 0.768930
Si Si2 0.977391 0.789176 0.173764
Si Si3 0.451453 0.483299 0.929821
Si Si4 0.365672 0.044729 0.985137
Si Si5 0.331529 0.615992 0.137480
Si Si6 0.265011 0.629167 0.028555
Si Si7 0.294668 0.505419 0.431727
Si Si8 0.500118 0.147489 0.138079
O O1 0.333816 0.559416 0.617023
O O2 0.140754 0.495371 0.911401
O O3 0.235356 0.538663 0.611701
O O4 0.111740 0.609790 0.924747
O O5 0.843760 0.816517 0.363290
O O6 0.000000 0.795606 0.250000
O O7 0.001032 0.719361 0.115215
O O8 0.073795 0.833355 0.978496
O O9 0.500000 0.480048 0.750000
O O10 0.573479 0.468661 0.798437
O O11 0.399507 0.551054 0.024292
O O12 0.283060 0.103756 0.123132
O O13 0.500000 0.057728 0.750000
O O14 0.299396 0.006842 0.006853
O O15 0.278558 0.633628 0.118193
O O16 0.321261 0.564102 0.917145
O O17 0.127822 0.626360 0.206263
O O18 0.500000 0.139270 0.250000
#
# Coordination Sequence:
#
# PCOD9259407 Si02
#       8
#     8   8   8   8   8   8   8   8
#     4  10  21  35  52  79 119 147 173 224 286 335
#     4   9  19  36  59  79 107 142 191 236 275 325
#     4   9  15  33  53  80 103 141 185 219 267 323
#     4  11  23  34  51  87 115 140 183 224 280 343
#     4  10  18  35  57  78 105 144 187 233 266 327
#     4  11  18  33  61  80 107 146 183 228 285 328
#     4  11  20  33  59  81 112 147 180 229 278 332
#     4  11  23  36  50  84 118 146 180 229 285 346
#
# _framework density 18.158684999999998
#
# number of rings (size 3 to 8) (size 9 to 14) (size 15 to 20)
#    0.000    1.750    5.000    2.625    1.750    3.000 
#    2.250    0.000    0.000    3.000    0.000    0.000 
#    0.000    0.000    0.000    0.000    0.000    0.000 
#
# Total GULP energy -178420.078822 kJ/mol
# GULP energy per Si atom -5575.627463 kJ/mol
# Density = 1.811736 g / cm^3
# Si number density = 18.158685 Si / 1000 Ang^3
#
#
#
# Elastic Constant Matrix: (Units=GPa)
#
#
# Indices 1 2 3 4 5 6 
#
# 1 44.5500 5.4031 25.3284 -0.0001 -6.8897 -0.0001
# 2 5.4031 79.6044 53.2014 -0.0016 -3.5021 0.0004
# 3 25.3284 53.2014 161.7760 -0.0025 -17.7671 0.0007
# 4 -0.0001 -0.0016 -0.0025 30.4822 0.0005 -3.8232
# 5 -6.8897 -3.5021 -17.7671 0.0005 29.6362 0.0000
# 6 -0.0001 0.0004 0.0007 -3.8232 0.0000 12.9279
#
#
#
# Elastic Compliance Matrix: (Units=1/GPa)
#
#
# Indices 1 2 3 4 5 6 
#
# 1 0.025083 0.001045 -0.003872 0.000000 0.003634 0.000000
# 2 0.001045 0.016196 -0.005623 0.000000 -0.001214 0.000000
# 3 -0.003872 -0.005623 0.009062 0.000000 0.003868 0.000000
# 4 0.000000 0.000000 0.000000 0.034070 0.000000 0.010075
# 5 0.003634 -0.001214 0.003868 0.000000 0.036763 0.000000
# 6 0.000000 0.000000 0.000000 0.010075 0.000000 0.080332
#
#
# Mechanical properties :
#
#
# Convention : Reuss Voigt Hill
#
# Bulk Modulus (GPa) = 29.90368 50.42182 40.16275
# Shear Modulus (GPa) = 21.78161 28.07574 24.92867
#
# Velocity S-wave (km/s) = 3.46716 3.93636 3.70918
# Velocity P-wave (km/s) = 5.70368 6.96329 6.36472
#
# Compressibility (1/GPa) = 0.03344070
#
# Stress axis : x y z
#
# Youngs Moduli (GPa) = 39.86743 61.74439 110.35634
#
# Poissons Ratio (x) = -0.06452 0.42727
# Poissons Ratio (y) = -0.04166 0.62054
# Poissons Ratio (z) = 0.15435 0.34719
#
# Static dielectric constant tensor:
#      x y z
#    x 1.668280 0.000000 -0.014980 
#    y 0.000000 1.628250 0.000000 
#    z -0.014980 0.000000 1.652780 
# 
# From -- ./inp_files/225928.got.cif
#   From: 2010.05.17/outbox.cif.g08.bks.cpg/sg15_113_cif.got.tgz:225928.got - 2010.06.03 18:47:42.
