data_PCOD9259086
_publ_section_title
;
Structure prediction by ZEFSAII (Michael W. Deem and Ramdas Pophale) SiO2 
 PCOD9259086
Probable space group: C 2/C
;
_chemical_formula_sum "Si O2"
_cell_formula_units_Z 44
_cell_length_a 23.335887
_cell_length_b 5.077345
_cell_length_c 16.698878
_cell_angle_alpha 90.000000
_cell_angle_beta 56.834083
_cell_angle_gamma 90.000000
_cell_volume 1656.228965
_symmetry_space_group_name_H-M "C 2/C"
_symmetry_group_IT_number 15
_symmetry_cell_setting 'monoclinic'
loop_
_space_group_symop_operation_xyz
x,y,z
-x,y,1/2-z
-x,-y,-z
x,-y,1/2+z
1/2+x,1/2+y,z
1/2-x,1/2+y,1/2-z
1/2-x,1/2-y,-z
1/2+x,1/2-y,1/2+z
loop_
_atom_site_type_symbol
_atom_site_label
_atom_site_fract_x
_atom_site_fract_y
_atom_site_fract_z
Si Si1 0.358521 0.656629 0.352057
Si Si2 0.000000 0.524490 0.750000
Si Si3 0.469787 0.946937 0.112583
Si Si4 0.222136 0.320996 0.611364
Si Si5 0.852074 0.320238 0.108880
Si Si6 0.595781 0.660614 0.013672
O O1 0.431311 0.803914 0.290674
O O2 0.339854 0.384667 0.323993
O O3 0.361462 0.573594 0.442881
O O4 0.301936 0.877552 0.376255
O O5 0.002655 0.377620 0.833792
O O6 0.388341 0.920634 0.162853
O O7 0.516035 0.690079 0.093883
O O8 0.500000 0.000000 0.000000
O O9 0.250000 0.250000 0.500000
O O10 0.275762 0.262012 0.642375
O O11 0.871722 0.557288 0.033968
O O12 0.893498 0.051942 0.062372
#
# Coordination Sequence:
#
# PCOD9259086 Si02
#       6
#     8   4   8   8   8   8
#     4  11  22  39  61  97 130 181 222 277 343 403
#     4  10  24  46  70  96 144 178 236 300 346 416
#     4   9  21  40  66  98 132 182 233 283 348 410
#     4  12  21  36  63  97 139 171 226 275 339 415
#     4  11  20  34  59  93 126 167 218 273 327 401
#     4  10  18  34  59  89 128 164 219 275 322 393
#
# _framework density 26.566375000000001
#
# number of rings (size 3 to 8) (size 9 to 14) (size 15 to 20)
#    0.000    1.455    3.636    2.182    0.000    0.727 
#    0.000    9.091    0.000    0.000    0.000    0.000 
#    0.000    0.000    0.000    0.000    0.000    0.000 
#
# Total GULP energy -122656.259633 kJ/mol
# GULP energy per Si atom -5575.284529 kJ/mol
# Density = 2.650591 g / cm^3
# Si number density = 26.566375 Si / 1000 Ang^3
#
#
#
# Elastic Constant Matrix: (Units=GPa)
#
#
# Indices 1 2 3 4 5 6 
#
# 1 250.3470 22.5851 30.4182 0.0040 33.1553 -0.0167
# 2 22.5851 97.5830 1.4659 0.0320 0.2453 -0.0790
# 3 30.4182 1.4659 68.1873 0.0028 22.6907 -0.0089
# 4 0.0040 0.0320 0.0028 16.9144 -0.0014 0.1611
# 5 33.1553 0.2453 22.6907 -0.0014 44.0067 0.0048
# 6 -0.0167 -0.0790 -0.0089 0.1611 0.0048 29.0746
#
#
#
# Elastic Compliance Matrix: (Units=1/GPa)
#
#
# Indices 1 2 3 4 5 6 
#
# 1 0.004604 -0.001042 -0.001061 0.000001 -0.002915 0.000000
# 2 -0.001042 0.010487 -0.000003 -0.000020 0.000728 0.000028
# 3 -0.001061 -0.000003 0.017953 -0.000003 -0.008458 0.000006
# 4 0.000001 -0.000020 -0.000003 0.059125 0.000003 -0.000328
# 5 -0.002915 0.000728 -0.008458 0.000003 0.029277 -0.000007
# 6 0.000000 0.000028 0.000006 -0.000328 -0.000007 0.034396
#
#
# Mechanical properties :
#
#
# Convention : Reuss Voigt Hill
#
# Bulk Modulus (GPa) = 34.68390 58.33951 46.51171
# Shear Modulus (GPa) = 29.46989 42.10900 35.78945
#
# Velocity S-wave (km/s) = 3.33422 3.98559 3.67436
# Velocity P-wave (km/s) = 5.28267 6.57172 5.96213
#
# Compressibility (1/GPa) = 0.02883182
#
# Stress axis : x y z
#
# Youngs Moduli (GPa) = 217.22534 95.35486 55.69995
#
# Poissons Ratio (x) = 0.09938 0.05910
# Poissons Ratio (y) = 0.22639 0.00016
# Poissons Ratio (z) = 0.23048 0.00027
#
# Static dielectric constant tensor:
#      x y z
#    x 2.167410 -0.000030 0.072980 
#    y -0.000030 2.028550 -0.000020 
#    z 0.072980 -0.000020 2.503980 
# 
# From -- ./inp_files/217687.got.cif
#   From: 2010.05.17/outbox.cif.g08.bks.cpg/sg15_109_cif.got.tgz:217687.got - 2010.06.03 18:47:42.
