data_PCOD9259282
_publ_section_title
;
Structure prediction by ZEFSAII (Michael W. Deem and Ramdas Pophale) SiO2 
 PCOD9259282
Probable space group: C 2/C
;
_chemical_formula_sum "Si O2"
_cell_formula_units_Z 44
_cell_length_a 16.885468
_cell_length_b 8.409315
_cell_length_c 14.479974
_cell_angle_alpha 90.000000
_cell_angle_beta 99.703402
_cell_angle_gamma 90.000000
_cell_volume 2026.671598
_symmetry_space_group_name_H-M "C 2/C"
_symmetry_group_IT_number 15
_symmetry_cell_setting 'monoclinic'
loop_
_space_group_symop_operation_xyz
x,y,z
-x,y,1/2-z
-x,-y,-z
x,-y,1/2+z
1/2+x,1/2+y,z
1/2-x,1/2+y,1/2-z
1/2-x,1/2-y,-z
1/2+x,1/2-y,1/2+z
loop_
_atom_site_type_symbol
_atom_site_label
_atom_site_fract_x
_atom_site_fract_y
_atom_site_fract_z
Si Si1 0.362519 0.846631 0.338031
Si Si2 0.723515 0.611234 0.563671
Si Si3 0.759838 0.640580 0.286421
Si Si4 0.333776 0.162577 0.041163
Si Si5 0.876903 0.019031 0.611259
Si Si6 0.000000 0.179388 0.250000
O O1 0.293775 0.710498 0.307063
O O2 0.375040 0.867111 0.450129
O O3 0.437918 0.785680 0.295416
O O4 0.329910 0.012956 0.291442
O O5 0.750000 0.750000 0.500000
O O6 0.708242 0.700445 0.656142
O O7 0.801619 0.497907 0.580706
O O8 0.647695 0.529298 0.498655
O O9 0.697041 0.546444 0.341016
O O10 0.380819 0.290031 0.111946
O O11 0.250000 0.250000 0.000000
O O12 0.952992 0.930899 0.667686
#
# Coordination Sequence:
#
# PCOD9259282 Si02
#       6
#     8   8   8   8   8   4
#     4  11  22  38  63  94 128 172 214 273 325 391
#     4   9  16  34  61  93 116 152 211 276 309 363
#     4  10  21  35  63  93 123 166 220 267 322 374
#     4  10  18  34  64  96 118 157 224 274 312 376
#     4   9  19  37  60  89 127 171 208 268 317 391
#     4  10  24  42  58  92 148 176 206 260 346 382
#
# _framework density 21.710474000000001
#
# number of rings (size 3 to 8) (size 9 to 14) (size 15 to 20)
#    0.000    2.182    5.455    0.000    5.091    0.727 
#    0.000    0.909    0.000   14.182    0.000    0.000 
#    0.000    0.000    0.000    0.000    0.000    0.000 
#
# Total GULP energy -122787.286631 kJ/mol
# GULP energy per Si atom -5581.240301 kJ/mol
# Density = 2.166106 g / cm^3
# Si number density = 21.710474 Si / 1000 Ang^3
#
#
#
# Elastic Constant Matrix: (Units=GPa)
#
#
# Indices 1 2 3 4 5 6 
#
# 1 91.0235 59.6867 43.8966 0.0000 5.0473 0.0000
# 2 59.6867 160.2648 50.8737 0.0000 2.2422 0.0000
# 3 43.8966 50.8737 111.5655 0.0000 -3.7046 0.0000
# 4 0.0000 0.0000 0.0000 27.8702 0.0000 -2.4909
# 5 5.0473 2.2422 -3.7046 0.0000 22.2453 0.0000
# 6 0.0000 0.0000 0.0000 -2.4909 0.0000 32.5734
#
#
#
# Elastic Compliance Matrix: (Units=1/GPa)
#
#
# Indices 1 2 3 4 5 6 
#
# 1 0.016404 -0.004633 -0.004474 0.000000 -0.004000 0.000000
# 2 -0.004633 0.008642 -0.002123 0.000000 -0.000173 0.000000
# 3 -0.004474 -0.002123 0.011798 0.000000 0.003194 0.000000
# 4 0.000000 0.000000 0.000000 0.036128 0.000000 0.002763
# 5 -0.004000 -0.000173 0.003194 0.000000 0.046410 0.000000
# 6 0.000000 0.000000 0.000000 0.002763 0.000000 0.030911
#
#
# Mechanical properties :
#
#
# Convention : Reuss Voigt Hill
#
# Bulk Modulus (GPa) = 69.53160 74.64088 72.08624
# Shear Modulus (GPa) = 28.16142 30.43091 29.29616
#
# Velocity S-wave (km/s) = 3.60548 3.74795 3.67741
# Velocity P-wave (km/s) = 7.03057 7.29275 7.16286
#
# Compressibility (1/GPa) = 0.01438195
#
# Stress axis : x y z
#
# Youngs Moduli (GPa) = 60.96193 115.72002 84.75853
#
# Poissons Ratio (x) = 0.53611 0.37925
# Poissons Ratio (y) = 0.28243 0.17998
# Poissons Ratio (z) = 0.27277 0.24573
#
# Static dielectric constant tensor:
#      x y z
#    x 1.766730 0.000000 -0.028000 
#    y 0.000000 1.864560 0.000000 
#    z -0.028000 0.000000 1.909130 
# 
# From -- ./inp_files/202788.got.cif
#   From: 2010.05.17/outbox.cif.g08.bks.cpg/sg15_102_cif.got.tgz:202788.got - 2010.06.03 18:47:42.
