data_PCOD9259524
_publ_section_title
;
Structure prediction by ZEFSAII (Michael W. Deem and Ramdas Pophale) SiO2 
 PCOD9259524
Probable space group: C 2/C
;
_chemical_formula_sum "Si O2"
_cell_formula_units_Z 60
_cell_length_a 15.271392
_cell_length_b 18.998464
_cell_length_c 16.975695
_cell_angle_alpha 90.000000
_cell_angle_beta 147.315198
_cell_angle_gamma 90.000000
_cell_volume 2659.697104
_symmetry_space_group_name_H-M "C 2/C"
_symmetry_group_IT_number 15
_symmetry_cell_setting 'monoclinic'
loop_
_space_group_symop_operation_xyz
x,y,z
-x,y,1/2-z
-x,-y,-z
x,-y,1/2+z
1/2+x,1/2+y,z
1/2-x,1/2+y,1/2-z
1/2-x,1/2-y,-z
1/2+x,1/2-y,1/2+z
loop_
_atom_site_type_symbol
_atom_site_label
_atom_site_fract_x
_atom_site_fract_y
_atom_site_fract_z
Si Si1 0.675632 0.644068 0.911027
Si Si2 0.220663 0.343974 0.764570
Si Si3 0.403840 0.248522 0.006741
Si Si4 0.846128 0.619626 0.456613
Si Si5 0.639609 0.277060 0.989200
Si Si6 0.368131 0.106024 0.719107
Si Si7 0.500000 0.637202 0.250000
Si Si8 0.185069 0.462169 0.870610
O O1 0.500000 0.626236 0.750000
O O2 0.781832 0.682380 0.924763
O O3 0.647965 0.699457 0.961427
O O4 0.748145 0.573072 0.000416
O O5 0.376286 0.296455 0.908059
O O6 0.203518 0.387852 0.671405
O O7 0.198607 0.401985 0.815454
O O8 0.076928 0.285982 0.655059
O O9 0.895248 0.702405 0.498651
O O10 0.680874 0.602986 0.381256
O O11 0.011814 0.587144 0.617135
O O12 0.505484 0.318111 0.835919
O O13 0.750000 0.250000 0.000000
O O14 0.746326 0.327725 0.125956
O O15 0.500000 0.123280 0.750000
O O16 0.257978 0.038167 0.615448
O O17 0.000000 0.476205 0.750000
#
# Coordination Sequence:
#
# PCOD9259524 Si02
#       8
#     8   8   8   8   8   8   4   8
#     4  10  18  35  59  86 123 164 206 249 299 354
#     4  11  23  37  58  91 128 163 210 250 308 365
#     4  10  20  33  55  91 124 162 200 258 299 351
#     4  11  23  36  63  88 119 156 202 261 318 360
#     4  10  19  35  59  86 113 140 195 253 305 356
#     4  11  21  40  61  87 116 161 202 255 310 374
#     4  10  20  36  54  86 116 142 188 252 308 366
#     4  10  22  39  61  87 124 168 210 238 294 385
#
# _framework density 22.558959000000002
#
# number of rings (size 3 to 8) (size 9 to 14) (size 15 to 20)
#    0.000    1.600    5.333    1.600    4.667    0.533 
#    1.200    0.000    0.000    0.800    0.000    0.000 
#    0.000    0.000    0.000    0.000    0.000    0.000 
#
# Total GULP energy -167185.748842 kJ/mol
# GULP energy per Si atom -5572.858295 kJ/mol
# Density = 2.250761 g / cm^3
# Si number density = 22.558959 Si / 1000 Ang^3
#
#
#
# Elastic Constant Matrix: (Units=GPa)
#
#
# Indices 1 2 3 4 5 6 
#
# 1 17.6392 -1.9286 -4.0567 -0.0065 -16.3287 -0.0058
# 2 -1.9286 81.2199 18.5027 0.0013 3.1620 -0.0002
# 3 -4.0567 18.5027 97.1903 -0.0025 -3.9004 -0.0043
# 4 -0.0065 0.0013 -0.0025 29.2205 -0.0028 -1.8657
# 5 -16.3287 3.1620 -3.9004 -0.0028 34.8912 -0.0029
# 6 -0.0058 -0.0002 -0.0043 -1.8657 -0.0029 10.3153
#
#
#
# Elastic Compliance Matrix: (Units=1/GPa)
#
#
# Indices 1 2 3 4 5 6 
#
# 1 0.103803 -0.000937 0.006493 0.000034 0.049390 0.000081
# 2 -0.000937 0.012952 -0.002581 -0.000001 -0.001901 -0.000002
# 3 0.006493 -0.002581 0.011233 0.000004 0.004528 0.000010
# 4 0.000034 -0.000001 0.000004 0.034622 0.000020 0.006262
# 5 0.049390 -0.001901 0.004528 0.000020 0.052453 0.000048
# 6 0.000081 -0.000002 0.000010 0.006262 0.000048 0.098076
#
#
# Mechanical properties :
#
#
# Convention : Reuss Voigt Hill
#
# Bulk Modulus (GPa) = 7.46615 24.56492 16.01553
# Shear Modulus (GPa) = 14.21118 27.12086 20.66602
#
# Velocity S-wave (km/s) = 2.51262 3.47107 3.02998
# Velocity P-wave (km/s) = 3.42556 5.19396 4.39953
#
# Compressibility (1/GPa) = 0.13393779
#
# Stress axis : x y z
#
# Youngs Moduli (GPa) = 9.63365 77.20802 89.02157
#
# Poissons Ratio (x) = 0.07236 -0.57803
# Poissons Ratio (y) = 0.00903 0.22978
# Poissons Ratio (z) = -0.06255 0.19929
#
# Static dielectric constant tensor:
#      x y z
#    x 1.940990 0.000000 -0.030090 
#    y 0.000000 1.945090 0.000000 
#    z -0.030090 0.000000 1.878360 
# 
# From -- ./inp_files/211768.got.cif
#   From: 2010.05.17/outbox.cif.g08.bks.cpg/sg15_106_cif.got.tgz:211768.got - 2010.06.03 18:47:42.
