data_PCOD9259658
_publ_section_title
;
Structure prediction by ZEFSAII (Michael W. Deem and Ramdas Pophale) SiO2 
 PCOD9259658
Probable space group: C 2/C
;
_chemical_formula_sum "Si O2"
_cell_formula_units_Z 60
_cell_length_a 7.744597
_cell_length_b 29.420189
_cell_length_c 14.638381
_cell_angle_alpha 90.000000
_cell_angle_beta 87.066352
_cell_angle_gamma 90.000000
_cell_volume 3330.947600
_symmetry_space_group_name_H-M "C 2/C"
_symmetry_group_IT_number 15
_symmetry_cell_setting 'monoclinic'
loop_
_space_group_symop_operation_xyz
x,y,z
-x,y,1/2-z
-x,-y,-z
x,-y,1/2+z
1/2+x,1/2+y,z
1/2-x,1/2+y,1/2-z
1/2-x,1/2-y,-z
1/2+x,1/2-y,1/2+z
loop_
_atom_site_type_symbol
_atom_site_label
_atom_site_fract_x
_atom_site_fract_y
_atom_site_fract_z
Si Si1 0.200733 0.256983 0.745799
Si Si2 0.636684 0.571927 0.371681
Si Si3 0.519487 0.851478 0.451038
Si Si4 0.731122 0.577141 0.162438
Si Si5 0.544253 0.049330 0.034686
Si Si6 0.182448 0.822977 0.923198
Si Si7 0.500000 0.816613 0.250000
Si Si8 0.212696 0.821651 0.589413
O O1 0.244516 0.289325 0.657071
O O2 0.332375 0.215405 0.744571
O O3 0.235921 0.284055 0.838640
O O4 0.000000 0.244033 0.750000
O O5 0.695848 0.563394 0.266769
O O6 0.436144 0.560288 0.389069
O O7 0.760025 0.547076 0.437432
O O8 0.672256 0.625639 0.384997
O O9 0.526273 0.905520 0.472644
O O10 0.688428 0.827388 0.493542
O O11 0.498610 0.844164 0.344297
O O12 0.354665 0.829613 0.507526
O O13 0.717264 0.631442 0.148000
O O14 0.912957 0.560459 0.120906
O O15 0.500000 0.000000 0.000000
O O16 0.979531 0.811700 0.944266
#
# Coordination Sequence:
#
# PCOD9259658 Si02
#       8
#     8   8   8   8   8   8   4   8
#     4  12  22  36  60  91 119 149 199 248 286 348
#     4   9  17  30  56  88 119 140 172 237 306 346
#     4  10  24  42  60  80 120 162 200 240 297 346
#     4   9  17  30  56  88 119 140 172 237 306 346
#     4  10  21  37  58  88 109 149 196 240 286 351
#     4  10  18  35  62  90 116 149 190 248 297 336
#     4  12  28  44  52  78 126 174 196 232 284 350
#     4  10  18  35  62  90 116 149 190 248 297 336
#
# _framework density 18.012892999999998
#
# number of rings (size 3 to 8) (size 9 to 14) (size 15 to 20)
#    0.000    1.867    4.000    0.400    0.000    2.667 
#    2.400    0.000    0.000    0.000    0.000    0.000 
#    0.000    0.000    0.000    0.000    0.000    0.000 
#
# Total GULP energy -167275.913872 kJ/mol
# GULP energy per Si atom -5575.863796 kJ/mol
# Density = 1.797190 g / cm^3
# Si number density = 18.012893 Si / 1000 Ang^3
#
#
#
# Elastic Constant Matrix: (Units=GPa)
#
#
# Indices 1 2 3 4 5 6 
#
# 1 115.7247 25.1592 24.8366 0.0000 16.8159 0.0000
# 2 25.1592 41.0251 28.8261 0.0000 7.5230 0.0000
# 3 24.8366 28.8261 94.0118 0.0000 13.6001 0.0000
# 4 0.0000 0.0000 0.0000 0.9562 0.0000 -0.7676
# 5 16.8159 7.5230 13.6001 0.0000 19.0337 0.0000
# 6 0.0000 0.0000 0.0000 -0.7676 0.0000 16.8495
#
#
#
# Elastic Compliance Matrix: (Units=1/GPa)
#
#
# Indices 1 2 3 4 5 6 
#
# 1 0.010889 -0.005162 -0.000220 0.000000 -0.007423 0.000000
# 2 -0.005162 0.034165 -0.008720 0.000000 -0.002713 0.000000
# 3 -0.000220 -0.008720 0.014323 0.000000 -0.006593 0.000000
# 4 0.000000 0.000000 0.000000 1.085557 0.000000 0.049454
# 5 -0.007423 -0.002713 -0.006593 0.000000 0.064879 0.000000
# 6 0.000000 0.000000 0.000000 0.049454 0.000000 0.061602
#
#
# Mechanical properties :
#
#
# Convention : Reuss Voigt Hill
#
# Bulk Modulus (GPa) = 32.07884 45.37841 38.72862
# Shear Modulus (GPa) = 3.81676 18.83052 11.32364
#
# Velocity S-wave (km/s) = 1.45723 3.23676 2.50999
# Velocity P-wave (km/s) = 4.54740 6.26224 5.47241
#
# Compressibility (1/GPa) = 0.03117320
#
# Stress axis : x y z
#
# Youngs Moduli (GPa) = 91.83285 29.26939 69.82007
#
# Poissons Ratio (x) = 0.15109 0.01537
# Poissons Ratio (y) = 0.47406 0.60881
# Poissons Ratio (z) = 0.02022 0.25522
#
# Static dielectric constant tensor:
#      x y z
#    x 1.643190 0.000000 0.009180 
#    y 0.000000 1.627240 0.000000 
#    z 0.009180 0.000000 1.613530 
# 
# From -- ./inp_files/82237.got.cif
#   From: 2010.05.17/outbox.cif.g08.bks.cpg/sg15_42_cif.got.tgz:82237.got - 2010.06.03 18:47:42.
