data_PCOD9259229
_publ_section_title
;
Structure prediction by ZEFSAII (Michael W. Deem and Ramdas Pophale) SiO2 
 PCOD9259229
Probable space group: C 2/C
;
_chemical_formula_sum "Si O2"
_cell_formula_units_Z 52
_cell_length_a 12.034890
_cell_length_b 16.742376
_cell_length_c 21.326095
_cell_angle_alpha 90.000000
_cell_angle_beta 139.260901
_cell_angle_gamma 90.000000
_cell_volume 2804.322856
_symmetry_space_group_name_H-M "C 2/C"
_symmetry_group_IT_number 15
_symmetry_cell_setting 'monoclinic'
loop_
_space_group_symop_operation_xyz
x,y,z
-x,y,1/2-z
-x,-y,-z
x,-y,1/2+z
1/2+x,1/2+y,z
1/2-x,1/2+y,1/2-z
1/2-x,1/2-y,-z
1/2+x,1/2-y,1/2+z
loop_
_atom_site_type_symbol
_atom_site_label
_atom_site_fract_x
_atom_site_fract_y
_atom_site_fract_z
Si Si1 0.643555 0.803003 0.758031
Si Si2 0.683105 0.868530 0.455859
Si Si3 0.430218 0.292985 0.068847
Si Si4 0.000000 0.398017 0.250000
Si Si5 0.013692 0.239158 0.461380
Si Si6 0.352765 0.531887 0.519515
Si Si7 0.228310 0.968261 0.658398
O O1 0.500000 0.800613 0.750000
O O2 0.566791 0.752417 0.669220
O O3 0.821693 0.765821 0.855162
O O4 0.688022 0.896488 0.767193
O O5 0.576074 0.856301 0.344931
O O6 0.592013 0.824131 0.474392
O O7 0.862894 0.824758 0.519597
O O8 0.722090 0.962258 0.483785
O O9 0.388679 0.384709 0.068884
O O10 0.250000 0.250000 0.000000
O O11 0.501200 0.284234 0.028710
O O12 0.151868 0.454693 0.290245
O O13 0.537799 0.490798 0.595563
O O14 0.289222 0.556488 0.422424
#
# Coordination Sequence:
#
# PCOD9259229 Si02
#       7
#     8   8   8   4   8   8   8
#     4  12  22  39  63  91 122 162 212 262 307 371
#     4  10  23  39  64  91 134 156 206 266 322 376
#     4  12  24  39  65  89 126 171 214 255 316 376
#     4  10  20  32  64 100 114 164 210 262 316 374
#     4  11  23  43  60  95 126 168 202 264 322 380
#     4  10  19  39  60  89 121 164 206 265 312 365
#     4  10  18  34  62  90 118 149 214 269 302 355
#
# _framework density 18.542801000000001
#
# number of rings (size 3 to 8) (size 9 to 14) (size 15 to 20)
#    0.000    1.231    5.385    1.846    6.462    0.000 
#    0.000    0.769    3.385    0.000    0.000    0.000 
#    0.000    0.000    0.000    0.000    0.000    0.000 
#
# Total GULP energy -144998.022940 kJ/mol
# GULP energy per Si atom -5576.847036 kJ/mol
# Density = 1.850060 g / cm^3
# Si number density = 18.542801 Si / 1000 Ang^3
#
#
#
# Elastic Constant Matrix: (Units=GPa)
#
#
# Indices 1 2 3 4 5 6 
#
# 1 56.0967 20.2926 6.2064 0.0000 14.2002 0.0000
# 2 20.2926 109.3630 21.6425 0.0000 -4.0590 0.0000
# 3 6.2064 21.6425 98.0697 0.0000 14.1326 0.0000
# 4 0.0000 0.0000 0.0000 43.9539 0.0000 -5.9157
# 5 14.2002 -4.0590 14.1326 0.0000 22.4027 0.0000
# 6 0.0000 0.0000 0.0000 -5.9157 0.0000 26.9852
#
#
#
# Elastic Compliance Matrix: (Units=1/GPa)
#
#
# Indices 1 2 3 4 5 6 
#
# 1 0.024069 -0.005569 0.002255 0.000000 -0.017688 0.000000
# 2 -0.005569 0.011087 -0.003182 0.000000 0.007546 0.000000
# 3 0.002255 -0.003182 0.012150 0.000000 -0.009670 0.000000
# 4 0.000000 0.000000 0.000000 0.023443 0.000000 0.005139
# 5 -0.017688 0.007546 -0.009670 0.000000 0.063316 0.000000
# 6 0.000000 0.000000 0.000000 0.005139 0.000000 0.038184
#
#
# Mechanical properties :
#
#
# Convention : Reuss Voigt Hill
#
# Bulk Modulus (GPa) = 29.14261 39.97916 34.56088
# Shear Modulus (GPa) = 25.42226 33.02757 29.22491
#
# Velocity S-wave (km/s) = 3.70672 4.22495 3.97429
# Velocity P-wave (km/s) = 5.83697 6.73851 6.30388
#
# Compressibility (1/GPa) = 0.03431402
#
# Stress axis : x y z
#
# Youngs Moduli (GPa) = 41.54766 90.19707 82.30551
#
# Poissons Ratio (x) = 0.50228 -0.18557
# Poissons Ratio (y) = 0.23137 0.26187
# Poissons Ratio (z) = -0.09368 0.28698
#
# Static dielectric constant tensor:
#      x y z
#    x 1.625920 0.000000 0.003480 
#    y 0.000000 1.698950 0.000000 
#    z 0.003480 0.000000 1.649880 
# 
# From -- ./inp_files/145475.got.cif
#   From: 2010.05.17/outbox.cif.g08.bks.cpg/sg15_73_cif.got.tgz:145475.got - 2010.06.03 18:47:42.
