data_PCOD9259528
_publ_section_title
;
Structure prediction by ZEFSAII (Michael W. Deem and Ramdas Pophale) SiO2 
 PCOD9259528
Probable space group: C 2/C
;
_chemical_formula_sum "Si O2"
_cell_formula_units_Z 64
_cell_length_a 9.009540
_cell_length_b 16.205436
_cell_length_c 25.129215
_cell_angle_alpha 90.000000
_cell_angle_beta 126.407386
_cell_angle_gamma 90.000000
_cell_volume 2952.837580
_symmetry_space_group_name_H-M "C 2/C"
_symmetry_group_IT_number 15
_symmetry_cell_setting 'monoclinic'
loop_
_space_group_symop_operation_xyz
x,y,z
-x,y,1/2-z
-x,-y,-z
x,-y,1/2+z
1/2+x,1/2+y,z
1/2-x,1/2+y,1/2-z
1/2-x,1/2-y,-z
1/2+x,1/2-y,1/2+z
loop_
_atom_site_type_symbol
_atom_site_label
_atom_site_fract_x
_atom_site_fract_y
_atom_site_fract_z
Si Si1 0.510858 0.270239 0.663470
Si Si2 0.827949 0.364516 0.929603
Si Si3 0.120500 0.037280 0.463693
Si Si4 0.776643 0.527645 0.102424
Si Si5 0.371655 0.712748 0.773880
Si Si6 0.994639 0.777963 0.534476
Si Si7 0.957075 0.403415 0.298141
Si Si8 0.892995 0.308054 0.597771
O O1 0.362337 0.340166 0.639924
O O2 0.708881 0.280490 0.732384
O O3 0.536660 0.257645 0.605388
O O4 0.437792 0.184238 0.672240
O O5 0.771153 0.446257 0.949896
O O6 0.993393 0.354589 0.923825
O O7 0.867174 0.290513 0.980322
O O8 0.198908 0.978594 0.525752
O O9 0.085449 0.129022 0.481847
O O10 0.911285 0.010066 0.403878
O O11 0.946796 0.465305 0.141475
O O12 0.849860 0.618553 0.130807
O O13 0.500000 0.715673 0.750000
O O14 0.487251 0.735435 0.850516
O O15 0.253697 0.627573 0.745449
O O16 0.186549 0.777162 0.542943
O O17 0.000000 0.439645 0.250000
#
# Coordination Sequence:
#
# PCOD9259528 Si02
#       8
#     8   8   8   8   8   8   8   8
#     4   9  19  35  61  81 111 149 196 239 284 343
#     4  11  20  33  58  91 116 145 195 247 294 334
#     4   9  20  36  58  81 113 153 195 230 289 356
#     4  10  21  39  56  79 118 159 194 231 293 359
#     4  10  21  38  61  82 114 155 194 240 291 346
#     4  10  18  35  59  88 112 151 192 238 294 346
#     4  10  20  36  58  82 107 152 197 243 283 338
#     4  11  22  35  55  90 120 152 190 246 292 347
#
# _framework density 21.674067000000001
#
# number of rings (size 3 to 8) (size 9 to 14) (size 15 to 20)
#    0.750    1.250    1.250    4.125    0.000    1.000 
#    0.000    2.500    0.000    0.000    0.000    0.000 
#    0.000    0.000    0.000    0.000    0.000    0.000 
#
# Total GULP energy -178157.904254 kJ/mol
# GULP energy per Si atom -5567.434508 kJ/mol
# Density = 2.162474 g / cm^3
# Si number density = 21.674067 Si / 1000 Ang^3
#
#
#
# Elastic Constant Matrix: (Units=GPa)
#
#
# Indices 1 2 3 4 5 6 
#
# 1 116.8237 -1.0168 22.2035 0.0000 23.3430 0.0000
# 2 -1.0168 35.7465 16.9152 0.0000 16.4214 0.0000
# 3 22.2035 16.9152 31.8248 0.0000 20.0269 0.0000
# 4 0.0000 0.0000 0.0000 24.6046 0.0000 4.7895
# 5 23.3430 16.4214 20.0269 0.0000 32.0277 0.0000
# 6 0.0000 0.0000 0.0000 4.7895 0.0000 26.4838
#
#
#
# Elastic Compliance Matrix: (Units=1/GPa)
#
#
# Indices 1 2 3 4 5 6 
#
# 1 0.011483 0.007157 -0.006990 0.000000 -0.007668 0.000000
# 2 0.007157 0.044400 -0.018110 0.000000 -0.016657 0.000000
# 3 -0.006990 -0.018110 0.060800 0.000000 -0.023638 0.000000
# 4 0.000000 0.000000 0.000000 0.042126 0.000000 -0.007618
# 5 -0.007668 -0.016657 -0.023638 0.000000 0.060132 0.000000
# 6 0.000000 0.000000 0.000000 -0.007618 0.000000 0.039137
#
#
# Mechanical properties :
#
#
# Convention : Reuss Voigt Hill
#
# Bulk Modulus (GPa) = 12.37702 28.95543 20.66622
# Shear Modulus (GPa) = 15.58138 26.37610 20.97874
#
# Velocity S-wave (km/s) = 2.68413 3.49226 3.11451
# Velocity P-wave (km/s) = 3.91523 5.44515 4.74229
#
# Compressibility (1/GPa) = 0.08079488
#
# Stress axis : x y z
#
# Youngs Moduli (GPa) = 87.08653 22.52259 16.44749
#
# Poissons Ratio (x) = -0.16119 0.11497
# Poissons Ratio (y) = -0.62325 0.29787
# Poissons Ratio (z) = 0.60874 0.40789
#
# Static dielectric constant tensor:
#      x y z
#    x 1.886340 0.000000 -0.008830 
#    y 0.000000 1.829270 0.000000 
#    z -0.008830 0.000000 1.778860 
# 
# From -- ./inp_files/308275.got.cif
#   From: 2010.05.17/outbox.cif.g08.bks.cpg/sg15_155_cif.got.tgz:308275.got - 2010.06.03 18:47:42.
