data_PCOD9259452
_publ_section_title
;
Structure prediction by ZEFSAII (Michael W. Deem and Ramdas Pophale) SiO2 
 PCOD9259452
Probable space group: C 2/C
;
_chemical_formula_sum "Si O2"
_cell_formula_units_Z 40
_cell_length_a 20.266135
_cell_length_b 7.192820
_cell_length_c 17.731132
_cell_angle_alpha 90.000000
_cell_angle_beta 42.985719
_cell_angle_gamma 90.000000
_cell_volume 1762.275510
_symmetry_space_group_name_H-M "C 2/C"
_symmetry_group_IT_number 15
_symmetry_cell_setting 'monoclinic'
loop_
_space_group_symop_operation_xyz
x,y,z
-x,y,1/2-z
-x,-y,-z
x,-y,1/2+z
1/2+x,1/2+y,z
1/2-x,1/2+y,1/2-z
1/2-x,1/2-y,-z
1/2+x,1/2-y,1/2+z
loop_
_atom_site_type_symbol
_atom_site_label
_atom_site_fract_x
_atom_site_fract_y
_atom_site_fract_z
Si Si1 0.131138 0.886265 0.040969
Si Si2 0.740286 0.007974 0.941784
Si Si3 0.578129 0.418873 0.317807
Si Si4 0.350801 0.853198 0.618458
Si Si5 0.859662 0.784029 0.634929
O O1 0.170116 0.677556 0.022409
O O2 0.140179 0.900354 0.942824
O O3 0.195957 0.024742 0.036801
O O4 0.017356 0.891584 0.150538
O O5 0.823316 0.084561 0.813735
O O6 0.676717 0.858947 0.947904
O O7 0.581589 0.275946 0.385812
O O8 0.572308 0.621208 0.360697
O O9 0.247292 0.808106 0.742364
O O10 0.379880 0.067875 0.607163
#
# Coordination Sequence:
#
# PCOD9259452 Si02
#       5
#     8   8   8   8   8
#     4  10  19  35  55  83 110 145 183 224 277 331
#     4   9  20  34  54  83 112 140 184 226 276 327
#     4  11  20  35  61  78 109 148 183 225 274 325
#     4  10  18  35  58  80 106 147 180 226 269 328
#     4  10  19  34  56  82 108 142 186 222 272 330
#
# _framework density 22.697925999999999
#
# number of rings (size 3 to 8) (size 9 to 14) (size 15 to 20)
#    0.000    2.000    6.000    1.200    0.000    3.200 
#    0.000    1.000    0.000   14.400    0.000    0.000 
#    0.000    0.000    0.000    0.000    0.000    0.000 
#
# Total GULP energy -111466.877733 kJ/mol
# GULP energy per Si atom -5573.343887 kJ/mol
# Density = 2.264626 g / cm^3
# Si number density = 22.697926 Si / 1000 Ang^3
#
#
#
# Elastic Constant Matrix: (Units=GPa)
#
#
# Indices 1 2 3 4 5 6 
#
# 1 150.9840 42.5422 13.2249 -0.0022 0.9833 0.0024
# 2 42.5422 74.3577 7.2484 -0.0041 12.8422 0.0056
# 3 13.2249 7.2484 14.0194 -0.0022 3.4007 0.0029
# 4 -0.0022 -0.0041 -0.0022 18.9647 0.0008 11.7346
# 5 0.9833 12.8422 3.4007 0.0008 38.5031 -0.0010
# 6 0.0024 0.0056 0.0029 11.7346 -0.0010 27.5669
#
#
#
# Elastic Compliance Matrix: (Units=1/GPa)
#
#
# Indices 1 2 3 4 5 6 
#
# 1 0.008421 -0.004546 -0.006038 -0.000002 0.001835 0.000002
# 2 -0.004546 0.017302 -0.003357 0.000007 -0.005358 -0.000006
# 3 -0.006038 -0.003357 0.080171 0.000017 -0.005807 -0.000015
# 4 -0.000002 0.000007 0.000017 0.071584 -0.000006 -0.030472
# 5 0.001835 -0.005358 -0.005807 -0.000006 0.028225 0.000005
# 6 0.000002 -0.000006 -0.000015 -0.030472 0.000005 0.049247
#
#
# Mechanical properties :
#
#
# Convention : Reuss Voigt Hill
#
# Bulk Modulus (GPa) = 12.81888 40.59910 26.70899
# Shear Modulus (GPa) = 16.18976 28.76330 22.47653
#
# Velocity S-wave (km/s) = 2.67361 3.56367 3.15023
# Velocity P-wave (km/s) = 3.89754 5.90411 5.00246
#
# Compressibility (1/GPa) = 0.07800992
#
# Stress axis : x y z
#
# Youngs Moduli (GPa) = 118.74849 57.79602 12.47341
#
# Poissons Ratio (x) = 0.26275 0.07532
# Poissons Ratio (y) = 0.53986 0.04188
# Poissons Ratio (z) = 0.71706 0.19404
#
# Static dielectric constant tensor:
#      x y z
#    x 1.909890 0.000000 0.002440 
#    y 0.000000 1.831820 0.000000 
#    z 0.002440 0.000000 1.861440 
# 
# From -- ./inp_files/165377.got.cif
#   From: 2010.05.17/outbox.cif.g08.bks.cpg/sg15_83_cif.got.tgz:165377.got - 2010.06.03 18:47:42.
