data_PCOD9259551
_publ_section_title
;
Structure prediction by ZEFSAII (Michael W. Deem and Ramdas Pophale) SiO2 
 PCOD9259551
Probable space group: C 2/C
;
_chemical_formula_sum "Si O2"
_cell_formula_units_Z 64
_cell_length_a 9.025253
_cell_length_b 29.036640
_cell_length_c 14.804098
_cell_angle_alpha 90.000000
_cell_angle_beta 130.337748
_cell_angle_gamma 90.000000
_cell_volume 2957.199304
_symmetry_space_group_name_H-M "C 2/C"
_symmetry_group_IT_number 15
_symmetry_cell_setting 'monoclinic'
loop_
_space_group_symop_operation_xyz
x,y,z
-x,y,1/2-z
-x,-y,-z
x,-y,1/2+z
1/2+x,1/2+y,z
1/2-x,1/2+y,1/2-z
1/2-x,1/2-y,-z
1/2+x,1/2-y,1/2+z
loop_
_atom_site_type_symbol
_atom_site_label
_atom_site_fract_x
_atom_site_fract_y
_atom_site_fract_z
Si Si1 0.085896 0.578790 0.518583
Si Si2 0.647869 0.420376 0.890197
Si Si3 0.225107 0.321458 0.058289
Si Si4 0.324392 0.323285 0.308357
Si Si5 0.942779 0.017813 0.619619
Si Si6 0.067083 0.749470 0.025620
Si Si7 0.308737 0.923511 0.227721
Si Si8 0.401816 0.683309 0.111745
O O1 0.118718 0.630507 0.496365
O O2 0.238224 0.544766 0.530997
O O3 0.143519 0.577527 0.646892
O O4 0.858249 0.568486 0.430140
O O5 0.500000 0.416764 0.750000
O O6 0.585190 0.465171 0.921093
O O7 0.636056 0.369908 0.929710
O O8 0.251568 0.317908 0.177459
O O9 0.440631 0.325205 0.103683
O O10 0.095959 0.277558 0.982643
O O11 0.287530 0.279208 0.355088
O O12 0.242107 0.370619 0.314992
O O13 0.000000 0.017218 0.750000
O O14 0.119449 0.044795 0.643400
O O15 0.193621 0.708519 0.033049
O O16 0.988835 0.785667 0.920061
O O17 0.500000 0.938817 0.250000
O O18 0.500000 0.684744 0.250000
#
# Coordination Sequence:
#
# PCOD9259551 Si02
#       8
#     8   8   8   8   8   8   8   8
#     4  10  18  35  60  83 113 151 194 239 291 340
#     4  10  20  35  58  84 113 149 198 237 282 351
#     4  10  19  36  55  83 112 151 198 238 290 343
#     4  10  21  34  57  83 116 150 189 247 289 345
#     4   9  18  36  60  87 110 146 192 241 289 355
#     4  11  21  34  57  79 116 150 196 232 288 342
#     4  10  21  34  58  88 120 144 187 246 301 348
#     4  10  22  36  52  82 113 150 189 234 281 342
#
# _framework density 21.642101
#
# number of rings (size 3 to 8) (size 9 to 14) (size 15 to 20)
#    0.000    2.000    2.500    1.500    1.750    1.500 
#    0.000    0.625    0.000    0.000    0.000    0.000 
#    0.000    0.000    0.000    0.000    0.000    0.000 
#
# Total GULP energy -178652.188356 kJ/mol
# GULP energy per Si atom -5582.880886 kJ/mol
# Density = 2.159284 g / cm^3
# Si number density = 21.642101 Si / 1000 Ang^3
#
#
#
# Elastic Constant Matrix: (Units=GPa)
#
#
# Indices 1 2 3 4 5 6 
#
# 1 56.8854 43.9959 19.1348 0.0000 20.8376 0.0000
# 2 43.9959 173.4869 22.5645 0.0000 17.5571 0.0000
# 3 19.1348 22.5645 59.7324 0.0000 10.1370 0.0000
# 4 0.0000 0.0000 0.0000 24.5207 0.0000 21.0847
# 5 20.8376 17.5571 10.1370 0.0000 37.8841 0.0000
# 6 0.0000 0.0000 0.0000 21.0847 0.0000 19.7148
#
#
#
# Elastic Compliance Matrix: (Units=1/GPa)
#
#
# Indices 1 2 3 4 5 6 
#
# 1 0.027373 -0.005156 -0.004894 0.000000 -0.011357 0.000000
# 2 -0.005156 0.007231 -0.001040 0.000000 -0.000237 0.000000
# 3 -0.004894 -0.001040 0.019027 0.000000 -0.001918 0.000000
# 4 0.000000 0.000000 0.000000 0.507363 0.000000 -0.542618
# 5 -0.011357 -0.000237 -0.001918 0.000000 0.033266 0.000000
# 6 0.000000 0.000000 0.000000 -0.542618 0.000000 0.631045
#
#
# Mechanical properties :
#
#
# Convention : Reuss Voigt Hill
#
# Bulk Modulus (GPa) = 31.79372 51.27724 41.53548
# Shear Modulus (GPa) = 3.97466 30.05123 17.01294
#
# Velocity S-wave (km/s) = 1.35666 3.73037 2.80680
# Velocity P-wave (km/s) = 4.14447 6.50377 5.45324
#
# Compressibility (1/GPa) = 0.03145276
#
# Stress axis : x y z
#
# Youngs Moduli (GPa) = 36.53195 138.29615 52.55636
#
# Poissons Ratio (x) = 0.71305 0.25720
# Poissons Ratio (y) = 0.18836 0.05464
# Poissons Ratio (z) = 0.17878 0.14378
#
# Static dielectric constant tensor:
#      x y z
#    x 1.815740 0.000000 -0.011340 
#    y 0.000000 1.817550 0.000000 
#    z -0.011340 0.000000 1.786290 
# 
# From -- ./inp_files/139856.got.cif
#   From: 2010.05.17/outbox.cif.g08.bks.cpg/sg15_70_cif.got.tgz:139856.got - 2010.06.03 18:47:42.
