data_PCOD9259887
_publ_section_title
;
Structure prediction by ZEFSAII (Michael W. Deem and Ramdas Pophale) SiO2 
 PCOD9259887
Probable space group: C 2/C
;
_chemical_formula_sum "Si O2"
_cell_formula_units_Z 56
_cell_length_a 20.799138
_cell_length_b 26.813819
_cell_length_c 5.032675
_cell_angle_alpha 90.000000
_cell_angle_beta 103.239693
_cell_angle_gamma 90.000000
_cell_volume 2732.142656
_symmetry_space_group_name_H-M "C 2/C"
_symmetry_group_IT_number 15
_symmetry_cell_setting 'monoclinic'
loop_
_space_group_symop_operation_xyz
x,y,z
-x,y,1/2-z
-x,-y,-z
x,-y,1/2+z
1/2+x,1/2+y,z
1/2-x,1/2+y,1/2-z
1/2-x,1/2-y,-z
1/2+x,1/2-y,1/2+z
loop_
_atom_site_type_symbol
_atom_site_label
_atom_site_fract_x
_atom_site_fract_y
_atom_site_fract_z
Si Si1 0.827579 0.467786 0.072082
Si Si2 0.711171 0.399309 0.929595
Si Si3 0.572043 0.359938 0.883511
Si Si4 0.743743 0.663298 0.962094
Si Si5 0.072532 0.622784 0.740040
Si Si6 0.105564 0.685105 0.273477
Si Si7 0.604165 0.295747 0.414818
O O1 0.839851 0.511967 0.290022
O O2 0.874369 0.420981 0.177960
O O3 0.752456 0.448492 0.029784
O O4 0.632669 0.397932 0.898125
O O5 0.728310 0.382517 0.647228
O O6 0.738072 0.356569 0.156501
O O7 0.500000 0.380496 0.750000
O O8 0.585259 0.314514 0.688905
O O9 0.576473 0.336098 0.179361
O O10 0.683738 0.700951 0.959960
O O11 0.815945 0.682499 0.097881
O O12 0.074493 0.645655 0.448807
O O13 0.000000 0.604424 0.750000
O O14 0.090735 0.667080 0.962739
O O15 0.081972 0.740604 0.318208
#
# Coordination Sequence:
#
# PCOD9259887 Si02
#       7
#     8   8   8   8   8   8   8
#     4  12  24  42  68  87 109 141 189 247 298 354
#     4  10  20  38  61  88 113 146 192 237 288 347
#     4  10  21  37  57  85 125 160 192 230 275 333
#     4  10  18  36  58  84 118 153 196 242 279 328
#     4  12  27  42  59  86 117 156 191 235 301 350
#     4  12  21  39  59  82 124 159 196 243 279 329
#     4  10  22  32  57  89 118 162 206 234 267 321
#
# _framework density 20.496734
#
# number of rings (size 3 to 8) (size 9 to 14) (size 15 to 20)
#    0.000    1.143    2.857    3.857    0.000    4.000 
#    0.000    5.714    0.000    0.857    0.000    0.000 
#    0.000    0.000    0.000    0.000    0.000    0.000 
#
# Total GULP energy -156580.047690 kJ/mol
# GULP energy per Si atom -5592.144560 kJ/mol
# Density = 2.045008 g / cm^3
# Si number density = 20.496734 Si / 1000 Ang^3
#
#
#
# Elastic Constant Matrix: (Units=GPa)
#
#
# Indices 1 2 3 4 5 6 
#
# 1 103.2567 4.3665 11.0583 0.0000 22.5066 0.0000
# 2 4.3665 40.2410 -4.8337 0.0000 0.4166 0.0000
# 3 11.0583 -4.8337 57.6144 0.0000 5.2551 0.0000
# 4 0.0000 0.0000 0.0000 10.8034 0.0000 -7.7517
# 5 22.5066 0.4166 5.2551 0.0000 31.6841 0.0000
# 6 0.0000 0.0000 0.0000 -7.7517 0.0000 -2.2008
#
#
#
# Elastic Compliance Matrix: (Units=1/GPa)
#
#
# Indices 1 2 3 4 5 6 
#
# 1 0.011659 -0.001377 -0.001624 0.000000 -0.007995 0.000000
# 2 -0.001377 0.025281 0.002362 0.000000 0.000254 0.000000
# 3 -0.001624 0.002362 0.018037 0.000000 -0.001869 0.000000
# 4 0.000000 0.000000 0.000000 0.026243 0.000000 -0.092431
# 5 -0.007995 0.000254 -0.001869 0.000000 0.037547 0.000000
# 6 0.000000 0.000000 0.000000 -0.092431 0.000000 -0.128819
#
#
# Mechanical properties :
#
#
# Convention : Reuss Voigt Hill
#
# Bulk Modulus (GPa) = 18.62255 24.69938 21.66096
# Shear Modulus (GPa) = 547.86451 20.75873 284.31162
#
# Velocity S-wave (km/s) = 16.36685 3.18588 11.79033
# Velocity P-wave (km/s) = 19.13819 5.06060 13.99786
#
# Compressibility (1/GPa) = 0.05369834
#
# Stress axis : x y z
#
# Youngs Moduli (GPa) = 85.76787 39.55567 55.44111
#
# Poissons Ratio (x) = 0.05449 0.09005
# Poissons Ratio (y) = 0.11814 -0.13096
# Poissons Ratio (z) = 0.13931 -0.09344
#
# Static dielectric constant tensor:
#      x y z
#    x 1.756470 0.000000 0.028150 
#    y 0.000000 1.684730 0.000000 
#    z 0.028150 0.000000 1.705050 
# 
# From -- ./inp_files/13746.got.cif
#   From: 2010.05.17/outbox.cif.g08.bks.cpg/sg15_7_cif.got.tgz:13746.got - 2010.06.03 18:47:42.
