data_PCOD9259854
_publ_section_title
;
Structure prediction by ZEFSAII (Michael W. Deem and Ramdas Pophale) SiO2 
 PCOD9259854
Probable space group: C 2/C
;
_chemical_formula_sum "Si O2"
_cell_formula_units_Z 36
_cell_length_a 6.964126
_cell_length_b 18.170194
_cell_length_c 11.857893
_cell_angle_alpha 90.000000
_cell_angle_beta 87.270810
_cell_angle_gamma 90.000000
_cell_volume 1498.790155
_symmetry_space_group_name_H-M "C 2/C"
_symmetry_group_IT_number 15
_symmetry_cell_setting 'monoclinic'
loop_
_space_group_symop_operation_xyz
x,y,z
-x,y,1/2-z
-x,-y,-z
x,-y,1/2+z
1/2+x,1/2+y,z
1/2-x,1/2+y,1/2-z
1/2-x,1/2-y,-z
1/2+x,1/2-y,1/2+z
loop_
_atom_site_type_symbol
_atom_site_label
_atom_site_fract_x
_atom_site_fract_y
_atom_site_fract_z
Si Si1 0.084829 0.357524 0.520011
Si Si2 0.000000 0.848615 0.750000
Si Si3 0.713407 0.260791 0.164219
Si Si4 0.788105 0.534762 0.305016
Si Si5 0.193962 0.625961 0.668257
O O1 0.239937 0.322096 0.430257
O O2 0.063270 0.298362 0.620961
O O3 0.176900 0.429622 0.572997
O O4 0.889348 0.367884 0.455475
O O5 0.093545 0.791031 0.834484
O O6 0.172060 0.907465 0.730948
O O7 0.694843 0.304916 0.282107
O O8 0.705559 0.452698 0.317651
O O9 0.000000 0.527991 0.250000
O O10 0.000000 0.625395 0.750000
#
# Coordination Sequence:
#
# PCOD9259854 Si02
#       5
#     8   4   8   8   8
#     4   9  16  29  56  80 104 148 189 218 274 331
#     4  10  18  36  58  78 110 150 182 222 274 326
#     4   9  16  30  57  84 104 146 191 224 267 331
#     4  10  21  33  55  84 116 144 181 229 279 326
#     4   9  16  31  54  82 109 143 184 228 273 326
#
# _framework density 24.019373000000002
#
# number of rings (size 3 to 8) (size 9 to 14) (size 15 to 20)
#    0.000    2.667    3.333    0.667    0.000    0.000 
#    0.000    1.111    9.778   82.667    0.000    0.000 
#    0.000    0.000    0.000    0.000    0.000    0.000 
#
# Total GULP energy -100305.501320 kJ/mol
# GULP energy per Si atom -5572.527851 kJ/mol
# Density = 2.396470 g / cm^3
# Si number density = 24.019373 Si / 1000 Ang^3
#
#
#
# Elastic Constant Matrix: (Units=GPa)
#
#
# Indices 1 2 3 4 5 6 
#
# 1 38.6478 25.1184 18.9725 0.0000 18.2972 0.0000
# 2 25.1184 158.6447 62.2743 0.0000 21.1599 0.0000
# 3 18.9725 62.2743 113.3384 0.0000 30.0738 0.0000
# 4 0.0000 0.0000 0.0000 2903.3307 0.0000 164.8111
# 5 18.2972 21.1599 30.0738 0.0000 21.2718 0.0000
# 6 0.0000 0.0000 0.0000 164.8111 0.0000 39.7107
#
#
#
# Elastic Compliance Matrix: (Units=1/GPa)
#
#
# Indices 1 2 3 4 5 6 
#
# 1 0.046702 -0.003829 0.006297 0.000000 -0.045265 0.000000
# 2 -0.003829 0.008456 -0.004237 0.000000 0.000871 0.000000
# 3 0.006297 -0.004237 0.016669 0.000000 -0.024769 0.000000
# 4 0.000000 0.000000 0.000000 0.000451 0.000000 -0.001870
# 5 -0.045265 0.000871 -0.024769 0.000000 0.120097 0.000000
# 6 0.000000 0.000000 0.000000 -0.001870 0.000000 0.032943
#
#
# Mechanical properties :
#
#
# Convention : Reuss Voigt Hill
#
# Bulk Modulus (GPa) = 14.64330 58.15124 36.39727
# Shear Modulus (GPa) = 19.87126 606.48036 313.17581
#
# Velocity S-wave (km/s) = 2.87941 15.90737 11.43100
# Velocity P-wave (km/s) = 4.14298 19.01724 13.76262
#
# Compressibility (1/GPa) = 0.06829061
#
# Stress axis : x y z
#
# Youngs Moduli (GPa) = 21.41232 118.25256 59.99110
#
# Poissons Ratio (x) = 0.45276 -0.37775
# Poissons Ratio (y) = 0.08198 0.25416
# Poissons Ratio (z) = -0.13483 0.50100
#
# Static dielectric constant tensor:
#      x y z
#    x 2.012120 0.000000 -0.020940 
#    y 0.000000 1.929300 0.000000 
#    z -0.020940 0.000000 1.999550 
# 
# From -- ./inp_files/133489.got.cif
#   From: 2010.05.17/outbox.cif.g08.bks.cpg/sg15_67_cif.got.tgz:133489.got - 2010.06.03 18:47:42.
