data_PCOD9259960
_publ_section_title
;
Structure prediction by ZEFSAII (Michael W. Deem and Ramdas Pophale) SiO2 
 PCOD9259960
Probable space group: C 2/C
;
_chemical_formula_sum "Si O2"
_cell_formula_units_Z 40
_cell_length_a 4.928403
_cell_length_b 20.787550
_cell_length_c 15.902012
_cell_angle_alpha 90.000000
_cell_angle_beta 67.702299
_cell_angle_gamma 90.000000
_cell_volume 1507.332036
_symmetry_space_group_name_H-M "C 2/C"
_symmetry_group_IT_number 15
_symmetry_cell_setting 'monoclinic'
loop_
_space_group_symop_operation_xyz
x,y,z
-x,y,1/2-z
-x,-y,-z
x,-y,1/2+z
1/2+x,1/2+y,z
1/2-x,1/2+y,1/2-z
1/2-x,1/2-y,-z
1/2+x,1/2-y,1/2+z
loop_
_atom_site_type_symbol
_atom_site_label
_atom_site_fract_x
_atom_site_fract_y
_atom_site_fract_z
Si Si1 0.602887 0.610289 0.055483
Si Si2 0.000000 0.000000 0.000000
Si Si3 0.000000 0.611235 0.750000
Si Si4 0.005412 0.810703 0.410432
Si Si5 0.654759 0.074242 0.902711
Si Si6 0.179985 0.318825 0.813399
O O1 0.334309 0.562824 0.074030
O O2 0.726747 0.627263 0.130324
O O3 0.563385 0.672152 0.000989
O O4 0.823253 0.560937 0.976301
O O5 0.105623 0.965763 0.078245
O O6 0.241583 0.654907 0.674911
O O7 0.148596 0.569691 0.804618
O O8 0.007589 0.737095 0.383623
O O9 0.717402 0.850757 0.418167
O O10 0.500000 0.291835 0.750000
O O11 0.000000 0.335082 0.750000
#
# Coordination Sequence:
#
# PCOD9259960 Si02
#       6
#     8   4   4   8   8   8
#     4  10  24  43  68  93 130 183 230 279 347 408
#     4  10  22  44  66  88 132 178 232 286 336 414
#     4  10  18  36  60 102 122 168 218 276 324 394
#     4  10  21  40  68  95 137 172 225 271 340 416
#     4  10  21  38  68  94 129 173 230 284 338 407
#     4  12  27  44  68 104 147 179 221 285 352 426
#
# _framework density 26.536951999999999
#
# number of rings (size 3 to 8) (size 9 to 14) (size 15 to 20)
#    0.000    1.600    1.000    3.000    8.400    0.800 
#    1.800    4.000    0.000    0.000    0.000    0.000 
#    0.000    0.000    0.000    0.000    0.000    0.000 
#
# Total GULP energy -111635.300746 kJ/mol
# GULP energy per Si atom -5581.765037 kJ/mol
# Density = 2.647655 g / cm^3
# Si number density = 26.536952 Si / 1000 Ang^3
#
#
#
# Elastic Constant Matrix: (Units=GPa)
#
#
# Indices 1 2 3 4 5 6 
#
# 1 140.1832 31.7809 66.2460 0.0000 25.5918 0.0000
# 2 31.7809 112.7617 81.2262 0.0000 25.9564 0.0000
# 3 66.2460 81.2262 138.2170 0.0000 73.2621 0.0000
# 4 0.0000 0.0000 0.0000 13.2655 0.0000 -6.9689
# 5 25.5918 25.9564 73.2621 0.0000 79.7278 0.0000
# 6 0.0000 0.0000 0.0000 -6.9689 0.0000 37.9004
#
#
#
# Elastic Compliance Matrix: (Units=1/GPa)
#
#
# Indices 1 2 3 4 5 6 
#
# 1 0.009609 0.001848 -0.007287 0.000000 0.003010 0.000000
# 2 0.001848 0.017633 -0.015384 0.000000 0.007802 0.000000
# 3 -0.007287 -0.015384 0.030946 0.000000 -0.021089 0.000000
# 4 0.000000 0.000000 0.000000 0.083444 0.000000 0.015343
# 5 0.003010 0.007802 -0.021089 0.000000 0.028416 0.000000
# 6 0.000000 0.000000 0.000000 0.015343 0.000000 0.029206
#
#
# Mechanical properties :
#
#
# Convention : Reuss Voigt Hill
#
# Bulk Modulus (GPa) = 60.44789 83.29645 71.87217
# Shear Modulus (GPa) = 20.29120 40.30598 30.29859
#
# Velocity S-wave (km/s) = 2.76821 3.90149 3.38265
# Velocity P-wave (km/s) = 5.74852 7.19392 6.51145
#
# Compressibility (1/GPa) = 0.01654317
#
# Stress axis : x y z
#
# Youngs Moduli (GPa) = 104.07442 56.71263 32.31403
#
# Poissons Ratio (x) = -0.10480 0.23546
# Poissons Ratio (y) = -0.19231 0.49710
# Poissons Ratio (z) = 0.75834 0.87244
#
# Static dielectric constant tensor:
#      x y z
#    x 2.370950 0.000000 -0.123310 
#    y 0.000000 2.293600 0.000000 
#    z -0.123310 0.000000 2.073220 
# 
# From -- ./inp_files/129080.got.cif
#   From: 2010.05.17/outbox.cif.g08.bks.cpg/sg15_65_cif.got.tgz:129080.got - 2010.06.03 18:47:42.
