data_PCOD9259066
_publ_section_title
;
Structure prediction by ZEFSAII (Michael W. Deem and Ramdas Pophale) SiO2 
 PCOD9259066
Probable space group: C 2/C
;
_chemical_formula_sum "Si O2"
_cell_formula_units_Z 60
_cell_length_a 32.315397
_cell_length_b 20.543757
_cell_length_c 14.624349
_cell_angle_alpha 90.000000
_cell_angle_beta 159.213278
_cell_angle_gamma 90.000000
_cell_volume 3445.561860
_symmetry_space_group_name_H-M "C 2/C"
_symmetry_group_IT_number 15
_symmetry_cell_setting 'monoclinic'
loop_
_space_group_symop_operation_xyz
x,y,z
-x,y,1/2-z
-x,-y,-z
x,-y,1/2+z
1/2+x,1/2+y,z
1/2-x,1/2+y,1/2-z
1/2-x,1/2-y,-z
1/2+x,1/2-y,1/2+z
loop_
_atom_site_type_symbol
_atom_site_label
_atom_site_fract_x
_atom_site_fract_y
_atom_site_fract_z
Si Si1 0.339107 0.603065 0.046011
Si Si2 0.421931 0.466910 0.261924
Si Si3 0.813059 0.198135 0.325073
Si Si4 0.414739 0.345296 0.364089
Si Si5 0.509975 0.227174 0.112392
Si Si6 0.251313 0.185339 0.811089
Si Si7 0.698037 0.823162 0.407839
Si Si8 0.500000 0.401149 0.250000
O O1 0.289323 0.632469 0.848507
O O2 0.259235 0.629685 0.962857
O O3 0.343958 0.524753 0.059322
O O4 0.467698 0.631368 0.338796
O O5 0.500000 0.500000 0.500000
O O6 0.370103 0.404839 0.208298
O O7 0.505121 0.442203 0.352450
O O8 0.737007 0.245201 0.230598
O O9 0.913268 0.242450 0.482043
O O10 0.887331 0.144034 0.529711
O O11 0.735255 0.163714 0.087699
O O12 0.444319 0.286653 0.355634
O O13 0.324008 0.323781 0.253625
O O14 0.613214 0.190254 0.378014
O O15 0.437202 0.180821 0.894837
O O16 0.750000 0.750000 0.500000
#
# Coordination Sequence:
#
# PCOD9259066 Si02
#       8
#     8   8   8   8   8   8   8   4
#     4  11  21  36  54  85 115 156 192 236 287 353
#     4  10  23  36  54  81 117 157 190 236 291 344
#     4  11  18  35  58  90 109 148 196 236 287 342
#     4  11  21  38  52  83 126 148 180 240 305 346
#     4  11  19  36  55  84 114 148 187 235 291 347
#     4  12  22  30  57  89 120 143 187 244 295 343
#     4  10  18  34  59  77 115 147 192 239 282 334
#     4  12  20  36  64  84 118 148 198 240 282 354
#
# _framework density 17.413706000000001
#
# number of rings (size 3 to 8) (size 9 to 14) (size 15 to 20)
#    0.000    1.067    8.000    1.600    3.733    0.000 
#    0.000    0.000    0.000    0.800    3.467    0.000 
#    0.000    0.000    0.000    0.000    0.000    0.000 
#
# Total GULP energy -167191.232877 kJ/mol
# GULP energy per Si atom -5573.041096 kJ/mol
# Density = 1.737407 g / cm^3
# Si number density = 17.413706 Si / 1000 Ang^3
#
#
#
# Elastic Constant Matrix: (Units=GPa)
#
#
# Indices 1 2 3 4 5 6 
#
# 1 115.2902 46.1758 26.7177 0.0000 0.9557 0.0000
# 2 46.1758 79.0669 29.3929 0.0000 10.6937 0.0000
# 3 26.7177 29.3929 82.4319 0.0000 -20.8132 0.0000
# 4 0.0000 0.0000 0.0000 22.2472 0.0000 -9.2367
# 5 0.9557 10.6937 -20.8132 0.0000 29.1074 0.0000
# 6 0.0000 0.0000 0.0000 -9.2367 0.0000 17.3544
#
#
#
# Elastic Compliance Matrix: (Units=1/GPa)
#
#
# Indices 1 2 3 4 5 6 
#
# 1 0.011515 -0.006469 -0.001124 0.000000 0.001195 0.000000
# 2 -0.006469 0.021873 -0.009369 0.000000 -0.014523 0.000000
# 3 -0.001124 -0.009369 0.020397 0.000000 0.018064 0.000000
# 4 0.000000 0.000000 0.000000 0.057700 0.000000 0.030710
# 5 0.001195 -0.014523 0.018064 0.000000 0.052569 0.000000
# 6 0.000000 0.000000 0.000000 0.030710 0.000000 0.073967
#
#
# Mechanical properties :
#
#
# Convention : Reuss Voigt Hill
#
# Bulk Modulus (GPa) = 50.35028 53.48464 51.91746
# Shear Modulus (GPa) = 17.94909 25.37531 21.66220
#
# Velocity S-wave (km/s) = 3.21400 3.82147 3.53083
# Velocity P-wave (km/s) = 6.53835 7.08889 6.81918
#
# Compressibility (1/GPa) = 0.01986086
#
# Stress axis : x y z
#
# Youngs Moduli (GPa) = 86.84185 45.71944 49.02565
#
# Poissons Ratio (x) = 0.29574 0.05511
# Poissons Ratio (y) = 0.56175 0.45934
# Poissons Ratio (z) = 0.09762 0.42836
#
# Static dielectric constant tensor:
#      x y z
#    x 1.269680 0.000000 0.134280 
#    y 0.000000 1.618380 0.000000 
#    z 0.134280 0.000000 1.534650 
# 
# From -- ./inp_files/183087.got.cif
#   From: 2010.05.17/outbox.cif.g08.bks.cpg/sg15_92_cif.got.tgz:183087.got - 2010.06.03 18:47:42.
