data_PCOD9259531
_publ_section_title
;
Structure prediction by ZEFSAII (Michael W. Deem and Ramdas Pophale) SiO2 
 PCOD9259531
Probable space group: C 2/C
;
_chemical_formula_sum "Si O2"
_cell_formula_units_Z 44
_cell_length_a 8.171390
_cell_length_b 15.804235
_cell_length_c 16.561206
_cell_angle_alpha 90.000000
_cell_angle_beta 71.314800
_cell_angle_gamma 90.000000
_cell_volume 2026.029357
_symmetry_space_group_name_H-M "C 2/C"
_symmetry_group_IT_number 15
_symmetry_cell_setting 'monoclinic'
loop_
_space_group_symop_operation_xyz
x,y,z
-x,y,1/2-z
-x,-y,-z
x,-y,1/2+z
1/2+x,1/2+y,z
1/2-x,1/2+y,1/2-z
1/2-x,1/2-y,-z
1/2+x,1/2-y,1/2+z
loop_
_atom_site_type_symbol
_atom_site_label
_atom_site_fract_x
_atom_site_fract_y
_atom_site_fract_z
Si Si1 0.982762 0.423552 0.663645
Si Si2 0.775979 0.745163 0.197658
Si Si3 0.500000 0.628013 0.750000
Si Si4 0.999243 0.736391 0.886813
Si Si5 0.689198 0.930575 0.399150
Si Si6 0.195194 0.840733 0.969643
O O1 0.842883 0.349588 0.690040
O O2 0.921534 0.487212 0.603856
O O3 0.000000 0.464827 0.750000
O O4 0.158819 0.375411 0.613840
O O5 0.683528 0.763711 0.127962
O O6 0.639928 0.755365 0.292149
O O7 0.932380 0.809180 0.190640
O O8 0.665185 0.576522 0.693861
O O9 0.053539 0.647397 0.917398
O O10 0.029311 0.813669 0.943697
O O11 0.799763 0.912454 0.462325
O O12 0.250000 0.750000 0.000000
#
# Coordination Sequence:
#
# PCOD9259531 Si02
#       6
#     8   8   4   8   8   8
#     4  12  22  37  62  92 124 162 205 254 313 361
#     4  10  18  35  59  88 118 161 211 249 298 369
#     4  10  20  40  58  86 120 168 212 250 300 378
#     4   9  19  36  62  87 118 162 213 247 300 375
#     4  10  23  38  62  89 125 162 202 259 313 356
#     4  10  20  42  63  89 124 165 204 252 307 371
#
# _framework density 21.717355999999999
#
# number of rings (size 3 to 8) (size 9 to 14) (size 15 to 20)
#    0.000    1.818    2.727    2.727    5.091    1.455 
#    0.000    9.091    0.000    0.000    0.000    0.000 
#    0.000    0.000    0.000    0.000    0.000    0.000 
#
# Total GULP energy -122779.947938 kJ/mol
# GULP energy per Si atom -5580.906724 kJ/mol
# Density = 2.166793 g / cm^3
# Si number density = 21.717356 Si / 1000 Ang^3
#
#
#
# Elastic Constant Matrix: (Units=GPa)
#
#
# Indices 1 2 3 4 5 6 
#
# 1 81.2787 19.4990 15.3576 0.0000 27.9257 0.0000
# 2 19.4990 49.2105 11.3777 0.0000 -2.1198 0.0000
# 3 15.3576 11.3777 70.0381 0.0000 16.3579 0.0000
# 4 0.0000 0.0000 0.0000 18.5652 0.0000 9.6087
# 5 27.9257 -2.1198 16.3579 0.0000 29.0759 0.0000
# 6 0.0000 0.0000 0.0000 9.6087 0.0000 24.6116
#
#
#
# Elastic Compliance Matrix: (Units=1/GPa)
#
#
# Indices 1 2 3 4 5 6 
#
# 1 0.022520 -0.010474 0.002295 0.000000 -0.023683 0.000000
# 2 -0.010474 0.026396 -0.005515 0.000000 0.015087 0.000000
# 3 0.002295 -0.005515 0.017591 0.000000 -0.012503 0.000000
# 4 0.000000 0.000000 0.000000 0.067504 0.000000 -0.026355
# 5 -0.023683 0.015087 -0.012503 0.000000 0.065273 0.000000
# 6 0.000000 0.000000 0.000000 -0.026355 0.000000 0.050921
#
#
# Mechanical properties :
#
#
# Convention : Reuss Voigt Hill
#
# Bulk Modulus (GPa) = 25.56343 32.55512 29.05927
# Shear Modulus (GPa) = 17.20391 24.73674 20.97032
#
# Velocity S-wave (km/s) = 2.81761 3.37861 3.11079
# Velocity P-wave (km/s) = 4.73094 5.49936 5.12956
#
# Compressibility (1/GPa) = 0.03911839
#
# Stress axis : x y z
#
# Youngs Moduli (GPa) = 44.40579 37.88455 56.84821
#
# Poissons Ratio (x) = 0.39680 -0.13046
# Poissons Ratio (y) = 0.46510 0.31352
# Poissons Ratio (z) = -0.10191 0.20893
#
# Static dielectric constant tensor:
#      x y z
#    x 1.798430 0.000000 0.001970 
#    y 0.000000 1.745760 0.000000 
#    z 0.001970 0.000000 1.891010 
# 
# From -- ./inp_files/188750.got.cif
#   From: 2010.05.17/outbox.cif.g08.bks.cpg/sg15_95_cif.got.tgz:188750.got - 2010.06.03 18:47:42.
