data_PCOD9259757
_publ_section_title
;
Structure prediction by ZEFSAII (Michael W. Deem and Ramdas Pophale) SiO2 
 PCOD9259757
Probable space group: C 2/C
;
_chemical_formula_sum "Si O2"
_cell_formula_units_Z 64
_cell_length_a 31.463507
_cell_length_b 14.439319
_cell_length_c 8.493256
_cell_angle_alpha 90.000000
_cell_angle_beta 61.067348
_cell_angle_gamma 90.000000
_cell_volume 3376.990894
_symmetry_space_group_name_H-M "C 2/C"
_symmetry_group_IT_number 15
_symmetry_cell_setting 'monoclinic'
loop_
_space_group_symop_operation_xyz
x,y,z
-x,y,1/2-z
-x,-y,-z
x,-y,1/2+z
1/2+x,1/2+y,z
1/2-x,1/2+y,1/2-z
1/2-x,1/2-y,-z
1/2+x,1/2-y,1/2+z
loop_
_atom_site_type_symbol
_atom_site_label
_atom_site_fract_x
_atom_site_fract_y
_atom_site_fract_z
Si Si1 0.742871 0.620038 0.104953
Si Si2 0.087697 0.366959 0.290409
Si Si3 0.310691 0.363018 0.379489
Si Si4 0.010014 0.396049 0.918347
Si Si5 0.893276 0.565484 0.101110
Si Si6 0.802686 0.981085 0.106574
Si Si7 0.820145 0.699643 0.756115
Si Si8 0.306408 0.149566 0.434746
O O1 0.740939 0.534829 0.226382
O O2 0.712747 0.709386 0.216566
O O3 0.715245 0.582565 0.001311
O O4 0.794723 0.650872 0.950990
O O5 0.031713 0.339372 0.415909
O O6 0.097478 0.456451 0.385649
O O7 0.124818 0.289549 0.286957
O O8 0.098489 0.402509 0.093726
O O9 0.326252 0.414229 0.191835
O O10 0.330006 0.430939 0.481900
O O11 0.322005 0.255441 0.367140
O O12 0.251131 0.363712 0.490454
O O13 0.000000 0.390940 0.750000
O O14 0.065693 0.380834 0.868080
O O15 0.000000 0.500000 0.000000
O O16 0.840442 0.586917 0.266279
O O17 0.816045 0.641001 0.603764
#
# Coordination Sequence:
#
# PCOD9259757 Si02
#       8
#     8   8   8   8   8   8   8   8
#     4  10  22  34  52  70 105 134 179 217 255 298
#     4  11  23  34  54  75 104 138 174 208 252 306
#     4  10  22  34  52  70 105 134 179 217 255 298
#     4  10  18  36  54  74 102 131 168 211 250 300
#     4  11  23  34  54  75 104 138 174 208 252 306
#     4  10  20  36  52  70  92 144 174 214 258 308
#     4  11  22  35  49  75 105 136 172 219 257 295
#     4  11  22  35  49  75 105 136 172 219 257 295
#
# _framework density 18.951782999999999
#
# number of rings (size 3 to 8) (size 9 to 14) (size 15 to 20)
#    0.000    1.500    2.500    4.875    7.000    0.000 
#    0.000    0.000    0.000    0.000    0.000    0.000 
#    0.000    6.000    0.000    0.000    0.000    0.000 
#
# Total GULP energy -178463.890251 kJ/mol
# GULP energy per Si atom -5576.996570 kJ/mol
# Density = 1.890865 g / cm^3
# Si number density = 18.951783 Si / 1000 Ang^3
#
#
#
# Elastic Constant Matrix: (Units=GPa)
#
#
# Indices 1 2 3 4 5 6 
#
# 1 57.9084 -6.6079 17.6960 0.0000 2.3550 0.0000
# 2 -6.6079 38.8297 0.5151 0.0000 6.0773 0.0000
# 3 17.6960 0.5151 77.4345 0.0000 14.1673 0.0000
# 4 0.0000 0.0000 0.0000 22.5441 0.0000 4.1062
# 5 2.3550 6.0773 14.1673 0.0000 31.9688 0.0000
# 6 0.0000 0.0000 0.0000 4.1062 0.0000 18.6043
#
#
#
# Elastic Compliance Matrix: (Units=1/GPa)
#
#
# Indices 1 2 3 4 5 6 
#
# 1 0.018976 0.003303 -0.004340 0.000000 -0.000103 0.000000
# 2 0.003303 0.027165 0.000059 0.000000 -0.005433 0.000000
# 3 -0.004340 0.000059 0.015071 0.000000 -0.006370 0.000000
# 4 0.000000 0.000000 0.000000 0.046215 0.000000 -0.010200
# 5 -0.000103 -0.005433 -0.006370 0.000000 0.035144 0.000000
# 6 0.000000 0.000000 0.000000 -0.010200 0.000000 0.056002
#
#
# Mechanical properties :
#
#
# Convention : Reuss Voigt Hill
#
# Bulk Modulus (GPa) = 16.87609 21.93100 19.40355
# Shear Modulus (GPa) = 22.69815 25.46139 24.07977
#
# Velocity S-wave (km/s) = 3.46450 3.66933 3.56839
# Velocity P-wave (km/s) = 4.99277 5.43591 5.21905
#
# Compressibility (1/GPa) = 0.05925542
#
# Stress axis : x y z
#
# Youngs Moduli (GPa) = 52.69856 36.81187 66.35251
#
# Poissons Ratio (x) = -0.12158 0.28795
# Poissons Ratio (y) = -0.17406 -0.00389
# Poissons Ratio (z) = 0.22870 -0.00216
#
# Static dielectric constant tensor:
#      x y z
#    x 1.687030 0.000000 0.016050 
#    y 0.000000 1.684310 0.000000 
#    z 0.016050 0.000000 1.727580 
# 
# From -- ./inp_files/69930.got.cif
#   From: 2010.05.17/outbox.cif.g08.bks.cpg/sg15_35_cif.got.tgz:69930.got - 2010.06.03 18:47:42.
