data_PCOD9259795
_publ_section_title
;
Structure prediction by ZEFSAII (Michael W. Deem and Ramdas Pophale) SiO2 
 PCOD9259795
Probable space group: C 2/C
;
_chemical_formula_sum "Si O2"
_cell_formula_units_Z 52
_cell_length_a 12.484855
_cell_length_b 14.033662
_cell_length_c 17.268694
_cell_angle_alpha 90.000000
_cell_angle_beta 127.445028
_cell_angle_gamma 90.000000
_cell_volume 2402.149742
_symmetry_space_group_name_H-M "C 2/C"
_symmetry_group_IT_number 15
_symmetry_cell_setting 'monoclinic'
loop_
_space_group_symop_operation_xyz
x,y,z
-x,y,1/2-z
-x,-y,-z
x,-y,1/2+z
1/2+x,1/2+y,z
1/2-x,1/2+y,1/2-z
1/2-x,1/2-y,-z
1/2+x,1/2-y,1/2+z
loop_
_atom_site_type_symbol
_atom_site_label
_atom_site_fract_x
_atom_site_fract_y
_atom_site_fract_z
Si Si1 0.468105 0.889256 0.575106
Si Si2 0.460979 0.687875 0.966361
Si Si3 0.774760 0.482749 0.895178
Si Si4 0.166835 0.864733 0.245208
Si Si5 0.688679 0.712923 0.378505
Si Si6 0.587187 0.261137 0.669287
Si Si7 0.500000 0.197156 0.250000
O O1 0.477430 0.784338 0.542450
O O2 0.343185 0.944586 0.484663
O O3 0.456633 0.870143 0.660748
O O4 0.603861 0.943157 0.606405
O O5 0.416854 0.625617 0.872157
O O6 0.317430 0.719949 0.938923
O O7 0.560961 0.671686 0.083088
O O8 0.667719 0.541313 0.797338
O O9 0.717436 0.393870 0.918057
O O10 0.324286 0.833736 0.304974
O O11 0.109521 0.771216 0.263888
O O12 0.560272 0.760404 0.361073
O O13 0.662029 0.692975 0.275268
#
# Coordination Sequence:
#
# PCOD9259795 Si02
#       7
#     8   8   8   8   8   8   4
#     4   9  19  37  61  79 117 152 189 225 282 331
#     4   9  17  35  57  85 108 150 192 230 268 341
#     4  10  19  38  58  84 112 153 182 234 286 332
#     4  10  21  36  61  82 112 145 195 231 275 334
#     4   9  20  32  58  82 115 147 184 232 285 334
#     4  10  18  36  56  79 113 150 183 230 283 331
#     4  10  22  40  56  88 110 150 194 234 264 346
#
# _framework density 21.647276000000002
#
# number of rings (size 3 to 8) (size 9 to 14) (size 15 to 20)
#    0.000    2.462    1.538    1.385    0.000    1.846 
#    2.769    2.308    0.000    0.000    0.000    0.000 
#    0.000    0.000    0.000    0.000    0.000    0.000 
#
# Total GULP energy -144880.633263 kJ/mol
# GULP energy per Si atom -5572.332049 kJ/mol
# Density = 2.159801 g / cm^3
# Si number density = 21.647276 Si / 1000 Ang^3
#
#
#
# Elastic Constant Matrix: (Units=GPa)
#
#
# Indices 1 2 3 4 5 6 
#
# 1 39.9937 4.1012 8.9651 0.0000 -5.3746 0.0000
# 2 4.1012 36.2258 13.4218 0.0000 -8.8261 0.0000
# 3 8.9651 13.4218 141.7308 0.0000 -20.3826 0.0000
# 4 0.0000 0.0000 0.0000 18.4818 0.0000 -11.6391
# 5 -5.3746 -8.8261 -20.3826 0.0000 26.2756 0.0000
# 6 0.0000 0.0000 0.0000 -11.6391 0.0000 0.9353
#
#
#
# Elastic Compliance Matrix: (Units=1/GPa)
#
#
# Indices 1 2 3 4 5 6 
#
# 1 0.025917 -0.001610 -0.000903 0.000000 0.004060 0.000000
# 2 -0.001610 0.030479 -0.001530 0.000000 0.008722 0.000000
# 3 -0.000903 -0.001530 0.008056 0.000000 0.005550 0.000000
# 4 0.000000 0.000000 0.000000 -0.007914 0.000000 -0.098484
# 5 0.004060 0.008722 0.005550 0.000000 0.046124 0.000000
# 6 0.000000 0.000000 0.000000 -0.098484 0.000000 -0.156383
#
#
# Mechanical properties :
#
#
# Convention : Reuss Voigt Hill
#
# Bulk Modulus (GPa) = 17.74163 30.10295 23.92229
# Shear Modulus (GPa) = -186.24964 21.90267 -82.17349
#
# Velocity S-wave (km/s) = -9.28575 3.18433 -6.16787
# Velocity P-wave (km/s) = 10.33215 5.23987 6.29671
#
# Compressibility (1/GPa) = 0.05636461
#
# Stress axis : x y z
#
# Youngs Moduli (GPa) = 38.58458 32.80963 124.13294
#
# Poissons Ratio (x) = 0.05284 0.11210
# Poissons Ratio (y) = 0.06214 0.18995
# Poissons Ratio (z) = 0.03484 0.05020
#
# Static dielectric constant tensor:
#      x y z
#    x 1.824850 0.000000 -0.020610 
#    y 0.000000 1.765000 0.000000 
#    z -0.020610 0.000000 1.878080 
# 
# From -- ./inp_files/205207.got.cif
#   From: 2010.05.17/outbox.cif.g08.bks.cpg/sg15_103_cif.got.tgz:205207.got - 2010.06.03 18:47:42.
