data_PCOD9259430
_publ_section_title
;
Structure prediction by ZEFSAII (Michael W. Deem and Ramdas Pophale) SiO2 
 PCOD9259430
Probable space group: C 2/C
;
_chemical_formula_sum "Si O2"
_cell_formula_units_Z 60
_cell_length_a 18.170022
_cell_length_b 13.426556
_cell_length_c 11.182358
_cell_angle_alpha 90.000000
_cell_angle_beta 115.510951
_cell_angle_gamma 90.000000
_cell_volume 2462.079767
_symmetry_space_group_name_H-M "C 2/C"
_symmetry_group_IT_number 15
_symmetry_cell_setting 'monoclinic'
loop_
_space_group_symop_operation_xyz
x,y,z
-x,y,1/2-z
-x,-y,-z
x,-y,1/2+z
1/2+x,1/2+y,z
1/2-x,1/2+y,1/2-z
1/2-x,1/2-y,-z
1/2+x,1/2-y,1/2+z
loop_
_atom_site_type_symbol
_atom_site_label
_atom_site_fract_x
_atom_site_fract_y
_atom_site_fract_z
Si Si1 0.286464 0.625101 0.573461
Si Si2 0.934345 0.029319 0.799140
Si Si3 0.913000 0.190476 0.960551
Si Si4 0.226619 0.680021 0.875879
Si Si5 0.000000 0.162804 0.250000
Si Si6 0.268766 0.687185 0.321942
Si Si7 0.873795 0.504660 0.092814
Si Si8 0.604220 0.094935 0.139966
O O1 0.344994 0.554091 0.687481
O O2 0.318626 0.632421 0.459494
O O3 0.282927 0.732048 0.635343
O O4 0.195062 0.582968 0.498385
O O5 0.000000 0.070441 0.750000
O O6 0.950636 0.091912 0.929009
O O7 0.945441 0.911819 0.792220
O O8 0.943579 0.216063 0.115040
O O9 0.818068 0.158199 0.895281
O O10 0.928019 0.292086 0.898148
O O11 0.186006 0.745068 0.742659
O O12 0.174948 0.588714 0.885109
O O13 0.250000 0.750000 0.000000
O O14 0.203329 0.613861 0.214463
O O15 0.916115 0.549181 0.243506
O O16 0.914085 0.466802 0.995480
#
# Coordination Sequence:
#
# PCOD9259430 Si02
#       8
#     8   8   8   8   4   8   8   8
#     4  10  18  35  57  83 131 154 195 247 307 375
#     4  10  22  39  60  92 119 167 210 249 304 375
#     4  11  21  44  60  84 133 162 202 274 306 373
#     4  11  19  35  58  89 126 159 204 244 319 384
#     4  10  24  40  66  90 116 174 218 240 320 364
#     4   9  18  33  55  84 118 167 185 242 322 370
#     4  11  21  35  57  99 121 171 203 253 322 393
#     4  10  21  36  63  86 128 162 208 261 320 380
#
# _framework density 24.369643
#
# number of rings (size 3 to 8) (size 9 to 14) (size 15 to 20)
#    0.400    1.333    5.333    2.000    0.000    0.000 
#    2.400    0.000    0.000    0.800    0.000    0.000 
#    0.000    0.000    0.000    0.000    0.000    0.000 
#
# Total GULP energy -167331.581807 kJ/mol
# GULP energy per Si atom -5577.719394 kJ/mol
# Density = 2.431418 g / cm^3
# Si number density = 24.369643 Si / 1000 Ang^3
#
#
#
# Elastic Constant Matrix: (Units=GPa)
#
#
# Indices 1 2 3 4 5 6 
#
# 1 55.3253 24.5438 15.9761 0.0000 -17.7441 0.0000
# 2 24.5438 93.6043 38.2610 0.0000 -6.4353 0.0000
# 3 15.9761 38.2610 163.3112 0.0000 -15.2549 0.0000
# 4 0.0000 0.0000 0.0000 18.6606 0.0000 -26.8749
# 5 -17.7441 -6.4353 -15.2549 0.0000 22.3805 0.0000
# 6 0.0000 0.0000 0.0000 -26.8749 0.0000 11.4060
#
#
#
# Elastic Compliance Matrix: (Units=1/GPa)
#
#
# Indices 1 2 3 4 5 6 
#
# 1 0.026983 -0.005951 0.000633 0.000000 0.020114 0.000000
# 2 -0.005951 0.013182 -0.002769 0.000000 -0.002816 0.000000
# 3 0.000633 -0.002769 0.007137 0.000000 0.004571 0.000000
# 4 0.000000 0.000000 0.000000 -0.022390 0.000000 -0.052756
# 5 0.020114 -0.002816 0.004571 0.000000 0.062935 0.000000
# 6 0.000000 0.000000 0.000000 -0.052756 0.000000 -0.036631
#
#
# Mechanical properties :
#
#
# Convention : Reuss Voigt Hill
#
# Bulk Modulus (GPa) = 32.12513 52.20030 42.16271
# Shear Modulus (GPa) = 64.29613 26.05341 45.17477
#
# Velocity S-wave (km/s) = 5.14208 3.27325 4.31017
# Velocity P-wave (km/s) = 6.96173 5.97932 6.48914
#
# Compressibility (1/GPa) = 0.03112828
#
# Stress axis : x y z
#
# Youngs Moduli (GPa) = 37.06019 75.86061 140.11443
#
# Poissons Ratio (x) = 0.45147 -0.08876
# Poissons Ratio (y) = 0.22056 0.38800
# Poissons Ratio (z) = -0.02348 0.21007
#
# Static dielectric constant tensor:
#      x y z
#    x 2.298610 0.000000 -0.000860 
#    y 0.000000 1.923560 0.000000 
#    z -0.000860 0.000000 1.987310 
# 
# From -- ./inp_files/118581.got.cif
#   From: 2010.05.17/outbox.cif.g08.bks.cpg/sg15_60_cif.got.tgz:118581.got - 2010.06.03 18:47:42.
