data_PCOD9259931
_publ_section_title
;
Structure prediction by ZEFSAII (Michael W. Deem and Ramdas Pophale) SiO2 
 PCOD9259931
Probable space group: C 2/C
;
_chemical_formula_sum "Si O2"
_cell_formula_units_Z 52
_cell_length_a 26.535712
_cell_length_b 19.832226
_cell_length_c 15.096276
_cell_angle_alpha 90.000000
_cell_angle_beta 20.594246
_cell_angle_gamma 90.000000
_cell_volume 2794.494309
_symmetry_space_group_name_H-M "C 2/C"
_symmetry_group_IT_number 15
_symmetry_cell_setting 'monoclinic'
loop_
_space_group_symop_operation_xyz
x,y,z
-x,y,1/2-z
-x,-y,-z
x,-y,1/2+z
1/2+x,1/2+y,z
1/2-x,1/2+y,1/2-z
1/2-x,1/2-y,-z
1/2+x,1/2-y,1/2+z
loop_
_atom_site_type_symbol
_atom_site_label
_atom_site_fract_x
_atom_site_fract_y
_atom_site_fract_z
Si Si1 0.714249 0.885889 0.775951
Si Si2 0.655887 0.992043 0.510463
Si Si3 0.043253 0.954182 0.512341
Si Si4 0.662671 0.209402 0.507893
Si Si5 0.000000 0.948589 0.250000
Si Si6 0.807936 0.849093 0.947803
Si Si7 0.566558 0.061881 0.838470
O O1 0.854487 0.904772 0.489153
O O2 0.685054 0.947491 0.892851
O O3 0.742124 0.820233 0.790796
O O4 0.565432 0.887617 0.966181
O O5 0.500000 0.961422 0.750000
O O6 0.641209 0.029209 0.628876
O O7 0.788177 0.942294 0.280319
O O8 0.949520 0.887881 0.682977
O O9 0.000000 0.000000 0.500000
O O10 0.013294 0.002540 0.644503
O O11 0.500000 0.189862 0.750000
O O12 0.727022 0.175832 0.491097
O O13 0.665111 0.287899 0.529676
O O14 0.695326 0.900943 0.176311
O O15 0.500000 0.000000 0.000000
#
# Coordination Sequence:
#
# PCOD9259931 Si02
#       7
#     8   8   8   8   4   8   8
#     4  10  18  36  59  82 119 164 204 247 311 377
#     4   9  18  34  55  81 126 162 184 242 326 373
#     4  11  20  36  58  93 135 149 199 271 318 377
#     4  11  21  40  60  80 121 163 209 253 298 374
#     4  10  22  34  60  94 120 162 206 254 332 382
#     4  11  22  35  61  93 113 160 208 250 314 372
#     4  11  19  33  57  91 123 154 202 253 313 382
#
# _framework density 18.608018000000001
#
# number of rings (size 3 to 8) (size 9 to 14) (size 15 to 20)
#    0.000    1.538    4.615    2.308    1.077    0.000 
#    0.000    0.000    0.000    2.769    0.000    0.000 
#    0.000    0.000    0.000    0.000    0.000    0.000 
#
# Total GULP energy -144946.090828 kJ/mol
# GULP energy per Si atom -5574.849647 kJ/mol
# Density = 1.856566 g / cm^3
# Si number density = 18.608018 Si / 1000 Ang^3
#
#
#
# Elastic Constant Matrix: (Units=GPa)
#
#
# Indices 1 2 3 4 5 6 
#
# 1 51.9185 16.7598 30.1034 0.0000 -2.9231 0.0001
# 2 16.7598 78.1760 51.1768 -0.0012 -12.3468 0.0008
# 3 30.1034 51.1768 158.1065 0.0001 -16.0383 0.0009
# 4 0.0000 -0.0012 0.0001 20.2242 -0.0002 -1.9161
# 5 -2.9231 -12.3468 -16.0383 -0.0002 27.2429 -0.0004
# 6 0.0001 0.0008 0.0009 -1.9161 -0.0004 24.6020
#
#
#
# Elastic Compliance Matrix: (Units=1/GPa)
#
#
# Indices 1 2 3 4 5 6 
#
# 1 0.022050 -0.002609 -0.003439 0.000000 -0.000841 0.000000
# 2 -0.002609 0.017084 -0.004548 0.000001 0.004785 0.000000
# 3 -0.003439 -0.004548 0.008726 0.000000 0.002707 0.000000
# 4 0.000000 0.000001 0.000000 0.049813 0.000001 0.003880
# 5 -0.000841 0.004785 0.002707 0.000001 0.040379 0.000001
# 6 0.000000 0.000000 0.000000 0.003880 0.000001 0.040949
#
#
# Mechanical properties :
#
#
# Convention : Reuss Voigt Hill
#
# Bulk Modulus (GPa) = 37.49678 53.80899 45.65289
# Shear Modulus (GPa) = 23.91406 27.09123 25.50264
#
# Velocity S-wave (km/s) = 3.58879 3.81975 3.70607
# Velocity P-wave (km/s) = 6.11287 6.95945 6.54985
#
# Compressibility (1/GPa) = 0.02666896
#
# Stress axis : x y z
#
# Youngs Moduli (GPa) = 45.35185 58.53520 114.59584
#
# Poissons Ratio (x) = 0.15269 0.39412
# Poissons Ratio (y) = 0.11830 0.52114
# Poissons Ratio (z) = 0.15598 0.26620
#
# Static dielectric constant tensor:
#      x y z
#    x 1.697750 0.000000 -0.048180 
#    y 0.000000 1.678340 0.000000 
#    z -0.048180 0.000000 1.669040 
# 
# From -- ./inp_files/179003.got.cif
#   From: 2010.05.17/outbox.cif.g08.bks.cpg/sg15_90_cif.got.tgz:179003.got - 2010.06.03 18:47:42.
