data_PCOD9259707
_publ_section_title
;
Structure prediction by ZEFSAII (Michael W. Deem and Ramdas Pophale) SiO2 
 PCOD9259707
Probable space group: C 2/C
;
_chemical_formula_sum "Si O2"
_cell_formula_units_Z 48
_cell_length_a 14.431244
_cell_length_b 20.249972
_cell_length_c 14.052132
_cell_angle_alpha 90.000000
_cell_angle_beta 32.824310
_cell_angle_gamma 90.000000
_cell_volume 2225.981897
_symmetry_space_group_name_H-M "C 2/C"
_symmetry_group_IT_number 15
_symmetry_cell_setting 'monoclinic'
loop_
_space_group_symop_operation_xyz
x,y,z
-x,y,1/2-z
-x,-y,-z
x,-y,1/2+z
1/2+x,1/2+y,z
1/2-x,1/2+y,1/2-z
1/2-x,1/2-y,-z
1/2+x,1/2-y,1/2+z
loop_
_atom_site_type_symbol
_atom_site_label
_atom_site_fract_x
_atom_site_fract_y
_atom_site_fract_z
Si Si1 0.710724 0.683258 0.328720
Si Si2 0.129685 0.454191 0.275838
Si Si3 0.372729 0.454274 0.669075
Si Si4 0.394484 0.172860 0.571367
Si Si5 0.298423 0.134534 0.451274
Si Si6 0.250304 0.482688 0.975838
O O1 0.608438 0.621968 0.373330
O O2 0.650296 0.755229 0.350342
O O3 0.706044 0.674580 0.447432
O O4 0.906080 0.673615 0.127825
O O5 0.193663 0.517315 0.280754
O O6 0.138649 0.388889 0.331679
O O7 0.939649 0.469564 0.403070
O O8 0.245766 0.445896 0.080894
O O9 0.500000 0.500000 0.500000
O O10 0.371235 0.465122 0.783275
O O11 0.288031 0.163627 0.565695
O O12 0.500000 0.131471 0.250000
O O13 0.232697 0.059682 0.512832
#
# Coordination Sequence:
#
# PCOD9259707 Si02
#       6
#     8   8   8   8   8   8
#     4  11  24  41  61  96 130 178 213 265 330 402
#     4  11  21  40  69  93 123 173 223 267 320 390
#     4  12  25  40  64  97 134 165 217 277 332 381
#     4  11  23  39  65  92 135 170 218 263 337 392
#     4  10  18  35  64  97 123 160 212 272 321 392
#     4  11  20  39  70  96 121 165 227 273 322 386
#
# _framework density 21.563517999999998
#
# number of rings (size 3 to 8) (size 9 to 14) (size 15 to 20)
#    0.000    1.000    6.667    2.000    2.333    0.667 
#    0.000    2.500    0.000    0.000    0.000    0.000 
#    0.000    0.000    0.000    0.000    0.000    0.000 
#
# Total GULP energy -134287.625201 kJ/mol
# GULP energy per Si atom -5595.317717 kJ/mol
# Density = 2.151444 g / cm^3
# Si number density = 21.563518 Si / 1000 Ang^3
#
#
#
# Elastic Constant Matrix: (Units=GPa)
#
#
# Indices 1 2 3 4 5 6 
#
# 1 67.7429 17.7015 23.4673 -0.0144 26.4820 0.0028
# 2 17.7015 151.3900 19.1611 -0.0200 16.1249 0.0090
# 3 23.4673 19.1611 98.5067 -0.0285 27.8541 0.0187
# 4 -0.0144 -0.0200 -0.0285 26.9772 0.0146 3.2580
# 5 26.4820 16.1249 27.8541 0.0146 35.8199 -0.0064
# 6 0.0028 0.0090 0.0187 3.2580 -0.0064 27.7684
#
#
#
# Elastic Compliance Matrix: (Units=1/GPa)
#
#
# Indices 1 2 3 4 5 6 
#
# 1 0.020901 -0.000805 -0.000712 0.000019 -0.014536 -0.000007
# 2 -0.000805 0.006997 -0.000573 0.000006 -0.002109 -0.000003
# 3 -0.000712 -0.000573 0.013089 0.000020 -0.009394 -0.000013
# 4 0.000019 0.000006 0.000020 0.037601 -0.000048 -0.004412
# 5 -0.014536 -0.002109 -0.009394 -0.000048 0.046918 0.000025
# 6 -0.000007 -0.000003 -0.000013 -0.004412 0.000025 0.036530
#
#
# Mechanical properties :
#
#
# Convention : Reuss Voigt Hill
#
# Bulk Modulus (GPa) = 27.16977 48.69993 37.93485
# Shear Modulus (GPa) = 28.01342 35.26707 31.64025
#
# Velocity S-wave (km/s) = 3.60823 4.04852 3.83470
# Velocity P-wave (km/s) = 5.47598 6.66989 6.10220
#
# Compressibility (1/GPa) = 0.03680561
#
# Stress axis : x y z
#
# Youngs Moduli (GPa) = 47.84383 142.92351 76.40051
#
# Poissons Ratio (x) = 0.11512 0.05443
# Poissons Ratio (y) = 0.03854 0.04376
# Poissons Ratio (z) = 0.03408 0.08187
#
# Static dielectric constant tensor:
#      x y z
#    x 1.839070 0.000000 -0.055540 
#    y 0.000000 1.717900 0.000010 
#    z -0.055540 0.000010 1.864420 
# 
# From -- ./inp_files/163198.got.cif
#   From: 2010.05.17/outbox.cif.g08.bks.cpg/sg15_82_cif.got.tgz:163198.got - 2010.06.03 18:47:42.
