data_PCOD9259151
_publ_section_title
;
Structure prediction by ZEFSAII (Michael W. Deem and Ramdas Pophale) SiO2 
 PCOD9259151
Probable space group: C 2/C
;
_chemical_formula_sum "Si O2"
_cell_formula_units_Z 64
_cell_length_a 20.122492
_cell_length_b 10.223477
_cell_length_c 23.109590
_cell_angle_alpha 90.000000
_cell_angle_beta 128.911057
_cell_angle_gamma 90.000000
_cell_volume 3699.306317
_symmetry_space_group_name_H-M "C 2/C"
_symmetry_group_IT_number 15
_symmetry_cell_setting 'monoclinic'
loop_
_space_group_symop_operation_xyz
x,y,z
-x,y,1/2-z
-x,-y,-z
x,-y,1/2+z
1/2+x,1/2+y,z
1/2-x,1/2+y,1/2-z
1/2-x,1/2-y,-z
1/2+x,1/2-y,1/2+z
loop_
_atom_site_type_symbol
_atom_site_label
_atom_site_fract_x
_atom_site_fract_y
_atom_site_fract_z
Si Si1 0.358929 0.115526 0.032490
Si Si2 0.788045 0.882580 0.950299
Si Si3 0.777709 0.762985 0.717469
Si Si4 0.633721 0.621900 0.446452
Si Si5 0.021194 0.763151 0.696282
Si Si6 0.717015 0.860904 0.561477
Si Si7 0.984322 0.455442 0.808196
Si Si8 0.218539 0.454821 0.786044
O O1 0.294179 0.111010 0.052031
O O2 0.452898 0.114126 0.111985
O O3 0.332625 0.242814 0.982027
O O4 0.339215 0.988680 0.982714
O O5 0.757297 0.917590 0.869568
O O6 0.851898 0.991220 0.009882
O O7 0.879147 0.772548 0.761769
O O8 0.731356 0.820535 0.635271
O O9 0.759774 0.607505 0.714966
O O10 0.752479 0.853055 0.757433
O O11 0.537133 0.652870 0.377878
O O12 0.673132 0.740326 0.504753
O O13 0.691418 0.615900 0.419753
O O14 0.993974 0.610541 0.676687
O O15 0.000000 0.803874 0.750000
O O16 0.884362 0.442433 0.766986
O O17 0.000000 0.413950 0.750000
#
# Coordination Sequence:
#
# PCOD9259151 Si02
#       8
#     8   8   8   8   8   8   8   8
#     4  10  20  36  60  94 118 151 197 248 299 346
#     4  10  21  37  58  88 127 156 188 244 304 351
#     4  11  24  41  59  87 122 163 195 240 298 359
#     4  10  18  34  60  92 114 145 196 252 295 335
#     4  10  19  35  62  93 116 144 204 256 288 336
#     4  10  19  33  62  87 117 149 196 243 295 347
#     4  10  19  36  64  90 115 150 201 248 291 345
#     4  11  24  42  61  84 123 163 196 236 299 360
#
# _framework density 17.300540999999999
#
# number of rings (size 3 to 8) (size 9 to 14) (size 15 to 20)
#    0.000    1.750    5.000    0.000    1.750    0.000 
#    2.250    3.125    0.000    0.000    0.000    0.000 
#    0.000    0.000    0.000    0.000    0.000    0.000 
#
# Total GULP energy -178558.435519 kJ/mol
# GULP energy per Si atom -5579.951110 kJ/mol
# Density = 1.726116 g / cm^3
# Si number density = 17.300541 Si / 1000 Ang^3
#
#
#
# Elastic Constant Matrix: (Units=GPa)
#
#
# Indices 1 2 3 4 5 6 
#
# 1 48.2755 35.9687 33.6944 0.0000 -9.1326 0.0000
# 2 35.9687 101.7124 45.4187 0.0000 -17.7585 0.0000
# 3 33.6944 45.4187 109.6993 0.0000 -7.5016 0.0000
# 4 0.0000 0.0000 0.0000 22.9566 0.0000 0.3448
# 5 -9.1326 -17.7585 -7.5016 0.0000 19.1474 0.0000
# 6 0.0000 0.0000 0.0000 0.3448 0.0000 17.2370
#
#
#
# Elastic Compliance Matrix: (Units=1/GPa)
#
#
# Indices 1 2 3 4 5 6 
#
# 1 0.031705 -0.007394 -0.006280 0.000000 0.005804 0.000000
# 2 -0.007394 0.015733 -0.003582 0.000000 0.009661 0.000000
# 3 -0.006280 -0.003582 0.012429 0.000000 -0.001448 0.000000
# 4 0.000000 0.000000 0.000000 0.043574 0.000000 -0.000872
# 5 0.005804 0.009661 -0.001448 0.000000 0.063388 0.000000
# 6 0.000000 0.000000 0.000000 -0.000872 0.000000 0.058032
#
#
# Mechanical properties :
#
#
# Convention : Reuss Voigt Hill
#
# Bulk Modulus (GPa) = 39.44150 54.42789 46.93469
# Shear Modulus (GPa) = 18.66902 21.50856 20.08879
#
# Velocity S-wave (km/s) = 3.28853 3.52977 3.41128
# Velocity P-wave (km/s) = 6.10464 6.93837 6.53481
#
# Compressibility (1/GPa) = 0.02535400
#
# Stress axis : x y z
#
# Youngs Moduli (GPa) = 31.54106 63.56135 80.45873
#
# Poissons Ratio (x) = 0.46999 0.50527
# Poissons Ratio (y) = 0.23322 0.28820
# Poissons Ratio (z) = 0.19807 0.22768
#
# Static dielectric constant tensor:
#      x y z
#    x 1.575490 0.000000 -0.001440 
#    y 0.000000 1.580780 0.000000 
#    z -0.001440 0.000000 1.569510 
# 
# From -- ./inp_files/281516.got.cif
#   From: 2010.05.17/outbox.cif.g08.bks.cpg/sg15_141_cif.got.tgz:281516.got - 2010.06.03 18:47:42.
