data_PCOD9259455
_publ_section_title
;
Structure prediction by ZEFSAII (Michael W. Deem and Ramdas Pophale) SiO2 
 PCOD9259455
Probable space group: C 2/C
;
_chemical_formula_sum "Si O2"
_cell_formula_units_Z 44
_cell_length_a 8.495616
_cell_length_b 16.477058
_cell_length_c 14.607095
_cell_angle_alpha 90.000000
_cell_angle_beta 71.758379
_cell_angle_gamma 90.000000
_cell_volume 1941.982780
_symmetry_space_group_name_H-M "C 2/C"
_symmetry_group_IT_number 15
_symmetry_cell_setting 'monoclinic'
loop_
_space_group_symop_operation_xyz
x,y,z
-x,y,1/2-z
-x,-y,-z
x,-y,1/2+z
1/2+x,1/2+y,z
1/2-x,1/2+y,1/2-z
1/2-x,1/2-y,-z
1/2+x,1/2-y,1/2+z
loop_
_atom_site_type_symbol
_atom_site_label
_atom_site_fract_x
_atom_site_fract_y
_atom_site_fract_z
Si Si1 0.059359 0.799636 0.482824
Si Si2 0.891087 0.051819 0.946553
Si Si3 0.446756 0.136543 0.447955
Si Si4 0.318752 0.598731 0.369439
Si Si5 0.185466 0.741766 0.711809
Si Si6 0.000000 0.266962 0.750000
O O1 0.084569 0.850711 0.569641
O O2 0.232371 0.777739 0.401997
O O3 0.975016 0.860901 0.426443
O O4 0.952491 0.717628 0.510834
O O5 0.881560 0.992821 0.861052
O O6 0.706311 0.076605 0.012706
O O7 0.000000 0.000000 0.000000
O O8 0.624396 0.094750 0.431004
O O9 0.455902 0.176688 0.345359
O O10 0.325612 0.659128 0.282126
O O11 0.329778 0.719967 0.756569
O O12 0.000000 0.708571 0.750000
#
# Coordination Sequence:
#
# PCOD9259455 Si02
#       6
#     8   8   8   8   8   4
#     4   9  19  36  55  89 104 140 194 230 277 332
#     4  10  20  32  57  80 114 139 178 236 277 325
#     4  10  18  35  58  81 111 147 187 234 271 333
#     4   9  19  36  57  85 107 142 190 231 283 336
#     4  10  20  36  61  78 115 150 188 232 277 331
#     4   8  20  34  54  86 108 142 200 212 284 338
#
# _framework density 22.657253999999998
#
# number of rings (size 3 to 8) (size 9 to 14) (size 15 to 20)
#    0.000    2.909    0.000    3.273    5.091    0.000 
#    6.545    0.000   16.000    0.000    0.000    0.000 
#    0.000    0.000    0.000    0.000    0.000    0.000 
#
# Total GULP energy -122524.206395 kJ/mol
# GULP energy per Si atom -5569.282109 kJ/mol
# Density = 2.260568 g / cm^3
# Si number density = 22.657254 Si / 1000 Ang^3
#
#
#
# Elastic Constant Matrix: (Units=GPa)
#
#
# Indices 1 2 3 4 5 6 
#
# 1 150.4537 41.3933 35.7027 0.0000 -9.9841 0.0000
# 2 41.3933 68.9546 -3.5091 0.0000 -8.7550 0.0000
# 3 35.7027 -3.5091 57.9337 0.0000 -8.9513 0.0000
# 4 0.0000 0.0000 0.0000 11.8188 0.0000 5.9739
# 5 -9.9841 -8.7550 -8.9513 0.0000 33.9117 0.0000
# 6 0.0000 0.0000 0.0000 5.9739 0.0000 44.2604
#
#
#
# Elastic Compliance Matrix: (Units=1/GPa)
#
#
# Indices 1 2 3 4 5 6 
#
# 1 0.009922 -0.006348 -0.006569 0.000000 -0.000452 0.000000
# 2 -0.006348 0.019193 0.005787 0.000000 0.004614 0.000000
# 3 -0.006569 0.005787 0.022510 0.000000 0.005502 0.000000
# 4 0.000000 0.000000 0.000000 0.090806 0.000000 -0.012256
# 5 -0.000452 0.004614 0.005502 0.000000 0.031999 0.000000
# 6 0.000000 0.000000 0.000000 -0.012256 0.000000 0.024248
#
#
# Mechanical properties :
#
#
# Convention : Reuss Voigt Hill
#
# Bulk Modulus (GPa) = 26.76190 47.16841 36.96516
# Shear Modulus (GPa) = 22.18366 31.58185 26.88276
#
# Velocity S-wave (km/s) = 3.13245 3.73754 3.44829
# Velocity P-wave (km/s) = 4.99202 6.28403 5.67491
#
# Compressibility (1/GPa) = 0.03736655
#
# Stress axis : x y z
#
# Youngs Moduli (GPa) = 100.78896 52.10211 44.42508
#
# Poissons Ratio (x) = 0.33072 0.29181
# Poissons Ratio (y) = 0.63977 -0.25710
# Poissons Ratio (z) = 0.66205 -0.30153
#
# Static dielectric constant tensor:
#      x y z
#    x 1.954710 0.000000 0.029170 
#    y 0.000000 1.859330 0.000000 
#    z 0.029170 0.000000 1.915320 
# 
# From -- ./inp_files/189683.got.cif
#   From: 2010.05.17/outbox.cif.g08.bks.cpg/sg15_95_cif.got.tgz:189683.got - 2010.06.03 18:47:42.
