data_PCOD9259599
_publ_section_title
;
Structure prediction by ZEFSAII (Michael W. Deem and Ramdas Pophale) SiO2 
 PCOD9259599
Probable space group: C 2/C
;
_chemical_formula_sum "Si O2"
_cell_formula_units_Z 52
_cell_length_a 13.754252
_cell_length_b 18.239589
_cell_length_c 11.902037
_cell_angle_alpha 90.000000
_cell_angle_beta 135.842821
_cell_angle_gamma 90.000000
_cell_volume 2080.055586
_symmetry_space_group_name_H-M "C 2/C"
_symmetry_group_IT_number 15
_symmetry_cell_setting 'monoclinic'
loop_
_space_group_symop_operation_xyz
x,y,z
-x,y,1/2-z
-x,-y,-z
x,-y,1/2+z
1/2+x,1/2+y,z
1/2-x,1/2+y,1/2-z
1/2-x,1/2-y,-z
1/2+x,1/2-y,1/2+z
loop_
_atom_site_type_symbol
_atom_site_label
_atom_site_fract_x
_atom_site_fract_y
_atom_site_fract_z
Si Si1 0.000000 0.583533 0.250000
Si Si2 0.245526 0.679004 0.394072
Si Si3 0.723351 0.412387 0.811158
Si Si4 0.930729 0.066190 0.010716
Si Si5 0.970639 0.326026 0.099363
Si Si6 0.948889 0.791518 0.383758
Si Si7 0.148574 0.529385 0.722281
O O1 0.865384 0.635915 0.120353
O O2 0.959131 0.529526 0.316877
O O3 0.262027 0.628097 0.297503
O O4 0.169457 0.751932 0.286519
O O5 0.405027 0.693874 0.558636
O O6 0.559337 0.412776 0.696705
O O7 0.785919 0.492701 0.835200
O O8 0.817495 0.363039 0.969174
O O9 0.901591 0.133250 0.902105
O O10 0.778261 0.037727 0.917896
O O11 0.000000 0.000000 0.000000
O O12 0.000000 0.300113 0.250000
O O13 0.073067 0.392999 0.151989
O O14 0.980872 0.263620 0.014356
#
# Coordination Sequence:
#
# PCOD9259599 Si02
#       7
#     4   8   8   8   8   8   8
#     4  10  20  36  60  88 120 156 202 252 296 356
#     4   9  19  35  58  85 121 157 198 246 300 358
#     4   8  18  35  57  85 116 158 206 245 295 358
#     4   9  18  36  61  83 109 156 203 249 297 359
#     4  11  21  35  58  91 123 162 199 245 302 365
#     4  10  20  38  59  90 119 157 204 243 307 369
#     4  10  18  35  61  84 117 158 204 247 299 361
#
# _framework density 24.999331000000002
#
# number of rings (size 3 to 8) (size 9 to 14) (size 15 to 20)
#    0.000    2.462    0.769    2.308    0.000    0.615 
#    0.000   13.077    0.000    1.846    2.000    0.000 
#    0.000    0.000    0.000    0.000    0.000    0.000 
#
# Total GULP energy -145365.750318 kJ/mol
# GULP energy per Si atom -5590.990397 kJ/mol
# Density = 2.494243 g / cm^3
# Si number density = 24.999331 Si / 1000 Ang^3
#
#
#
# Elastic Constant Matrix: (Units=GPa)
#
#
# Indices 1 2 3 4 5 6 
#
# 1 95.2256 26.5714 22.0403 0.0000 10.7807 0.0000
# 2 26.5714 106.8780 -17.0797 0.0000 7.4766 0.0000
# 3 22.0403 -17.0797 96.3094 0.0000 44.3061 0.0000
# 4 0.0000 0.0000 0.0000 35.6193 0.0000 7.6554
# 5 10.7807 7.4766 44.3061 0.0000 37.4648 0.0000
# 6 0.0000 0.0000 0.0000 7.6554 0.0000 14.8403
#
#
#
# Elastic Compliance Matrix: (Units=1/GPa)
#
#
# Indices 1 2 3 4 5 6 
#
# 1 0.012464 -0.004138 -0.005080 0.000000 0.003246 0.000000
# 2 -0.004138 0.012474 0.008239 0.000000 -0.011042 0.000000
# 3 -0.005080 0.008239 0.028711 0.000000 -0.034136 0.000000
# 4 0.000000 0.000000 0.000000 0.031575 0.000000 -0.016288
# 5 0.003246 -0.011042 -0.034136 0.000000 0.068331 0.000000
# 6 0.000000 0.000000 0.000000 -0.016288 0.000000 0.075787
#
#
# Mechanical properties :
#
#
# Convention : Reuss Voigt Hill
#
# Bulk Modulus (GPa) = 19.34513 40.16412 29.75462
# Shear Modulus (GPa) = 20.11839 35.37693 27.74766
#
# Velocity S-wave (km/s) = 2.83990 3.76588 3.33518
# Velocity P-wave (km/s) = 4.30214 5.91693 5.17294
#
# Compressibility (1/GPa) = 0.05169261
#
# Stress axis : x y z
#
# Youngs Moduli (GPa) = 80.23062 80.16552 34.83024
#
# Poissons Ratio (x) = 0.33169 0.17692
# Poissons Ratio (y) = 0.33196 -0.28696
# Poissons Ratio (z) = 0.40753 -0.66048
#
# Static dielectric constant tensor:
#      x y z
#    x 2.007470 0.000000 -0.009170 
#    y 0.000000 1.938620 0.000000 
#    z -0.009170 0.000000 2.030740 
# 
# From -- ./inp_files/155537.got.cif
#   From: 2010.05.17/outbox.cif.g08.bks.cpg/sg15_78_cif.got.tgz:155537.got - 2010.06.03 18:47:42.
