data_PCOD9259344
_publ_section_title
;
Structure prediction by ZEFSAII (Michael W. Deem and Ramdas Pophale) SiO2 
 PCOD9259344
Probable space group: C 2/C
;
_chemical_formula_sum "Si O2"
_cell_formula_units_Z 60
_cell_length_a 14.363269
_cell_length_b 19.522872
_cell_length_c 12.456392
_cell_angle_alpha 90.000000
_cell_angle_beta 76.433115
_cell_angle_gamma 90.000000
_cell_volume 3395.461071
_symmetry_space_group_name_H-M "C 2/C"
_symmetry_group_IT_number 15
_symmetry_cell_setting 'monoclinic'
loop_
_space_group_symop_operation_xyz
x,y,z
-x,y,1/2-z
-x,-y,-z
x,-y,1/2+z
1/2+x,1/2+y,z
1/2-x,1/2+y,1/2-z
1/2-x,1/2-y,-z
1/2+x,1/2-y,1/2+z
loop_
_atom_site_type_symbol
_atom_site_label
_atom_site_fract_x
_atom_site_fract_y
_atom_site_fract_z
Si Si1 0.856777 0.960576 0.745000
Si Si2 0.500000 0.007953 0.250000
Si Si3 0.110058 0.753083 0.608849
Si Si4 0.809373 0.746370 0.156423
Si Si5 0.633464 0.900213 0.096214
Si Si6 0.350911 0.097655 0.164490
Si Si7 0.842323 0.105312 0.652453
Si Si8 0.970827 0.894614 0.909370
O O1 0.749334 0.933163 0.768642
O O2 0.903010 0.936506 0.845005
O O3 0.924674 0.926259 0.636190
O O4 0.855850 0.042164 0.728700
O O5 0.436719 0.055188 0.190638
O O6 0.569887 0.959808 0.162336
O O7 0.154128 0.755106 0.476391
O O8 0.195796 0.766597 0.670248
O O9 0.084043 0.673791 0.631492
O O10 0.035374 0.815058 0.626424
O O11 0.854387 0.678104 0.191915
O O12 0.836598 0.818212 0.203213
O O13 0.739109 0.900663 0.120596
O O14 0.646653 0.906863 0.965266
O O15 0.925157 0.100855 0.539605
#
# Coordination Sequence:
#
# PCOD9259344 Si02
#       8
#     8   4   8   8   8   8   8   8
#     4  11  20  30  52  81 111 133 168 211 268 315
#     4  12  24  34  54  78 102 144 180 206 270 312
#     4   8  14  30  53  79  99 126 166 216 269 293
#     4   8  15  30  55  71  99 137 168 209 255 304
#     4  10  20  35  56  78 105 133 174 229 261 300
#     4  11  20  38  52  77 107 140 175 217 258 311
#     4  10  18  35  54  79 107 138 174 213 262 309
#     4  10  19  32  52  82 108 139 166 213 265 313
#
# _framework density 17.670649000000001
#
# number of rings (size 3 to 8) (size 9 to 14) (size 15 to 20)
#    0.000    2.133    4.000    2.400    0.000    1.067 
#    0.000    1.333    0.000    0.000    0.000   10.267 
#    0.000    0.000    0.000    0.000    0.000    0.000 
#
# Total GULP energy -167244.922995 kJ/mol
# GULP energy per Si atom -5574.830766 kJ/mol
# Density = 1.763043 g / cm^3
# Si number density = 17.670649 Si / 1000 Ang^3
#
#
#
# Elastic Constant Matrix: (Units=GPa)
#
#
# Indices 1 2 3 4 5 6 
#
# 1 41.7623 20.6387 11.1035 0.0000 -12.3304 0.0000
# 2 20.6387 147.1608 22.0392 0.0000 -1.8760 0.0000
# 3 11.1035 22.0392 23.7956 0.0000 -8.1190 0.0000
# 4 0.0000 0.0000 0.0000 12.8402 0.0000 36.1365
# 5 -12.3304 -1.8760 -8.1190 0.0000 21.4023 0.0000
# 6 0.0000 0.0000 0.0000 36.1365 0.0000 -72.6606
#
#
#
# Elastic Compliance Matrix: (Units=1/GPa)
#
#
# Indices 1 2 3 4 5 6 
#
# 1 0.031923 -0.003304 -0.006501 0.000000 0.015636 0.000000
# 2 -0.003304 0.008340 -0.007561 0.000000 -0.004041 0.000000
# 3 -0.006501 -0.007561 0.058073 0.000000 0.017622 0.000000
# 4 0.000000 0.000000 0.000000 0.032455 0.000000 0.016141
# 5 0.015636 -0.004041 0.017622 0.000000 0.062063 0.000000
# 6 0.000000 0.000000 0.000000 0.016141 0.000000 -0.005735
#
#
# Mechanical properties :
#
#
# Convention : Reuss Voigt Hill
#
# Bulk Modulus (GPa) = 15.72223 35.58684 25.65454
# Shear Modulus (GPa) = 20.57183 2.91220 11.74201
#
# Velocity S-wave (km/s) = 3.41571 1.28515 2.58057
# Velocity P-wave (km/s) = 4.94700 4.73126 4.84033
#
# Compressibility (1/GPa) = 0.06360422
#
# Stress axis : x y z
#
# Youngs Moduli (GPa) = 31.32557 119.91109 17.21964
#
# Poissons Ratio (x) = 0.39621 0.11194
# Poissons Ratio (y) = 0.10351 0.13020
# Poissons Ratio (z) = 0.20364 0.90663
#
# Static dielectric constant tensor:
#      x y z
#    x 1.591890 0.000000 -0.022990 
#    y 0.000000 1.642390 0.000000 
#    z -0.022990 0.000000 1.592820 
# 
# From -- ./inp_files/98305.got.cif
#   From: 2010.05.17/outbox.cif.g08.bks.cpg/sg15_50_cif.got.tgz:98305.got - 2010.06.03 18:47:42.
