data_PCOD9259710
_publ_section_title
;
Structure prediction by ZEFSAII (Michael W. Deem and Ramdas Pophale) SiO2 
 PCOD9259710
Probable space group: C 2/C
;
_chemical_formula_sum "Si O2"
_cell_formula_units_Z 32
_cell_length_a 9.779736
_cell_length_b 15.167383
_cell_length_c 11.372739
_cell_angle_alpha 90.000000
_cell_angle_beta 46.350046
_cell_angle_gamma 90.000000
_cell_volume 1220.628791
_symmetry_space_group_name_H-M "C 2/C"
_symmetry_group_IT_number 15
_symmetry_cell_setting 'monoclinic'
loop_
_space_group_symop_operation_xyz
x,y,z
-x,y,1/2-z
-x,-y,-z
x,-y,1/2+z
1/2+x,1/2+y,z
1/2-x,1/2+y,1/2-z
1/2-x,1/2-y,-z
1/2+x,1/2-y,1/2+z
loop_
_atom_site_type_symbol
_atom_site_label
_atom_site_fract_x
_atom_site_fract_y
_atom_site_fract_z
Si Si1 0.896823 0.511405 0.433524
Si Si2 0.535867 0.724995 0.108612
Si Si3 0.679695 0.333543 0.291053
Si Si4 0.000000 0.681835 0.250000
Si Si5 0.500000 0.512293 0.750000
O O1 0.897698 0.616737 0.402849
O O2 0.682591 0.476410 0.569153
O O3 0.000000 0.479450 0.250000
O O4 0.000000 0.500000 0.500000
O O5 0.500000 0.672740 0.250000
O O6 0.601405 0.810225 0.312901
O O7 0.750000 0.750000 0.000000
O O8 0.540046 0.674213 0.985046
O O9 0.632931 0.247544 0.240927
O O10 0.620003 0.423436 0.265753
#
# Coordination Sequence:
#
# PCOD9259710 Si02
#       5
#     8   8   8   4   4
#     4  10  24  45  68  95 130 172 234 278 325 397
#     4   9  18  30  49  84 142 171 191 242 317 421
#     4  10  18  35  64  99 129 164 208 264 347 399
#     4   9  20  38  66  94 124 165 220 274 320 409
#     4  11  22  40  74  96 128 175 218 286 336 395
#
# _framework density 26.215997000000002
#
# number of rings (size 3 to 8) (size 9 to 14) (size 15 to 20)
#    0.750    1.500    0.000    3.000    0.000    5.000 
#    0.000   12.500   13.750    0.000    0.000    0.000 
#    0.000    0.000    0.000    0.000    0.000    0.000 
#
# Total GULP energy -89255.248238 kJ/mol
# GULP energy per Si atom -5578.453015 kJ/mol
# Density = 2.615633 g / cm^3
# Si number density = 26.215997 Si / 1000 Ang^3
#
#
#
# Elastic Constant Matrix: (Units=GPa)
#
#
# Indices 1 2 3 4 5 6 
#
# 1 137.5357 28.5277 79.9930 0.0000 -8.8384 0.0000
# 2 28.5277 53.1676 35.6470 -0.0001 0.4259 0.0001
# 3 79.9930 35.6470 235.2708 -0.0002 -10.7071 0.0002
# 4 0.0000 -0.0001 -0.0002 48.6899 0.0001 -11.6681
# 5 -8.8384 0.4259 -10.7071 0.0001 67.7442 0.0000
# 6 0.0000 0.0001 0.0002 -11.6681 0.0000 40.5022
#
#
#
# Elastic Compliance Matrix: (Units=1/GPa)
#
#
# Indices 1 2 3 4 5 6 
#
# 1 0.009598 -0.003333 -0.002720 0.000000 0.000843 0.000000
# 2 -0.003333 0.022120 -0.002261 0.000000 -0.000931 0.000000
# 3 -0.002720 -0.002261 0.005542 0.000000 0.000535 0.000000
# 4 0.000000 0.000000 0.000000 0.022061 0.000000 0.006355
# 5 0.000843 -0.000931 0.000535 0.000000 0.014962 0.000000
# 6 0.000000 0.000000 0.000000 0.006355 0.000000 0.026521
#
#
# Mechanical properties :
#
#
# Convention : Reuss Voigt Hill
#
# Bulk Modulus (GPa) = 48.46640 79.36772 63.91706
# Shear Modulus (GPa) = 40.22200 50.17434 45.19817
#
# Velocity S-wave (km/s) = 3.92121 4.37954 4.15669
# Velocity P-wave (km/s) = 6.24729 7.47757 6.88995
#
# Compressibility (1/GPa) = 0.02063285
#
# Stress axis : x y z
#
# Youngs Moduli (GPa) = 104.18329 45.20790 180.43560
#
# Poissons Ratio (x) = 0.15069 0.49080
# Poissons Ratio (y) = 0.34726 0.40789
# Poissons Ratio (z) = 0.28339 0.10220
#
# Static dielectric constant tensor:
#      x y z
#    x 2.071050 0.000000 -0.039700 
#    y 0.000000 2.114590 0.000000 
#    z -0.039700 0.000000 2.158230 
# 
# From -- ./inp_files/77565.got.cif
#   From: 2010.05.17/outbox.cif.g08.bks.cpg/sg15_39_cif.got.tgz:77565.got - 2010.06.03 18:47:42.
