data_PCOD9259094
_publ_section_title
;
Structure prediction by ZEFSAII (Michael W. Deem and Ramdas Pophale) SiO2 
 PCOD9259094
Probable space group: C 2/C
;
_chemical_formula_sum "Si O2"
_cell_formula_units_Z 60
_cell_length_a 27.548179
_cell_length_b 13.160159
_cell_length_c 22.972410
_cell_angle_alpha 90.000000
_cell_angle_beta 20.148620
_cell_angle_gamma 90.000000
_cell_volume 2868.764735
_symmetry_space_group_name_H-M "C 2/C"
_symmetry_group_IT_number 15
_symmetry_cell_setting 'monoclinic'
loop_
_space_group_symop_operation_xyz
x,y,z
-x,y,1/2-z
-x,-y,-z
x,-y,1/2+z
1/2+x,1/2+y,z
1/2-x,1/2+y,1/2-z
1/2-x,1/2-y,-z
1/2+x,1/2-y,1/2+z
loop_
_atom_site_type_symbol
_atom_site_label
_atom_site_fract_x
_atom_site_fract_y
_atom_site_fract_z
Si Si1 0.210746 0.669046 0.937181
Si Si2 0.064097 0.841726 0.907752
Si Si3 0.171648 0.942773 0.402529
Si Si4 0.037055 0.838415 0.071165
Si Si5 0.312952 0.001884 0.135785
Si Si6 0.740048 0.774375 0.116518
Si Si7 0.000000 0.550493 0.250000
Si Si8 0.987422 0.625523 0.852463
O O1 0.373922 0.675422 0.770232
O O2 0.191554 0.592409 0.903530
O O3 0.140121 0.773188 0.995413
O O4 0.126031 0.620097 0.085842
O O5 0.161965 0.941900 0.798944
O O6 0.153077 0.763401 0.770446
O O7 0.044543 0.804408 0.995082
O O8 0.922236 0.870645 0.033795
O O9 0.195663 0.880223 0.434177
O O10 0.086899 0.044847 0.513302
O O11 0.308075 0.971773 0.209328
O O12 0.429075 0.080982 0.980084
O O13 0.618680 0.798700 0.207518
O O14 0.855909 0.688428 0.973791
O O15 0.968470 0.473107 0.233121
#
# Coordination Sequence:
#
# PCOD9259094 Si02
#       8
#     8   8   8   8   8   8   4   8
#     4  11  22  42  61  88 115 166 210 264 298 362
#     4  10  18  34  59  94 128 170 189 235 304 379
#     4  11  19  36  60  97 133 170 193 237 299 387
#     4  11  23  35  64  91 128 164 209 241 307 366
#     4   9  18  35  58  85 130 169 199 232 301 360
#     4  11  22  36  64  95 131 153 206 249 309 376
#     4  10  26  46  68  76 116 160 216 268 334 346
#     4  10  23  41  62  92 117 164 205 266 310 367
#
# _framework density 20.914926000000001
#
# number of rings (size 3 to 8) (size 9 to 14) (size 15 to 20)
#    0.000    1.600    4.000    1.600    0.000    4.800 
#    0.000    0.000    0.000    1.600    0.000    0.000 
#    0.000    0.000    0.000    0.000    0.000    0.000 
#
# Total GULP energy -167456.970944 kJ/mol
# GULP energy per Si atom -5581.899031 kJ/mol
# Density = 2.086732 g / cm^3
# Si number density = 20.914926 Si / 1000 Ang^3
#
#
#
# Elastic Constant Matrix: (Units=GPa)
#
#
# Indices 1 2 3 4 5 6 
#
# 1 13.7102 9.1060 41.8888 -0.0005 -2.5756 0.0001
# 2 9.1060 64.9549 39.2894 -0.0012 -7.4261 0.0004
# 3 41.8888 39.2894 97.2013 -0.0008 7.6054 0.0002
# 4 -0.0005 -0.0012 -0.0008 19.3790 0.0002 2.9085
# 5 -2.5756 -7.4261 7.6054 0.0002 19.1535 0.0000
# 6 0.0001 0.0004 0.0002 2.9085 0.0000 31.4064
#
#
#
# Elastic Compliance Matrix: (Units=1/GPa)
#
#
# Indices 1 2 3 4 5 6 
#
# 1 -0.110332 -0.028489 0.063047 -0.000001 -0.050917 0.000000
# 2 -0.028489 0.015828 0.005882 0.000001 -0.000030 0.000000
# 3 0.063047 0.005882 -0.020746 0.000001 0.018996 0.000000
# 4 -0.000001 0.000001 0.000001 0.052330 -0.000001 -0.004846
# 5 -0.050917 -0.000030 0.018996 -0.000001 0.037808 0.000000
# 6 0.000000 0.000000 0.000000 -0.004846 0.000000 0.032289
#
#
# Mechanical properties :
#
#
# Convention : Reuss Voigt Hill
#
# Bulk Modulus (GPa) = -29.09472 39.60387 5.25457
# Shear Modulus (GPa) = -58.71407 19.69325 -19.51041
#
# Velocity S-wave (km/s) = -5.30413 3.07186 -3.05757
# Velocity P-wave (km/s) = 7.17306 5.61770 3.15391
#
# Compressibility (1/GPa) = -0.03437049
#
# Stress axis : x y z
#
# Youngs Moduli (GPa) = -9.06356 63.17908 -48.20245
#
# Poissons Ratio (x) = 1.79991 3.03901
# Poissons Ratio (y) = -0.25821 0.28352
# Poissons Ratio (z) = 0.57143 -0.37161
#
# Static dielectric constant tensor:
#      x y z
#    x 1.794960 0.000000 0.005340 
#    y 0.000000 1.777980 0.000000 
#    z 0.005340 0.000000 1.766000 
# 
# From -- ./inp_files/284745.got.cif
#   From: 2010.05.17/outbox.cif.g08.bks.cpg/sg15_143_cif.got.tgz:284745.got - 2010.06.03 18:47:42.
