data_PCOD9259053
_publ_section_title
;
Structure prediction by ZEFSAII (Michael W. Deem and Ramdas Pophale) SiO2 
 PCOD9259053
Probable space group: C 2/C
;
_chemical_formula_sum "Si O2"
_cell_formula_units_Z 52
_cell_length_a 9.638465
_cell_length_b 24.297597
_cell_length_c 10.719276
_cell_angle_alpha 90.000000
_cell_angle_beta 128.702383
_cell_angle_gamma 90.000000
_cell_volume 1959.098910
_symmetry_space_group_name_H-M "C 2/C"
_symmetry_group_IT_number 15
_symmetry_cell_setting 'monoclinic'
loop_
_space_group_symop_operation_xyz
x,y,z
-x,y,1/2-z
-x,-y,-z
x,-y,1/2+z
1/2+x,1/2+y,z
1/2-x,1/2+y,1/2-z
1/2-x,1/2-y,-z
1/2+x,1/2-y,1/2+z
loop_
_atom_site_type_symbol
_atom_site_label
_atom_site_fract_x
_atom_site_fract_y
_atom_site_fract_z
Si Si1 0.839982 0.815203 0.764677
Si Si2 0.787010 0.127330 0.618085
Si Si3 0.761460 0.077607 0.874475
Si Si4 0.457828 0.225720 0.980465
Si Si5 0.319919 0.013025 0.970937
Si Si6 0.500000 0.833711 0.250000
Si Si7 0.383740 0.567155 0.305595
O O1 0.659650 0.782416 0.634519
O O2 0.915969 0.789922 0.936881
O O3 0.770069 0.877713 0.749490
O O4 0.000000 0.811635 0.750000
O O5 0.722436 0.099878 0.714521
O O6 0.680435 0.183715 0.531749
O O7 0.000000 0.135040 0.750000
O O8 0.726122 0.073731 0.505777
O O9 0.662685 0.128202 0.889876
O O10 0.689907 0.025518 0.911951
O O11 0.971632 0.069265 0.005062
O O12 0.444850 0.204176 0.831744
O O13 0.190451 0.990378 0.786320
O O14 0.500000 0.000000 0.000000
O O15 0.500000 0.581374 0.250000
#
# Coordination Sequence:
#
# PCOD9259053 Si02
#       7
#     8   8   8   8   8   4   8
#     4  11  21  35  62  98 133 167 212 275 342 405
#     4  11  25  43  64  89 128 176 231 277 323 394
#     4  10  21  38  62  90 126 166 207 264 333 391
#     4  11  23  36  61  94 130 172 217 273 331 398
#     4  11  21  38  63  94 130 163 204 272 339 404
#     4  10  18  34  58  92 126 154 204 262 332 400
#     4   9  19  34  59  90 126 159 206 258 322 394
#
# _framework density 26.542812999999999
#
# number of rings (size 3 to 8) (size 9 to 14) (size 15 to 20)
#    0.000    1.538    0.769    7.385    4.308    2.462 
#    0.000    0.769    0.000    1.846    0.000    0.000 
#    0.000    0.000    0.000    0.000    0.000    0.000 
#
# Total GULP energy -145000.864719 kJ/mol
# GULP energy per Si atom -5576.956335 kJ/mol
# Density = 2.648240 g / cm^3
# Si number density = 26.542813 Si / 1000 Ang^3
#
#
#
# Elastic Constant Matrix: (Units=GPa)
#
#
# Indices 1 2 3 4 5 6 
#
# 1 121.3713 7.9020 10.7597 0.0000 13.9958 0.0000
# 2 7.9020 83.0936 -4.4590 0.0000 11.6408 0.0000
# 3 10.7597 -4.4590 88.2544 0.0000 21.8229 0.0000
# 4 0.0000 0.0000 0.0000 50.5812 0.0000 9.7210
# 5 13.9958 11.6408 21.8229 0.0000 46.2111 0.0000
# 6 0.0000 0.0000 0.0000 9.7210 0.0000 21.5189
#
#
#
# Elastic Compliance Matrix: (Units=1/GPa)
#
#
# Indices 1 2 3 4 5 6 
#
# 1 0.008576 -0.000533 -0.000525 0.000000 -0.002215 0.000000
# 2 -0.000533 0.012709 0.001652 0.000000 -0.003820 0.000000
# 3 -0.000525 0.001652 0.013068 0.000000 -0.006428 0.000000
# 4 0.000000 0.000000 0.000000 0.021650 0.000000 -0.009780
# 5 -0.002215 -0.003820 -0.006428 0.000000 0.026309 0.000000
# 6 0.000000 0.000000 0.000000 -0.009780 0.000000 0.050889
#
#
# Mechanical properties :
#
#
# Convention : Reuss Voigt Hill
#
# Bulk Modulus (GPa) = 28.13727 35.68053 31.90890
# Shear Modulus (GPa) = 34.75608 42.23002 38.49305
#
# Velocity S-wave (km/s) = 3.62254 3.99308 3.81231
# Velocity P-wave (km/s) = 5.30290 5.89334 5.60590
#
# Compressibility (1/GPa) = 0.03554005
#
# Stress axis : x y z
#
# Youngs Moduli (GPa) = 116.60630 78.68361 76.52361
#
# Poissons Ratio (x) = 0.04197 0.04015
# Poissons Ratio (y) = 0.06219 -0.12639
# Poissons Ratio (z) = 0.06119 -0.12996
#
# Static dielectric constant tensor:
#      x y z
#    x 2.177680 0.000000 -0.096790 
#    y 0.000000 2.397890 0.000000 
#    z -0.096790 0.000000 1.995750 
# 
# From -- ./inp_files/148415.got.cif
#   From: 2010.05.17/outbox.cif.g08.bks.cpg/sg15_75_cif.got.tgz:148415.got - 2010.06.03 18:47:42.
