data_PCOD9259751
_publ_section_title
;
Structure prediction by ZEFSAII (Michael W. Deem and Ramdas Pophale) SiO2 
 PCOD9259751
Probable space group: C 2/C
;
_chemical_formula_sum "Si O2"
_cell_formula_units_Z 56
_cell_length_a 14.097862
_cell_length_b 21.598183
_cell_length_c 9.364255
_cell_angle_alpha 90.000000
_cell_angle_beta 82.478546
_cell_angle_gamma 90.000000
_cell_volume 2826.772315
_symmetry_space_group_name_H-M "C 2/C"
_symmetry_group_IT_number 15
_symmetry_cell_setting 'monoclinic'
loop_
_space_group_symop_operation_xyz
x,y,z
-x,y,1/2-z
-x,-y,-z
x,-y,1/2+z
1/2+x,1/2+y,z
1/2-x,1/2+y,1/2-z
1/2-x,1/2-y,-z
1/2+x,1/2-y,1/2+z
loop_
_atom_site_type_symbol
_atom_site_label
_atom_site_fract_x
_atom_site_fract_y
_atom_site_fract_z
Si Si1 0.129588 0.071207 0.536489
Si Si2 0.263901 0.490269 0.746962
Si Si3 0.779132 0.584380 0.979998
Si Si4 0.500000 0.294170 0.750000
Si Si5 0.812078 0.790321 0.383054
Si Si6 0.000000 0.785926 0.250000
Si Si7 0.942220 0.877608 0.019882
Si Si8 0.184934 0.713574 0.628134
O O1 0.174453 0.049191 0.378149
O O2 0.160596 0.142172 0.561315
O O3 0.014828 0.068793 0.551497
O O4 0.170395 0.030662 0.658706
O O5 0.206531 0.536795 0.653987
O O6 0.205721 0.447162 0.869047
O O7 0.836204 0.647313 0.939695
O O8 0.664576 0.601857 0.997376
O O9 0.496260 0.340974 0.883678
O O10 0.592718 0.251703 0.699971
O O11 0.750000 0.750000 0.500000
O O12 0.750382 0.797751 0.252821
O O13 0.912184 0.753174 0.341772
O O14 0.055621 0.829751 0.350008
O O15 0.250000 0.750000 0.500000
#
# Coordination Sequence:
#
# PCOD9259751 Si02
#       8
#     8   8   8   4   8   4   8   8
#     4  10  21  36  55  86 120 162 193 241 295 362
#     4  10  22  36  56  85 122 164 203 239 291 367
#     4  11  21  38  57  86 119 163 198 251 297 359
#     4  12  24  38  60  93 121 160 206 252 310 372
#     4  11  22  36  60  85 119 157 197 244 307 354
#     4  10  18  36  52  83 121 154 178 240 290 356
#     4  11  20  35  57  85 128 153 193 244 297 370
#     4  12  23  40  62  89 120 162 202 257 311 360
#
# _framework density 19.810582
#
# number of rings (size 3 to 8) (size 9 to 14) (size 15 to 20)
#    0.000    1.143    4.286    3.429    2.000    3.429 
#    0.000    0.000    0.000    0.857    0.000    0.000 
#    0.000    0.000    0.000    0.000    0.000    0.000 
#
# Total GULP energy -156297.731167 kJ/mol
# GULP energy per Si atom -5582.061827 kJ/mol
# Density = 1.976549 g / cm^3
# Si number density = 19.810582 Si / 1000 Ang^3
#
#
#
# Elastic Constant Matrix: (Units=GPa)
#
#
# Indices 1 2 3 4 5 6 
#
# 1 48.9720 17.3717 22.0321 0.0000 -14.6052 0.0000
# 2 17.3717 60.8744 43.2713 0.0000 -4.8564 0.0000
# 3 22.0321 43.2713 138.3005 0.0000 0.3017 0.0000
# 4 0.0000 0.0000 0.0000 72.6959 0.0000 44.7226
# 5 -14.6052 -4.8564 0.3017 0.0000 28.5664 0.0000
# 6 0.0000 0.0000 0.0000 44.7226 0.0000 91.0275
#
#
#
# Elastic Compliance Matrix: (Units=1/GPa)
#
#
# Indices 1 2 3 4 5 6 
#
# 1 0.027330 -0.004668 -0.002922 0.000000 0.013210 0.000000
# 2 -0.004668 0.022313 -0.006241 0.000000 0.001472 0.000000
# 3 -0.002922 -0.006241 0.009655 0.000000 -0.002657 0.000000
# 4 0.000000 0.000000 0.000000 0.019715 0.000000 -0.009686
# 5 0.013210 0.001472 -0.002657 0.000000 0.042039 0.000000
# 6 0.000000 0.000000 0.000000 -0.009686 0.000000 0.015745
#
#
# Mechanical properties :
#
#
# Convention : Reuss Voigt Hill
#
# Bulk Modulus (GPa) = 31.60998 45.94413 38.77706
# Shear Modulus (GPa) = 28.57089 49.48941 39.03015
#
# Velocity S-wave (km/s) = 3.80176 5.00355 4.44347
# Velocity P-wave (km/s) = 5.93817 7.52481 6.77808
#
# Compressibility (1/GPa) = 0.03163557
#
# Stress axis : x y z
#
# Youngs Moduli (GPa) = 36.58948 44.81682 103.57808
#
# Poissons Ratio (x) = 0.20921 0.30267
# Poissons Ratio (y) = 0.17081 0.64641
# Poissons Ratio (z) = 0.10692 0.27969
#
# Static dielectric constant tensor:
#      x y z
#    x 1.704240 0.000000 -0.004720 
#    y 0.000000 1.759690 0.000000 
#    z -0.004720 0.000000 1.755040 
# 
# From -- ./inp_files/42140.got.cif
#   From: 2010.05.17/outbox.cif.g08.bks.cpg/sg15_22_cif.got.tgz:42140.got - 2010.06.03 18:47:42.
