data_PCOD9259292
_publ_section_title
;
Structure prediction by ZEFSAII (Michael W. Deem and Ramdas Pophale) SiO2 
 PCOD9259292
Probable space group: C 2/C
;
_chemical_formula_sum "Si O2"
_cell_formula_units_Z 44
_cell_length_a 7.566111
_cell_length_b 18.087399
_cell_length_c 14.685102
_cell_angle_alpha 90.000000
_cell_angle_beta 95.849113
_cell_angle_gamma 90.000000
_cell_volume 1999.211906
_symmetry_space_group_name_H-M "C 2/C"
_symmetry_group_IT_number 15
_symmetry_cell_setting 'monoclinic'
loop_
_space_group_symop_operation_xyz
x,y,z
-x,y,1/2-z
-x,-y,-z
x,-y,1/2+z
1/2+x,1/2+y,z
1/2-x,1/2+y,1/2-z
1/2-x,1/2-y,-z
1/2+x,1/2-y,1/2+z
loop_
_atom_site_type_symbol
_atom_site_label
_atom_site_fract_x
_atom_site_fract_y
_atom_site_fract_z
Si Si1 0.985013 0.152233 0.358262
Si Si2 0.000000 0.514856 0.750000
Si Si3 0.883699 0.420669 0.580822
Si Si4 0.184958 0.104572 0.793624
Si Si5 0.107297 0.704641 0.551335
Si Si6 0.158900 0.016292 0.440346
O O1 0.792927 0.115743 0.378822
O O2 0.005809 0.232906 0.404317
O O3 0.000000 0.155159 0.250000
O O4 0.135800 0.099417 0.407213
O O5 0.001478 0.461150 0.662854
O O6 0.828090 0.568109 0.732925
O O7 0.967555 0.355662 0.523463
O O8 0.819498 0.483380 0.506715
O O9 0.290399 0.159745 0.864606
O O10 0.000000 0.138375 0.750000
O O11 0.127982 0.034939 0.851546
O O12 0.250000 0.750000 0.500000
O O13 0.000000 0.000000 0.500000
#
# Coordination Sequence:
#
# PCOD9259292 Si02
#       6
#     8   4   8   8   8   8
#     4  10  18  34  65  94 130 167 214 267 320 397
#     4  12  24  38  70 100 124 160 236 280 310 384
#     4   9  20  38  58  90 128 170 213 269 332 378
#     4  11  23  41  67  94 127 172 218 273 327 384
#     4   9  21  40  61  88 135 176 207 262 336 399
#     4   9  17  34  64  92 121 171 213 266 323 382
#
# _framework density 22.008673000000002
#
# number of rings (size 3 to 8) (size 9 to 14) (size 15 to 20)
#    0.000    2.182    0.000    4.909    1.273    2.909 
#    6.545    0.000    0.000    4.364    0.000    0.000 
#    0.000    0.000    0.000    0.000    0.000    0.000 
#
# Total GULP energy -122793.116287 kJ/mol
# GULP energy per Si atom -5581.505286 kJ/mol
# Density = 2.195858 g / cm^3
# Si number density = 22.008673 Si / 1000 Ang^3
#
#
#
# Elastic Constant Matrix: (Units=GPa)
#
#
# Indices 1 2 3 4 5 6 
#
# 1 42.1072 15.8966 4.5850 0.0000 -20.0830 0.0000
# 2 15.8966 155.4272 59.5586 0.0000 -4.1484 0.0000
# 3 4.5850 59.5586 114.3739 0.0000 -10.3091 0.0000
# 4 0.0000 0.0000 0.0000 35.7612 0.0000 -8.5772
# 5 -20.0830 -4.1484 -10.3091 0.0000 23.8915 0.0000
# 6 0.0000 0.0000 0.0000 -8.5772 0.0000 19.9469
#
#
#
# Elastic Compliance Matrix: (Units=1/GPa)
#
#
# Indices 1 2 3 4 5 6 
#
# 1 0.042789 -0.005008 0.004220 0.000000 0.036919 0.000000
# 2 -0.005008 0.008628 -0.004720 0.000000 -0.004748 0.000000
# 3 0.004220 -0.004720 0.011734 0.000000 0.007791 0.000000
# 4 0.000000 0.000000 0.000000 0.031179 0.000000 0.013407
# 5 0.036919 -0.004748 0.007791 0.000000 0.075428 0.000000
# 6 0.000000 0.000000 0.000000 0.013407 0.000000 0.055898
#
#
# Mechanical properties :
#
#
# Convention : Reuss Voigt Hill
#
# Bulk Modulus (GPa) = 19.18088 52.44318 35.81203
# Shear Modulus (GPa) = 19.68116 31.37779 25.52948
#
# Velocity S-wave (km/s) = 2.99364 3.77994 3.40953
# Velocity P-wave (km/s) = 4.54788 6.55216 5.63977
#
# Compressibility (1/GPa) = 0.05213526
#
# Stress axis : x y z
#
# Youngs Moduli (GPa) = 23.37062 115.90029 85.22014
#
# Poissons Ratio (x) = 0.58044 -0.35966
# Poissons Ratio (y) = 0.11704 0.40226
# Poissons Ratio (z) = -0.09863 0.54707
#
# Static dielectric constant tensor:
#      x y z
#    x 1.918830 0.000000 -0.010890 
#    y 0.000000 1.789520 0.000000 
#    z -0.010890 0.000000 1.782730 
# 
# From -- ./inp_files/134511.got.cif
#   From: 2010.05.17/outbox.cif.g08.bks.cpg/sg15_68_cif.got.tgz:134511.got - 2010.06.03 18:47:42.
