data_PCOD9259141
_publ_section_title
;
Structure prediction by ZEFSAII (Michael W. Deem and Ramdas Pophale) SiO2 
 PCOD9259141
Probable space group: C 2/C
;
_chemical_formula_sum "Si O2"
_cell_formula_units_Z 52
_cell_length_a 15.795972
_cell_length_b 11.056128
_cell_length_c 22.224031
_cell_angle_alpha 90.000000
_cell_angle_beta 41.863069
_cell_angle_gamma 90.000000
_cell_volume 2590.166260
_symmetry_space_group_name_H-M "C 2/C"
_symmetry_group_IT_number 15
_symmetry_cell_setting 'monoclinic'
loop_
_space_group_symop_operation_xyz
x,y,z
-x,y,1/2-z
-x,-y,-z
x,-y,1/2+z
1/2+x,1/2+y,z
1/2-x,1/2+y,1/2-z
1/2-x,1/2-y,-z
1/2+x,1/2-y,1/2+z
loop_
_atom_site_type_symbol
_atom_site_label
_atom_site_fract_x
_atom_site_fract_y
_atom_site_fract_z
Si Si1 0.481602 0.629170 0.977723
Si Si2 0.600915 0.252233 0.573957
Si Si3 0.228116 0.703216 0.692842
Si Si4 0.553873 0.483462 0.123035
Si Si5 0.801488 0.019272 0.331344
Si Si6 0.500000 0.148958 0.750000
Si Si7 0.610274 0.170466 0.886390
O O1 0.625367 0.675753 0.893793
O O2 0.426632 0.613355 0.939463
O O3 0.500000 0.500000 0.000000
O O4 0.397704 0.721157 0.061417
O O5 0.750000 0.250000 0.500000
O O6 0.557500 0.388583 0.586112
O O7 0.546758 0.221000 0.667614
O O8 0.534668 0.162980 0.561668
O O9 0.188286 0.702188 0.784112
O O10 0.135960 0.606269 0.706192
O O11 0.206971 0.837736 0.677172
O O12 0.417508 0.472453 0.227666
O O13 0.655831 0.492729 0.122786
O O14 0.675122 0.947381 0.379954
#
# Coordination Sequence:
#
# PCOD9259141 Si02
#       7
#     8   8   8   8   8   4   8
#     4  12  24  40  65  98 128 168 213 271 328 376
#     4  11  20  38  62  97 122 161 218 268 309 371
#     4  11  21  40  65  95 132 164 213 273 314 386
#     4  11  21  39  66  90 128 177 209 258 323 391
#     4  11  21  42  66  92 128 175 218 253 325 393
#     4  10  18  34  60  90 120 160 210 258 308 364
#     4  11  24  38  65  98 129 166 218 265 325 379
#
# _framework density 20.075932999999999
#
# number of rings (size 3 to 8) (size 9 to 14) (size 15 to 20)
#    0.000    0.923    7.692    0.923    0.000    1.231 
#    0.000    0.000    0.000    1.846    0.000    0.000 
#    0.000    0.000    0.000    0.000    0.000    0.000 
#
# Total GULP energy -144933.566369 kJ/mol
# GULP energy per Si atom -5574.367937 kJ/mol
# Density = 2.003024 g / cm^3
# Si number density = 20.075933 Si / 1000 Ang^3
#
#
#
# Elastic Constant Matrix: (Units=GPa)
#
#
# Indices 1 2 3 4 5 6 
#
# 1 132.7902 28.9661 36.1349 0.0000 3.1844 0.0000
# 2 28.9661 23.1401 13.8074 0.0000 2.2549 0.0000
# 3 36.1349 13.8074 74.4771 0.0000 2.1085 0.0000
# 4 0.0000 0.0000 0.0000 25.9777 0.0000 -8.3500
# 5 3.1844 2.2549 2.1085 0.0000 38.0967 0.0000
# 6 0.0000 0.0000 0.0000 -8.3500 0.0000 28.4097
#
#
#
# Elastic Compliance Matrix: (Units=1/GPa)
#
#
# Indices 1 2 3 4 5 6 
#
# 1 0.010969 -0.011864 -0.003121 0.000000 -0.000042 0.000000
# 2 -0.011864 0.061639 -0.005605 0.000000 -0.002346 0.000000
# 3 -0.003121 -0.005605 0.015989 0.000000 -0.000292 0.000000
# 4 0.000000 0.000000 0.000000 0.042511 0.000000 0.012494
# 5 -0.000042 -0.002346 -0.000292 0.000000 0.026408 0.000000
# 6 0.000000 0.000000 0.000000 0.012494 0.000000 0.038871
#
#
# Mechanical properties :
#
#
# Convention : Reuss Voigt Hill
#
# Bulk Modulus (GPa) = 21.08968 43.13604 32.11286
# Shear Modulus (GPa) = 19.73383 28.59675 24.16529
#
# Velocity S-wave (km/s) = 3.13862 3.77826 3.47319
# Velocity P-wave (km/s) = 4.86439 6.36920 5.66697
#
# Compressibility (1/GPa) = 0.04741656
#
# Stress axis : x y z
#
# Youngs Moduli (GPa) = 91.16574 16.22350 62.54439
#
# Poissons Ratio (x) = 0.19248 0.19522
# Poissons Ratio (y) = 1.08161 0.35054
# Poissons Ratio (z) = 0.28455 0.09093
#
# Static dielectric constant tensor:
#      x y z
#    x 1.763840 0.000000 -0.000710 
#    y 0.000000 1.682990 0.000000 
#    z -0.000710 0.000000 1.718350 
# 
# From -- ./inp_files/273789.got.cif
#   From: 2010.05.17/outbox.cif.g08.bks.cpg/sg15_137_cif.got.tgz:273789.got - 2010.06.03 18:47:42.
