data_PCOD9259388
_publ_section_title
;
Structure prediction by ZEFSAII (Michael W. Deem and Ramdas Pophale) SiO2 
 PCOD9259388
Probable space group: C 2/C
;
_chemical_formula_sum "Si O2"
_cell_formula_units_Z 64
_cell_length_a 20.788433
_cell_length_b 10.421468
_cell_length_c 22.364058
_cell_angle_alpha 90.000000
_cell_angle_beta 44.806241
_cell_angle_gamma 90.000000
_cell_volume 3414.386023
_symmetry_space_group_name_H-M "C 2/C"
_symmetry_group_IT_number 15
_symmetry_cell_setting 'monoclinic'
loop_
_space_group_symop_operation_xyz
x,y,z
-x,y,1/2-z
-x,-y,-z
x,-y,1/2+z
1/2+x,1/2+y,z
1/2-x,1/2+y,1/2-z
1/2-x,1/2-y,-z
1/2+x,1/2-y,1/2+z
loop_
_atom_site_type_symbol
_atom_site_label
_atom_site_fract_x
_atom_site_fract_y
_atom_site_fract_z
Si Si1 0.086717 0.777582 0.419885
Si Si2 0.795956 0.885412 0.452877
Si Si3 0.687220 0.091814 0.916540
Si Si4 0.444628 0.870730 0.441787
Si Si5 0.809577 0.363452 0.431994
Si Si6 0.867143 0.510883 0.169794
Si Si7 0.257961 0.441852 0.146216
Si Si8 0.096820 0.134799 0.508017
O O1 0.067043 0.743905 0.502712
O O2 0.091071 0.643995 0.381293
O O3 0.186189 0.839304 0.352080
O O4 0.006868 0.865006 0.445532
O O5 0.750000 0.750000 0.500000
O O6 0.782058 0.902355 0.391029
O O7 0.889004 0.882841 0.429684
O O8 0.735037 0.001045 0.519209
O O9 0.692050 0.051453 0.844665
O O10 0.637103 0.227356 0.960391
O O11 0.620568 0.983642 0.989026
O O12 0.406811 0.847619 0.400167
O O13 0.547763 0.917527 0.374647
O O14 0.750000 0.250000 0.500000
O O15 0.799302 0.369187 0.367563
O O16 0.807789 0.523423 0.268313
O O17 0.337454 0.529386 0.065089
#
# Coordination Sequence:
#
# PCOD9259388 Si02
#       8
#     8   8   8   8   8   8   8   8
#     4  11  20  37  60  82 113 155 197 234 286 357
#     4   8  17  30  55  84 108 145 193 239 272 334
#     4   9  16  33  56  81 106 151 193 227 275 354
#     4  10  18  35  62  81 104 153 203 232 273 357
#     4  10  19  36  58  84 116 150 196 242 285 346
#     4  11  22  35  57  85 117 148 191 242 300 342
#     4  11  25  35  54  91 119 149 187 252 303 337
#     4  10  18  35  56  83 113 143 198 239 277 343
#
# _framework density 18.744219000000001
#
# number of rings (size 3 to 8) (size 9 to 14) (size 15 to 20)
#    0.000    2.000    3.750    1.125    1.750    0.500 
#    0.000    0.000    0.000    0.750    0.000    0.000 
#    0.000    0.000    0.000    0.000    0.000    0.000 
#
# Total GULP energy -178250.783701 kJ/mol
# GULP energy per Si atom -5570.336991 kJ/mol
# Density = 1.870156 g / cm^3
# Si number density = 18.744219 Si / 1000 Ang^3
#
#
#
# Elastic Constant Matrix: (Units=GPa)
#
#
# Indices 1 2 3 4 5 6 
#
# 1 162.1981 14.4993 38.2398 0.0000 8.3334 0.0000
# 2 14.4993 36.0650 3.7665 0.0000 -2.8171 0.0000
# 3 38.2398 3.7665 44.8023 0.0000 6.2372 0.0000
# 4 0.0000 0.0000 0.0000 14.3298 0.0000 -3.6359
# 5 8.3334 -2.8171 6.2372 0.0000 13.1334 0.0000
# 6 0.0000 0.0000 0.0000 -3.6359 0.0000 25.1880
#
#
#
# Elastic Compliance Matrix: (Units=1/GPa)
#
#
# Indices 1 2 3 4 5 6 
#
# 1 0.008025 -0.002788 -0.006235 0.000000 -0.002729 0.000000
# 2 -0.002788 0.029673 -0.001335 0.000000 0.008768 0.000000
# 3 -0.006235 -0.001335 0.029172 0.000000 -0.010184 0.000000
# 4 0.000000 0.000000 0.000000 0.072438 0.000000 0.010456
# 5 -0.002729 0.008768 -0.010184 0.000000 0.084590 0.000000
# 6 0.000000 0.000000 0.000000 0.010456 0.000000 0.041211
#
#
# Mechanical properties :
#
#
# Convention : Reuss Voigt Hill
#
# Bulk Modulus (GPa) = 21.66729 39.56405 30.61567
# Shear Modulus (GPa) = 16.59971 22.96757 19.78364
#
# Velocity S-wave (km/s) = 2.97912 3.50425 3.25230
# Velocity P-wave (km/s) = 4.83922 6.12586 5.52015
#
# Compressibility (1/GPa) = 0.04615251
#
# Stress axis : x y z
#
# Youngs Moduli (GPa) = 124.61535 33.70065 34.27939
#
# Poissons Ratio (x) = 0.09396 0.21373
# Poissons Ratio (y) = 0.34745 0.04578
# Poissons Ratio (z) = 0.77697 0.04501
#
# Static dielectric constant tensor:
#      x y z
#    x 1.728670 0.000000 0.023060 
#    y 0.000000 1.653000 0.000000 
#    z 0.023060 0.000000 1.621710 
# 
# From -- ./inp_files/279895.got.cif
#   From: 2010.05.17/outbox.cif.g08.bks.cpg/sg15_140_cif.got.tgz:279895.got - 2010.06.03 18:47:42.
