data_PCOD9259708
_publ_section_title
;
Structure prediction by ZEFSAII (Michael W. Deem and Ramdas Pophale) SiO2 
 PCOD9259708
Probable space group: C 2/C
;
_chemical_formula_sum "Si O2"
_cell_formula_units_Z 64
_cell_length_a 27.301847
_cell_length_b 9.313685
_cell_length_c 15.396674
_cell_angle_alpha 90.000000
_cell_angle_beta 143.266530
_cell_angle_gamma 90.000000
_cell_volume 2341.582732
_symmetry_space_group_name_H-M "C 2/C"
_symmetry_group_IT_number 15
_symmetry_cell_setting 'monoclinic'
loop_
_space_group_symop_operation_xyz
x,y,z
-x,y,1/2-z
-x,-y,-z
x,-y,1/2+z
1/2+x,1/2+y,z
1/2-x,1/2+y,1/2-z
1/2-x,1/2-y,-z
1/2+x,1/2-y,1/2+z
loop_
_atom_site_type_symbol
_atom_site_label
_atom_site_fract_x
_atom_site_fract_y
_atom_site_fract_z
Si Si1 0.377502 0.921205 0.144710
Si Si2 0.378809 0.704406 0.421334
Si Si3 0.631709 0.371550 0.205387
Si Si4 0.777285 0.436232 0.836294
Si Si5 0.495761 0.160073 0.950365
Si Si6 0.114364 0.258714 0.881710
Si Si7 0.280768 0.082424 0.139504
Si Si8 0.990269 0.989766 0.333146
O O1 0.405155 0.084477 0.180916
O O2 0.303017 0.949261 0.108441
O O3 0.451718 0.838027 0.294237
O O4 0.344161 0.889192 0.001938
O O5 0.285925 0.694287 0.262073
O O6 0.432348 0.767609 0.423705
O O7 0.383513 0.799058 0.513033
O O8 0.419047 0.547510 0.501707
O O9 0.715485 0.443077 0.288796
O O10 0.670026 0.232441 0.313411
O O11 0.578272 0.491960 0.184531
O O12 0.571455 0.272622 0.060097
O O13 0.799895 0.458663 0.766876
O O14 0.500000 0.000000 0.000000
O O15 0.042196 0.166303 0.740714
O O16 0.188642 0.138288 0.994269
O O17 0.000000 0.062743 0.250000
#
# Coordination Sequence:
#
# PCOD9259708 Si02
#       8
#     8   8   8   8   8   8   8   8
#     4  12  22  37  69 101 130 177 229 282 349 408
#     4   9  22  40  60  93 141 173 223 280 340 418
#     4  11  21  43  66  96 144 178 227 286 355 409
#     4  11  26  41  68 103 132 194 230 274 352 424
#     4  11  23  40  65  97 136 179 217 292 349 398
#     4  10  18  35  64  98 122 166 227 288 330 396
#     4  11  22  40  66  98 138 172 233 293 334 405
#     4   9  17  33  62  96 127 168 223 283 335 387
#
# _framework density 27.331941
#
# number of rings (size 3 to 8) (size 9 to 14) (size 15 to 20)
#    0.000    1.500    3.750    1.875    1.750    2.500 
#    0.000    1.875    0.000    7.500    0.000    0.000 
#    0.000    0.000    0.000    0.000    0.000    0.000 
#
# Total GULP energy -178164.118734 kJ/mol
# GULP energy per Si atom -5567.628710 kJ/mol
# Density = 2.726973 g / cm^3
# Si number density = 27.331941 Si / 1000 Ang^3
#
#
#
# Elastic Constant Matrix: (Units=GPa)
#
#
# Indices 1 2 3 4 5 6 
#
# 1 38.2697 7.0247 -18.3880 0.0000 5.1796 0.0000
# 2 7.0247 54.0343 1.1758 0.0000 -6.5543 0.0000
# 3 -18.3880 1.1758 143.6561 0.0000 -8.2339 0.0000
# 4 0.0000 0.0000 0.0000 22.9300 0.0000 -7.0316
# 5 5.1796 -6.5543 -8.2339 0.0000 39.4452 0.0000
# 6 0.0000 0.0000 0.0000 -7.0316 0.0000 36.8653
#
#
#
# Elastic Compliance Matrix: (Units=1/GPa)
#
#
# Indices 1 2 3 4 5 6 
#
# 1 0.029144 -0.004328 0.003548 0.000000 -0.003806 0.000000
# 2 -0.004328 0.019530 -0.000501 0.000000 0.003709 0.000000
# 3 0.003548 -0.000501 0.007477 0.000000 0.001012 0.000000
# 4 0.000000 0.000000 0.000000 0.046320 0.000000 0.008835
# 5 -0.003806 0.003709 0.001012 0.000000 0.026679 0.000000
# 6 0.000000 0.000000 0.000000 0.008835 0.000000 0.028811
#
#
# Mechanical properties :
#
#
# Convention : Reuss Voigt Hill
#
# Bulk Modulus (GPa) = 18.66033 23.95389 21.30711
# Shear Modulus (GPa) = 28.02890 36.25795 32.14343
#
# Velocity S-wave (km/s) = 3.20582 3.64617 3.43306
# Velocity P-wave (km/s) = 4.53267 5.14871 4.85048
#
# Compressibility (1/GPa) = 0.05358961
#
# Stress axis : x y z
#
# Youngs Moduli (GPa) = 34.31186 51.20282 133.73847
#
# Poissons Ratio (x) = 0.22159 -0.47448
# Poissons Ratio (y) = 0.14849 0.06703
# Poissons Ratio (z) = -0.12173 0.02566
#
# Static dielectric constant tensor:
#      x y z
#    x 2.482890 0.000000 -0.196790 
#    y 0.000000 2.156260 0.000000 
#    z -0.196790 0.000000 2.267610 
# 
# From -- ./inp_files/181785.got.cif
#   From: 2010.05.17/outbox.cif.g08.bks.cpg/sg15_91_cif.got.tgz:181785.got - 2010.06.03 18:47:42.
