data_PCOD9259203
_publ_section_title
;
Structure prediction by ZEFSAII (Michael W. Deem and Ramdas Pophale) SiO2 
 PCOD9259203
Probable space group: C 2/C
;
_chemical_formula_sum "Si O2"
_cell_formula_units_Z 60
_cell_length_a 7.260304
_cell_length_b 16.836613
_cell_length_c 27.053919
_cell_angle_alpha 90.000000
_cell_angle_beta 56.450963
_cell_angle_gamma 90.000000
_cell_volume 2756.132312
_symmetry_space_group_name_H-M "C 2/C"
_symmetry_group_IT_number 15
_symmetry_cell_setting 'monoclinic'
loop_
_space_group_symop_operation_xyz
x,y,z
-x,y,1/2-z
-x,-y,-z
x,-y,1/2+z
1/2+x,1/2+y,z
1/2-x,1/2+y,1/2-z
1/2-x,1/2-y,-z
1/2+x,1/2-y,1/2+z
loop_
_atom_site_type_symbol
_atom_site_label
_atom_site_fract_x
_atom_site_fract_y
_atom_site_fract_z
Si Si1 0.500000 0.892114 0.250000
Si Si2 0.081205 0.414193 0.899575
Si Si3 0.944272 0.750226 0.048593
Si Si4 0.255539 0.970859 0.727973
Si Si5 0.963760 0.185041 0.442520
Si Si6 0.687066 0.609436 0.875303
Si Si7 0.240592 0.956689 0.469209
Si Si8 0.407099 0.568085 0.148207
O O1 0.672344 0.849073 0.188824
O O2 0.629890 0.949021 0.269257
O O3 0.000131 0.328591 0.929778
O O4 0.105706 0.433204 0.837322
O O5 0.335413 0.421287 0.878175
O O6 0.925634 0.477808 0.950082
O O7 0.682705 0.738818 0.072377
O O8 0.981838 0.826976 0.077265
O O9 0.040218 0.767345 0.979686
O O10 0.000000 0.985626 0.750000
O O11 0.232031 0.919373 0.781476
O O12 0.799245 0.115578 0.487740
O O13 0.141591 0.133008 0.386600
O O14 0.808617 0.582584 0.907192
O O15 0.613373 0.524056 0.864862
O O16 0.000000 0.000000 0.500000
#
# Coordination Sequence:
#
# PCOD9259203 Si02
#       8
#     4   8   8   8   8   8   8   8
#     4  10  18  34  62  86 112 156 190 248 290 346
#     4  10  20  37  57  87 114 149 194 245 293 346
#     4   9  20  34  56  81 124 144 187 239 297 352
#     4   9  18  33  57  91 109 143 203 252 282 349
#     4   9  18  36  54  80 113 155 188 234 291 348
#     4  10  19  36  56  85 109 149 190 233 291 349
#     4  11  20  34  61  79 111 149 202 235 276 351
#     4   9  18  33  60  82 109 149 199 241 282 349
#
# _framework density 21.769638
#
# number of rings (size 3 to 8) (size 9 to 14) (size 15 to 20)
#    0.000    2.400    2.667    0.000    0.000    2.133 
#    6.000    2.667    5.867    0.000   13.867    0.000 
#    0.000    0.000    0.000    0.000    0.000    0.000 
#
# Total GULP energy -167148.902861 kJ/mol
# GULP energy per Si atom -5571.630095 kJ/mol
# Density = 2.172009 g / cm^3
# Si number density = 21.769638 Si / 1000 Ang^3
#
#
#
# Elastic Constant Matrix: (Units=GPa)
#
#
# Indices 1 2 3 4 5 6 
#
# 1 49.0492 15.9638 28.4035 0.0002 -9.9891 -0.0006
# 2 15.9638 86.3542 17.6701 0.0002 10.7318 -0.0005
# 3 28.4035 17.6701 113.7256 0.0002 25.4695 -0.0003
# 4 0.0002 0.0002 0.0002 23.4956 -0.0001 7.9180
# 5 -9.9891 10.7318 25.4695 -0.0001 35.1909 0.0003
# 6 -0.0006 -0.0005 -0.0003 7.9180 0.0003 26.2223
#
#
#
# Elastic Compliance Matrix: (Units=1/GPa)
#
#
# Indices 1 2 3 4 5 6 
#
# 1 0.033296 -0.006211 -0.011805 0.000000 0.019889 0.000000
# 2 -0.006211 0.013346 0.000936 0.000000 -0.006510 0.000000
# 3 -0.011805 0.000936 0.014811 0.000000 -0.014356 0.000000
# 4 0.000000 0.000000 0.000000 0.047383 0.000000 -0.014308
# 5 0.019889 -0.006510 -0.014356 0.000000 0.046438 -0.000001
# 6 0.000000 0.000000 0.000000 -0.014308 -0.000001 0.042456
#
#
# Mechanical properties :
#
#
# Convention : Reuss Voigt Hill
#
# Bulk Modulus (GPa) = 36.64120 41.46710 39.05415
# Shear Modulus (GPa) = 20.74787 29.45452 25.10120
#
# Velocity S-wave (km/s) = 3.09052 3.68232 3.39932
# Velocity P-wave (km/s) = 5.44086 6.09662 5.77805
#
# Compressibility (1/GPa) = 0.02729168
#
# Stress axis : x y z
#
# Youngs Moduli (GPa) = 30.03361 74.92820 67.51645
#
# Poissons Ratio (x) = 0.46541 0.79704
# Poissons Ratio (y) = 0.18655 -0.06318
# Poissons Ratio (z) = 0.35455 -0.07011
#
# Static dielectric constant tensor:
#      x y z
#    x 1.846620 0.000000 0.013190 
#    y 0.000000 1.817480 0.000000 
#    z 0.013190 0.000000 1.871170 
# 
# From -- ./inp_files/289565.got.cif
#   From: 2010.05.17/outbox.cif.g08.bks.cpg/sg15_145_cif.got.tgz:289565.got - 2010.06.03 18:47:42.
