data_PCOD9259080
_publ_section_title
;
Structure prediction by ZEFSAII (Michael W. Deem and Ramdas Pophale) SiO2 
 PCOD9259080
Probable space group: C 2/C
;
_chemical_formula_sum "Si O2"
_cell_formula_units_Z 52
_cell_length_a 35.279729
_cell_length_b 8.084574
_cell_length_c 13.849762
_cell_angle_alpha 90.000000
_cell_angle_beta 31.353976
_cell_angle_gamma 90.000000
_cell_volume 2055.409736
_symmetry_space_group_name_H-M "C 2/C"
_symmetry_group_IT_number 15
_symmetry_cell_setting 'monoclinic'
loop_
_space_group_symop_operation_xyz
x,y,z
-x,y,1/2-z
-x,-y,-z
x,-y,1/2+z
1/2+x,1/2+y,z
1/2-x,1/2+y,1/2-z
1/2-x,1/2-y,-z
1/2+x,1/2-y,1/2+z
loop_
_atom_site_type_symbol
_atom_site_label
_atom_site_fract_x
_atom_site_fract_y
_atom_site_fract_z
Si Si1 0.582639 0.059090 0.829769
Si Si2 0.927007 0.564176 0.958435
Si Si3 0.732728 0.410260 0.208315
Si Si4 0.000000 0.138127 0.750000
Si Si5 0.124059 0.227416 0.632217
Si Si6 0.585678 0.598351 0.914803
Si Si7 0.670519 0.783874 0.995871
O O1 0.618701 0.903795 0.699053
O O2 0.612860 0.217411 0.708333
O O3 0.601547 0.064105 0.901021
O O4 0.500000 0.000000 0.000000
O O5 0.000000 0.503877 0.750000
O O6 0.947903 0.728489 0.973328
O O7 0.870455 0.619700 0.001809
O O8 0.668883 0.389368 0.270330
O O9 0.695634 0.387675 0.395048
O O10 0.764682 0.591671 0.119615
O O11 0.790715 0.257204 0.079694
O O12 0.068679 0.214849 0.662315
O O13 0.041963 0.035976 0.573002
O O14 0.093805 0.102939 0.781144
#
# Coordination Sequence:
#
# PCOD9259080 Si02
#       7
#     8   8   8   4   8   8   8
#     4  10  20  35  58  85 115 155 199 257 313 367
#     4  10  18  34  59  87 113 156 207 249 302 373
#     4  10  21  40  61  88 125 175 208 256 312 384
#     4  12  22  38  62  98 126 162 202 278 324 358
#     4  10  23  37  58  91 124 159 211 263 315 370
#     4  10  21  38  62  84 122 168 214 247 305 389
#     4  10  21  37  60  87 122 158 210 260 308 371
#
# _framework density 25.299091000000001
#
# number of rings (size 3 to 8) (size 9 to 14) (size 15 to 20)
#    0.000    1.846    2.308    1.846    0.000    3.692 
#    0.000    2.308    0.000    0.000    0.000    0.000 
#    0.000    0.000    0.000    0.000    0.000    0.000 
#
# Total GULP energy -145073.596523 kJ/mol
# GULP energy per Si atom -5579.753712 kJ/mol
# Density = 2.524151 g / cm^3
# Si number density = 25.299091 Si / 1000 Ang^3
#
#
#
# Elastic Constant Matrix: (Units=GPa)
#
#
# Indices 1 2 3 4 5 6 
#
# 1 122.0987 17.6797 27.6641 0.0000 -3.7035 0.0000
# 2 17.6797 46.0007 -2.6251 0.0000 -2.6576 0.0000
# 3 27.6641 -2.6251 81.8434 0.0000 2.3226 0.0000
# 4 0.0000 0.0000 0.0000 -33.5853 0.0000 10.0666
# 5 -3.7035 -2.6576 2.3226 0.0000 43.4854 0.0000
# 6 0.0000 0.0000 0.0000 10.0666 0.0000 20.6709
#
#
#
# Elastic Compliance Matrix: (Units=1/GPa)
#
#
# Indices 1 2 3 4 5 6 
#
# 1 0.009527 -0.003810 -0.003364 0.000000 0.000758 0.000000
# 2 -0.003810 0.023375 0.002009 0.000000 0.000997 0.000000
# 3 -0.003364 0.002009 0.013445 0.000000 -0.000882 0.000000
# 4 0.000000 0.000000 0.000000 -0.025982 0.000000 0.012653
# 5 0.000758 0.000997 -0.000882 0.000000 0.023169 0.000000
# 6 0.000000 0.000000 0.000000 0.012653 0.000000 0.042215
#
#
# Mechanical properties :
#
#
# Convention : Reuss Voigt Hill
#
# Bulk Modulus (GPa) = 27.76368 37.26448 32.51408
# Shear Modulus (GPa) = 46.26046 19.92914 33.09480
#
# Velocity S-wave (km/s) = 4.28078 2.80972 3.62075
# Velocity P-wave (km/s) = 5.95244 5.02867 5.50995
#
# Compressibility (1/GPa) = 0.03601828
#
# Stress axis : x y z
#
# Youngs Moduli (GPa) = 104.96586 42.78025 74.37725
#
# Poissons Ratio (x) = 0.16298 0.25020
# Poissons Ratio (y) = 0.39989 -0.14944
# Poissons Ratio (z) = 0.35310 -0.08595
#
# Static dielectric constant tensor:
#      x y z
#    x 1.995610 0.000000 0.029370 
#    y 0.000000 2.065300 0.000000 
#    z 0.029370 0.000000 2.074710 
# 
# From -- ./inp_files/126409.got.cif
#   From: 2010.05.17/outbox.cif.g08.bks.cpg/sg15_64_cif.got.tgz:126409.got - 2010.06.03 18:47:42.
