data_PCOD9259612
_publ_section_title
;
Structure prediction by ZEFSAII (Michael W. Deem and Ramdas Pophale) SiO2 
 PCOD9259612
Probable space group: C 2/C
;
_chemical_formula_sum "Si O2"
_cell_formula_units_Z 56
_cell_length_a 18.170659
_cell_length_b 14.453766
_cell_length_c 9.105717
_cell_angle_alpha 90.000000
_cell_angle_beta 107.467482
_cell_angle_gamma 90.000000
_cell_volume 2281.198023
_symmetry_space_group_name_H-M "C 2/C"
_symmetry_group_IT_number 15
_symmetry_cell_setting 'monoclinic'
loop_
_space_group_symop_operation_xyz
x,y,z
-x,y,1/2-z
-x,-y,-z
x,-y,1/2+z
1/2+x,1/2+y,z
1/2-x,1/2+y,1/2-z
1/2-x,1/2-y,-z
1/2+x,1/2-y,1/2+z
loop_
_atom_site_type_symbol
_atom_site_label
_atom_site_fract_x
_atom_site_fract_y
_atom_site_fract_z
Si Si1 0.439838 0.415891 0.460049
Si Si2 0.423712 0.897692 0.375880
Si Si3 0.269302 0.902026 0.452682
Si Si4 0.072430 0.801656 0.631497
Si Si5 0.692047 0.541801 0.190174
Si Si6 0.063720 0.397297 0.665802
Si Si7 0.124218 0.213034 0.818262
O O1 0.500000 0.500000 0.500000
O O2 0.484468 0.339241 0.582981
O O3 0.358935 0.467945 0.435215
O O4 0.423193 0.366490 0.295185
O O5 0.358148 0.893431 0.463481
O O6 0.414672 0.799067 0.291214
O O7 0.512086 0.898244 0.486389
O O8 0.408469 0.997204 0.294403
O O9 0.251092 0.915226 0.611166
O O10 0.213640 0.817834 0.371199
O O11 0.236666 0.988905 0.342982
O O12 0.132457 0.881115 0.713529
O O13 0.092295 0.788412 0.466736
O O14 0.114799 0.306366 0.717976
O O15 0.000000 0.380306 0.750000
#
# Coordination Sequence:
#
# PCOD9259612 Si02
#       7
#     8   8   8   8   8   8   8
#     4   9  16  30  55  89 118 148 191 251 310 362
#     4  11  24  36  60  90 119 161 215 252 300 366
#     4  10  23  39  62  97 125 163 204 253 320 368
#     4  10  18  35  61  90 112 157 215 254 300 364
#     4   9  21  37  61  91 128 158 200 256 315 370
#     4  11  22  40  61  86 121 164 206 259 306 355
#     4  10  18  36  64  87 119 155 208 263 309 358
#
# _framework density 24.548504000000001
#
# number of rings (size 3 to 8) (size 9 to 14) (size 15 to 20)
#    0.000    2.000    2.857    0.429    2.000    4.571 
#    0.000    3.571    0.000    4.286    0.000    0.000 
#    0.000    0.000    0.000    0.000    0.000    0.000 
#
# Total GULP energy -156383.384880 kJ/mol
# GULP energy per Si atom -5585.120889 kJ/mol
# Density = 2.449263 g / cm^3
# Si number density = 24.548504 Si / 1000 Ang^3
#
#
#
# Elastic Constant Matrix: (Units=GPa)
#
#
# Indices 1 2 3 4 5 6 
#
# 1 79.6828 33.5195 15.9724 0.0000 11.9122 0.0000
# 2 33.5195 191.3295 41.8974 0.0000 20.5967 0.0000
# 3 15.9724 41.8974 59.7121 0.0000 16.3113 0.0000
# 4 0.0000 0.0000 0.0000 46.8819 0.0000 13.9486
# 5 11.9122 20.5967 16.3113 0.0000 25.7269 0.0000
# 6 0.0000 0.0000 0.0000 13.9486 0.0000 29.7183
#
#
#
# Elastic Compliance Matrix: (Units=1/GPa)
#
#
# Indices 1 2 3 4 5 6 
#
# 1 0.014198 -0.001713 -0.001421 0.000000 -0.004302 0.000000
# 2 -0.001713 0.006536 -0.003526 0.000000 -0.002204 0.000000
# 3 -0.001421 -0.003526 0.022557 0.000000 -0.010821 0.000000
# 4 0.000000 0.000000 0.000000 0.024792 0.000000 -0.011637
# 5 -0.004302 -0.002204 -0.010821 0.000000 0.049487 0.000000
# 6 0.000000 0.000000 0.000000 -0.011637 0.000000 0.039111
#
#
# Mechanical properties :
#
#
# Convention : Reuss Voigt Hill
#
# Bulk Modulus (GPa) = 33.36455 57.05587 45.21021
# Shear Modulus (GPa) = 27.77909 36.42110 32.10010
#
# Velocity S-wave (km/s) = 3.36758 3.85598 3.62002
# Velocity P-wave (km/s) = 5.36111 6.56638 5.99412
#
# Compressibility (1/GPa) = 0.02997193
#
# Stress axis : x y z
#
# Youngs Moduli (GPa) = 70.43074 152.99727 44.33249
#
# Poissons Ratio (x) = 0.26212 0.06298
# Poissons Ratio (y) = 0.12066 0.15630
# Poissons Ratio (z) = 0.10006 0.53943
#
# Static dielectric constant tensor:
#      x y z
#    x 1.959570 0.000000 0.008810 
#    y 0.000000 2.006200 0.000000 
#    z 0.008810 0.000000 1.987690 
# 
# From -- ./inp_files/105405.got.cif
#   From: 2010.05.17/outbox.cif.g08.bks.cpg/sg15_53_cif.got.tgz:105405.got - 2010.06.03 18:47:42.
