data_PCOD9259573
_publ_section_title
;
Structure prediction by ZEFSAII (Michael W. Deem and Ramdas Pophale) SiO2 
 PCOD9259573
Probable space group: C 2/C
;
_chemical_formula_sum "Si O2"
_cell_formula_units_Z 60
_cell_length_a 23.094379
_cell_length_b 9.387820
_cell_length_c 15.489739
_cell_angle_alpha 90.000000
_cell_angle_beta 68.067800
_cell_angle_gamma 90.000000
_cell_volume 3115.216861
_symmetry_space_group_name_H-M "C 2/C"
_symmetry_group_IT_number 15
_symmetry_cell_setting 'monoclinic'
loop_
_space_group_symop_operation_xyz
x,y,z
-x,y,1/2-z
-x,-y,-z
x,-y,1/2+z
1/2+x,1/2+y,z
1/2-x,1/2+y,1/2-z
1/2-x,1/2-y,-z
1/2+x,1/2-y,1/2+z
loop_
_atom_site_type_symbol
_atom_site_label
_atom_site_fract_x
_atom_site_fract_y
_atom_site_fract_z
Si Si1 0.429920 0.265090 0.769606
Si Si2 0.139725 0.974355 0.398956
Si Si3 0.902790 0.730218 0.963717
Si Si4 0.891073 0.914223 0.275446
Si Si5 0.539246 0.703456 0.424368
Si Si6 0.682594 0.309948 0.015534
Si Si7 0.573183 0.910704 0.548879
Si Si8 0.000000 0.308318 0.750000
O O1 0.500000 0.214355 0.750000
O O2 0.385662 0.217408 0.871940
O O3 0.425784 0.436211 0.771077
O O4 0.418595 0.228897 0.676045
O O5 0.072961 0.059004 0.434407
O O6 0.180799 0.085680 0.432625
O O7 0.139154 0.828825 0.453549
O O8 0.146872 0.934016 0.293606
O O9 0.913381 0.569973 0.988053
O O10 0.969588 0.812361 0.927888
O O11 0.847963 0.885578 0.383070
O O12 0.944993 0.793082 0.241723
O O13 0.535494 0.815566 0.502476
O O14 0.637091 0.176670 0.023536
O O15 0.750000 0.250000 0.000000
O O16 0.533779 0.902313 0.658793
#
# Coordination Sequence:
#
# PCOD9259573 Si02
#       8
#     8   8   8   8   8   8   8   4
#     4   9  17  28  52  81 115 147 178 221 271 331
#     4  10  20  35  61  84 107 149 202 235 279 336
#     4  11  19  32  52  84 122 148 185 228 283 347
#     4  10  18  35  60  89 109 148 193 233 280 343
#     4   9  19  31  51  81 117 152 182 216 281 347
#     4  10  22  43  62  77 113 154 196 243 288 330
#     4  10  22  35  53  83 117 154 180 226 296 338
#     4  10  20  32  54  86 128 148 178 226 292 356
#
# _framework density 19.260296
#
# number of rings (size 3 to 8) (size 9 to 14) (size 15 to 20)
#    0.000    2.133    2.000    1.600    2.800    0.000 
#    2.400    2.000    5.867    0.000    0.000    0.000 
#    0.000    0.000    0.000    0.000    0.000    0.000 
#
# Total GULP energy -167043.485198 kJ/mol
# GULP energy per Si atom -5568.116173 kJ/mol
# Density = 1.921646 g / cm^3
# Si number density = 19.260296 Si / 1000 Ang^3
#
#
#
# Elastic Constant Matrix: (Units=GPa)
#
#
# Indices 1 2 3 4 5 6 
#
# 1 63.2084 3.0765 27.0239 0.0000 9.2283 0.0000
# 2 3.0765 61.8717 19.6170 0.0000 3.4079 0.0000
# 3 27.0239 19.6170 73.3585 0.0000 24.0471 0.0000
# 4 0.0000 0.0000 0.0000 10.2078 0.0000 -7.5597
# 5 9.2283 3.4079 24.0471 0.0000 16.8907 0.0000
# 6 0.0000 0.0000 0.0000 -7.5597 0.0000 2.1616
#
#
#
# Elastic Compliance Matrix: (Units=1/GPa)
#
#
# Indices 1 2 3 4 5 6 
#
# 1 0.018887 0.001367 -0.007219 0.000000 -0.000317 0.000000
# 2 0.001367 0.018081 -0.007309 0.000000 0.006011 0.000000
# 3 -0.007219 -0.007309 0.030881 0.000000 -0.038547 0.000000
# 4 0.000000 0.000000 0.000000 -0.061613 0.000000 -0.215474
# 5 -0.000317 0.006011 -0.038547 0.000000 0.113043 0.000000
# 6 0.000000 0.000000 0.000000 -0.215474 0.000000 -0.290950
#
#
# Mechanical properties :
#
#
# Convention : Reuss Voigt Hill
#
# Bulk Modulus (GPa) = 24.08094 33.09704 28.58899
# Shear Modulus (GPa) = -38.02095 15.76677 -11.12709
#
# Velocity S-wave (km/s) = -4.44786 2.86425 -2.40619
# Velocity P-wave (km/s) = 3.72127 5.30659 2.67508
#
# Compressibility (1/GPa) = 0.04152661
#
# Stress axis : x y z
#
# Youngs Moduli (GPa) = 52.94669 55.30719 32.38190
#
# Poissons Ratio (x) = -0.07562 0.23378
# Poissons Ratio (y) = -0.07239 0.23668
# Poissons Ratio (z) = 0.38225 0.40425
#
# Static dielectric constant tensor:
#      x y z
#    x 1.668460 0.000000 0.046830 
#    y 0.000000 1.671200 0.000000 
#    z 0.046830 0.000000 1.774960 
# 
# From -- ./inp_files/172364.got.cif
#   From: 2010.05.17/outbox.cif.g08.bks.cpg/sg15_87_cif.got.tgz:172364.got - 2010.06.03 18:47:42.
