data_PCOD9259476
_publ_section_title
;
Structure prediction by ZEFSAII (Michael W. Deem and Ramdas Pophale) SiO2 
 PCOD9259476
Probable space group: C 2/C
;
_chemical_formula_sum "Si O2"
_cell_formula_units_Z 52
_cell_length_a 9.749544
_cell_length_b 18.639453
_cell_length_c 18.334983
_cell_angle_alpha 90.000000
_cell_angle_beta 132.436569
_cell_angle_gamma 90.000000
_cell_volume 2459.058974
_symmetry_space_group_name_H-M "C 2/C"
_symmetry_group_IT_number 15
_symmetry_cell_setting 'monoclinic'
loop_
_space_group_symop_operation_xyz
x,y,z
-x,y,1/2-z
-x,-y,-z
x,-y,1/2+z
1/2+x,1/2+y,z
1/2-x,1/2+y,1/2-z
1/2-x,1/2-y,-z
1/2+x,1/2-y,1/2+z
loop_
_atom_site_type_symbol
_atom_site_label
_atom_site_fract_x
_atom_site_fract_y
_atom_site_fract_z
Si Si1 0.500000 0.822258 0.250000
Si Si2 0.673666 0.234622 0.207872
Si Si3 0.867930 0.231815 0.424251
Si Si4 0.712641 0.441038 0.351295
Si Si5 0.424502 0.851241 0.066488
Si Si6 0.843353 0.159836 0.552243
Si Si7 0.282397 0.607455 0.150714
O O1 0.348495 0.772922 0.233538
O O2 0.399426 0.859888 0.144491
O O3 0.717069 0.221384 0.307707
O O4 0.519028 0.295895 0.146002
O O5 0.662135 0.159952 0.159570
O O6 0.872546 0.162338 0.476360
O O7 0.815947 0.291015 0.467229
O O8 0.040487 0.267797 0.444801
O O9 0.500000 0.426123 0.250000
O O10 0.697207 0.418049 0.430349
O O11 0.757075 0.523399 0.352148
O O12 0.876816 0.392159 0.376570
O O13 0.272568 0.877654 0.953508
O O14 0.500000 0.618331 0.250000
#
# Coordination Sequence:
#
# PCOD9259476 Si02
#       7
#     4   8   8   8   8   8   8
#     4  10  22  34  62  86 114 154 200 248 294 352
#     4  11  20  35  56  90 118 149 194 253 297 353
#     4   9  19  32  58  86 113 142 197 256 296 335
#     4  10  21  39  63  84 116 162 205 244 297 370
#     4  10  20  40  60  89 116 159 203 246 297 362
#     4  10  18  35  58  86 111 150 197 250 295 343
#     4  11  23  38  57  88 128 163 194 239 311 368
#
# _framework density 21.1463
#
# number of rings (size 3 to 8) (size 9 to 14) (size 15 to 20)
#    0.000    1.846    2.308    3.692    0.000    1.846 
#    0.000    1.538    0.000    4.615    0.000    0.000 
#    0.000    0.000    0.000    0.000    0.000    0.000 
#
# Total GULP energy -144737.631423 kJ/mol
# GULP energy per Si atom -5566.831978 kJ/mol
# Density = 2.109817 g / cm^3
# Si number density = 21.146300 Si / 1000 Ang^3
#
#
#
# Elastic Constant Matrix: (Units=GPa)
#
#
# Indices 1 2 3 4 5 6 
#
# 1 58.7328 24.7873 41.4446 0.0000 -12.5166 0.0000
# 2 24.7873 70.1797 24.2294 0.0000 -3.4413 0.0000
# 3 41.4446 24.2294 145.5462 0.0000 -35.4245 0.0000
# 4 0.0000 0.0000 0.0000 21.0159 0.0000 -7.2092
# 5 -12.5166 -3.4413 -35.4245 0.0000 39.8251 0.0000
# 6 0.0000 0.0000 0.0000 -7.2092 0.0000 12.0849
#
#
#
# Elastic Compliance Matrix: (Units=1/GPa)
#
#
# Indices 1 2 3 4 5 6 
#
# 1 0.023931 -0.006560 -0.005143 0.000000 0.002380 0.000000
# 2 -0.006560 0.016961 -0.001405 0.000000 -0.001846 0.000000
# 3 -0.005143 -0.001405 0.010397 0.000000 0.007510 0.000000
# 4 0.000000 0.000000 0.000000 0.059826 0.000000 0.035689
# 5 0.002380 -0.001846 0.007510 0.000000 0.032379 0.000000
# 6 0.000000 0.000000 0.000000 0.035689 0.000000 0.104038
#
#
# Mechanical properties :
#
#
# Convention : Reuss Voigt Hill
#
# Bulk Modulus (GPa) = 39.88380 50.59790 45.24085
# Shear Modulus (GPa) = 17.72390 26.85165 22.28778
#
# Velocity S-wave (km/s) = 2.89823 3.56730 3.25003
# Velocity P-wave (km/s) = 5.48648 6.39898 5.96022
#
# Compressibility (1/GPa) = 0.02507284
#
# Stress axis : x y z
#
# Youngs Moduli (GPa) = 41.78628 58.96011 96.18165
#
# Poissons Ratio (x) = 0.38678 0.49468
# Poissons Ratio (y) = 0.27412 0.13511
# Poissons Ratio (z) = 0.21492 0.08282
#
# Static dielectric constant tensor:
#      x y z
#    x 1.819380 0.000000 0.031660 
#    y 0.000000 1.786980 0.000000 
#    z 0.031660 0.000000 1.922310 
# 
# From -- ./inp_files/192618.got.cif
#   From: 2010.05.17/outbox.cif.g08.bks.cpg/sg15_97_cif.got.tgz:192618.got - 2010.06.03 18:47:42.
