data_PCOD9259117
_publ_section_title
;
Structure prediction by ZEFSAII (Michael W. Deem and Ramdas Pophale) SiO2 
 PCOD9259117
Probable space group: C 2/C
;
_chemical_formula_sum "Si O2"
_cell_formula_units_Z 52
_cell_length_a 17.034744
_cell_length_b 8.542719
_cell_length_c 24.142616
_cell_angle_alpha 90.000000
_cell_angle_beta 44.903420
_cell_angle_gamma 90.000000
_cell_volume 2480.091834
_symmetry_space_group_name_H-M "C 2/C"
_symmetry_group_IT_number 15
_symmetry_cell_setting 'monoclinic'
loop_
_space_group_symop_operation_xyz
x,y,z
-x,y,1/2-z
-x,-y,-z
x,-y,1/2+z
1/2+x,1/2+y,z
1/2-x,1/2+y,1/2-z
1/2-x,1/2-y,-z
1/2+x,1/2-y,1/2+z
loop_
_atom_site_type_symbol
_atom_site_label
_atom_site_fract_x
_atom_site_fract_y
_atom_site_fract_z
Si Si1 0.211887 0.897329 0.557461
Si Si2 0.051078 0.488609 0.536672
Si Si3 0.091876 0.694885 0.312482
Si Si4 0.304062 0.523492 0.693385
Si Si5 0.014082 0.813230 0.870432
Si Si6 0.000000 0.442410 0.750000
Si Si7 0.840549 0.711510 0.808985
O O1 0.250000 0.750000 0.500000
O O2 0.315513 0.013695 0.517037
O O3 0.182803 0.837053 0.633267
O O4 0.090792 0.926060 0.590340
O O5 0.000000 0.500000 0.500000
O O6 0.989838 0.343160 0.596325
O O7 0.017588 0.648490 0.586063
O O8 0.192841 0.569042 0.264846
O O9 0.146469 0.864895 0.284243
O O10 0.025116 0.659161 0.290475
O O11 0.398662 0.399321 0.633525
O O12 0.271158 0.644793 0.662226
O O13 0.080277 0.772079 0.780234
O O14 0.897992 0.561837 0.808982
#
# Coordination Sequence:
#
# PCOD9259117 Si02
#       7
#     8   8   8   8   8   4   8
#     4  10  21  37  60  90 123 169 209 255 312 390
#     4  11  22  39  64  94 132 164 214 260 330 379
#     4  11  21  40  59  95 121 168 207 273 320 376
#     4  11  22  38  66  90 125 158 222 267 315 367
#     4  11  21  41  62  95 122 166 226 252 309 394
#     4  10  18  34  60  84 126 150 214 262 310 364
#     4  11  18  37  64  89 120 167 210 264 315 373
#
# _framework density 20.966965999999999
#
# number of rings (size 3 to 8) (size 9 to 14) (size 15 to 20)
#    0.000    1.231    6.154    1.846    0.000    0.000 
#    2.769    9.231    0.000    1.846    0.000    0.000 
#    0.000    0.000    0.000    0.000    0.000    0.000 
#
# Total GULP energy -144981.754225 kJ/mol
# GULP energy per Si atom -5576.221316 kJ/mol
# Density = 2.091924 g / cm^3
# Si number density = 20.966966 Si / 1000 Ang^3
#
#
#
# Elastic Constant Matrix: (Units=GPa)
#
#
# Indices 1 2 3 4 5 6 
#
# 1 107.9140 9.4618 39.0340 0.0000 -20.9658 0.0001
# 2 9.4618 26.3977 -1.8887 0.0000 0.8733 0.0002
# 3 39.0340 -1.8887 62.6399 0.0000 -0.3614 0.0000
# 4 0.0000 0.0000 0.0000 9.7316 0.0000 -7.0229
# 5 -20.9658 0.8733 -0.3614 0.0000 33.9157 0.0000
# 6 0.0001 0.0002 0.0000 -7.0229 0.0000 36.8528
#
#
#
# Elastic Compliance Matrix: (Units=1/GPa)
#
#
# Indices 1 2 3 4 5 6 
#
# 1 0.015113 -0.006412 -0.009557 0.000000 0.009406 0.000000
# 2 -0.006412 0.040716 0.005195 0.000000 -0.004957 0.000000
# 3 -0.009557 0.005195 0.022043 0.000000 -0.005807 0.000000
# 4 0.000000 0.000000 0.000000 0.119144 0.000000 0.022705
# 5 0.009406 -0.004957 -0.005807 0.000000 0.035365 0.000000
# 6 0.000000 0.000000 0.000000 0.022705 0.000000 0.031462
#
#
# Mechanical properties :
#
#
# Convention : Reuss Voigt Hill
#
# Bulk Modulus (GPa) = 17.75452 32.24064 24.99758
# Shear Modulus (GPa) = 16.43846 26.12297 21.28072
#
# Velocity S-wave (km/s) = 2.80307 3.53358 3.18931
# Velocity P-wave (km/s) = 4.35459 5.66202 5.05079
#
# Compressibility (1/GPa) = 0.05632368
#
# Stress axis : x y z
#
# Youngs Moduli (GPa) = 66.16819 24.56038 45.36659
#
# Poissons Ratio (x) = 0.15748 0.43356
# Poissons Ratio (y) = 0.42426 -0.23566
# Poissons Ratio (z) = 0.63235 -0.12758
#
# Static dielectric constant tensor:
#      x y z
#    x 1.835780 0.000000 -0.034140 
#    y 0.000000 1.734950 0.000000 
#    z -0.034140 0.000000 1.781200 
# 
# From -- ./inp_files/298341.got.cif
#   From: 2010.05.17/outbox.cif.g08.bks.cpg/sg15_150_cif.got.tgz:298341.got - 2010.06.03 18:47:42.
