data_PCOD9259404
_publ_section_title
;
Structure prediction by ZEFSAII (Michael W. Deem and Ramdas Pophale) SiO2 
 PCOD9259404
Probable space group: C 2/C
;
_chemical_formula_sum "Si O2"
_cell_formula_units_Z 64
_cell_length_a 21.291504
_cell_length_b 18.907082
_cell_length_c 18.117120
_cell_angle_alpha 90.000000
_cell_angle_beta 28.789274
_cell_angle_gamma 90.000000
_cell_volume 3512.344650
_symmetry_space_group_name_H-M "C 2/C"
_symmetry_group_IT_number 15
_symmetry_cell_setting 'monoclinic'
loop_
_space_group_symop_operation_xyz
x,y,z
-x,y,1/2-z
-x,-y,-z
x,-y,1/2+z
1/2+x,1/2+y,z
1/2-x,1/2+y,1/2-z
1/2-x,1/2-y,-z
1/2+x,1/2-y,1/2+z
loop_
_atom_site_type_symbol
_atom_site_label
_atom_site_fract_x
_atom_site_fract_y
_atom_site_fract_z
Si Si1 0.118628 0.320819 0.684947
Si Si2 0.666732 0.539178 0.013133
Si Si3 0.116333 0.989608 0.230726
Si Si4 0.726740 0.296102 0.449586
Si Si5 0.138320 0.548827 0.441972
Si Si6 0.106650 0.546731 0.300227
Si Si7 0.378020 0.662255 0.820759
Si Si8 0.016204 0.686373 0.643836
O O1 0.113278 0.378824 0.753095
O O2 0.249292 0.334327 0.503574
O O3 0.113065 0.240872 0.721564
O O4 0.000000 0.328468 0.750000
O O5 0.660881 0.504858 0.100423
O O6 0.530657 0.519021 0.113825
O O7 0.682399 0.623318 0.007813
O O8 0.787147 0.506331 0.844546
O O9 0.122087 0.904728 0.233032
O O10 0.218614 0.028338 0.177637
O O11 0.750000 0.250000 0.500000
O O12 0.610009 0.252981 0.532153
O O13 0.869546 0.300743 0.265820
O O14 0.133140 0.556309 0.359367
O O15 0.084032 0.618153 0.538995
O O16 0.035667 0.486714 0.565839
O O17 0.500000 0.651906 0.750000
O O18 0.000000 0.676239 0.750000
#
# Coordination Sequence:
#
# PCOD9259404 Si02
#       8
#     8   8   8   8   8   8   8   8
#     4  10  20  34  63  86 116 152 200 247 305 347
#     4  11  22  37  64  90 122 158 201 259 299 355
#     4  11  21  35  62  92 121 156 210 249 307 359
#     4  10  21  35  58  89 121 148 194 248 305 346
#     4  11  25  39  61  86 125 162 208 243 306 371
#     4  11  23  42  58  89 123 165 197 253 307 367
#     4  10  18  35  56  92 118 146 197 257 295 352
#     4  10  21  37  61  88 118 155 201 251 294 355
#
# _framework density 18.221446
#
# number of rings (size 3 to 8) (size 9 to 14) (size 15 to 20)
#    0.000    1.500    3.750    2.250    7.000    0.500 
#    0.000    1.250   11.000    0.000    0.000    0.000 
#    0.000    0.000    0.000    0.000    0.000    0.000 
#
# Total GULP energy -178596.887724 kJ/mol
# GULP energy per Si atom -5581.152741 kJ/mol
# Density = 1.817997 g / cm^3
# Si number density = 18.221446 Si / 1000 Ang^3
#
#
#
# Elastic Constant Matrix: (Units=GPa)
#
#
# Indices 1 2 3 4 5 6 
#
# 1 34.7569 29.9789 22.3845 -0.0007 -18.2278 0.0000
# 2 29.9789 160.5188 32.7283 -0.0013 -3.4207 -0.0001
# 3 22.3845 32.7283 59.2708 -0.0023 -19.2059 -0.0005
# 4 -0.0007 -0.0013 -0.0023 -8.9339 0.0016 -20.5964
# 5 -18.2278 -3.4207 -19.2059 0.0016 28.6320 0.0003
# 6 0.0000 -0.0001 -0.0005 -20.5964 0.0003 12.3297
#
#
#
# Elastic Compliance Matrix: (Units=1/GPa)
#
#
# Indices 1 2 3 4 5 6 
#
# 1 0.056368 -0.008502 -0.006765 0.000001 0.030332 0.000001
# 2 -0.008502 0.008418 -0.003661 0.000000 -0.006863 0.000000
# 3 -0.006765 -0.003661 0.025441 -0.000001 0.012321 -0.000001
# 4 0.000001 0.000000 -0.000001 -0.023074 0.000002 -0.038544
# 5 0.030332 -0.006863 0.012321 0.000002 0.061681 0.000002
# 6 0.000001 0.000000 -0.000001 -0.038544 0.000002 0.016719
#
#
# Mechanical properties :
#
#
# Convention : Reuss Voigt Hill
#
# Bulk Modulus (GPa) = 19.09461 47.19221 33.14341
# Shear Modulus (GPa) = 24.89222 17.70254 21.29738
#
# Velocity S-wave (km/s) = 3.70008 3.12031 3.42249
# Velocity P-wave (km/s) = 5.36247 6.23997 5.81779
#
# Compressibility (1/GPa) = 0.05237080
#
# Stress axis : x y z
#
# Youngs Moduli (GPa) = 17.74042 118.79545 39.30708
#
# Poissons Ratio (x) = 1.00997 0.26592
# Poissons Ratio (y) = 0.15083 0.14391
# Poissons Ratio (z) = 0.12002 0.43492
#
# Static dielectric constant tensor:
#      x y z
#    x 1.604290 0.000000 -0.026380 
#    y 0.000000 1.648270 0.000000 
#    z -0.026380 0.000000 1.622820 
# 
# From -- ./inp_files/216134.got.cif
#   From: 2010.05.17/outbox.cif.g08.bks.cpg/sg15_109_cif.got.tgz:216134.got - 2010.06.03 18:47:42.
