data_PCOD9259314
_publ_section_title
;
Structure prediction by ZEFSAII (Michael W. Deem and Ramdas Pophale) SiO2 
 PCOD9259314
Probable space group: C 2/C
;
_chemical_formula_sum "Si O2"
_cell_formula_units_Z 60
_cell_length_a 29.294570
_cell_length_b 9.158000
_cell_length_c 23.847967
_cell_angle_alpha 90.000000
_cell_angle_beta 150.064029
_cell_angle_gamma 90.000000
_cell_volume 3192.768488
_symmetry_space_group_name_H-M "C 2/C"
_symmetry_group_IT_number 15
_symmetry_cell_setting 'monoclinic'
loop_
_space_group_symop_operation_xyz
x,y,z
-x,y,1/2-z
-x,-y,-z
x,-y,1/2+z
1/2+x,1/2+y,z
1/2-x,1/2+y,1/2-z
1/2-x,1/2-y,-z
1/2+x,1/2-y,1/2+z
loop_
_atom_site_type_symbol
_atom_site_label
_atom_site_fract_x
_atom_site_fract_y
_atom_site_fract_z
Si Si1 0.291596 0.415471 0.550461
Si Si2 0.575024 0.071122 0.007134
Si Si3 0.404454 0.888908 0.842467
Si Si4 0.254131 0.941176 0.118142
Si Si5 0.733102 0.600716 0.349233
Si Si6 0.064990 0.044871 0.621302
Si Si7 0.000000 0.148139 0.250000
Si Si8 0.047048 0.140414 0.421025
O O1 0.250000 0.250000 0.500000
O O2 0.245576 0.486689 0.446966
O O3 0.273540 0.463509 0.594758
O O4 0.400975 0.424215 0.656387
O O5 0.599550 0.051979 0.098190
O O6 0.665502 0.070001 0.065643
O O7 0.538059 0.234705 0.957855
O O8 0.493945 0.958799 0.908429
O O9 0.415832 0.716045 0.857476
O O10 0.314320 0.945804 0.716096
O O11 0.288057 0.773842 0.164610
O O12 0.148843 0.923482 0.024887
O O13 0.661907 0.537441 0.228604
O O14 0.000000 0.000000 0.500000
O O15 0.016478 0.990826 0.626878
O O16 0.979435 0.214971 0.166675
#
# Coordination Sequence:
#
# PCOD9259314 Si02
#       8
#     8   8   8   8   8   8   4   8
#     4   9  18  35  59  94 114 153 201 251 302 354
#     4  10  23  40  59  88 119 158 201 252 305 352
#     4  11  24  39  58  86 126 161 199 253 303 353
#     4   9  21  38  64  89 116 153 201 255 303 352
#     4  10  21  39  63  87 122 152 206 250 298 361
#     4  12  24  38  60  89 120 162 206 242 299 374
#     4  10  18  34  68  88 120 150 200 260 294 352
#     4  10  20  40  64  92 114 158 204 245 302 364
#
# _framework density 18.792466999999998
#
# number of rings (size 3 to 8) (size 9 to 14) (size 15 to 20)
#    0.000    1.867    2.667    1.600    5.600    1.067 
#    0.000    0.667    2.933    0.000    0.000    0.000 
#    0.000    0.000    0.000    0.000    0.000    0.000 
#
# Total GULP energy -167005.009010 kJ/mol
# GULP energy per Si atom -5566.833634 kJ/mol
# Density = 1.874969 g / cm^3
# Si number density = 18.792467 Si / 1000 Ang^3
#
#
#
# Elastic Constant Matrix: (Units=GPa)
#
#
# Indices 1 2 3 4 5 6 
#
# 1 67.8204 12.0668 22.4062 0.0000 -1.7001 0.0000
# 2 12.0668 57.7271 37.9419 0.0000 7.9661 0.0000
# 3 22.4062 37.9419 119.2062 0.0000 -7.8094 0.0000
# 4 0.0000 0.0000 0.0000 27.7040 0.0000 4.7752
# 5 -1.7001 7.9661 -7.8094 0.0000 28.3195 0.0000
# 6 0.0000 0.0000 0.0000 4.7752 0.0000 11.1964
#
#
#
# Elastic Compliance Matrix: (Units=1/GPa)
#
#
# Indices 1 2 3 4 5 6 
#
# 1 0.015872 -0.001911 -0.002320 0.000000 0.000851 0.000000
# 2 -0.001911 0.024198 -0.007940 0.000000 -0.009111 0.000000
# 3 -0.002320 -0.007940 0.011700 0.000000 0.005321 0.000000
# 4 0.000000 0.000000 0.000000 0.038960 0.000000 -0.016616
# 5 0.000851 -0.009111 0.005321 0.000000 0.039393 0.000000
# 6 0.000000 0.000000 0.000000 -0.016616 0.000000 0.096401
#
#
# Mechanical properties :
#
#
# Convention : Reuss Voigt Hill
#
# Bulk Modulus (GPa) = 36.45494 43.28705 39.87100
# Shear Modulus (GPa) = 19.23019 24.93324 22.08172
#
# Velocity S-wave (km/s) = 3.20236 3.64643 3.43159
# Velocity P-wave (km/s) = 5.75451 6.38850 6.07977
#
# Compressibility (1/GPa) = 0.02743112
#
# Stress axis : x y z
#
# Youngs Moduli (GPa) = 63.00240 41.32574 85.46665
#
# Poissons Ratio (x) = 0.07896 0.19824
# Poissons Ratio (y) = 0.12038 0.67858
# Poissons Ratio (z) = 0.14614 0.32811
#
# Static dielectric constant tensor:
#      x y z
#    x 1.684760 0.000000 0.007090 
#    y 0.000000 1.646920 0.000000 
#    z 0.007090 0.000000 1.697060 
# 
# From -- ./inp_files/284338.got.cif
#   From: 2010.05.17/outbox.cif.g08.bks.cpg/sg15_143_cif.got.tgz:284338.got - 2010.06.03 18:47:42.
