data_PCOD9259579
_publ_section_title
;
Structure prediction by ZEFSAII (Michael W. Deem and Ramdas Pophale) SiO2 
 PCOD9259579
Probable space group: C 2/C
;
_chemical_formula_sum "Si O2"
_cell_formula_units_Z 52
_cell_length_a 13.031792
_cell_length_b 8.729045
_cell_length_c 18.817056
_cell_angle_alpha 90.000000
_cell_angle_beta 70.390560
_cell_angle_gamma 90.000000
_cell_volume 2016.389620
_symmetry_space_group_name_H-M "C 2/C"
_symmetry_group_IT_number 15
_symmetry_cell_setting 'monoclinic'
loop_
_space_group_symop_operation_xyz
x,y,z
-x,y,1/2-z
-x,-y,-z
x,-y,1/2+z
1/2+x,1/2+y,z
1/2-x,1/2+y,1/2-z
1/2-x,1/2-y,-z
1/2+x,1/2-y,1/2+z
loop_
_atom_site_type_symbol
_atom_site_label
_atom_site_fract_x
_atom_site_fract_y
_atom_site_fract_z
Si Si1 0.000000 0.691493 0.750000
Si Si2 0.074936 0.196965 0.003929
Si Si3 0.500000 0.000000 0.000000
Si Si4 0.709755 0.191700 0.205912
Si Si5 0.066740 0.943054 0.849415
Si Si6 0.000000 0.807707 0.250000
Si Si7 0.291618 0.025719 0.148225
Si Si8 0.189787 0.309452 0.109870
O O1 0.042208 0.797167 0.804323
O O2 0.111083 0.623106 0.689494
O O3 0.122781 0.322252 0.051657
O O4 0.994771 0.310082 0.981882
O O5 0.011910 0.071487 0.064790
O O6 0.184436 0.150081 0.937167
O O7 0.394153 0.987639 0.076597
O O8 0.808168 0.085202 0.159165
O O9 0.593818 0.202765 0.195631
O O10 0.684515 0.138034 0.291761
O O11 0.749191 0.366685 0.188623
O O12 0.043336 0.084887 0.803574
O O13 0.202650 0.126664 0.125546
#
# Coordination Sequence:
#
# PCOD9259579 Si02
#       8
#     4   8   4   8   8   4   8   8
#     4   9  14  28  51  86 117 150 219 256 315 384
#     4   9  17  29  52  84 125 165 221 256 338 394
#     4  10  20  34  56  94 130 174 216 288 328 412
#     4  12  21  40  65 101 130 181 225 288 344 419
#     4  10  18  35  60  90 126 181 215 276 337 414
#     4  11  24  40  67  98 143 174 229 288 357 400
#     4  11  22  38  65  94 132 172 228 279 346 404
#     4   9  17  30  51  88 122 165 211 276 319 410
#
# _framework density 25.788667
#
# number of rings (size 3 to 8) (size 9 to 14) (size 15 to 20)
#    0.000    1.846    4.615    1.846    0.000    0.000 
#    0.000    3.077    0.000    9.231    0.000    0.000 
#    0.000    0.000    0.000    0.000    0.000    0.000 
#
# Total GULP energy -144764.109351 kJ/mol
# GULP energy per Si atom -5567.850360 kJ/mol
# Density = 2.572997 g / cm^3
# Si number density = 25.788667 Si / 1000 Ang^3
#
#
#
# Elastic Constant Matrix: (Units=GPa)
#
#
# Indices 1 2 3 4 5 6 
#
# 1 86.3622 42.5793 60.3649 0.0000 -52.7899 0.0000
# 2 42.5793 99.2381 60.1340 0.0000 -20.6355 0.0000
# 3 60.3649 60.1340 216.6167 0.0000 -67.2715 0.0000
# 4 0.0000 0.0000 0.0000 39.1236 0.0000 -0.9487
# 5 -52.7899 -20.6355 -67.2715 0.0000 59.1427 0.0000
# 6 0.0000 0.0000 0.0000 -0.9487 0.0000 11.7008
#
#
#
# Elastic Compliance Matrix: (Units=1/GPa)
#
#
# Indices 1 2 3 4 5 6 
#
# 1 0.031046 -0.009067 0.002302 0.000000 0.027166 0.000000
# 2 -0.009067 0.014777 -0.003846 0.000000 -0.007312 0.000000
# 3 0.002302 -0.003846 0.008139 0.000000 0.009970 0.000000
# 4 0.000000 0.000000 0.000000 0.025610 0.000000 0.002077
# 5 0.027166 -0.007312 0.009970 0.000000 0.049946 0.000000
# 6 0.000000 0.000000 0.000000 0.002077 0.000000 0.085632
#
#
# Mechanical properties :
#
#
# Convention : Reuss Voigt Hill
#
# Bulk Modulus (GPa) = 30.54375 80.93037 55.73706
# Shear Modulus (GPa) = 20.21954 37.93602 29.07778
#
# Velocity S-wave (km/s) = 2.80312 3.83957 3.36153
# Velocity P-wave (km/s) = 4.72718 7.14889 6.06023
#
# Compressibility (1/GPa) = 0.03273993
#
# Stress axis : x y z
#
# Youngs Moduli (GPa) = 32.21062 67.67180 122.86362
#
# Poissons Ratio (x) = 0.61355 -0.28281
# Poissons Ratio (y) = 0.29204 0.47258
# Poissons Ratio (z) = -0.07414 0.26029
#
# Static dielectric constant tensor:
#      x y z
#    x 2.382860 0.000000 0.030970 
#    y 0.000000 2.211810 0.000000 
#    z 0.030970 0.000000 2.035940 
# 
# From -- ./inp_files/272615.got.cif
#   From: 2010.05.17/outbox.cif.g08.bks.cpg/sg15_137_cif.got.tgz:272615.got - 2010.06.03 18:47:42.
