data_PCOD9259171
_publ_section_title
;
Structure prediction by ZEFSAII (Michael W. Deem and Ramdas Pophale) SiO2 
 PCOD9259171
Probable space group: C 2/C
;
_chemical_formula_sum "Si O2"
_cell_formula_units_Z 64
_cell_length_a 24.897152
_cell_length_b 13.823967
_cell_length_c 16.896930
_cell_angle_alpha 90.000000
_cell_angle_beta 27.743853
_cell_angle_gamma 90.000000
_cell_volume 2707.248417
_symmetry_space_group_name_H-M "C 2/C"
_symmetry_group_IT_number 15
_symmetry_cell_setting 'monoclinic'
loop_
_space_group_symop_operation_xyz
x,y,z
-x,y,1/2-z
-x,-y,-z
x,-y,1/2+z
1/2+x,1/2+y,z
1/2-x,1/2+y,1/2-z
1/2-x,1/2-y,-z
1/2+x,1/2-y,1/2+z
loop_
_atom_site_type_symbol
_atom_site_label
_atom_site_fract_x
_atom_site_fract_y
_atom_site_fract_z
Si Si1 0.820307 0.828226 0.186853
Si Si2 0.294464 0.793782 0.569874
Si Si3 0.788113 0.963376 0.639424
Si Si4 0.908708 0.452360 0.499790
Si Si5 0.363192 0.831828 0.318618
Si Si6 0.885781 0.358918 0.933754
Si Si7 0.782548 0.023063 0.962714
Si Si8 0.487141 0.583576 0.581278
O O1 0.837123 0.754689 0.094281
O O2 0.706874 0.808535 0.387900
O O3 0.922990 0.832834 0.116390
O O4 0.808452 0.930971 0.154687
O O5 0.309062 0.906105 0.572659
O O6 0.371813 0.777345 0.391098
O O7 0.176726 0.742250 0.696840
O O8 0.653631 0.949508 0.835043
O O9 0.886029 0.896685 0.551231
O O10 0.803067 0.951849 0.527186
O O11 0.933019 0.554986 0.428798
O O12 0.022999 0.390183 0.348375
O O13 0.265159 0.913043 0.465158
O O14 0.811182 0.409589 0.960647
O O15 0.000000 0.307820 0.750000
O O16 0.900464 0.040752 0.760547
O O17 0.500000 0.500000 0.500000
#
# Coordination Sequence:
#
# PCOD9259171 Si02
#       8
#     8   8   8   8   8   8   8   8
#     4   9  20  35  56  85 118 159 205 251 310 368
#     4  11  22  39  54  86 129 160 203 243 312 380
#     4  10  21  37  59  87 119 159 208 258 303 370
#     4  11  22  39  58  86 127 163 200 246 316 370
#     4  11  23  37  58  93 126 165 200 250 319 377
#     4  10  18  34  61  84 116 157 205 256 301 363
#     4  11  19  36  60  89 118 151 206 259 307 364
#     4   9  20  37  57  86 115 159 208 252 310 360
#
# _framework density 23.640239000000001
#
# number of rings (size 3 to 8) (size 9 to 14) (size 15 to 20)
#    0.000    1.750    3.750    1.500    0.000    2.500 
#   11.250    0.000    0.000    4.500    0.000    0.000 
#    0.000    0.000    0.000    0.000    0.000    0.000 
#
# Total GULP energy -178639.557333 kJ/mol
# GULP energy per Si atom -5582.486167 kJ/mol
# Density = 2.358643 g / cm^3
# Si number density = 23.640239 Si / 1000 Ang^3
#
#
#
# Elastic Constant Matrix: (Units=GPa)
#
#
# Indices 1 2 3 4 5 6 
#
# 1 81.0264 9.9888 40.9685 0.0000 25.5826 0.0000
# 2 9.9888 26.2324 1.7068 0.0000 -2.9719 0.0000
# 3 40.9685 1.7068 123.0826 0.0000 7.7564 0.0000
# 4 0.0000 0.0000 0.0000 23.5428 0.0000 1.4654
# 5 25.5826 -2.9719 7.7564 0.0000 39.4916 0.0000
# 6 0.0000 0.0000 0.0000 1.4654 0.0000 20.0443
#
#
#
# Elastic Compliance Matrix: (Units=1/GPa)
#
#
# Indices 1 2 3 4 5 6 
#
# 1 0.020424 -0.008838 -0.005873 0.000000 -0.012742 0.000000
# 2 -0.008838 0.042337 0.001816 0.000000 0.008555 0.000000
# 3 -0.005873 0.001816 0.009929 0.000000 0.001991 0.000000
# 4 0.000000 0.000000 0.000000 0.042670 0.000000 -0.003119
# 5 -0.012742 0.008555 0.001991 0.000000 0.033829 0.000000
# 6 0.000000 0.000000 0.000000 -0.003119 0.000000 0.050118
#
#
# Mechanical properties :
#
#
# Convention : Reuss Voigt Hill
#
# Bulk Modulus (GPa) = 21.32235 37.29661 29.30948
# Shear Modulus (GPa) = 20.77022 28.46090 24.61556
#
# Velocity S-wave (km/s) = 2.96733 3.47352 3.23035
# Velocity P-wave (km/s) = 4.55841 5.64784 5.13212
#
# Compressibility (1/GPa) = 0.04689915
#
# Stress axis : x y z
#
# Youngs Moduli (GPa) = 48.96310 23.61987 100.71825
#
# Poissons Ratio (x) = 0.20876 0.59147
# Poissons Ratio (y) = 0.43275 -0.18287
# Poissons Ratio (z) = 0.28754 -0.04289
#
# Static dielectric constant tensor:
#      x y z
#    x 1.926530 0.000000 0.003460 
#    y 0.000000 2.007570 0.000000 
#    z 0.003460 0.000000 1.901250 
# 
# From -- ./inp_files/174222.got.cif
#   From: 2010.05.17/outbox.cif.g08.bks.cpg/sg15_88_cif.got.tgz:174222.got - 2010.06.03 18:47:42.
