data_PCOD9259714
_publ_section_title
;
Structure prediction by ZEFSAII (Michael W. Deem and Ramdas Pophale) SiO2 
 PCOD9259714
Probable space group: C 2/C
;
_chemical_formula_sum "Si O2"
_cell_formula_units_Z 60
_cell_length_a 28.808248
_cell_length_b 15.592655
_cell_length_c 20.776159
_cell_angle_alpha 90.000000
_cell_angle_beta 160.254590
_cell_angle_gamma 90.000000
_cell_volume 3152.934443
_symmetry_space_group_name_H-M "C 2/C"
_symmetry_group_IT_number 15
_symmetry_cell_setting 'monoclinic'
loop_
_space_group_symop_operation_xyz
x,y,z
-x,y,1/2-z
-x,-y,-z
x,-y,1/2+z
1/2+x,1/2+y,z
1/2-x,1/2+y,1/2-z
1/2-x,1/2-y,-z
1/2+x,1/2-y,1/2+z
loop_
_atom_site_type_symbol
_atom_site_label
_atom_site_fract_x
_atom_site_fract_y
_atom_site_fract_z
Si Si1 0.710775 0.176518 0.708001
Si Si2 0.557600 0.078489 0.116576
Si Si3 0.251486 0.989045 0.333972
Si Si4 0.809907 0.528382 0.607774
Si Si5 0.112286 0.126142 0.446742
Si Si6 0.942682 0.979888 0.301762
Si Si7 0.801029 0.128643 0.344870
Si Si8 0.000000 0.538941 0.750000
O O1 0.558848 0.150042 0.533438
O O2 0.751499 0.098446 0.712442
O O3 0.707583 0.270472 0.675226
O O4 0.813843 0.181928 0.903064
O O5 0.590346 0.038659 0.228136
O O6 0.699537 0.105820 0.270271
O O7 0.500000 0.000000 0.000000
O O8 0.120307 0.997751 0.210075
O O9 0.248141 0.069298 0.279863
O O10 0.384463 0.991702 0.554928
O O11 0.732989 0.584790 0.560851
O O12 0.690280 0.475007 0.416761
O O13 0.899593 0.581341 0.672545
O O14 0.000000 0.162905 0.250000
O O15 0.033087 0.054136 0.385724
O O16 0.043947 0.900096 0.438146
#
# Coordination Sequence:
#
# PCOD9259714 Si02
#       8
#     8   8   8   8   8   8   8   4
#     4  12  25  39  65  94 126 165 208 257 312 377
#     4  12  20  41  67  89 125 169 213 258 310 376
#     4  11  22  41  61  87 129 162 205 258 314 367
#     4  10  18  35  65  90 118 166 211 256 316 369
#     4  10  20  39  65  90 122 165 208 255 312 372
#     4  10  21  37  64  87 121 168 207 254 316 369
#     4  12  25  39  63  95 124 165 212 259 309 379
#     4  10  20  36  64  92 120 164 202 262 318 366
#
# _framework density 19.029890999999999
#
# number of rings (size 3 to 8) (size 9 to 14) (size 15 to 20)
#    0.000    1.067    6.667    0.400    1.867    0.000 
#    1.200    2.000    0.000    3.200    0.000    0.000 
#    0.000    0.000    0.000    0.000    0.000    0.000 
#
# Total GULP energy -167162.689503 kJ/mol
# GULP energy per Si atom -5572.089650 kJ/mol
# Density = 1.898658 g / cm^3
# Si number density = 19.029891 Si / 1000 Ang^3
#
#
#
# Elastic Constant Matrix: (Units=GPa)
#
#
# Indices 1 2 3 4 5 6 
#
# 1 94.9291 -1.2642 10.5621 0.0000 34.1063 0.0000
# 2 -1.2642 37.3831 -11.4143 0.0000 5.4723 0.0000
# 3 10.5621 -11.4143 69.0015 0.0000 2.9753 0.0000
# 4 0.0000 0.0000 0.0000 11.7947 0.0000 -0.1067
# 5 34.1063 5.4723 2.9753 0.0000 51.0042 0.0000
# 6 0.0000 0.0000 0.0000 -0.1067 0.0000 6.5510
#
#
#
# Elastic Compliance Matrix: (Units=1/GPa)
#
#
# Indices 1 2 3 4 5 6 
#
# 1 0.014142 0.001407 -0.001522 0.000000 -0.009519 0.000000
# 2 0.001407 0.028879 0.004748 0.000000 -0.004316 0.000000
# 3 -0.001522 0.004748 0.015528 0.000000 -0.000398 0.000000
# 4 0.000000 0.000000 0.000000 0.084796 0.000000 0.001381
# 5 -0.009519 -0.004316 -0.000398 0.000000 0.026458 0.000000
# 6 0.000000 0.000000 0.000000 0.001381 0.000000 0.152672
#
#
# Mechanical properties :
#
#
# Convention : Reuss Voigt Hill
#
# Bulk Modulus (GPa) = 14.74567 21.89787 18.32177
# Shear Modulus (GPa) = 14.88919 27.43197 21.16058
#
# Velocity S-wave (km/s) = 2.80020 3.80085 3.33823
# Velocity P-wave (km/s) = 4.26852 5.54924 4.95047
#
# Compressibility (1/GPa) = 0.06781653
#
# Stress axis : x y z
#
# Youngs Moduli (GPa) = 70.71007 34.62694 64.40015
#
# Poissons Ratio (x) = -0.04872 0.09799
# Poissons Ratio (y) = -0.09950 -0.30577
# Poissons Ratio (z) = 0.10759 -0.16441
#
# Static dielectric constant tensor:
#      x y z
#    x 1.704090 0.000000 -0.003930 
#    y 0.000000 1.609140 0.000000 
#    z -0.003930 0.000000 1.688130 
# 
# From -- ./inp_files/257881.got.cif
#   From: 2010.05.17/outbox.cif.g08.bks.cpg/sg15_129_cif.got.tgz:257881.got - 2010.06.03 18:47:42.
