data_PCOD9259819
_publ_section_title
;
Structure prediction by ZEFSAII (Michael W. Deem and Ramdas Pophale) SiO2 
 PCOD9259819
Probable space group: C 2/C
;
_chemical_formula_sum "Si O2"
_cell_formula_units_Z 44
_cell_length_a 5.055526
_cell_length_b 23.740036
_cell_length_c 15.301595
_cell_angle_alpha 90.000000
_cell_angle_beta 106.464006
_cell_angle_gamma 90.000000
_cell_volume 1761.173375
_symmetry_space_group_name_H-M "C 2/C"
_symmetry_group_IT_number 15
_symmetry_cell_setting 'monoclinic'
loop_
_space_group_symop_operation_xyz
x,y,z
-x,y,1/2-z
-x,-y,-z
x,-y,1/2+z
1/2+x,1/2+y,z
1/2-x,1/2+y,1/2-z
1/2-x,1/2-y,-z
1/2+x,1/2-y,1/2+z
loop_
_atom_site_type_symbol
_atom_site_label
_atom_site_fract_x
_atom_site_fract_y
_atom_site_fract_z
Si Si1 0.672504 0.827547 0.931485
Si Si2 0.807252 0.041691 0.040282
Si Si3 0.838063 0.870783 0.408860
Si Si4 0.561395 0.219781 0.602046
Si Si5 0.402257 0.938919 0.648424
Si Si6 0.000000 0.856369 0.250000
O O1 0.840010 0.783869 0.886976
O O2 0.508010 0.873837 0.862429
O O3 0.522484 0.792474 0.993964
O O4 0.879585 0.862772 0.012751
O O5 0.561007 0.027964 0.084846
O O6 0.068877 0.063995 0.121416
O O7 0.684194 0.087839 0.960617
O O8 0.000000 0.000000 0.000000
O O9 0.711988 0.808432 0.385383
O O10 0.865541 0.893382 0.313904
O O11 0.787683 0.182712 0.676081
O O12 0.500000 0.960376 0.750000
#
# Coordination Sequence:
#
# PCOD9259819 Si02
#       6
#     8   8   8   8   8   4
#     4   9  20  34  61  87 126 175 214 266 341 406
#     4  11  24  46  72  95 132 182 225 285 363 416
#     4  10  20  39  59  85 129 170 227 278 343 403
#     4  10  18  36  56  88 127 173 222 264 332 411
#     4  11  23  44  68 105 137 170 228 292 344 412
#     4  10  22  34  54  90 124 168 224 278 324 402
#
# _framework density 24.983343999999999
#
# number of rings (size 3 to 8) (size 9 to 14) (size 15 to 20)
#    0.000    1.818    1.818    2.182    1.273    0.000 
#    3.273    3.636    0.000    0.000    0.000    0.000 
#    0.000    0.000    0.000    0.000    0.000    0.000 
#
# Total GULP energy -122545.763618 kJ/mol
# GULP energy per Si atom -5570.261983 kJ/mol
# Density = 2.492648 g / cm^3
# Si number density = 24.983344 Si / 1000 Ang^3
#
#
#
# Elastic Constant Matrix: (Units=GPa)
#
#
# Indices 1 2 3 4 5 6 
#
# 1 111.2233 2.3482 23.4177 0.0000 -14.0052 0.0000
# 2 2.3482 52.9903 1.1855 0.0000 -5.1603 0.0000
# 3 23.4177 1.1855 112.1332 0.0000 -22.5771 0.0000
# 4 0.0000 0.0000 0.0000 3.4083 0.0000 -9.7622
# 5 -14.0052 -5.1603 -22.5771 0.0000 34.8612 0.0000
# 6 0.0000 0.0000 0.0000 -9.7622 0.0000 31.2615
#
#
#
# Elastic Compliance Matrix: (Units=1/GPa)
#
#
# Indices 1 2 3 4 5 6 
#
# 1 0.009664 -0.000110 -0.001424 0.000000 0.002944 0.000000
# 2 -0.000110 0.019166 0.000440 0.000000 0.003078 0.000000
# 3 -0.001424 0.000440 0.010474 0.000000 0.006276 0.000000
# 4 0.000000 0.000000 0.000000 2.779020 0.000000 0.867816
# 5 0.002944 0.003078 0.006276 0.000000 0.034388 0.000000
# 6 0.000000 0.000000 0.000000 0.867816 0.000000 0.302984
#
#
# Mechanical properties :
#
#
# Convention : Reuss Voigt Hill
#
# Bulk Modulus (GPa) = 26.94234 36.69441 31.81837
# Shear Modulus (GPa) = 1.57716 30.53256 16.05486
#
# Velocity S-wave (km/s) = 0.79540 3.49967 2.53775
# Velocity P-wave (km/s) = 3.41337 5.57223 4.62065
#
# Compressibility (1/GPa) = 0.03711631
#
# Stress axis : x y z
#
# Youngs Moduli (GPa) = 103.47899 52.17537 95.47014
#
# Poissons Ratio (x) = 0.00572 0.13598
# Poissons Ratio (y) = 0.01135 -0.04201
# Poissons Ratio (z) = 0.14739 -0.02296
#
# Static dielectric constant tensor:
#      x y z
#    x 2.125140 0.000000 -0.067890 
#    y 0.000000 2.137550 0.000000 
#    z -0.067890 0.000000 2.016630 
# 
# From -- ./inp_files/129846.got.cif
#   From: 2010.05.17/outbox.cif.g08.bks.cpg/sg15_65_cif.got.tgz:129846.got - 2010.06.03 18:47:42.
