data_PCOD9259608
_publ_section_title
;
Structure prediction by ZEFSAII (Michael W. Deem and Ramdas Pophale) SiO2 
 PCOD9259608
Probable space group: C 2/C
;
_chemical_formula_sum "Si O2"
_cell_formula_units_Z 60
_cell_length_a 15.065427
_cell_length_b 13.826989
_cell_length_c 27.671387
_cell_angle_alpha 90.000000
_cell_angle_beta 149.833096
_cell_angle_gamma 90.000000
_cell_volume 2896.635740
_symmetry_space_group_name_H-M "C 2/C"
_symmetry_group_IT_number 15
_symmetry_cell_setting 'monoclinic'
loop_
_space_group_symop_operation_xyz
x,y,z
-x,y,1/2-z
-x,-y,-z
x,-y,1/2+z
1/2+x,1/2+y,z
1/2-x,1/2+y,1/2-z
1/2-x,1/2-y,-z
1/2+x,1/2-y,1/2+z
loop_
_atom_site_type_symbol
_atom_site_label
_atom_site_fract_x
_atom_site_fract_y
_atom_site_fract_z
Si Si1 0.047221 0.019006 0.327327
Si Si2 0.246996 0.401413 0.292333
Si Si3 0.240159 0.395039 0.751139
Si Si4 0.878642 0.698817 0.860907
Si Si5 0.000000 0.303496 0.250000
Si Si6 0.334525 0.312759 0.144322
Si Si7 0.990746 0.725331 0.426790
Si Si8 0.283208 0.181056 0.428648
O O1 0.231972 0.073766 0.421241
O O2 0.000000 0.041129 0.250000
O O3 0.892574 0.064644 0.286572
O O4 0.078802 0.904238 0.342409
O O5 0.240424 0.516557 0.288575
O O6 0.151296 0.373169 0.197218
O O7 0.419964 0.331200 0.376344
O O8 0.139441 0.366591 0.287670
O O9 0.296438 0.299325 0.805722
O O10 0.068211 0.356427 0.640238
O O11 0.787152 0.658270 0.866667
O O12 0.080375 0.720061 0.968517
O O13 0.898789 0.238615 0.163023
O O14 0.500000 0.261135 0.250000
O O15 0.193781 0.268140 0.040382
O O16 0.876548 0.692682 0.420339
#
# Coordination Sequence:
#
# PCOD9259608 Si02
#       8
#     8   8   8   8   4   8   8   8
#     4  11  19  33  60  92 119 149 197 251 308 369
#     4  10  21  39  61  84 121 163 200 250 300 364
#     4  11  22  40  59  91 124 161 202 253 306 366
#     4  10  23  38  61  89 126 153 203 257 307 360
#     4  10  20  38  58  84 118 158 202 246 304 368
#     4  10  22  39  60  93 122 161 204 248 306 377
#     4   9  20  38  62  88 122 161 193 249 316 356
#     4  10  18  35  61  89 118 152 193 254 314 357
#
# _framework density 20.713685000000002
#
# number of rings (size 3 to 8) (size 9 to 14) (size 15 to 20)
#    0.000    1.867    2.000    3.200    1.867    3.200 
#    1.200   12.000    0.000    0.000    0.000    0.000 
#    0.000    0.000    0.000    0.000    0.000    0.000 
#
# Total GULP energy -167095.106214 kJ/mol
# GULP energy per Si atom -5569.836874 kJ/mol
# Density = 2.066654 g / cm^3
# Si number density = 20.713685 Si / 1000 Ang^3
#
#
#
# Elastic Constant Matrix: (Units=GPa)
#
#
# Indices 1 2 3 4 5 6 
#
# 1 36.4911 -2.1528 1.9067 0.0000 -0.8896 0.0000
# 2 -2.1528 56.6131 25.9428 0.0000 4.4341 0.0000
# 3 1.9067 25.9428 138.9980 0.0003 -3.3190 0.0001
# 4 0.0000 0.0000 0.0003 12.6769 0.0000 -3.0394
# 5 -0.8896 4.4341 -3.3190 0.0000 20.0280 0.0000
# 6 0.0000 0.0000 0.0001 -3.0394 0.0000 20.9789
#
#
#
# Elastic Compliance Matrix: (Units=1/GPa)
#
#
# Indices 1 2 3 4 5 6 
#
# 1 0.027529 0.001251 -0.000591 0.000000 0.000848 0.000000
# 2 0.001251 0.019862 -0.003843 0.000000 -0.004979 0.000000
# 3 -0.000591 -0.003843 0.007971 0.000000 0.002146 0.000000
# 4 0.000000 0.000000 0.000000 0.081722 0.000000 0.011840
# 5 0.000848 -0.004979 0.002146 0.000000 0.051426 0.000000
# 6 0.000000 0.000000 0.000000 0.011840 0.000000 0.049382
#
#
# Mechanical properties :
#
#
# Convention : Reuss Voigt Hill
#
# Bulk Modulus (GPa) = 20.40946 31.49951 25.95448
# Shear Modulus (GPa) = 19.18717 24.49713 21.84215
#
# Velocity S-wave (km/s) = 3.04683 3.44271 3.25080
# Velocity P-wave (km/s) = 4.71721 5.57163 5.16213
#
# Compressibility (1/GPa) = 0.04899690
#
# Stress axis : x y z
#
# Youngs Moduli (GPa) = 36.32498 50.34631 125.45506
#
# Poissons Ratio (x) = -0.06299 0.07413
# Poissons Ratio (y) = -0.04545 0.48215
# Poissons Ratio (z) = 0.02146 0.19349
#
# Static dielectric constant tensor:
#      x y z
#    x 1.779910 0.000000 0.055570 
#    y 0.000000 1.777550 0.000000 
#    z 0.055570 0.000000 1.811670 
# 
# From -- ./inp_files/154241.got.cif
#   From: 2010.05.17/outbox.cif.g08.bks.cpg/sg15_78_cif.got.tgz:154241.got - 2010.06.03 18:47:42.
