data_PCOD9259561
_publ_section_title
;
Structure prediction by ZEFSAII (Michael W. Deem and Ramdas Pophale) SiO2 
 PCOD9259561
Probable space group: C 2/C
;
_chemical_formula_sum "Si O2"
_cell_formula_units_Z 48
_cell_length_a 7.157371
_cell_length_b 19.662273
_cell_length_c 17.733027
_cell_angle_alpha 90.000000
_cell_angle_beta 51.679804
_cell_angle_gamma 90.000000
_cell_volume 1957.920722
_symmetry_space_group_name_H-M "C 2/C"
_symmetry_group_IT_number 15
_symmetry_cell_setting 'monoclinic'
loop_
_space_group_symop_operation_xyz
x,y,z
-x,y,1/2-z
-x,-y,-z
x,-y,1/2+z
1/2+x,1/2+y,z
1/2-x,1/2+y,1/2-z
1/2-x,1/2-y,-z
1/2+x,1/2-y,1/2+z
loop_
_atom_site_type_symbol
_atom_site_label
_atom_site_fract_x
_atom_site_fract_y
_atom_site_fract_z
Si Si1 0.002881 0.449569 0.385133
Si Si2 0.824585 0.038291 0.955613
Si Si3 0.276168 0.673979 0.745835
Si Si4 0.591202 0.315839 0.018577
Si Si5 0.172295 0.034620 0.277828
Si Si6 0.207714 0.814908 0.822461
O O1 0.160938 0.451641 0.422194
O O2 0.087410 0.383724 0.318061
O O3 0.072110 0.514210 0.316667
O O4 0.747502 0.469849 0.481451
O O5 0.791907 0.109057 0.006292
O O6 0.085416 0.020974 0.859574
O O7 0.500000 0.666359 0.750000
O O8 0.390113 0.676398 0.633654
O O9 0.158285 0.747240 0.787984
O O10 0.563371 0.305691 0.936533
O O11 0.750000 0.250000 0.000000
O O12 0.142657 0.111751 0.307930
O O13 0.000000 0.023640 0.250000
O O14 0.500000 0.815876 0.750000
#
# Coordination Sequence:
#
# PCOD9259561 Si02
#       6
#     8   8   8   8   8   8
#     4  10  18  35  60  85 117 163 208 242 298 369
#     4  10  20  33  60  89 117 162 204 246 306 363
#     4  11  19  37  59  87 122 156 208 259 296 354
#     4  12  20  35  60  90 120 152 204 263 305 345
#     4  10  21  41  60  86 124 161 199 250 306 370
#     4  11  23  37  63  94 120 157 207 260 303 352
#
# _framework density 24.515802999999998
#
# number of rings (size 3 to 8) (size 9 to 14) (size 15 to 20)
#    0.000    1.333    6.667    1.500    0.000    0.667 
#    3.000    0.833    0.000    0.000    0.000    0.000 
#    0.000    0.000    0.000    0.000    0.000    0.000 
#
# Total GULP energy -133989.900600 kJ/mol
# GULP energy per Si atom -5582.912525 kJ/mol
# Density = 2.446000 g / cm^3
# Si number density = 24.515803 Si / 1000 Ang^3
#
#
#
# Elastic Constant Matrix: (Units=GPa)
#
#
# Indices 1 2 3 4 5 6 
#
# 1 47.9633 2.4142 20.7892 0.0000 9.0029 0.0000
# 2 2.4142 193.2885 60.9995 0.0000 -8.0280 0.0000
# 3 20.7892 60.9995 159.9596 0.0000 2.7434 0.0000
# 4 0.0000 0.0000 0.0000 56.2841 0.0000 5.5350
# 5 9.0029 -8.0280 2.7434 0.0000 26.9801 0.0000
# 6 0.0000 0.0000 0.0000 5.5350 0.0000 20.8388
#
#
#
# Elastic Compliance Matrix: (Units=1/GPa)
#
#
# Indices 1 2 3 4 5 6 
#
# 1 0.023560 0.000367 -0.003074 0.000000 -0.007440 0.000000
# 2 0.000367 0.005995 -0.002366 0.000000 0.001902 0.000000
# 3 -0.003074 -0.002366 0.007561 0.000000 -0.000447 0.000000
# 4 0.000000 0.000000 0.000000 0.018244 0.000000 -0.004846
# 5 -0.007440 0.001902 -0.000447 0.000000 0.040158 0.000000
# 6 0.000000 0.000000 0.000000 -0.004846 0.000000 0.049274
#
#
# Mechanical properties :
#
#
# Convention : Reuss Voigt Hill
#
# Bulk Modulus (GPa) = 37.08049 63.29079 50.18564
# Shear Modulus (GPa) = 30.50099 41.95450 36.22775
#
# Velocity S-wave (km/s) = 3.53106 4.14130 3.84830
# Velocity P-wave (km/s) = 5.63759 6.98137 6.34516
#
# Compressibility (1/GPa) = 0.02696836
#
# Stress axis : x y z
#
# Youngs Moduli (GPa) = 42.44516 166.81035 132.25398
#
# Poissons Ratio (x) = -0.06121 0.40659
# Poissons Ratio (y) = -0.01558 0.31297
# Poissons Ratio (z) = 0.13049 0.39474
#
# Static dielectric constant tensor:
#      x y z
#    x 2.043550 0.000000 0.068560 
#    y 0.000000 1.892370 0.000000 
#    z 0.068560 0.000000 2.003200 
# 
# From -- ./inp_files/144992.got.cif
#   From: 2010.05.17/outbox.cif.g08.bks.cpg/sg15_73_cif.got.tgz:144992.got - 2010.06.03 18:47:42.
