data_PCOD9259654
_publ_section_title
;
Structure prediction by ZEFSAII (Michael W. Deem and Ramdas Pophale) SiO2 
 PCOD9259654
Probable space group: C 2/C
;
_chemical_formula_sum "Si O2"
_cell_formula_units_Z 48
_cell_length_a 8.298486
_cell_length_b 20.836151
_cell_length_c 14.597916
_cell_angle_alpha 90.000000
_cell_angle_beta 90.000187
_cell_angle_gamma 90.000000
_cell_volume 2524.103866
_symmetry_space_group_name_H-M "C 2/C"
_symmetry_group_IT_number 15
_symmetry_cell_setting 'monoclinic'
loop_
_space_group_symop_operation_xyz
x,y,z
-x,y,1/2-z
-x,-y,-z
x,-y,1/2+z
1/2+x,1/2+y,z
1/2-x,1/2+y,1/2-z
1/2-x,1/2-y,-z
1/2+x,1/2-y,1/2+z
loop_
_atom_site_type_symbol
_atom_site_label
_atom_site_fract_x
_atom_site_fract_y
_atom_site_fract_z
Si Si1 0.196282 0.061748 0.058331
Si Si2 0.693534 0.686360 0.552207
Si Si3 0.806465 0.186359 0.552207
Si Si4 0.308452 0.858982 0.250000
Si Si5 0.695557 0.507650 0.250001
Si Si6 0.803717 0.938252 0.558328
O O1 0.249866 0.046503 0.160795
O O2 1.000000 0.064337 0.059252
O O3 0.252313 0.125791 0.008309
O O4 0.243727 1.000000 0.000003
O O5 0.750000 0.750000 0.500000
O O6 0.500000 0.685560 0.553757
O O7 0.750420 0.675797 0.656756
O O8 0.752313 0.625792 0.491692
O O9 0.750000 0.250000 0.500000
O O10 0.749580 0.175797 0.656756
O O11 0.500000 0.859397 0.250000
O O12 0.248877 0.933263 0.250000
O O13 0.500000 0.505620 0.250000
O O14 0.749869 0.546501 0.339208
#
# Coordination Sequence:
#
# PCOD9259654 Si02
#       6
#     8   8   8   8   8   8
#     4   9  17  32  59  90 116 154 202 244 295 363
#     4  11  23  41  63  90 125 162 204 254 307 368
#     4  11  23  41  63  90 125 162 204 254 307 368
#     4  12  24  39  60  89 121 161 205 249 312 372
#     4  10  18  35  62  89 117 155 205 253 300 360
#     4   9  17  32  59  90 116 154 202 244 295 363
#
# _framework density 19.016651
#
# number of rings (size 3 to 8) (size 9 to 14) (size 15 to 20)
#    0.000    1.667    3.333    2.500    0.000    1.333 
#    0.000    8.333    0.000    0.000    0.000    0.000 
#    0.000    0.000    0.000    0.000    0.000    0.000 
#
# Total GULP energy -133976.057205 kJ/mol
# GULP energy per Si atom -5582.335717 kJ/mol
# Density = 1.897337 g / cm^3
# Si number density = 19.016651 Si / 1000 Ang^3
#
#
#
# Elastic Constant Matrix: (Units=GPa)
#
#
# Indices 1 2 3 4 5 6 
#
# 1 50.3614 24.6767 34.9061 0.0000 -0.0002 0.0000
# 2 24.6767 180.8570 118.6258 0.0000 -0.0016 0.0000
# 3 34.9061 118.6258 240.4497 0.0000 -0.0035 0.0000
# 4 0.0000 0.0000 0.0000 32.5360 0.0000 -0.0006
# 5 -0.0002 -0.0016 -0.0035 0.0000 16.2462 0.0000
# 6 0.0000 0.0000 0.0000 -0.0006 0.0000 25.8833
#
#
#
# Elastic Compliance Matrix: (Units=1/GPa)
#
#
# Indices 1 2 3 4 5 6 
#
# 1 0.022302 -0.001359 -0.002567 0.000000 0.000000 0.000000
# 2 -0.001359 0.008257 -0.003876 0.000000 0.000000 0.000000
# 3 -0.002567 -0.003876 0.006444 0.000000 0.000001 0.000000
# 4 0.000000 0.000000 0.000000 0.030735 0.000000 0.000001
# 5 0.000000 0.000000 0.000001 0.000000 0.061553 0.000000
# 6 0.000000 0.000000 0.000000 0.000001 0.000000 0.038635
#
#
# Mechanical properties :
#
#
# Convention : Reuss Voigt Hill
#
# Bulk Modulus (GPa) = 46.73393 92.00947 69.37170
# Shear Modulus (GPa) = 26.22421 34.49708 30.36064
#
# Velocity S-wave (km/s) = 3.71754 4.26378 3.99999
# Velocity P-wave (km/s) = 6.56166 8.52810 7.60867
#
# Compressibility (1/GPa) = 0.02139773
#
# Stress axis : x y z
#
# Youngs Moduli (GPa) = 44.83964 121.10572 155.18462
#
# Poissons Ratio (x) = 0.16461 0.39835
# Poissons Ratio (y) = 0.06095 0.60156
# Poissons Ratio (z) = 0.11510 0.46945
#
# Static dielectric constant tensor:
#      x y z
#    x 1.662600 0.000000 0.000000 
#    y 0.000000 1.635000 0.000000 
#    z 0.000000 0.000000 1.630640 
# 
# From -- ./inp_files/134858.got.cif
#   From: 2010.05.17/outbox.cif.g08.bks.cpg/sg15_68_cif.got.tgz:134858.got - 2010.06.03 18:47:42.
