data_PCOD9259585
_publ_section_title
;
Structure prediction by ZEFSAII (Michael W. Deem and Ramdas Pophale) SiO2 
 PCOD9259585
Probable space group: C 2/C
;
_chemical_formula_sum "Si O2"
_cell_formula_units_Z 56
_cell_length_a 23.546786
_cell_length_b 9.273759
_cell_length_c 16.270302
_cell_angle_alpha 90.000000
_cell_angle_beta 40.997309
_cell_angle_gamma 90.000000
_cell_volume 2330.786574
_symmetry_space_group_name_H-M "C 2/C"
_symmetry_group_IT_number 15
_symmetry_cell_setting 'monoclinic'
loop_
_space_group_symop_operation_xyz
x,y,z
-x,y,1/2-z
-x,-y,-z
x,-y,1/2+z
1/2+x,1/2+y,z
1/2-x,1/2+y,1/2-z
1/2-x,1/2-y,-z
1/2+x,1/2-y,1/2+z
loop_
_atom_site_type_symbol
_atom_site_label
_atom_site_fract_x
_atom_site_fract_y
_atom_site_fract_z
Si Si1 0.484255 0.646627 0.594618
Si Si2 0.389538 0.575419 0.501385
Si Si3 0.623241 0.972122 0.078027
Si Si4 0.912672 0.639326 0.057587
Si Si5 0.500000 0.788026 0.750000
Si Si6 0.000000 0.231483 0.250000
Si Si7 0.747402 0.107578 0.186298
Si Si8 0.715841 0.562874 0.686424
O O1 0.556324 0.527613 0.498182
O O2 0.488058 0.775525 0.522620
O O3 0.511431 0.701699 0.654573
O O4 0.385254 0.594161 0.717291
O O5 0.359903 0.722294 0.577995
O O6 0.463657 0.629852 0.359793
O O7 0.306903 0.487062 0.561079
O O8 0.582862 0.836976 0.171510
O O9 0.584021 0.110610 0.164371
O O10 0.579100 0.955696 0.033340
O O11 0.724435 0.990185 0.949058
O O12 0.854915 0.574681 0.193807
O O13 0.757509 0.277351 0.157519
O O14 0.775130 0.043374 0.245215
#
# Coordination Sequence:
#
# PCOD9259585 Si02
#       8
#     8   8   8   8   4   4   8   8
#     4  11  22  36  59  96 123 165 214 262 318 378
#     4  11  19  36  62  91 129 163 213 255 316 385
#     4   9  20  42  62  84 128 173 210 266 320 376
#     4   9  20  37  62  91 122 162 213 269 311 369
#     4  11  23  38  58  88 127 175 214 252 327 377
#     4   9  21  38  64  88 127 179 204 256 323 385
#     4  10  18  35  60  94 124 159 206 268 322 362
#     4  10  21  37  63  93 130 165 211 267 316 379
#
# _framework density 24.026222000000001
#
# number of rings (size 3 to 8) (size 9 to 14) (size 15 to 20)
#    0.000    2.000    2.857    1.714    0.000    1.143 
#    0.000    3.571    6.286    0.000    0.000    0.000 
#    0.000    0.000    0.000    0.000    0.000    0.000 
#
# Total GULP energy -155940.231739 kJ/mol
# GULP energy per Si atom -5569.293991 kJ/mol
# Density = 2.397154 g / cm^3
# Si number density = 24.026222 Si / 1000 Ang^3
#
#
#
# Elastic Constant Matrix: (Units=GPa)
#
#
# Indices 1 2 3 4 5 6 
#
# 1 14.2012 13.7865 -4.9563 0.0001 3.1233 0.0000
# 2 13.7865 81.9940 23.7692 0.0000 -9.0233 0.0000
# 3 -4.9563 23.7692 133.0375 0.0000 -4.1963 0.0000
# 4 0.0001 0.0000 0.0000 29.1280 0.0001 2.8310
# 5 3.1233 -9.0233 -4.1963 0.0001 17.1407 -0.0001
# 6 0.0000 0.0000 0.0000 2.8310 -0.0001 17.1541
#
#
#
# Elastic Compliance Matrix: (Units=1/GPa)
#
#
# Indices 1 2 3 4 5 6 
#
# 1 0.100237 -0.021911 0.006761 0.000000 -0.028144 0.000000
# 2 -0.021911 0.018354 -0.003693 0.000000 0.012750 0.000000
# 3 0.006761 -0.003693 0.008393 0.000000 -0.001122 0.000000
# 4 0.000000 0.000000 0.000000 0.034891 0.000000 -0.005758
# 5 -0.028144 0.012750 -0.001122 0.000000 0.069907 0.000000
# 6 0.000000 0.000000 0.000000 -0.005758 0.000000 0.059245
#
#
# Mechanical properties :
#
#
# Convention : Reuss Voigt Hill
#
# Bulk Modulus (GPa) = 11.19846 32.71461 21.95653
# Shear Modulus (GPa) = 13.94781 25.79347 19.87064
#
# Velocity S-wave (km/s) = 2.41202 3.28007 2.87895
# Velocity P-wave (km/s) = 3.52536 5.29064 4.49550
#
# Compressibility (1/GPa) = 0.08929803
#
# Stress axis : x y z
#
# Youngs Moduli (GPa) = 9.97633 54.48413 119.14601
#
# Poissons Ratio (x) = 1.19381 -0.80559
# Poissons Ratio (y) = 0.21859 0.44005
# Poissons Ratio (z) = -0.06745 0.20123
#
# Static dielectric constant tensor:
#      x y z
#    x 1.961530 0.000000 0.036970 
#    y 0.000000 2.020330 0.000000 
#    z 0.036970 0.000000 1.996760 
# 
# From -- ./inp_files/222036.got.cif
#   From: 2010.05.17/outbox.cif.g08.bks.cpg/sg15_112_cif.got.tgz:222036.got - 2010.06.03 18:47:42.
