data_PCOD9259992
_publ_section_title
;
Structure prediction by ZEFSAII (Michael W. Deem and Ramdas Pophale) SiO2 
 PCOD9259992
Probable space group: C 2/C
;
_chemical_formula_sum "Si O2"
_cell_formula_units_Z 52
_cell_length_a 14.044920
_cell_length_b 11.280041
_cell_length_c 26.249240
_cell_angle_alpha 90.000000
_cell_angle_beta 39.210598
_cell_angle_gamma 90.000000
_cell_volume 2628.950283
_symmetry_space_group_name_H-M "C 2/C"
_symmetry_group_IT_number 15
_symmetry_cell_setting 'monoclinic'
loop_
_space_group_symop_operation_xyz
x,y,z
-x,y,1/2-z
-x,-y,-z
x,-y,1/2+z
1/2+x,1/2+y,z
1/2-x,1/2+y,1/2-z
1/2-x,1/2-y,-z
1/2+x,1/2-y,1/2+z
loop_
_atom_site_type_symbol
_atom_site_label
_atom_site_fract_x
_atom_site_fract_y
_atom_site_fract_z
Si Si1 0.000860 0.768278 0.610015
Si Si2 0.277658 0.272020 0.620687
Si Si3 0.000000 0.116885 0.750000
Si Si4 0.236591 0.390687 0.063978
Si Si5 0.896151 0.023055 0.687065
Si Si6 0.839793 0.143304 0.989106
Si Si7 0.672979 0.967404 0.195287
O O1 0.084419 0.677478 0.612181
O O2 0.129017 0.823451 0.519999
O O3 0.878137 0.713968 0.622933
O O4 0.929178 0.882833 0.666908
O O5 0.373975 0.305092 0.531086
O O6 0.215414 0.395623 0.668406
O O7 0.131608 0.194606 0.669731
O O8 0.920797 0.050064 0.736076
O O9 0.259510 0.395823 0.115050
O O10 0.238689 0.525923 0.042363
O O11 0.738943 0.056869 0.724097
O O12 0.021382 0.095226 0.601867
O O13 0.750000 0.250000 0.000000
O O14 0.500000 0.952598 0.250000
#
# Coordination Sequence:
#
# PCOD9259992 Si02
#       7
#     8   8   4   8   8   8   8
#     4   9  19  39  59  81 112 154 192 238 284 340
#     4  10  20  35  60  81 116 151 195 236 286 343
#     4  12  22  36  54  88 118 154 182 240 308 350
#     4   9  19  35  62  83 111 149 198 235 281 337
#     4  10  22  37  59  82 116 154 191 236 299 345
#     4  10  18  36  60  86 115 151 196 245 277 345
#     4  10  20  36  56  85 109 148 198 236 278 346
#
# _framework density 19.779758000000001
#
# number of rings (size 3 to 8) (size 9 to 14) (size 15 to 20)
#    0.000    2.154    2.308    0.923    2.154    3.692 
#    1.385    0.769    3.385    0.000    0.000    0.000 
#    0.000    0.000    0.000    0.000    0.000    0.000 
#
# Total GULP energy -144877.318125 kJ/mol
# GULP energy per Si atom -5572.204543 kJ/mol
# Density = 1.973474 g / cm^3
# Si number density = 19.779758 Si / 1000 Ang^3
#
#
#
# Elastic Constant Matrix: (Units=GPa)
#
#
# Indices 1 2 3 4 5 6 
#
# 1 159.0701 47.8636 34.0489 0.0000 14.1358 0.0000
# 2 47.8636 42.6778 7.5979 0.0000 2.3732 0.0000
# 3 34.0489 7.5979 47.4485 0.0000 11.3723 0.0000
# 4 0.0000 0.0000 0.0000 14.4202 0.0000 1.5643
# 5 14.1358 2.3732 11.3723 0.0000 32.0062 0.0000
# 6 0.0000 0.0000 0.0000 1.5643 0.0000 31.1477
#
#
#
# Elastic Compliance Matrix: (Units=1/GPa)
#
#
# Indices 1 2 3 4 5 6 
#
# 1 0.011080 -0.011307 -0.005650 0.000000 -0.002048 0.000000
# 2 -0.011307 0.035663 0.002011 0.000000 0.001635 0.000000
# 3 -0.005650 0.002011 0.026502 0.000000 -0.007071 0.000000
# 4 0.000000 0.000000 0.000000 0.069727 0.000000 -0.003502
# 5 -0.002048 0.001635 -0.007071 0.000000 0.034539 0.000000
# 6 0.000000 0.000000 0.000000 -0.003502 0.000000 0.032281
#
#
# Mechanical properties :
#
#
# Convention : Reuss Voigt Hill
#
# Bulk Modulus (GPa) = 23.06549 47.57968 35.32259
# Shear Modulus (GPa) = 19.67464 26.16055 22.91759
#
# Velocity S-wave (km/s) = 3.15728 3.64069 3.40757
# Velocity P-wave (km/s) = 4.99777 6.46373 5.77744
#
# Compressibility (1/GPa) = 0.04335481
#
# Stress axis : x y z
#
# Youngs Moduli (GPa) = 90.25347 28.04038 37.73267
#
# Poissons Ratio (x) = 0.31704 0.21317
# Poissons Ratio (y) = 1.02046 -0.07588
# Poissons Ratio (z) = 0.50989 -0.05639
#
# Static dielectric constant tensor:
#      x y z
#    x 1.718590 0.000000 0.000170 
#    y 0.000000 1.678680 0.000000 
#    z 0.000170 0.000000 1.735160 
# 
# From -- ./inp_files/236898.got.cif
#   From: 2010.05.17/outbox.cif.g08.bks.cpg/sg15_119_cif.got.tgz:236898.got - 2010.06.03 18:47:42.
