data_PCOD9259003
_publ_section_title
;
Structure prediction by ZEFSAII (Michael W. Deem and Ramdas Pophale) SiO2 
 PCOD9259003
Probable space group: C 2/C
;
_chemical_formula_sum "Si O2"
_cell_formula_units_Z 48
_cell_length_a 19.327291
_cell_length_b 7.548933
_cell_length_c 14.095258
_cell_angle_alpha 90.000000
_cell_angle_beta 81.707158
_cell_angle_gamma 90.000000
_cell_volume 2035.000944
_symmetry_space_group_name_H-M "C 2/C"
_symmetry_group_IT_number 15
_symmetry_cell_setting 'monoclinic'
loop_
_space_group_symop_operation_xyz
x,y,z
-x,y,1/2-z
-x,-y,-z
x,-y,1/2+z
1/2+x,1/2+y,z
1/2-x,1/2+y,1/2-z
1/2-x,1/2-y,-z
1/2+x,1/2-y,1/2+z
loop_
_atom_site_type_symbol
_atom_site_label
_atom_site_fract_x
_atom_site_fract_y
_atom_site_fract_z
Si Si1 0.291140 0.058483 0.363333
Si Si2 0.413598 0.533991 0.433569
Si Si3 0.939991 0.987009 0.151043
Si Si4 0.688718 0.278749 0.297965
Si Si5 0.248567 0.940531 0.556780
Si Si6 0.074038 0.327950 0.207123
O O1 0.225723 0.943890 0.340159
O O2 0.289533 0.066547 0.476567
O O3 0.359927 0.956654 0.311376
O O4 0.283970 0.242825 0.312047
O O5 0.477374 0.442392 0.364613
O O6 0.422691 0.488079 0.542174
O O7 0.333194 0.512682 0.420636
O O8 0.429038 0.737001 0.397063
O O9 0.892100 0.823797 0.189829
O O10 0.920671 0.160609 0.218898
O O11 0.711477 0.109683 0.355583
O O12 0.250000 0.750000 0.500000
O O13 0.000000 0.412410 0.250000
#
# Coordination Sequence:
#
# PCOD9259003 Si02
#       6
#     8   8   8   8   8   8
#     4  11  21  36  59  84 116 150 194 238 294 346
#     4  10  18  34  58  83 114 151 195 231 284 358
#     4  10  20  34  58  87 109 149 199 242 281 340
#     4  11  21  36  59  87 116 151 197 243 289 344
#     4  10  18  34  58  85 114 155 191 231 294 354
#     4  10  20  36  58  82 112 156 195 233 290 352
#
# _framework density 23.587212999999998
#
# number of rings (size 3 to 8) (size 9 to 14) (size 15 to 20)
#    0.000    1.667    6.667    1.000    0.000    0.000 
#    0.000    5.000    0.000   14.000    0.000    0.000 
#    0.000    0.000    0.000    0.000    0.000    0.000 
#
# Total GULP energy -133934.832653 kJ/mol
# GULP energy per Si atom -5580.618027 kJ/mol
# Density = 2.353353 g / cm^3
# Si number density = 23.587213 Si / 1000 Ang^3
#
#
#
# Elastic Constant Matrix: (Units=GPa)
#
#
# Indices 1 2 3 4 5 6 
#
# 1 181.3155 34.4273 32.8754 0.0000 -16.7582 0.0000
# 2 34.4273 38.2530 16.1912 0.0000 1.4547 0.0000
# 3 32.8754 16.1912 60.8149 0.0000 -6.8637 0.0000
# 4 0.0000 0.0000 0.0000 32.8804 0.0000 -1.9283
# 5 -16.7582 1.4547 -6.8637 0.0000 35.3278 0.0000
# 6 0.0000 0.0000 0.0000 -1.9283 0.0000 39.6475
#
#
#
# Elastic Compliance Matrix: (Units=1/GPa)
#
#
# Indices 1 2 3 4 5 6 
#
# 1 0.007295 -0.005838 -0.002016 0.000000 0.003309 0.000000
# 2 -0.005838 0.034407 -0.006622 0.000000 -0.005473 0.000000
# 3 -0.002016 -0.006622 0.019650 0.000000 0.003134 0.000000
# 4 0.000000 0.000000 0.000000 0.030500 0.000000 0.001483
# 5 0.003309 -0.005473 0.003134 0.000000 0.030710 0.000000
# 6 0.000000 0.000000 0.000000 0.001483 0.000000 0.025294
#
#
# Mechanical properties :
#
#
# Convention : Reuss Voigt Hill
#
# Bulk Modulus (GPa) = 30.86431 49.70792 40.28611
# Shear Modulus (GPa) = 26.65114 34.69710 30.67412
#
# Velocity S-wave (km/s) = 3.36504 3.83954 3.61010
# Velocity P-wave (km/s) = 5.31146 6.38560 5.87314
#
# Compressibility (1/GPa) = 0.03239988
#
# Stress axis : x y z
#
# Youngs Moduli (GPa) = 137.07774 29.06377 50.89110
#
# Poissons Ratio (x) = 0.16968 0.10258
# Poissons Ratio (y) = 0.80028 0.33701
# Poissons Ratio (z) = 0.27632 0.19246
#
# Static dielectric constant tensor:
#      x y z
#    x 1.932030 0.000000 -0.026770 
#    y 0.000000 1.966950 0.000000 
#    z -0.026770 0.000000 1.980060 
# 
# From -- ./inp_files/159735.got.cif
#   From: 2010.05.17/outbox.cif.g08.bks.cpg/sg15_80_cif.got.tgz:159735.got - 2010.06.03 18:47:42.
