data_PCOD9259023
_publ_section_title
;
Structure prediction by ZEFSAII (Michael W. Deem and Ramdas Pophale) SiO2 
 PCOD9259023
Probable space group: C 2/C
;
_chemical_formula_sum "Si O2"
_cell_formula_units_Z 56
_cell_length_a 8.462252
_cell_length_b 17.790935
_cell_length_c 16.322502
_cell_angle_alpha 90.000000
_cell_angle_beta 101.415642
_cell_angle_gamma 90.000000
_cell_volume 2408.761307
_symmetry_space_group_name_H-M "C 2/C"
_symmetry_group_IT_number 15
_symmetry_cell_setting 'monoclinic'
loop_
_space_group_symop_operation_xyz
x,y,z
-x,y,1/2-z
-x,-y,-z
x,-y,1/2+z
1/2+x,1/2+y,z
1/2-x,1/2+y,1/2-z
1/2-x,1/2-y,-z
1/2+x,1/2-y,1/2+z
loop_
_atom_site_type_symbol
_atom_site_label
_atom_site_fract_x
_atom_site_fract_y
_atom_site_fract_z
Si Si1 0.958431 0.068161 0.607561
Si Si2 0.860297 0.777083 0.132804
Si Si3 0.777106 0.391658 0.051204
Si Si4 0.680619 0.057610 0.442921
Si Si5 0.388541 0.600390 0.139535
Si Si6 0.239507 0.856340 0.710110
Si Si7 0.027661 0.299210 0.008550
O O1 0.887052 0.135916 0.653627
O O2 0.849471 0.063179 0.512384
O O3 0.139714 0.091510 0.603741
O O4 0.942464 0.986870 0.646246
O O5 0.837007 0.719791 0.204343
O O6 0.987011 0.752611 0.074069
O O7 0.686066 0.770730 0.070836
O O8 0.872005 0.471350 0.060138
O O9 0.610527 0.181776 0.939769
O O10 0.683914 0.384040 0.955843
O O11 0.700410 0.085055 0.352020
O O12 0.569592 0.119364 0.474256
O O13 0.258957 0.615618 0.197021
O O14 0.548458 0.649095 0.170592
#
# Coordination Sequence:
#
# PCOD9259023 Si02
#       7
#     8   8   8   8   8   8   8
#     4  10  18  34  58  86 113 141 190 242 283 324
#     4   9  20  37  54  80 112 155 181 230 292 349
#     4  11  18  31  55  93 112 140 194 252 272 322
#     4   9  16  33  54  83 111 148 189 232 278 341
#     4  10  20  33  60  83 110 150 195 232 280 348
#     4  10  18  36  60  77 110 161 191 216 289 363
#     4   9  19  31  56  83 116 145 186 229 295 338
#
# _framework density 23.248462
#
# number of rings (size 3 to 8) (size 9 to 14) (size 15 to 20)
#    0.000    2.286    2.857    2.143    0.000    0.571 
#    0.000    2.857   12.571    0.000    0.000    0.000 
#    0.000    0.000    0.000    0.000    0.000    0.000 
#
# Total GULP energy -156358.341450 kJ/mol
# GULP energy per Si atom -5584.226480 kJ/mol
# Density = 2.319555 g / cm^3
# Si number density = 23.248462 Si / 1000 Ang^3
#
#
#
# Elastic Constant Matrix: (Units=GPa)
#
#
# Indices 1 2 3 4 5 6 
#
# 1 52.9276 32.8130 19.1425 0.0000 -14.8771 0.0000
# 2 32.8130 110.2413 13.6672 0.0000 -16.3402 0.0000
# 3 19.1425 13.6672 66.2299 0.0000 -20.9911 0.0000
# 4 0.0000 0.0000 0.0000 2.0189 0.0000 -9.7032
# 5 -14.8771 -16.3402 -20.9911 0.0000 29.3792 0.0000
# 6 0.0000 0.0000 0.0000 -9.7032 0.0000 35.2266
#
#
#
# Elastic Compliance Matrix: (Units=1/GPa)
#
#
# Indices 1 2 3 4 5 6 
#
# 1 0.026190 -0.006273 -0.004108 0.000000 0.006838 0.000000
# 2 -0.006273 0.011396 0.000599 0.000000 0.003590 0.000000
# 3 -0.004108 0.000599 0.020178 0.000000 0.012670 0.000000
# 4 0.000000 0.000000 0.000000 -1.529457 0.000000 -0.421288
# 5 0.006838 0.003590 0.012670 0.000000 0.048550 0.000000
# 6 0.000000 0.000000 0.000000 -0.421288 0.000000 -0.087656
#
#
# Mechanical properties :
#
#
# Convention : Reuss Voigt Hill
#
# Bulk Modulus (GPa) = 26.17686 40.07159 33.12423
# Shear Modulus (GPa) = -3.38180 24.24336 10.43078
#
# Velocity S-wave (km/s) = -1.20739 3.23274 2.12047
# Velocity P-wave (km/s) = 3.05620 5.58639 4.50267
#
# Compressibility (1/GPa) = 0.03820167
#
# Stress axis : x y z
#
# Youngs Moduli (GPa) = 38.18185 87.75114 49.55803
#
# Poissons Ratio (x) = 0.55043 0.20359
# Poissons Ratio (y) = 0.23950 -0.02969
# Poissons Ratio (z) = 0.15685 -0.05258
#
# Static dielectric constant tensor:
#      x y z
#    x 1.958090 0.000000 -0.014470 
#    y 0.000000 1.866530 0.000000 
#    z -0.014470 0.000000 1.888320 
# 
# From -- ./inp_files/204803.got.cif
#   From: 2010.05.17/outbox.cif.g08.bks.cpg/sg15_103_cif.got.tgz:204803.got - 2010.06.03 18:47:42.
