data_PCOD9259345
_publ_section_title
;
Structure prediction by ZEFSAII (Michael W. Deem and Ramdas Pophale) SiO2 
 PCOD9259345
Probable space group: C 2/C
;
_chemical_formula_sum "Si O2"
_cell_formula_units_Z 44
_cell_length_a 12.936710
_cell_length_b 8.767221
_cell_length_c 14.724519
_cell_angle_alpha 90.000000
_cell_angle_beta 84.201752
_cell_angle_gamma 90.000000
_cell_volume 1661.495893
_symmetry_space_group_name_H-M "C 2/C"
_symmetry_group_IT_number 15
_symmetry_cell_setting 'monoclinic'
loop_
_space_group_symop_operation_xyz
x,y,z
-x,y,1/2-z
-x,-y,-z
x,-y,1/2+z
1/2+x,1/2+y,z
1/2-x,1/2+y,1/2-z
1/2-x,1/2-y,-z
1/2+x,1/2-y,1/2+z
loop_
_atom_site_type_symbol
_atom_site_label
_atom_site_fract_x
_atom_site_fract_y
_atom_site_fract_z
Si Si1 0.500000 0.823326 0.250000
Si Si2 0.701034 0.771630 0.320351
Si Si3 0.702368 0.364289 0.367516
Si Si4 0.474903 0.416673 0.408874
Si Si5 0.254136 0.532675 0.433859
Si Si6 0.080936 0.619966 0.163848
O O1 0.550045 0.941112 0.169912
O O2 0.586349 0.729159 0.296417
O O3 0.737147 0.871953 0.231555
O O4 0.798717 0.659685 0.325112
O O5 0.693748 0.882760 0.407318
O O6 0.586919 0.416149 0.353962
O O7 0.738467 0.444886 0.458325
O O8 0.706830 0.184922 0.395348
O O9 0.500000 0.500000 0.500000
O O10 0.371144 0.502892 0.385760
O O11 0.445201 0.236471 0.415251
O O12 0.000000 0.674343 0.250000
#
# Coordination Sequence:
#
# PCOD9259345 Si02
#       6
#     4   8   8   8   8   8
#     4  10  22  36  56  82 112 148 182 230 280 334
#     4  11  19  34  60  82 110 151 191 229 282 337
#     4  10  18  35  54  82 118 147 188 234 282 337
#     4   9  16  29  54  84 107 140 188 228 274 335
#     4   9  20  32  56  86 111 149 191 232 280 339
#     4   9  17  33  55  78 106 145 183 223 274 334
#
# _framework density 26.482158999999999
#
# number of rings (size 3 to 8) (size 9 to 14) (size 15 to 20)
#    0.545    1.818    1.818    2.182    0.000    0.000 
#    0.000    4.545    2.000   17.455    0.000    0.000 
#    0.000    0.000    0.000    0.000    0.000    0.000 
#
# Total GULP energy -122743.823868 kJ/mol
# GULP energy per Si atom -5579.264721 kJ/mol
# Density = 2.642188 g / cm^3
# Si number density = 26.482159 Si / 1000 Ang^3
#
#
#
# Elastic Constant Matrix: (Units=GPa)
#
#
# Indices 1 2 3 4 5 6 
#
# 1 181.3427 59.0637 21.8471 0.0000 20.7785 0.0000
# 2 59.0637 131.6705 41.5382 0.0000 3.7388 0.0000
# 3 21.8471 41.5382 74.9612 0.0000 -4.5952 0.0000
# 4 0.0000 0.0000 0.0000 14.2217 0.0000 17.4864
# 5 20.7785 3.7388 -4.5952 0.0000 35.5068 0.0000
# 6 0.0000 0.0000 0.0000 17.4864 0.0000 13.5290
#
#
#
# Elastic Compliance Matrix: (Units=1/GPa)
#
#
# Indices 1 2 3 4 5 6 
#
# 1 0.006950 -0.002780 -0.000722 0.000000 -0.003868 0.000000
# 2 -0.002780 0.010412 -0.004966 0.000000 -0.000112 0.000000
# 3 -0.000722 -0.004966 0.016491 0.000000 0.003080 0.000000
# 4 0.000000 0.000000 0.000000 -0.119335 0.000000 0.154242
# 5 -0.003868 -0.000112 0.003080 0.000000 0.030838 0.000000
# 6 0.000000 0.000000 0.000000 0.154242 0.000000 -0.125444
#
#
# Mechanical properties :
#
#
# Convention : Reuss Voigt Hill
#
# Bulk Modulus (GPa) = 59.11365 70.31918 64.71641
# Shear Modulus (GPa) = -31.74338 30.35319 -0.69509
#
# Velocity S-wave (km/s) = -3.46594 3.38919 -0.51288
# Velocity P-wave (km/s) = 2.52063 6.47507 4.91325
#
# Compressibility (1/GPa) = 0.01691657
#
# Stress axis : x y z
#
# Youngs Moduli (GPa) = 143.88399 96.04737 60.63792
#
# Poissons Ratio (x) = 0.26700 0.04379
# Poissons Ratio (y) = 0.39999 0.30113
# Poissons Ratio (z) = 0.10392 0.47697
#
# Static dielectric constant tensor:
#      x y z
#    x 2.186540 0.000000 0.028350 
#    y 0.000000 2.145400 0.000000 
#    z 0.028350 0.000000 2.040560 
# 
# From -- ./inp_files/195656.got.cif
#   From: 2010.05.17/outbox.cif.g08.bks.cpg/sg15_98_cif.got.tgz:195656.got - 2010.06.03 18:47:42.
