data_PCOD9259429
_publ_section_title
;
Structure prediction by ZEFSAII (Michael W. Deem and Ramdas Pophale) SiO2 
 PCOD9259429
Probable space group: C 2/C
;
_chemical_formula_sum "Si O2"
_cell_formula_units_Z 40
_cell_length_a 13.887699
_cell_length_b 19.038361
_cell_length_c 10.795235
_cell_angle_alpha 90.000000
_cell_angle_beta 36.875416
_cell_angle_gamma 90.000000
_cell_volume 1712.769692
_symmetry_space_group_name_H-M "C 2/C"
_symmetry_group_IT_number 15
_symmetry_cell_setting 'monoclinic'
loop_
_space_group_symop_operation_xyz
x,y,z
-x,y,1/2-z
-x,-y,-z
x,-y,1/2+z
1/2+x,1/2+y,z
1/2-x,1/2+y,1/2-z
1/2-x,1/2-y,-z
1/2+x,1/2-y,1/2+z
loop_
_atom_site_type_symbol
_atom_site_label
_atom_site_fract_x
_atom_site_fract_y
_atom_site_fract_z
Si Si1 0.592982 0.037492 0.787491
Si Si2 0.394953 0.143436 0.522734
Si Si3 0.373042 0.222463 0.972583
Si Si4 0.748432 0.404962 0.936148
Si Si5 0.600001 0.696715 0.419472
O O1 0.500000 0.036935 0.750000
O O2 0.744132 0.986774 0.606107
O O3 0.627676 0.111806 0.816749
O O4 0.500000 0.000000 0.000000
O O5 0.741275 0.177182 0.323250
O O6 0.576064 0.126070 0.289790
O O7 0.267862 0.107896 0.561982
O O8 0.500000 0.188574 0.750000
O O9 0.541968 0.282591 0.530083
O O10 0.127531 0.272881 0.454160
O O11 0.606048 0.362601 0.017178
O O12 0.750000 0.750000 0.000000
#
# Coordination Sequence:
#
# PCOD9259429 Si02
#       5
#     8   8   8   8   8
#     4  10  18  35  57  83 124 167 215 266 302 361
#     4  10  20  34  56  90 120 164 208 257 307 370
#     4   9  20  35  51  80 122 159 198 243 304 377
#     4  10  19  35  55  87 126 153 209 260 312 361
#     4  11  19  36  58  86 123 158 201 258 316 368
#
# _framework density 23.353987
#
# number of rings (size 3 to 8) (size 9 to 14) (size 15 to 20)
#    0.000    2.000    6.000    0.600    0.000    2.400 
#    3.600    0.000    0.000    1.200    0.000    0.000 
#    0.000    0.000    0.000    0.000    0.000    0.000 
#
# Total GULP energy -111375.308889 kJ/mol
# GULP energy per Si atom -5568.765444 kJ/mol
# Density = 2.330083 g / cm^3
# Si number density = 23.353987 Si / 1000 Ang^3
#
#
#
# Elastic Constant Matrix: (Units=GPa)
#
#
# Indices 1 2 3 4 5 6 
#
# 1 137.2263 21.1497 51.8675 -0.0104 45.1520 0.0076
# 2 21.1497 78.5923 7.8956 -0.0032 20.3713 0.0026
# 3 51.8675 7.8956 89.3924 -0.0046 25.1212 0.0042
# 4 -0.0104 -0.0032 -0.0046 7.2626 0.0076 9.9525
# 5 45.1520 20.3713 25.1212 0.0076 57.7372 -0.0051
# 6 0.0076 0.0026 0.0042 9.9525 -0.0051 31.5558
#
#
#
# Elastic Compliance Matrix: (Units=1/GPa)
#
#
# Indices 1 2 3 4 5 6 
#
# 1 0.011333 -0.000891 -0.004665 0.000042 -0.006518 -0.000016
# 2 -0.000891 0.014077 0.000540 0.000022 -0.004504 -0.000009
# 3 -0.004665 0.000540 0.014667 0.000014 -0.002924 -0.000006
# 4 0.000042 0.000022 0.000014 0.242507 -0.000085 -0.076486
# 5 -0.006518 -0.004504 -0.002924 -0.000085 0.025279 0.000033
# 6 -0.000016 -0.000009 -0.000006 -0.076486 0.000033 0.055813
#
#
# Mechanical properties :
#
#
# Convention : Reuss Voigt Hill
#
# Bulk Modulus (GPa) = 33.28480 51.89295 42.58888
# Shear Modulus (GPa) = 13.03020 34.26433 23.64726
#
# Velocity S-wave (km/s) = 2.36465 3.83452 3.18552
# Velocity P-wave (km/s) = 4.66247 6.47095 5.63967
#
# Compressibility (1/GPa) = 0.03004374
#
# Stress axis : x y z
#
# Youngs Moduli (GPa) = 88.24168 71.03717 68.17854
#
# Poissons Ratio (x) = 0.06333 0.31805
# Poissons Ratio (y) = 0.07867 -0.03680
# Poissons Ratio (z) = 0.41164 -0.03834
#
# Static dielectric constant tensor:
#      x y z
#    x 1.962440 0.000000 -0.049760 
#    y 0.000000 1.932760 0.000000 
#    z -0.049760 0.000000 2.082760 
# 
# From -- ./inp_files/31358.got.cif
#   From: 2010.05.17/outbox.cif.g08.bks.cpg/sg15_16_cif.got.tgz:31358.got - 2010.06.03 18:47:42.
