data_PCOD9259592
_publ_section_title
;
Structure prediction by ZEFSAII (Michael W. Deem and Ramdas Pophale) SiO2 
 PCOD9259592
Probable space group: C 2/C
;
_chemical_formula_sum "Si O2"
_cell_formula_units_Z 56
_cell_length_a 10.848222
_cell_length_b 11.980710
_cell_length_c 21.122176
_cell_angle_alpha 90.000000
_cell_angle_beta 63.057637
_cell_angle_gamma 90.000000
_cell_volume 2447.276198
_symmetry_space_group_name_H-M "C 2/C"
_symmetry_group_IT_number 15
_symmetry_cell_setting 'monoclinic'
loop_
_space_group_symop_operation_xyz
x,y,z
-x,y,1/2-z
-x,-y,-z
x,-y,1/2+z
1/2+x,1/2+y,z
1/2-x,1/2+y,1/2-z
1/2-x,1/2-y,-z
1/2+x,1/2-y,1/2+z
loop_
_atom_site_type_symbol
_atom_site_label
_atom_site_fract_x
_atom_site_fract_y
_atom_site_fract_z
Si Si1 0.525241 0.558773 0.168570
Si Si2 0.471579 0.137649 0.181088
Si Si3 0.032273 0.369290 0.484620
Si Si4 0.331816 0.326071 0.382172
Si Si5 0.758353 0.265341 0.574018
Si Si6 0.200334 0.228240 0.286246
Si Si7 0.971072 0.618423 0.852891
O O1 0.500000 0.561641 0.250000
O O2 0.567558 0.433054 0.140809
O O3 0.655728 0.634742 0.118242
O O4 0.388451 0.618946 0.171381
O O5 0.500000 0.141393 0.250000
O O6 0.582393 0.216330 0.122237
O O7 0.316196 0.183729 0.211503
O O8 0.495346 0.010669 0.157664
O O9 0.916590 0.299131 0.548750
O O10 0.004189 0.344553 0.417092
O O11 0.000000 0.500000 0.500000
O O12 0.194582 0.346544 0.455187
O O13 0.278402 0.298462 0.322889
O O14 0.750000 0.250000 0.500000
O O15 0.686878 0.155740 0.620887
O O16 0.083777 0.311663 0.287258
#
# Coordination Sequence:
#
# PCOD9259592 Si02
#       7
#     8   8   8   8   8   8   8
#     4  11  21  34  65  95 120 158 216 261 309 384
#     4  10  21  37  56  82 128 160 189 251 326 374
#     4  10  18  35  61  79 109 154 209 254 299 354
#     4  10  21  38  59  90 121 163 209 254 319 381
#     4   9  19  37  58  86 118 158 204 259 310 366
#     4   9  21  35  57  86 123 159 197 255 312 369
#     4   9  20  35  55  82 115 155 201 252 303 374
#
# _framework density 22.882583
#
# number of rings (size 3 to 8) (size 9 to 14) (size 15 to 20)
#    0.000    2.286    1.429    2.143    6.000    2.286 
#    0.000    1.429    0.000    0.000    0.000    0.000 
#    0.000    0.000    0.000    0.000    0.000    0.000 
#
# Total GULP energy -156297.725560 kJ/mol
# GULP energy per Si atom -5582.061627 kJ/mol
# Density = 2.283050 g / cm^3
# Si number density = 22.882583 Si / 1000 Ang^3
#
#
#
# Elastic Constant Matrix: (Units=GPa)
#
#
# Indices 1 2 3 4 5 6 
#
# 1 63.1955 37.4625 31.0149 0.0000 -21.0742 0.0000
# 2 37.4625 169.0003 61.5214 0.0000 -54.1812 0.0000
# 3 31.0149 61.5214 138.2986 0.0000 -42.7912 0.0000
# 4 0.0000 0.0000 0.0000 41.8662 0.0000 -9.3361
# 5 -21.0742 -54.1812 -42.7912 0.0000 56.3550 0.0000
# 6 0.0000 0.0000 0.0000 -9.3361 0.0000 30.1070
#
#
#
# Elastic Compliance Matrix: (Units=1/GPa)
#
#
# Indices 1 2 3 4 5 6 
#
# 1 0.019466 -0.002465 -0.002287 0.000000 0.003172 0.000000
# 2 -0.002465 0.009163 -0.001415 0.000000 0.006813 0.000000
# 3 -0.002287 -0.001415 0.010048 0.000000 0.005414 0.000000
# 4 0.000000 0.000000 0.000000 0.025660 0.000000 0.007957
# 5 0.003172 0.006813 0.005414 0.000000 0.029592 0.000000
# 6 0.000000 0.000000 0.000000 0.007957 0.000000 0.035682
#
#
# Mechanical properties :
#
#
# Convention : Reuss Voigt Hill
#
# Bulk Modulus (GPa) = 37.96240 70.05467 54.00854
# Shear Modulus (GPa) = 33.17239 41.69869 37.43554
#
# Velocity S-wave (km/s) = 3.81160 4.27346 4.04912
# Velocity P-wave (km/s) = 5.99976 7.41830 6.74642
#
# Compressibility (1/GPa) = 0.02634185
#
# Stress axis : x y z
#
# Youngs Moduli (GPa) = 51.37226 109.13334 99.51900
#
# Poissons Ratio (x) = 0.26905 0.22761
# Poissons Ratio (y) = 0.12665 0.14084
# Poissons Ratio (z) = 0.11749 0.15445
#
# Static dielectric constant tensor:
#      x y z
#    x 1.939860 0.000000 0.034490 
#    y 0.000000 1.823460 0.000000 
#    z 0.034490 0.000000 1.931340 
# 
# From -- ./inp_files/292215.got.cif
#   From: 2010.05.17/outbox.cif.g08.bks.cpg/sg15_147_cif.got.tgz:292215.got - 2010.06.03 18:47:42.
