data_PCOD9259993
_publ_section_title
;
Structure prediction by ZEFSAII (Michael W. Deem and Ramdas Pophale) SiO2 
 PCOD9259993
Probable space group: C 2/C
;
_chemical_formula_sum "Si O2"
_cell_formula_units_Z 48
_cell_length_a 31.276218
_cell_length_b 9.479757
_cell_length_c 16.755994
_cell_angle_alpha 90.000000
_cell_angle_beta 25.326263
_cell_angle_gamma 90.000000
_cell_volume 2125.172652
_symmetry_space_group_name_H-M "C 2/C"
_symmetry_group_IT_number 15
_symmetry_cell_setting 'monoclinic'
loop_
_space_group_symop_operation_xyz
x,y,z
-x,y,1/2-z
-x,-y,-z
x,-y,1/2+z
1/2+x,1/2+y,z
1/2-x,1/2+y,1/2-z
1/2-x,1/2-y,-z
1/2+x,1/2-y,1/2+z
loop_
_atom_site_type_symbol
_atom_site_label
_atom_site_fract_x
_atom_site_fract_y
_atom_site_fract_z
Si Si1 0.601326 0.951466 0.221496
Si Si2 0.565692 0.357655 0.720792
Si Si3 0.107460 0.406382 0.392251
Si Si4 0.473075 0.619953 0.928597
Si Si5 0.184176 0.724641 0.032514
Si Si6 0.791403 0.955483 0.617618
O O1 0.489179 0.011847 0.413145
O O2 0.666089 0.057949 0.059048
O O3 0.597594 0.792805 0.198471
O O4 0.633404 0.959516 0.259841
O O5 0.500000 0.341170 0.750000
O O6 0.512746 0.460239 0.875876
O O7 0.659974 0.445828 0.532059
O O8 0.077267 0.242241 0.433714
O O9 0.196094 0.451938 0.302128
O O10 0.573176 0.701869 0.727111
O O11 0.381760 0.583827 0.023242
O O12 0.250000 0.750000 0.000000
O O13 0.239168 0.805259 0.868436
#
# Coordination Sequence:
#
# PCOD9259993 Si02
#       6
#     8   8   8   8   8   8
#     4  10  21  36  58  87 118 148 195 249 293 358
#     4   9  20  38  58  83 116 150 193 246 294 350
#     4  10  21  37  57  83 117 153 191 239 304 359
#     4   9  21  38  58  83 120 157 195 244 306 358
#     4  10  18  36  60  86 115 158 199 242 299 354
#     4  10  20  38  60  82 116 156 198 247 293 358
#
# _framework density 22.586400000000001
#
# number of rings (size 3 to 8) (size 9 to 14) (size 15 to 20)
#    0.000    2.333    1.667    1.500    0.000    6.667 
#    0.000    1.667    0.000    0.000    0.000    0.000 
#    0.000    0.000    0.000    0.000    0.000    0.000 
#
# Total GULP energy -133630.012545 kJ/mol
# GULP energy per Si atom -5567.917189 kJ/mol
# Density = 2.253499 g / cm^3
# Si number density = 22.586400 Si / 1000 Ang^3
#
#
#
# Elastic Constant Matrix: (Units=GPa)
#
#
# Indices 1 2 3 4 5 6 
#
# 1 15.3448 8.5769 31.9332 0.0000 -18.4927 0.0000
# 2 8.5769 171.9242 20.9696 0.0000 5.2583 0.0000
# 3 31.9332 20.9696 39.7500 0.0000 -24.6837 0.0000
# 4 0.0000 0.0000 0.0000 38.2837 0.0000 -1.8831
# 5 -18.4927 5.2583 -24.6837 0.0000 29.0587 0.0000
# 6 0.0000 0.0000 0.0000 -1.8831 0.0000 39.0715
#
#
#
# Elastic Compliance Matrix: (Units=1/GPa)
#
#
# Indices 1 2 3 4 5 6 
#
# 1 -0.089457 -0.006584 0.086191 0.000000 0.017476 0.000000
# 2 -0.006584 0.006840 -0.003575 0.000000 -0.008465 0.000000
# 3 0.086191 -0.003575 -0.016370 0.000000 0.041592 0.000000
# 4 0.000000 0.000000 0.000000 0.026183 0.000000 0.001262
# 5 0.017476 -0.008465 0.041592 0.000000 0.082397 0.000000
# 6 0.000000 0.000000 0.000000 0.001262 0.000000 0.025655
#
#
# Mechanical properties :
#
#
# Convention : Reuss Voigt Hill
#
# Bulk Modulus (GPa) = 18.84126 38.88648 28.86387
# Shear Modulus (GPa) = -50.44216 32.31872 -9.06172
#
# Velocity S-wave (km/s) = -4.73090 3.78682 -2.00518
# Velocity P-wave (km/s) = 4.63487 6.03110 2.72875
#
# Compressibility (1/GPa) = 0.05307501
#
# Stress axis : x y z
#
# Youngs Moduli (GPa) = -11.17855 146.19930 -61.08621
#
# Poissons Ratio (x) = 0.96263 5.26507
# Poissons Ratio (y) = -0.07360 -0.21840
# Poissons Ratio (z) = 0.96349 0.52270
#
# Static dielectric constant tensor:
#      x y z
#    x 1.896350 0.000000 0.002840 
#    y 0.000000 1.852490 0.000000 
#    z 0.002840 0.000000 1.895160 
# 
# From -- ./inp_files/224560.got.cif
#   From: 2010.05.17/outbox.cif.g08.bks.cpg/sg15_113_cif.got.tgz:224560.got - 2010.06.03 18:47:42.
