data_PCOD9259639
_publ_section_title
;
Structure prediction by ZEFSAII (Michael W. Deem and Ramdas Pophale) SiO2 
 PCOD9259639
Probable space group: C 2/C
;
_chemical_formula_sum "Si O2"
_cell_formula_units_Z 48
_cell_length_a 32.303964
_cell_length_b 10.110157
_cell_length_c 17.185658
_cell_angle_alpha 90.000000
_cell_angle_beta 28.261911
_cell_angle_gamma 90.000000
_cell_volume 2657.678342
_symmetry_space_group_name_H-M "C 2/C"
_symmetry_group_IT_number 15
_symmetry_cell_setting 'monoclinic'
loop_
_space_group_symop_operation_xyz
x,y,z
-x,y,1/2-z
-x,-y,-z
x,-y,1/2+z
1/2+x,1/2+y,z
1/2-x,1/2+y,1/2-z
1/2-x,1/2-y,-z
1/2+x,1/2-y,1/2+z
loop_
_atom_site_type_symbol
_atom_site_label
_atom_site_fract_x
_atom_site_fract_y
_atom_site_fract_z
Si Si1 0.883866 0.016250 0.096852
Si Si2 0.160516 0.704158 0.108716
Si Si3 0.274183 0.081213 0.041958
Si Si4 0.622207 0.322343 0.678987
Si Si5 0.906360 0.936645 0.384877
Si Si6 0.477160 0.303217 0.045669
O O1 0.907282 0.888596 0.110925
O O2 0.791278 0.072934 0.277675
O O3 0.876238 0.003862 0.017196
O O4 0.963867 0.111236 0.991664
O O5 0.145031 0.816322 0.068911
O O6 0.081287 0.709329 0.303046
O O7 0.250000 0.750000 0.000000
O O8 0.176430 0.556703 0.051612
O O9 0.205261 0.112715 0.086121
O O10 0.341146 0.202162 0.932075
O O11 0.584532 0.441315 0.689964
O O12 0.550947 0.267530 0.858935
O O13 0.000000 0.877814 0.250000
#
# Coordination Sequence:
#
# PCOD9259639 Si02
#       6
#     8   8   8   8   8   8
#     4  10  19  35  60  87 115 155 201 238 290 363
#     4  12  21  37  63  93 118 156 201 253 295 351
#     4  10  22  39  58  87 123 150 194 253 300 346
#     4  10  21  39  60  85 118 158 198 240 297 363
#     4  12  21  36  64  90 114 159 207 242 288 361
#     4  10  18  35  62  84 112 162 198 232 296 365
#
# _framework density 18.060877000000001
#
# number of rings (size 3 to 8) (size 9 to 14) (size 15 to 20)
#    0.000    1.333    6.667    1.000    0.000    2.000 
#    0.000    0.833    0.000    0.000    0.000    0.000 
#    0.000    0.000    0.000    0.000    0.000    0.000 
#
# Total GULP energy -133644.025125 kJ/mol
# GULP energy per Si atom -5568.501047 kJ/mol
# Density = 1.801977 g / cm^3
# Si number density = 18.060877 Si / 1000 Ang^3
#
#
#
# Elastic Constant Matrix: (Units=GPa)
#
#
# Indices 1 2 3 4 5 6 
#
# 1 72.4270 20.8564 28.9969 0.0000 4.9220 0.0000
# 2 20.8564 73.6959 35.9115 0.0000 -0.1869 0.0000
# 3 28.9969 35.9115 101.5324 0.0000 14.1283 0.0000
# 4 0.0000 0.0000 0.0000 33.2381 0.0000 -1.9342
# 5 4.9220 -0.1869 14.1283 0.0000 30.4709 0.0000
# 6 0.0000 0.0000 0.0000 -1.9342 0.0000 17.0495
#
#
#
# Elastic Compliance Matrix: (Units=1/GPa)
#
#
# Indices 1 2 3 4 5 6 
#
# 1 0.016080 -0.002882 -0.003431 0.000000 -0.001024 0.000000
# 2 -0.002882 0.017169 -0.005697 0.000000 0.003212 0.000000
# 3 -0.003431 -0.005697 0.013652 0.000000 -0.005811 0.000000
# 4 0.000000 0.000000 0.000000 0.030286 0.000000 0.003436
# 5 -0.001024 0.003212 -0.005811 0.000000 0.035698 0.000000
# 6 0.000000 0.000000 0.000000 0.003436 0.000000 0.059042
#
#
# Mechanical properties :
#
#
# Convention : Reuss Voigt Hill
#
# Bulk Modulus (GPa) = 43.69948 46.57613 45.13780
# Shear Modulus (GPa) = 24.56132 26.94441 25.75287
#
# Velocity S-wave (km/s) = 3.69171 3.86666 3.78020
# Velocity P-wave (km/s) = 6.51305 6.76603 6.64074
#
# Compressibility (1/GPa) = 0.02288357
#
# Stress axis : x y z
#
# Youngs Moduli (GPa) = 62.18955 58.24510 73.24816
#
# Poissons Ratio (x) = 0.16784 0.25128
# Poissons Ratio (y) = 0.17921 0.41726
# Poissons Ratio (z) = 0.21334 0.33179
#
# Static dielectric constant tensor:
#      x y z
#    x 1.613240 0.000000 0.029660 
#    y 0.000000 1.651360 0.000000 
#    z 0.029660 0.000000 1.672460 
# 
# From -- ./inp_files/224517.got.cif
#   From: 2010.05.17/outbox.cif.g08.bks.cpg/sg15_113_cif.got.tgz:224517.got - 2010.06.03 18:47:42.
