data_PCOD9259079
_publ_section_title
;
Structure prediction by ZEFSAII (Michael W. Deem and Ramdas Pophale) SiO2 
 PCOD9259079
Probable space group: C 2/C
;
_chemical_formula_sum "Si O2"
_cell_formula_units_Z 64
_cell_length_a 15.111897
_cell_length_b 24.037460
_cell_length_c 9.325485
_cell_angle_alpha 90.000000
_cell_angle_beta 113.573627
_cell_angle_gamma 90.000000
_cell_volume 3104.800399
_symmetry_space_group_name_H-M "C 2/C"
_symmetry_group_IT_number 15
_symmetry_cell_setting 'monoclinic'
loop_
_space_group_symop_operation_xyz
x,y,z
-x,y,1/2-z
-x,-y,-z
x,-y,1/2+z
1/2+x,1/2+y,z
1/2-x,1/2+y,1/2-z
1/2-x,1/2-y,-z
1/2+x,1/2-y,1/2+z
loop_
_atom_site_type_symbol
_atom_site_label
_atom_site_fract_x
_atom_site_fract_y
_atom_site_fract_z
Si Si1 0.899547 0.228108 0.636310
Si Si2 0.215917 0.738820 0.710866
Si Si3 0.650439 0.558785 0.774141
Si Si4 0.227478 0.373426 0.352684
Si Si5 0.823749 0.138294 0.206416
Si Si6 0.604715 0.026171 0.883019
Si Si7 0.053169 0.105614 0.967085
Si Si8 0.786909 0.462101 0.768394
O O1 0.850966 0.260171 0.473276
O O2 0.823874 0.229397 0.718236
O O3 0.925778 0.165751 0.595434
O O4 0.000000 0.253790 0.750000
O O5 0.193203 0.688549 0.801681
O O6 0.198084 0.797616 0.775309
O O7 0.729798 0.601723 0.766254
O O8 0.625397 0.565293 0.925327
O O9 0.551161 0.578616 0.630899
O O10 0.694869 0.499324 0.759887
O O11 0.309752 0.373383 0.529564
O O12 0.144933 0.414592 0.353479
O O13 0.919765 0.117465 0.350709
O O14 0.741936 0.101502 0.232199
O O15 0.500000 0.017447 0.750000
O O16 0.676689 0.981032 0.861137
O O17 0.625136 0.024983 0.064836
#
# Coordination Sequence:
#
# PCOD9259079 Si02
#       8
#     8   8   8   8   8   8   8   8
#     4  10  18  35  58  87 115 145 199 243 285 342
#     4  10  20  36  60  82 118 158 192 242 294 341
#     4  10  19  34  62  82 114 152 188 238 286 346
#     4  10  20  38  57  83 116 154 192 233 301 343
#     4  10  22  35  55  83 122 153 192 236 284 352
#     4  10  21  39  62  81 112 149 195 246 288 351
#     4  10  18  34  59  87 112 149 192 232 282 341
#     4  10  21  38  57  86 113 151 192 237 295 343
#
# _framework density 20.613243000000001
#
# number of rings (size 3 to 8) (size 9 to 14) (size 15 to 20)
#    0.000    2.000    2.500    1.500    0.000    1.000 
#    4.500    3.125    2.750    0.000    0.000    0.000 
#    0.000    0.000    0.000    0.000    0.000    0.000 
#
# Total GULP energy -178515.547137 kJ/mol
# GULP energy per Si atom -5578.610848 kJ/mol
# Density = 2.056633 g / cm^3
# Si number density = 20.613243 Si / 1000 Ang^3
#
#
#
# Elastic Constant Matrix: (Units=GPa)
#
#
# Indices 1 2 3 4 5 6 
#
# 1 61.6664 11.4381 11.8143 0.0000 17.0015 0.0000
# 2 11.4381 87.2800 -2.7984 0.0000 3.6155 0.0000
# 3 11.8143 -2.7984 30.6566 0.0000 6.5373 0.0000
# 4 0.0000 0.0000 0.0000 17.9549 0.0000 3.1209
# 5 17.0015 3.6155 6.5373 0.0000 31.2991 0.0000
# 6 0.0000 0.0000 0.0000 3.1209 0.0000 4.8866
#
#
#
# Elastic Compliance Matrix: (Units=1/GPa)
#
#
# Indices 1 2 3 4 5 6 
#
# 1 0.020479 -0.002482 -0.006078 0.000000 -0.009568 0.000000
# 2 -0.002482 0.011871 0.002140 0.000000 -0.000470 0.000000
# 3 -0.006078 0.002140 0.036114 0.000000 -0.004489 0.000000
# 4 0.000000 0.000000 0.000000 0.062650 0.000000 -0.040012
# 5 -0.009568 -0.000470 -0.004489 0.000000 0.038139 0.000000
# 6 0.000000 0.000000 0.000000 -0.040012 0.000000 0.230194
#
#
# Mechanical properties :
#
#
# Convention : Reuss Voigt Hill
#
# Bulk Modulus (GPa) = 17.97799 24.50120 21.23959
# Shear Modulus (GPa) = 11.60554 21.43806 16.52180
#
# Velocity S-wave (km/s) = 2.37536 3.22842 2.83417
# Velocity P-wave (km/s) = 4.03282 5.08025 4.58653
#
# Compressibility (1/GPa) = 0.05562359
#
# Stress axis : x y z
#
# Youngs Moduli (GPa) = 48.83025 84.24040 27.68976
#
# Poissons Ratio (x) = 0.20911 0.16831
# Poissons Ratio (y) = 0.12121 -0.05927
# Poissons Ratio (z) = 0.29681 -0.18031
#
# Static dielectric constant tensor:
#      x y z
#    x 1.721960 0.000000 0.027450 
#    y 0.000000 1.732370 0.000000 
#    z 0.027450 0.000000 1.773950 
# 
# From -- ./inp_files/43586.got.cif
#   From: 2010.05.17/outbox.cif.g08.bks.cpg/sg15_22_cif.got.tgz:43586.got - 2010.06.03 18:47:42.
