data_PCOD9259541
_publ_section_title
;
Structure prediction by ZEFSAII (Michael W. Deem and Ramdas Pophale) SiO2 
 PCOD9259541
Probable space group: C 2/C
;
_chemical_formula_sum "Si O2"
_cell_formula_units_Z 56
_cell_length_a 15.698024
_cell_length_b 12.697587
_cell_length_c 13.447301
_cell_angle_alpha 90.000000
_cell_angle_beta 55.501211
_cell_angle_gamma 90.000000
_cell_volume 2209.028585
_symmetry_space_group_name_H-M "C 2/C"
_symmetry_group_IT_number 15
_symmetry_cell_setting 'monoclinic'
loop_
_space_group_symop_operation_xyz
x,y,z
-x,y,1/2-z
-x,-y,-z
x,-y,1/2+z
1/2+x,1/2+y,z
1/2-x,1/2+y,1/2-z
1/2-x,1/2-y,-z
1/2+x,1/2-y,1/2+z
loop_
_atom_site_type_symbol
_atom_site_label
_atom_site_fract_x
_atom_site_fract_y
_atom_site_fract_z
Si Si1 0.841218 0.769102 0.818141
Si Si2 0.110846 0.452514 0.140153
Si Si3 0.687568 0.493586 0.863532
Si Si4 0.902519 0.227870 0.047175
Si Si5 0.226310 0.018920 0.112884
Si Si6 0.375335 0.706954 0.848183
Si Si7 0.367406 0.729858 0.632910
O O1 0.889382 0.673536 0.846017
O O2 0.871687 0.748801 0.681882
O O3 0.850830 0.883216 0.863482
O O4 0.717637 0.761952 0.889989
O O5 0.211186 0.489353 0.136926
O O6 0.000000 0.494440 0.250000
O O7 0.156024 0.480419 0.003203
O O8 0.614805 0.398789 0.945717
O O9 0.730673 0.466737 0.727228
O O10 0.629577 0.603322 0.883501
O O11 0.855313 0.260027 0.969488
O O12 0.018801 0.268899 0.962378
O O13 0.171070 0.910278 0.122664
O O14 0.500000 0.701331 0.750000
O O15 0.336897 0.756120 0.768241
#
# Coordination Sequence:
#
# PCOD9259541 Si02
#       7
#     8   8   8   8   8   8   8
#     4  10  23  36  53  86 118 156 185 229 292 344
#     4  11  23  38  57  83 120 154 190 230 286 341
#     4   9  19  37  58  85 110 151 196 238 281 328
#     4  10  18  35  60  80 114 149 191 237 283 336
#     4  10  20  38  59  82 119 145 194 243 276 337
#     4   9  18  34  61  89 106 147 195 244 282 326
#     4   9  19  34  56  84 118 147 189 236 287 332
#
# _framework density 25.35051
#
# number of rings (size 3 to 8) (size 9 to 14) (size 15 to 20)
#    0.000    2.286    1.429    0.857    2.000    2.857 
#    0.000    0.000    0.000    3.429    0.000    0.000 
#    0.000    0.000    0.000    0.000    0.000    0.000 
#
# Total GULP energy -156322.925427 kJ/mol
# GULP energy per Si atom -5582.961622 kJ/mol
# Density = 2.529281 g / cm^3
# Si number density = 25.350510 Si / 1000 Ang^3
#
#
#
# Elastic Constant Matrix: (Units=GPa)
#
#
# Indices 1 2 3 4 5 6 
#
# 1 67.5012 -9.6763 22.1974 0.0000 -8.9806 0.0000
# 2 -9.6763 62.6799 -2.1008 0.0000 -2.7813 0.0000
# 3 22.1974 -2.1008 142.1056 0.0000 2.3995 0.0000
# 4 0.0000 0.0000 0.0000 17.2779 0.0000 3.6599
# 5 -8.9806 -2.7813 2.3995 0.0000 32.0324 0.0000
# 6 0.0000 0.0000 0.0000 3.6599 0.0000 6.7394
#
#
#
# Elastic Compliance Matrix: (Units=1/GPa)
#
#
# Indices 1 2 3 4 5 6 
#
# 1 0.016765 0.002727 -0.002665 0.000000 0.005137 0.000000
# 2 0.002727 0.016466 -0.000220 0.000000 0.002211 0.000000
# 3 -0.002665 -0.000220 0.007472 0.000000 -0.001326 0.000000
# 4 0.000000 0.000000 0.000000 0.065401 0.000000 -0.035517
# 5 0.005137 0.002211 -0.001326 0.000000 0.032950 0.000000
# 6 0.000000 0.000000 0.000000 -0.035517 0.000000 0.167669
#
#
# Mechanical properties :
#
#
# Convention : Reuss Voigt Hill
#
# Bulk Modulus (GPa) = 24.76049 32.56969 28.66509
# Shear Modulus (GPa) = 15.60052 28.66770 22.13411
#
# Velocity S-wave (km/s) = 2.48340 3.36646 2.95807
# Velocity P-wave (km/s) = 4.24400 5.29022 4.79572
#
# Compressibility (1/GPa) = 0.04038693
#
# Stress axis : x y z
#
# Youngs Moduli (GPa) = 59.64704 60.73216 133.82440
#
# Poissons Ratio (x) = -0.16560 0.35667
# Poissons Ratio (y) = -0.16264 0.02942
# Poissons Ratio (z) = 0.15897 0.01335
#
# Static dielectric constant tensor:
#      x y z
#    x 1.993980 0.000000 0.056020 
#    y 0.000000 2.137060 0.000000 
#    z 0.056020 0.000000 2.067520 
# 
# From -- ./inp_files/105800.got.cif
#   From: 2010.05.17/outbox.cif.g08.bks.cpg/sg15_53_cif.got.tgz:105800.got - 2010.06.03 18:47:42.
