data_PCOD9259021
_publ_section_title
;
Structure prediction by ZEFSAII (Michael W. Deem and Ramdas Pophale) SiO2 
 PCOD9259021
Probable space group: C 2/C
;
_chemical_formula_sum "Si O2"
_cell_formula_units_Z 56
_cell_length_a 8.699880
_cell_length_b 30.921398
_cell_length_c 11.518388
_cell_angle_alpha 90.000000
_cell_angle_beta 111.786834
_cell_angle_gamma 90.000000
_cell_volume 2877.261059
_symmetry_space_group_name_H-M "C 2/C"
_symmetry_group_IT_number 15
_symmetry_cell_setting 'monoclinic'
loop_
_space_group_symop_operation_xyz
x,y,z
-x,y,1/2-z
-x,-y,-z
x,-y,1/2+z
1/2+x,1/2+y,z
1/2-x,1/2+y,1/2-z
1/2-x,1/2-y,-z
1/2+x,1/2-y,1/2+z
loop_
_atom_site_type_symbol
_atom_site_label
_atom_site_fract_x
_atom_site_fract_y
_atom_site_fract_z
Si Si1 0.319898 0.097107 0.662210
Si Si2 0.215882 0.887796 0.384227
Si Si3 0.114252 0.812661 0.500945
Si Si4 0.980275 0.950410 0.029302
Si Si5 0.919086 0.635326 0.445703
Si Si6 0.518378 0.225634 0.393844
Si Si7 0.357922 0.384760 0.804186
O O1 0.500000 0.078174 0.750000
O O2 0.260903 0.120265 0.763483
O O3 0.347045 0.124873 0.553170
O O4 0.169089 0.065485 0.593757
O O5 0.098756 0.850220 0.401014
O O6 0.126931 0.933438 0.389251
O O7 0.392285 0.882367 0.499962
O O8 0.295718 0.792100 0.535373
O O9 0.116277 0.839436 0.620568
O O10 0.995067 0.771975 0.448504
O O11 0.887957 0.923268 0.902771
O O12 0.000000 0.000000 0.000000
O O13 0.912500 0.686436 0.416510
O O14 0.813957 0.614002 0.313029
O O15 0.500000 0.230309 0.250000
O O16 0.500000 0.388179 0.750000
#
# Coordination Sequence:
#
# PCOD9259021 Si02
#       7
#     8   8   8   8   8   8   8
#     4  10  21  42  63  90 125 165 205 257 313 374
#     4   9  21  40  67  87 122 166 212 253 312 372
#     4   9  20  34  56  91 114 161 207 250 315 358
#     4  11  24  41  64  96 123 159 206 259 312 379
#     4  10  20  40  65  92 121 170 209 255 313 370
#     4  10  18  34  58  85 124 153 208 262 292 369
#     4  11  21  39  63  85 130 161 202 258 321 376
#
# _framework density 19.462952000000001
#
# number of rings (size 3 to 8) (size 9 to 14) (size 15 to 20)
#    0.000    2.000    2.857    0.429    0.000    3.429 
#    2.571    7.143    0.000    0.000    0.000    0.000 
#    0.000    0.000    0.000    0.000    0.000    0.000 
#
# Total GULP energy -155997.518811 kJ/mol
# GULP energy per Si atom -5571.339958 kJ/mol
# Density = 1.941865 g / cm^3
# Si number density = 19.462952 Si / 1000 Ang^3
#
#
#
# Elastic Constant Matrix: (Units=GPa)
#
#
# Indices 1 2 3 4 5 6 
#
# 1 67.2681 24.2542 39.6120 0.0000 3.5718 0.0000
# 2 24.2542 103.6542 51.5558 0.0000 7.0803 0.0000
# 3 39.6120 51.5558 132.8534 0.0000 12.8221 0.0000
# 4 0.0000 0.0000 0.0000 13.8386 0.0000 3.2557
# 5 3.5718 7.0803 12.8221 0.0000 40.9369 0.0000
# 6 0.0000 0.0000 0.0000 3.2557 0.0000 17.8461
#
#
#
# Elastic Compliance Matrix: (Units=1/GPa)
#
#
# Indices 1 2 3 4 5 6 
#
# 1 0.018346 -0.001954 -0.004733 0.000000 0.000220 0.000000
# 2 -0.001954 0.012179 -0.004080 0.000000 -0.000658 0.000000
# 3 -0.004733 -0.004080 0.010738 0.000000 -0.002245 0.000000
# 4 0.000000 0.000000 0.000000 0.075502 0.000000 -0.013774
# 5 0.000220 -0.000658 -0.002245 0.000000 0.025226 0.000000
# 6 0.000000 0.000000 0.000000 -0.013774 0.000000 0.058547
#
#
# Mechanical properties :
#
#
# Convention : Reuss Voigt Hill
#
# Bulk Modulus (GPa) = 50.68619 59.40218 55.04419
# Shear Modulus (GPa) = 21.86761 27.08124 24.47442
#
# Velocity S-wave (km/s) = 3.35558 3.73423 3.54995
# Velocity P-wave (km/s) = 6.41187 7.01281 6.71906
#
# Compressibility (1/GPa) = 0.01972924
#
# Stress axis : x y z
#
# Youngs Moduli (GPa) = 54.50846 82.10874 93.12383
#
# Poissons Ratio (x) = 0.16041 0.44077
# Poissons Ratio (y) = 0.10649 0.37997
# Poissons Ratio (z) = 0.25800 0.33502
#
# Static dielectric constant tensor:
#      x y z
#    x 1.707030 0.000000 0.013790 
#    y 0.000000 1.682520 0.000000 
#    z 0.013790 0.000000 1.768460 
# 
# From -- ./inp_files/82670.got.cif
#   From: 2010.05.17/outbox.cif.g08.bks.cpg/sg15_42_cif.got.tgz:82670.got - 2010.06.03 18:47:42.
