data_PCOD9259149
_publ_section_title
;
Structure prediction by ZEFSAII (Michael W. Deem and Ramdas Pophale) SiO2 
 PCOD9259149
Probable space group: C 2/C
;
_chemical_formula_sum "Si O2"
_cell_formula_units_Z 56
_cell_length_a 16.254212
_cell_length_b 12.581496
_cell_length_c 15.023587
_cell_angle_alpha 90.000000
_cell_angle_beta 69.474771
_cell_angle_gamma 90.000000
_cell_volume 2877.318373
_symmetry_space_group_name_H-M "C 2/C"
_symmetry_group_IT_number 15
_symmetry_cell_setting 'monoclinic'
loop_
_space_group_symop_operation_xyz
x,y,z
-x,y,1/2-z
-x,-y,-z
x,-y,1/2+z
1/2+x,1/2+y,z
1/2-x,1/2+y,1/2-z
1/2-x,1/2-y,-z
1/2+x,1/2-y,1/2+z
loop_
_atom_site_type_symbol
_atom_site_label
_atom_site_fract_x
_atom_site_fract_y
_atom_site_fract_z
Si Si1 0.277771 0.651312 0.870414
Si Si2 0.697622 0.566284 0.227466
Si Si3 0.135654 0.714051 0.786786
Si Si4 0.505505 0.125419 0.521220
Si Si5 0.707782 0.855965 0.979527
Si Si6 0.379139 0.165696 0.425330
Si Si7 0.190302 0.479954 0.149668
O O1 0.322106 0.544645 0.815524
O O2 0.226828 0.706471 0.807703
O O3 0.347048 0.729066 0.888857
O O4 0.197180 0.638267 0.972017
O O5 0.626819 0.660708 0.268278
O O6 0.746020 0.531494 0.300489
O O7 0.763566 0.618882 0.131315
O O8 0.059472 0.666060 0.877258
O O9 0.147808 0.628210 0.703849
O O10 0.603164 0.149273 0.514423
O O11 0.468967 0.178740 0.444901
O O12 0.500000 0.000000 0.500000
O O13 0.737310 0.943390 0.040967
O O14 0.750000 0.750000 0.000000
O O15 0.378870 0.068628 0.355948
#
# Coordination Sequence:
#
# PCOD9259149 Si02
#       7
#     8   8   8   8   8   8   8
#     4   9  18  33  58  91 125 164 212 253 320 384
#     4  11  21  38  62  98 125 169 224 254 319 409
#     4  10  21  35  60  96 128 162 211 269 322 394
#     4  11  22  40  62  97 130 158 221 283 331 395
#     4  12  24  42  61  90 133 173 205 268 343 395
#     4  10  18  34  60  91 124 165 205 269 324 375
#     4  11  20  36  62  92 127 166 209 269 327 383
#
# _framework density 19.462567
#
# number of rings (size 3 to 8) (size 9 to 14) (size 15 to 20)
#    0.000    1.429    5.714    1.714    0.000    0.571 
#    2.571    0.000    0.000    5.143    0.000    0.000 
#    0.000    0.000    0.000    0.000    0.000    0.000 
#
# Total GULP energy -156041.808319 kJ/mol
# GULP energy per Si atom -5572.921726 kJ/mol
# Density = 1.941827 g / cm^3
# Si number density = 19.462567 Si / 1000 Ang^3
#
#
#
# Elastic Constant Matrix: (Units=GPa)
#
#
# Indices 1 2 3 4 5 6 
#
# 1 82.6700 40.3418 39.4514 0.0000 18.1742 0.0000
# 2 40.3418 131.2830 42.3919 0.0000 8.5575 0.0000
# 3 39.4514 42.3919 81.0936 0.0000 16.7737 0.0000
# 4 0.0000 0.0000 0.0000 39.0692 0.0000 6.3754
# 5 18.1742 8.5575 16.7737 0.0000 24.7013 0.0000
# 6 0.0000 0.0000 0.0000 6.3754 0.0000 16.5430
#
#
#
# Elastic Compliance Matrix: (Units=1/GPa)
#
#
# Indices 1 2 3 4 5 6 
#
# 1 0.018131 -0.003293 -0.005324 0.000000 -0.008584 0.000000
# 2 -0.003293 0.009762 -0.003843 0.000000 0.001650 0.000000
# 3 -0.005324 -0.003843 0.018434 0.000000 -0.007270 0.000000
# 4 0.000000 0.000000 0.000000 0.027313 0.000000 -0.010526
# 5 -0.008584 0.001650 -0.007270 0.000000 0.051164 0.000000
# 6 0.000000 0.000000 0.000000 -0.010526 0.000000 0.064505
#
#
# Mechanical properties :
#
#
# Convention : Reuss Voigt Hill
#
# Bulk Modulus (GPa) = 46.71003 59.93520 53.32262
# Shear Modulus (GPa) = 22.58723 27.58677 25.08700
#
# Velocity S-wave (km/s) = 3.41038 3.76896 3.59414
# Velocity P-wave (km/s) = 6.28964 7.05706 6.68437
#
# Compressibility (1/GPa) = 0.02140868
#
# Stress axis : x y z
#
# Youngs Moduli (GPa) = 55.15495 102.43571 54.24844
#
# Poissons Ratio (x) = 0.33730 0.28879
# Poissons Ratio (y) = 0.18162 0.20846
# Poissons Ratio (z) = 0.29362 0.39362
#
# Static dielectric constant tensor:
#      x y z
#    x 1.644570 0.000000 0.016170 
#    y 0.000000 1.720210 0.000000 
#    z 0.016170 0.000000 1.735720 
# 
# From -- ./inp_files/160822.got.cif
#   From: 2010.05.17/outbox.cif.g08.bks.cpg/sg15_81_cif.got.tgz:160822.got - 2010.06.03 18:47:42.
