data_PCOD9259153
_publ_section_title
;
Structure prediction by ZEFSAII (Michael W. Deem and Ramdas Pophale) SiO2 
 PCOD9259153
Probable space group: C 2/C
;
_chemical_formula_sum "Si O2"
_cell_formula_units_Z 60
_cell_length_a 16.754604
_cell_length_b 9.249670
_cell_length_c 21.462670
_cell_angle_alpha 90.000000
_cell_angle_beta 112.548406
_cell_angle_gamma 90.000000
_cell_volume 3071.901876
_symmetry_space_group_name_H-M "C 2/C"
_symmetry_group_IT_number 15
_symmetry_cell_setting 'monoclinic'
loop_
_space_group_symop_operation_xyz
x,y,z
-x,y,1/2-z
-x,-y,-z
x,-y,1/2+z
1/2+x,1/2+y,z
1/2-x,1/2+y,1/2-z
1/2-x,1/2-y,-z
1/2+x,1/2-y,1/2+z
loop_
_atom_site_type_symbol
_atom_site_label
_atom_site_fract_x
_atom_site_fract_y
_atom_site_fract_z
Si Si1 0.074553 0.728370 0.144414
Si Si2 0.638194 0.922734 0.181979
Si Si3 0.000000 0.191774 0.750000
Si Si4 0.696130 0.489450 0.192421
Si Si5 0.562778 0.586375 0.970460
Si Si6 0.146975 0.973938 0.371168
Si Si7 0.705664 0.270962 0.598637
Si Si8 0.402317 0.323838 0.741572
O O1 0.094353 0.562552 0.140090
O O2 0.049271 0.727412 0.209829
O O3 0.997611 0.794245 0.080706
O O4 0.155369 0.837468 0.159292
O O5 0.643535 0.811225 0.127708
O O6 0.605778 0.837657 0.233463
O O7 0.733655 0.965077 0.233334
O O8 0.073565 0.103983 0.807999
O O9 0.735514 0.590892 0.149879
O O10 0.619797 0.573202 0.206162
O O11 0.605008 0.495419 0.926130
O O12 0.500000 0.500000 0.000000
O O13 0.644666 0.662089 0.027709
O O14 0.223119 0.851632 0.398301
O O15 0.158468 0.121481 0.334057
O O16 0.500000 0.338778 0.750000
#
# Coordination Sequence:
#
# PCOD9259153 Si02
#       8
#     8   8   4   8   8   8   8   8
#     4  11  21  38  62  91 128 166 215 269 330 397
#     4  11  24  36  64  97 131 161 207 283 347 390
#     4  10  18  34  60  92 118 156 208 272 336 386
#     4  11  20  39  66  95 126 165 218 270 346 397
#     4  11  24  42  65  91 123 186 231 260 319 406
#     4  11  20  38  66  91 128 163 221 273 331 385
#     4  11  23  40  64  93 127 171 225 267 324 406
#     4  11  21  37  61  99 128 165 206 273 342 395
#
# _framework density 19.531874999999999
#
# number of rings (size 3 to 8) (size 9 to 14) (size 15 to 20)
#    0.000    1.067    4.667    3.600    2.800    0.533 
#    0.000    0.000    0.000    1.600    0.000    0.000 
#    0.000    0.000    0.000    0.000    0.000    0.000 
#
# Total GULP energy -167057.501177 kJ/mol
# GULP energy per Si atom -5568.583373 kJ/mol
# Density = 1.948742 g / cm^3
# Si number density = 19.531875 Si / 1000 Ang^3
#
#
#
# Elastic Constant Matrix: (Units=GPa)
#
#
# Indices 1 2 3 4 5 6 
#
# 1 79.6630 21.2059 11.8095 0.0000 -12.3871 0.0000
# 2 21.2059 93.3168 16.0797 0.0000 -11.7709 0.0000
# 3 11.8095 16.0797 69.9273 0.0000 -11.1067 0.0000
# 4 0.0000 0.0000 0.0000 27.8174 0.0000 -3.8003
# 5 -12.3871 -11.7709 -11.1067 0.0000 28.7861 0.0000
# 6 0.0000 0.0000 0.0000 -3.8003 0.0000 18.7864
#
#
#
# Elastic Compliance Matrix: (Units=1/GPa)
#
#
# Indices 1 2 3 4 5 6 
#
# 1 0.014082 -0.002427 -0.001082 0.000000 0.004650 0.000000
# 2 -0.002427 0.011982 -0.001846 0.000000 0.003143 0.000000
# 3 -0.001082 -0.001846 0.015675 0.000000 0.004827 0.000000
# 4 0.000000 0.000000 0.000000 0.036970 0.000000 0.007479
# 5 0.004650 0.003143 0.004827 0.000000 0.039888 0.000000
# 6 0.000000 0.000000 0.000000 0.007479 0.000000 0.054743
#
#
# Mechanical properties :
#
#
# Convention : Reuss Voigt Hill
#
# Bulk Modulus (GPa) = 32.22772 37.89971 35.06371
# Shear Modulus (GPa) = 25.72101 27.99876 26.85989
#
# Velocity S-wave (km/s) = 3.63281 3.79025 3.71237
# Velocity P-wave (km/s) = 5.84229 6.21296 6.03047
#
# Compressibility (1/GPa) = 0.03102919
#
# Stress axis : x y z
#
# Youngs Moduli (GPa) = 71.01069 83.45622 63.79785
#
# Poissons Ratio (x) = 0.20257 0.06900
# Poissons Ratio (y) = 0.17236 0.11778
# Poissons Ratio (z) = 0.07680 0.15408
#
# Static dielectric constant tensor:
#      x y z
#    x 1.745840 0.000000 -0.025330 
#    y 0.000000 1.775530 0.000000 
#    z -0.025330 0.000000 1.686110 
# 
# From -- ./inp_files/247861.got.cif
#   From: 2010.05.17/outbox.cif.g08.bks.cpg/sg15_124_cif.got.tgz:247861.got - 2010.06.03 18:47:42.
