data_PCOD9259972
_publ_section_title
;
Structure prediction by ZEFSAII (Michael W. Deem and Ramdas Pophale) SiO2 
 PCOD9259972
Probable space group: C 2/C
;
_chemical_formula_sum "Si O2"
_cell_formula_units_Z 56
_cell_length_a 9.076285
_cell_length_b 28.406405
_cell_length_c 18.939955
_cell_angle_alpha 90.000000
_cell_angle_beta 37.091742
_cell_angle_gamma 90.000000
_cell_volume 2945.015932
_symmetry_space_group_name_H-M "C 2/C"
_symmetry_group_IT_number 15
_symmetry_cell_setting 'monoclinic'
loop_
_space_group_symop_operation_xyz
x,y,z
-x,y,1/2-z
-x,-y,-z
x,-y,1/2+z
1/2+x,1/2+y,z
1/2-x,1/2+y,1/2-z
1/2-x,1/2-y,-z
1/2+x,1/2-y,1/2+z
loop_
_atom_site_type_symbol
_atom_site_label
_atom_site_fract_x
_atom_site_fract_y
_atom_site_fract_z
Si Si1 0.200630 0.004679 0.607137
Si Si2 0.861259 0.187925 0.729095
Si Si3 0.449804 0.855581 0.691316
Si Si4 0.985807 0.095558 0.341157
Si Si5 0.434080 0.165423 0.979591
Si Si6 0.204317 0.891318 0.056146
Si Si7 0.715865 0.229794 0.342648
O O1 0.170166 0.053380 0.577054
O O2 0.000000 0.008135 0.750000
O O3 0.500000 0.000000 0.500000
O O4 0.123218 0.955464 0.601450
O O5 0.578189 0.181455 0.855901
O O6 0.899008 0.226049 0.653765
O O7 0.000000 0.200519 0.750000
O O8 0.964394 0.137966 0.665454
O O9 0.500000 0.838230 0.750000
O O10 0.685277 0.874164 0.559924
O O11 0.324489 0.814571 0.693666
O O12 0.256306 0.897966 0.766669
O O13 0.817443 0.137840 0.433782
O O14 0.000000 0.100371 0.250000
O O15 0.600819 0.128060 0.959886
O O16 0.404623 0.211584 0.039256
O O17 0.000000 0.237617 0.250000
#
# Coordination Sequence:
#
# PCOD9259972 Si02
#       7
#     8   8   8   8   8   8   8
#     4  11  20  32  65  99 123 158 207 253 316 360
#     4  10  23  36  55  86 121 161 188 234 309 361
#     4  11  22  39  63  83 115 159 206 246 300 360
#     4  11  18  37  61  92 115 151 200 258 293 349
#     4  10  18  36  60  81 121 147 195 249 293 343
#     4  10  20  38  56  88 127 151 193 253 295 361
#     4  11  21  38  59  85 115 152 204 252 292 350
#
# _framework density 19.015176
#
# number of rings (size 3 to 8) (size 9 to 14) (size 15 to 20)
#    0.000    1.429    5.714    2.571    0.000    6.857 
#    2.571    0.714    0.000    0.857    0.000    0.000 
#    0.000    0.000    0.000    0.000    0.000    0.000 
#
# Total GULP energy -156106.970927 kJ/mol
# GULP energy per Si atom -5575.248962 kJ/mol
# Density = 1.897190 g / cm^3
# Si number density = 19.015176 Si / 1000 Ang^3
#
#
#
# Elastic Constant Matrix: (Units=GPa)
#
#
# Indices 1 2 3 4 5 6 
#
# 1 29.3088 10.4091 17.9222 0.0000 0.5445 0.0000
# 2 10.4091 108.9892 30.8930 0.0000 1.4708 0.0000
# 3 17.9222 30.8930 101.6389 0.0001 -6.7243 0.0000
# 4 0.0000 0.0000 0.0001 15.0454 -0.0001 -4.3021
# 5 0.5445 1.4708 -6.7243 -0.0001 15.6325 0.0000
# 6 0.0000 0.0000 0.0000 -4.3021 0.0000 7.5460
#
#
#
# Elastic Compliance Matrix: (Units=1/GPa)
#
#
# Indices 1 2 3 4 5 6 
#
# 1 0.038849 -0.001794 -0.006570 0.000000 -0.004011 0.000000
# 2 -0.001794 0.010206 -0.002928 0.000000 -0.002157 0.000000
# 3 -0.006570 -0.002928 0.012270 0.000000 0.005782 0.000000
# 4 0.000000 0.000000 0.000000 0.079411 0.000000 0.045274
# 5 -0.004011 -0.002157 0.005782 0.000000 0.066799 0.000000
# 6 0.000000 0.000000 0.000000 0.045274 0.000000 0.158333
#
#
# Mechanical properties :
#
#
# Convention : Reuss Voigt Hill
#
# Bulk Modulus (GPa) = 25.81364 39.82061 32.81712
# Shear Modulus (GPa) = 12.45746 19.69229 16.07487
#
# Velocity S-wave (km/s) = 2.56233 3.22158 2.91068
# Velocity P-wave (km/s) = 4.72851 5.90128 5.34714
#
# Compressibility (1/GPa) = 0.03873922
#
# Stress axis : x y z
#
# Youngs Moduli (GPa) = 25.74085 97.98425 81.49981
#
# Poissons Ratio (x) = 0.17576 0.53549
# Poissons Ratio (y) = 0.04617 0.23867
# Poissons Ratio (z) = 0.16913 0.28694
#
# Static dielectric constant tensor:
#      x y z
#    x 1.675150 0.000000 -0.003170 
#    y 0.000000 1.644540 0.000000 
#    z -0.003170 0.000000 1.717710 
# 
# From -- ./inp_files/193817.got.cif
#   From: 2010.05.17/outbox.cif.g08.bks.cpg/sg15_97_cif.got.tgz:193817.got - 2010.06.03 18:47:42.
