data_PCOD9259038
_publ_section_title
;
Structure prediction by ZEFSAII (Michael W. Deem and Ramdas Pophale) SiO2 
 PCOD9259038
Probable space group: C 2/C
;
_chemical_formula_sum "Si O2"
_cell_formula_units_Z 44
_cell_length_a 11.591996
_cell_length_b 18.507698
_cell_length_c 10.798350
_cell_angle_alpha 90.000000
_cell_angle_beta 51.698664
_cell_angle_gamma 90.000000
_cell_volume 1818.050519
_symmetry_space_group_name_H-M "C 2/C"
_symmetry_group_IT_number 15
_symmetry_cell_setting 'monoclinic'
loop_
_space_group_symop_operation_xyz
x,y,z
-x,y,1/2-z
-x,-y,-z
x,-y,1/2+z
1/2+x,1/2+y,z
1/2-x,1/2+y,1/2-z
1/2-x,1/2-y,-z
1/2+x,1/2-y,1/2+z
loop_
_atom_site_type_symbol
_atom_site_label
_atom_site_fract_x
_atom_site_fract_y
_atom_site_fract_z
Si Si1 0.831875 0.532305 0.629107
Si Si2 0.262761 0.336076 0.960472
Si Si3 0.500000 0.152046 0.250000
Si Si4 0.452152 0.650326 0.092524
Si Si5 0.033680 0.318422 0.456181
Si Si6 0.724135 0.547061 0.443152
O O1 0.908021 0.351018 0.449742
O O2 0.844841 0.619447 0.627062
O O3 0.733740 0.512897 0.573231
O O4 0.763520 0.503443 0.801221
O O5 0.378290 0.362002 0.985596
O O6 0.343793 0.361978 0.780945
O O7 0.250000 0.250000 0.000000
O O8 0.522399 0.190826 0.365101
O O9 0.360276 0.101945 0.357404
O O10 0.426419 0.736724 0.099957
O O11 0.410244 0.598238 0.007555
O O12 0.000000 0.500000 0.500000
#
# Coordination Sequence:
#
# PCOD9259038 Si02
#       6
#     8   8   4   8   8   8
#     4  11  20  38  62  94 127 170 213 265 316 380
#     4   9  18  36  56  89 127 159 202 253 332 373
#     4  10  18  34  58  88 126 160 204 262 322 362
#     4  10  20  37  62  90 127 167 207 268 324 377
#     4  10  20  36  62  95 122 163 217 260 318 385
#     4  11  21  39  62  93 127 168 214 266 320 371
#
# _framework density 24.201747000000001
#
# number of rings (size 3 to 8) (size 9 to 14) (size 15 to 20)
#    0.000    1.818    5.455    0.000    0.000    2.909 
#   16.364    0.000    0.000   14.182    0.000    0.000 
#    0.000    0.000    0.000    0.000    0.000    0.000 
#
# Total GULP energy -122763.136427 kJ/mol
# GULP energy per Si atom -5580.142565 kJ/mol
# Density = 2.414666 g / cm^3
# Si number density = 24.201747 Si / 1000 Ang^3
#
#
#
# Elastic Constant Matrix: (Units=GPa)
#
#
# Indices 1 2 3 4 5 6 
#
# 1 161.7972 51.6643 50.2603 0.0000 39.2161 0.0000
# 2 51.6643 119.3402 47.2990 0.0000 15.4716 0.0000
# 3 50.2603 47.2990 73.1681 0.0000 23.0632 0.0000
# 4 0.0000 0.0000 0.0000 38.0541 0.0000 -1.1765
# 5 39.2161 15.4716 23.0632 0.0000 26.9063 0.0000
# 6 0.0000 0.0000 0.0000 -1.1765 0.0000 55.8931
#
#
#
# Elastic Compliance Matrix: (Units=1/GPa)
#
#
# Indices 1 2 3 4 5 6 
#
# 1 0.010461 -0.002181 -0.001871 0.000000 -0.012389 0.000000
# 2 -0.002181 0.011723 -0.006792 0.000000 0.002260 0.000000
# 3 -0.001871 -0.006792 0.023640 0.000000 -0.013631 0.000000
# 4 0.000000 0.000000 0.000000 0.026295 0.000000 0.000553
# 5 -0.012389 0.002260 -0.013631 0.000000 0.065608 0.000000
# 6 0.000000 0.000000 0.000000 0.000553 0.000000 0.017903
#
#
# Mechanical properties :
#
#
# Convention : Reuss Voigt Hill
#
# Bulk Modulus (GPa) = 41.43337 72.52808 56.98073
# Shear Modulus (GPa) = 26.97416 37.84284 32.40850
#
# Velocity S-wave (km/s) = 3.34212 3.95858 3.66334
# Velocity P-wave (km/s) = 5.66128 7.13631 6.44116
#
# Compressibility (1/GPa) = 0.02413513
#
# Stress axis : x y z
#
# Youngs Moduli (GPa) = 95.59273 85.30493 42.30200
#
# Poissons Ratio (x) = 0.18606 0.07913
# Poissons Ratio (y) = 0.20850 0.28733
# Poissons Ratio (z) = 0.17882 0.57941
#
# Static dielectric constant tensor:
#      x y z
#    x 1.924280 0.000000 0.071580 
#    y 0.000000 1.950130 0.000000 
#    z 0.071580 0.000000 1.982630 
# 
# From -- ./inp_files/96131.got.cif
#   From: 2010.05.17/outbox.cif.g08.bks.cpg/sg15_49_cif.got.tgz:96131.got - 2010.06.03 18:47:42.
