data_PCOD9259394
_publ_section_title
;
Structure prediction by ZEFSAII (Michael W. Deem and Ramdas Pophale) SiO2 
 PCOD9259394
Probable space group: C 2/C
;
_chemical_formula_sum "Si O2"
_cell_formula_units_Z 56
_cell_length_a 13.542792
_cell_length_b 12.231482
_cell_length_c 14.182808
_cell_angle_alpha 90.000000
_cell_angle_beta 71.848045
_cell_angle_gamma 90.000000
_cell_volume 2232.440570
_symmetry_space_group_name_H-M "C 2/C"
_symmetry_group_IT_number 15
_symmetry_cell_setting 'monoclinic'
loop_
_space_group_symop_operation_xyz
x,y,z
-x,y,1/2-z
-x,-y,-z
x,-y,1/2+z
1/2+x,1/2+y,z
1/2-x,1/2+y,1/2-z
1/2-x,1/2-y,-z
1/2+x,1/2-y,1/2+z
loop_
_atom_site_type_symbol
_atom_site_label
_atom_site_fract_x
_atom_site_fract_y
_atom_site_fract_z
Si Si1 0.636040 0.065603 0.362941
Si Si2 0.369812 0.796901 0.461643
Si Si3 0.232781 0.912508 0.916880
Si Si4 0.491195 0.399447 0.573881
Si Si5 0.646325 0.519126 0.646911
Si Si6 0.845481 0.386693 0.277048
Si Si7 0.835411 0.239785 0.775586
O O1 0.613981 0.097348 0.477039
O O2 0.611453 0.172931 0.309006
O O3 0.760688 0.043233 0.327936
O O4 0.595319 0.958771 0.319916
O O5 0.250000 0.750000 0.500000
O O6 0.444466 0.703954 0.479950
O O7 0.398936 0.820138 0.344889
O O8 0.309220 0.811233 0.876154
O O9 0.130243 0.879840 0.888341
O O10 0.281541 0.021585 0.856652
O O11 0.199816 0.937265 0.033453
O O12 0.500000 0.500000 0.500000
O O13 0.553784 0.440656 0.645452
O O14 0.612301 0.626386 0.712773
O O15 0.766948 0.305727 0.247526
#
# Coordination Sequence:
#
# PCOD9259394 Si02
#       7
#     8   8   8   8   8   8   8
#     4  10  20  33  57  88 113 155 215 243 283 362
#     4  12  18  36  63  86 124 169 198 247 311 365
#     4  10  20  37  57  90 120 150 200 257 300 355
#     4  10  21  34  61  96 119 152 199 252 322 351
#     4  10  18  35  56  86 114 154 196 246 298 354
#     4  10  20  35  57  88 119 161 209 245 295 368
#     4  10  20  32  54  85 117 154 200 246 291 356
#
# _framework density 25.084654
#
# number of rings (size 3 to 8) (size 9 to 14) (size 15 to 20)
#    0.000    1.714    4.286    1.286    0.000    0.000 
#    0.000   11.429    0.000    3.429   26.000    0.000 
#    0.000    0.000    0.000    0.000    0.000    0.000 
#
# Total GULP energy -156544.450591 kJ/mol
# GULP energy per Si atom -5590.873235 kJ/mol
# Density = 2.502756 g / cm^3
# Si number density = 25.084654 Si / 1000 Ang^3
#
#
#
# Elastic Constant Matrix: (Units=GPa)
#
#
# Indices 1 2 3 4 5 6 
#
# 1 59.6205 22.6519 4.4488 0.0000 -0.6797 0.0000
# 2 22.6519 93.0878 19.0918 0.0000 2.9222 0.0000
# 3 4.4488 19.0918 126.8205 0.0000 4.9290 0.0000
# 4 0.0000 0.0000 0.0000 48.3910 0.0000 8.0631
# 5 -0.6797 2.9222 4.9290 0.0000 16.8035 0.0000
# 6 0.0000 0.0000 0.0000 8.0631 0.0000 26.6882
#
#
#
# Elastic Compliance Matrix: (Units=1/GPa)
#
#
# Indices 1 2 3 4 5 6 
#
# 1 0.018521 -0.004550 -0.000025 0.000000 0.001548 0.000000
# 2 -0.004550 0.012238 -0.001611 0.000000 -0.001840 0.000000
# 3 -0.000025 -0.001611 0.008211 0.000000 -0.002129 0.000000
# 4 0.000000 0.000000 0.000000 0.021760 0.000000 -0.006574
# 5 0.001548 -0.001840 -0.002129 0.000000 0.060519 0.000000
# 6 0.000000 0.000000 0.000000 -0.006574 0.000000 0.039456
#
#
# Mechanical properties :
#
#
# Convention : Reuss Voigt Hill
#
# Bulk Modulus (GPa) = 37.59739 41.32375 39.46057
# Shear Modulus (GPa) = 27.48095 33.93230 30.70662
#
# Velocity S-wave (km/s) = 3.31347 3.68191 3.50254
# Velocity P-wave (km/s) = 5.44605 5.88088 5.66764
#
# Compressibility (1/GPa) = 0.02659759
#
# Stress axis : x y z
#
# Youngs Moduli (GPa) = 53.99249 81.71253 121.78272
#
# Poissons Ratio (x) = 0.37182 0.00303
# Poissons Ratio (y) = 0.24569 0.19622
# Poissons Ratio (z) = 0.00134 0.13166
#
# Static dielectric constant tensor:
#      x y z
#    x 2.042090 0.000000 -0.011020 
#    y 0.000000 1.977240 0.000000 
#    z -0.011020 0.000000 2.023310 
# 
# From -- ./inp_files/152621.got.cif
#   From: 2010.05.17/outbox.cif.g08.bks.cpg/sg15_77_cif.got.tgz:152621.got - 2010.06.03 18:47:42.
