data_PCOD9259383
_publ_section_title
;
Structure prediction by ZEFSAII (Michael W. Deem and Ramdas Pophale) SiO2 
 PCOD9259383
Probable space group: C 2/C
;
_chemical_formula_sum "Si O2"
_cell_formula_units_Z 48
_cell_length_a 17.166841
_cell_length_b 9.950016
_cell_length_c 35.825852
_cell_angle_alpha 90.000000
_cell_angle_beta 155.751126
_cell_angle_gamma 90.000000
_cell_volume 2513.253998
_symmetry_space_group_name_H-M "C 2/C"
_symmetry_group_IT_number 15
_symmetry_cell_setting 'monoclinic'
loop_
_space_group_symop_operation_xyz
x,y,z
-x,y,1/2-z
-x,-y,-z
x,-y,1/2+z
1/2+x,1/2+y,z
1/2-x,1/2+y,1/2-z
1/2-x,1/2-y,-z
1/2+x,1/2-y,1/2+z
loop_
_atom_site_type_symbol
_atom_site_label
_atom_site_fract_x
_atom_site_fract_y
_atom_site_fract_z
Si Si1 0.528404 0.847039 0.118288
Si Si2 0.141321 0.839320 0.902094
Si Si3 0.523941 0.848250 0.599800
Si Si4 0.302722 0.941971 0.896406
Si Si5 0.425882 0.373919 0.112114
Si Si6 0.119465 0.806053 0.272022
O O1 0.474792 0.789466 0.135246
O O2 0.693813 0.765862 0.169424
O O3 0.575203 0.006090 0.139822
O O4 0.345242 0.832564 0.011568
O O5 0.182685 0.872832 0.876987
O O6 0.037296 0.967969 0.874861
O O7 0.638798 0.841859 0.611429
O O8 0.540184 0.722783 0.634431
O O9 0.299083 0.855757 0.492311
O O10 0.195884 0.065441 0.829351
O O11 0.500000 0.000000 0.000000
O O12 0.475611 0.338144 0.175992
O O13 0.000000 0.721260 0.250000
#
# Coordination Sequence:
#
# PCOD9259383 Si02
#       6
#     8   8   8   8   8   8
#     4   9  20  32  54  80 111 142 179 224 281 319
#     4  10  18  35  56  79 108 145 185 222 265 337
#     4   9  19  35  54  77 110 147 177 226 271 328
#     4  11  17  34  58  82 106 141 192 225 263 330
#     4  10  19  32  54  80 109 140 186 219 275 324
#     4  11  19  31  54  85 102 140 185 232 264 321
#
# _framework density 19.098745999999998
#
# number of rings (size 3 to 8) (size 9 to 14) (size 15 to 20)
#    0.000    2.000    6.667    0.000    0.000    2.667 
#    0.000    0.000    3.667    4.000    0.000    0.000 
#    0.000    0.000    0.000    0.000    0.000    0.000 
#
# Total GULP energy -133639.012139 kJ/mol
# GULP energy per Si atom -5568.292172 kJ/mol
# Density = 1.905528 g / cm^3
# Si number density = 19.098746 Si / 1000 Ang^3
#
#
#
# Elastic Constant Matrix: (Units=GPa)
#
#
# Indices 1 2 3 4 5 6 
#
# 1 173.3251 62.8366 7.6094 0.0001 -4.7603 0.0000
# 2 62.8366 59.0684 5.0660 -0.0002 -1.7538 0.0001
# 3 7.6094 5.0660 40.9073 0.0021 -5.6587 -0.0004
# 4 0.0001 -0.0002 0.0021 1.5243 0.0011 -7.6732
# 5 -4.7603 -1.7538 -5.6587 0.0011 28.6143 -0.0002
# 6 0.0000 0.0001 -0.0004 -7.6732 -0.0002 37.4345
#
#
#
# Elastic Compliance Matrix: (Units=1/GPa)
#
#
# Indices 1 2 3 4 5 6 
#
# 1 0.009424 -0.009965 -0.000397 0.000069 0.000878 0.000014
# 2 -0.009965 0.027660 -0.001611 -0.000221 -0.000281 -0.000045
# 3 -0.000397 -0.001611 0.025391 0.001155 0.004856 0.000237
# 4 0.000069 -0.000221 0.001155-20.602249 0.001023 -4.222974
# 5 0.000878 -0.000281 0.004856 0.001023 0.036037 0.000210
# 6 0.000014 -0.000045 0.000237 -4.222974 0.000210 -0.838896
#
#
# Mechanical properties :
#
#
# Convention : Reuss Voigt Hill
#
# Bulk Modulus (GPa) = 25.95484 47.14721 36.55102
# Shear Modulus (GPa) = -0.23468 26.70054 13.23293
#
# Velocity S-wave (km/s) = -0.35092 3.74307 2.63510
# Velocity P-wave (km/s) = 3.66812 6.58942 5.33271
#
# Compressibility (1/GPa) = 0.03852846
#
# Stress axis : x y z
#
# Youngs Moduli (GPa) = 106.11639 36.15375 39.38461
#
# Poissons Ratio (x) = 0.36026 0.01565
# Poissons Ratio (y) = 1.05741 0.06344
# Poissons Ratio (z) = 0.04217 0.05823
#
# Static dielectric constant tensor:
#      x y z
#    x 1.705210 0.000000 0.038720 
#    y 0.000000 1.677010 0.000000 
#    z 0.038720 0.000000 1.706900 
# 
# From -- ./inp_files/208547.got.cif
#   From: 2010.05.17/outbox.cif.g08.bks.cpg/sg15_105_cif.got.tgz:208547.got - 2010.06.03 18:47:42.
