data_PCOD9259443
_publ_section_title
;
Structure prediction by ZEFSAII (Michael W. Deem and Ramdas Pophale) SiO2 
 PCOD9259443
Probable space group: C 2/C
;
_chemical_formula_sum "Si O2"
_cell_formula_units_Z 60
_cell_length_a 9.540627
_cell_length_b 17.589966
_cell_length_c 16.902670
_cell_angle_alpha 90.000000
_cell_angle_beta 118.290541
_cell_angle_gamma 90.000000
_cell_volume 2497.779043
_symmetry_space_group_name_H-M "C 2/C"
_symmetry_group_IT_number 15
_symmetry_cell_setting 'monoclinic'
loop_
_space_group_symop_operation_xyz
x,y,z
-x,y,1/2-z
-x,-y,-z
x,-y,1/2+z
1/2+x,1/2+y,z
1/2-x,1/2+y,1/2-z
1/2-x,1/2-y,-z
1/2+x,1/2-y,1/2+z
loop_
_atom_site_type_symbol
_atom_site_label
_atom_site_fract_x
_atom_site_fract_y
_atom_site_fract_z
Si Si1 0.693184 0.438480 0.597173
Si Si2 0.925229 0.203759 0.854852
Si Si3 0.500000 0.756393 0.250000
Si Si4 0.187430 0.649974 0.677601
Si Si5 0.291447 0.158150 0.396392
Si Si6 0.266883 0.163815 0.980946
Si Si7 0.188552 0.020247 0.275332
Si Si8 0.674754 0.393222 0.030938
O O1 0.792132 0.384791 0.565645
O O2 0.716519 0.442973 0.696736
O O3 0.511777 0.406831 0.541035
O O4 0.722764 0.521852 0.568370
O O5 0.837529 0.202032 0.747166
O O6 0.929002 0.287776 0.895763
O O7 0.084430 0.152795 0.898256
O O8 0.817132 0.158208 0.889127
O O9 0.448135 0.811704 0.306738
O O10 0.637265 0.700179 0.317581
O O11 0.136812 0.651406 0.572826
O O12 0.242290 0.564531 0.709656
O O13 0.284907 0.072480 0.362124
O O14 0.262533 0.147959 0.482070
O O15 0.250000 0.250000 0.000000
O O16 0.000000 0.018567 0.250000
#
# Coordination Sequence:
#
# PCOD9259443 Si02
#       8
#     8   8   4   8   8   8   8   8
#     4  10  21  35  57  93 122 160 213 269 318 367
#     4  10  22  38  62  93 125 164 207 268 320 381
#     4  10  24  42  64  96 126 170 216 270 324 386
#     4  11  24  43  65  92 131 172 211 265 334 384
#     4  11  21  36  66  92 123 166 220 268 312 385
#     4  11  25  40  64  92 132 167 209 266 328 394
#     4  12  21  38  66  95 125 168 223 269 308 383
#     4  10  18  35  57  90 121 152 206 274 317 358
#
# _framework density 24.021341
#
# number of rings (size 3 to 8) (size 9 to 14) (size 15 to 20)
#    0.000    1.333    3.333    2.400    9.333    0.000 
#    0.000    1.333    0.000    2.400    0.000    0.000 
#    0.000    0.000    0.000    0.000    0.000    0.000 
#
# Total GULP energy -167609.693284 kJ/mol
# GULP energy per Si atom -5586.989776 kJ/mol
# Density = 2.396667 g / cm^3
# Si number density = 24.021341 Si / 1000 Ang^3
#
#
#
# Elastic Constant Matrix: (Units=GPa)
#
#
# Indices 1 2 3 4 5 6 
#
# 1 68.8953 12.4957 8.7583 0.0000 -20.4822 0.0000
# 2 12.4957 72.7435 10.9262 0.0000 -14.6788 0.0000
# 3 8.7583 10.9262 118.8365 0.0000 -43.2704 0.0000
# 4 0.0000 0.0000 0.0000 39.5046 0.0000 -15.6884
# 5 -20.4822 -14.6788 -43.2704 0.0000 38.4047 0.0000
# 6 0.0000 0.0000 0.0000 -15.6884 0.0000 33.5735
#
#
#
# Elastic Compliance Matrix: (Units=1/GPa)
#
#
# Indices 1 2 3 4 5 6 
#
# 1 0.018228 -0.000962 0.003647 0.000000 0.013463 0.000000
# 2 -0.000962 0.015047 0.001008 0.000000 0.006374 0.000000
# 3 0.003647 0.001008 0.015095 0.000000 0.019337 0.000000
# 4 0.000000 0.000000 0.000000 0.031081 0.000000 0.014524
# 5 0.013463 0.006374 0.019337 0.000000 0.057442 0.000000
# 6 0.000000 0.000000 0.000000 0.014524 0.000000 0.036572
#
#
# Mechanical properties :
#
#
# Convention : Reuss Voigt Hill
#
# Bulk Modulus (GPa) = 17.93532 36.09285 27.01408
# Shear Modulus (GPa) = 27.07615 37.51623 32.29619
#
# Velocity S-wave (km/s) = 3.36098 3.95623 3.67069
# Velocity P-wave (km/s) = 4.74807 5.99391 5.40699
#
# Compressibility (1/GPa) = 0.05575590
#
# Stress axis : x y z
#
# Youngs Moduli (GPa) = 54.86032 66.45853 66.24924
#
# Poissons Ratio (x) = 0.06396 -0.24162
# Poissons Ratio (y) = 0.05279 -0.06680
# Poissons Ratio (z) = -0.20008 -0.06701
#
# Static dielectric constant tensor:
#      x y z
#    x 2.642620 0.000000 0.358900 
#    y 0.000000 1.884520 0.000000 
#    z 0.358900 0.000000 2.079360 
# 
# From -- ./inp_files/197897.got.cif
#   From: 2010.05.17/outbox.cif.g08.bks.cpg/sg15_99_cif.got.tgz:197897.got - 2010.06.03 18:47:42.
