data_PCOD9259728
_publ_section_title
;
Structure prediction by ZEFSAII (Michael W. Deem and Ramdas Pophale) SiO2 
 PCOD9259728
Probable space group: C 2/C
;
_chemical_formula_sum "Si O2"
_cell_formula_units_Z 28
_cell_length_a 20.142080
_cell_length_b 6.935797
_cell_length_c 9.678801
_cell_angle_alpha 90.000000
_cell_angle_beta 129.669607
_cell_angle_gamma 90.000000
_cell_volume 1040.795341
_symmetry_space_group_name_H-M "C 2/C"
_symmetry_group_IT_number 15
_symmetry_cell_setting 'monoclinic'
loop_
_space_group_symop_operation_xyz
x,y,z
-x,y,1/2-z
-x,-y,-z
x,-y,1/2+z
1/2+x,1/2+y,z
1/2-x,1/2+y,1/2-z
1/2-x,1/2-y,-z
1/2+x,1/2-y,1/2+z
loop_
_atom_site_type_symbol
_atom_site_label
_atom_site_fract_x
_atom_site_fract_y
_atom_site_fract_z
Si Si1 0.672905 0.988063 0.845632
Si Si2 0.500000 0.973063 0.250000
Si Si3 0.781711 0.866239 0.754704
Si Si4 0.553011 0.592256 0.449918
O O1 0.579511 0.926259 0.779343
O O2 0.668993 0.180512 0.743023
O O3 0.720342 0.840183 0.807024
O O4 0.728961 0.051870 0.053413
O O5 0.544460 0.822258 0.417199
O O6 0.851802 0.011336 0.912128
O O7 0.500000 0.515029 0.250000
O O8 0.500000 0.500000 0.500000
#
# Coordination Sequence:
#
# PCOD9259728 Si02
#       4
#     8   4   8   8
#     4  11  24  42  69  96 140 172 221 276 334 392
#     4  10  22  42  68  98 136 172 214 286 328 386
#     4  11  22  43  68 102 131 178 219 278 330 396
#     4  10  18  35  66  97 126 168 223 263 310 395
#
# _framework density 26.902505999999999
#
# number of rings (size 3 to 8) (size 9 to 14) (size 15 to 20)
#    0.857    0.571    2.857    5.143    0.000    2.286 
#    0.000    2.857    3.143    1.714    0.000    0.000 
#    0.000    0.000    0.000    0.000    0.000    0.000 
#
# Total GULP energy -78402.038482 kJ/mol
# GULP energy per Si atom -5600.145606 kJ/mol
# Density = 2.684127 g / cm^3
# Si number density = 26.902506 Si / 1000 Ang^3
#
#
#
# Elastic Constant Matrix: (Units=GPa)
#
#
# Indices 1 2 3 4 5 6 
#
# 1 232.6580 20.6173 59.1327 0.0000 -4.3817 0.0000
# 2 20.6173 65.5476 11.6432 0.0000 5.7919 0.0000
# 3 59.1327 11.6432 129.7626 0.0000 -17.5052 0.0000
# 4 0.0000 0.0000 0.0000 37.4279 0.0000 -5.3856
# 5 -4.3817 5.7919 -17.5052 0.0000 62.6676 0.0000
# 6 0.0000 0.0000 0.0000 -5.3856 0.0000 30.6227
#
#
#
# Elastic Compliance Matrix: (Units=1/GPa)
#
#
# Indices 1 2 3 4 5 6 
#
# 1 0.004950 -0.001157 -0.002173 0.000000 -0.000154 0.000000
# 2 -0.001157 0.015993 -0.001162 0.000000 -0.001884 0.000000
# 3 -0.002173 -0.001162 0.009139 0.000000 0.002508 0.000000
# 4 0.000000 0.000000 0.000000 0.027412 0.000000 0.004821
# 5 -0.000154 -0.001884 0.002508 0.000000 0.016821 0.000000
# 6 0.000000 0.000000 0.000000 0.004821 0.000000 0.033503
#
#
# Mechanical properties :
#
#
# Convention : Reuss Voigt Hill
#
# Bulk Modulus (GPa) = 47.39655 67.86162 57.62909
# Shear Modulus (GPa) = 40.37647 48.58199 44.47923
#
# Velocity S-wave (km/s) = 3.87828 4.25414 4.07055
# Velocity P-wave (km/s) = 6.14092 7.02923 6.60004
#
# Compressibility (1/GPa) = 0.02109858
#
# Stress axis : x y z
#
# Youngs Moduli (GPa) = 202.01925 62.52765 109.42070
#
# Poissons Ratio (x) = 0.07237 0.23773
# Poissons Ratio (y) = 0.23383 0.12711
# Poissons Ratio (z) = 0.43891 0.07263
#
# Static dielectric constant tensor:
#      x y z
#    x 2.134470 0.000000 0.090950 
#    y 0.000000 2.310770 0.000000 
#    z 0.090950 0.000000 2.103100 
# 
# From -- ./inp_files/53566.got.cif
#   From: 2010.05.17/outbox.cif.g08.bks.cpg/sg15_27_cif.got.tgz:53566.got - 2010.06.03 18:47:42.
