data_PCOD9259368
_publ_section_title
;
Structure prediction by ZEFSAII (Michael W. Deem and Ramdas Pophale) SiO2 
 PCOD9259368
Probable space group: C 2/C
;
_chemical_formula_sum "Si O2"
_cell_formula_units_Z 44
_cell_length_a 8.147544
_cell_length_b 32.853838
_cell_length_c 8.073737
_cell_angle_alpha 90.000000
_cell_angle_beta 61.542456
_cell_angle_gamma 90.000000
_cell_volume 1900.030200
_symmetry_space_group_name_H-M "C 2/C"
_symmetry_group_IT_number 15
_symmetry_cell_setting 'monoclinic'
loop_
_space_group_symop_operation_xyz
x,y,z
-x,y,1/2-z
-x,-y,-z
x,-y,1/2+z
1/2+x,1/2+y,z
1/2-x,1/2+y,1/2-z
1/2-x,1/2-y,-z
1/2+x,1/2-y,1/2+z
loop_
_atom_site_type_symbol
_atom_site_label
_atom_site_fract_x
_atom_site_fract_y
_atom_site_fract_z
Si Si1 0.917726 0.212071 0.110264
Si Si2 0.000000 0.267963 0.750000
Si Si3 0.263912 0.921559 0.554799
Si Si4 0.849472 0.012835 0.937806
Si Si5 0.461257 0.379738 0.528552
Si Si6 0.873371 0.591482 0.462545
O O1 0.691524 0.208530 0.203972
O O2 0.000155 0.167130 0.044457
O O3 0.000000 0.226505 0.250000
O O4 0.968511 0.240751 0.930456
O O5 0.160364 0.900033 0.761220
O O6 0.480928 0.910701 0.458462
O O7 0.151506 0.905126 0.450702
O O8 0.235460 0.970193 0.583502
O O9 0.000000 0.034875 0.750000
O O10 0.690610 0.045221 0.048267
O O11 0.000000 0.000000 0.000000
O O12 0.317862 0.383463 0.445027
O O13 0.000000 0.607174 0.250000
#
# Coordination Sequence:
#
# PCOD9259368 Si02
#       6
#     8   4   8   8   8   8
#     4  11  22  43  72  98 138 178 205 277 327 396
#     4  10  26  42  66 112 132 164 234 248 332 424
#     4  10  18  35  55  85 115 161 217 247 308 387
#     4  12  21  37  58  81 122 162 206 268 312 363
#     4  10  19  36  62  88 119 165 211 253 319 382
#     4  10  21  35  58  88 116 161 219 263 305 377
#
# _framework density 23.157527999999999
#
# number of rings (size 3 to 8) (size 9 to 14) (size 15 to 20)
#    0.000    1.455    5.455    2.182    3.818    0.000 
#    1.636    0.000    0.000    0.000    0.000    0.000 
#    0.000    0.000    0.000    0.000    0.000    0.000 
#
# Total GULP energy -122643.205484 kJ/mol
# GULP energy per Si atom -5574.691158 kJ/mol
# Density = 2.310482 g / cm^3
# Si number density = 23.157528 Si / 1000 Ang^3
#
#
#
# Elastic Constant Matrix: (Units=GPa)
#
#
# Indices 1 2 3 4 5 6 
#
# 1 218.7547 6.1758 35.8955 0.0000 4.1000 0.0000
# 2 6.1758 60.3873 -2.2312 0.0000 4.2914 0.0000
# 3 35.8955 -2.2312 47.1411 0.0000 6.5748 0.0000
# 4 0.0000 0.0000 0.0000 17.5235 0.0000 4.8199
# 5 4.1000 4.2914 6.5748 0.0000 39.4498 0.0000
# 6 0.0000 0.0000 0.0000 4.8199 0.0000 21.7013
#
#
#
# Elastic Compliance Matrix: (Units=1/GPa)
#
#
# Indices 1 2 3 4 5 6 
#
# 1 0.005254 -0.000702 -0.004063 0.000000 0.000207 0.000000
# 2 -0.000702 0.016835 0.001614 0.000000 -0.002027 0.000000
# 3 -0.004063 0.001614 0.024928 0.000000 -0.003908 0.000000
# 4 0.000000 0.000000 0.000000 0.060779 0.000000 -0.013499
# 5 0.000207 -0.002027 -0.003908 0.000000 0.026199 0.000000
# 6 0.000000 0.000000 0.000000 -0.013499 0.000000 0.049078
#
#
# Mechanical properties :
#
#
# Convention : Reuss Voigt Hill
#
# Bulk Modulus (GPa) = 24.56050 45.10705 34.83378
# Shear Modulus (GPa) = 24.63695 34.83111 29.73403
#
# Velocity S-wave (km/s) = 3.26526 3.88247 3.58717
# Velocity P-wave (km/s) = 4.98446 6.29434 5.67730
#
# Compressibility (1/GPa) = 0.04071578
#
# Stress axis : x y z
#
# Youngs Moduli (GPa) = 190.33384 59.39903 40.11563
#
# Poissons Ratio (x) = 0.04171 0.16298
# Poissons Ratio (y) = 0.13365 -0.06476
# Poissons Ratio (z) = 0.77328 -0.09588
#
# Static dielectric constant tensor:
#      x y z
#    x 1.962610 0.000000 0.031460 
#    y 0.000000 1.811870 0.000000 
#    z 0.031460 0.000000 1.946230 
# 
# From -- ./inp_files/26010.got.cif
#   From: 2010.05.17/outbox.cif.g08.bks.cpg/sg15_14_cif.got.tgz:26010.got - 2010.06.03 18:47:42.
