data_PCOD9259424
_publ_section_title
;
Structure prediction by ZEFSAII (Michael W. Deem and Ramdas Pophale) SiO2 
 PCOD9259424
Probable space group: C 2/C
;
_chemical_formula_sum "Si O2"
_cell_formula_units_Z 48
_cell_length_a 9.110496
_cell_length_b 16.145297
_cell_length_c 24.544844
_cell_angle_alpha 90.000000
_cell_angle_beta 43.605685
_cell_angle_gamma 90.000000
_cell_volume 2490.021766
_symmetry_space_group_name_H-M "C 2/C"
_symmetry_group_IT_number 15
_symmetry_cell_setting 'monoclinic'
loop_
_space_group_symop_operation_xyz
x,y,z
-x,y,1/2-z
-x,-y,-z
x,-y,1/2+z
1/2+x,1/2+y,z
1/2-x,1/2+y,1/2-z
1/2-x,1/2-y,-z
1/2+x,1/2-y,1/2+z
loop_
_atom_site_type_symbol
_atom_site_label
_atom_site_fract_x
_atom_site_fract_y
_atom_site_fract_z
Si Si1 0.124977 0.725779 0.851797
Si Si2 0.978435 0.589811 0.075032
Si Si3 0.747178 0.429472 0.107851
Si Si4 0.114604 0.825945 0.323147
Si Si5 0.264852 0.184793 0.411699
Si Si6 0.183875 0.768368 0.415287
O O1 0.164050 0.645937 0.879433
O O2 0.249841 0.711150 0.762303
O O3 0.220286 0.803766 0.859525
O O4 0.877518 0.731967 0.904978
O O5 0.815664 0.513793 0.118656
O O6 0.855781 0.674077 0.092775
O O7 0.112320 0.608000 0.094068
O O8 0.142313 0.572998 0.981303
O O9 0.498075 0.410558 0.165319
O O10 0.233953 0.823554 0.348423
O O11 0.915296 0.763138 0.386271
O O12 0.034896 0.197452 0.500708
#
# Coordination Sequence:
#
# PCOD9259424 Si02
#       6
#     8   8   8   8   8   8
#     4  11  22  33  57  84 116 149 188 231 292 342
#     4  10  19  34  58  82 107 143 193 237 277 327
#     4  10  19  35  55  81 109 148 187 229 287 342
#     4  10  19  37  56  79 113 158 185 229 288 346
#     4  10  18  35  57  82 111 147 189 240 275 326
#     4  11  19  36  58  88 109 145 193 243 272 335
#
# _framework density 19.276941000000001
#
# number of rings (size 3 to 8) (size 9 to 14) (size 15 to 20)
#    0.000    1.667    5.000    4.000    0.000    0.000 
#    0.000    9.167    0.000    4.000    0.000    0.000 
#    0.000    0.000    0.000    0.000    0.000    0.000 
#
# Total GULP energy -133800.376277 kJ/mol
# GULP energy per Si atom -5575.015678 kJ/mol
# Density = 1.923307 g / cm^3
# Si number density = 19.276941 Si / 1000 Ang^3
#
#
#
# Elastic Constant Matrix: (Units=GPa)
#
#
# Indices 1 2 3 4 5 6 
#
# 1 -242.4977 67.5599 -297.4382 0.0082 27.9568 -0.0089
# 2 67.5599 67.2540 37.1643 -0.0020 -5.4494 0.0018
# 3 -297.4382 37.1643 -201.5999 0.0078 29.9062 -0.0082
# 4 0.0082 -0.0020 0.0078 10.8221 -0.0002 1.2893
# 5 27.9568 -5.4494 29.9062 -0.0002 20.5309 -0.0002
# 6 -0.0089 0.0018 -0.0082 1.2893 -0.0002 32.6790
#
#
#
# Elastic Compliance Matrix: (Units=1/GPa)
#
#
# Indices 1 2 3 4 5 6 
#
# 1 0.005445 -0.000938 -0.007682 0.000001 0.003528 0.000000
# 2 -0.000938 0.013656 0.003806 0.000001 -0.000642 0.000000
# 3 -0.007682 0.003806 0.007218 0.000001 0.000957 -0.000001
# 4 0.000001 0.000001 0.000001 0.092839 -0.000003 -0.003663
# 5 0.003528 -0.000642 0.000957 -0.000003 0.042338 0.000002
# 6 0.000000 0.000000 -0.000001 -0.003663 0.000002 0.030745
#
#
# Mechanical properties :
#
#
# Convention : Reuss Voigt Hill
#
# Bulk Modulus (GPa) = 59.91615 -84.69684 -12.39035
# Shear Modulus (GPa) = 24.10414 0.53110 12.31762
#
# Velocity S-wave (km/s) = 3.53995 0.52546 2.53055
# Velocity P-wave (km/s) = 6.91792 6.60788 1.44802
#
# Compressibility (1/GPa) = 0.01668999
#
# Stress axis : x y z
#
# Youngs Moduli (GPa) = 183.67083 73.22764 138.54380
#
# Poissons Ratio (x) = 0.06870 1.06435
# Poissons Ratio (y) = 0.17232 -0.52734
# Poissons Ratio (z) = 1.41104 -0.27873
#
# Static dielectric constant tensor:
#      x y z
#    x 1.721840 0.000000 0.021110 
#    y 0.000000 1.680820 0.000000 
#    z 0.021110 0.000000 1.698730 
# 
# From -- ./inp_files/190227.got.cif
#   From: 2010.05.17/outbox.cif.g08.bks.cpg/sg15_96_cif.got.tgz:190227.got - 2010.06.03 18:47:42.
