data_PCOD9259670
_publ_section_title
;
Structure prediction by ZEFSAII (Michael W. Deem and Ramdas Pophale) SiO2 
 PCOD9259670
Probable space group: C 2/C
;
_chemical_formula_sum "Si O2"
_cell_formula_units_Z 44
_cell_length_a 14.191661
_cell_length_b 8.045211
_cell_length_c 19.959097
_cell_angle_alpha 90.000000
_cell_angle_beta 52.830671
_cell_angle_gamma 90.000000
_cell_volume 1815.891996
_symmetry_space_group_name_H-M "C 2/C"
_symmetry_group_IT_number 15
_symmetry_cell_setting 'monoclinic'
loop_
_space_group_symop_operation_xyz
x,y,z
-x,y,1/2-z
-x,-y,-z
x,-y,1/2+z
1/2+x,1/2+y,z
1/2-x,1/2+y,1/2-z
1/2-x,1/2-y,-z
1/2+x,1/2-y,1/2+z
loop_
_atom_site_type_symbol
_atom_site_label
_atom_site_fract_x
_atom_site_fract_y
_atom_site_fract_z
Si Si1 0.015604 0.458444 0.404080
Si Si2 0.666709 0.879089 0.732478
Si Si3 0.558247 0.714211 0.971822
Si Si4 0.500000 0.306778 0.750000
Si Si5 0.811429 0.428886 0.399639
Si Si6 0.088341 0.968644 0.328347
O O1 0.031342 0.280222 0.432823
O O2 0.876217 0.458454 0.442827
O O3 0.077872 0.491327 0.306851
O O4 0.066954 0.606695 0.428387
O O5 0.674445 0.902643 0.649629
O O6 0.792256 0.934928 0.706094
O O7 0.627157 0.699734 0.773501
O O8 0.678473 0.641939 0.952556
O O9 0.526760 0.590022 0.924451
O O10 0.613223 0.201665 0.677093
O O11 0.481444 0.422767 0.693828
#
# Coordination Sequence:
#
# PCOD9259670 Si02
#       6
#     8   8   8   4   8   8
#     4  10  18  35  63  80 116 153 190 237 299 351
#     4  10  20  37  60  84 111 148 195 237 298 337
#     4   9  21  36  57  87 114 151 194 237 296 356
#     4  12  22  34  58  86 114 146 202 236 286 344
#     4  11  21  37  60  86 113 155 195 242 288 356
#     4  10  22  36  58  85 114 146 192 248 282 355
#
# _framework density 24.230516000000001
#
# number of rings (size 3 to 8) (size 9 to 14) (size 15 to 20)
#    0.000    1.818    1.818    3.818    5.091    0.000 
#    0.000    0.909    4.000    6.545    0.000    0.000 
#    0.000    0.000    0.000    0.000    0.000    0.000 
#
# Total GULP energy -122870.516810 kJ/mol
# GULP energy per Si atom -5585.023491 kJ/mol
# Density = 2.417537 g / cm^3
# Si number density = 24.230516 Si / 1000 Ang^3
#
#
#
# Elastic Constant Matrix: (Units=GPa)
#
#
# Indices 1 2 3 4 5 6 
#
# 1 104.7147 35.2048 27.5463 0.0000 10.9159 0.0000
# 2 35.2048 91.0278 27.2844 0.0000 -9.1789 0.0001
# 3 27.5463 27.2844 41.4968 0.0000 -3.5936 0.0000
# 4 0.0000 0.0000 0.0000 83.3585 0.0000 24.3820
# 5 10.9159 -9.1789 -3.5936 0.0000 36.3772 0.0000
# 6 0.0000 0.0001 0.0000 24.3820 0.0000 46.8296
#
#
#
# Elastic Compliance Matrix: (Units=1/GPa)
#
#
# Indices 1 2 3 4 5 6 
#
# 1 0.013129 -0.003585 -0.006836 0.000000 -0.005519 0.000000
# 2 -0.003585 0.014907 -0.007063 0.000000 0.004139 0.000000
# 3 -0.006836 -0.007063 0.033590 0.000000 0.003587 0.000000
# 4 0.000000 0.000000 0.000000 0.014151 0.000000 -0.007368
# 5 -0.005519 0.004139 0.003587 0.000000 0.030545 0.000000
# 6 0.000000 0.000000 0.000000 -0.007368 0.000000 0.025190
#
#
# Mechanical properties :
#
#
# Convention : Reuss Voigt Hill
#
# Bulk Modulus (GPa) = 37.51186 46.36782 41.93984
# Shear Modulus (GPa) = 28.51183 43.12667 35.81925
#
# Velocity S-wave (km/s) = 3.43401 4.22340 3.84900
# Velocity P-wave (km/s) = 5.58911 6.55443 6.09092
#
# Compressibility (1/GPa) = 0.02665824
#
# Stress axis : x y z
#
# Youngs Moduli (GPa) = 76.16923 67.08446 29.77034
#
# Poissons Ratio (x) = 0.24050 0.20350
# Poissons Ratio (y) = 0.27307 0.21026
# Poissons Ratio (z) = 0.52068 0.47381
#
# Static dielectric constant tensor:
#      x y z
#    x 1.970170 0.000000 0.066330 
#    y 0.000000 1.951940 0.000000 
#    z 0.066330 0.000000 1.987530 
# 
# From -- ./inp_files/202542.got.cif
#   From: 2010.05.17/outbox.cif.g08.bks.cpg/sg15_102_cif.got.tgz:202542.got - 2010.06.03 18:47:42.
