data_PCOD9259506
_publ_section_title
;
Structure prediction by ZEFSAII (Michael W. Deem and Ramdas Pophale) SiO2 
 PCOD9259506
Probable space group: C 2/C
;
_chemical_formula_sum "Si O2"
_cell_formula_units_Z 44
_cell_length_a 17.114977
_cell_length_b 8.888218
_cell_length_c 13.854052
_cell_angle_alpha 90.000000
_cell_angle_beta 92.866174
_cell_angle_gamma 90.000000
_cell_volume 2104.864828
_symmetry_space_group_name_H-M "C 2/C"
_symmetry_group_IT_number 15
_symmetry_cell_setting 'monoclinic'
loop_
_space_group_symop_operation_xyz
x,y,z
-x,y,1/2-z
-x,-y,-z
x,-y,1/2+z
1/2+x,1/2+y,z
1/2-x,1/2+y,1/2-z
1/2-x,1/2-y,-z
1/2+x,1/2-y,1/2+z
loop_
_atom_site_type_symbol
_atom_site_label
_atom_site_fract_x
_atom_site_fract_y
_atom_site_fract_z
Si Si1 0.400399 0.481765 0.065058
Si Si2 0.444235 0.992058 0.405046
Si Si3 0.182444 0.250525 0.074607
Si Si4 0.347589 0.564534 0.253083
Si Si5 0.564416 0.337738 0.110940
Si Si6 0.000000 0.270343 0.250000
O O1 0.334006 0.508064 0.142500
O O2 0.479715 0.417817 0.118621
O O3 0.380375 0.358729 0.981987
O O4 0.415682 0.629066 0.000712
O O5 0.436382 0.161899 0.367529
O O6 0.500000 0.000000 0.500000
O O7 0.360673 0.910098 0.415765
O O8 0.489553 0.880333 0.337988
O O9 0.203778 0.170211 0.178430
O O10 0.250000 0.250000 0.000000
O O11 0.373124 0.421370 0.317786
O O12 0.423682 0.668500 0.241084
#
# Coordination Sequence:
#
# PCOD9259506 Si02
#       6
#     8   8   8   8   8   4
#     4  10  18  35  59  79 113 155 189 234 304 350
#     4  11  21  34  55  88 111 142 193 249 294 337
#     4  10  23  41  56  80 124 161 191 241 303 359
#     4  10  19  36  57  83 113 150 198 233 292 357
#     4  10  19  31  58  89 109 142 192 249 288 348
#     4  10  20  30  54  86 120 136 180 254 296 334
#
# _framework density 20.903955
#
# number of rings (size 3 to 8) (size 9 to 14) (size 15 to 20)
#    0.000    1.818    3.636    1.091    2.545    0.000 
#    0.000   10.909    0.000    0.000    0.000    0.000 
#    0.000    0.000    0.000    0.000    0.000    0.000 
#
# Total GULP energy -122660.297035 kJ/mol
# GULP energy per Si atom -5575.468047 kJ/mol
# Density = 2.085638 g / cm^3
# Si number density = 20.903955 Si / 1000 Ang^3
#
#
#
# Elastic Constant Matrix: (Units=GPa)
#
#
# Indices 1 2 3 4 5 6 
#
# 1 15.1676 -1.1692 10.1146 0.0000 -16.3742 0.0000
# 2 -1.1692 121.9228 28.5628 0.0000 -4.0753 0.0000
# 3 10.1146 28.5628 107.6058 0.0000 -24.6534 0.0000
# 4 0.0000 0.0000 0.0000 35.2181 0.0000 -3.1957
# 5 -16.3742 -4.0753 -24.6534 0.0000 31.2217 0.0000
# 6 0.0000 0.0000 0.0000 -3.1957 0.0000 3.9089
#
#
#
# Elastic Compliance Matrix: (Units=1/GPa)
#
#
# Indices 1 2 3 4 5 6 
#
# 1 0.155386 0.003400 0.003985 0.000000 0.085082 0.000000
# 2 0.003400 0.008838 -0.002433 0.000000 0.001016 0.000000
# 3 0.003985 -0.002433 0.012173 0.000000 0.011384 0.000000
# 4 0.000000 0.000000 0.000000 0.030670 0.000000 0.025074
# 5 0.085082 0.001016 0.011384 0.000000 0.085772 0.000000
# 6 0.000000 0.000000 0.000000 0.025074 0.000000 0.276328
#
#
# Mechanical properties :
#
#
# Convention : Reuss Voigt Hill
#
# Bulk Modulus (GPa) = 5.36765 35.52362 20.44564
# Shear Modulus (GPa) = 8.04684 27.88228 17.96456
#
# Velocity S-wave (km/s) = 1.96413 3.65612 2.93471
# Velocity P-wave (km/s) = 2.77796 5.90369 4.61360
#
# Compressibility (1/GPa) = 0.18630115
#
# Stress axis : x y z
#
# Youngs Moduli (GPa) = 6.43561 113.14212 82.15175
#
# Poissons Ratio (x) = -0.38474 -0.32735
# Poissons Ratio (y) = -0.02188 0.19987
# Poissons Ratio (z) = -0.02564 0.27527
#
# Static dielectric constant tensor:
#      x y z
#    x 1.782930 0.000000 0.010550 
#    y 0.000000 1.886150 0.000000 
#    z 0.010550 0.000000 1.813160 
# 
# From -- ./inp_files/159223.got.cif
#   From: 2010.05.17/outbox.cif.g08.bks.cpg/sg15_80_cif.got.tgz:159223.got - 2010.06.03 18:47:42.
