data_PCOD9259458
_publ_section_title
;
Structure prediction by ZEFSAII (Michael W. Deem and Ramdas Pophale) SiO2 
 PCOD9259458
Probable space group: C 2/C
;
_chemical_formula_sum "Si O2"
_cell_formula_units_Z 56
_cell_length_a 14.103676
_cell_length_b 7.908817
_cell_length_c 25.017260
_cell_angle_alpha 90.000000
_cell_angle_beta 54.051852
_cell_angle_gamma 90.000000
_cell_volume 2259.053510
_symmetry_space_group_name_H-M "C 2/C"
_symmetry_group_IT_number 15
_symmetry_cell_setting 'monoclinic'
loop_
_space_group_symop_operation_xyz
x,y,z
-x,y,1/2-z
-x,-y,-z
x,-y,1/2+z
1/2+x,1/2+y,z
1/2-x,1/2+y,1/2-z
1/2-x,1/2-y,-z
1/2+x,1/2-y,1/2+z
loop_
_atom_site_type_symbol
_atom_site_label
_atom_site_fract_x
_atom_site_fract_y
_atom_site_fract_z
Si Si1 0.489903 0.969382 0.308840
Si Si2 0.247363 0.561576 0.332160
Si Si3 0.787930 0.717288 0.260050
Si Si4 0.231332 0.097146 0.385683
Si Si5 0.847447 0.120737 0.495982
Si Si6 0.761448 0.446674 0.055450
Si Si7 0.506870 0.097639 0.574235
O O1 0.500000 0.869018 0.250000
O O2 0.595191 0.103894 0.280172
O O3 0.370768 0.070949 0.341923
O O4 0.479635 0.871290 0.367030
O O5 0.255893 0.713640 0.286852
O O6 0.300964 0.403256 0.280931
O O7 0.288500 0.566098 0.379688
O O8 0.111901 0.507855 0.389125
O O9 0.704845 0.627434 0.331945
O O10 0.218217 0.267973 0.423662
O O11 0.180037 0.941133 0.435492
O O12 0.750000 0.250000 0.500000
O O13 0.970253 0.217487 0.457635
O O14 0.832381 0.962405 0.461197
O O15 0.887146 0.493685 0.987736
#
# Coordination Sequence:
#
# PCOD9259458 Si02
#       7
#     8   8   8   8   8   8   8
#     4   9  17  33  56  76 102 142 181 215 269 321
#     4  10  21  40  54  80 112 150 186 223 274 336
#     4   9  21  37  57  75 108 150 184 221 267 328
#     4  10  18  35  58  82 108 139 183 224 275 327
#     4  10  19  32  55  86 110 135 180 232 278 320
#     4  10  20  34  57  81 113 145 178 226 283 333
#     4  10  20  36  54  83 110 142 182 224 280 326
#
# _framework density 24.789144
#
# number of rings (size 3 to 8) (size 9 to 14) (size 15 to 20)
#    0.000    2.286    2.857    0.857    0.000    2.286 
#    5.143    2.857    0.000    0.000    0.000    0.000 
#    0.000    0.000    0.000    0.000    0.000    0.000 
#
# Total GULP energy -156160.556054 kJ/mol
# GULP energy per Si atom -5577.162716 kJ/mol
# Density = 2.473272 g / cm^3
# Si number density = 24.789144 Si / 1000 Ang^3
#
#
#
# Elastic Constant Matrix: (Units=GPa)
#
#
# Indices 1 2 3 4 5 6 
#
# 1 37.0038 -5.9608 19.5392 0.0000 6.4820 0.0000
# 2 -5.9608 53.3920 32.3593 0.0000 -5.4076 0.0000
# 3 19.5392 32.3593 158.8900 0.0000 20.1675 0.0000
# 4 0.0000 0.0000 0.0000 26.2384 0.0000 14.1257
# 5 6.4820 -5.4076 20.1675 0.0000 40.4169 0.0000
# 6 0.0000 0.0000 0.0000 14.1257 0.0000 24.0517
#
#
#
# Elastic Compliance Matrix: (Units=1/GPa)
#
#
# Indices 1 2 3 4 5 6 
#
# 1 0.030883 0.006213 -0.004847 0.000000 -0.001703 0.000000
# 2 0.006213 0.023767 -0.006279 0.000000 0.005317 0.000000
# 3 -0.004847 -0.006279 0.008729 0.000000 -0.004419 0.000000
# 4 0.000000 0.000000 0.000000 0.055734 0.000000 -0.032733
# 5 -0.001703 0.005317 -0.004419 0.000000 0.027932 0.000000
# 6 0.000000 0.000000 0.000000 -0.032733 0.000000 0.060801
#
#
# Mechanical properties :
#
#
# Convention : Reuss Voigt Hill
#
# Bulk Modulus (GPa) = 18.67322 37.90681 28.29001
# Shear Modulus (GPa) = 21.22931 31.69794 26.46362
#
# Velocity S-wave (km/s) = 2.92960 3.57977 3.27088
# Velocity P-wave (km/s) = 4.35805 5.69309 5.06971
#
# Compressibility (1/GPa) = 0.05355263
#
# Stress axis : x y z
#
# Youngs Moduli (GPa) = 32.38064 42.07484 114.55585
#
# Poissons Ratio (x) = -0.26140 0.55524
# Poissons Ratio (y) = -0.20118 0.71932
# Poissons Ratio (z) = 0.15694 0.26420
#
# Static dielectric constant tensor:
#      x y z
#    x 2.091440 0.000000 0.057350 
#    y 0.000000 2.046580 0.000000 
#    z 0.057350 0.000000 1.991560 
# 
# From -- ./inp_files/246984.got.cif
#   From: 2010.05.17/outbox.cif.g08.bks.cpg/sg15_124_cif.got.tgz:246984.got - 2010.06.03 18:47:42.
