data_PCOD9259294
_publ_section_title
;
Structure prediction by ZEFSAII (Michael W. Deem and Ramdas Pophale) SiO2 
 PCOD9259294
Probable space group: C 2/C
;
_chemical_formula_sum "Si O2"
_cell_formula_units_Z 48
_cell_length_a 10.131251
_cell_length_b 13.612891
_cell_length_c 24.333732
_cell_angle_alpha 90.000000
_cell_angle_beta 36.526967
_cell_angle_gamma 90.000000
_cell_volume 1997.495748
_symmetry_space_group_name_H-M "C 2/C"
_symmetry_group_IT_number 15
_symmetry_cell_setting 'monoclinic'
loop_
_space_group_symop_operation_xyz
x,y,z
-x,y,1/2-z
-x,-y,-z
x,-y,1/2+z
1/2+x,1/2+y,z
1/2-x,1/2+y,1/2-z
1/2-x,1/2-y,-z
1/2+x,1/2-y,1/2+z
loop_
_atom_site_type_symbol
_atom_site_label
_atom_site_fract_x
_atom_site_fract_y
_atom_site_fract_z
Si Si1 0.332150 0.180662 0.763572
Si Si2 0.954956 0.488902 0.414146
Si Si3 0.352958 0.643427 0.972228
Si Si4 0.232481 0.693346 0.836561
Si Si5 0.841063 0.548376 0.257097
Si Si6 0.503082 0.380147 0.543909
O O1 0.500000 0.228834 0.750000
O O2 0.318874 0.227872 0.708754
O O3 0.403505 0.067042 0.731878
O O4 0.091218 0.162795 0.867506
O O5 0.811058 0.563331 0.499400
O O6 0.761268 0.410060 0.458927
O O7 0.143395 0.417148 0.373987
O O8 0.081273 0.568476 0.330826
O O9 0.400580 0.598916 0.017688
O O10 0.250000 0.750000 0.000000
O O11 0.500000 0.693593 0.750000
O O12 0.080274 0.767423 0.922279
O O13 0.609798 0.565351 0.365538
O O14 0.000000 0.595339 0.250000
#
# Coordination Sequence:
#
# PCOD9259294 Si02
#       6
#     8   8   8   8   8   8
#     4  10  22  42  66 100 137 174 234 297 337 400
#     4  11  24  42  68 101 136 180 241 290 346 411
#     4  12  24  40  66 103 138 181 236 291 348 417
#     4  11  25  44  70 103 147 189 229 286 363 433
#     4  10  18  34  65  96 127 167 226 287 332 390
#     4  12  22  42  73 101 137 187 243 289 347 420
#
# _framework density 24.030089
#
# number of rings (size 3 to 8) (size 9 to 14) (size 15 to 20)
#    0.000    1.000    3.333    5.500    2.333    0.000 
#    0.000    4.167    3.667    0.000    0.000    0.000 
#    0.000    0.000    0.000    0.000    0.000    0.000 
#
# Total GULP energy -133624.413126 kJ/mol
# GULP energy per Si atom -5567.683880 kJ/mol
# Density = 2.397540 g / cm^3
# Si number density = 24.030089 Si / 1000 Ang^3
#
#
#
# Elastic Constant Matrix: (Units=GPa)
#
#
# Indices 1 2 3 4 5 6 
#
# 1 65.2502 8.8867 18.2697 0.0004 1.3828 -0.0007
# 2 8.8867 95.7243 32.9272 0.0013 -18.4705 -0.0003
# 3 18.2697 32.9272 166.4058 0.0013 -9.8574 -0.0010
# 4 0.0004 0.0013 0.0013 7.0383 0.0006 -10.7092
# 5 1.3828 -18.4705 -9.8574 0.0006 31.2854 0.0008
# 6 -0.0007 -0.0003 -0.0010 -10.7092 0.0008 8.9840
#
#
#
# Elastic Compliance Matrix: (Units=1/GPa)
#
#
# Indices 1 2 3 4 5 6 
#
# 1 0.015999 -0.001314 -0.001614 -0.000002 -0.001992 -0.000001
# 2 -0.001314 0.012558 -0.001934 0.000004 0.006863 0.000004
# 3 -0.001614 -0.001934 0.006630 0.000000 0.001018 0.000001
# 4 -0.000002 0.000004 0.000000 -0.174599 0.000012 -0.208128
# 5 -0.001992 0.006863 0.001018 0.000012 0.036424 0.000011
# 6 -0.000001 0.000004 0.000001 -0.208128 0.000011 -0.136786
#
#
# Mechanical properties :
#
#
# Convention : Reuss Voigt Hill
#
# Bulk Modulus (GPa) = 39.27550 49.72749 44.50150
# Shear Modulus (GPa) = -22.56710 27.28132 2.35711
#
# Velocity S-wave (km/s) = -3.06783 3.37307 0.99148
# Velocity P-wave (km/s) = 1.95730 5.99241 4.45758
#
# Compressibility (1/GPa) = 0.02546116
#
# Stress axis : x y z
#
# Youngs Moduli (GPa) = 62.50441 79.62930 150.83664
#
# Poissons Ratio (x) = 0.10465 0.24352
# Poissons Ratio (y) = 0.08215 0.29173
# Poissons Ratio (z) = 0.10091 0.15401
#
# Static dielectric constant tensor:
#      x y z
#    x 2.122620 0.000000 0.141740 
#    y 0.000000 1.994790 0.000000 
#    z 0.141740 0.000000 2.105650 
# 
# From -- ./inp_files/311118.got.cif
#   From: 2010.05.17/outbox.cif.g08.bks.cpg/sg15_156_cif.got.tgz:311118.got - 2010.06.03 18:47:42.
