data_PCOD9259254
_publ_section_title
;
Structure prediction by ZEFSAII (Michael W. Deem and Ramdas Pophale) SiO2 
 PCOD9259254
Probable space group: C 2/C
;
_chemical_formula_sum "Si O2"
_cell_formula_units_Z 56
_cell_length_a 16.330915
_cell_length_b 11.449593
_cell_length_c 18.588882
_cell_angle_alpha 90.000000
_cell_angle_beta 48.541267
_cell_angle_gamma 90.000000
_cell_volume 2604.872797
_symmetry_space_group_name_H-M "C 2/C"
_symmetry_group_IT_number 15
_symmetry_cell_setting 'monoclinic'
loop_
_space_group_symop_operation_xyz
x,y,z
-x,y,1/2-z
-x,-y,-z
x,-y,1/2+z
1/2+x,1/2+y,z
1/2-x,1/2+y,1/2-z
1/2-x,1/2-y,-z
1/2+x,1/2-y,1/2+z
loop_
_atom_site_type_symbol
_atom_site_label
_atom_site_fract_x
_atom_site_fract_y
_atom_site_fract_z
Si Si1 0.229960 0.111236 0.512961
Si Si2 0.973882 0.615869 0.349174
Si Si3 0.694372 0.316526 0.770837
Si Si4 0.170516 0.009625 0.908700
Si Si5 0.113935 0.002535 0.213775
Si Si6 0.921954 0.179088 0.638594
Si Si7 0.091091 0.609893 0.759879
O O1 0.250000 0.250000 0.500000
O O2 0.352596 0.067075 0.427192
O O3 0.178527 0.070676 0.617057
O O4 0.157697 0.052543 0.492437
O O5 0.000000 0.649785 0.250000
O O6 0.988770 0.724721 0.393496
O O7 0.054458 0.509797 0.319464
O O8 0.676455 0.403733 0.847722
O O9 0.689063 0.397357 0.703249
O O10 0.808798 0.250992 0.711785
O O11 0.604220 0.216816 0.807325
O O12 0.083179 0.105579 0.932181
O O13 0.286739 0.079615 0.839544
O O14 0.080721 0.915387 0.296654
O O15 0.000000 0.052060 0.250000
O O16 0.000000 0.629531 0.750000
#
# Coordination Sequence:
#
# PCOD9259254 Si02
#       7
#     8   8   8   8   8   8   8
#     4  12  23  39  66  96 123 166 218 254 306 381
#     4  11  19  37  66  94 122 165 210 254 310 371
#     4  10  20  37  64  91 123 166 200 252 319 366
#     4  10  20  37  61  91 124 162 204 256 306 364
#     4  11  24  42  64  89 124 164 213 253 307 377
#     4  10  20  38  64  89 125 162 200 259 314 358
#     4  10  18  34  63  89 123 162 204 246 315 364
#
# _framework density 21.498169999999998
#
# number of rings (size 3 to 8) (size 9 to 14) (size 15 to 20)
#    0.000    1.429    4.286    3.429    0.000    0.000 
#    0.000   11.429    3.143    0.000    0.000    0.000 
#    0.000    0.000    0.000    0.000    0.000    0.000 
#
# Total GULP energy -156377.023647 kJ/mol
# GULP energy per Si atom -5584.893702 kJ/mol
# Density = 2.144924 g / cm^3
# Si number density = 21.498170 Si / 1000 Ang^3
#
#
#
# Elastic Constant Matrix: (Units=GPa)
#
#
# Indices 1 2 3 4 5 6 
#
# 1 110.1148 34.0665 19.3092 0.0000 4.7859 0.0000
# 2 34.0665 86.9134 1.5819 0.0000 16.4381 0.0000
# 3 19.3092 1.5819 56.5958 0.0000 2.3328 0.0000
# 4 0.0000 0.0000 0.0000 15.2272 0.0000 -15.3869
# 5 4.7859 16.4381 2.3328 0.0000 27.2443 0.0000
# 6 0.0000 0.0000 0.0000 -15.3869 0.0000 -19.0812
#
#
#
# Elastic Compliance Matrix: (Units=1/GPa)
#
#
# Indices 1 2 3 4 5 6 
#
# 1 0.011067 -0.004473 -0.003695 0.000000 0.001071 0.000000
# 2 -0.004473 0.014796 0.001453 0.000000 -0.008266 0.000000
# 3 -0.003695 0.001453 0.018965 0.000000 -0.001852 0.000000
# 4 0.000000 0.000000 0.000000 0.036186 0.000000 -0.029180
# 5 0.001071 -0.008266 -0.001852 0.000000 0.041663 0.000000
# 6 0.000000 0.000000 0.000000 -0.029180 0.000000 -0.028877
#
#
# Mechanical properties :
#
#
# Convention : Reuss Voigt Hill
#
# Bulk Modulus (GPa) = 31.84841 40.39324 36.12083
# Shear Modulus (GPa) = 42.48285 17.92250 30.20268
#
# Velocity S-wave (km/s) = 4.45017 2.89048 3.75226
# Velocity P-wave (km/s) = 6.42277 5.47446 5.96749
#
# Compressibility (1/GPa) = 0.03139874
#
# Stress axis : x y z
#
# Youngs Moduli (GPa) = 90.36202 67.58663 52.72754
#
# Poissons Ratio (x) = 0.30231 0.19482
# Poissons Ratio (y) = 0.40419 -0.07663
# Poissons Ratio (z) = 0.33387 -0.09822
#
# Static dielectric constant tensor:
#      x y z
#    x 1.868280 0.000000 -0.024540 
#    y 0.000000 1.783330 0.000000 
#    z -0.024540 0.000000 1.748540 
# 
# From -- ./inp_files/204343.got.cif
#   From: 2010.05.17/outbox.cif.g08.bks.cpg/sg15_103_cif.got.tgz:204343.got - 2010.06.03 18:47:42.
