data_PCOD9259489
_publ_section_title
;
Structure prediction by ZEFSAII (Michael W. Deem and Ramdas Pophale) SiO2 
 PCOD9259489
Probable space group: C 2/C
;
_chemical_formula_sum "Si O2"
_cell_formula_units_Z 60
_cell_length_a 13.939894
_cell_length_b 9.973144
_cell_length_c 22.332848
_cell_angle_alpha 90.000000
_cell_angle_beta 128.000381
_cell_angle_gamma 90.000000
_cell_volume 2446.614578
_symmetry_space_group_name_H-M "C 2/C"
_symmetry_group_IT_number 15
_symmetry_cell_setting 'monoclinic'
loop_
_space_group_symop_operation_xyz
x,y,z
-x,y,1/2-z
-x,-y,-z
x,-y,1/2+z
1/2+x,1/2+y,z
1/2-x,1/2+y,1/2-z
1/2-x,1/2-y,-z
1/2+x,1/2-y,1/2+z
loop_
_atom_site_type_symbol
_atom_site_label
_atom_site_fract_x
_atom_site_fract_y
_atom_site_fract_z
Si Si1 0.847161 0.627512 0.268148
Si Si2 0.459216 0.813156 0.489160
Si Si3 0.614126 0.572344 0.112127
Si Si4 0.500000 0.914048 0.250000
Si Si5 0.592051 0.213081 0.394052
Si Si6 0.717074 0.939717 0.404241
Si Si7 0.308175 0.058017 0.389569
Si Si8 0.136830 0.983659 0.922631
O O1 0.721843 0.653131 0.186331
O O2 0.913271 0.501204 0.261224
O O3 0.808741 0.599378 0.321307
O O4 0.959183 0.732016 0.312316
O O5 0.433384 0.662909 0.460380
O O6 0.434002 0.838350 0.549183
O O7 0.599652 0.850836 0.535981
O O8 0.373675 0.913246 0.419517
O O9 0.679118 0.444556 0.106857
O O10 0.501992 0.541341 0.112002
O O11 0.601384 0.856032 0.335231
O O12 0.664457 0.094469 0.388954
O O13 0.655535 0.355002 0.426481
O O14 0.778809 0.920601 0.492397
O O15 0.181191 0.060857 0.374731
#
# Coordination Sequence:
#
# PCOD9259489 Si02
#       8
#     8   8   8   4   8   8   8   8
#     4   9  21  40  58  87 122 155 200 254 301 364
#     4  10  20  38  61  87 117 160 199 252 300 368
#     4  11  23  36  56  86 128 160 197 244 309 363
#     4   8  18  34  60  82 118 154 188 246 304 344
#     4  10  19  37  65  89 115 151 206 262 309 347
#     4  10  18  35  58  89 116 150 198 253 295 356
#     4  10  22  38  63  89 119 156 206 249 303 358
#     4  12  22  34  62  94 118 158 202 259 303 361
#
# _framework density 24.523682000000001
#
# number of rings (size 3 to 8) (size 9 to 14) (size 15 to 20)
#    0.000    1.867    2.667    1.600    1.867    2.133 
#    0.000    4.000    0.000    0.000    0.000    0.000 
#    0.000    0.000    0.000    0.000    0.000    0.000 
#
# Total GULP energy -167639.615696 kJ/mol
# GULP energy per Si atom -5587.987190 kJ/mol
# Density = 2.446786 g / cm^3
# Si number density = 24.523682 Si / 1000 Ang^3
#
#
#
# Elastic Constant Matrix: (Units=GPa)
#
#
# Indices 1 2 3 4 5 6 
#
# 1 163.0859 3.3214 29.7127 0.0000 -4.1535 0.0000
# 2 3.3214 49.2321 2.2944 0.0000 5.2047 0.0000
# 3 29.7127 2.2944 99.3402 0.0000 8.8639 0.0000
# 4 0.0000 0.0000 0.0000 10.6066 0.0000 0.5392
# 5 -4.1535 5.2047 8.8639 0.0000 39.6456 0.0000
# 6 0.0000 0.0000 0.0000 0.5392 0.0000 9.4242
#
#
#
# Elastic Compliance Matrix: (Units=1/GPa)
#
#
# Indices 1 2 3 4 5 6 
#
# 1 0.006547 -0.000474 -0.002055 0.000000 0.001207 0.000000
# 2 -0.000474 0.020638 -0.000091 0.000000 -0.002739 0.000000
# 3 -0.002055 -0.000091 0.010919 0.000000 -0.002645 0.000000
# 4 0.000000 0.000000 0.000000 0.094556 0.000000 -0.005410
# 5 0.001207 -0.002739 -0.002645 0.000000 0.026301 0.000000
# 6 0.000000 0.000000 0.000000 -0.005410 0.000000 0.106420
#
#
# Mechanical properties :
#
#
# Convention : Reuss Voigt Hill
#
# Bulk Modulus (GPa) = 30.42740 42.47949 36.45345
# Shear Modulus (GPa) = 17.75739 30.35725 24.05732
#
# Velocity S-wave (km/s) = 2.69381 3.52216 3.13546
# Velocity P-wave (km/s) = 4.70211 5.82239 5.29198
#
# Compressibility (1/GPa) = 0.03286512
#
# Stress axis : x y z
#
# Youngs Moduli (GPa) = 152.75314 48.45514 91.58264
#
# Poissons Ratio (x) = 0.02295 0.18819
# Poissons Ratio (y) = 0.07234 0.00830
# Poissons Ratio (z) = 0.31389 0.00439
#
# Static dielectric constant tensor:
#      x y z
#    x 1.951440 0.000000 0.061490 
#    y 0.000000 1.954740 0.000000 
#    z 0.061490 0.000000 1.981930 
# 
# From -- ./inp_files/273876.got.cif
#   From: 2010.05.17/outbox.cif.g08.bks.cpg/sg15_137_cif.got.tgz:273876.got - 2010.06.03 18:47:42.
