data_PCOD9259159
_publ_section_title
;
Structure prediction by ZEFSAII (Michael W. Deem and Ramdas Pophale) SiO2 
 PCOD9259159
Probable space group: C 2/C
;
_chemical_formula_sum "Si O2"
_cell_formula_units_Z 60
_cell_length_a 30.556306
_cell_length_b 10.011721
_cell_length_c 19.047041
_cell_angle_alpha 90.000000
_cell_angle_beta 33.988125
_cell_angle_gamma 90.000000
_cell_volume 3257.356410
_symmetry_space_group_name_H-M "C 2/C"
_symmetry_group_IT_number 15
_symmetry_cell_setting 'monoclinic'
loop_
_space_group_symop_operation_xyz
x,y,z
-x,y,1/2-z
-x,-y,-z
x,-y,1/2+z
1/2+x,1/2+y,z
1/2-x,1/2+y,1/2-z
1/2-x,1/2-y,-z
1/2+x,1/2-y,1/2+z
loop_
_atom_site_type_symbol
_atom_site_label
_atom_site_fract_x
_atom_site_fract_y
_atom_site_fract_z
Si Si1 0.203375 0.955551 0.771153
Si Si2 0.703480 0.435642 0.423628
Si Si3 0.566672 0.589138 0.872739
Si Si4 0.000000 0.717878 0.750000
Si Si5 0.346949 0.771500 0.259980
Si Si6 0.366754 0.145007 0.022688
Si Si7 0.110326 0.919192 0.683633
Si Si8 0.980879 0.352586 0.500605
O O1 0.168855 0.815208 0.789109
O O2 0.293026 0.954070 0.624947
O O3 0.201628 0.973038 0.857200
O O4 0.147061 0.063355 0.808979
O O5 0.791336 0.399090 0.330892
O O6 0.667384 0.292541 0.447855
O O7 0.653457 0.477239 0.557947
O O8 0.578106 0.529462 0.780092
O O9 0.542247 0.742784 0.910623
O O10 0.500000 0.500000 0.000000
O O11 0.066803 0.629073 0.624807
O O12 0.042458 0.819921 0.746962
O O13 0.331597 0.673640 0.346492
O O14 0.437988 0.803323 0.140997
O O15 0.411855 0.144397 0.035971
O O16 0.000000 0.500000 0.500000
#
# Coordination Sequence:
#
# PCOD9259159 Si02
#       8
#     8   8   8   4   8   8   8   8
#     4  10  20  35  60  84 120 160 203 258 300 365
#     4  10  20  34  58  93 122 153 210 263 304 362
#     4  11  20  39  59  87 124 157 206 256 306 362
#     4  10  18  34  60  94 122 154 212 266 312 364
#     4  10  20  36  56  89 121 156 201 255 311 363
#     4  10  20  35  56  89 117 158 201 255 308 360
#     4  10  20  32  61  89 119 157 202 270 308 354
#     4  12  22  36  61  86 123 162 202 244 305 374
#
# _framework density 18.419844000000001
#
# number of rings (size 3 to 8) (size 9 to 14) (size 15 to 20)
#    0.000    1.600    5.333    1.200    1.867    1.067 
#    0.000    0.000    0.000    8.800    0.000    0.000 
#    0.000    0.000    0.000    0.000    0.000    0.000 
#
# Total GULP energy -167246.556260 kJ/mol
# GULP energy per Si atom -5574.885209 kJ/mol
# Density = 1.837792 g / cm^3
# Si number density = 18.419844 Si / 1000 Ang^3
#
#
#
# Elastic Constant Matrix: (Units=GPa)
#
#
# Indices 1 2 3 4 5 6 
#
# 1 100.3413 28.8459 55.9662 0.0000 8.8846 0.0001
# 2 28.8459 68.6847 42.1322 0.0012 15.0639 -0.0006
# 3 55.9662 42.1322 128.5319 0.0019 6.7761 -0.0005
# 4 0.0000 0.0012 0.0019 17.8607 -0.0003 -3.7950
# 5 8.8846 15.0639 6.7761 -0.0003 36.6167 0.0000
# 6 0.0001 -0.0006 -0.0005 -3.7950 0.0000 19.4093
#
#
#
# Elastic Compliance Matrix: (Units=1/GPa)
#
#
# Indices 1 2 3 4 5 6 
#
# 1 0.013587 -0.002268 -0.005098 0.000001 -0.001420 0.000000
# 2 -0.002268 0.020249 -0.005292 -0.000001 -0.006801 0.000000
# 3 -0.005098 -0.005292 0.011668 -0.000001 0.001255 0.000000
# 4 0.000001 -0.000001 -0.000001 0.058416 0.000001 0.011422
# 5 -0.001420 -0.006801 0.001255 0.000001 0.030220 0.000000
# 6 0.000000 0.000000 0.000000 0.011422 0.000000 0.053755
#
#
# Mechanical properties :
#
#
# Convention : Reuss Voigt Hill
#
# Bulk Modulus (GPa) = 49.52896 61.27184 55.40040
# Shear Modulus (GPa) = 22.73347 26.15159 24.44253
#
# Velocity S-wave (km/s) = 3.51691 3.77205 3.64671
# Velocity P-wave (km/s) = 6.59081 7.23238 6.91904
#
# Compressibility (1/GPa) = 0.02019021
#
# Stress axis : x y z
#
# Youngs Moduli (GPa) = 73.59933 49.38476 85.70130
#
# Poissons Ratio (x) = 0.11198 0.43691
# Poissons Ratio (y) = 0.16689 0.45351
# Poissons Ratio (z) = 0.37521 0.26133
#
# Static dielectric constant tensor:
#      x y z
#    x 1.653200 0.000000 -0.021910 
#    y 0.000000 1.635140 0.000000 
#    z -0.021910 0.000000 1.661800 
# 
# From -- ./inp_files/225008.got.cif
#   From: 2010.05.17/outbox.cif.g08.bks.cpg/sg15_113_cif.got.tgz:225008.got - 2010.06.03 18:47:42.
