data_PCOD9259711
_publ_section_title
;
Structure prediction by ZEFSAII (Michael W. Deem and Ramdas Pophale) SiO2 
 PCOD9259711
Probable space group: C 2/C
;
_chemical_formula_sum "Si O2"
_cell_formula_units_Z 56
_cell_length_a 10.959343
_cell_length_b 17.216311
_cell_length_c 13.458943
_cell_angle_alpha 90.000000
_cell_angle_beta 61.226269
_cell_angle_gamma 90.000000
_cell_volume 2225.876684
_symmetry_space_group_name_H-M "C 2/C"
_symmetry_group_IT_number 15
_symmetry_cell_setting 'monoclinic'
loop_
_space_group_symop_operation_xyz
x,y,z
-x,y,1/2-z
-x,-y,-z
x,-y,1/2+z
1/2+x,1/2+y,z
1/2-x,1/2+y,1/2-z
1/2-x,1/2-y,-z
1/2+x,1/2-y,1/2+z
loop_
_atom_site_type_symbol
_atom_site_label
_atom_site_fract_x
_atom_site_fract_y
_atom_site_fract_z
Si Si1 0.542930 0.457437 0.114886
Si Si2 0.500000 0.307003 0.750000
Si Si3 0.739732 0.702542 0.798924
Si Si4 0.757163 0.518111 0.805630
Si Si5 0.235912 0.930459 0.601728
Si Si6 0.532442 0.827823 0.948896
Si Si7 0.500000 0.091566 0.250000
Si Si8 0.717606 0.317801 0.087708
O O1 0.500000 0.461320 0.250000
O O2 0.408269 0.489920 0.114624
O O3 0.677190 0.509829 0.047550
O O4 0.604090 0.371921 0.079964
O O5 0.385634 0.251064 0.741672
O O6 0.610214 0.367790 0.659194
O O7 0.772485 0.611834 0.807390
O O8 0.622832 0.747066 0.912572
O O9 0.672435 0.704242 0.715494
O O10 0.768644 0.480810 0.688399
O O11 0.868690 0.465216 0.817760
O O12 0.372497 0.884221 0.523114
O O13 0.530449 0.856361 0.834704
O O14 0.376134 0.844550 0.044401
O O15 0.750000 0.250000 0.000000
#
# Coordination Sequence:
#
# PCOD9259711 Si02
#       8
#     8   4   8   8   8   8   4   8
#     4  10  18  36  63  83 116 164 214 245 307 381
#     4  10  19  36  65  92 118 166 216 258 327 370
#     4  11  22  40  64  92 130 169 211 268 318 386
#     4  10  18  35  65  86 119 168 210 254 318 373
#     4   9  17  36  60  86 113 164 208 249 309 386
#     4  10  23  38  61  91 128 163 212 264 321 367
#     4  10  21  40  61  96 128 162 214 274 309 376
#     4  12  24  37  62  95 128 169 214 264 321 377
#
# _framework density 25.158625000000001
#
# number of rings (size 3 to 8) (size 9 to 14) (size 15 to 20)
#    0.000    1.714    5.000    2.143    0.000    0.571 
#    0.000    3.571    3.143    0.000    0.000    0.000 
#    0.000    0.000    0.000    0.000    0.000    0.000 
#
# Total GULP energy -156146.369039 kJ/mol
# GULP energy per Si atom -5576.656037 kJ/mol
# Density = 2.510136 g / cm^3
# Si number density = 25.158625 Si / 1000 Ang^3
#
#
#
# Elastic Constant Matrix: (Units=GPa)
#
#
# Indices 1 2 3 4 5 6 
#
# 1 115.5624 26.5899 3.4659 0.0000 -35.5495 0.0000
# 2 26.5899 97.5003 0.2752 0.0000 -15.8173 0.0000
# 3 3.4659 0.2752 50.0105 0.0000 -26.0537 0.0000
# 4 0.0000 0.0000 0.0000 15.6390 0.0000 -16.9384
# 5 -35.5495 -15.8173 -26.0537 0.0000 44.0547 0.0000
# 6 0.0000 0.0000 0.0000 -16.9384 0.0000 64.6121
#
#
#
# Elastic Compliance Matrix: (Units=1/GPa)
#
#
# Indices 1 2 3 4 5 6 
#
# 1 0.012984 -0.001338 0.006237 0.000000 0.013686 0.000000
# 2 -0.001338 0.011319 0.002291 0.000000 0.004339 0.000000
# 3 0.006237 0.002291 0.032666 0.000000 0.025174 0.000000
# 4 0.000000 0.000000 0.000000 0.089298 0.000000 0.023410
# 5 0.013686 0.004339 0.025174 0.000000 0.050188 0.000000
# 6 0.000000 0.000000 0.000000 0.023410 0.000000 0.021614
#
#
# Mechanical properties :
#
#
# Convention : Reuss Voigt Hill
#
# Bulk Modulus (GPa) = 14.01588 35.97056 24.99322
# Shear Modulus (GPa) = 21.98077 40.37729 31.17903
#
# Velocity S-wave (km/s) = 2.95903 4.01048 3.52419
# Velocity P-wave (km/s) = 4.15422 5.98112 5.14934
#
# Compressibility (1/GPa) = 0.07134764
#
# Stress axis : x y z
#
# Youngs Moduli (GPa) = 77.01648 88.34890 30.61326
#
# Poissons Ratio (x) = 0.11825 -0.19094
# Poissons Ratio (y) = 0.10308 -0.07013
# Poissons Ratio (z) = -0.48037 -0.20238
#
# Static dielectric constant tensor:
#      x y z
#    x 1.811450 0.000000 -0.064160 
#    y 0.000000 2.059160 0.000000 
#    z -0.064160 0.000000 2.029320 
# 
# From -- ./inp_files/199479.got.cif
#   From: 2010.05.17/outbox.cif.g08.bks.cpg/sg15_100_cif.got.tgz:199479.got - 2010.06.03 18:47:42.
