data_PCOD9259964
_publ_section_title
;
Structure prediction by ZEFSAII (Michael W. Deem and Ramdas Pophale) SiO2 
 PCOD9259964
Probable space group: C 2/C
;
_chemical_formula_sum "Si O2"
_cell_formula_units_Z 64
_cell_length_a 8.715044
_cell_length_b 19.891391
_cell_length_c 20.106521
_cell_angle_alpha 90.000000
_cell_angle_beta 92.069534
_cell_angle_gamma 90.000000
_cell_volume 3483.279338
_symmetry_space_group_name_H-M "C 2/C"
_symmetry_group_IT_number 15
_symmetry_cell_setting 'monoclinic'
loop_
_space_group_symop_operation_xyz
x,y,z
-x,y,1/2-z
-x,-y,-z
x,-y,1/2+z
1/2+x,1/2+y,z
1/2-x,1/2+y,1/2-z
1/2-x,1/2-y,-z
1/2+x,1/2-y,1/2+z
loop_
_atom_site_type_symbol
_atom_site_label
_atom_site_fract_x
_atom_site_fract_y
_atom_site_fract_z
Si Si1 0.668111 0.192096 0.263797
Si Si2 0.339180 0.264606 0.893928
Si Si3 0.922767 0.843954 0.677415
Si Si4 0.068993 0.446987 0.553070
Si Si5 0.337778 0.850742 0.497629
Si Si6 0.630017 0.476930 0.451145
Si Si7 0.957583 0.997694 0.822894
Si Si8 0.107397 0.540359 0.312255
O O1 0.500000 0.220550 0.250000
O O2 0.754740 0.235753 0.321011
O O3 0.749832 0.175784 0.194217
O O4 0.650061 0.117533 0.295407
O O5 0.500157 0.300851 0.879213
O O6 0.355170 0.194509 0.932291
O O7 0.242330 0.310112 0.943856
O O8 0.000000 0.826488 0.750000
O O9 0.971272 0.921749 0.669362
O O10 0.248740 0.462259 0.557592
O O11 0.000000 0.500000 0.500000
O O12 0.002422 0.376739 0.526079
O O13 0.993249 0.460967 0.623136
O O14 0.227658 0.913968 0.479389
O O15 0.500000 0.500000 0.500000
O O16 0.542127 0.461201 0.381390
O O17 0.772897 0.994238 0.825483
O O18 0.000000 0.021131 0.750000
O O19 0.000000 0.514987 0.250000
#
# Coordination Sequence:
#
# PCOD9259964 Si02
#       8
#     8   8   8   8   8   8   8   8
#     4  10  19  31  56  88 114 141 188 247 290 336
#     4  10  18  36  60  78 118 148 193 241 283 358
#     4   9  16  30  52  84 105 142 180 231 294 321
#     4  10  20  36  55  80 118 152 193 235 287 356
#     4  10  21  37  56  83 111 162 194 229 297 352
#     4  11  23  36  57  83 116 154 193 242 296 350
#     4  11  18  32  54  84 115 143 185 243 292 340
#     4  11  19  32  55  88 115 142 195 245 292 342
#
# _framework density 18.37349
#
# number of rings (size 3 to 8) (size 9 to 14) (size 15 to 20)
#    0.000    1.750    5.000    3.000    1.750    0.000 
#    0.000    1.875    0.000   24.750    0.000    0.000 
#    0.000    0.000    0.000    0.000    0.000    0.000 
#
# Total GULP energy -178325.455490 kJ/mol
# GULP energy per Si atom -5572.670484 kJ/mol
# Density = 1.833167 g / cm^3
# Si number density = 18.373490 Si / 1000 Ang^3
#
#
#
# Elastic Constant Matrix: (Units=GPa)
#
#
# Indices 1 2 3 4 5 6 
#
# 1 96.6050 2.5599 25.3042 0.0000 0.2754 0.0000
# 2 2.5599 24.1874 2.8803 0.0000 -1.0432 0.0000
# 3 25.3042 2.8803 57.9014 0.0000 -0.1316 0.0000
# 4 0.0000 0.0000 0.0000 22.0305 0.0000 -4.0521
# 5 0.2754 -1.0432 -0.1316 0.0000 40.4128 0.0000
# 6 0.0000 0.0000 0.0000 -4.0521 0.0000 13.0965
#
#
#
# Elastic Compliance Matrix: (Units=1/GPa)
#
#
# Indices 1 2 3 4 5 6 
#
# 1 0.011700 -0.000638 -0.005082 0.000000 -0.000113 0.000000
# 2 -0.000638 0.041671 -0.001792 0.000000 0.001074 0.000000
# 3 -0.005082 -0.001792 0.019581 0.000000 0.000052 0.000000
# 4 0.000000 0.000000 0.000000 0.048131 0.000000 0.014892
# 5 -0.000113 0.001074 0.000052 0.000000 0.024773 0.000000
# 6 0.000000 0.000000 0.000000 0.014892 0.000000 0.080964
#
#
# Mechanical properties :
#
#
# Convention : Reuss Voigt Hill
#
# Bulk Modulus (GPa) = 17.26249 26.68695 21.97472
# Shear Modulus (GPa) = 19.14599 24.97124 22.05862
#
# Velocity S-wave (km/s) = 3.23157 3.69058 3.46868
# Velocity P-wave (km/s) = 4.83113 5.71986 5.29418
#
# Compressibility (1/GPa) = 0.05792906
#
# Stress axis : x y z
#
# Youngs Moduli (GPa) = 85.47238 23.99746 51.07060
#
# Poissons Ratio (x) = 0.01531 0.25952
# Poissons Ratio (y) = 0.05453 0.09150
# Poissons Ratio (z) = 0.43433 0.04300
#
# Static dielectric constant tensor:
#      x y z
#    x 1.725770 0.000000 0.006550 
#    y 0.000000 1.631570 0.000000 
#    z 0.006550 0.000000 1.648260 
# 
# From -- ./inp_files/192174.got.cif
#   From: 2010.05.17/outbox.cif.g08.bks.cpg/sg15_97_cif.got.tgz:192174.got - 2010.06.03 18:47:42.
