data_PCOD9259214
_publ_section_title
;
Structure prediction by ZEFSAII (Michael W. Deem and Ramdas Pophale) SiO2 
 PCOD9259214
Probable space group: C 2/C
;
_chemical_formula_sum "Si O2"
_cell_formula_units_Z 52
_cell_length_a 12.338181
_cell_length_b 23.646462
_cell_length_c 18.782726
_cell_angle_alpha 90.000000
_cell_angle_beta 27.210054
_cell_angle_gamma 90.000000
_cell_volume 2505.725168
_symmetry_space_group_name_H-M "C 2/C"
_symmetry_group_IT_number 15
_symmetry_cell_setting 'monoclinic'
loop_
_space_group_symop_operation_xyz
x,y,z
-x,y,1/2-z
-x,-y,-z
x,-y,1/2+z
1/2+x,1/2+y,z
1/2-x,1/2+y,1/2-z
1/2-x,1/2-y,-z
1/2+x,1/2-y,1/2+z
loop_
_atom_site_type_symbol
_atom_site_label
_atom_site_fract_x
_atom_site_fract_y
_atom_site_fract_z
Si Si1 0.064231 0.200219 0.822170
Si Si2 0.500000 0.392240 0.250000
Si Si3 0.480321 0.972545 0.181033
Si Si4 0.004385 0.426117 0.924930
Si Si5 0.491034 0.176350 0.334071
Si Si6 0.904859 0.652880 0.727395
Si Si7 0.254958 0.899925 0.569203
O O1 0.193374 0.190043 0.821108
O O2 0.130876 0.150301 0.728650
O O3 0.118435 0.262796 0.762161
O O4 0.783637 0.190790 0.991503
O O5 0.283898 0.427499 0.408677
O O6 0.500000 0.993437 0.250000
O O7 0.330470 0.913960 0.270963
O O8 0.397516 0.020984 0.176453
O O9 0.725601 0.947132 0.004595
O O10 0.074953 0.368251 0.843371
O O11 0.092470 0.423805 0.954055
O O12 0.500000 0.151358 0.250000
O O13 0.000000 0.666517 0.750000
O O14 0.114627 0.652541 0.545611
O O15 0.000000 0.888099 0.750000
#
# Coordination Sequence:
#
# PCOD9259214 Si02
#       7
#     8   4   8   8   8   8   8
#     4  10  19  37  62  85 119 161 205 247 315 364
#     4  10  18  34  62  88 116 162 206 256 302 374
#     4   9  20  40  59  87 127 162 203 248 310 372
#     4  11  21  35  62  92 122 158 208 256 313 367
#     4  10  22  36  59  92 124 149 197 273 312 356
#     4   9  20  38  60  86 122 170 203 245 300 377
#     4  10  21  37  59  87 125 163 208 251 299 359
#
# _framework density 20.752475
#
# number of rings (size 3 to 8) (size 9 to 14) (size 15 to 20)
#    0.923    1.231    2.308    0.923    1.077    1.231 
#    2.769    1.538    0.000    2.769    0.000    0.000 
#    0.000    0.000    0.000    0.000    0.000    0.000 
#
# Total GULP energy -144813.333082 kJ/mol
# GULP energy per Si atom -5569.743580 kJ/mol
# Density = 2.070524 g / cm^3
# Si number density = 20.752475 Si / 1000 Ang^3
#
#
#
# Elastic Constant Matrix: (Units=GPa)
#
#
# Indices 1 2 3 4 5 6 
#
# 1 115.1148 19.3311 10.8044 -0.0446 20.3648 -0.0415
# 2 19.3311 35.5679 0.5103 0.0672 -2.2127 0.1581
# 3 10.8044 0.5103 23.5826 0.3551 13.8156 0.5711
# 4 -0.0446 0.0672 0.3551 7.4826 -0.0222 3.8434
# 5 20.3648 -2.2127 13.8156 -0.0222 31.0297 -0.0399
# 6 -0.0415 0.1581 0.5711 3.8434 -0.0399 21.7601
#
#
#
# Elastic Compliance Matrix: (Units=1/GPa)
#
#
# Indices 1 2 3 4 5 6 
#
# 1 0.011172 -0.006534 -0.000557 0.000103 -0.007550 0.000051
# 2 -0.006534 0.032165 -0.002100 -0.000126 0.007517 -0.000155
# 3 -0.000557 -0.002100 0.057689 -0.002204 -0.025473 -0.001157
# 4 0.000103 -0.000126 -0.002204 0.147063 0.000977 -0.025915
# 5 -0.007550 0.007517 -0.025473 0.000977 0.049061 0.000517
# 6 0.000051 -0.000155 -0.001157 -0.025915 0.000517 0.050565
#
#
# Mechanical properties :
#
#
# Convention : Reuss Voigt Hill
#
# Bulk Modulus (GPa) = 12.10018 26.17299 19.13658
# Shear Modulus (GPa) = 12.70174 21.62912 17.16543
#
# Velocity S-wave (km/s) = 2.47667 3.23188 2.87914
# Velocity P-wave (km/s) = 3.74458 5.15423 4.50489
#
# Compressibility (1/GPa) = 0.08264342
#
# Stress axis : x y z
#
# Youngs Moduli (GPa) = 89.50717 31.08938 17.33441
#
# Poissons Ratio (x) = 0.20315 0.00965
# Poissons Ratio (y) = 0.58486 0.03641
# Poissons Ratio (z) = 0.04983 0.06530
#
# Static dielectric constant tensor:
#      x y z
#    x 1.753720 -0.000030 0.045650 
#    y -0.000030 1.778060 -0.000010 
#    z 0.045650 -0.000010 1.788510 
# 
# From -- ./inp_files/201165.got.cif
#   From: 2010.05.17/outbox.cif.g08.bks.cpg/sg15_101_cif.got.tgz:201165.got - 2010.06.03 18:47:42.
