data_PCOD9259445
_publ_section_title
;
Structure prediction by ZEFSAII (Michael W. Deem and Ramdas Pophale) SiO2 
 PCOD9259445
Probable space group: C 2/C
;
_chemical_formula_sum "Si O2"
_cell_formula_units_Z 48
_cell_length_a 16.731882
_cell_length_b 9.005713
_cell_length_c 16.810692
_cell_angle_alpha 90.000000
_cell_angle_beta 100.908066
_cell_angle_gamma 90.000000
_cell_volume 2487.310119
_symmetry_space_group_name_H-M "C 2/C"
_symmetry_group_IT_number 15
_symmetry_cell_setting 'monoclinic'
loop_
_space_group_symop_operation_xyz
x,y,z
-x,y,1/2-z
-x,-y,-z
x,-y,1/2+z
1/2+x,1/2+y,z
1/2-x,1/2+y,1/2-z
1/2-x,1/2-y,-z
1/2+x,1/2-y,1/2+z
loop_
_atom_site_type_symbol
_atom_site_label
_atom_site_fract_x
_atom_site_fract_y
_atom_site_fract_z
Si Si1 0.353036 0.183025 0.882485
Si Si2 0.134463 0.564448 0.829632
Si Si3 0.412126 0.366812 0.748325
Si Si4 0.211009 0.876231 0.248998
Si Si5 0.411243 0.874962 0.824017
Si Si6 0.440015 0.099142 0.044290
O O1 0.404936 0.286520 0.832917
O O2 0.261352 0.198513 0.831488
O O3 0.371363 0.009187 0.867591
O O4 0.384778 0.202929 0.977698
O O5 0.098853 0.729964 0.814437
O O6 0.223469 0.575908 0.805971
O O7 0.085942 0.455474 0.760972
O O8 0.120191 0.502278 0.914363
O O9 0.500000 0.436501 0.750000
O O10 0.339629 0.483720 0.729847
O O11 0.149086 0.761355 0.198276
O O12 0.495246 0.829422 0.882052
O O13 0.500000 0.000000 0.000000
#
# Coordination Sequence:
#
# PCOD9259445 Si02
#       6
#     8   8   8   8   8   8
#     4   9  18  35  54  76 105 140 178 219 260 312
#     4  10  18  35  58  77 102 143 182 216 260 319
#     4  10  19  34  55  78 105 140 178 219 266 319
#     4  10  20  36  55  81 109 139 176 220 269 321
#     4   9  18  34  55  79 104 138 180 217 258 318
#     4  10  19  32  55  83 106 136 184 227 256 305
#
# _framework density 19.297955000000002
#
# number of rings (size 3 to 8) (size 9 to 14) (size 15 to 20)
#    0.000    2.667    0.000    7.500    0.000    1.333 
#    0.000   13.333    0.000    0.000    0.000    0.000 
#    0.000    0.000    0.000    0.000    0.000    0.000 
#
# Total GULP energy -133612.270734 kJ/mol
# GULP energy per Si atom -5567.177947 kJ/mol
# Density = 1.925403 g / cm^3
# Si number density = 19.297955 Si / 1000 Ang^3
#
#
#
# Elastic Constant Matrix: (Units=GPa)
#
#
# Indices 1 2 3 4 5 6 
#
# 1 122.5857 29.6331 37.8265 0.0000 9.4159 0.0000
# 2 29.6331 34.0235 22.4214 0.0000 7.3112 0.0000
# 3 37.8265 22.4214 66.8665 0.0000 19.0838 0.0000
# 4 0.0000 0.0000 0.0000 -5.0886 0.0000 16.8804
# 5 9.4159 7.3112 19.0838 0.0000 27.2920 0.0000
# 6 0.0000 0.0000 0.0000 16.8804 0.0000 20.6146
#
#
#
# Elastic Compliance Matrix: (Units=1/GPa)
#
#
# Indices 1 2 3 4 5 6 
#
# 1 0.011090 -0.007126 -0.004169 0.000000 0.000998 0.000000
# 2 -0.007126 0.042362 -0.009540 0.000000 -0.002219 0.000000
# 3 -0.004169 -0.009540 0.024203 0.000000 -0.012930 0.000000
# 4 0.000000 0.000000 0.000000 -0.052878 0.000000 0.043300
# 5 0.000998 -0.002219 -0.012930 0.000000 0.045932 0.000000
# 6 0.000000 0.000000 0.000000 0.043300 0.000000 0.013053
#
#
# Mechanical properties :
#
#
# Convention : Reuss Voigt Hill
#
# Bulk Modulus (GPa) = 27.79011 44.80420 36.29715
# Shear Modulus (GPa) = 36.38342 17.46990 26.92666
#
# Velocity S-wave (km/s) = 4.34677 3.01204 3.73944
# Velocity P-wave (km/s) = 6.29479 5.94676 6.12325
#
# Compressibility (1/GPa) = 0.03598403
#
# Stress axis : x y z
#
# Youngs Moduli (GPa) = 90.17200 23.60628 41.31782
#
# Poissons Ratio (x) = 0.16822 0.17225
# Poissons Ratio (y) = 0.64257 0.39418
# Poissons Ratio (z) = 0.37592 0.22521
#
# Static dielectric constant tensor:
#      x y z
#    x 1.736470 0.000000 0.017890 
#    y 0.000000 1.662900 0.000000 
#    z 0.017890 0.000000 1.724120 
# 
# From -- ./inp_files/208634.got.cif
#   From: 2010.05.17/outbox.cif.g08.bks.cpg/sg15_105_cif.got.tgz:208634.got - 2010.06.03 18:47:42.
