data_PCOD9259989
_publ_section_title
;
Structure prediction by ZEFSAII (Michael W. Deem and Ramdas Pophale) SiO2 
 PCOD9259989
Probable space group: C 2/C
;
_chemical_formula_sum "Si O2"
_cell_formula_units_Z 36
_cell_length_a 9.774484
_cell_length_b 25.547966
_cell_length_c 7.241946
_cell_angle_alpha 90.000000
_cell_angle_beta 116.518938
_cell_angle_gamma 90.000000
_cell_volume 1618.173316
_symmetry_space_group_name_H-M "C 2/C"
_symmetry_group_IT_number 15
_symmetry_cell_setting 'monoclinic'
loop_
_space_group_symop_operation_xyz
x,y,z
-x,y,1/2-z
-x,-y,-z
x,-y,1/2+z
1/2+x,1/2+y,z
1/2-x,1/2+y,1/2-z
1/2-x,1/2-y,-z
1/2+x,1/2-y,1/2+z
loop_
_atom_site_type_symbol
_atom_site_label
_atom_site_fract_x
_atom_site_fract_y
_atom_site_fract_z
Si Si1 0.000000 0.535270 0.750000
Si Si2 0.500000 0.410044 0.750000
Si Si3 0.141255 0.272737 0.095864
Si Si4 0.185168 0.558720 0.201749
Si Si5 0.433286 0.678513 0.920353
Si Si6 0.000000 0.645615 0.250000
O O1 0.929137 0.566855 0.540042
O O2 0.868654 0.495602 0.741611
O O3 0.642784 0.442229 0.760642
O O4 0.443473 0.373238 0.548303
O O5 0.260482 0.299373 0.305834
O O6 0.250000 0.250000 0.000000
O O7 0.038569 0.222849 0.078137
O O8 0.032228 0.316502 0.940777
O O9 0.145215 0.607500 0.309307
O O10 0.500000 0.670977 0.750000
#
# Coordination Sequence:
#
# PCOD9259989 Si02
#       6
#     4   4   8   8   8   4
#     4   9  22  48  67  88 124 160 201 260 354 387
#     4  12  26  40  63 106 128 158 227 264 304 380
#     4  10  18  36  60  85 128 182 211 246 310 357
#     4  10  23  42  67  94 121 160 209 269 320 399
#     4  10  22  39  58  89 135 179 213 257 306 360
#     4  11  20  38  70  90 126 172 220 256 312 385
#
# _framework density 22.247308
#
# number of rings (size 3 to 8) (size 9 to 14) (size 15 to 20)
#    0.000    1.778    3.333    2.667    3.111    1.778 
#    4.000    0.000    0.000    0.000    0.000    0.000 
#    0.000    0.000    0.000    0.000    0.000    0.000 
#
# Total GULP energy -100611.243133 kJ/mol
# GULP energy per Si atom -5589.513507 kJ/mol
# Density = 2.219667 g / cm^3
# Si number density = 22.247308 Si / 1000 Ang^3
#
#
#
# Elastic Constant Matrix: (Units=GPa)
#
#
# Indices 1 2 3 4 5 6 
#
# 1 128.8589 32.9602 14.4498 0.0000 9.0119 0.0000
# 2 32.9602 40.0443 2.0253 0.0000 2.7198 0.0000
# 3 14.4498 2.0253 55.2489 0.0000 -5.8681 0.0000
# 4 0.0000 0.0000 0.0000 7.8881 0.0000 2.1028
# 5 9.0119 2.7198 -5.8681 0.0000 31.0809 0.0000
# 6 0.0000 0.0000 0.0000 2.1028 0.0000 -6.2265
#
#
#
# Elastic Compliance Matrix: (Units=1/GPa)
#
#
# Indices 1 2 3 4 5 6 
#
# 1 0.010356 -0.008197 -0.002705 0.000000 -0.002796 0.000000
# 2 -0.008197 0.031685 0.000960 0.000000 -0.000215 0.000000
# 3 -0.002705 0.000960 0.019232 0.000000 0.004331 0.000000
# 4 0.000000 0.000000 0.000000 0.116302 0.000000 0.039278
# 5 -0.002796 -0.000215 0.004331 0.000000 0.033821 0.000000
# 6 0.000000 0.000000 0.000000 0.039278 0.000000 -0.147339
#
#
# Mechanical properties :
#
#
# Convention : Reuss Voigt Hill
#
# Bulk Modulus (GPa) = 24.16134 35.89141 30.02637
# Shear Modulus (GPa) = 51.15639 18.19629 34.67634
#
# Velocity S-wave (km/s) = 4.80045 2.86301 3.95229
# Velocity P-wave (km/s) = 6.45056 5.20549 5.86118
#
# Compressibility (1/GPa) = 0.04138843
#
# Stress axis : x y z
#
# Youngs Moduli (GPa) = 96.56200 31.56019 51.99601
#
# Poissons Ratio (x) = 0.25871 0.14065
# Poissons Ratio (y) = 0.79154 -0.04990
# Poissons Ratio (z) = 0.26120 -0.03029
#
# Static dielectric constant tensor:
#      x y z
#    x 1.839240 0.000000 -0.020900 
#    y 0.000000 1.765930 0.000000 
#    z -0.020900 0.000000 1.819540 
# 
# From -- ./inp_files/23376.got.cif
#   From: 2010.05.17/outbox.cif.g08.bks.cpg/sg15_12_cif.got.tgz:23376.got - 2010.06.03 18:47:42.
