data_PCOD9259556
_publ_section_title
;
Structure prediction by ZEFSAII (Michael W. Deem and Ramdas Pophale) SiO2 
 PCOD9259556
Probable space group: C 2/C
;
_chemical_formula_sum "Si O2"
_cell_formula_units_Z 40
_cell_length_a 22.461379
_cell_length_b 13.659400
_cell_length_c 5.501725
_cell_angle_alpha 90.000000
_cell_angle_beta 89.999982
_cell_angle_gamma 90.000000
_cell_volume 1687.978527
_symmetry_space_group_name_H-M "C 2/C"
_symmetry_group_IT_number 15
_symmetry_cell_setting 'monoclinic'
loop_
_space_group_symop_operation_xyz
x,y,z
-x,y,1/2-z
-x,-y,-z
x,-y,1/2+z
1/2+x,1/2+y,z
1/2-x,1/2+y,1/2-z
1/2-x,1/2-y,-z
1/2+x,1/2-y,1/2+z
loop_
_atom_site_type_symbol
_atom_site_label
_atom_site_fract_x
_atom_site_fract_y
_atom_site_fract_z
Si Si1 0.717920 0.386512 0.499999
Si Si2 0.528813 0.365098 1.000000
Si Si3 0.354922 0.936398 0.500000
Si Si4 0.669659 0.388035 0.999999
Si Si5 0.978895 0.645658 1.000000
O O1 0.788799 0.392651 0.500000
O O2 0.693801 0.341900 0.249457
O O3 0.693130 0.499292 0.499999
O O4 0.693801 0.341900 0.750541
O O5 0.500000 0.400998 0.750000
O O6 0.500000 0.400998 0.250000
O O7 0.598665 0.384821 1.000000
O O8 0.512538 0.249868 1.000000
O O9 0.407530 0.856494 0.500000
O O10 0.360519 0.000000 0.250001
O O11 0.000000 0.599112 0.250000
O O12 0.000000 0.599112 0.750000
#
# Coordination Sequence:
#
# PCOD9259556 Si02
#       5
#     8   8   8   8   8
#     4  10  19  35  55  94 117 150 196 249 306 347
#     4  10  21  39  60  82 118 168 201 242 290 351
#     4  12  21  37  63  92 126 151 194 252 305 360
#     4  10  18  35  60  84 122 152 199 246 295 356
#     4  10  23  40  59  85 124 159 204 241 293 361
#
# _framework density 23.696985000000002
#
# number of rings (size 3 to 8) (size 9 to 14) (size 15 to 20)
#    0.000    1.600    4.000    2.400    0.000    2.400 
#    0.000   12.000    0.000   28.800    0.000    0.000 
#    0.000    0.000    0.000    0.000    0.000    0.000 
#
# Total GULP energy -111790.841663 kJ/mol
# GULP energy per Si atom -5589.542083 kJ/mol
# Density = 2.364305 g / cm^3
# Si number density = 23.696985 Si / 1000 Ang^3
#
#
#
# Elastic Constant Matrix: (Units=GPa)
#
#
# Indices 1 2 3 4 5 6 
#
# 1 263.3711 21.3811 65.4230 0.0000 0.0004 0.0000
# 2 21.3811 83.1216 4.1026 0.0000 0.0001 0.0000
# 3 65.4230 4.1026 268.1112 0.0000 0.0002 0.0000
# 4 0.0000 0.0000 0.0000 -43.3116 0.0000 -0.0003
# 5 0.0004 0.0001 0.0002 0.0000 41.5943 0.0000
# 6 0.0000 0.0000 0.0000 -0.0003 0.0000 59.4380
#
#
#
# Elastic Compliance Matrix: (Units=1/GPa)
#
#
# Indices 1 2 3 4 5 6 
#
# 1 0.004125 -0.001012 -0.000991 0.000000 0.000000 0.000000
# 2 -0.001012 0.012288 0.000059 0.000000 0.000000 0.000000
# 3 -0.000991 0.000059 0.003971 0.000000 0.000000 0.000000
# 4 0.000000 0.000000 0.000000 -0.023089 0.000000 0.000000
# 5 0.000000 0.000000 0.000000 0.000000 0.024042 0.000000
# 6 0.000000 0.000000 0.000000 0.000000 0.000000 0.016824
#
#
# Mechanical properties :
#
#
# Convention : Reuss Voigt Hill
#
# Bulk Modulus (GPa) = 60.62338 88.49081 74.55709
# Shear Modulus (GPa) = 105.15515 46.45729 75.80622
#
# Velocity S-wave (km/s) = 6.66868 4.43253 5.66209
# Velocity P-wave (km/s) = 9.21592 7.97622 8.61839
#
# Compressibility (1/GPa) = 0.01649529
#
# Stress axis : x y z
#
# Youngs Moduli (GPa) = 242.40629 81.37999 251.84173
#
# Poissons Ratio (x) = 0.08237 0.24961
# Poissons Ratio (y) = 0.24537 -0.01485
# Poissons Ratio (z) = 0.24026 -0.00480
#
# Static dielectric constant tensor:
#      x y z
#    x 1.814180 0.000000 0.000000 
#    y 0.000000 1.765390 0.000000 
#    z 0.000000 0.000000 1.968540 
# 
# From -- ./inp_files/9792.got.cif
#   From: 2010.05.17/outbox.cif.g08.bks.cpg/sg15_5_cif.got.tgz:9792.got - 2010.06.03 18:47:42.
