data_PCOD9259031
_publ_section_title
;
Structure prediction by ZEFSAII (Michael W. Deem and Ramdas Pophale) SiO2 
 PCOD9259031
Probable space group: C 2/C
;
_chemical_formula_sum "Si O2"
_cell_formula_units_Z 60
_cell_length_a 14.827148
_cell_length_b 19.364061
_cell_length_c 12.299640
_cell_angle_alpha 90.000000
_cell_angle_beta 118.865098
_cell_angle_gamma 90.000000
_cell_volume 3092.651290
_symmetry_space_group_name_H-M "C 2/C"
_symmetry_group_IT_number 15
_symmetry_cell_setting 'monoclinic'
loop_
_space_group_symop_operation_xyz
x,y,z
-x,y,1/2-z
-x,-y,-z
x,-y,1/2+z
1/2+x,1/2+y,z
1/2-x,1/2+y,1/2-z
1/2-x,1/2-y,-z
1/2+x,1/2-y,1/2+z
loop_
_atom_site_type_symbol
_atom_site_label
_atom_site_fract_x
_atom_site_fract_y
_atom_site_fract_z
Si Si1 0.228599 0.943653 0.400529
Si Si2 0.096942 0.449549 0.564626
Si Si3 0.107295 0.123481 0.214612
Si Si4 0.596718 0.834170 0.385556
Si Si5 0.731844 0.595053 0.663884
Si Si6 0.900443 0.817944 0.557106
Si Si7 0.223535 0.566288 0.336417
Si Si8 0.500000 0.501521 0.750000
O O1 0.242469 0.899405 0.299449
O O2 0.276048 0.913348 0.537981
O O3 0.297906 0.012073 0.415489
O O4 0.105512 0.958808 0.342717
O O5 0.076801 0.385226 0.474601
O O6 0.119979 0.433833 0.704647
O O7 0.000000 0.500000 0.500000
O O8 0.138450 0.143005 0.355877
O O9 0.199299 0.113935 0.186678
O O10 0.043199 0.051460 0.183887
O O11 0.024147 0.180220 0.133498
O O12 0.500000 0.823055 0.250000
O O13 0.678934 0.870148 0.354545
O O14 0.632813 0.760949 0.454426
O O15 0.633505 0.636456 0.564187
O O16 0.734050 0.513083 0.640279
#
# Coordination Sequence:
#
# PCOD9259031 Si02
#       8
#     8   8   8   8   8   8   8   4
#     4  11  23  37  58 100 124 170 206 265 335 385
#     4  11  24  40  63  95 130 169 222 274 323 380
#     4  10  19  35  60  92 128 161 200 259 325 386
#     4  12  22  42  64  90 124 167 219 278 315 375
#     4  11  22  36  59  92 129 160 218 256 322 389
#     4  10  22  38  60  94 124 167 210 261 328 388
#     4  11  21  39  60  94 136 165 210 263 333 384
#     4  10  18  34  58  86 136 154 200 260 328 384
#
# _framework density 19.400829000000002
#
# number of rings (size 3 to 8) (size 9 to 14) (size 15 to 20)
#    0.000    1.333    5.333    4.400    1.867    1.067 
#    0.000    0.000    0.000    3.200    6.933    0.000 
#    0.000    0.000    0.000    0.000    0.000    0.000 
#
# Total GULP energy -167335.512530 kJ/mol
# GULP energy per Si atom -5577.850418 kJ/mol
# Density = 1.935667 g / cm^3
# Si number density = 19.400829 Si / 1000 Ang^3
#
#
#
# Elastic Constant Matrix: (Units=GPa)
#
#
# Indices 1 2 3 4 5 6 
#
# 1 40.6031 17.1512 22.8974 0.0000 7.5295 0.0000
# 2 17.1512 79.6405 47.7418 0.0000 -3.0797 0.0000
# 3 22.8974 47.7418 166.5726 0.0000 -11.8862 0.0000
# 4 0.0000 0.0000 0.0000 14.0773 0.0000 -11.5153
# 5 7.5295 -3.0797 -11.8862 0.0000 31.1248 0.0000
# 6 0.0000 0.0000 0.0000 -11.5153 0.0000 7.7587
#
#
#
# Elastic Compliance Matrix: (Units=1/GPa)
#
#
# Indices 1 2 3 4 5 6 
#
# 1 0.030290 -0.004817 -0.003433 0.000000 -0.009115 0.000000
# 2 -0.004817 0.015928 -0.003811 0.000000 0.001286 0.000000
# 3 -0.003433 -0.003811 0.007813 0.000000 0.003437 0.000000
# 4 0.000000 0.000000 0.000000 -0.331845 0.000000 -0.492517
# 5 -0.009115 0.001286 0.003437 0.000000 0.035774 0.000000
# 6 0.000000 0.000000 0.000000 -0.492517 0.000000 -0.602095
#
#
# Mechanical properties :
#
#
# Convention : Reuss Voigt Hill
#
# Bulk Modulus (GPa) = 33.43683 51.37745 42.40714
# Shear Modulus (GPa) = -6.17253 23.86055 8.84401
#
# Velocity S-wave (km/s) = -1.78563 3.51076 2.13740
# Velocity P-wave (km/s) = 3.60844 6.55542 5.29123
#
# Compressibility (1/GPa) = 0.02990714
#
# Stress axis : x y z
#
# Youngs Moduli (GPa) = 33.01394 62.78111 127.99201
#
# Poissons Ratio (x) = 0.30245 0.43946
# Poissons Ratio (y) = 0.15904 0.48781
# Poissons Ratio (z) = 0.11335 0.23928
#
# Static dielectric constant tensor:
#      x y z
#    x 1.719770 0.000000 0.045950 
#    y 0.000000 1.677040 0.000000 
#    z 0.045950 0.000000 1.733550 
# 
# From -- ./inp_files/98816.got.cif
#   From: 2010.05.17/outbox.cif.g08.bks.cpg/sg15_50_cif.got.tgz:98816.got - 2010.06.03 18:47:42.
