data_PCOD9259655
_publ_section_title
;
Structure prediction by ZEFSAII (Michael W. Deem and Ramdas Pophale) SiO2 
 PCOD9259655
Probable space group: C 2/C
;
_chemical_formula_sum "Si O2"
_cell_formula_units_Z 64
_cell_length_a 9.554441
_cell_length_b 27.797567
_cell_length_c 14.217001
_cell_angle_alpha 90.000000
_cell_angle_beta 57.091628
_cell_angle_gamma 90.000000
_cell_volume 3170.017850
_symmetry_space_group_name_H-M "C 2/C"
_symmetry_group_IT_number 15
_symmetry_cell_setting 'monoclinic'
loop_
_space_group_symop_operation_xyz
x,y,z
-x,y,1/2-z
-x,-y,-z
x,-y,1/2+z
1/2+x,1/2+y,z
1/2-x,1/2+y,1/2-z
1/2-x,1/2-y,-z
1/2+x,1/2-y,1/2+z
loop_
_atom_site_type_symbol
_atom_site_label
_atom_site_fract_x
_atom_site_fract_y
_atom_site_fract_z
Si Si1 0.817580 0.300149 0.366081
Si Si2 0.175235 0.914769 0.025915
Si Si3 0.207229 0.096897 0.857189
Si Si4 0.867544 0.494213 0.382134
Si Si5 0.926412 0.419250 0.098889
Si Si6 0.498701 0.183110 0.979232
Si Si7 0.866177 0.673066 0.369175
Si Si8 0.182610 0.768971 0.223184
O O1 0.727402 0.351855 0.399192
O O2 0.712087 0.270400 0.325560
O O3 0.000000 0.302902 0.250000
O O4 0.867377 0.290319 0.457803
O O5 0.237378 0.865593 0.954328
O O6 0.252714 0.959689 0.940685
O O7 0.268008 0.921644 0.090124
O O8 0.979037 0.910645 0.110667
O O9 0.247585 0.050493 0.903728
O O10 0.352185 0.095543 0.726347
O O11 0.000000 0.503940 0.250000
O O12 0.978751 0.469444 0.423372
O O13 0.032217 0.374221 0.021112
O O14 0.679681 0.195161 0.868847
O O15 0.530169 0.192418 0.078152
O O16 0.789363 0.717253 0.337840
O O17 0.000000 0.649469 0.250000
O O18 0.000000 0.783339 0.250000
#
# Coordination Sequence:
#
# PCOD9259655 Si02
#       8
#     8   8   8   8   8   8   8   8
#     4  10  18  35  62  89 119 153 189 255 321 356
#     4  11  23  34  59  85 119 165 199 240 293 368
#     4  11  19  34  59  92 121 141 199 260 307 333
#     4  10  20  37  58  84 122 158 196 239 297 365
#     4  10  19  34  58  90 118 148 195 252 302 351
#     4  10  19  36  63  87 115 156 197 245 310 363
#     4  10  23  41  56  81 122 168 207 239 290 372
#     4  10  21  35  62  91 121 144 195 263 309 352
#
# _framework density 20.189160999999999
#
# number of rings (size 3 to 8) (size 9 to 14) (size 15 to 20)
#    0.000    1.750    3.750    2.250    3.500    0.000 
#    0.000    2.500   11.000    0.000    0.000    0.000 
#    0.000    0.000    0.000    0.000    0.000    0.125 
#
# Total GULP energy -178222.372418 kJ/mol
# GULP energy per Si atom -5569.449138 kJ/mol
# Density = 2.014321 g / cm^3
# Si number density = 20.189161 Si / 1000 Ang^3
#
#
#
# Elastic Constant Matrix: (Units=GPa)
#
#
# Indices 1 2 3 4 5 6 
#
# 1 216.8239 65.2117 57.8186 0.0000 -10.4613 0.0000
# 2 65.2117 104.4542 23.6711 0.0000 -2.1795 0.0000
# 3 57.8186 23.6711 57.7461 0.0000 8.5613 0.0000
# 4 0.0000 0.0000 0.0000 38.8133 0.0000 32.4325
# 5 -10.4613 -2.1795 8.5613 0.0000 53.1131 0.0000
# 6 0.0000 0.0000 0.0000 32.4325 0.0000 72.8750
#
#
#
# Elastic Compliance Matrix: (Units=1/GPa)
#
#
# Indices 1 2 3 4 5 6 
#
# 1 0.007384 -0.003092 -0.006477 0.000000 0.002371 0.000000
# 2 -0.003092 0.011919 -0.001815 0.000000 0.000173 0.000000
# 3 -0.006477 -0.001815 0.025352 0.000000 -0.005437 0.000000
# 4 0.000000 0.000000 0.000000 0.041018 0.000000 -0.018255
# 5 0.002371 0.000173 -0.005437 0.000000 0.020178 0.000000
# 6 0.000000 0.000000 0.000000 -0.018255 0.000000 0.021846
#
#
# Mechanical properties :
#
#
# Convention : Reuss Voigt Hill
#
# Bulk Modulus (GPa) = 45.69084 74.71413 60.20248
# Shear Modulus (GPa) = 31.69327 48.44847 40.07087
#
# Velocity S-wave (km/s) = 3.96639 4.90402 4.45991
# Velocity P-wave (km/s) = 6.60733 8.31584 7.51033
#
# Compressibility (1/GPa) = 0.02188622
#
# Stress axis : x y z
#
# Youngs Moduli (GPa) = 135.43407 83.89859 39.44416
#
# Poissons Ratio (x) = 0.25945 0.25548
# Poissons Ratio (y) = 0.41882 0.07160
# Poissons Ratio (z) = 0.87719 0.15229
#
# Static dielectric constant tensor:
#      x y z
#    x 1.751280 0.000000 0.036410 
#    y 0.000000 1.757990 0.000000 
#    z 0.036410 0.000000 1.745490 
# 
# From -- ./inp_files/138593.got.cif
#   From: 2010.05.17/outbox.cif.g08.bks.cpg/sg15_70_cif.got.tgz:138593.got - 2010.06.03 18:47:42.
