data_PCOD9259566
_publ_section_title
;
Structure prediction by ZEFSAII (Michael W. Deem and Ramdas Pophale) SiO2 
 PCOD9259566
Probable space group: C 2/C
;
_chemical_formula_sum "Si O2"
_cell_formula_units_Z 60
_cell_length_a 10.020327
_cell_length_b 14.072683
_cell_length_c 23.008819
_cell_angle_alpha 90.000000
_cell_angle_beta 53.853230
_cell_angle_gamma 90.000000
_cell_volume 2619.994111
_symmetry_space_group_name_H-M "C 2/C"
_symmetry_group_IT_number 15
_symmetry_cell_setting 'monoclinic'
loop_
_space_group_symop_operation_xyz
x,y,z
-x,y,1/2-z
-x,-y,-z
x,-y,1/2+z
1/2+x,1/2+y,z
1/2-x,1/2+y,1/2-z
1/2-x,1/2-y,-z
1/2+x,1/2-y,1/2+z
loop_
_atom_site_type_symbol
_atom_site_label
_atom_site_fract_x
_atom_site_fract_y
_atom_site_fract_z
Si Si1 0.811414 0.585163 0.647346
Si Si2 0.337410 0.266053 0.904776
Si Si3 0.697106 0.698941 0.357456
Si Si4 0.296114 0.908033 0.727547
Si Si5 0.500000 0.704716 0.250000
Si Si6 0.691636 0.091477 0.511751
Si Si7 0.583991 0.797200 0.586924
Si Si8 0.185761 0.901462 0.054884
O O1 0.769421 0.693880 0.674787
O O2 0.794685 0.515461 0.705821
O O3 0.701403 0.568005 0.618197
O O4 0.999620 0.572270 0.575376
O O5 0.500140 0.303068 0.898429
O O6 0.397254 0.241483 0.825208
O O7 0.266288 0.172418 0.952328
O O8 0.212859 0.353580 0.944677
O O9 0.793597 0.619058 0.296003
O O10 0.764295 0.696972 0.405412
O O11 0.125079 0.862126 0.751451
O O12 0.436901 0.851555 0.656308
O O13 0.807608 0.999483 0.482251
O O14 0.650077 0.848498 0.512324
O O15 0.554566 0.684496 0.584115
#
# Coordination Sequence:
#
# PCOD9259566 Si02
#       8
#     8   8   8   8   4   8   8   8
#     4  10  20  36  65  91 121 158 209 259 307 374
#     4   9  20  36  60  83 122 164 205 259 307 367
#     4   9  21  41  56  87 126 164 205 248 314 378
#     4  11  21  40  64  88 123 163 204 259 316 372
#     4  10  22  38  58  90 118 152 212 254 306 378
#     4  10  18  35  60  87 116 160 203 252 312 363
#     4  10  21  37  60  89 123 158 192 260 314 370
#     4  10  20  35  58  93 120 146 209 251 305 369
#
# _framework density 22.900815000000001
#
# number of rings (size 3 to 8) (size 9 to 14) (size 15 to 20)
#    0.000    2.133    1.333    1.600    1.867    0.000 
#   12.000    4.667    0.000    0.000    0.000    0.000 
#    0.000    0.000    0.000    0.000    0.000    0.000 
#
# Total GULP energy -167292.808971 kJ/mol
# GULP energy per Si atom -5576.426966 kJ/mol
# Density = 2.284869 g / cm^3
# Si number density = 22.900815 Si / 1000 Ang^3
#
#
#
# Elastic Constant Matrix: (Units=GPa)
#
#
# Indices 1 2 3 4 5 6 
#
# 1 40.1514 -3.2025 0.9162 0.0000 3.7172 0.0000
# 2 -3.2025 124.3261 33.8611 0.0000 10.4585 0.0000
# 3 0.9162 33.8611 108.5177 0.0000 18.2584 0.0000
# 4 0.0000 0.0000 0.0000 42.3188 0.0000 6.1739
# 5 3.7172 10.4585 18.2584 0.0000 15.6004 0.0000
# 6 0.0000 0.0000 0.0000 6.1739 0.0000 13.0927
#
#
#
# Elastic Compliance Matrix: (Units=1/GPa)
#
#
# Indices 1 2 3 4 5 6 
#
# 1 0.025693 0.001111 0.000737 0.000000 -0.007730 0.000000
# 2 0.001111 0.008981 -0.002184 0.000000 -0.003729 0.000000
# 3 0.000737 -0.002184 0.012046 0.000000 -0.012809 0.000000
# 4 0.000000 0.000000 0.000000 0.025376 0.000000 -0.011966
# 5 -0.007730 -0.003729 -0.012809 0.000000 0.083434 0.000000
# 6 0.000000 0.000000 0.000000 -0.011966 0.000000 0.082021
#
#
# Mechanical properties :
#
#
# Convention : Reuss Voigt Hill
#
# Bulk Modulus (GPa) = 21.71679 37.34941 29.53310
# Shear Modulus (GPa) = 19.71829 30.29707 25.00768
#
# Velocity S-wave (km/s) = 2.93751 3.64121 3.30813
# Velocity P-wave (km/s) = 4.58355 5.83288 5.24554
#
# Compressibility (1/GPa) = 0.04604733
#
# Stress axis : x y z
#
# Youngs Moduli (GPa) = 38.92081 111.35159 83.01800
#
# Poissons Ratio (x) = -0.12375 -0.06117
# Poissons Ratio (y) = -0.04326 0.18133
# Poissons Ratio (z) = -0.02868 0.24321
#
# Static dielectric constant tensor:
#      x y z
#    x 1.909260 0.000000 0.040830 
#    y 0.000000 1.880120 0.000000 
#    z 0.040830 0.000000 1.930580 
# 
# From -- ./inp_files/269940.got.cif
#   From: 2010.05.17/outbox.cif.g08.bks.cpg/sg15_135_cif.got.tgz:269940.got - 2010.06.03 18:47:42.
