data_PCOD9259130
_publ_section_title
;
Structure prediction by ZEFSAII (Michael W. Deem and Ramdas Pophale) SiO2 
 PCOD9259130
Probable space group: C 2/C
;
_chemical_formula_sum "Si O2"
_cell_formula_units_Z 60
_cell_length_a 10.798099
_cell_length_b 28.647771
_cell_length_c 10.502027
_cell_angle_alpha 90.000000
_cell_angle_beta 126.743782
_cell_angle_gamma 90.000000
_cell_volume 2603.254164
_symmetry_space_group_name_H-M "C 2/C"
_symmetry_group_IT_number 15
_symmetry_cell_setting 'monoclinic'
loop_
_space_group_symop_operation_xyz
x,y,z
-x,y,1/2-z
-x,-y,-z
x,-y,1/2+z
1/2+x,1/2+y,z
1/2-x,1/2+y,1/2-z
1/2-x,1/2-y,-z
1/2+x,1/2-y,1/2+z
loop_
_atom_site_type_symbol
_atom_site_label
_atom_site_fract_x
_atom_site_fract_y
_atom_site_fract_z
Si Si1 0.751229 0.336532 0.238113
Si Si2 0.058136 0.200756 0.429213
Si Si3 0.319056 0.541653 0.268249
Si Si4 0.822103 0.007454 0.013198
Si Si5 0.762304 0.145250 0.335913
Si Si6 0.320046 0.596770 0.622859
Si Si7 0.500000 0.723527 0.750000
Si Si8 0.520129 0.790352 0.544786
O O1 0.749532 0.389657 0.284695
O O2 0.627957 0.307067 0.252767
O O3 0.910024 0.313985 0.375393
O O4 0.698362 0.331959 0.060389
O O5 0.106350 0.250840 0.514924
O O6 0.000000 0.202343 0.250000
O O7 0.911241 0.178176 0.412236
O O8 0.251092 0.536739 0.085027
O O9 0.503244 0.528592 0.388074
O O10 0.254948 0.504425 0.332881
O O11 0.297886 0.594949 0.296077
O O12 0.820385 0.955737 0.074917
O O13 0.740595 0.130577 0.469680
O O14 0.626291 0.172657 0.182614
O O15 0.500000 0.607547 0.750000
O O16 0.436617 0.759506 0.603498
#
# Coordination Sequence:
#
# PCOD9259130 Si02
#       8
#     8   8   8   8   8   8   4   8
#     4  11  21  35  61  87 116 156 195 246 304 364
#     4  11  24  40  59  81 112 162 217 257 285 337
#     4   9  18  32  56  89 124 148 194 254 318 354
#     4   9  18  31  57  89 120 150 190 261 317 354
#     4  11  23  37  58  90 123 154 200 255 298 366
#     4  11  17  35  59  91 122 140 186 258 309 349
#     4  10  18  34  60  88 112 142 208 252 292 340
#     4  11  23  38  56  84 124 160 193 243 310 362
#
# _framework density 23.048078
#
# number of rings (size 3 to 8) (size 9 to 14) (size 15 to 20)
#    0.000    1.600    3.333    3.600    1.867    2.133 
#    0.000    0.000    0.000    0.800    0.000    3.733 
#    0.000    0.000    0.000    0.533    0.000    0.000 
#
# Total GULP energy -167275.081014 kJ/mol
# GULP energy per Si atom -5575.836034 kJ/mol
# Density = 2.299562 g / cm^3
# Si number density = 23.048078 Si / 1000 Ang^3
#
#
#
# Elastic Constant Matrix: (Units=GPa)
#
#
# Indices 1 2 3 4 5 6 
#
# 1 17.1129 19.7534 17.2347 0.0000 -12.2061 0.0000
# 2 19.7534 104.6984 33.3726 0.0000 -7.2928 0.0000
# 3 17.2347 33.3726 124.7389 0.0000 -18.9276 0.0000
# 4 0.0000 0.0000 0.0000 22.5998 0.0000 -0.9451
# 5 -12.2061 -7.2928 -18.9276 0.0000 33.2115 0.0000
# 6 0.0000 0.0000 0.0000 -0.9451 0.0000 4.2142
#
#
#
# Elastic Compliance Matrix: (Units=1/GPa)
#
#
# Indices 1 2 3 4 5 6 
#
# 1 0.105048 -0.015864 -0.005408 0.000000 0.032042 0.000000
# 2 -0.015864 0.012855 -0.001865 0.000000 -0.004070 0.000000
# 3 -0.005408 -0.001865 0.009742 0.000000 0.003155 0.000000
# 4 0.000000 0.000000 0.000000 0.044667 0.000000 0.010017
# 5 0.032042 -0.004070 0.003155 0.000000 0.042791 0.000000
# 6 0.000000 0.000000 0.000000 0.010017 0.000000 0.239541
#
#
# Mechanical properties :
#
#
# Convention : Reuss Voigt Hill
#
# Bulk Modulus (GPa) = 12.28932 43.03017 27.65975
# Shear Modulus (GPa) = 9.46897 23.75106 16.61002
#
# Velocity S-wave (km/s) = 2.02911 3.21362 2.68744
# Velocity P-wave (km/s) = 3.29140 5.69913 4.65368
#
# Compressibility (1/GPa) = 0.08137144
#
# Stress axis : x y z
#
# Youngs Moduli (GPa) = 9.51947 77.78959 102.65229
#
# Poissons Ratio (x) = 1.23402 0.55514
# Poissons Ratio (y) = 0.15101 0.19146
# Poissons Ratio (z) = 0.05148 0.14508
#
# Static dielectric constant tensor:
#      x y z
#    x 2.498230 0.000000 0.373920 
#    y 0.000000 1.898340 0.000000 
#    z 0.373920 0.000000 2.258860 
# 
# From -- ./inp_files/92621.got.cif
#   From: 2010.05.17/outbox.cif.g08.bks.cpg/sg15_47_cif.got.tgz:92621.got - 2010.06.03 18:47:42.
