data_PCOD9259840
_publ_section_title
;
Structure prediction by ZEFSAII (Michael W. Deem and Ramdas Pophale) SiO2 
 PCOD9259840
Probable space group: C 2/C
;
_chemical_formula_sum "Si O2"
_cell_formula_units_Z 56
_cell_length_a 10.721375
_cell_length_b 27.405852
_cell_length_c 24.406309
_cell_angle_alpha 90.000000
_cell_angle_beta 154.965392
_cell_angle_gamma 90.000000
_cell_volume 3034.633670
_symmetry_space_group_name_H-M "C 2/C"
_symmetry_group_IT_number 15
_symmetry_cell_setting 'monoclinic'
loop_
_space_group_symop_operation_xyz
x,y,z
-x,y,1/2-z
-x,-y,-z
x,-y,1/2+z
1/2+x,1/2+y,z
1/2-x,1/2+y,1/2-z
1/2-x,1/2-y,-z
1/2+x,1/2-y,1/2+z
loop_
_atom_site_type_symbol
_atom_site_label
_atom_site_fract_x
_atom_site_fract_y
_atom_site_fract_z
Si Si1 0.727584 0.302995 0.884375
Si Si2 0.146735 0.216712 0.043382
Si Si3 0.163798 0.649934 0.634259
Si Si4 0.330661 0.977904 0.624814
Si Si5 0.487409 0.608755 0.949350
Si Si6 0.541089 0.078639 0.679711
Si Si7 0.318987 0.740977 0.316138
O O1 0.500000 0.322967 0.750000
O O2 0.541532 0.280663 0.860801
O O3 0.917470 0.258470 0.934858
O O4 0.956466 0.341458 0.999630
O O5 0.482373 0.231382 0.165170
O O6 0.130947 0.216530 0.103986
O O7 0.068952 0.165173 0.986212
O O8 0.500000 0.644114 0.750000
O O9 0.058141 0.605823 0.629369
O O10 0.144625 0.701064 0.660257
O O11 0.500000 0.972430 0.750000
O O12 0.267833 0.925924 0.572272
O O13 0.506559 0.020257 0.663077
O O14 0.000000 0.000000 0.500000
O O15 0.325525 0.593476 0.828969
O O16 0.241283 0.597959 0.898250
#
# Coordination Sequence:
#
# PCOD9259840 Si02
#       7
#     8   8   8   8   8   8   8
#     4  11  23  36  56  82 121 160 196 246 287 331
#     4  10  20  35  53  84 117 157 195 228 286 353
#     4  11  21  41  59  76 117 165 205 236 272 351
#     4  10  18  36  57  87 123 138 175 245 305 358
#     4  10  20  33  57  92 117 144 186 239 301 362
#     4  10  20  35  59  84 112 155 195 227 302 351
#     4  10  20  37  54  79 118 162 200 235 284 337
#
# _framework density 18.453627000000001
#
# number of rings (size 3 to 8) (size 9 to 14) (size 15 to 20)
#    0.000    1.714    5.714    3.429    6.000    1.714 
#    0.000    0.000    0.000    0.857    0.000    1.000 
#    0.000    0.000    0.000    0.000    0.000    0.000 
#
# Total GULP energy -156322.977341 kJ/mol
# GULP energy per Si atom -5582.963476 kJ/mol
# Density = 1.841163 g / cm^3
# Si number density = 18.453627 Si / 1000 Ang^3
#
#
#
# Elastic Constant Matrix: (Units=GPa)
#
#
# Indices 1 2 3 4 5 6 
#
# 1 29.4758 28.3347 27.4882 -0.0169 -3.2953 0.0036
# 2 28.3347 108.1075 55.0795 0.0094 -19.7848 0.0013
# 3 27.4882 55.0795 139.8927 0.0343 -9.6420 -0.0074
# 4 -0.0169 0.0094 0.0343 -15.0093 -0.0121 20.4819
# 5 -3.2953 -19.7848 -9.6420 -0.0121 19.9008 0.0026
# 6 0.0036 0.0013 -0.0074 20.4819 0.0026 3.3092
#
#
#
# Elastic Compliance Matrix: (Units=1/GPa)
#
#
# Indices 1 2 3 4 5 6 
#
# 1 0.049217 -0.011002 -0.005722 -0.000016 -0.005560 0.000040
# 2 -0.011002 0.016133 -0.003321 -0.000001 0.012608 -0.000004
# 3 -0.005722 -0.003321 0.009608 0.000007 0.000406 -0.000014
# 4 -0.000016 -0.000001 0.000007 -0.007053 -0.000011 0.043655
# 5 -0.005560 0.012608 0.000406 -0.000011 0.062060 0.000018
# 6 0.000040 -0.000004 -0.000014 0.043655 0.000018 0.031991
#
#
# Mechanical properties :
#
#
# Convention : Reuss Voigt Hill
#
# Bulk Modulus (GPa) = 28.67995 55.47564 42.07779
# Shear Modulus (GPa) = 23.40066 12.74504 18.07285
#
# Velocity S-wave (km/s) = 3.56487 2.63088 3.13288
# Velocity P-wave (km/s) = 5.70261 6.27345 5.99483
#
# Compressibility (1/GPa) = 0.03486757
#
# Stress axis : x y z
#
# Youngs Moduli (GPa) = 20.31826 61.98424 104.07556
#
# Poissons Ratio (x) = 0.68193 0.59557
# Poissons Ratio (y) = 0.22354 0.34566
# Poissons Ratio (z) = 0.11627 0.20587
#
# Static dielectric constant tensor:
#      x y z
#    x 1.637130 0.000000 -0.007960 
#    y 0.000000 1.630850 0.000000 
#    z -0.007960 0.000000 1.660660 
# 
# From -- ./inp_files/293965.got.cif
#   From: 2010.05.17/outbox.cif.g08.bks.cpg/sg15_147_cif.got.tgz:293965.got - 2010.06.03 18:47:42.
