data_PCOD9259685
_publ_section_title
;
Structure prediction by ZEFSAII (Michael W. Deem and Ramdas Pophale) SiO2 
 PCOD9259685
Probable space group: C 2/C
;
_chemical_formula_sum "Si O2"
_cell_formula_units_Z 44
_cell_length_a 11.280732
_cell_length_b 24.700247
_cell_length_c 8.472430
_cell_angle_alpha 90.000000
_cell_angle_beta 58.416470
_cell_angle_gamma 90.000000
_cell_volume 2011.053971
_symmetry_space_group_name_H-M "C 2/C"
_symmetry_group_IT_number 15
_symmetry_cell_setting 'monoclinic'
loop_
_space_group_symop_operation_xyz
x,y,z
-x,y,1/2-z
-x,-y,-z
x,-y,1/2+z
1/2+x,1/2+y,z
1/2-x,1/2+y,1/2-z
1/2-x,1/2-y,-z
1/2+x,1/2-y,1/2+z
loop_
_atom_site_type_symbol
_atom_site_label
_atom_site_fract_x
_atom_site_fract_y
_atom_site_fract_z
Si Si1 0.672027 0.055165 0.342221
Si Si2 0.396751 0.471260 0.191966
Si Si3 0.343718 0.347633 0.687473
Si Si4 0.343615 0.231463 0.788381
Si Si5 0.000000 0.527745 0.750000
Si Si6 0.661110 0.632862 0.928852
O O1 0.727889 0.109054 0.215885
O O2 0.570538 0.063183 0.562409
O O3 0.800434 0.019689 0.320368
O O4 0.601659 0.014393 0.268044
O O5 0.500000 0.447722 0.250000
O O6 0.309168 0.424966 0.167507
O O7 0.500000 0.500000 0.000000
O O8 0.329416 0.282911 0.682308
O O9 0.496409 0.358932 0.512969
O O10 0.337002 0.361117 0.881705
O O11 0.500000 0.225536 0.750000
O O12 0.269318 0.176618 0.785539
O O13 0.250000 0.250000 0.000000
#
# Coordination Sequence:
#
# PCOD9259685 Si02
#       6
#     8   8   8   8   4   8
#     4  11  22  40  60  88 127 162 211 251 326 370
#     4  12  23  38  67  93 123 160 207 266 321 379
#     4  10  18  35  63  88 119 162 208 266 304 372
#     4  10  18  36  58  89 125 161 209 264 310 363
#     4  10  24  42  54  86 134 170 202 256 314 402
#     4  10  20  35  58  92 125 153 211 257 316 367
#
# _framework density 21.879073999999999
#
# number of rings (size 3 to 8) (size 9 to 14) (size 15 to 20)
#    0.000    1.455    5.455    3.273    0.000    0.000 
#   21.273    0.000    2.000    1.091    0.000    0.000 
#    0.000    0.000    0.000    0.000    0.000    0.000 
#
# Total GULP energy -122691.753795 kJ/mol
# GULP energy per Si atom -5576.897900 kJ/mol
# Density = 2.182928 g / cm^3
# Si number density = 21.879074 Si / 1000 Ang^3
#
#
#
# Elastic Constant Matrix: (Units=GPa)
#
#
# Indices 1 2 3 4 5 6 
#
# 1 70.6977 43.3786 19.3996 0.0000 -16.2951 0.0000
# 2 43.3786 169.2037 33.1862 0.0000 -20.9812 0.0000
# 3 19.3996 33.1862 64.5193 0.0000 -26.4968 0.0000
# 4 0.0000 0.0000 0.0000 27.9279 0.0000 -10.3275
# 5 -16.2951 -20.9812 -26.4968 0.0000 34.3793 0.0000
# 6 0.0000 0.0000 0.0000 -10.3275 0.0000 35.9408
#
#
#
# Elastic Compliance Matrix: (Units=1/GPa)
#
#
# Indices 1 2 3 4 5 6 
#
# 1 0.017991 -0.003698 -0.001364 0.000000 0.005219 0.000000
# 2 -0.003698 0.007434 -0.002295 0.000000 0.001016 0.000000
# 3 -0.001364 -0.002295 0.023774 0.000000 0.016276 0.000000
# 4 0.000000 0.000000 0.000000 0.040064 0.000000 0.011512
# 5 0.005219 0.001016 0.016276 0.000000 0.044725 0.000000
# 6 0.000000 0.000000 0.000000 0.011512 0.000000 0.031132
#
#
# Mechanical properties :
#
#
# Convention : Reuss Voigt Hill
#
# Bulk Modulus (GPa) = 28.99751 55.14995 42.07373
# Shear Modulus (GPa) = 26.13321 33.54669 29.83995
#
# Velocity S-wave (km/s) = 3.45981 3.91996 3.69705
# Velocity P-wave (km/s) = 5.40765 6.76384 6.12341
#
# Compressibility (1/GPa) = 0.03448572
#
# Stress axis : x y z
#
# Youngs Moduli (GPa) = 55.58407 134.51698 42.06270
#
# Poissons Ratio (x) = 0.49738 0.05738
# Poissons Ratio (y) = 0.20552 0.09653
# Poissons Ratio (z) = 0.07582 0.30871
#
# Static dielectric constant tensor:
#      x y z
#    x 2.254510 0.000000 -0.036860 
#    y 0.000000 1.896630 0.000000 
#    z -0.036860 0.000000 1.789810 
# 
# From -- ./inp_files/34018.got.cif
#   From: 2010.05.17/outbox.cif.g08.bks.cpg/sg15_18_cif.got.tgz:34018.got - 2010.06.03 18:47:42.
