data_PCOD9259316
_publ_section_title
;
Structure prediction by ZEFSAII (Michael W. Deem and Ramdas Pophale) SiO2 
 PCOD9259316
Probable space group: C 2/C
;
_chemical_formula_sum "Si O2"
_cell_formula_units_Z 36
_cell_length_a 27.624438
_cell_length_b 14.393658
_cell_length_c 14.399448
_cell_angle_alpha 90.000000
_cell_angle_beta 165.513366
_cell_angle_gamma 90.000000
_cell_volume 1432.247859
_symmetry_space_group_name_H-M "C 2/C"
_symmetry_group_IT_number 15
_symmetry_cell_setting 'monoclinic'
loop_
_space_group_symop_operation_xyz
x,y,z
-x,y,1/2-z
-x,-y,-z
x,-y,1/2+z
1/2+x,1/2+y,z
1/2-x,1/2+y,1/2-z
1/2-x,1/2-y,-z
1/2+x,1/2-y,1/2+z
loop_
_atom_site_type_symbol
_atom_site_label
_atom_site_fract_x
_atom_site_fract_y
_atom_site_fract_z
Si Si1 0.256869 0.149704 0.964162
Si Si2 0.747133 0.520726 0.113587
Si Si3 0.809335 0.899551 0.806795
Si Si4 0.196613 0.857260 0.905289
Si Si5 0.500000 0.221391 0.250000
O O1 0.325376 0.079481 0.171623
O O2 0.034830 0.129592 0.526262
O O3 0.250000 0.250000 0.000000
O O4 0.381222 0.161261 0.102761
O O5 0.518645 0.550016 0.688688
O O6 0.765752 0.413417 0.123072
O O7 0.808165 0.552382 0.328943
O O8 0.728904 0.899577 0.553737
O O9 0.859415 0.793994 0.933200
O O10 0.250000 0.750000 0.000000
#
# Coordination Sequence:
#
# PCOD9259316 Si02
#       5
#     8   8   8   8   4
#     4  11  18  38  69  89 127 174 215 262 317 390
#     4   9  19  38  65  90 126 174 214 252 317 401
#     4   9  17  37  64  91 119 172 219 240 329 382
#     4  11  23  41  63 100 134 164 213 275 324 377
#     4  10  18  34  68  94 114 178 220 250 310 394
#
# _framework density 25.135314000000001
#
# number of rings (size 3 to 8) (size 9 to 14) (size 15 to 20)
#    0.000    2.222    6.667    2.667    0.000    0.000 
#   12.000    1.111   14.667    0.000    0.000    0.000 
#    0.000    0.000    0.000    0.000    0.000    0.000 
#
# Total GULP energy -100765.532825 kJ/mol
# GULP energy per Si atom -5598.085157 kJ/mol
# Density = 2.507811 g / cm^3
# Si number density = 25.135314 Si / 1000 Ang^3
#
#
#
# Elastic Constant Matrix: (Units=GPa)
#
#
# Indices 1 2 3 4 5 6 
#
# 1 239.2578 79.1628 53.8143 0.0000 29.7355 0.0000
# 2 79.1628 125.9136 10.0001 0.0000 8.7174 0.0000
# 3 53.8143 10.0001 85.7180 0.0000 19.2024 0.0000
# 4 0.0000 0.0000 0.0000 13.0263 0.0000 -13.7390
# 5 29.7355 8.7174 19.2024 0.0000 37.3351 0.0000
# 6 0.0000 0.0000 0.0000 -13.7390 0.0000 24.7381
#
#
#
# Elastic Compliance Matrix: (Units=1/GPa)
#
#
# Indices 1 2 3 4 5 6 
#
# 1 0.006370 -0.003581 -0.002975 0.000000 -0.002707 0.000000
# 2 -0.003581 0.010112 0.001083 0.000000 -0.000066 0.000000
# 3 -0.002975 0.001083 0.014618 0.000000 -0.005402 0.000000
# 4 0.000000 0.000000 0.000000 0.185326 0.000000 0.102926
# 5 -0.002707 -0.000066 -0.005402 0.000000 0.031734 0.000000
# 6 0.000000 0.000000 0.000000 0.102926 0.000000 0.097586
#
#
# Mechanical properties :
#
#
# Convention : Reuss Voigt Hill
#
# Bulk Modulus (GPa) = 49.61755 81.87155 65.74455
# Shear Modulus (GPa) = 13.75859 35.54737 24.65298
#
# Velocity S-wave (km/s) = 2.34216 3.76472 3.13519
# Velocity P-wave (km/s) = 5.20550 7.17917 6.27048
#
# Compressibility (1/GPa) = 0.02015416
#
# Stress axis : x y z
#
# Youngs Moduli (GPa) = 156.98375 98.89225 68.41098
#
# Poissons Ratio (x) = 0.35415 0.20352
# Poissons Ratio (y) = 0.56219 -0.07412
# Poissons Ratio (z) = 0.46702 -0.10714
#
# Static dielectric constant tensor:
#      x y z
#    x 1.974660 0.000000 -0.001980 
#    y 0.000000 1.983440 0.000000 
#    z -0.001980 0.000000 2.073850 
# 
# From -- ./inp_files/141974.got.cif
#   From: 2010.05.17/outbox.cif.g08.bks.cpg/sg15_71_cif.got.tgz:141974.got - 2010.06.03 18:47:42.
