data_PCOD9259425
_publ_section_title
;
Structure prediction by ZEFSAII (Michael W. Deem and Ramdas Pophale) SiO2 
 PCOD9259425
Probable space group: C 2/C
;
_chemical_formula_sum "Si O2"
_cell_formula_units_Z 56
_cell_length_a 21.927064
_cell_length_b 15.970192
_cell_length_c 8.987251
_cell_angle_alpha 90.000000
_cell_angle_beta 102.637817
_cell_angle_gamma 90.000000
_cell_volume 3070.902990
_symmetry_space_group_name_H-M "C 2/C"
_symmetry_group_IT_number 15
_symmetry_cell_setting 'monoclinic'
loop_
_space_group_symop_operation_xyz
x,y,z
-x,y,1/2-z
-x,-y,-z
x,-y,1/2+z
1/2+x,1/2+y,z
1/2-x,1/2+y,1/2-z
1/2-x,1/2-y,-z
1/2+x,1/2-y,1/2+z
loop_
_atom_site_type_symbol
_atom_site_label
_atom_site_fract_x
_atom_site_fract_y
_atom_site_fract_z
Si Si1 0.292419 0.060174 0.548325
Si Si2 0.694317 0.367277 0.182446
Si Si3 0.366166 0.803032 0.273919
Si Si4 0.244900 0.191362 0.292192
Si Si5 0.284264 0.870895 0.492648
Si Si6 0.500000 0.520415 0.750000
Si Si7 0.500000 0.254353 0.750000
Si Si8 0.056594 0.108000 0.491845
O O1 0.232842 0.059087 0.624790
O O2 0.342027 0.120726 0.656474
O O3 0.268330 0.111405 0.393823
O O4 0.309469 0.965097 0.527838
O O5 0.720516 0.277292 0.141448
O O6 0.719384 0.373075 0.363972
O O7 0.624292 0.374182 0.094043
O O8 0.327899 0.716147 0.222998
O O9 0.337112 0.825527 0.420502
O O10 0.439449 0.792998 0.284363
O O11 0.266633 0.174282 0.135474
O O12 0.520935 0.574059 0.619086
O O13 0.447876 0.459938 0.645541
O O14 0.474088 0.311260 0.600921
#
# Coordination Sequence:
#
# PCOD9259425 Si02
#       8
#     8   8   8   8   8   4   4   8
#     4  10  19  35  56  86 110 144 181 239 293 339
#     4  10  20  33  55  83 111 145 185 226 285 341
#     4  10  21  38  57  80 113 148 194 230 276 345
#     4  10  18  35  57  82 114 143 182 241 285 332
#     4  10  21  35  56  90 114 141 180 242 297 328
#     4   9  22  38  52  74 123 150 180 240 265 328
#     4  11  22  40  60  76 105 164 196 228 269 338
#     4  10  21  38  54  81 110 152 195 223 276 334
#
# _framework density 18.235679000000001
#
# number of rings (size 3 to 8) (size 9 to 14) (size 15 to 20)
#    0.000    2.286    0.000    6.857    2.000    2.286 
#    7.714    0.714    0.000    0.000    0.000    0.000 
#    0.000    0.000    0.000    0.000    0.000    0.000 
#
# Total GULP energy -155913.253981 kJ/mol
# GULP energy per Si atom -5568.330499 kJ/mol
# Density = 1.819417 g / cm^3
# Si number density = 18.235679 Si / 1000 Ang^3
#
#
#
# Elastic Constant Matrix: (Units=GPa)
#
#
# Indices 1 2 3 4 5 6 
#
# 1 126.3841 34.6528 36.5056 0.0000 16.6871 0.0000
# 2 34.6528 65.3006 17.5164 0.0000 -4.5185 0.0000
# 3 36.5056 17.5164 95.3224 0.0000 -9.0360 0.0000
# 4 0.0000 0.0000 0.0000 17.9976 0.0000 -6.2725
# 5 16.6871 -4.5185 -9.0360 0.0000 18.7899 0.0000
# 6 0.0000 0.0000 0.0000 -6.2725 0.0000 12.9932
#
#
#
# Elastic Compliance Matrix: (Units=1/GPa)
#
#
# Indices 1 2 3 4 5 6 
#
# 1 0.013510 -0.006830 -0.005461 0.000000 -0.016267 0.000000
# 2 -0.006830 0.019680 0.000024 0.000000 0.010810 0.000000
# 3 -0.005461 0.000024 0.013661 0.000000 0.011425 0.000000
# 4 0.000000 0.000000 0.000000 0.066802 0.000000 0.032249
# 5 -0.016267 0.010810 0.011425 0.000000 0.075760 0.000000
# 6 0.000000 0.000000 0.000000 0.032249 0.000000 0.092532
#
#
# Mechanical properties :
#
#
# Convention : Reuss Voigt Hill
#
# Bulk Modulus (GPa) = 44.80927 51.59520 48.20223
# Shear Modulus (GPa) = 15.92769 23.17829 19.55299
#
# Velocity S-wave (km/s) = 2.95860 3.56903 3.27806
# Velocity P-wave (km/s) = 6.02468 6.73342 6.38889
#
# Compressibility (1/GPa) = 0.02231681
#
# Stress axis : x y z
#
# Youngs Moduli (GPa) = 74.01749 50.81321 73.20292
#
# Poissons Ratio (x) = 0.34707 0.39976
# Poissons Ratio (y) = 0.50556 -0.00177
# Poissons Ratio (z) = 0.40420 -0.00123
#
# Static dielectric constant tensor:
#      x y z
#    x 1.624520 0.000000 -0.000920 
#    y 0.000000 1.656180 0.000000 
#    z -0.000920 0.000000 1.704980 
# 
# From -- ./inp_files/56194.got.cif
#   From: 2010.05.17/outbox.cif.g08.bks.cpg/sg15_29_cif.got.tgz:56194.got - 2010.06.03 18:47:42.
