data_PCOD9259909
_publ_section_title
;
Structure prediction by ZEFSAII (Michael W. Deem and Ramdas Pophale) SiO2 
 PCOD9259909
Probable space group: C 2/C
;
_chemical_formula_sum "Si O2"
_cell_formula_units_Z 52
_cell_length_a 19.145287
_cell_length_b 7.452937
_cell_length_c 25.086532
_cell_angle_alpha 90.000000
_cell_angle_beta 39.369095
_cell_angle_gamma 90.000000
_cell_volume 2270.565272
_symmetry_space_group_name_H-M "C 2/C"
_symmetry_group_IT_number 15
_symmetry_cell_setting 'monoclinic'
loop_
_space_group_symop_operation_xyz
x,y,z
-x,y,1/2-z
-x,-y,-z
x,-y,1/2+z
1/2+x,1/2+y,z
1/2-x,1/2+y,1/2-z
1/2-x,1/2-y,-z
1/2+x,1/2-y,1/2+z
loop_
_atom_site_type_symbol
_atom_site_label
_atom_site_fract_x
_atom_site_fract_y
_atom_site_fract_z
Si Si1 0.411783 0.763460 0.193821
Si Si2 0.662620 0.850262 0.419448
Si Si3 0.914277 0.249792 0.572538
Si Si4 0.797272 0.992157 0.927984
Si Si5 0.215996 0.895866 0.252295
Si Si6 0.500000 0.671473 0.250000
Si Si7 0.860617 0.151906 0.494656
O O1 0.330655 0.910605 0.217516
O O2 0.341080 0.579886 0.232068
O O3 0.446620 0.787639 0.234309
O O4 0.521764 0.732553 0.094311
O O5 0.545903 0.755133 0.493767
O O6 0.744269 0.789702 0.323965
O O7 0.629262 0.053506 0.419690
O O8 0.727074 0.864149 0.436989
O O9 0.868505 0.193311 0.656588
O O10 0.870095 0.119484 0.551797
O O11 0.826314 0.002294 0.973295
O O12 0.910370 0.954495 0.830595
O O13 0.728104 0.808907 0.961073
#
# Coordination Sequence:
#
# PCOD9259909 Si02
#       7
#     8   8   8   8   8   4   8
#     4  11  22  35  62  88 126 153 209 252 310 354
#     4  10  19  36  56  90 118 165 196 251 308 375
#     4  10  20  34  59  82 125 155 202 250 313 351
#     4   9  17  31  58  81 117 149 206 245 302 350
#     4  12  21  38  59  96 122 164 205 262 300 377
#     4  10  18  36  58  90 108 166 202 254 290 376
#     4   9  18  33  51  88 113 153 195 256 287 355
#
# _framework density 22.901785
#
# number of rings (size 3 to 8) (size 9 to 14) (size 15 to 20)
#    0.000    1.846    4.615    0.923    0.000    0.615 
#    0.000    0.000    0.000    6.462    0.000    0.000 
#    0.000    0.000    0.000    0.000    0.000    0.000 
#
# Total GULP energy -145253.521639 kJ/mol
# GULP energy per Si atom -5586.673909 kJ/mol
# Density = 2.284966 g / cm^3
# Si number density = 22.901785 Si / 1000 Ang^3
#
#
#
# Elastic Constant Matrix: (Units=GPa)
#
#
# Indices 1 2 3 4 5 6 
#
# 1 152.5647 30.1064 66.7436 -0.0009 8.5949 0.0002
# 2 30.1064 35.9698 42.8671 -0.0031 1.2240 0.0012
# 3 66.7436 42.8671 150.5976 0.0001 7.3467 0.0000
# 4 -0.0009 -0.0031 0.0001 0.9583 0.0001 12.5999
# 5 8.5949 1.2240 7.3467 0.0001 38.4156 -0.0001
# 6 0.0002 0.0012 0.0000 12.5999 -0.0001 16.0386
#
#
#
# Elastic Compliance Matrix: (Units=1/GPa)
#
#
# Indices 1 2 3 4 5 6 
#
# 1 0.008552 -0.004044 -0.002576 0.000001 -0.001292 0.000000
# 2 -0.004044 0.044021 -0.010815 -0.000020 0.001570 0.000012
# 3 -0.002576 -0.010815 0.010917 0.000005 -0.001167 -0.000003
# 4 0.000001 -0.000020 0.000005 -0.111856 0.000000 0.087874
# 5 -0.001292 0.001570 -0.001167 0.000000 0.026493 0.000000
# 6 0.000000 0.000012 -0.000003 0.087874 0.000000 -0.006684
#
#
# Mechanical properties :
#
#
# Convention : Reuss Voigt Hill
#
# Bulk Modulus (GPa) = 34.93991 68.72962 51.83476
# Shear Modulus (GPa) = 315.35897 24.37685 169.86791
#
# Velocity S-wave (km/s) = 11.74732 3.26607 8.62168
# Velocity P-wave (km/s) = 14.11697 6.65572 11.03602
#
# Compressibility (1/GPa) = 0.02862056
#
# Stress axis : x y z
#
# Youngs Moduli (GPa) = 116.92533 22.71642 91.59815
#
# Poissons Ratio (x) = 0.09187 0.23597
# Poissons Ratio (y) = 0.47287 0.99061
# Poissons Ratio (z) = 0.30122 0.24567
#
# Static dielectric constant tensor:
#      x y z
#    x 1.888820 0.000000 0.030570 
#    y 0.000000 1.870590 0.000000 
#    z 0.030570 0.000000 1.854190 
# 
# From -- ./inp_files/298344.got.cif
#   From: 2010.05.17/outbox.cif.g08.bks.cpg/sg15_150_cif.got.tgz:298344.got - 2010.06.03 18:47:42.
