data_PCOD9259398
_publ_section_title
;
Structure prediction by ZEFSAII (Michael W. Deem and Ramdas Pophale) SiO2 
 PCOD9259398
Probable space group: C 2/C
;
_chemical_formula_sum "Si O2"
_cell_formula_units_Z 52
_cell_length_a 17.583145
_cell_length_b 16.834371
_cell_length_c 9.788517
_cell_angle_alpha 90.000000
_cell_angle_beta 117.441944
_cell_angle_gamma 90.000000
_cell_volume 2571.390711
_symmetry_space_group_name_H-M "C 2/C"
_symmetry_group_IT_number 15
_symmetry_cell_setting 'monoclinic'
loop_
_space_group_symop_operation_xyz
x,y,z
-x,y,1/2-z
-x,-y,-z
x,-y,1/2+z
1/2+x,1/2+y,z
1/2-x,1/2+y,1/2-z
1/2-x,1/2-y,-z
1/2+x,1/2-y,1/2+z
loop_
_atom_site_type_symbol
_atom_site_label
_atom_site_fract_x
_atom_site_fract_y
_atom_site_fract_z
Si Si1 0.500000 0.492120 0.750000
Si Si2 0.500000 0.701041 0.750000
Si Si3 0.552003 0.631194 0.066872
Si Si4 0.833948 0.227514 0.986311
Si Si5 0.177224 0.722424 0.332513
Si Si6 0.757309 0.072631 0.285548
Si Si7 0.183145 0.046528 0.457565
Si Si8 0.000000 0.744674 0.750000
O O1 0.483319 0.441628 0.874986
O O2 0.398100 0.511741 0.641836
O O3 0.496841 0.644623 0.614934
O O4 0.414905 0.753841 0.683024
O O5 0.652392 0.619872 0.126835
O O6 0.537423 0.705813 0.153066
O O7 0.817955 0.235377 0.812012
O O8 0.750000 0.250000 0.000000
O O9 0.851617 0.134795 0.036409
O O10 0.911941 0.283803 0.104417
O O11 0.250000 0.750000 0.500000
O O12 0.189253 0.630250 0.300576
O O13 0.755462 0.055296 0.122858
O O14 0.767642 0.991311 0.375706
#
# Coordination Sequence:
#
# PCOD9259398 Si02
#       8
#     4   4   8   8   8   8   8   4
#     4   9  18  37  54  84 123 162 203 236 299 403
#     4  12  22  35  65  89 127 166 196 272 318 345
#     4  10  18  35  56  87 124 158 198 245 306 380
#     4  12  22  41  70  89 124 166 210 260 309 372
#     4  12  25  41  62  98 128 164 210 262 306 373
#     4  11  24  39  57  89 129 158 211 249 311 385
#     4  11  22  38  59  88 124 168 198 257 313 374
#     4  11  18  40  59  93 122 160 211 250 303 386
#
# _framework density 20.222519999999999
#
# number of rings (size 3 to 8) (size 9 to 14) (size 15 to 20)
#    0.000    0.923    9.231    0.000    2.154    4.308 
#    0.000    0.000    0.000    1.846    0.000    0.000 
#    0.000    0.000    0.000    0.000    0.000    0.000 
#
# Total GULP energy -144898.461849 kJ/mol
# GULP energy per Si atom -5573.017763 kJ/mol
# Density = 2.017649 g / cm^3
# Si number density = 20.222520 Si / 1000 Ang^3
#
#
#
# Elastic Constant Matrix: (Units=GPa)
#
#
# Indices 1 2 3 4 5 6 
#
# 1 98.7720 11.6027 28.4321 0.0000 10.8458 0.0000
# 2 11.6027 30.3721 5.8314 0.0000 -1.8984 0.0000
# 3 28.4321 5.8314 141.1671 0.0000 -10.3376 0.0000
# 4 0.0000 0.0000 0.0000 25.1050 0.0000 6.2436
# 5 10.8458 -1.8984 -10.3376 0.0000 27.6817 0.0000
# 6 0.0000 0.0000 0.0000 6.2436 0.0000 18.9164
#
#
#
# Elastic Compliance Matrix: (Units=1/GPa)
#
#
# Indices 1 2 3 4 5 6 
#
# 1 0.012090 -0.004480 -0.002693 0.000000 -0.006050 0.000000
# 2 -0.004480 0.034937 -0.000244 0.000000 0.004060 0.000000
# 3 -0.002693 -0.000244 0.007929 0.000000 0.004000 0.000000
# 4 0.000000 0.000000 0.000000 0.043395 0.000000 -0.014323
# 5 -0.006050 0.004060 0.004000 0.000000 0.040267 0.000000
# 6 0.000000 0.000000 0.000000 -0.014323 0.000000 0.057592
#
#
# Mechanical properties :
#
#
# Convention : Reuss Voigt Hill
#
# Bulk Modulus (GPa) = 24.92314 40.22705 32.57510
# Shear Modulus (GPa) = 22.27994 29.30362 25.79178
#
# Velocity S-wave (km/s) = 3.32285 3.81078 3.57515
# Velocity P-wave (km/s) = 5.20317 6.26882 5.76069
#
# Compressibility (1/GPa) = 0.04012336
#
# Stress axis : x y z
#
# Youngs Moduli (GPa) = 82.71252 28.62311 126.11704
#
# Poissons Ratio (x) = 0.12822 0.33963
# Poissons Ratio (y) = 0.37053 0.03072
# Poissons Ratio (z) = 0.22275 0.00697
#
# Static dielectric constant tensor:
#      x y z
#    x 1.768920 0.000000 0.067560 
#    y 0.000000 1.818080 0.000000 
#    z 0.067560 0.000000 1.846180 
# 
# From -- ./inp_files/48686.got.cif
#   From: 2010.05.17/outbox.cif.g08.bks.cpg/sg15_25_cif.got.tgz:48686.got - 2010.06.03 18:47:42.
