data_PCOD9259213
_publ_section_title
;
Structure prediction by ZEFSAII (Michael W. Deem and Ramdas Pophale) SiO2 
 PCOD9259213
Probable space group: C 2/C
;
_chemical_formula_sum "Si O2"
_cell_formula_units_Z 60
_cell_length_a 26.602899
_cell_length_b 23.395172
_cell_length_c 14.876677
_cell_angle_alpha 90.000000
_cell_angle_beta 161.835150
_cell_angle_gamma 90.000000
_cell_volume 2886.492841
_symmetry_space_group_name_H-M "C 2/C"
_symmetry_group_IT_number 15
_symmetry_cell_setting 'monoclinic'
loop_
_space_group_symop_operation_xyz
x,y,z
-x,y,1/2-z
-x,-y,-z
x,-y,1/2+z
1/2+x,1/2+y,z
1/2-x,1/2+y,1/2-z
1/2-x,1/2-y,-z
1/2+x,1/2-y,1/2+z
loop_
_atom_site_type_symbol
_atom_site_label
_atom_site_fract_x
_atom_site_fract_y
_atom_site_fract_z
Si Si1 0.189885 0.816980 0.056495
Si Si2 0.498359 0.102935 0.849026
Si Si3 0.877987 0.050413 0.821479
Si Si4 0.742911 0.195400 0.212468
Si Si5 0.000000 0.878890 0.250000
Si Si6 0.241978 0.451782 0.904835
Si Si7 0.163972 0.858608 0.818417
Si Si8 0.690572 0.441553 0.095692
O O1 0.249935 0.763225 0.215467
O O2 0.260057 0.877880 0.206280
O O3 0.196763 0.818509 0.959918
O O4 0.000000 0.816703 0.750000
O O5 0.500000 0.077232 0.750000
O O6 0.316243 0.098919 0.573263
O O7 0.573114 0.167079 0.956717
O O8 0.609717 0.078037 0.116796
O O9 0.742867 0.053844 0.513735
O O10 0.800862 0.037484 0.787366
O O11 0.994467 0.106899 0.031179
O O12 0.000000 0.000000 0.000000
O O13 0.803772 0.175039 0.218163
O O14 0.866545 0.163247 0.486064
O O15 0.086886 0.921090 0.327968
O O16 0.244380 0.515153 0.867943
O O17 0.500000 0.437406 0.750000
#
# Coordination Sequence:
#
# PCOD9259213 Si02
#       8
#     8   8   8   8   4   8   8   8
#     4  11  21  38  58  83 125 162 206 252 306 376
#     4   9  22  38  61  91 122 155 205 261 311 363
#     4  12  21  35  64  93 121 157 213 261 312 373
#     4  10  21  36  60  91 119 162 207 257 310 361
#     4  10  18  34  62  88 116 154 212 264 302 352
#     4  11  20  39  64  90 123 159 209 264 310 368
#     4  11  20  38  61  92 117 161 213 254 309 375
#     4  11  21  36  59  91 120 162 204 258 306 369
#
# _framework density 20.786470999999999
#
# number of rings (size 3 to 8) (size 9 to 14) (size 15 to 20)
#    0.000    1.333    6.000    1.600    3.733    0.000 
#    0.000    4.000    1.467    4.000    0.000    0.000 
#    0.000    0.000    0.000    0.000    0.000    0.000 
#
# Total GULP energy -167184.295477 kJ/mol
# GULP energy per Si atom -5572.809849 kJ/mol
# Density = 2.073916 g / cm^3
# Si number density = 20.786471 Si / 1000 Ang^3
#
#
#
# Elastic Constant Matrix: (Units=GPa)
#
#
# Indices 1 2 3 4 5 6 
#
# 1 100.3268 18.9755 19.4214 0.0000 -27.2477 0.0000
# 2 18.9755 122.4934 9.7657 0.0000 -13.6500 0.0000
# 3 19.4214 9.7657 62.7075 0.0000 -19.6930 0.0000
# 4 0.0000 0.0000 0.0000 17.1237 0.0000 -12.2959
# 5 -27.2477 -13.6500 -19.6930 0.0000 31.5507 0.0000
# 6 0.0000 0.0000 0.0000 -12.2959 0.0000 34.6443
#
#
#
# Elastic Compliance Matrix: (Units=1/GPa)
#
#
# Indices 1 2 3 4 5 6 
#
# 1 0.013116 -0.000802 -0.000608 0.000000 0.010600 0.000000
# 2 -0.000802 0.008629 -0.000175 0.000000 0.002931 0.000000
# 3 -0.000608 -0.000175 0.019868 0.000000 0.011800 0.000000
# 4 0.000000 0.000000 0.000000 0.078372 0.000000 0.027816
# 5 0.010600 0.002931 0.011800 0.000000 0.049483 0.000000
# 6 0.000000 0.000000 0.000000 0.027816 0.000000 0.038737
#
#
# Mechanical properties :
#
#
# Convention : Reuss Voigt Hill
#
# Bulk Modulus (GPa) = 26.01274 42.42809 34.22041
# Shear Modulus (GPa) = 22.30256 32.48808 27.39532
#
# Velocity S-wave (km/s) = 3.27912 3.95770 3.63428
# Velocity P-wave (km/s) = 5.18443 6.42963 5.84031
#
# Compressibility (1/GPa) = 0.03844270
#
# Stress axis : x y z
#
# Youngs Moduli (GPa) = 76.24367 115.89461 50.33094
#
# Poissons Ratio (x) = 0.09295 0.03061
# Poissons Ratio (y) = 0.06115 0.00880
# Poissons Ratio (z) = 0.04637 0.02026
#
# Static dielectric constant tensor:
#      x y z
#    x 2.152270 0.000000 -0.225870 
#    y 0.000000 1.812790 0.000000 
#    z -0.225870 0.000000 1.959720 
# 
# From -- ./inp_files/179299.got.cif
#   From: 2010.05.17/outbox.cif.g08.bks.cpg/sg15_90_cif.got.tgz:179299.got - 2010.06.03 18:47:42.
