data_PCOD9259039
_publ_section_title
;
Structure prediction by ZEFSAII (Michael W. Deem and Ramdas Pophale) SiO2 
 PCOD9259039
Probable space group: C 2/C
;
_chemical_formula_sum "Si O2"
_cell_formula_units_Z 60
_cell_length_a 17.714351
_cell_length_b 30.527482
_cell_length_c 12.095715
_cell_angle_alpha 90.000000
_cell_angle_beta 151.611796
_cell_angle_gamma 90.000000
_cell_volume 3109.899266
_symmetry_space_group_name_H-M "C 2/C"
_symmetry_group_IT_number 15
_symmetry_cell_setting 'monoclinic'
loop_
_space_group_symop_operation_xyz
x,y,z
-x,y,1/2-z
-x,-y,-z
x,-y,1/2+z
1/2+x,1/2+y,z
1/2-x,1/2+y,1/2-z
1/2-x,1/2-y,-z
1/2+x,1/2-y,1/2+z
loop_
_atom_site_type_symbol
_atom_site_label
_atom_site_fract_x
_atom_site_fract_y
_atom_site_fract_z
Si Si1 0.178524 0.950514 0.938772
Si Si2 0.648423 0.402138 0.320042
Si Si3 0.113666 0.959194 0.613715
Si Si4 0.654040 0.092858 0.647713
Si Si5 0.761471 0.260542 0.644795
Si Si6 0.445485 0.187457 0.048632
Si Si7 0.000000 0.176500 0.750000
Si Si8 0.850711 0.535434 0.230915
O O1 0.159605 0.936527 0.787800
O O2 0.000000 0.963481 0.750000
O O3 0.250303 0.915577 0.116299
O O4 0.298277 0.992000 0.097126
O O5 0.726243 0.406192 0.300601
O O6 0.608010 0.354269 0.312353
O O7 0.765579 0.425547 0.555104
O O8 0.485989 0.428670 0.096504
O O9 0.269089 0.971402 0.745091
O O10 0.000000 0.000000 0.500000
O O11 0.571513 0.140010 0.528085
O O12 0.528675 0.053055 0.472549
O O13 0.750000 0.250000 0.500000
O O14 0.715585 0.216534 0.650925
O O15 0.614699 0.293868 0.472286
O O16 0.927976 0.285432 0.861959
O O17 0.500000 0.182748 0.250000
#
# Coordination Sequence:
#
# PCOD9259039 Si02
#       8
#     8   8   8   8   8   8   4   8
#     4  12  24  43  64  86 126 179 222 255 312 384
#     4  12  22  37  64  94 127 169 209 267 319 380
#     4  12  22  41  64  85 122 173 222 260 306 377
#     4  12  26  40  61  96 134 164 212 272 322 376
#     4  10  18  34  58  88 132 164 196 249 331 397
#     4  10  20  37  57  93 131 162 200 258 327 389
#     4  12  20  32  62  96 128 164 212 254 330 390
#     4  12  23  42  62  93 125 167 212 271 323 367
#
# _framework density 19.293230000000001
#
# number of rings (size 3 to 8) (size 9 to 14) (size 15 to 20)
#    0.000    0.533    7.333    4.000    0.000    0.533 
#    2.400    0.000    0.000    0.000    0.000    3.733 
#    0.000    0.000    0.000    0.000    0.000    0.000 
#
# Total GULP energy -167491.307422 kJ/mol
# GULP energy per Si atom -5583.043581 kJ/mol
# Density = 1.924932 g / cm^3
# Si number density = 19.293230 Si / 1000 Ang^3
#
#
#
# Elastic Constant Matrix: (Units=GPa)
#
#
# Indices 1 2 3 4 5 6 
#
# 1 49.2277 6.9055 20.3878 0.0000 -5.8227 0.0000
# 2 6.9055 87.6107 30.5351 0.0000 9.2793 0.0000
# 3 20.3878 30.5351 83.7962 0.0000 -6.8244 0.0000
# 4 0.0000 0.0000 0.0000 30.5797 0.0000 12.2704
# 5 -5.8227 9.2793 -6.8244 0.0000 30.3154 0.0000
# 6 0.0000 0.0000 0.0000 12.2704 0.0000 24.2472
#
#
#
# Elastic Compliance Matrix: (Units=1/GPa)
#
#
# Indices 1 2 3 4 5 6 
#
# 1 0.022900 -0.000358 -0.005169 0.000000 0.003344 0.000000
# 2 -0.000358 0.013927 -0.005440 0.000000 -0.005556 0.000000
# 3 -0.005169 -0.005440 0.015513 0.000000 0.004165 0.000000
# 4 0.000000 0.000000 0.000000 0.041034 0.000000 -0.020765
# 5 0.003344 -0.005556 0.004165 0.000000 0.036267 0.000000
# 6 0.000000 0.000000 0.000000 -0.020765 0.000000 0.051750
#
#
# Mechanical properties :
#
#
# Convention : Reuss Voigt Hill
#
# Bulk Modulus (GPa) = 32.88820 37.36570 35.12695
# Shear Modulus (GPa) = 23.42348 27.88220 25.65284
#
# Velocity S-wave (km/s) = 3.48814 3.80568 3.65036
# Velocity P-wave (km/s) = 5.77117 6.22256 6.00111
#
# Compressibility (1/GPa) = 0.03040605
#
# Stress axis : x y z
#
# Youngs Moduli (GPa) = 43.66765 71.80298 64.46213
#
# Poissons Ratio (x) = 0.02568 0.33320
# Poissons Ratio (y) = 0.01562 0.35070
# Poissons Ratio (z) = 0.22572 0.39064
#
# Static dielectric constant tensor:
#      x y z
#    x 1.725220 0.000000 0.068050 
#    y 0.000000 1.720690 0.000000 
#    z 0.068050 0.000000 1.702430 
# 
# From -- ./inp_files/108596.got.cif
#   From: 2010.05.17/outbox.cif.g08.bks.cpg/sg15_55_cif.got.tgz:108596.got - 2010.06.03 18:47:42.
