data_PCOD9259260
_publ_section_title
;
Structure prediction by ZEFSAII (Michael W. Deem and Ramdas Pophale) SiO2 
 PCOD9259260
Probable space group: C 2/C
;
_chemical_formula_sum "Si O2"
_cell_formula_units_Z 48
_cell_length_a 13.909249
_cell_length_b 12.155035
_cell_length_c 18.931224
_cell_angle_alpha 90.000000
_cell_angle_beta 136.694719
_cell_angle_gamma 90.000000
_cell_volume 2195.281244
_symmetry_space_group_name_H-M "C 2/C"
_symmetry_group_IT_number 15
_symmetry_cell_setting 'monoclinic'
loop_
_space_group_symop_operation_xyz
x,y,z
-x,y,1/2-z
-x,-y,-z
x,-y,1/2+z
1/2+x,1/2+y,z
1/2-x,1/2+y,1/2-z
1/2-x,1/2-y,-z
1/2+x,1/2-y,1/2+z
loop_
_atom_site_type_symbol
_atom_site_label
_atom_site_fract_x
_atom_site_fract_y
_atom_site_fract_z
Si Si1 0.973365 0.163638 0.980713
Si Si2 0.078075 0.225120 0.891793
Si Si3 0.828096 0.974948 0.817833
Si Si4 0.999825 0.535358 0.331754
Si Si5 0.507915 0.888580 0.458201
Si Si6 0.689164 0.629411 0.811833
O O1 0.081857 0.182009 0.973356
O O2 0.860628 0.079103 0.887606
O O3 0.913203 0.283823 0.967911
O O4 0.059267 0.111707 0.091977
O O5 0.162079 0.151711 0.879939
O O6 0.093757 0.356182 0.895528
O O7 0.917837 0.212676 0.781198
O O8 0.664119 0.945720 0.735230
O O9 0.851410 0.015154 0.749239
O O10 0.052673 0.433189 0.406490
O O11 0.000000 0.511050 0.250000
O O12 0.346776 0.849402 0.373258
O O13 0.500000 0.000000 0.500000
#
# Coordination Sequence:
#
# PCOD9259260 Si02
#       6
#     8   8   8   8   8   8
#     4  10  20  37  60  85 121 158 198 239 302 355
#     4  10  18  34  63  93 114 142 206 261 283 336
#     4   9  21  38  59  84 121 161 191 246 300 360
#     4  11  21  37  58  88 118 153 199 247 299 345
#     4  11  22  36  56  89 126 159 190 245 306 354
#     4   9  19  34  56  91 118 148 194 250 301 331
#
# _framework density 21.865079999999999
#
# number of rings (size 3 to 8) (size 9 to 14) (size 15 to 20)
#    0.000    2.000    3.333    1.000    0.000    2.000 
#    0.000    0.833   11.000    0.000    0.000    0.000 
#    0.000    0.000    0.000    0.000    0.000    0.000 
#
# Total GULP energy -133787.139732 kJ/mol
# GULP energy per Si atom -5574.464156 kJ/mol
# Density = 2.181531 g / cm^3
# Si number density = 21.865080 Si / 1000 Ang^3
#
#
#
# Elastic Constant Matrix: (Units=GPa)
#
#
# Indices 1 2 3 4 5 6 
#
# 1 73.7467 34.0407 20.6880 0.0000 -29.6956 0.0000
# 2 34.0407 104.7911 29.9011 0.0000 -26.8976 0.0000
# 3 20.6880 29.9011 79.6630 0.0000 -8.7430 0.0000
# 4 0.0000 0.0000 0.0000 35.1497 0.0000 -11.1055
# 5 -29.6956 -26.8976 -8.7430 0.0000 33.2139 0.0000
# 6 0.0000 0.0000 0.0000 -11.1055 0.0000 12.1783
#
#
#
# Elastic Compliance Matrix: (Units=1/GPa)
#
#
# Indices 1 2 3 4 5 6 
#
# 1 0.022446 -0.001823 -0.003197 0.000000 0.017750 0.000000
# 2 -0.001823 0.013258 -0.003608 0.000000 0.008157 0.000000
# 3 -0.003197 -0.003608 0.014522 0.000000 -0.001957 0.000000
# 4 0.000000 0.000000 0.000000 0.039964 0.000000 0.036444
# 5 0.017750 0.008157 -0.001957 0.000000 0.052069 0.000000
# 6 0.000000 0.000000 0.000000 0.036444 0.000000 0.115347
#
#
# Mechanical properties :
#
#
# Convention : Reuss Voigt Hill
#
# Bulk Modulus (GPa) = 30.32928 47.49559 38.91244
# Shear Modulus (GPa) = 17.49162 27.67978 22.58570
#
# Velocity S-wave (km/s) = 2.83146 3.56186 3.21745
# Velocity P-wave (km/s) = 4.95891 6.21973 5.62476
#
# Compressibility (1/GPa) = 0.03297143
#
# Stress axis : x y z
#
# Youngs Moduli (GPa) = 44.55197 75.42493 68.85921
#
# Poissons Ratio (x) = 0.13751 0.22012
# Poissons Ratio (y) = 0.08122 0.24842
# Poissons Ratio (z) = 0.14242 0.27211
#
# Static dielectric constant tensor:
#      x y z
#    x 1.816410 0.000000 -0.008550 
#    y 0.000000 1.863930 0.000000 
#    z -0.008550 0.000000 1.862740 
# 
# From -- ./inp_files/243480.got.cif
#   From: 2010.05.17/outbox.cif.g08.bks.cpg/sg15_122_cif.got.tgz:243480.got - 2010.06.03 18:47:42.
