data_PCOD9259536
_publ_section_title
;
Structure prediction by ZEFSAII (Michael W. Deem and Ramdas Pophale) SiO2 
 PCOD9259536
Probable space group: C 2/C
;
_chemical_formula_sum "Si O2"
_cell_formula_units_Z 52
_cell_length_a 14.392062
_cell_length_b 30.065569
_cell_length_c 9.885067
_cell_angle_alpha 90.000000
_cell_angle_beta 144.380791
_cell_angle_gamma 90.000000
_cell_volume 2491.093937
_symmetry_space_group_name_H-M "C 2/C"
_symmetry_group_IT_number 15
_symmetry_cell_setting 'monoclinic'
loop_
_space_group_symop_operation_xyz
x,y,z
-x,y,1/2-z
-x,-y,-z
x,-y,1/2+z
1/2+x,1/2+y,z
1/2-x,1/2+y,1/2-z
1/2-x,1/2-y,-z
1/2+x,1/2-y,1/2+z
loop_
_atom_site_type_symbol
_atom_site_label
_atom_site_fract_x
_atom_site_fract_y
_atom_site_fract_z
Si Si1 0.692655 0.275757 0.296960
Si Si2 0.608309 0.946073 0.010590
Si Si3 0.249211 0.368350 0.740435
Si Si4 0.076575 0.648488 0.489185
Si Si5 0.630455 0.041764 0.023058
Si Si6 0.169727 0.283635 0.511697
Si Si7 0.000000 0.842080 0.250000
O O1 0.750000 0.250000 0.500000
O O2 0.824788 0.306682 0.381855
O O3 0.641448 0.241604 0.121181
O O4 0.568680 0.310234 0.214165
O O5 0.478541 0.953648 0.973457
O O6 0.500000 0.942284 0.750000
O O7 0.681167 0.897091 0.118752
O O8 0.705064 0.992089 0.111987
O O9 0.246585 0.416028 0.664249
O O10 0.276758 0.326916 0.672437
O O11 0.069845 0.358230 0.582511
O O12 0.362365 0.368398 0.006821
O O13 0.000000 0.651976 0.250000
O O14 0.500000 0.044758 0.750000
O O15 0.250000 0.250000 0.500000
O O16 0.000000 0.297665 0.250000
#
# Coordination Sequence:
#
# PCOD9259536 Si02
#       7
#     8   8   8   8   8   8   4
#     4  12  25  39  62  84 119 157 208 242 293 354
#     4   8  16  30  55  87 116 139 191 242 287 333
#     4  11  22  37  60  86 122 153 197 237 300 350
#     4  10  18  35  59  90 110 148 197 251 281 339
#     4   9  17  32  55  89 116 147 182 244 296 345
#     4  12  25  41  58  86 121 157 193 247 301 354
#     4  12  24  38  58  90 116 158 200 256 282 354
#
# _framework density 20.874364
#
# number of rings (size 3 to 8) (size 9 to 14) (size 15 to 20)
#    0.000    1.538    3.077    2.308    3.231    1.231 
#    0.000    0.000    0.000    0.923    2.000    0.000 
#    0.000    0.000    0.000    0.000    0.000    0.000 
#
# Total GULP energy -144999.703778 kJ/mol
# GULP energy per Si atom -5576.911684 kJ/mol
# Density = 2.082685 g / cm^3
# Si number density = 20.874364 Si / 1000 Ang^3
#
#
#
# Elastic Constant Matrix: (Units=GPa)
#
#
# Indices 1 2 3 4 5 6 
#
# 1 44.2052 -3.3209 7.9649 0.0000 -13.4142 0.0000
# 2 -3.3209 162.0907 48.3129 0.0000 3.8811 0.0000
# 3 7.9649 48.3129 101.0109 0.0000 -15.2790 0.0000
# 4 0.0000 0.0000 0.0000 -6.2592 0.0000 4.4005
# 5 -13.4142 3.8811 -15.2790 0.0000 31.6823 0.0000
# 6 0.0000 0.0000 0.0000 4.4005 0.0000 17.2855
#
#
#
# Elastic Compliance Matrix: (Units=1/GPa)
#
#
# Indices 1 2 3 4 5 6 
#
# 1 0.026004 0.000479 -0.000672 0.000000 0.010627 0.000000
# 2 0.000479 0.007432 -0.003990 0.000000 -0.002632 0.000000
# 3 -0.000672 -0.003990 0.012828 0.000000 0.006391 0.000000
# 4 0.000000 0.000000 0.000000 -0.135512 0.000000 0.034498
# 5 0.010627 -0.002632 0.006391 0.000000 0.039467 0.000000
# 6 0.000000 0.000000 0.000000 0.034498 0.000000 0.049070
#
#
# Mechanical properties :
#
#
# Convention : Reuss Voigt Hill
#
# Bulk Modulus (GPa) = 26.38793 45.91340 36.15066
# Shear Modulus (GPa) = 246.45235 25.49838 135.97536
#
# Velocity S-wave (km/s) = 10.87754 3.49881 8.07968
# Velocity P-wave (km/s) = 13.05488 6.19396 10.21751
#
# Compressibility (1/GPa) = 0.03789612
#
# Stress axis : x y z
#
# Youngs Moduli (GPa) = 38.45614 134.56081 77.95354
#
# Poissons Ratio (x) = -0.06439 0.05237
# Poissons Ratio (y) = -0.01840 0.31106
# Poissons Ratio (z) = 0.02584 0.53695
#
# Static dielectric constant tensor:
#      x y z
#    x 1.726320 0.000000 -0.027110 
#    y 0.000000 1.877540 0.000000 
#    z -0.027110 0.000000 1.670690 
# 
# From -- ./inp_files/44933.got.cif
#   From: 2010.05.17/outbox.cif.g08.bks.cpg/sg15_23_cif.got.tgz:44933.got - 2010.06.03 18:47:42.
