data_PCOD9259052
_publ_section_title
;
Structure prediction by ZEFSAII (Michael W. Deem and Ramdas Pophale) SiO2 
 PCOD9259052
Probable space group: C 2/C
;
_chemical_formula_sum "Si O2"
_cell_formula_units_Z 44
_cell_length_a 13.705156
_cell_length_b 9.161544
_cell_length_c 13.574443
_cell_angle_alpha 90.000000
_cell_angle_beta 96.427368
_cell_angle_gamma 90.000000
_cell_volume 1693.699374
_symmetry_space_group_name_H-M "C 2/C"
_symmetry_group_IT_number 15
_symmetry_cell_setting 'monoclinic'
loop_
_space_group_symop_operation_xyz
x,y,z
-x,y,1/2-z
-x,-y,-z
x,-y,1/2+z
1/2+x,1/2+y,z
1/2-x,1/2+y,1/2-z
1/2-x,1/2-y,-z
1/2+x,1/2-y,1/2+z
loop_
_atom_site_type_symbol
_atom_site_label
_atom_site_fract_x
_atom_site_fract_y
_atom_site_fract_z
Si Si1 0.207484 0.552609 0.615309
Si Si2 0.341382 0.994428 0.672923
Si Si3 0.346436 0.693900 0.095766
Si Si4 0.500000 0.468879 0.750000
Si Si5 0.612053 0.749407 0.939437
Si Si6 0.120136 0.994602 0.084342
O O1 0.158085 0.556359 0.716222
O O2 0.243962 0.385703 0.610758
O O3 0.307316 0.647682 0.608767
O O4 0.143757 0.626210 0.522755
O O5 0.355582 0.135347 0.607001
O O6 0.413504 0.862148 0.651825
O O7 0.226630 0.950395 0.636325
O O8 0.422957 0.628431 0.182479
O O9 0.364565 0.635815 0.988795
O O10 0.443128 0.552635 0.829214
O O11 0.574415 0.626324 0.013167
#
# Coordination Sequence:
#
# PCOD9259052 Si02
#       6
#     8   8   8   4   8   8
#     4  10  18  34  58  92 122 159 196 253 313 362
#     4  12  19  36  64  98 119 155 215 265 306 363
#     4  11  23  36  62  91 123 162 211 260 303 376
#     4  12  24  44  60  86 132 178 200 248 324 396
#     4  10  20  38  59  92 131 154 199 272 313 353
#     4  11  22  40  63  92 122 165 210 259 316 368
#
# _framework density 25.978635000000001
#
# number of rings (size 3 to 8) (size 9 to 14) (size 15 to 20)
#    0.000    1.091    7.273    3.273    0.000    0.000 
#    0.000    0.909    0.000    5.455    0.000    0.000 
#    0.000    0.000    0.000    0.000    0.000    0.000 
#
# Total GULP energy -122772.254448 kJ/mol
# GULP energy per Si atom -5580.557020 kJ/mol
# Density = 2.591951 g / cm^3
# Si number density = 25.978635 Si / 1000 Ang^3
#
#
#
# Elastic Constant Matrix: (Units=GPa)
#
#
# Indices 1 2 3 4 5 6 
#
# 1 21.0092 -2.4633 21.5381 0.0000 11.3172 0.0000
# 2 -2.4633 145.7366 54.4511 0.0000 -12.1895 0.0000
# 3 21.5381 54.4511 186.1505 0.0000 -19.3380 0.0000
# 4 0.0000 0.0000 0.0000 24.1745 0.0000 8.9711
# 5 11.3172 -12.1895 -19.3380 0.0000 45.0741 0.0000
# 6 0.0000 0.0000 0.0000 8.9711 0.0000 -1.3678
#
#
#
# Elastic Compliance Matrix: (Units=1/GPa)
#
#
# Indices 1 2 3 4 5 6 
#
# 1 0.071934 0.003745 -0.011712 0.000000 -0.022073 0.000000
# 2 0.003745 0.007958 -0.002758 0.000000 0.000028 0.000000
# 3 -0.011712 -0.002758 0.008124 0.000000 0.005680 0.000000
# 4 0.000000 0.000000 0.000000 0.012046 0.000000 0.079008
# 5 -0.022073 0.000028 0.005680 0.000000 0.030172 0.000000
# 6 0.000000 0.000000 0.000000 0.079008 0.000000 -0.212906
#
#
# Mechanical properties :
#
#
# Convention : Reuss Voigt Hill
#
# Bulk Modulus (GPa) = 15.02241 55.54978 35.28610
# Shear Modulus (GPa) = -128.09468 32.20087 -47.94691
#
# Velocity S-wave (km/s) = -7.02956 3.52449 -4.30074
# Velocity P-wave (km/s) = 7.75185 6.16377 3.32409
#
# Compressibility (1/GPa) = 0.06656722
#
# Stress axis : x y z
#
# Youngs Moduli (GPa) = 13.90164 125.66121 123.09345
#
# Poissons Ratio (x) = -0.47066 1.44161
# Poissons Ratio (y) = -0.05207 0.33952
# Poissons Ratio (z) = 0.16281 0.34660
#
# Static dielectric constant tensor:
#      x y z
#    x 2.214090 0.000000 0.037580 
#    y 0.000000 2.031240 0.000000 
#    z 0.037580 0.000000 2.057060 
# 
# From -- ./inp_files/159290.got.cif
#   From: 2010.05.17/outbox.cif.g08.bks.cpg/sg15_80_cif.got.tgz:159290.got - 2010.06.03 18:47:42.
