data_PCOD9259035
_publ_section_title
;
Structure prediction by ZEFSAII (Michael W. Deem and Ramdas Pophale) SiO2 
 PCOD9259035
Probable space group: C 2/C
;
_chemical_formula_sum "Si O2"
_cell_formula_units_Z 64
_cell_length_a 15.625029
_cell_length_b 12.268571
_cell_length_c 28.221945
_cell_angle_alpha 90.000000
_cell_angle_beta 142.221338
_cell_angle_gamma 90.000000
_cell_volume 3314.269194
_symmetry_space_group_name_H-M "C 2/C"
_symmetry_group_IT_number 15
_symmetry_cell_setting 'monoclinic'
loop_
_space_group_symop_operation_xyz
x,y,z
-x,y,1/2-z
-x,-y,-z
x,-y,1/2+z
1/2+x,1/2+y,z
1/2-x,1/2+y,1/2-z
1/2-x,1/2-y,-z
1/2+x,1/2-y,1/2+z
loop_
_atom_site_type_symbol
_atom_site_label
_atom_site_fract_x
_atom_site_fract_y
_atom_site_fract_z
Si Si1 0.325985 0.267418 0.582982
Si Si2 0.674023 0.219719 0.181435
Si Si3 0.403785 0.255413 0.856786
Si Si4 0.588334 0.541861 0.082708
Si Si5 0.810020 0.526620 0.832043
Si Si6 0.367550 0.523882 0.159003
Si Si7 0.534951 0.419428 0.151513
Si Si8 0.168775 0.624424 0.825724
O O1 0.250000 0.250000 0.500000
O O2 0.485149 0.280435 0.635621
O O3 0.297489 0.375681 0.600955
O O4 0.301441 0.168620 0.608394
O O5 0.758454 0.216097 0.267716
O O6 0.639958 0.097150 0.151743
O O7 0.544239 0.297753 0.135625
O O8 0.770007 0.284768 0.184670
O O9 0.413192 0.329268 0.907700
O O10 0.414118 0.126911 0.871480
O O11 0.514822 0.495974 0.097822
O O12 0.740984 0.484275 0.145605
O O13 0.500000 0.500000 0.000000
O O14 0.737766 0.532825 0.851425
O O15 0.686678 0.547845 0.739692
O O16 0.500000 0.562323 0.250000
O O17 0.427959 0.442561 0.146319
O O18 0.000000 0.612861 0.750000
#
# Coordination Sequence:
#
# PCOD9259035 Si02
#       8
#     8   8   8   8   8   8   8   8
#     4  12  22  34  57  86 116 156 204 250 304 361
#     4  10  18  34  58  88 116 148 194 253 303 351
#     4  11  21  37  58  87 119 151 199 252 304 365
#     4  11  22  38  59  88 129 162 199 248 317 375
#     4  10  19  34  61  87 112 146 198 255 301 342
#     4  10  18  36  59  84 111 153 203 244 296 366
#     4   9  19  32  58  83 112 153 195 234 296 361
#     4  11  22  36  60  91 121 161 209 262 303 357
#
# _framework density 19.310441000000001
#
# number of rings (size 3 to 8) (size 9 to 14) (size 15 to 20)
#    0.000    1.500    5.000    1.875    0.000    0.000 
#    0.000    5.000    0.000    0.750    0.000    0.000 
#    0.000    0.000    0.000    0.000    0.000    0.000 
#
# Total GULP energy -178441.286725 kJ/mol
# GULP energy per Si atom -5576.290210 kJ/mol
# Density = 1.926649 g / cm^3
# Si number density = 19.310441 Si / 1000 Ang^3
#
#
#
# Elastic Constant Matrix: (Units=GPa)
#
#
# Indices 1 2 3 4 5 6 
#
# 1 80.3677 35.4259 19.3212 0.0000 -26.5540 0.0000
# 2 35.4259 112.1650 5.3273 0.0000 -0.9267 0.0000
# 3 19.3212 5.3273 47.0904 0.0000 -22.8380 0.0000
# 4 0.0000 0.0000 0.0000 12.1434 0.0000 -8.4067
# 5 -26.5540 -0.9267 -22.8380 0.0000 22.6761 0.0000
# 6 0.0000 0.0000 0.0000 -8.4067 0.0000 28.9582
#
#
#
# Elastic Compliance Matrix: (Units=1/GPa)
#
#
# Indices 1 2 3 4 5 6 
#
# 1 0.028137 -0.009022 0.010315 0.000000 0.042968 0.000000
# 2 -0.009022 0.011875 -0.004946 0.000000 -0.015060 0.000000
# 3 0.010315 -0.004946 0.045593 0.000000 0.057795 0.000000
# 4 0.000000 0.000000 0.000000 0.103062 0.000000 0.029919
# 5 0.042968 -0.015060 0.057795 0.000000 0.152007 0.000000
# 6 0.000000 0.000000 0.000000 0.029919 0.000000 0.043218
#
#
# Mechanical properties :
#
#
# Convention : Reuss Voigt Hill
#
# Bulk Modulus (GPa) = 12.77144 39.97466 26.37305
# Shear Modulus (GPa) = 11.98189 24.72546 18.35368
#
# Velocity S-wave (km/s) = 2.49366 3.58218 3.08629
# Velocity P-wave (km/s) = 3.86254 6.15267 5.13685
#
# Compressibility (1/GPa) = 0.07829970
#
# Stress axis : x y z
#
# Youngs Moduli (GPa) = 35.54083 84.20865 21.93343
#
# Poissons Ratio (x) = 0.75969 -0.22624
# Poissons Ratio (y) = 0.32063 0.10848
# Poissons Ratio (z) = -0.36660 0.41648
#
# Static dielectric constant tensor:
#      x y z
#    x 1.670190 0.000000 0.037060 
#    y 0.000000 1.721820 0.000000 
#    z 0.037060 0.000000 1.742120 
# 
# From -- ./inp_files/296141.got.cif
#   From: 2010.05.17/outbox.cif.g08.bks.cpg/sg15_149_cif.got.tgz:296141.got - 2010.06.03 18:47:42.
