data_PCOD9259857
_publ_section_title
;
Structure prediction by ZEFSAII (Michael W. Deem and Ramdas Pophale) SiO2 
 PCOD9259857
Probable space group: C 2/C
;
_chemical_formula_sum "Si O2"
_cell_formula_units_Z 52
_cell_length_a 10.234733
_cell_length_b 17.751705
_cell_length_c 17.292761
_cell_angle_alpha 90.000000
_cell_angle_beta 110.412062
_cell_angle_gamma 90.000000
_cell_volume 2944.538165
_symmetry_space_group_name_H-M "C 2/C"
_symmetry_group_IT_number 15
_symmetry_cell_setting 'monoclinic'
loop_
_space_group_symop_operation_xyz
x,y,z
-x,y,1/2-z
-x,-y,-z
x,-y,1/2+z
1/2+x,1/2+y,z
1/2-x,1/2+y,1/2-z
1/2-x,1/2-y,-z
1/2+x,1/2-y,1/2+z
loop_
_atom_site_type_symbol
_atom_site_label
_atom_site_fract_x
_atom_site_fract_y
_atom_site_fract_z
Si Si1 0.431408 0.438689 0.041502
Si Si2 0.256434 0.730762 0.265497
Si Si3 0.217522 0.013351 0.350315
Si Si4 0.738610 0.815303 0.935067
Si Si5 0.500000 0.365233 0.750000
Si Si6 0.461700 0.105951 0.330237
Si Si7 0.878240 0.119429 0.781804
O O1 0.312530 0.474320 0.073553
O O2 0.547490 0.406305 0.124408
O O3 0.500000 0.500000 0.000000
O O4 0.363914 0.372943 0.976702
O O5 0.241141 0.726533 0.353902
O O6 0.400145 0.689171 0.277189
O O7 0.135731 0.678801 0.204070
O O8 0.234678 0.815232 0.231637
O O9 0.367672 0.047774 0.359729
O O10 0.102181 0.079674 0.318773
O O11 0.181512 0.952302 0.276424
O O12 0.598669 0.865851 0.902772
O O13 0.750000 0.750000 0.000000
O O14 0.500000 0.078963 0.250000
O O15 0.000000 0.150754 0.750000
#
# Coordination Sequence:
#
# PCOD9259857 Si02
#       7
#     8   8   8   8   4   8   8
#     4  11  22  34  57  88 117 147 190 241 295 343
#     4  10  20  36  58  81 109 146 198 233 281 343
#     4  10  19  37  59  78 112 156 194 229 286 352
#     4  11  21  35  57  81 113 146 188 239 291 338
#     4  10  18  36  58  80 106 150 192 232 280 334
#     4   9  20  35  58  79 105 147 195 237 278 344
#     4  10  19  36  59  80 110 152 198 234 274 347
#
# _framework density 17.659814999999998
#
# number of rings (size 3 to 8) (size 9 to 14) (size 15 to 20)
#    0.000    1.846    2.308    5.077    4.308    0.615 
#    1.385    1.538    0.000    5.538    0.000    0.000 
#    0.000    0.000    0.000    0.000    0.000    0.000 
#
# Total GULP energy -144993.157851 kJ/mol
# GULP energy per Si atom -5576.659917 kJ/mol
# Density = 1.761962 g / cm^3
# Si number density = 17.659815 Si / 1000 Ang^3
#
#
#
# Elastic Constant Matrix: (Units=GPa)
#
#
# Indices 1 2 3 4 5 6 
#
# 1 49.6190 30.0248 14.9842 0.0000 2.2221 0.0000
# 2 30.0248 94.4265 36.4563 0.0000 1.2649 0.0000
# 3 14.9842 36.4563 81.1864 0.0000 3.6065 0.0000
# 4 0.0000 0.0000 0.0000 22.4604 0.0000 -1.8635
# 5 2.2221 1.2649 3.6065 0.0000 11.8824 0.0000
# 6 0.0000 0.0000 0.0000 -1.8635 0.0000 27.9761
#
#
#
# Elastic Compliance Matrix: (Units=1/GPa)
#
#
# Indices 1 2 3 4 5 6 
#
# 1 0.025211 -0.007541 -0.001108 0.000000 -0.003576 0.000000
# 2 -0.007541 0.015068 -0.005439 0.000000 0.001457 0.000000
# 3 -0.001108 -0.005439 0.015134 0.000000 -0.003807 0.000000
# 4 0.000000 0.000000 0.000000 0.044770 0.000000 0.002982
# 5 -0.003576 0.001457 -0.003807 0.000000 0.085827 0.000000
# 6 0.000000 0.000000 0.000000 0.002982 0.000000 0.035943
#
#
# Mechanical properties :
#
#
# Convention : Reuss Voigt Hill
#
# Bulk Modulus (GPa) = 36.71512 43.12918 39.92215
# Shear Modulus (GPa) = 19.28943 22.04823 20.66883
#
# Velocity S-wave (km/s) = 3.30855 3.53724 3.42480
# Velocity P-wave (km/s) = 5.95237 6.41545 6.18824
#
# Compressibility (1/GPa) = 0.02723674
#
# Stress axis : x y z
#
# Youngs Moduli (GPa) = 39.66481 66.36365 66.07846
#
# Poissons Ratio (x) = 0.50043 0.07323
# Poissons Ratio (y) = 0.29910 0.35943
# Poissons Ratio (z) = 0.04396 0.36098
#
# Static dielectric constant tensor:
#      x y z
#    x 1.629590 0.000000 -0.008880 
#    y 0.000000 1.878690 0.000000 
#    z -0.008880 0.000000 1.583650 
# 
# From -- ./inp_files/198014.got.cif
#   From: 2010.05.17/outbox.cif.g08.bks.cpg/sg15_100_cif.got.tgz:198014.got - 2010.06.03 18:47:42.
