data_PCOD9259837
_publ_section_title
;
Structure prediction by ZEFSAII (Michael W. Deem and Ramdas Pophale) SiO2 
 PCOD9259837
Probable space group: C 2/C
;
_chemical_formula_sum "Si O2"
_cell_formula_units_Z 44
_cell_length_a 11.743788
_cell_length_b 12.002308
_cell_length_c 23.736313
_cell_angle_alpha 90.000000
_cell_angle_beta 36.529592
_cell_angle_gamma 90.000000
_cell_volume 1991.483868
_symmetry_space_group_name_H-M "C 2/C"
_symmetry_group_IT_number 15
_symmetry_cell_setting 'monoclinic'
loop_
_space_group_symop_operation_xyz
x,y,z
-x,y,1/2-z
-x,-y,-z
x,-y,1/2+z
1/2+x,1/2+y,z
1/2-x,1/2+y,1/2-z
1/2-x,1/2-y,-z
1/2+x,1/2-y,1/2+z
loop_
_atom_site_type_symbol
_atom_site_label
_atom_site_fract_x
_atom_site_fract_y
_atom_site_fract_z
Si Si1 0.602271 0.953472 0.316122
Si Si2 0.962516 0.223352 0.198897
Si Si3 0.000000 0.392647 0.750000
Si Si4 0.466700 0.161737 0.103257
Si Si5 0.966960 0.015734 0.829459
Si Si6 0.253234 0.757200 0.081399
O O1 0.544905 0.026636 0.284401
O O2 0.545478 0.027704 0.392890
O O3 0.832187 0.943256 0.224536
O O4 0.508271 0.833189 0.349125
O O5 0.736192 0.195333 0.290262
O O6 0.069584 0.110942 0.136450
O O7 0.000000 0.248305 0.250000
O O8 0.820895 0.309297 0.834492
O O9 0.633132 0.193014 0.081036
O O10 0.525730 0.230102 0.024073
O O11 0.000000 0.000644 0.750000
O O12 0.818542 0.115433 0.893147
#
# Coordination Sequence:
#
# PCOD9259837 Si02
#       6
#     8   8   4   8   8   8
#     4  10  19  36  55  83 110 147 192 224 279 335
#     4  10  19  35  54  80 113 151 181 223 287 332
#     4  10  20  34  62  82 106 154 190 230 272 340
#     4   9  20  34  57  83 113 146 183 241 268 328
#     4  10  20  33  57  80 109 151 182 228 279 329
#     4  10  18  36  57  85 109 142 197 228 276 326
#
# _framework density 22.094079000000001
#
# number of rings (size 3 to 8) (size 9 to 14) (size 15 to 20)
#    0.000    2.182    3.636    0.000    0.000    0.000 
#    0.000   11.818    0.000    0.000    0.000    0.000 
#    0.000    0.000    0.000    0.000    0.000    0.000 
#
# Total GULP energy -122576.946371 kJ/mol
# GULP energy per Si atom -5571.679381 kJ/mol
# Density = 2.204379 g / cm^3
# Si number density = 22.094079 Si / 1000 Ang^3
#
#
#
# Elastic Constant Matrix: (Units=GPa)
#
#
# Indices 1 2 3 4 5 6 
#
# 1 38.7010 0.4186 -16.6541 0.0000 -1.9848 -0.0002
# 2 0.4186 153.4398 9.9850 -0.0001 3.3145 -0.0002
# 3 -16.6541 9.9850 29.4580 -0.0005 -1.0800 0.0000
# 4 0.0000 -0.0001 -0.0005 4.7618 0.0001 -13.6078
# 5 -1.9848 3.3145 -1.0800 0.0001 10.6480 0.0001
# 6 -0.0002 -0.0002 0.0000 -13.6078 0.0001 -5.1957
#
#
#
# Elastic Compliance Matrix: (Units=1/GPa)
#
#
# Indices 1 2 3 4 5 6 
#
# 1 0.035305 -0.001653 0.020858 0.000000 0.009211 -0.000001
# 2 -0.001653 0.006799 -0.003340 0.000000 -0.002763 0.000000
# 3 0.020858 -0.003340 0.047227 0.000000 0.009718 -0.000002
# 4 0.000000 0.000000 0.000000 0.024752 0.000001 -0.064826
# 5 0.009211 -0.002763 0.009718 0.000001 0.097477 0.000001
# 6 -0.000001 0.000000 -0.000002 -0.064826 0.000001 -0.022684
#
#
# Mechanical properties :
#
#
# Convention : Reuss Voigt Hill
#
# Bulk Modulus (GPa) = 8.26033 23.23307 15.74670
# Shear Modulus (GPa) = 25.31659 17.23276 21.27467
#
# Velocity S-wave (km/s) = 3.38872 2.79583 3.10645
# Velocity P-wave (km/s) = 4.36555 4.57827 4.47318
#
# Compressibility (1/GPa) = 0.12106055
#
# Stress axis : x y z
#
# Youngs Moduli (GPa) = 28.32460 147.08558 21.17437
#
# Poissons Ratio (x) = 0.24307 -0.44165
# Poissons Ratio (y) = 0.04681 0.07072
# Poissons Ratio (z) = -0.59078 0.49128
#
# Static dielectric constant tensor:
#      x y z
#    x 1.869670 0.000000 0.027730 
#    y 0.000000 1.883610 0.000000 
#    z 0.027730 0.000000 1.898330 
# 
# From -- ./inp_files/142325.got.cif
#   From: 2010.05.17/outbox.cif.g08.bks.cpg/sg15_72_cif.got.tgz:142325.got - 2010.06.03 18:47:42.
