data_PCOD9259371
_publ_section_title
;
Structure prediction by ZEFSAII (Michael W. Deem and Ramdas Pophale) SiO2 
 PCOD9259371
Probable space group: C 2/C
;
_chemical_formula_sum "Si O2"
_cell_formula_units_Z 48
_cell_length_a 24.486614
_cell_length_b 16.427292
_cell_length_c 12.537776
_cell_angle_alpha 90.000000
_cell_angle_beta 155.162534
_cell_angle_gamma 90.000000
_cell_volume 2118.417967
_symmetry_space_group_name_H-M "C 2/C"
_symmetry_group_IT_number 15
_symmetry_cell_setting 'monoclinic'
loop_
_space_group_symop_operation_xyz
x,y,z
-x,y,1/2-z
-x,-y,-z
x,-y,1/2+z
1/2+x,1/2+y,z
1/2-x,1/2+y,1/2-z
1/2-x,1/2-y,-z
1/2+x,1/2-y,1/2+z
loop_
_atom_site_type_symbol
_atom_site_label
_atom_site_fract_x
_atom_site_fract_y
_atom_site_fract_z
Si Si1 0.255765 0.661238 0.565519
Si Si2 0.279948 0.985584 0.626258
Si Si3 0.534591 0.079317 0.692810
Si Si4 0.200005 0.130222 0.616385
Si Si5 0.980224 0.283212 0.599776
Si Si6 0.401837 0.262288 0.742686
O O1 0.250000 0.750000 0.500000
O O2 0.298056 0.589288 0.562414
O O3 0.322114 0.651059 0.798534
O O4 0.098776 0.652625 0.306003
O O5 0.333704 0.043727 0.626158
O O6 0.210543 0.037539 0.595245
O O7 0.410569 0.948017 0.906288
O O8 0.500000 0.051760 0.750000
O O9 0.544415 0.176772 0.704973
O O10 0.105198 0.172402 0.363279
O O11 0.345282 0.167943 0.857263
O O12 0.973393 0.225552 0.483561
O O13 0.000000 0.241196 0.750000
O O14 0.250000 0.250000 0.500000
#
# Coordination Sequence:
#
# PCOD9259371 Si02
#       6
#     8   8   8   8   8   8
#     4  11  23  37  56  88 126 158 206 251 305 362
#     4  11  20  38  54  86 124 155 199 252 313 371
#     4  11  21  32  59  89 118 152 199 251 311 358
#     4  10  21  37  61  86 123 163 193 250 315 371
#     4   9  17  35  57  81 119 159 190 243 302 366
#     4  10  18  35  55  87 119 157 197 238 310 373
#
# _framework density 22.658417
#
# number of rings (size 3 to 8) (size 9 to 14) (size 15 to 20)
#    0.000    1.667    5.000    2.000    2.333    1.333 
#    0.000    0.000    0.000    1.000    0.000    3.500 
#    0.000    0.000    0.000    0.000    0.000    0.000 
#
# Total GULP energy -133942.810419 kJ/mol
# GULP energy per Si atom -5580.950434 kJ/mol
# Density = 2.260685 g / cm^3
# Si number density = 22.658417 Si / 1000 Ang^3
#
#
#
# Elastic Constant Matrix: (Units=GPa)
#
#
# Indices 1 2 3 4 5 6 
#
# 1 119.0081 43.4895 37.4054 0.0000 -46.8714 0.0000
# 2 43.4895 129.6075 32.4357 0.0000 -32.5204 0.0000
# 3 37.4054 32.4357 118.0307 0.0000 -43.1712 0.0000
# 4 0.0000 0.0000 0.0000 21.5532 0.0000 1.5936
# 5 -46.8714 -32.5204 -43.1712 0.0000 51.4446 0.0000
# 6 0.0000 0.0000 0.0000 1.5936 0.0000 21.5554
#
#
#
# Elastic Compliance Matrix: (Units=1/GPa)
#
#
# Indices 1 2 3 4 5 6 
#
# 1 0.013430 -0.001727 0.000425 0.000000 0.011501 0.000000
# 2 -0.001727 0.009419 -0.000633 0.000000 0.003850 0.000000
# 3 0.000425 -0.000633 0.012274 0.000000 0.010288 0.000000
# 4 0.000000 0.000000 0.000000 0.046652 0.000000 -0.003449
# 5 0.011501 0.003850 0.010288 0.000000 0.040984 0.000000
# 6 0.000000 0.000000 0.000000 -0.003449 0.000000 0.046647
#
#
# Mechanical properties :
#
#
# Convention : Reuss Voigt Hill
#
# Bulk Modulus (GPa) = 31.99597 65.92307 48.95952
# Shear Modulus (GPa) = 27.21909 35.79836 31.50872
#
# Velocity S-wave (km/s) = 3.46971 3.97913 3.73312
# Velocity P-wave (km/s) = 5.49577 7.09004 6.34319
#
# Compressibility (1/GPa) = 0.03125393
#
# Stress axis : x y z
#
# Youngs Moduli (GPa) = 74.46006 106.16294 81.47019
#
# Poissons Ratio (x) = 0.18334 -0.03464
# Poissons Ratio (y) = 0.12859 0.05158
# Poissons Ratio (z) = -0.03166 0.06722
#
# Static dielectric constant tensor:
#      x y z
#    x 1.961620 0.000000 0.041180 
#    y 0.000000 1.852680 0.000000 
#    z 0.041180 0.000000 1.843220 
# 
# From -- ./inp_files/119487.got.cif
#   From: 2010.05.17/outbox.cif.g08.bks.cpg/sg15_60_cif.got.tgz:119487.got - 2010.06.03 18:47:42.
