data_PCOD9259760
_publ_section_title
;
Structure prediction by ZEFSAII (Michael W. Deem and Ramdas Pophale) SiO2 
 PCOD9259760
Probable space group: C 2/C
;
_chemical_formula_sum "Si O2"
_cell_formula_units_Z 32
_cell_length_a 31.286082
_cell_length_b 7.467012
_cell_length_c 12.553034
_cell_angle_alpha 90.000000
_cell_angle_beta 154.092094
_cell_angle_gamma 90.000000
_cell_volume 1281.310938
_symmetry_space_group_name_H-M "C 2/C"
_symmetry_group_IT_number 15
_symmetry_cell_setting 'monoclinic'
loop_
_space_group_symop_operation_xyz
x,y,z
-x,y,1/2-z
-x,-y,-z
x,-y,1/2+z
1/2+x,1/2+y,z
1/2-x,1/2+y,1/2-z
1/2-x,1/2-y,-z
1/2+x,1/2-y,1/2+z
loop_
_atom_site_type_symbol
_atom_site_label
_atom_site_fract_x
_atom_site_fract_y
_atom_site_fract_z
Si Si1 0.075287 0.501070 0.016527
Si Si2 0.096688 0.059858 0.400081
Si Si3 0.284315 0.774738 0.295806
Si Si4 0.074464 0.249803 0.702276
O O1 0.000000 0.916143 0.750000
O O2 0.022328 0.349722 0.970523
O O3 0.176390 0.420884 0.199474
O O4 0.086987 0.680958 0.111118
O O5 0.164576 0.914083 0.613867
O O6 0.073920 0.956009 0.238919
O O7 0.000000 0.480023 0.250000
O O8 0.167991 0.224821 0.539898
O O9 0.334087 0.820165 0.521386
#
# Coordination Sequence:
#
# PCOD9259760 Si02
#       4
#     8   8   8   8
#     4   9  14  30  55  79 102 139 179 218 264 313
#     4  10  18  36  54  78 110 140 176 221 262 317
#     4   9  18  32  54  78 106 143 175 218 267 315
#     4   8  16  30  54  79 102 140 179 215 261 319
#
# _framework density 24.974423000000002
#
# number of rings (size 3 to 8) (size 9 to 14) (size 15 to 20)
#    1.500    1.500    2.500    0.000    0.000    1.000 
#    0.000    6.250    0.000    1.500    0.000    0.000 
#    0.000    0.000    0.000    0.000    0.000    0.000 
#
# Total GULP energy -89389.051122 kJ/mol
# GULP energy per Si atom -5586.815695 kJ/mol
# Density = 2.491758 g / cm^3
# Si number density = 24.974423 Si / 1000 Ang^3
#
#
#
# Elastic Constant Matrix: (Units=GPa)
#
#
# Indices 1 2 3 4 5 6 
#
# 1 84.6209 15.5548 56.6971 0.0000 16.9083 0.0000
# 2 15.5548 73.3682 26.7981 0.0000 16.4623 0.0000
# 3 56.6971 26.7981 108.7126 0.0000 42.3116 0.0000
# 4 0.0000 0.0000 0.0000 45.4481 0.0000 -3.4625
# 5 16.9083 16.4623 42.3116 0.0000 45.5030 0.0000
# 6 0.0000 0.0000 0.0000 -3.4625 0.0000 10.3766
#
#
#
# Elastic Compliance Matrix: (Units=1/GPa)
#
#
# Indices 1 2 3 4 5 6 
#
# 1 0.018509 -0.000749 -0.010809 0.000000 0.003444 0.000000
# 2 -0.000749 0.015295 -0.002091 0.000000 -0.003311 0.000000
# 3 -0.010809 -0.002091 0.021147 0.000000 -0.014891 0.000000
# 4 0.000000 0.000000 0.000000 0.022577 0.000000 0.007534
# 5 0.003444 -0.003311 -0.014891 0.000000 0.035741 0.000000
# 6 0.000000 0.000000 0.000000 0.007534 0.000000 0.098884
#
#
# Mechanical properties :
#
#
# Convention : Reuss Voigt Hill
#
# Bulk Modulus (GPa) = 36.16222 51.64463 43.90342
# Shear Modulus (GPa) = 20.10704 31.44233 25.77468
#
# Velocity S-wave (km/s) = 2.84052 3.55206 3.21603
# Velocity P-wave (km/s) = 5.02685 6.12754 5.60428
#
# Compressibility (1/GPa) = 0.02765317
#
# Stress axis : x y z
#
# Youngs Moduli (GPa) = 54.02778 65.37933 47.28859
#
# Poissons Ratio (x) = 0.04896 0.51114
# Poissons Ratio (y) = 0.04046 0.09889
# Poissons Ratio (z) = 0.58398 0.13672
#
# Static dielectric constant tensor:
#      x y z
#    x 1.957650 0.000000 -0.006850 
#    y 0.000000 2.040170 0.000000 
#    z -0.006850 0.000000 1.958700 
# 
# From -- ./inp_files/122546.got.cif
#   From: 2010.05.17/outbox.cif.g08.bks.cpg/sg15_62_cif.got.tgz:122546.got - 2010.06.03 18:47:42.
