data_PCOD9259197
_publ_section_title
;
Structure prediction by ZEFSAII (Michael W. Deem and Ramdas Pophale) SiO2 
 PCOD9259197
Probable space group: C 2/C
;
_chemical_formula_sum "Si O2"
_cell_formula_units_Z 44
_cell_length_a 9.410394
_cell_length_b 18.288072
_cell_length_c 14.096785
_cell_angle_alpha 90.000000
_cell_angle_beta 61.501024
_cell_angle_gamma 90.000000
_cell_volume 2132.055596
_symmetry_space_group_name_H-M "C 2/C"
_symmetry_group_IT_number 15
_symmetry_cell_setting 'monoclinic'
loop_
_space_group_symop_operation_xyz
x,y,z
-x,y,1/2-z
-x,-y,-z
x,-y,1/2+z
1/2+x,1/2+y,z
1/2-x,1/2+y,1/2-z
1/2-x,1/2-y,-z
1/2+x,1/2-y,1/2+z
loop_
_atom_site_type_symbol
_atom_site_label
_atom_site_fract_x
_atom_site_fract_y
_atom_site_fract_z
Si Si1 0.229539 0.595961 0.099978
Si Si2 0.866835 0.605804 0.171593
Si Si3 0.300329 0.250803 0.829212
Si Si4 0.201957 0.551692 0.514685
Si Si5 0.956693 0.818808 0.956938
Si Si6 0.000000 0.615456 0.750000
O O1 0.200935 0.562894 0.215292
O O2 0.261446 0.529496 0.018597
O O3 0.370588 0.655315 0.060776
O O4 0.053393 0.626123 0.128490
O O5 0.757035 0.678283 0.208227
O O6 0.853933 0.564635 0.075567
O O7 0.436239 0.277470 0.862577
O O8 0.355193 0.172615 0.770602
O O9 0.138942 0.233218 0.941341
O O10 0.348083 0.608451 0.481677
O O11 0.064525 0.572021 0.637260
#
# Coordination Sequence:
#
# PCOD9259197 Si02
#       6
#     8   8   8   8   8   4
#     4  11  21  36  56  81 112 145 177 225 278 321
#     4  10  22  35  54  80 110 142 181 227 273 328
#     4   9  18  35  56  83 106 143 188 218 271 321
#     4  10  21  37  56  81 107 143 186 221 269 326
#     4   9  19  35  58  81 109 142 183 228 261 322
#     4  10  18  34  62  78 104 144 184 226 258 322
#
# _framework density 20.637360000000001
#
# number of rings (size 3 to 8) (size 9 to 14) (size 15 to 20)
#    0.000    2.182    0.000    4.364    0.000    2.909 
#    0.000    1.818    0.000    7.636    0.000    0.000 
#    0.000    0.000    0.000    0.000    0.000    0.000 
#
# Total GULP energy -122638.523708 kJ/mol
# GULP energy per Si atom -5574.478350 kJ/mol
# Density = 2.059039 g / cm^3
# Si number density = 20.637360 Si / 1000 Ang^3
#
#
#
# Elastic Constant Matrix: (Units=GPa)
#
#
# Indices 1 2 3 4 5 6 
#
# 1 98.7832 25.2208 29.2487 0.0000 6.0322 0.0000
# 2 25.2208 54.7587 7.1326 0.0000 6.0140 0.0000
# 3 29.2487 7.1326 53.9328 0.0000 12.5874 0.0000
# 4 0.0000 0.0000 0.0000 16.9495 0.0000 -13.8397
# 5 6.0322 6.0140 12.5874 0.0000 21.1248 0.0000
# 6 0.0000 0.0000 0.0000 -13.8397 0.0000 26.6972
#
#
#
# Elastic Compliance Matrix: (Units=1/GPa)
#
#
# Indices 1 2 3 4 5 6 
#
# 1 0.013497 -0.005509 -0.007036 0.000000 0.001907 0.000000
# 2 -0.005509 0.021197 0.001424 0.000000 -0.005310 0.000000
# 3 -0.007036 0.001424 0.025315 0.000000 -0.013481 0.000000
# 4 0.000000 0.000000 0.000000 0.102300 0.000000 0.053032
# 5 0.001907 -0.005310 -0.013481 0.000000 0.056337 0.000000
# 6 0.000000 0.000000 0.000000 0.053032 0.000000 0.064948
#
#
# Mechanical properties :
#
#
# Convention : Reuss Voigt Hill
#
# Bulk Modulus (GPa) = 26.47882 36.74211 31.61047
# Shear Modulus (GPa) = 15.70222 22.67915 19.19069
#
# Velocity S-wave (km/s) = 2.76137 3.31862 3.05273
# Velocity P-wave (km/s) = 4.79846 5.70321 5.27029
#
# Compressibility (1/GPa) = 0.03776603
#
# Stress axis : x y z
#
# Youngs Moduli (GPa) = 74.09289 47.17631 39.50191
#
# Poissons Ratio (x) = 0.25990 0.27793
# Poissons Ratio (y) = 0.40819 -0.05624
# Poissons Ratio (z) = 0.52131 -0.06716
#
# Static dielectric constant tensor:
#      x y z
#    x 1.735000 0.000000 -0.018100 
#    y 0.000000 1.722300 0.000000 
#    z -0.018100 0.000000 1.817560 
# 
# From -- ./inp_files/135831.got.cif
#   From: 2010.05.17/outbox.cif.g08.bks.cpg/sg15_68_cif.got.tgz:135831.got - 2010.06.03 18:47:42.
