data_PCOD9259956
_publ_section_title
;
Structure prediction by ZEFSAII (Michael W. Deem and Ramdas Pophale) SiO2 
 PCOD9259956
Probable space group: C 2/C
;
_chemical_formula_sum "Si O2"
_cell_formula_units_Z 60
_cell_length_a 16.991204
_cell_length_b 8.721468
_cell_length_c 24.202920
_cell_angle_alpha 90.000000
_cell_angle_beta 128.417873
_cell_angle_gamma 90.000000
_cell_volume 2810.090596
_symmetry_space_group_name_H-M "C 2/C"
_symmetry_group_IT_number 15
_symmetry_cell_setting 'monoclinic'
loop_
_space_group_symop_operation_xyz
x,y,z
-x,y,1/2-z
-x,-y,-z
x,-y,1/2+z
1/2+x,1/2+y,z
1/2-x,1/2+y,1/2-z
1/2-x,1/2-y,-z
1/2+x,1/2-y,1/2+z
loop_
_atom_site_type_symbol
_atom_site_label
_atom_site_fract_x
_atom_site_fract_y
_atom_site_fract_z
Si Si1 0.686401 0.664298 0.078410
Si Si2 0.102646 0.755617 0.829169
Si Si3 0.122884 0.537166 0.397216
Si Si4 0.320537 0.850329 0.810297
Si Si5 0.500000 0.229632 0.250000
Si Si6 0.520803 0.864646 0.964884
Si Si7 0.180610 0.053925 0.825047
Si Si8 0.731706 0.943980 0.300683
O O1 0.761513 0.583534 0.066788
O O2 0.691555 0.555214 0.134362
O O3 0.739881 0.825407 0.116850
O O4 0.575371 0.714665 0.013059
O O5 0.097449 0.643471 0.879138
O O6 0.143782 0.927254 0.853858
O O7 0.175711 0.654308 0.822368
O O8 0.000000 0.767975 0.750000
O O9 0.056822 0.628518 0.321569
O O10 0.091644 0.584653 0.444806
O O11 0.413828 0.831652 0.890897
O O12 0.234104 0.948013 0.803076
O O13 0.342963 0.947210 0.765539
O O14 0.278237 0.682730 0.781120
O O15 0.414556 0.345662 0.235318
O O16 0.500000 0.000000 0.000000
#
# Coordination Sequence:
#
# PCOD9259956 Si02
#       8
#     8   8   8   8   4   8   8   8
#     4  10  22  44  63  90 127 171 222 268 324 393
#     4  10  18  36  59  95 127 155 214 270 321 371
#     4  10  22  38  69  90 126 172 218 272 322 389
#     4  11  23  38  65  96 130 171 216 266 342 384
#     4  10  20  36  64  94 120 164 226 274 322 378
#     4  12  25  42  66  93 136 177 213 265 337 407
#     4  10  20  36  60  91 131 160 210 275 320 390
#     4  10  23  39  67  93 130 167 216 280 315 393
#
# _framework density 21.351624000000001
#
# number of rings (size 3 to 8) (size 9 to 14) (size 15 to 20)
#    0.000    1.600    2.667    2.000    5.600    0.533 
#    0.000    0.667    5.867    0.000    0.000    0.000 
#    0.000    0.000    0.000    0.000    0.000    0.000 
#
# Total GULP energy -167441.838607 kJ/mol
# GULP energy per Si atom -5581.394620 kJ/mol
# Density = 2.130303 g / cm^3
# Si number density = 21.351624 Si / 1000 Ang^3
#
#
#
# Elastic Constant Matrix: (Units=GPa)
#
#
# Indices 1 2 3 4 5 6 
#
# 1 47.7956 12.2445 0.7913 0.0000 1.6051 0.0000
# 2 12.2445 117.4489 14.4587 0.0000 0.4001 0.0000
# 3 0.7913 14.4587 55.9091 0.0000 9.4557 0.0000
# 4 0.0000 0.0000 0.0000 22.1781 0.0000 -6.8394
# 5 1.6051 0.4001 9.4557 0.0000 24.2498 0.0000
# 6 0.0000 0.0000 0.0000 -6.8394 0.0000 21.6471
#
#
#
# Elastic Compliance Matrix: (Units=1/GPa)
#
#
# Indices 1 2 3 4 5 6 
#
# 1 0.021559 -0.002312 0.000565 0.000000 -0.001609 0.000000
# 2 -0.002312 0.009056 -0.002473 0.000000 0.000968 0.000000
# 3 0.000565 -0.002473 0.019825 0.000000 -0.007727 0.000000
# 4 0.000000 0.000000 0.000000 0.049957 0.000000 0.015784
# 5 -0.001609 0.000968 -0.007727 0.000000 0.044341 0.000000
# 6 0.000000 0.000000 0.000000 0.015784 0.000000 0.051183
#
#
# Mechanical properties :
#
#
# Convention : Reuss Voigt Hill
#
# Bulk Modulus (GPa) = 23.80925 30.68252 27.24589
# Shear Modulus (GPa) = 22.89785 26.52560 24.71173
#
# Velocity S-wave (km/s) = 3.27833 3.52848 3.40570
# Velocity P-wave (km/s) = 5.05026 5.56791 5.31539
#
# Compressibility (1/GPa) = 0.04200048
#
# Stress axis : x y z
#
# Youngs Moduli (GPa) = 46.38357 110.41794 50.44253
#
# Poissons Ratio (x) = 0.25525 -0.02849
# Poissons Ratio (y) = 0.10723 0.12475
# Poissons Ratio (z) = -0.02620 0.27307
#
# Static dielectric constant tensor:
#      x y z
#    x 1.881630 0.000000 -0.025290 
#    y 0.000000 1.789120 0.000000 
#    z -0.025290 0.000000 1.778030 
# 
# From -- ./inp_files/298413.got.cif
#   From: 2010.05.17/outbox.cif.g08.bks.cpg/sg15_150_cif.got.tgz:298413.got - 2010.06.03 18:47:42.
