data_PCOD9259342
_publ_section_title
;
Structure prediction by ZEFSAII (Michael W. Deem and Ramdas Pophale) SiO2 
 PCOD9259342
Probable space group: C 2/C
;
_chemical_formula_sum "Si O2"
_cell_formula_units_Z 56
_cell_length_a 14.331374
_cell_length_b 19.976487
_cell_length_c 17.949786
_cell_angle_alpha 90.000000
_cell_angle_beta 147.909058
_cell_angle_gamma 90.000000
_cell_volume 2730.091111
_symmetry_space_group_name_H-M "C 2/C"
_symmetry_group_IT_number 15
_symmetry_cell_setting 'monoclinic'
loop_
_space_group_symop_operation_xyz
x,y,z
-x,y,1/2-z
-x,-y,-z
x,-y,1/2+z
1/2+x,1/2+y,z
1/2-x,1/2+y,1/2-z
1/2-x,1/2-y,-z
1/2+x,1/2-y,1/2+z
loop_
_atom_site_type_symbol
_atom_site_label
_atom_site_fract_x
_atom_site_fract_y
_atom_site_fract_z
Si Si1 0.703353 0.003589 0.955383
Si Si2 0.798709 0.007221 0.853129
Si Si3 0.000000 0.948416 0.750000
Si Si4 0.000000 0.623407 0.750000
Si Si5 0.783146 0.836705 0.329857
Si Si6 0.236255 0.340136 0.631388
Si Si7 0.964945 0.241453 0.401497
Si Si8 0.966007 0.559613 0.418776
O O1 0.710863 0.988297 0.872788
O O2 0.597458 0.074665 0.876295
O O3 0.603977 0.954062 0.945170
O O4 0.903309 0.010481 0.119756
O O5 0.777048 0.084045 0.812418
O O6 0.722752 0.957100 0.742888
O O7 0.000000 0.000000 0.000000
O O8 0.160912 0.901953 0.833746
O O9 0.854758 0.666323 0.694078
O O10 0.700454 0.792985 0.207584
O O11 0.966014 0.806107 0.484368
O O12 0.387994 0.305007 0.783708
O O13 0.072049 0.369570 0.568618
O O14 0.137259 0.288993 0.508735
O O15 0.000000 0.500000 0.500000
#
# Coordination Sequence:
#
# PCOD9259342 Si02
#       8
#     8   8   4   4   8   8   8   8
#     4  11  21  37  56  87 125 151 191 249 303 362
#     4  11  22  38  60  89 117 152 196 253 314 367
#     4  12  22  35  56  90 126 155 200 254 288 376
#     4  10  18  35  54  76 116 151 188 240 284 352
#     4  10  19  33  51  75 112 152 186 231 282 343
#     4  11  23  37  58  84 120 163 202 249 300 359
#     4  10  22  36  50  81 116 158 205 235 281 358
#     4  12  21  38  61  87 116 161 199 246 307 354
#
# _framework density 20.512136000000002
#
# number of rings (size 3 to 8) (size 9 to 14) (size 15 to 20)
#    0.000    1.143    4.286    5.143    0.000    3.429 
#    0.000    0.000    0.000    0.000    0.000   18.000 
#    0.000    0.000    0.000    0.000    0.000    0.000 
#
# Total GULP energy -155876.832175 kJ/mol
# GULP energy per Si atom -5567.029721 kJ/mol
# Density = 2.046545 g / cm^3
# Si number density = 20.512136 Si / 1000 Ang^3
#
#
#
# Elastic Constant Matrix: (Units=GPa)
#
#
# Indices 1 2 3 4 5 6 
#
# 1 56.6579 13.6703 1.3163 -0.0016 5.1920 0.0002
# 2 13.6703 43.9396 4.3637 -0.0089 -4.4892 -0.0035
# 3 1.3163 4.3637 139.0786 -0.0099 -9.4540 -0.0030
# 4 -0.0016 -0.0089 -0.0099 41.8999 -0.0043 3.2513
# 5 5.1920 -4.4892 -9.4540 -0.0043 23.3941 -0.0013
# 6 0.0002 -0.0035 -0.0030 3.2513 -0.0013 6.9414
#
#
#
# Elastic Compliance Matrix: (Units=1/GPa)
#
#
# Indices 1 2 3 4 5 6 
#
# 1 0.019816 -0.006725 -0.000373 -0.000001 -0.005839 -0.000005
# 2 -0.006725 0.025522 -0.000311 0.000005 0.006264 0.000012
# 3 -0.000373 -0.000311 0.007409 0.000002 0.003017 0.000003
# 4 -0.000001 0.000005 0.000002 0.024767 0.000006 -0.011600
# 5 -0.005839 0.006264 0.003017 0.000006 0.046463 0.000011
# 6 -0.000005 0.000012 0.000003 -0.011600 0.000011 0.149496
#
#
# Mechanical properties :
#
#
# Convention : Reuss Voigt Hill
#
# Bulk Modulus (GPa) = 26.36614 30.93074 28.64844
# Shear Modulus (GPa) = 16.61497 29.13547 22.87522
#
# Velocity S-wave (km/s) = 2.84915 3.77291 3.34309
# Velocity P-wave (km/s) = 4.86882 5.83882 5.37574
#
# Compressibility (1/GPa) = 0.03792743
#
# Stress axis : x y z
#
# Youngs Moduli (GPa) = 50.46417 39.18259 134.97879
#
# Poissons Ratio (x) = 0.26349 0.05041
# Poissons Ratio (y) = 0.33935 0.04202
# Poissons Ratio (z) = 0.01885 0.01220
#
# Static dielectric constant tensor:
#      x y z
#    x 1.747000 -0.000010 0.007650 
#    y -0.000010 1.748110 0.000000 
#    z 0.007650 0.000000 1.785580 
# 
# From -- ./inp_files/207035.got.cif
#   From: 2010.05.17/outbox.cif.g08.bks.cpg/sg15_104_cif.got.tgz:207035.got - 2010.06.03 18:47:42.
