data_PCOD9259304
_publ_section_title
;
Structure prediction by ZEFSAII (Michael W. Deem and Ramdas Pophale) SiO2 
 PCOD9259304
Probable space group: C 2/C
;
_chemical_formula_sum "Si O2"
_cell_formula_units_Z 48
_cell_length_a 17.773080
_cell_length_b 7.585623
_cell_length_c 13.804847
_cell_angle_alpha 90.000000
_cell_angle_beta 114.043747
_cell_angle_gamma 90.000000
_cell_volume 1699.682969
_symmetry_space_group_name_H-M "C 2/C"
_symmetry_group_IT_number 15
_symmetry_cell_setting 'monoclinic'
loop_
_space_group_symop_operation_xyz
x,y,z
-x,y,1/2-z
-x,-y,-z
x,-y,1/2+z
1/2+x,1/2+y,z
1/2-x,1/2+y,1/2-z
1/2-x,1/2-y,-z
1/2+x,1/2-y,1/2+z
loop_
_atom_site_type_symbol
_atom_site_label
_atom_site_fract_x
_atom_site_fract_y
_atom_site_fract_z
Si Si1 0.213024 0.948649 0.346058
Si Si2 0.663842 0.198190 0.181085
Si Si3 0.532294 0.053758 0.908356
Si Si4 0.027352 0.195525 0.912286
Si Si5 0.327379 0.645158 0.001553
Si Si6 0.434420 0.642524 0.340676
O O1 0.300055 0.029397 0.355536
O O2 0.181695 0.968589 0.440169
O O3 0.145873 0.075296 0.256426
O O4 0.206413 0.752118 0.302794
O O5 0.566903 0.225442 0.143470
O O6 0.684773 0.360923 0.119046
O O7 0.598297 0.212891 0.948090
O O8 0.456709 0.159061 0.819702
O O9 0.569385 0.869818 0.889771
O O10 0.500000 0.000000 0.000000
O O11 0.006305 0.003722 0.858532
O O12 0.062150 0.155454 0.038946
O O13 0.250000 0.750000 0.000000
#
# Coordination Sequence:
#
# PCOD9259304 Si02
#       6
#     8   8   8   8   8   8
#     4  10  23  35  64  91 129 176 223 283 343 410
#     4  10  20  40  60  91 131 173 219 282 347 413
#     4  10  18  34  66  90 120 175 207 266 341 401
#     4   9  18  34  61  94 120 166 222 262 329 409
#     4  10  21  39  62  95 134 169 223 282 341 411
#     4   9  18  33  57  94 120 162 221 264 321 397
#
# _framework density 28.240563000000002
#
# number of rings (size 3 to 8) (size 9 to 14) (size 15 to 20)
#    0.000    2.333    3.333    0.000    2.333    2.000 
#    0.000    0.833    7.333    2.000    0.000    0.000 
#    0.000    0.000    0.000    0.000    0.000    0.000 
#
# Total GULP energy -133781.567114 kJ/mol
# GULP energy per Si atom -5574.231963 kJ/mol
# Density = 2.817629 g / cm^3
# Si number density = 28.240563 Si / 1000 Ang^3
#
#
#
# Elastic Constant Matrix: (Units=GPa)
#
#
# Indices 1 2 3 4 5 6 
#
# 1 80.6024 9.4505 -0.4245 0.0000 -2.5979 0.0000
# 2 9.4505 142.0733 -4.3698 0.0000 -4.0570 0.0000
# 3 -0.4245 -4.3698 78.0464 0.0000 -20.4483 0.0000
# 4 0.0000 0.0000 0.0000 34.1420 0.0000 9.2176
# 5 -2.5979 -4.0570 -20.4483 0.0000 40.0216 0.0000
# 6 0.0000 0.0000 0.0000 9.2176 0.0000 29.8334
#
#
#
# Elastic Compliance Matrix: (Units=1/GPa)
#
#
# Indices 1 2 3 4 5 6 
#
# 1 0.012530 -0.000801 0.000248 0.000000 0.000859 0.000000
# 2 -0.000801 0.007141 0.000660 0.000000 0.001009 0.000000
# 3 0.000248 0.000660 0.014862 0.000000 0.007677 0.000000
# 4 0.000000 0.000000 0.000000 0.031955 0.000000 -0.009873
# 5 0.000859 0.001009 0.007677 0.000000 0.029067 0.000000
# 6 0.000000 0.000000 0.000000 -0.009873 0.000000 0.036570
#
#
# Mechanical properties :
#
#
# Convention : Reuss Voigt Hill
#
# Bulk Modulus (GPa) = 28.77961 34.44827 31.61394
# Shear Modulus (GPa) = 34.84486 40.53714 37.69100
#
# Velocity S-wave (km/s) = 3.51644 3.79281 3.65724
# Velocity P-wave (km/s) = 5.16722 5.60403 5.39005
#
# Compressibility (1/GPa) = 0.03474682
#
# Stress axis : x y z
#
# Youngs Moduli (GPa) = 79.81148 140.03586 67.28348
#
# Poissons Ratio (x) = 0.11221 -0.01671
# Poissons Ratio (y) = 0.06395 -0.04440
# Poissons Ratio (z) = -0.01982 -0.09240
#
# Static dielectric constant tensor:
#      x y z
#    x 2.358530 0.000000 -0.025690 
#    y 0.000000 2.987130 0.000000 
#    z -0.025690 0.000000 2.548740 
# 
# From -- ./inp_files/166414.got.cif
#   From: 2010.05.17/outbox.cif.g08.bks.cpg/sg15_84_cif.got.tgz:166414.got - 2010.06.03 18:47:42.
