data_PCOD9259217
_publ_section_title
;
Structure prediction by ZEFSAII (Michael W. Deem and Ramdas Pophale) SiO2 
 PCOD9259217
Probable space group: C 2/C
;
_chemical_formula_sum "Si O2"
_cell_formula_units_Z 52
_cell_length_a 8.568826
_cell_length_b 20.222929
_cell_length_c 13.344485
_cell_angle_alpha 90.000000
_cell_angle_beta 87.467175
_cell_angle_gamma 90.000000
_cell_volume 2310.163487
_symmetry_space_group_name_H-M "C 2/C"
_symmetry_group_IT_number 15
_symmetry_cell_setting 'monoclinic'
loop_
_space_group_symop_operation_xyz
x,y,z
-x,y,1/2-z
-x,-y,-z
x,-y,1/2+z
1/2+x,1/2+y,z
1/2-x,1/2+y,1/2-z
1/2-x,1/2-y,-z
1/2+x,1/2-y,1/2+z
loop_
_atom_site_type_symbol
_atom_site_label
_atom_site_fract_x
_atom_site_fract_y
_atom_site_fract_z
Si Si1 0.749823 0.888875 0.291129
Si Si2 0.005475 0.159310 0.932591
Si Si3 0.010515 0.607043 0.975739
Si Si4 0.789118 0.113934 0.096395
Si Si5 0.717533 0.462803 0.415352
Si Si6 0.823113 0.716922 0.869101
Si Si7 0.500000 0.671908 0.250000
O O1 0.636784 0.908287 0.384824
O O2 0.765464 0.944234 0.203990
O O3 0.680603 0.827132 0.232013
O O4 0.907164 0.862499 0.338223
O O5 0.102232 0.093505 0.958389
O O6 0.140987 0.213327 0.909754
O O7 0.872386 0.166404 0.019504
O O8 0.878085 0.551695 0.969097
O O9 0.924725 0.674426 0.944108
O O10 0.105130 0.616095 0.075983
O O11 0.863819 0.130515 0.200421
O O12 0.830886 0.037831 0.071573
O O13 0.906661 0.783806 0.834422
#
# Coordination Sequence:
#
# PCOD9259217 Si02
#       7
#     8   8   8   8   8   8   4
#     4   9  16  33  65  93 107 154 209 260 287 354
#     4   9  20  36  64  88 113 160 211 251 296 373
#     4   9  18  37  64  87 111 162 213 244 291 369
#     4  11  24  37  55  93 124 161 195 250 333 358
#     4  10  18  34  62  88 127 149 198 253 304 372
#     4  10  18  39  62  83 115 156 218 251 295 349
#     4  12  26  38  60  84 134 162 202 270 304 364
#
# _framework density 22.509229000000001
#
# number of rings (size 3 to 8) (size 9 to 14) (size 15 to 20)
#    0.000    2.462    1.538    4.154    2.154    1.231 
#    0.000    0.000   10.154    0.000    0.000    0.000 
#    0.000    0.000    0.000    0.000    0.000    0.000 
#
# Total GULP energy -145009.287230 kJ/mol
# GULP energy per Si atom -5577.280278 kJ/mol
# Density = 2.245800 g / cm^3
# Si number density = 22.509229 Si / 1000 Ang^3
#
#
#
# Elastic Constant Matrix: (Units=GPa)
#
#
# Indices 1 2 3 4 5 6 
#
# 1 110.9952 33.8530 38.3772 0.0000 25.2900 0.0000
# 2 33.8530 64.1882 20.1227 0.0000 12.3110 0.0000
# 3 38.3772 20.1227 72.3261 0.0000 37.5131 0.0000
# 4 0.0000 0.0000 0.0000 22.9208 0.0000 -1.2564
# 5 25.2900 12.3110 37.5131 0.0000 44.6294 0.0000
# 6 0.0000 0.0000 0.0000 -1.2564 0.0000 18.3284
#
#
#
# Elastic Compliance Matrix: (Units=1/GPa)
#
#
# Indices 1 2 3 4 5 6 
#
# 1 0.012406 -0.004834 -0.004048 0.000000 -0.002294 0.000000
# 2 -0.004834 0.018992 -0.002522 0.000000 -0.000380 0.000000
# 3 -0.004048 -0.002522 0.026816 0.000000 -0.019551 0.000000
# 4 0.000000 0.000000 0.000000 0.043793 0.000000 0.003002
# 5 -0.002294 -0.000380 -0.019551 0.000000 0.040245 0.000000
# 6 0.000000 0.000000 0.000000 0.003002 0.000000 0.054766
#
#
# Mechanical properties :
#
#
# Convention : Reuss Voigt Hill
#
# Bulk Modulus (GPa) = 28.24360 48.02390 38.13375
# Shear Modulus (GPa) = 21.58632 27.51949 24.55291
#
# Velocity S-wave (km/s) = 3.10013 3.50034 3.30630
# Velocity P-wave (km/s) = 5.03877 6.14150 5.61726
#
# Compressibility (1/GPa) = 0.03540625
#
# Stress axis : x y z
#
# Youngs Moduli (GPa) = 80.60568 52.65344 37.29094
#
# Poissons Ratio (x) = 0.25452 0.15096
# Poissons Ratio (y) = 0.38964 0.09405
# Poissons Ratio (z) = 0.32630 0.13279
#
# Static dielectric constant tensor:
#      x y z
#    x 1.899680 0.000000 -0.009140 
#    y 0.000000 1.810580 0.000000 
#    z -0.009140 0.000000 1.889020 
# 
# From -- ./inp_files/136139.got.cif
#   From: 2010.05.17/outbox.cif.g08.bks.cpg/sg15_69_cif.got.tgz:136139.got - 2010.06.03 18:47:42.
