data_PCOD9259987
_publ_section_title
;
Structure prediction by ZEFSAII (Michael W. Deem and Ramdas Pophale) SiO2 
 PCOD9259987
Probable space group: C 2/C
;
_chemical_formula_sum "Si O2"
_cell_formula_units_Z 60
_cell_length_a 10.612932
_cell_length_b 24.301081
_cell_length_c 14.173665
_cell_angle_alpha 90.000000
_cell_angle_beta 119.848168
_cell_angle_gamma 90.000000
_cell_volume 3170.561577
_symmetry_space_group_name_H-M "C 2/C"
_symmetry_group_IT_number 15
_symmetry_cell_setting 'monoclinic'
loop_
_space_group_symop_operation_xyz
x,y,z
-x,y,1/2-z
-x,-y,-z
x,-y,1/2+z
1/2+x,1/2+y,z
1/2-x,1/2+y,1/2-z
1/2-x,1/2-y,-z
1/2+x,1/2-y,1/2+z
loop_
_atom_site_type_symbol
_atom_site_label
_atom_site_fract_x
_atom_site_fract_y
_atom_site_fract_z
Si Si1 0.500000 0.530885 0.250000
Si Si2 0.179913 0.447578 0.598479
Si Si3 0.006438 0.351029 0.638678
Si Si4 0.477517 0.955352 0.349537
Si Si5 0.681233 0.638698 0.943984
Si Si6 0.243177 0.129692 0.747537
Si Si7 0.027116 0.046358 0.585880
Si Si8 0.052852 0.227858 0.660939
O O1 0.647409 0.561676 0.333850
O O2 0.456266 0.490019 0.315914
O O3 0.097088 0.398830 0.622062
O O4 0.131456 0.503556 0.635146
O O5 0.118805 0.452994 0.469040
O O6 0.066791 0.290526 0.635179
O O7 0.000000 0.358311 0.750000
O O8 0.843059 0.352218 0.538449
O O9 0.500000 0.974538 0.250000
O O10 0.403472 0.895015 0.315388
O O11 0.678877 0.627031 0.830409
O O12 0.613751 0.584882 0.965303
O O13 0.577351 0.690416 0.929873
O O14 0.160144 0.089312 0.643506
O O15 0.199291 0.191897 0.704751
O O16 0.000000 0.000000 0.500000
O O17 0.000000 0.232102 0.750000
#
# Coordination Sequence:
#
# PCOD9259987 Si02
#       8
#     4   8   8   8   8   8   8   8
#     4  12  24  40  54  80 124 160 202 232 288 358
#     4  11  25  39  59  87 126 161 190 256 300 351
#     4  11  22  36  57  93 126 149 192 251 315 347
#     4  11  23  40  62  91 118 158 204 240 300 365
#     4  10  18  36  60  85 121 155 195 245 299 359
#     4  10  18  40  59  84 116 157 200 238 292 363
#     4  11  22  33  57  85 115 158 198 238 286 355
#     4   8  18  34  62  89 115 153 196 245 300 358
#
# _framework density 18.924092000000002
#
# number of rings (size 3 to 8) (size 9 to 14) (size 15 to 20)
#    0.000    1.600    4.000    1.600    5.600    0.000 
#    0.000    0.000    1.467    0.800    0.000    0.000 
#    0.000    0.000    0.000    0.000    0.000    0.000 
#
# Total GULP energy -167209.631416 kJ/mol
# GULP energy per Si atom -5573.654381 kJ/mol
# Density = 1.888102 g / cm^3
# Si number density = 18.924092 Si / 1000 Ang^3
#
#
#
# Elastic Constant Matrix: (Units=GPa)
#
#
# Indices 1 2 3 4 5 6 
#
# 1 34.6765 14.0433 37.1854 0.0000 15.8477 0.0000
# 2 14.0433 91.4574 40.6355 0.0000 11.2903 0.0000
# 3 37.1854 40.6355 116.3534 0.0000 11.6412 0.0000
# 4 0.0000 0.0000 0.0000 24.8591 0.0000 -1.3775
# 5 15.8477 11.2903 11.6412 0.0000 30.9224 0.0000
# 6 0.0000 0.0000 0.0000 -1.3775 0.0000 22.8457
#
#
#
# Elastic Compliance Matrix: (Units=1/GPa)
#
#
# Indices 1 2 3 4 5 6 
#
# 1 0.056171 0.001404 -0.016118 0.000000 -0.023232 0.000000
# 2 0.001404 0.013278 -0.004706 0.000000 -0.003796 0.000000
# 3 -0.016118 -0.004706 0.014954 0.000000 0.004349 0.000000
# 4 0.000000 0.000000 0.000000 0.040362 0.000000 0.002434
# 5 -0.023232 -0.003796 0.004349 0.000000 0.043994 0.000000
# 6 0.000000 0.000000 0.000000 0.002434 0.000000 0.043919
#
#
# Mechanical properties :
#
#
# Convention : Reuss Voigt Hill
#
# Bulk Modulus (GPa) = 21.94739 47.35731 34.65235
# Shear Modulus (GPa) = 18.74736 25.76699 22.25718
#
# Velocity S-wave (km/s) = 3.15089 3.69399 3.43319
# Velocity P-wave (km/s) = 4.98601 6.57824 5.83667
#
# Compressibility (1/GPa) = 0.04556350
#
# Stress axis : x y z
#
# Youngs Moduli (GPa) = 17.80290 75.31210 66.87165
#
# Poissons Ratio (x) = -0.10575 1.07781
# Poissons Ratio (y) = -0.02500 0.31471
# Poissons Ratio (z) = 0.28694 0.35444
#
# Static dielectric constant tensor:
#      x y z
#    x 1.679230 0.000000 0.011900 
#    y 0.000000 1.662240 0.000000 
#    z 0.011900 0.000000 1.704170 
# 
# From -- ./inp_files/148111.got.cif
#   From: 2010.05.17/outbox.cif.g08.bks.cpg/sg15_75_cif.got.tgz:148111.got - 2010.06.03 18:47:42.
