data_PCOD9259620
_publ_section_title
;
Structure prediction by ZEFSAII (Michael W. Deem and Ramdas Pophale) SiO2 
 PCOD9259620
Probable space group: C 2/C
;
_chemical_formula_sum "Si O2"
_cell_formula_units_Z 44
_cell_length_a 9.874663
_cell_length_b 14.147008
_cell_length_c 21.021990
_cell_angle_alpha 90.000000
_cell_angle_beta 45.207040
_cell_angle_gamma 90.000000
_cell_volume 2084.056018
_symmetry_space_group_name_H-M "C 2/C"
_symmetry_group_IT_number 15
_symmetry_cell_setting 'monoclinic'
loop_
_space_group_symop_operation_xyz
x,y,z
-x,y,1/2-z
-x,-y,-z
x,-y,1/2+z
1/2+x,1/2+y,z
1/2-x,1/2+y,1/2-z
1/2-x,1/2-y,-z
1/2+x,1/2-y,1/2+z
loop_
_atom_site_type_symbol
_atom_site_label
_atom_site_fract_x
_atom_site_fract_y
_atom_site_fract_z
Si Si1 0.500000 0.481568 0.750000
Si Si2 0.489092 0.336559 0.101904
Si Si3 0.788588 0.640098 0.698159
Si Si4 0.788902 0.640231 0.910269
Si Si5 0.783413 0.131315 0.423158
Si Si6 0.377547 0.838102 0.028988
O O1 0.673239 0.548049 0.714313
O O2 0.561222 0.417443 0.671126
O O3 0.353727 0.307922 0.205967
O O4 0.347590 0.392138 0.101587
O O5 0.565048 0.249001 0.035120
O O6 0.682335 0.382204 0.066215
O O7 0.835914 0.692855 0.615974
O O8 0.988437 0.613860 0.664955
O O9 0.794315 0.755285 0.909526
O O10 0.704788 0.611005 0.006146
O O11 0.571016 0.102407 0.470142
#
# Coordination Sequence:
#
# PCOD9259620 Si02
#       6
#     4   8   8   8   8   8
#     4  12  24  38  64  94 128 164 210 248 316 378
#     4  10  18  35  61  92 119 160 203 259 299 358
#     4  11  21  38  59  92 127 164 204 251 310 369
#     4   9  20  38  65  89 118 160 210 256 303 357
#     4   9  21  39  61  91 118 159 213 256 293 373
#     4   9  19  35  60  90 120 159 211 245 299 362
#
# _framework density 21.112677000000001
#
# number of rings (size 3 to 8) (size 9 to 14) (size 15 to 20)
#    0.000    2.182    1.818    1.636    5.091    2.909 
#    0.000    0.909    4.000    0.000    0.000    0.000 
#    0.000    0.000    0.000    0.000    0.000    0.000 
#
# Total GULP energy -122705.896468 kJ/mol
# GULP energy per Si atom -5577.540749 kJ/mol
# Density = 2.106462 g / cm^3
# Si number density = 21.112677 Si / 1000 Ang^3
#
#
#
# Elastic Constant Matrix: (Units=GPa)
#
#
# Indices 1 2 3 4 5 6 
#
# 1 132.7277 12.8266 22.2781 0.0000 -6.0732 0.0000
# 2 12.8266 34.2169 35.1634 0.0000 3.3035 0.0000
# 3 22.2781 35.1634 154.7937 0.0000 8.0487 0.0000
# 4 0.0000 0.0000 0.0000 23.3283 0.0000 -4.8039
# 5 -6.0732 3.3035 8.0487 0.0000 29.0791 0.0000
# 6 0.0000 0.0000 0.0000 -4.8039 0.0000 8.0661
#
#
#
# Elastic Compliance Matrix: (Units=1/GPa)
#
#
# Indices 1 2 3 4 5 6 
#
# 1 0.007989 -0.002486 -0.000697 0.000000 0.002144 0.000000
# 2 -0.002486 0.039010 -0.008367 0.000000 -0.002635 0.000000
# 3 -0.000697 -0.008367 0.008542 0.000000 -0.001559 0.000000
# 4 0.000000 0.000000 0.000000 0.048859 0.000000 0.029099
# 5 0.002144 -0.002635 -0.001559 0.000000 0.035568 0.000000
# 6 0.000000 0.000000 0.000000 0.029099 0.000000 0.141307
#
#
# Mechanical properties :
#
#
# Convention : Reuss Voigt Hill
#
# Bulk Modulus (GPa) = 30.82363 51.36385 41.09374
# Shear Modulus (GPa) = 15.86355 28.85937 22.36146
#
# Velocity S-wave (km/s) = 2.74410 3.70120 3.25799
# Velocity P-wave (km/s) = 4.96703 6.53042 5.80163
#
# Compressibility (1/GPa) = 0.03244264
#
# Stress axis : x y z
#
# Youngs Moduli (GPa) = 125.16440 25.63450 117.06617
#
# Poissons Ratio (x) = 0.06373 0.08155
# Poissons Ratio (y) = 0.31117 0.97947
# Poissons Ratio (z) = 0.08719 0.21448
#
# Static dielectric constant tensor:
#      x y z
#    x 1.825140 0.000000 -0.007530 
#    y 0.000000 1.744540 0.000000 
#    z -0.007530 0.000000 1.776260 
# 
# From -- ./inp_files/191467.got.cif
#   From: 2010.05.17/outbox.cif.g08.bks.cpg/sg15_96_cif.got.tgz:191467.got - 2010.06.03 18:47:42.
