data_PCOD9259692
_publ_section_title
;
Structure prediction by ZEFSAII (Michael W. Deem and Ramdas Pophale) SiO2 
 PCOD9259692
Probable space group: C 2/C
;
_chemical_formula_sum "Si O2"
_cell_formula_units_Z 64
_cell_length_a 8.764699
_cell_length_b 30.529432
_cell_length_c 17.442524
_cell_angle_alpha 90.000000
_cell_angle_beta 43.960734
_cell_angle_gamma 90.000000
_cell_volume 3239.872468
_symmetry_space_group_name_H-M "C 2/C"
_symmetry_group_IT_number 15
_symmetry_cell_setting 'monoclinic'
loop_
_space_group_symop_operation_xyz
x,y,z
-x,y,1/2-z
-x,-y,-z
x,-y,1/2+z
1/2+x,1/2+y,z
1/2-x,1/2+y,1/2-z
1/2-x,1/2-y,-z
1/2+x,1/2-y,1/2+z
loop_
_atom_site_type_symbol
_atom_site_label
_atom_site_fract_x
_atom_site_fract_y
_atom_site_fract_z
Si Si1 0.411041 0.920672 0.576351
Si Si2 0.694738 0.800165 0.508756
Si Si3 0.584432 0.432340 0.552514
Si Si4 0.387011 0.620429 0.870850
Si Si5 0.762637 0.423207 0.325191
Si Si6 0.735465 0.671477 0.197340
Si Si7 0.829075 0.514599 0.242479
Si Si8 0.256691 0.854021 0.851064
O O1 0.271977 0.927031 0.548964
O O2 0.660793 0.905982 0.468576
O O3 0.291188 0.879960 0.662802
O O4 0.401602 0.961792 0.637718
O O5 0.750000 0.750000 0.500000
O O6 0.825129 0.828316 0.398972
O O7 0.435658 0.803640 0.586073
O O8 0.736858 0.828644 0.571199
O O9 0.690008 0.444108 0.432655
O O10 0.407389 0.466471 0.648003
O O11 0.439620 0.388457 0.588980
O O12 0.500000 0.609757 0.750000
O O13 0.568922 0.607589 0.867463
O O14 0.801398 0.462324 0.250713
O O15 0.000000 0.400847 0.250000
O O16 0.500000 0.681741 0.250000
O O17 0.737520 0.679320 0.287297
O O18 0.000000 0.523412 0.250000
O O19 0.500000 0.875094 0.750000
#
# Coordination Sequence:
#
# PCOD9259692 Si02
#       8
#     8   8   8   8   8   8   8   8
#     4  11  22  37  66  96 124 165 215 274 320 389
#     4  10  23  41  64  94 128 168 210 263 330 396
#     4  12  20  37  63  93 124 162 217 264 323 372
#     4  11  24  43  65  88 127 173 215 264 334 397
#     4  11  25  43  58  87 129 177 219 263 320 390
#     4  10  18  35  63  97 126 152 206 268 321 380
#     4  11  23  38  61  93 129 165 221 276 322 369
#     4  10  19  34  65  95 121 158 203 262 320 379
#
# _framework density 19.753865000000001
#
# number of rings (size 3 to 8) (size 9 to 14) (size 15 to 20)
#    0.000    1.250    3.750    2.625    1.750    3.500 
#    0.000    5.000    0.000    0.000    0.000    0.000 
#    0.000    0.000    0.000    0.000    0.000    0.000 
#
# Total GULP energy -178697.230270 kJ/mol
# GULP energy per Si atom -5584.288446 kJ/mol
# Density = 1.970890 g / cm^3
# Si number density = 19.753865 Si / 1000 Ang^3
#
#
#
# Elastic Constant Matrix: (Units=GPa)
#
#
# Indices 1 2 3 4 5 6 
#
# 1 131.6648 26.8641 48.5322 0.0000 -29.5376 0.0000
# 2 26.8641 74.2258 26.7877 0.0000 -18.9051 0.0000
# 3 48.5322 26.7877 107.9782 0.0000 -13.6885 0.0000
# 4 0.0000 0.0000 0.0000 5.9336 0.0000 -3.0029
# 5 -29.5376 -18.9051 -13.6885 0.0000 45.3134 0.0000
# 6 0.0000 0.0000 0.0000 -3.0029 0.0000 10.4825
#
#
#
# Elastic Compliance Matrix: (Units=1/GPa)
#
#
# Indices 1 2 3 4 5 6 
#
# 1 0.010350 -0.001084 -0.003728 0.000000 0.005168 0.000000
# 2 -0.001084 0.016227 -0.002880 0.000000 0.005193 0.000000
# 3 -0.003728 -0.002880 0.011636 0.000000 -0.000116 0.000000
# 4 0.000000 0.000000 0.000000 0.197106 0.000000 0.056464
# 5 0.005168 0.005193 -0.000116 0.000000 0.027569 0.000000
# 6 0.000000 0.000000 0.000000 0.056464 0.000000 0.111572
#
#
# Mechanical properties :
#
#
# Convention : Reuss Voigt Hill
#
# Bulk Modulus (GPa) = 43.80361 57.58188 50.69275
# Shear Modulus (GPa) = 12.58008 26.45823 19.51916
#
# Velocity S-wave (km/s) = 2.52631 3.66374 3.14685
# Velocity P-wave (km/s) = 5.54369 6.86370 6.23870
#
# Compressibility (1/GPa) = 0.02282917
#
# Stress axis : x y z
#
# Youngs Moduli (GPa) = 96.62117 61.62612 85.93787
#
# Poissons Ratio (x) = 0.06682 0.32035
# Poissons Ratio (y) = 0.10476 0.24750
# Poissons Ratio (z) = 0.36017 0.17748
#
# Static dielectric constant tensor:
#      x y z
#    x 1.716910 0.000000 0.015830 
#    y 0.000000 1.681230 0.000000 
#    z 0.015830 0.000000 1.721840 
# 
# From -- ./inp_files/194238.got.cif
#   From: 2010.05.17/outbox.cif.g08.bks.cpg/sg15_98_cif.got.tgz:194238.got - 2010.06.03 18:47:42.
