data_PCOD9259884
_publ_section_title
;
Structure prediction by ZEFSAII (Michael W. Deem and Ramdas Pophale) SiO2 
 PCOD9259884
Probable space group: C 2/C
;
_chemical_formula_sum "Si O2"
_cell_formula_units_Z 60
_cell_length_a 9.672538
_cell_length_b 12.096319
_cell_length_c 23.008689
_cell_angle_alpha 90.000000
_cell_angle_beta 99.031263
_cell_angle_gamma 90.000000
_cell_volume 2658.691080
_symmetry_space_group_name_H-M "C 2/C"
_symmetry_group_IT_number 15
_symmetry_cell_setting 'monoclinic'
loop_
_space_group_symop_operation_xyz
x,y,z
-x,y,1/2-z
-x,-y,-z
x,-y,1/2+z
1/2+x,1/2+y,z
1/2-x,1/2+y,1/2-z
1/2-x,1/2-y,-z
1/2+x,1/2-y,1/2+z
loop_
_atom_site_type_symbol
_atom_site_label
_atom_site_fract_x
_atom_site_fract_y
_atom_site_fract_z
Si Si1 0.642733 0.920520 0.051028
Si Si2 0.034587 0.839585 0.425285
Si Si3 0.197259 0.889740 0.767167
Si Si4 0.351780 0.099520 0.077944
Si Si5 0.468819 0.679098 0.446977
Si Si6 0.500000 0.810530 0.250000
Si Si7 0.490973 0.467872 0.844376
Si Si8 0.947304 0.502540 0.334127
O O1 0.804527 0.881578 0.063105
O O2 0.546921 0.811126 0.054721
O O3 0.619707 0.994591 0.105848
O O4 0.623690 0.958717 0.982976
O O5 0.052128 0.709980 0.414815
O O6 0.973436 0.854839 0.486035
O O7 0.961448 0.915769 0.373060
O O8 0.114699 0.972983 0.805230
O O9 0.358959 0.910261 0.790468
O O10 0.128726 0.770301 0.775139
O O11 0.140276 0.919669 0.699714
O O12 0.191249 0.135785 0.067264
O O13 0.395793 0.033210 0.137472
O O14 0.538581 0.618488 0.397537
O O15 0.450163 0.888730 0.299003
#
# Coordination Sequence:
#
# PCOD9259884 Si02
#       8
#     8   8   8   8   8   4   8   8
#     4   9  17  36  60  81 115 155 191 238 305 356
#     4   9  17  34  57  89 114 146 195 247 295 357
#     4  10  24  40  60  86 116 159 208 243 288 370
#     4   9  21  34  55  92 115 147 198 242 297 369
#     4   9  18  33  60  85 118 149 190 248 299 355
#     4  10  26  44  60  92 122 160 208 254 304 348
#     4  10  18  36  58  84 114 156 199 243 302 347
#     4  12  22  41  63  81 120 164 194 244 309 354
#
# _framework density 22.567495999999998
#
# number of rings (size 3 to 8) (size 9 to 14) (size 15 to 20)
#    0.000    2.400    1.333    4.000    1.867    1.067 
#    0.000    1.333    0.000    3.200    0.000    0.000 
#    0.000    0.000    0.000    0.000    0.000    0.000 
#
# Total GULP energy -167404.483483 kJ/mol
# GULP energy per Si atom -5580.149449 kJ/mol
# Density = 2.251613 g / cm^3
# Si number density = 22.567496 Si / 1000 Ang^3
#
#
#
# Elastic Constant Matrix: (Units=GPa)
#
#
# Indices 1 2 3 4 5 6 
#
# 1 33.5211 8.1328 10.6084 0.0000 -1.2316 0.0000
# 2 8.1328 63.0525 26.2833 0.0000 8.1135 0.0000
# 3 10.6084 26.2833 95.1709 0.0000 -6.6155 0.0000
# 4 0.0000 0.0000 0.0000 36.7912 0.0000 -2.6210
# 5 -1.2316 8.1135 -6.6155 0.0000 27.2218 0.0000
# 6 0.0000 0.0000 0.0000 -2.6210 0.0000 21.8227
#
#
#
# Elastic Compliance Matrix: (Units=1/GPa)
#
#
# Indices 1 2 3 4 5 6 
#
# 1 0.031474 -0.003254 -0.002485 0.000000 0.001790 0.000000
# 2 -0.003254 0.019530 -0.005539 0.000000 -0.007314 0.000000
# 3 -0.002485 -0.005539 0.012635 0.000000 0.004609 0.000000
# 4 0.000000 0.000000 0.000000 0.027415 0.000000 0.003293
# 5 0.001790 -0.007314 0.004609 0.000000 0.040116 0.000000
# 6 0.000000 0.000000 0.000000 0.003293 0.000000 0.046219
#
#
# Mechanical properties :
#
#
# Convention : Reuss Voigt Hill
#
# Bulk Modulus (GPa) = 24.34209 31.31041 27.82625
# Shear Modulus (GPa) = 23.40395 26.94848 25.17622
#
# Velocity S-wave (km/s) = 3.22384 3.45936 3.34368
# Velocity P-wave (km/s) = 4.96662 5.46448 5.22149
#
# Compressibility (1/GPa) = 0.04108110
#
# Stress axis : x y z
#
# Youngs Moduli (GPa) = 31.77261 51.20404 79.14792
#
# Poissons Ratio (x) = 0.16662 0.19670
# Poissons Ratio (y) = 0.10339 0.43842
# Poissons Ratio (z) = 0.07896 0.28363
#
# Static dielectric constant tensor:
#      x y z
#    x 1.904900 0.000000 0.002390 
#    y 0.000000 1.853460 0.000000 
#    z 0.002390 0.000000 1.845510 
# 
# From -- ./inp_files/268968.got.cif
#   From: 2010.05.17/outbox.cif.g08.bks.cpg/sg15_135_cif.got.tgz:268968.got - 2010.06.03 18:47:42.
