data_PCOD9259521
_publ_section_title
;
Structure prediction by ZEFSAII (Michael W. Deem and Ramdas Pophale) SiO2 
 PCOD9259521
Probable space group: C 2/C
;
_chemical_formula_sum "Si O2"
_cell_formula_units_Z 40
_cell_length_a 9.357046
_cell_length_b 18.001743
_cell_length_c 23.138173
_cell_angle_alpha 90.000000
_cell_angle_beta 34.773225
_cell_angle_gamma 90.000000
_cell_volume 2222.841155
_symmetry_space_group_name_H-M "C 2/C"
_symmetry_group_IT_number 15
_symmetry_cell_setting 'monoclinic'
loop_
_space_group_symop_operation_xyz
x,y,z
-x,y,1/2-z
-x,-y,-z
x,-y,1/2+z
1/2+x,1/2+y,z
1/2-x,1/2+y,1/2-z
1/2-x,1/2-y,-z
1/2+x,1/2-y,1/2+z
loop_
_atom_site_type_symbol
_atom_site_label
_atom_site_fract_x
_atom_site_fract_y
_atom_site_fract_z
Si Si1 0.500000 0.908163 0.750000
Si Si2 0.500000 0.641286 0.250000
Si Si3 0.014679 0.423928 0.530420
Si Si4 0.579833 0.703069 0.346220
Si Si5 0.216171 0.493934 0.570915
Si Si6 0.538765 0.854922 0.066994
O O1 0.726528 0.852926 0.688924
O O2 0.556492 0.959673 0.676203
O O3 0.259514 0.594886 0.352221
O O4 0.585929 0.689775 0.275781
O O5 0.084626 0.368717 0.455138
O O6 0.000000 0.500000 0.500000
O O7 0.199673 0.436924 0.522308
O O8 0.606457 0.789626 0.352199
O O9 0.312087 0.675945 0.459102
O O10 0.500000 0.500000 0.500000
O O11 0.095152 0.570799 0.586135
#
# Coordination Sequence:
#
# PCOD9259521 Si02
#       6
#     4   4   8   8   8   8
#     4  12  22  37  61  90 122 158 204 248 308 357
#     4  10  18  35  59  84 116 160 196 240 302 361
#     4   9  19  35  59  85 116 155 197 244 299 358
#     4  10  20  37  60  84 121 160 199 249 304 366
#     4  11  21  37  60  92 120 156 199 256 302 360
#     4   9  20  39  58  84 119 160 200 247 303 362
#
# _framework density 17.994987999999999
#
# number of rings (size 3 to 8) (size 9 to 14) (size 15 to 20)
#    0.000    2.000    4.000    0.000    0.000    0.800 
#    0.000    9.000    0.000    0.000    0.000    0.000 
#    0.000    0.000    0.000    0.000    0.000    0.000 
#
# Total GULP energy -111372.244925 kJ/mol
# GULP energy per Si atom -5568.612246 kJ/mol
# Density = 1.795403 g / cm^3
# Si number density = 17.994988 Si / 1000 Ang^3
#
#
#
# Elastic Constant Matrix: (Units=GPa)
#
#
# Indices 1 2 3 4 5 6 
#
# 1 130.3746 52.4302 41.2988 -0.0033 31.7303 -0.0186
# 2 52.4302 112.3256 51.9109 -0.0227 26.2460 -0.0127
# 3 41.2988 51.9109 69.2988 -0.0304 28.6972 -0.0896
# 4 -0.0033 -0.0227 -0.0304 31.8952 -0.0009 1.6500
# 5 31.7303 26.2460 28.6972 -0.0009 27.9517 0.0385
# 6 -0.0186 -0.0127 -0.0896 1.6500 0.0385 14.0031
#
#
#
# Elastic Compliance Matrix: (Units=1/GPa)
#
#
# Indices 1 2 3 4 5 6 
#
# 1 0.011318 -0.002698 -0.000787 -0.000004 -0.009507 0.000034
# 2 -0.002698 0.014525 -0.008512 0.000004 -0.001837 -0.000040
# 3 -0.000787 -0.008512 0.030610 0.000010 -0.022541 0.000248
# 4 -0.000004 0.000004 0.000010 0.031545 -0.000003 -0.003717
# 5 -0.009507 -0.001837 -0.022541 -0.000003 0.071435 -0.000354
# 6 0.000034 -0.000040 0.000248 -0.003717 -0.000354 0.071853
#
#
# Mechanical properties :
#
#
# Convention : Reuss Voigt Hill
#
# Bulk Modulus (GPa) = 30.80800 67.03098 48.91949
# Shear Modulus (GPa) = 18.78985 25.86061 22.32523
#
# Velocity S-wave (km/s) = 3.23487 3.79502 3.52609
# Velocity P-wave (km/s) = 5.57763 7.51888 6.61980
#
# Compressibility (1/GPa) = 0.03245910
#
# Stress axis : x y z
#
# Youngs Moduli (GPa) = 88.35253 68.84679 32.66866
#
# Poissons Ratio (x) = 0.18573 0.02572
# Poissons Ratio (y) = 0.23836 0.27808
# Poissons Ratio (z) = 0.06957 0.58603
#
# Static dielectric constant tensor:
#      x y z
#    x 1.642390 0.000000 0.001980 
#    y 0.000000 1.641910 0.000000 
#    z 0.001980 0.000000 1.608120 
# 
# From -- ./inp_files/76741.got.cif
#   From: 2010.05.17/outbox.cif.g08.bks.cpg/sg15_39_cif.got.tgz:76741.got - 2010.06.03 18:47:42.
