data_PCOD9259883
_publ_section_title
;
Structure prediction by ZEFSAII (Michael W. Deem and Ramdas Pophale) SiO2 
 PCOD9259883
Probable space group: C 2/C
;
_chemical_formula_sum "Si O2"
_cell_formula_units_Z 48
_cell_length_a 15.837161
_cell_length_b 9.163878
_cell_length_c 15.909811
_cell_angle_alpha 90.000000
_cell_angle_beta 62.761758
_cell_angle_gamma 90.000000
_cell_volume 2052.946710
_symmetry_space_group_name_H-M "C 2/C"
_symmetry_group_IT_number 15
_symmetry_cell_setting 'monoclinic'
loop_
_space_group_symop_operation_xyz
x,y,z
-x,y,1/2-z
-x,-y,-z
x,-y,1/2+z
1/2+x,1/2+y,z
1/2-x,1/2+y,1/2-z
1/2-x,1/2-y,-z
1/2+x,1/2-y,1/2+z
loop_
_atom_site_type_symbol
_atom_site_label
_atom_site_fract_x
_atom_site_fract_y
_atom_site_fract_z
Si Si1 0.868229 0.896589 0.231678
Si Si2 0.194442 0.661316 0.686897
Si Si3 0.536514 0.331374 0.869150
Si Si4 0.151663 0.653841 0.149979
Si Si5 0.337537 0.600031 0.408400
Si Si6 0.638941 0.675445 0.488249
O O1 0.780976 0.885873 0.207460
O O2 0.898607 0.739251 0.251331
O O3 0.948404 0.995269 0.153436
O O4 0.844936 0.988069 0.326578
O O5 0.115215 0.743109 0.780051
O O6 0.150051 0.517157 0.666001
O O7 0.231145 0.775716 0.598976
O O8 0.432188 0.305396 0.882520
O O9 0.556605 0.310834 0.957815
O O10 0.262139 0.707766 0.104979
O O11 0.123240 0.712356 0.071475
O O12 0.336132 0.485913 0.486033
#
# Coordination Sequence:
#
# PCOD9259883 Si02
#       6
#     8   8   8   8   8   8
#     4  10  18  36  58  84 111 152 199 233 280 344
#     4  11  19  36  57  86 115 148 197 240 285 337
#     4  11  21  40  61  87 115 156 196 241 288 345
#     4  10  20  35  57  90 114 150 193 249 288 332
#     4  10  23  37  60  85 119 154 190 238 293 352
#     4  10  20  38  59  83 122 153 192 235 295 352
#
# _framework density 23.381027
#
# number of rings (size 3 to 8) (size 9 to 14) (size 15 to 20)
#    0.000    1.667    3.333    3.500    0.000    0.667 
#    0.000    7.500    0.000    0.000    0.000    0.000 
#    0.000    0.000    0.000    0.000    0.000    0.000 
#
# Total GULP energy -134022.574986 kJ/mol
# GULP energy per Si atom -5584.273958 kJ/mol
# Density = 2.332781 g / cm^3
# Si number density = 23.381027 Si / 1000 Ang^3
#
#
#
# Elastic Constant Matrix: (Units=GPa)
#
#
# Indices 1 2 3 4 5 6 
#
# 1 87.3838 18.9585 29.1621 0.0000 26.5544 0.0000
# 2 18.9585 121.8697 42.8225 0.0000 26.7477 0.0000
# 3 29.1621 42.8225 92.2090 0.0000 33.7591 0.0000
# 4 0.0000 0.0000 0.0000 23.9098 0.0000 4.8841
# 5 26.5544 26.7477 33.7591 0.0000 41.8405 0.0000
# 6 0.0000 0.0000 0.0000 4.8841 0.0000 32.2794
#
#
#
# Elastic Compliance Matrix: (Units=1/GPa)
#
#
# Indices 1 2 3 4 5 6 
#
# 1 0.014366 0.000080 -0.001737 0.000000 -0.007768 0.000000
# 2 0.000080 0.010223 -0.003352 0.000000 -0.003882 0.000000
# 3 -0.001737 -0.003352 0.016694 0.000000 -0.010225 0.000000
# 4 0.000000 0.000000 0.000000 0.043158 0.000000 -0.006530
# 5 -0.007768 -0.003882 -0.010225 0.000000 0.039561 0.000000
# 6 0.000000 0.000000 0.000000 -0.006530 0.000000 0.031968
#
#
# Mechanical properties :
#
#
# Convention : Reuss Voigt Hill
#
# Bulk Modulus (GPa) = 31.98313 53.70542 42.84427
# Shear Modulus (GPa) = 28.34321 33.64057 30.99189
#
# Velocity S-wave (km/s) = 3.48549 3.79726 3.64471
# Velocity P-wave (km/s) = 5.46873 6.49963 6.00633
#
# Compressibility (1/GPa) = 0.03126649
#
# Stress axis : x y z
#
# Youngs Moduli (GPa) = 69.60656 97.82175 59.90086
#
# Poissons Ratio (x) = -0.00785 0.10405
# Poissons Ratio (y) = -0.00559 0.20077
# Poissons Ratio (z) = 0.12091 0.32787
#
# Static dielectric constant tensor:
#      x y z
#    x 1.895880 0.000000 -0.062240 
#    y 0.000000 1.889560 0.000000 
#    z -0.062240 0.000000 1.950250 
# 
# From -- ./inp_files/208541.got.cif
#   From: 2010.05.17/outbox.cif.g08.bks.cpg/sg15_105_cif.got.tgz:208541.got - 2010.06.03 18:47:42.
