data_PCOD9259637
_publ_section_title
;
Structure prediction by ZEFSAII (Michael W. Deem and Ramdas Pophale) SiO2 
 PCOD9259637
Probable space group: C 2/C
;
_chemical_formula_sum "Si O2"
_cell_formula_units_Z 60
_cell_length_a 28.183879
_cell_length_b 8.915371
_cell_length_c 14.431086
_cell_angle_alpha 90.000000
_cell_angle_beta 121.409223
_cell_angle_gamma 90.000000
_cell_volume 3094.752289
_symmetry_space_group_name_H-M "C 2/C"
_symmetry_group_IT_number 15
_symmetry_cell_setting 'monoclinic'
loop_
_space_group_symop_operation_xyz
x,y,z
-x,y,1/2-z
-x,-y,-z
x,-y,1/2+z
1/2+x,1/2+y,z
1/2-x,1/2+y,1/2-z
1/2-x,1/2-y,-z
1/2+x,1/2-y,1/2+z
loop_
_atom_site_type_symbol
_atom_site_label
_atom_site_fract_x
_atom_site_fract_y
_atom_site_fract_z
Si Si1 0.675091 0.558326 0.106869
Si Si2 0.203464 0.669783 0.512369
Si Si3 0.000000 0.559411 0.750000
Si Si4 0.996318 0.333926 0.040035
Si Si5 0.381680 0.943368 0.134399
Si Si6 0.380115 0.768437 0.317670
Si Si7 0.875659 0.253447 0.940693
Si Si8 0.794369 0.513765 0.303267
O O1 0.670619 0.695749 0.030554
O O2 0.652922 0.623155 0.182379
O O3 0.639252 0.414062 0.045638
O O4 0.739874 0.516133 0.184538
O O5 0.250000 0.750000 0.500000
O O6 0.165636 0.566726 0.408236
O O7 0.223100 0.557084 0.614801
O O8 0.004751 0.653853 0.849024
O O9 0.941719 0.476050 0.700844
O O10 0.056373 0.260618 0.080760
O O11 0.000000 0.500000 0.000000
O O12 0.936185 0.264754 0.953598
O O13 0.380217 0.813727 0.210029
O O14 0.377530 0.863815 0.030943
O O15 0.345095 0.907263 0.323860
O O16 0.822468 0.321994 0.832915
#
# Coordination Sequence:
#
# PCOD9259637 Si02
#       8
#     8   8   4   8   8   8   8   8
#     4  11  23  35  54  84 120 141 184 244 285 336
#     4  10  21  36  56  80 110 148 190 236 276 335
#     4   8  18  32  56  88 100 138 194 236 262 328
#     4  10  18  35  62  82 110 147 195 233 278 349
#     4   9  19  36  59  77 108 148 189 221 278 345
#     4  10  20  36  58  84 108 143 189 237 277 331
#     4  10  20  36  57  82 110 153 186 227 292 338
#     4  10  20  37  55  78 111 153 190 226 276 347
#
# _framework density 19.387658999999999
#
# number of rings (size 3 to 8) (size 9 to 14) (size 15 to 20)
#    0.000    2.133    1.333    2.400    1.867    1.600 
#    0.000    3.333    0.000    3.200    0.000    0.000 
#    0.000    0.000    0.000    0.000    0.000    0.000 
#
# Total GULP energy -167021.377048 kJ/mol
# GULP energy per Si atom -5567.379235 kJ/mol
# Density = 1.934353 g / cm^3
# Si number density = 19.387659 Si / 1000 Ang^3
#
#
#
# Elastic Constant Matrix: (Units=GPa)
#
#
# Indices 1 2 3 4 5 6 
#
# 1 93.4062 14.8989 19.3986 0.0000 23.4865 0.0000
# 2 14.8989 65.2685 7.8881 0.0000 21.3555 0.0000
# 3 19.3986 7.8881 38.1117 0.0000 16.1859 0.0000
# 4 0.0000 0.0000 0.0000 11.7920 0.0000 0.2083
# 5 23.4865 21.3555 16.1859 0.0000 29.4137 0.0000
# 6 0.0000 0.0000 0.0000 0.2083 0.0000 14.7626
#
#
#
# Elastic Compliance Matrix: (Units=1/GPa)
#
#
# Indices 1 2 3 4 5 6 
#
# 1 0.013664 0.000360 -0.002982 0.000000 -0.009531 0.000000
# 2 0.000360 0.020313 0.002607 0.000000 -0.016470 0.000000
# 3 -0.002982 0.002607 0.035247 0.000000 -0.018908 0.000000
# 4 0.000000 0.000000 0.000000 0.084824 0.000000 -0.001197
# 5 -0.009531 -0.016470 -0.018908 0.000000 0.063971 0.000000
# 6 0.000000 0.000000 0.000000 -0.001197 0.000000 0.067756
#
#
# Mechanical properties :
#
#
# Convention : Reuss Voigt Hill
#
# Bulk Modulus (GPa) = 14.45183 31.23974 22.84579
# Shear Modulus (GPa) = 16.18808 21.50038 18.84423
#
# Velocity S-wave (km/s) = 2.89272 3.33374 3.12103
# Velocity P-wave (km/s) = 4.31595 5.56476 4.97966
#
# Compressibility (1/GPa) = 0.06919538
#
# Stress axis : x y z
#
# Youngs Moduli (GPa) = 73.18301 49.22949 28.37140
#
# Poissons Ratio (x) = -0.01771 0.08459
# Poissons Ratio (y) = -0.02633 -0.07398
# Poissons Ratio (z) = 0.21820 -0.12836
#
# Static dielectric constant tensor:
#      x y z
#    x 1.740650 0.000000 -0.002560 
#    y 0.000000 1.656360 0.000000 
#    z -0.002560 0.000000 1.810550 
# 
# From -- ./inp_files/221700.got.cif
#   From: 2010.05.17/outbox.cif.g08.bks.cpg/sg15_111_cif.got.tgz:221700.got - 2010.06.03 18:47:42.
