data_PCOD9259212
_publ_section_title
;
Structure prediction by ZEFSAII (Michael W. Deem and Ramdas Pophale) SiO2 
 PCOD9259212
Probable space group: C 2/C
;
_chemical_formula_sum "Si O2"
_cell_formula_units_Z 60
_cell_length_a 8.639762
_cell_length_b 17.962782
_cell_length_c 18.108896
_cell_angle_alpha 90.000000
_cell_angle_beta 96.463801
_cell_angle_gamma 90.000000
_cell_volume 2792.529748
_symmetry_space_group_name_H-M "C 2/C"
_symmetry_group_IT_number 15
_symmetry_cell_setting 'monoclinic'
loop_
_space_group_symop_operation_xyz
x,y,z
-x,y,1/2-z
-x,-y,-z
x,-y,1/2+z
1/2+x,1/2+y,z
1/2-x,1/2+y,1/2-z
1/2-x,1/2-y,-z
1/2+x,1/2-y,1/2+z
loop_
_atom_site_type_symbol
_atom_site_label
_atom_site_fract_x
_atom_site_fract_y
_atom_site_fract_z
Si Si1 0.250732 0.202924 0.120233
Si Si2 0.000000 0.673975 0.250000
Si Si3 0.827664 0.587345 0.759982
Si Si4 0.131039 0.043121 0.610648
Si Si5 0.347333 0.943453 0.531160
Si Si6 0.181177 0.135038 0.898390
Si Si7 0.984337 0.889367 0.660936
Si Si8 0.141689 0.438184 0.640859
O O1 0.353471 0.210418 0.200774
O O2 0.298906 0.129650 0.077095
O O3 0.289764 0.279197 0.080549
O O4 0.072716 0.181781 0.131244
O O5 0.930386 0.624796 0.311318
O O6 0.740355 0.579015 0.678203
O O7 0.720939 0.629135 0.813792
O O8 0.845620 0.507535 0.802001
O O9 0.000000 0.616979 0.750000
O O10 0.236615 0.012425 0.549245
O O11 0.067264 0.966651 0.642913
O O12 0.985989 0.098903 0.589774
O O13 0.305839 0.915786 0.447705
O O14 0.523820 0.954875 0.567545
O O15 0.808280 0.905523 0.627185
O O16 0.000000 0.882784 0.750000
#
# Coordination Sequence:
#
# PCOD9259212 Si02
#       8
#     8   4   8   8   8   8   8   8
#     4  10  23  38  60  89 129 166 221 267 324 390
#     4  10  18  34  62  88 110 166 210 266 308 380
#     4  12  22  39  60  94 130 157 204 277 331 379
#     4  11  21  39  67  93 120 164 220 274 324 388
#     4  10  23  43  64  88 123 177 221 259 324 412
#     4  12  25  40  60  93 136 167 206 273 346 395
#     4  11  18  35  63  93 117 162 225 269 311 386
#     4  11  18  37  65  87 121 159 220 265 313 375
#
# _framework density 21.485893999999998
#
# number of rings (size 3 to 8) (size 9 to 14) (size 15 to 20)
#    0.000    1.067    6.000    2.000    1.867    1.067 
#    0.000    0.667    0.000    0.000    0.000    0.000 
#    0.000    0.000    0.000    0.000    0.000    0.000 
#
# Total GULP energy -167423.187486 kJ/mol
# GULP energy per Si atom -5580.772916 kJ/mol
# Density = 2.143699 g / cm^3
# Si number density = 21.485894 Si / 1000 Ang^3
#
#
#
# Elastic Constant Matrix: (Units=GPa)
#
#
# Indices 1 2 3 4 5 6 
#
# 1 110.0284 41.5727 4.6571 0.0000 10.9392 0.0000
# 2 41.5727 79.2623 6.6608 0.0000 -5.9568 0.0000
# 3 4.6571 6.6608 55.5050 0.0000 7.2968 0.0000
# 4 0.0000 0.0000 0.0000 22.2812 0.0000 2.4017
# 5 10.9392 -5.9568 7.2968 0.0000 24.4330 0.0000
# 6 0.0000 0.0000 0.0000 2.4017 0.0000 3.4153
#
#
#
# Elastic Compliance Matrix: (Units=1/GPa)
#
#
# Indices 1 2 3 4 5 6 
#
# 1 0.012538 -0.007217 0.000815 0.000000 -0.007617 0.000000
# 2 -0.007217 0.017231 -0.002539 0.000000 0.008190 0.000000
# 3 0.000815 -0.002539 0.019133 0.000000 -0.006698 0.000000
# 4 0.000000 0.000000 0.000000 0.048562 0.000000 -0.034148
# 5 -0.007617 0.008190 -0.006698 0.000000 0.048336 0.000000
# 6 0.000000 0.000000 0.000000 -0.034148 0.000000 0.316810
#
#
# Mechanical properties :
#
#
# Convention : Reuss Voigt Hill
#
# Bulk Modulus (GPa) = 32.23661 38.95298 35.59480
# Shear Modulus (GPa) = 10.18681 22.81960 16.50320
#
# Velocity S-wave (km/s) = 2.17978 3.26248 2.77446
# Velocity P-wave (km/s) = 4.62293 5.68864 5.18325
#
# Compressibility (1/GPa) = 0.03102063
#
# Stress axis : x y z
#
# Youngs Moduli (GPa) = 79.75605 58.03623 52.26524
#
# Poissons Ratio (x) = 0.41886 -0.04262
# Poissons Ratio (y) = 0.57561 0.13270
# Poissons Ratio (z) = -0.06503 0.14735
#
# Static dielectric constant tensor:
#      x y z
#    x 1.831150 0.000000 -0.015970 
#    y 0.000000 1.795690 0.000000 
#    z -0.015970 0.000000 1.773190 
# 
# From -- ./inp_files/192187.got.cif
#   From: 2010.05.17/outbox.cif.g08.bks.cpg/sg15_97_cif.got.tgz:192187.got - 2010.06.03 18:47:42.
