data_PCOD9259022
_publ_section_title
;
Structure prediction by ZEFSAII (Michael W. Deem and Ramdas Pophale) SiO2 
 PCOD9259022
Probable space group: C 2/C
;
_chemical_formula_sum "Si O2"
_cell_formula_units_Z 52
_cell_length_a 12.825238
_cell_length_b 13.579224
_cell_length_c 15.556459
_cell_angle_alpha 90.000000
_cell_angle_beta 82.085637
_cell_angle_gamma 90.000000
_cell_volume 2683.457013
_symmetry_space_group_name_H-M "C 2/C"
_symmetry_group_IT_number 15
_symmetry_cell_setting 'monoclinic'
loop_
_space_group_symop_operation_xyz
x,y,z
-x,y,1/2-z
-x,-y,-z
x,-y,1/2+z
1/2+x,1/2+y,z
1/2-x,1/2+y,1/2-z
1/2-x,1/2-y,-z
1/2+x,1/2-y,1/2+z
loop_
_atom_site_type_symbol
_atom_site_label
_atom_site_fract_x
_atom_site_fract_y
_atom_site_fract_z
Si Si1 0.660528 0.885238 0.362661
Si Si2 0.000000 0.095897 0.750000
Si Si3 0.381630 0.575427 0.930333
Si Si4 0.793541 0.798955 0.200421
Si Si5 0.818177 0.878073 0.006986
Si Si6 0.004650 0.740922 0.994005
Si Si7 0.859950 0.390690 0.617079
O O1 0.765773 0.894984 0.409462
O O2 0.699734 0.836261 0.270324
O O3 0.574700 0.818151 0.418934
O O4 0.623005 0.997983 0.355672
O O5 0.049619 0.042302 0.661037
O O6 0.097176 0.160385 0.773077
O O7 0.372108 0.485045 0.997082
O O8 0.432749 0.671324 0.966570
O O9 0.786569 0.844106 0.105636
O O10 0.805784 0.681403 0.192214
O O11 0.720422 0.888327 0.954343
O O12 0.902144 0.795986 0.967009
O O13 0.963413 0.664167 0.070513
#
# Coordination Sequence:
#
# PCOD9259022 Si02
#       7
#     8   4   8   8   8   8   8
#     4  10  23  36  57  89 115 145 194 243 279 335
#     4  10  18  34  58  86 112 144 190 242 282 332
#     4  10  20  36  59  88 113 149 192 236 284 341
#     4  10  20  37  60  80 119 146 194 234 292 328
#     4  10  21  38  61  83 113 156 193 228 287 344
#     4  11  19  36  60  82 118 151 191 228 288 345
#     4  10  21  41  60  78 116 161 184 228 290 351
#
# _framework density 19.37799
#
# number of rings (size 3 to 8) (size 9 to 14) (size 15 to 20)
#    0.000    1.846    3.077    3.231    0.000    1.231 
#    5.538    3.846    3.385    0.000    0.000    0.000 
#    0.000    0.000    0.000    0.000    0.000    0.000 
#
# Total GULP energy -145085.536823 kJ/mol
# GULP energy per Si atom -5580.212955 kJ/mol
# Density = 1.933388 g / cm^3
# Si number density = 19.377990 Si / 1000 Ang^3
#
#
#
# Elastic Constant Matrix: (Units=GPa)
#
#
# Indices 1 2 3 4 5 6 
#
# 1 28.0332 34.2029 22.6957 0.0000 -17.5060 0.0000
# 2 34.2029 140.8713 78.6642 0.0000 -38.1801 0.0000
# 3 22.6957 78.6642 98.1061 0.0000 -34.3437 0.0000
# 4 0.0000 0.0000 0.0000 25.4516 0.0000 -1.1310
# 5 -17.5060 -38.1801 -34.3437 0.0000 33.0694 0.0000
# 6 0.0000 0.0000 0.0000 -1.1310 0.0000 23.0433
#
#
#
# Elastic Compliance Matrix: (Units=1/GPa)
#
#
# Indices 1 2 3 4 5 6 
#
# 1 0.059821 -0.009228 0.001440 0.000000 0.022509 0.000000
# 2 -0.009228 0.015233 -0.008850 0.000000 0.003511 0.000000
# 3 0.001440 -0.008850 0.021441 0.000000 0.012812 0.000000
# 4 0.000000 0.000000 0.000000 0.039376 0.000000 0.001933
# 5 0.022509 0.003511 0.012812 0.000000 0.059514 0.000000
# 6 0.000000 0.000000 0.000000 0.001933 0.000000 0.043491
#
#
# Mechanical properties :
#
#
# Convention : Reuss Voigt Hill
#
# Bulk Modulus (GPa) = 15.81808 59.79292 37.80550
# Shear Modulus (GPa) = 17.05169 25.07605 21.06387
#
# Velocity S-wave (km/s) = 2.96962 3.60119 3.30054
# Velocity P-wave (km/s) = 4.46529 6.94367 5.83752
#
# Compressibility (1/GPa) = 0.06321880
#
# Stress axis : x y z
#
# Youngs Moduli (GPa) = 16.71646 65.64809 46.63881
#
# Poissons Ratio (x) = 0.60578 -0.06715
# Poissons Ratio (y) = 0.15425 0.41277
# Poissons Ratio (z) = -0.02407 0.58101
#
# Static dielectric constant tensor:
#      x y z
#    x 1.703890 0.000000 -0.000280 
#    y 0.000000 1.684240 0.000000 
#    z -0.000280 0.000000 1.672320 
# 
# From -- ./inp_files/153364.got.cif
#   From: 2010.05.17/outbox.cif.g08.bks.cpg/sg15_77_cif.got.tgz:153364.got - 2010.06.03 18:47:42.
