data_PCOD9259252
_publ_section_title
;
Structure prediction by ZEFSAII (Michael W. Deem and Ramdas Pophale) SiO2 
 PCOD9259252
Probable space group: C 2/C
;
_chemical_formula_sum "Si O2"
_cell_formula_units_Z 60
_cell_length_a 11.146727
_cell_length_b 12.186384
_cell_length_c 21.937118
_cell_angle_alpha 90.000000
_cell_angle_beta 58.540809
_cell_angle_gamma 90.000000
_cell_volume 2541.891365
_symmetry_space_group_name_H-M "C 2/C"
_symmetry_group_IT_number 15
_symmetry_cell_setting 'monoclinic'
loop_
_space_group_symop_operation_xyz
x,y,z
-x,y,1/2-z
-x,-y,-z
x,-y,1/2+z
1/2+x,1/2+y,z
1/2-x,1/2+y,1/2-z
1/2-x,1/2-y,-z
1/2+x,1/2-y,1/2+z
loop_
_atom_site_type_symbol
_atom_site_label
_atom_site_fract_x
_atom_site_fract_y
_atom_site_fract_z
Si Si1 0.125914 0.507017 0.919024
Si Si2 0.000000 0.431323 0.750000
Si Si3 0.837647 0.358934 0.291738
Si Si4 0.128526 0.696354 0.113572
Si Si5 0.343369 0.408711 0.460890
Si Si6 0.062938 0.857346 0.561172
Si Si7 0.329191 0.785940 0.166364
Si Si8 0.176560 0.275356 0.929606
O O1 0.255744 0.550731 0.924855
O O2 0.101345 0.598471 0.874304
O O3 0.142365 0.380002 0.896569
O O4 0.000000 0.500000 0.000000
O O5 0.136007 0.511070 0.715852
O O6 0.012747 0.366679 0.683545
O O7 0.769694 0.313405 0.248234
O O8 0.755410 0.318163 0.371706
O O9 0.000000 0.316237 0.250000
O O10 0.083862 0.796663 0.081484
O O11 0.219976 0.747379 0.144707
O O12 0.231669 0.621524 0.043961
O O13 0.439472 0.513262 0.450542
O O14 0.056671 0.782266 0.502011
O O15 0.212347 0.828748 0.552240
O O16 0.944069 0.810315 0.636686
#
# Coordination Sequence:
#
# PCOD9259252 Si02
#       8
#     8   4   8   8   8   8   8   8
#     4  10  20  34  61  93 117 159 202 258 298 368
#     4  10  22  40  64  78 120 172 202 238 324 378
#     4  10  22  38  60  88 119 159 198 256 307 369
#     4  10  22  42  58  84 120 161 199 255 305 386
#     4   9  21  38  60  83 120 157 202 249 317 354
#     4  10  18  34  63  88 116 158 202 258 296 370
#     4  11  22  38  58  91 126 151 209 255 305 368
#     4  10  19  35  59  92 124 154 202 251 319 351
#
# _framework density 23.604469999999999
#
# number of rings (size 3 to 8) (size 9 to 14) (size 15 to 20)
#    0.400    1.600    2.667    0.800    1.867    1.600 
#    0.000    5.333    0.000    0.000    0.000    0.000 
#    0.000    0.000    0.000    0.000    0.000    0.000 
#
# Total GULP energy -167559.061236 kJ/mol
# GULP energy per Si atom -5585.302041 kJ/mol
# Density = 2.355074 g / cm^3
# Si number density = 23.604470 Si / 1000 Ang^3
#
#
#
# Elastic Constant Matrix: (Units=GPa)
#
#
# Indices 1 2 3 4 5 6 
#
# 1 28.8093 23.3900 -10.0941 0.0000 13.1089 0.0000
# 2 23.3900 161.7361 51.3094 0.0000 9.8172 0.0000
# 3 -10.0941 51.3094 88.9306 0.0000 14.7429 0.0000
# 4 0.0000 0.0000 0.0000 33.8951 0.0000 -3.5781
# 5 13.1089 9.8172 14.7429 0.0000 26.8275 0.0000
# 6 0.0000 0.0000 0.0000 -3.5781 0.0000 19.9354
#
#
#
# Elastic Compliance Matrix: (Units=1/GPa)
#
#
# Indices 1 2 3 4 5 6 
#
# 1 0.079451 -0.017097 0.026715 0.000000 -0.047248 0.000000
# 2 -0.017097 0.011251 -0.010050 0.000000 0.009760 0.000000
# 3 0.026715 -0.010050 0.023798 0.000000 -0.022455 0.000000
# 4 0.000000 0.000000 0.000000 0.030073 0.000000 0.005398
# 5 -0.047248 0.009760 -0.022455 0.000000 0.069130 0.000000
# 6 0.000000 0.000000 0.000000 0.005398 0.000000 0.051131
#
#
# Mechanical properties :
#
#
# Convention : Reuss Voigt Hill
#
# Bulk Modulus (GPa) = 8.80001 45.40961 27.10481
# Shear Modulus (GPa) = 16.47022 30.45632 23.46327
#
# Velocity S-wave (km/s) = 2.64438 3.59594 3.15623
# Velocity P-wave (km/s) = 3.61384 6.04322 4.97897
#
# Compressibility (1/GPa) = 0.11363625
#
# Stress axis : x y z
#
# Youngs Moduli (GPa) = 12.58632 88.87732 42.01994
#
# Poissons Ratio (x) = 1.51958 -1.12258
# Poissons Ratio (y) = 0.21519 0.42232
# Poissons Ratio (z) = -0.33625 0.89325
#
# Static dielectric constant tensor:
#      x y z
#    x 1.990110 0.000000 0.006260 
#    y 0.000000 1.975410 0.000000 
#    z 0.006260 0.000000 1.835580 
# 
# From -- ./inp_files/273828.got.cif
#   From: 2010.05.17/outbox.cif.g08.bks.cpg/sg15_137_cif.got.tgz:273828.got - 2010.06.03 18:47:42.
