data_PCOD9259635
_publ_section_title
;
Structure prediction by ZEFSAII (Michael W. Deem and Ramdas Pophale) SiO2 
 PCOD9259635
Probable space group: C 2/C
;
_chemical_formula_sum "Si O2"
_cell_formula_units_Z 40
_cell_length_a 7.001673
_cell_length_b 17.218754
_cell_length_c 15.276775
_cell_angle_alpha 90.000000
_cell_angle_beta 64.878215
_cell_angle_gamma 90.000000
_cell_volume 1667.551628
_symmetry_space_group_name_H-M "C 2/C"
_symmetry_group_IT_number 15
_symmetry_cell_setting 'monoclinic'
loop_
_space_group_symop_operation_xyz
x,y,z
-x,y,1/2-z
-x,-y,-z
x,-y,1/2+z
1/2+x,1/2+y,z
1/2-x,1/2+y,1/2-z
1/2-x,1/2-y,-z
1/2+x,1/2-y,1/2+z
loop_
_atom_site_type_symbol
_atom_site_label
_atom_site_fract_x
_atom_site_fract_y
_atom_site_fract_z
Si Si1 0.742830 0.859342 0.463098
Si Si2 0.884673 0.790362 0.184801
Si Si3 0.911440 0.615753 0.180118
Si Si4 0.253280 0.025275 0.062352
Si Si5 0.828581 0.329825 0.438168
O O1 0.610655 0.869088 0.577456
O O2 0.570545 0.841418 0.421121
O O3 0.923437 0.795799 0.423056
O O4 0.856413 0.942867 0.424969
O O5 0.823371 0.701514 0.217324
O O6 0.704815 0.826888 0.159235
O O7 0.000000 0.821960 0.250000
O O8 0.749951 0.563452 0.158324
O O9 0.000000 0.578046 0.250000
O O10 0.211136 0.095451 0.003827
O O11 0.500000 0.000000 0.000000
O O12 0.750000 0.250000 0.500000
#
# Coordination Sequence:
#
# PCOD9259635 Si02
#       5
#     8   8   8   8   8
#     4  10  21  38  59  84 113 151 185 230 291 324
#     4  11  22  36  58  87 114 147 194 232 273 335
#     4   9  17  33  58  82 109 149 186 225 276 339
#     4   8  17  35  55  83 109 148 186 221 287 337
#     4  10  18  35  62  80 111 148 188 230 278 334
#
# _framework density 23.987262999999999
#
# number of rings (size 3 to 8) (size 9 to 14) (size 15 to 20)
#    0.000    2.800    4.000    0.600    0.000    1.600 
#   10.800    0.000    0.000    3.600    0.000    0.000 
#    0.000    0.000    0.000    0.000    0.000    0.000 
#
# Total GULP energy -111492.108911 kJ/mol
# GULP energy per Si atom -5574.605446 kJ/mol
# Density = 2.393267 g / cm^3
# Si number density = 23.987263 Si / 1000 Ang^3
#
#
#
# Elastic Constant Matrix: (Units=GPa)
#
#
# Indices 1 2 3 4 5 6 
#
# 1 73.9814 13.6148 47.2403 0.0000 25.0401 0.0000
# 2 13.6148 144.9079 13.3638 0.0000 21.2773 0.0000
# 3 47.2403 13.3638 104.1188 0.0000 48.9081 0.0000
# 4 0.0000 0.0000 0.0000 20.4139 0.0000 10.8133
# 5 25.0401 21.2773 48.9081 0.0000 53.3351 0.0000
# 6 0.0000 0.0000 0.0000 10.8133 0.0000 20.0262
#
#
#
# Elastic Compliance Matrix: (Units=1/GPa)
#
#
# Indices 1 2 3 4 5 6 
#
# 1 0.019230 -0.000870 -0.007967 0.000000 -0.001375 0.000000
# 2 -0.000870 0.007404 0.001124 0.000000 -0.003576 0.000000
# 3 -0.007967 0.001124 0.020252 0.000000 -0.015279 0.000000
# 4 0.000000 0.000000 0.000000 0.068610 0.000000 -0.037046
# 5 -0.001375 -0.003576 -0.015279 0.000000 0.034833 0.000000
# 6 0.000000 0.000000 0.000000 -0.037046 0.000000 0.069938
#
#
# Mechanical properties :
#
#
# Convention : Reuss Voigt Hill
#
# Bulk Modulus (GPa) = 31.78636 52.38289 42.08463
# Shear Modulus (GPa) = 20.31039 35.34100 27.82569
#
# Velocity S-wave (km/s) = 2.91299 3.84255 3.40960
# Velocity P-wave (km/s) = 4.95925 6.44765 5.75180
#
# Compressibility (1/GPa) = 0.03146004
#
# Stress axis : x y z
#
# Youngs Moduli (GPa) = 52.00232 135.06007 49.37764
#
# Poissons Ratio (x) = 0.11751 0.39341
# Poissons Ratio (y) = 0.04525 -0.05552
# Poissons Ratio (z) = 0.41432 -0.15185
#
# Static dielectric constant tensor:
#      x y z
#    x 1.959360 0.000000 -0.012380 
#    y 0.000000 1.969000 0.000000 
#    z -0.012380 0.000000 1.968750 
# 
# From -- ./inp_files/133824.got.cif
#   From: 2010.05.17/outbox.cif.g08.bks.cpg/sg15_67_cif.got.tgz:133824.got - 2010.06.03 18:47:42.
