data_PCOD9259119
_publ_section_title
;
Structure prediction by ZEFSAII (Michael W. Deem and Ramdas Pophale) SiO2 
 PCOD9259119
Probable space group: C 2/C
;
_chemical_formula_sum "Si O2"
_cell_formula_units_Z 60
_cell_length_a 11.982826
_cell_length_b 24.089997
_cell_length_c 14.814477
_cell_angle_alpha 90.000000
_cell_angle_beta 55.271029
_cell_angle_gamma 90.000000
_cell_volume 3514.617754
_symmetry_space_group_name_H-M "C 2/C"
_symmetry_group_IT_number 15
_symmetry_cell_setting 'monoclinic'
loop_
_space_group_symop_operation_xyz
x,y,z
-x,y,1/2-z
-x,-y,-z
x,-y,1/2+z
1/2+x,1/2+y,z
1/2-x,1/2+y,1/2-z
1/2-x,1/2-y,-z
1/2+x,1/2-y,1/2+z
loop_
_atom_site_type_symbol
_atom_site_label
_atom_site_fract_x
_atom_site_fract_y
_atom_site_fract_z
Si Si1 0.245379 0.836362 0.396487
Si Si2 0.985157 0.843577 0.119963
Si Si3 0.822659 0.657839 0.061869
Si Si4 0.773954 0.136853 0.880934
Si Si5 0.522469 0.941894 0.441596
Si Si6 0.865017 0.226262 0.251208
Si Si7 0.076229 0.262375 0.477079
Si Si8 0.000000 0.582715 0.750000
O O1 0.247864 0.828884 0.502297
O O2 0.280304 0.779474 0.327693
O O3 0.369012 0.877584 0.318136
O O4 0.102273 0.859416 0.427465
O O5 0.117490 0.877515 0.090764
O O6 0.872016 0.847915 0.251211
O O7 0.040565 0.781983 0.070600
O O8 0.718273 0.670718 0.189088
O O9 0.896827 0.598922 0.023509
O O10 0.944213 0.701364 0.016010
O O11 0.661594 0.090621 0.906040
O O12 0.691500 0.192385 0.945415
O O13 0.517865 0.949201 0.335419
O O14 0.500000 0.000000 0.500000
O O15 0.888557 0.233333 0.134336
O O16 0.000000 0.226932 0.250000
#
# Coordination Sequence:
#
# PCOD9259119 Si02
#       8
#     8   8   8   8   8   8   8   4
#     4  11  16  30  50  81 110 142 180 211 261 320
#     4  11  20  31  51  77 114 147 173 211 263 328
#     4  10  20  31  52  80 109 143 182 224 265 311
#     4  10  21  35  51  79 107 147 186 214 263 320
#     4  10  21  40  63  79 100 133 190 241 273 314
#     4  12  18  27  47  79 118 146 166 213 265 314
#     4  11  18  30  48  78 116 149 180 206 254 329
#     4  10  18  34  60  86 100 128 180 228 268 328
#
# _framework density 17.071558
#
# number of rings (size 3 to 8) (size 9 to 14) (size 15 to 20)
#    0.000    1.333    6.000    2.400    0.000    0.000 
#    0.000    1.333    2.933    6.400    0.000    0.000 
#    0.000    0.000    0.000    0.000    0.000    0.000 
#
# Total GULP energy -167197.423383 kJ/mol
# GULP energy per Si atom -5573.247446 kJ/mol
# Density = 1.703270 g / cm^3
# Si number density = 17.071558 Si / 1000 Ang^3
#
#
#
# Elastic Constant Matrix: (Units=GPa)
#
#
# Indices 1 2 3 4 5 6 
#
# 1 138.9494 31.7273 19.4076 0.0000 -11.7893 0.0000
# 2 31.7273 74.9687 46.7281 0.0000 5.6547 0.0000
# 3 19.4076 46.7281 53.0142 0.0000 -9.1582 0.0000
# 4 0.0000 0.0000 0.0000 13.3436 0.0000 5.9705
# 5 -11.7893 5.6547 -9.1582 0.0000 16.4649 0.0000
# 6 0.0000 0.0000 0.0000 5.9705 0.0000 9.5447
#
#
#
# Elastic Compliance Matrix: (Units=1/GPa)
#
#
# Indices 1 2 3 4 5 6 
#
# 1 0.009681 -0.010268 0.008091 0.000000 0.014958 0.000000
# 2 -0.010268 0.058239 -0.057859 0.000000 -0.059536 0.000000
# 3 0.008091 -0.057859 0.078916 0.000000 0.069559 0.000000
# 4 0.000000 0.000000 0.000000 0.104070 0.000000 -0.065099
# 5 0.014958 -0.059536 0.069559 0.000000 0.130584 0.000000
# 6 0.000000 0.000000 0.000000 -0.065099 0.000000 0.145491
#
#
# Mechanical properties :
#
#
# Convention : Reuss Voigt Hill
#
# Bulk Modulus (GPa) = 37.36615 51.40648 44.38632
# Shear Modulus (GPa) = 7.62226 19.14192 13.38209
#
# Velocity S-wave (km/s) = 2.11532 3.35218 2.80283
# Velocity P-wave (km/s) = 5.28220 6.72016 6.04409
#
# Compressibility (1/GPa) = 0.02676219
#
# Stress axis : x y z
#
# Youngs Moduli (GPa) = 103.30031 17.17072 12.67174
#
# Poissons Ratio (x) = 0.17631 -0.10252
# Poissons Ratio (y) = 1.06069 0.73317
# Poissons Ratio (z) = -0.83577 0.99348
#
# Static dielectric constant tensor:
#      x y z
#    x 1.632630 0.000000 0.004440 
#    y 0.000000 1.551940 0.000000 
#    z 0.004440 0.000000 1.609720 
# 
# From -- ./inp_files/147849.got.cif
#   From: 2010.05.17/outbox.cif.g08.bks.cpg/sg15_74_cif.got.tgz:147849.got - 2010.06.03 18:47:42.
