data_PCOD9259668
_publ_section_title
;
Structure prediction by ZEFSAII (Michael W. Deem and Ramdas Pophale) SiO2 
 PCOD9259668
Probable space group: C 2/C
;
_chemical_formula_sum "Si O2"
_cell_formula_units_Z 44
_cell_length_a 10.062317
_cell_length_b 19.635068
_cell_length_c 14.593472
_cell_angle_alpha 90.000000
_cell_angle_beta 37.280892
_cell_angle_gamma 90.000000
_cell_volume 1746.478142
_symmetry_space_group_name_H-M "C 2/C"
_symmetry_group_IT_number 15
_symmetry_cell_setting 'monoclinic'
loop_
_space_group_symop_operation_xyz
x,y,z
-x,y,1/2-z
-x,-y,-z
x,-y,1/2+z
1/2+x,1/2+y,z
1/2-x,1/2+y,1/2-z
1/2-x,1/2-y,-z
1/2+x,1/2-y,1/2+z
loop_
_atom_site_type_symbol
_atom_site_label
_atom_site_fract_x
_atom_site_fract_y
_atom_site_fract_z
Si Si1 0.851466 0.048177 0.018262
Si Si2 0.500000 0.512627 0.750000
Si Si3 0.915495 0.289843 0.603919
Si Si4 0.864849 0.408496 0.492277
Si Si5 0.567796 0.302018 0.564109
Si Si6 0.000000 0.342018 0.750000
Si Si7 0.000000 0.554796 0.750000
O O1 0.717887 0.109736 0.136913
O O2 0.652375 0.995687 0.108340
O O3 0.000000 0.000000 0.000000
O O4 0.971391 0.057673 0.856511
O O5 0.721135 0.464890 0.629401
O O6 0.955936 0.356568 0.519356
O O7 0.972511 0.221856 0.517501
O O8 0.016836 0.299454 0.648087
O O9 0.654500 0.291040 0.760401
O O10 0.673035 0.374020 0.532841
O O11 0.065557 0.405653 0.304969
O O12 0.750000 0.250000 0.500000
#
# Coordination Sequence:
#
# PCOD9259668 Si02
#       7
#     8   4   8   8   8   4   4
#     4  10  22  41  62  90 129 167 217 262 314 396
#     4  10  18  36  63  93 117 161 208 268 326 368
#     4  11  23  40  61  88 134 167 218 263 316 393
#     4  10  18  35  62  96 125 156 209 275 328 368
#     4  10  21  37  64  93 119 168 214 275 320 370
#     4  11  26  44  60  93 133 188 208 259 338 384
#     4   9  22  32  61  98 118 153 210 263 332 372
#
# _framework density 25.193560000000002
#
# number of rings (size 3 to 8) (size 9 to 14) (size 15 to 20)
#    0.000    1.818    1.818    2.727    7.636    2.182 
#    0.000    7.273    0.000    0.000    0.000    0.000 
#    0.000    0.000    0.000    0.000    0.000    0.000 
#
# Total GULP energy -122575.094046 kJ/mol
# GULP energy per Si atom -5571.595184 kJ/mol
# Density = 2.513622 g / cm^3
# Si number density = 25.193560 Si / 1000 Ang^3
#
#
#
# Elastic Constant Matrix: (Units=GPa)
#
#
# Indices 1 2 3 4 5 6 
#
# 1 64.5970 -2.1596 24.5295 -0.0037 24.9922 0.0039
# 2 -2.1596 41.2441 23.6416 -0.0011 -1.4605 0.0046
# 3 24.5295 23.6416 177.4977 -0.0026 34.2537 0.0082
# 4 -0.0037 -0.0011 -0.0026 28.5115 0.0033 -14.3902
# 5 24.9922 -1.4605 34.2537 0.0033 42.2338 -0.0038
# 6 0.0039 0.0046 0.0082 -14.3902 -0.0038 -5.6424
#
#
#
# Elastic Compliance Matrix: (Units=1/GPa)
#
#
# Indices 1 2 3 4 5 6 
#
# 1 0.020170 0.001089 -0.000754 0.000006 -0.011286 0.000005
# 2 0.001089 0.027030 -0.004513 0.000003 0.003951 0.000006
# 3 -0.000754 -0.004513 0.007449 0.000003 -0.005751 0.000003
# 4 0.000006 0.000003 0.000003 0.015335 -0.000011 -0.039109
# 5 -0.011286 0.003951 -0.005751 -0.000011 0.035158 -0.000009
# 6 0.000005 0.000006 0.000003 -0.039109 -0.000009 -0.077488
#
#
# Mechanical properties :
#
#
# Convention : Reuss Voigt Hill
#
# Bulk Modulus (GPa) = 21.60207 41.70686 31.65447
# Shear Modulus (GPa) = 97.19801 28.84241 63.02021
#
# Velocity S-wave (km/s) = 6.21806 3.38721 5.00687
# Velocity P-wave (km/s) = 7.75535 5.64695 6.78356
#
# Compressibility (1/GPa) = 0.04629186
#
# Stress axis : x y z
#
# Youngs Moduli (GPa) = 49.57831 36.99623 134.24383
#
# Poissons Ratio (x) = -0.04029 0.10128
# Poissons Ratio (y) = -0.05399 0.60585
# Poissons Ratio (z) = 0.03740 0.16697
#
# Static dielectric constant tensor:
#      x y z
#    x 1.994400 -0.000690 -0.203050 
#    y -0.000690 -8.797030 -0.000030 
#    z -0.203050 -0.000030 1.843420 
# 
# From -- ./inp_files/91163.got.cif
#   From: 2010.05.17/outbox.cif.g08.bks.cpg/sg15_46_cif.got.tgz:91163.got - 2010.06.03 18:47:42.
