data_PCOD9259906
_publ_section_title
;
Structure prediction by ZEFSAII (Michael W. Deem and Ramdas Pophale) SiO2 
 PCOD9259906
Probable space group: C 2/C
;
_chemical_formula_sum "Si O2"
_cell_formula_units_Z 56
_cell_length_a 9.034254
_cell_length_b 15.374655
_cell_length_c 26.309273
_cell_angle_alpha 90.000000
_cell_angle_beta 45.213324
_cell_angle_gamma 90.000000
_cell_volume 2593.596957
_symmetry_space_group_name_H-M "C 2/C"
_symmetry_group_IT_number 15
_symmetry_cell_setting 'monoclinic'
loop_
_space_group_symop_operation_xyz
x,y,z
-x,y,1/2-z
-x,-y,-z
x,-y,1/2+z
1/2+x,1/2+y,z
1/2-x,1/2+y,1/2-z
1/2-x,1/2-y,-z
1/2+x,1/2-y,1/2+z
loop_
_atom_site_type_symbol
_atom_site_label
_atom_site_fract_x
_atom_site_fract_y
_atom_site_fract_z
Si Si1 0.342175 0.057982 0.687757
Si Si2 0.000000 0.372803 0.250000
Si Si3 0.500000 0.302559 0.250000
Si Si4 0.888754 0.045156 0.097824
Si Si5 0.891697 0.904619 0.711857
Si Si6 0.722065 0.613696 0.944616
Si Si7 0.974063 0.677000 0.340625
Si Si8 0.770073 0.732129 0.131549
O O1 0.447809 0.065123 0.716867
O O2 0.184226 0.136873 0.724739
O O3 0.540737 0.078823 0.604161
O O4 0.200861 0.971771 0.723174
O O5 0.819042 0.306976 0.309677
O O6 0.398111 0.254352 0.323234
O O7 0.906351 0.046208 0.154427
O O8 0.683696 0.097651 0.128666
O O9 0.879148 0.950636 0.073810
O O10 0.083718 0.097744 0.027454
O O11 0.694523 0.840331 0.758805
O O12 0.096286 0.844421 0.669603
O O13 0.711290 0.712131 0.925037
O O14 0.029247 0.696679 0.386080
#
# Coordination Sequence:
#
# PCOD9259906 Si02
#       8
#     8   4   4   8   8   8   8   8
#     4  11  23  38  65  93 129 162 214 265 314 375
#     4  10  18  36  58  88 122 168 194 258 318 372
#     4  12  24  38  62 102 126 160 218 272 320 370
#     4  11  24  41  69  90 131 172 222 253 319 396
#     4  12  22  39  65 101 121 166 216 275 318 370
#     4  10  24  45  64  92 130 182 207 255 329 392
#     4  12  22  40  61  99 125 161 219 277 310 378
#     4  11  22  39  64  92 132 161 210 265 332 367
#
# _framework density 21.591633999999999
#
# number of rings (size 3 to 8) (size 9 to 14) (size 15 to 20)
#    0.000    0.857    5.714    2.571    2.000    1.143 
#    0.000    0.000    0.000    2.571    0.000    0.000 
#    0.000    0.000    0.000    0.000    0.000    0.000 
#
# Total GULP energy -156115.805899 kJ/mol
# GULP energy per Si atom -5575.564496 kJ/mol
# Density = 2.154249 g / cm^3
# Si number density = 21.591634 Si / 1000 Ang^3
#
#
#
# Elastic Constant Matrix: (Units=GPa)
#
#
# Indices 1 2 3 4 5 6 
#
# 1 47.5951 18.2909 26.9886 0.0001 -16.6191 0.0001
# 2 18.2909 90.2435 8.9303 -0.0002 -5.5329 0.0003
# 3 26.9886 8.9303 62.4794 -0.0001 1.9449 -0.0005
# 4 0.0001 -0.0002 -0.0001 23.8982 -0.0003 -4.6679
# 5 -16.6191 -5.5329 1.9449 -0.0003 18.5199 0.0001
# 6 0.0001 0.0003 -0.0005 -4.6679 0.0001 20.4733
#
#
#
# Elastic Compliance Matrix: (Units=1/GPa)
#
#
# Indices 1 2 3 4 5 6 
#
# 1 0.054033 -0.005542 -0.024084 0.000000 0.049361 -0.000001
# 2 -0.005542 0.012044 0.000717 0.000000 -0.001450 0.000000
# 3 -0.024084 0.000717 0.027061 0.000000 -0.024240 0.000001
# 4 0.000000 0.000000 0.000000 0.043795 0.000001 0.009985
# 5 0.049361 -0.001450 -0.024240 0.000001 0.100403 -0.000001
# 6 -0.000001 0.000000 0.000001 0.009985 -0.000001 0.051121
#
#
# Mechanical properties :
#
#
# Convention : Reuss Voigt Hill
#
# Bulk Modulus (GPa) = 28.31224 34.30417 31.30821
# Shear Modulus (GPa) = 13.96462 22.31882 18.14172
#
# Velocity S-wave (km/s) = 2.54591 3.21858 2.90180
# Velocity P-wave (km/s) = 4.66725 5.45294 5.07532
#
# Compressibility (1/GPa) = 0.03532041
#
# Stress axis : x y z
#
# Youngs Moduli (GPa) = 18.50725 83.02566 36.95382
#
# Poissons Ratio (x) = 0.46012 0.89001
# Poissons Ratio (y) = 0.10257 -0.02651
# Poissons Ratio (z) = 0.44574 -0.05957
#
# Static dielectric constant tensor:
#      x y z
#    x 1.828540 0.000000 -0.016790 
#    y 0.000000 1.833590 0.000000 
#    z -0.016790 0.000000 1.810220 
# 
# From -- ./inp_files/308628.got.cif
#   From: 2010.05.17/outbox.cif.g08.bks.cpg/sg15_155_cif.got.tgz:308628.got - 2010.06.03 18:47:42.
