data_PCOD9259244
_publ_section_title
;
Structure prediction by ZEFSAII (Michael W. Deem and Ramdas Pophale) SiO2 
 PCOD9259244
Probable space group: C 2/C
;
_chemical_formula_sum "Si O2"
_cell_formula_units_Z 44
_cell_length_a 9.880509
_cell_length_b 18.024532
_cell_length_c 10.462361
_cell_angle_alpha 90.000000
_cell_angle_beta 87.511410
_cell_angle_gamma 90.000000
_cell_volume 1861.500833
_symmetry_space_group_name_H-M "C 2/C"
_symmetry_group_IT_number 15
_symmetry_cell_setting 'monoclinic'
loop_
_space_group_symop_operation_xyz
x,y,z
-x,y,1/2-z
-x,-y,-z
x,-y,1/2+z
1/2+x,1/2+y,z
1/2-x,1/2+y,1/2-z
1/2-x,1/2-y,-z
1/2+x,1/2-y,1/2+z
loop_
_atom_site_type_symbol
_atom_site_label
_atom_site_fract_x
_atom_site_fract_y
_atom_site_fract_z
Si Si1 0.867316 0.771132 0.843587
Si Si2 0.209170 0.308189 0.612469
Si Si3 0.454502 0.867217 0.491346
Si Si4 0.822093 0.069983 0.437375
Si Si5 0.210957 0.029362 0.332149
Si Si6 0.000000 0.539480 0.750000
O O1 0.741807 0.774795 0.750372
O O2 0.878196 0.847262 0.921316
O O3 0.000000 0.765871 0.750000
O O4 0.129528 0.699474 0.569059
O O5 0.250000 0.250000 0.500000
O O6 0.289614 0.386788 0.613298
O O7 0.057366 0.332963 0.587513
O O8 0.342339 0.920545 0.555482
O O9 0.532558 0.908464 0.372008
O O10 0.854910 0.029206 0.304524
O O11 0.853394 0.026031 0.563624
O O12 0.367939 0.004855 0.302355
#
# Coordination Sequence:
#
# PCOD9259244 Si02
#       6
#     8   8   8   8   8   4
#     4  11  22  40  61  92 127 170 208 253 314 377
#     4  11  21  36  61  87 121 164 205 253 313 370
#     4  11  20  38  64  93 126 162 205 262 321 373
#     4  10  23  39  64  93 129 162 213 260 319 375
#     4  10  21  37  59  96 126 163 206 261 319 379
#     4  10  18  34  62  94 126 154 198 268 334 362
#
# _framework density 23.636842999999999
#
# number of rings (size 3 to 8) (size 9 to 14) (size 15 to 20)
#    0.000    1.455    2.727    2.727    0.000    6.545 
#    0.000    3.636    0.000    0.000    0.000    0.000 
#    0.000    0.000    0.000    0.000    0.000    0.000 
#
# Total GULP energy -123123.777747 kJ/mol
# GULP energy per Si atom -5596.535352 kJ/mol
# Density = 2.358304 g / cm^3
# Si number density = 23.636843 Si / 1000 Ang^3
#
#
#
# Elastic Constant Matrix: (Units=GPa)
#
#
# Indices 1 2 3 4 5 6 
#
# 1 81.9497 7.6457 39.6100 0.0000 0.5236 0.0000
# 2 7.6457 113.9754 87.5652 0.0000 16.6341 0.0000
# 3 39.6100 87.5652 158.6935 0.0000 13.8948 0.0000
# 4 0.0000 0.0000 0.0000 56.6438 0.0000 -1.2689
# 5 0.5236 16.6341 13.8948 0.0000 36.8927 0.0000
# 6 0.0000 0.0000 0.0000 -1.2689 0.0000 26.3261
#
#
#
# Elastic Compliance Matrix: (Units=1/GPa)
#
#
# Indices 1 2 3 4 5 6 
#
# 1 0.014502 0.003081 -0.005357 0.000000 0.000423 0.000000
# 2 0.003081 0.016426 -0.009494 0.000000 -0.003874 0.000000
# 3 -0.005357 -0.009494 0.012922 0.000000 -0.000510 0.000000
# 4 0.000000 0.000000 0.000000 0.017673 0.000000 0.000852
# 5 0.000423 -0.003874 -0.000510 0.000000 0.029039 0.000000
# 6 0.000000 0.000000 0.000000 0.000852 0.000000 0.038026
#
#
# Mechanical properties :
#
#
# Convention : Reuss Voigt Hill
#
# Bulk Modulus (GPa) = 49.23468 69.36225 59.29847
# Shear Modulus (GPa) = 31.46700 38.62570 35.04635
#
# Velocity S-wave (km/s) = 3.65261 4.04682 3.85476
# Velocity P-wave (km/s) = 6.21801 7.15852 6.70478
#
# Compressibility (1/GPa) = 0.02031089
#
# Stress axis : x y z
#
# Youngs Moduli (GPa) = 68.95816 60.87768 77.38975
#
# Poissons Ratio (x) = -0.18756 0.41455
# Poissons Ratio (y) = -0.21245 0.73471
# Poissons Ratio (z) = 0.36938 0.57795
#
# Static dielectric constant tensor:
#      x y z
#    x 1.929370 0.000000 -0.020680 
#    y 0.000000 1.869000 0.000000 
#    z -0.020680 0.000000 1.894870 
# 
# From -- ./inp_files/87166.got.cif
#   From: 2010.05.17/outbox.cif.g08.bks.cpg/sg15_44_cif.got.tgz:87166.got - 2010.06.03 18:47:42.
