data_PCOD9259596
_publ_section_title
;
Structure prediction by ZEFSAII (Michael W. Deem and Ramdas Pophale) SiO2 
 PCOD9259596
Probable space group: C 2/C
;
_chemical_formula_sum "Si O2"
_cell_formula_units_Z 56
_cell_length_a 7.070113
_cell_length_b 18.261696
_cell_length_c 18.932684
_cell_angle_alpha 90.000000
_cell_angle_beta 88.900278
_cell_angle_gamma 90.000000
_cell_volume 2443.991258
_symmetry_space_group_name_H-M "C 2/C"
_symmetry_group_IT_number 15
_symmetry_cell_setting 'monoclinic'
loop_
_space_group_symop_operation_xyz
x,y,z
-x,y,1/2-z
-x,-y,-z
x,-y,1/2+z
1/2+x,1/2+y,z
1/2-x,1/2+y,1/2-z
1/2-x,1/2-y,-z
1/2+x,1/2-y,1/2+z
loop_
_atom_site_type_symbol
_atom_site_label
_atom_site_fract_x
_atom_site_fract_y
_atom_site_fract_z
Si Si1 0.821944 0.464157 0.654404
Si Si2 0.043248 0.271402 0.466115
Si Si3 0.757011 0.097502 0.938839
Si Si4 0.168221 0.863370 0.900687
Si Si5 0.590450 0.195387 0.384127
Si Si6 0.424984 0.349828 0.170614
Si Si7 0.758808 0.995168 0.689075
O O1 0.767770 0.516476 0.590259
O O2 0.720413 0.488899 0.726886
O O3 0.806340 0.378898 0.637686
O O4 0.043406 0.478143 0.669134
O O5 0.250000 0.250000 0.500000
O O6 0.075528 0.349626 0.429704
O O7 0.020607 0.202645 0.414938
O O8 0.907981 0.285413 0.532851
O O9 0.916128 0.136597 0.890344
O O10 0.798325 0.100171 0.022067
O O11 0.365077 0.824839 0.873087
O O12 0.123594 0.930694 0.849823
O O13 0.651312 0.268582 0.343535
O O14 0.500000 0.349603 0.250000
O O15 0.299703 0.422372 0.165778
#
# Coordination Sequence:
#
# PCOD9259596 Si02
#       7
#     8   8   8   8   8   8   8
#     4  10  21  38  54  81 115 146 177 229 273 325
#     4   8  14  30  54  86 104 132 189 225 253 313
#     4  10  18  35  61  81 110 142 188 221 269 323
#     4   9  17  34  56  84 109 145 181 230 266 321
#     4   9  18  32  57  79 105 139 192 218 256 327
#     4  12  21  34  58  85 103 144 185 232 266 326
#     4  10  23  34  53  81 117 138 182 224 283 319
#
# _framework density 22.913340000000002
#
# number of rings (size 3 to 8) (size 9 to 14) (size 15 to 20)
#    0.000    2.571    5.714    0.000    4.000    5.714 
#    0.000    0.000    3.143    4.286    0.000    0.000 
#    0.000    0.000    0.000    0.000    0.000    0.000 
#
# Total GULP energy -156364.513096 kJ/mol
# GULP energy per Si atom -5584.446896 kJ/mol
# Density = 2.286119 g / cm^3
# Si number density = 22.913340 Si / 1000 Ang^3
#
#
#
# Elastic Constant Matrix: (Units=GPa)
#
#
# Indices 1 2 3 4 5 6 
#
# 1 43.2243 32.3628 18.3821 0.0000 1.7086 0.0000
# 2 32.3628 229.2340 58.0330 0.0000 -6.5929 0.0000
# 3 18.3821 58.0330 75.5581 0.0000 -17.8042 0.0000
# 4 0.0000 0.0000 0.0000 33.4624 0.0000 -17.4638
# 5 1.7086 -6.5929 -17.8042 0.0000 17.1266 0.0000
# 6 0.0000 0.0000 0.0000 -17.4638 0.0000 30.4819
#
#
#
# Elastic Compliance Matrix: (Units=1/GPa)
#
#
# Indices 1 2 3 4 5 6 
#
# 1 0.028821 -0.002381 -0.008048 0.000000 -0.012158 0.000000
# 2 -0.002381 0.005728 -0.004297 0.000000 -0.002025 0.000000
# 3 -0.008048 -0.004297 0.024227 0.000000 0.024335 0.000000
# 4 0.000000 0.000000 0.000000 0.042631 0.000000 0.024424
# 5 -0.012158 -0.002025 0.024335 0.000000 0.084119 0.000000
# 6 0.000000 0.000000 0.000000 0.024424 0.000000 0.046800
#
#
# Mechanical properties :
#
#
# Convention : Reuss Voigt Hill
#
# Bulk Modulus (GPa) = 34.10159 62.84135 48.47147
# Shear Modulus (GPa) = 18.41254 32.16344 25.28799
#
# Velocity S-wave (km/s) = 2.83781 3.75066 3.32571
# Velocity P-wave (km/s) = 5.06485 6.80013 5.99560
#
# Compressibility (1/GPa) = 0.02932415
#
# Stress axis : x y z
#
# Youngs Moduli (GPa) = 34.69682 174.57409 41.27550
#
# Poissons Ratio (x) = 0.41570 0.33217
# Poissons Ratio (y) = 0.08262 0.17738
# Poissons Ratio (z) = 0.27923 0.75021
#
# Static dielectric constant tensor:
#      x y z
#    x 1.973450 0.000000 0.006240 
#    y 0.000000 1.876810 0.000000 
#    z 0.006240 0.000000 1.830720 
# 
# From -- ./inp_files/232129.got.cif
#   From: 2010.05.17/outbox.cif.g08.bks.cpg/sg15_117_cif.got.tgz:232129.got - 2010.06.03 18:47:42.
