data_PCOD9259786
_publ_section_title
;
Structure prediction by ZEFSAII (Michael W. Deem and Ramdas Pophale) SiO2 
 PCOD9259786
Probable space group: C 2/C
;
_chemical_formula_sum "Si O2"
_cell_formula_units_Z 56
_cell_length_a 16.037135
_cell_length_b 22.855388
_cell_length_c 16.115784
_cell_angle_alpha 90.000000
_cell_angle_beta 152.676649
_cell_angle_gamma 90.000000
_cell_volume 2711.381025
_symmetry_space_group_name_H-M "C 2/C"
_symmetry_group_IT_number 15
_symmetry_cell_setting 'monoclinic'
loop_
_space_group_symop_operation_xyz
x,y,z
-x,y,1/2-z
-x,-y,-z
x,-y,1/2+z
1/2+x,1/2+y,z
1/2-x,1/2+y,1/2-z
1/2-x,1/2-y,-z
1/2+x,1/2-y,1/2+z
loop_
_atom_site_type_symbol
_atom_site_label
_atom_site_fract_x
_atom_site_fract_y
_atom_site_fract_z
Si Si1 0.398164 0.126781 0.436499
Si Si2 0.469353 0.675217 0.316971
Si Si3 0.882207 0.313137 0.225432
Si Si4 0.145830 0.003798 0.005965
Si Si5 0.351305 0.097929 0.976705
Si Si6 0.500000 0.399107 0.250000
Si Si7 0.000000 0.488454 0.750000
Si Si8 0.727329 0.487238 0.771126
O O1 0.193875 0.148862 0.272529
O O2 0.527127 0.157253 0.615782
O O3 0.492345 0.134681 0.430140
O O4 0.382689 0.056866 0.436061
O O5 0.500000 0.651580 0.250000
O O6 0.669414 0.673135 0.532807
O O7 0.408867 0.743090 0.253123
O O8 0.000000 0.332487 0.250000
O O9 0.322168 0.976190 0.119508
O O10 0.195834 0.018764 0.145089
O O11 0.092468 0.059315 0.901838
O O12 0.959366 0.968907 0.848045
O O13 0.176682 0.129922 0.863391
O O14 0.266687 0.053208 0.833689
O O15 0.443810 0.054789 0.125438
#
# Coordination Sequence:
#
# PCOD9259786 Si02
#       8
#     8   8   8   8   8   4   4   8
#     4  12  23  37  62  93 124 159 209 252 310 366
#     4  11  21  42  65  90 126 163 203 248 311 380
#     4  11  21  42  67  88 126 167 197 252 315 373
#     4   9  18  34  57  73 113 162 203 250 291 348
#     4  10  21  39  56  83 119 164 206 254 296 365
#     4   8  18  36  58  78 109 162 217 232 300 364
#     4  10  18  36  56  74 109 168 213 234 304 356
#     4  10  21  38  53  82 125 159 199 260 306 348
#
# _framework density 20.653680999999999
#
# number of rings (size 3 to 8) (size 9 to 14) (size 15 to 20)
#    0.000    1.714    4.286    1.286    0.000    3.429 
#    9.000    1.429    0.000    0.000    0.000    3.000 
#    0.000    0.000    0.000    0.000    0.000    0.000 
#
# Total GULP energy -156180.964723 kJ/mol
# GULP energy per Si atom -5577.891597 kJ/mol
# Density = 2.060667 g / cm^3
# Si number density = 20.653681 Si / 1000 Ang^3
#
#
#
# Elastic Constant Matrix: (Units=GPa)
#
#
# Indices 1 2 3 4 5 6 
#
# 1 168.6066 23.5074 61.8573 0.0000 47.2198 0.0000
# 2 23.5074 22.4523 4.7850 0.0000 7.4810 0.0000
# 3 61.8573 4.7850 103.7947 0.0000 37.1119 0.0000
# 4 0.0000 0.0000 0.0000 5.1932 0.0000 3.9194
# 5 47.2198 7.4810 37.1119 0.0000 62.7387 0.0000
# 6 0.0000 0.0000 0.0000 3.9194 0.0000 22.0040
#
#
#
# Elastic Compliance Matrix: (Units=1/GPa)
#
#
# Indices 1 2 3 4 5 6 
#
# 1 0.009576 -0.007874 -0.003935 0.000000 -0.003941 0.000000
# 2 -0.007874 0.052860 0.003032 0.000000 -0.002170 0.000000
# 3 -0.003935 0.003032 0.013836 0.000000 -0.005585 0.000000
# 4 0.000000 0.000000 0.000000 0.222467 0.000000 -0.039626
# 5 -0.003941 -0.002170 -0.005585 0.000000 0.022467 0.000000
# 6 0.000000 0.000000 0.000000 -0.039626 0.000000 0.052505
#
#
# Mechanical properties :
#
#
# Convention : Reuss Voigt Hill
#
# Bulk Modulus (GPa) = 17.03064 52.79478 34.91271
# Shear Modulus (GPa) = 12.17022 31.63410 21.90216
#
# Velocity S-wave (km/s) = 2.43008 3.91787 3.25999
# Velocity P-wave (km/s) = 4.01715 6.78850 5.57768
#
# Compressibility (1/GPa) = 0.05871771
#
# Stress axis : x y z
#
# Youngs Moduli (GPa) = 104.42657 18.91782 72.27274
#
# Poissons Ratio (x) = 0.14897 0.28439
# Poissons Ratio (y) = 0.82230 -0.21912
# Poissons Ratio (z) = 0.41091 -0.05736
#
# Static dielectric constant tensor:
#      x y z
#    x 1.807960 0.000000 0.039360 
#    y 0.000000 1.716710 0.000000 
#    z 0.039360 0.000000 1.766200 
# 
# From -- ./inp_files/157267.got.cif
#   From: 2010.05.17/outbox.cif.g08.bks.cpg/sg15_79_cif.got.tgz:157267.got - 2010.06.03 18:47:42.
