data_PCOD9259827
_publ_section_title
;
Structure prediction by ZEFSAII (Michael W. Deem and Ramdas Pophale) SiO2 
 PCOD9259827
Probable space group: C 2/C
;
_chemical_formula_sum "Si O2"
_cell_formula_units_Z 44
_cell_length_a 15.804494
_cell_length_b 23.832593
_cell_length_c 5.277484
_cell_angle_alpha 90.000000
_cell_angle_beta 118.049764
_cell_angle_gamma 90.000000
_cell_volume 1754.336790
_symmetry_space_group_name_H-M "C 2/C"
_symmetry_group_IT_number 15
_symmetry_cell_setting 'monoclinic'
loop_
_space_group_symop_operation_xyz
x,y,z
-x,y,1/2-z
-x,-y,-z
x,-y,1/2+z
1/2+x,1/2+y,z
1/2-x,1/2+y,1/2-z
1/2-x,1/2-y,-z
1/2+x,1/2-y,1/2+z
loop_
_atom_site_type_symbol
_atom_site_label
_atom_site_fract_x
_atom_site_fract_y
_atom_site_fract_z
Si Si1 0.383423 0.156573 0.402868
Si Si2 0.598215 0.271668 0.180113
Si Si3 0.380867 0.965017 0.928008
Si Si4 0.000000 0.872149 0.250000
Si Si5 0.848864 0.035600 0.380780
Si Si6 0.800238 0.701961 0.796777
O O1 0.449099 0.211693 0.450291
O O2 0.427589 0.095577 0.451746
O O3 0.334659 0.167592 0.604310
O O4 0.311653 0.162600 0.062671
O O5 0.540095 0.328128 0.101153
O O6 0.690304 0.279217 0.131244
O O7 0.641436 0.256671 0.520161
O O8 0.401658 0.006333 0.725324
O O9 0.265358 0.953238 0.766277
O O10 0.085162 0.910869 0.473084
O O11 0.869918 0.991529 0.637166
#
# Coordination Sequence:
#
# PCOD9259827 Si02
#       6
#     8   8   8   4   8   8
#     4  10  18  36  57  80 116 141 183 255 288 329
#     4   9  22  34  57  85 111 148 197 234 298 338
#     4  10  20  34  59  87 110 150 201 235 286 338
#     4  12  22  42  58  88 116 168 196 232 278 364
#     4  10  23  42  54  79 119 163 198 234 268 327
#     4   9  19  36  56  77 113 144 191 238 298 325
#
# _framework density 25.080704000000001
#
# number of rings (size 3 to 8) (size 9 to 14) (size 15 to 20)
#    1.091    1.091    0.000    3.273    0.000    2.909 
#    6.545    0.000    0.000    0.000    0.000    1.273 
#    0.000    0.000    0.000    0.000    0.000    0.000 
#
# Total GULP energy -122986.879128 kJ/mol
# GULP energy per Si atom -5590.312688 kJ/mol
# Density = 2.502362 g / cm^3
# Si number density = 25.080704 Si / 1000 Ang^3
#
#
#
# Elastic Constant Matrix: (Units=GPa)
#
#
# Indices 1 2 3 4 5 6 
#
# 1 75.4205 19.4180 21.3958 0.0000 2.3061 0.0000
# 2 19.4180 154.7199 38.6285 0.0000 18.0699 0.0000
# 3 21.3958 38.6285 148.6208 0.0000 -20.4832 0.0000
# 4 0.0000 0.0000 0.0000 4.1846 0.0000 -10.9951
# 5 2.3061 18.0699 -20.4832 0.0000 37.7431 0.0000
# 6 0.0000 0.0000 0.0000 -10.9951 0.0000 36.8875
#
#
#
# Elastic Compliance Matrix: (Units=1/GPa)
#
#
# Indices 1 2 3 4 5 6 
#
# 1 0.014140 -0.001133 -0.001930 0.000000 -0.001369 0.000000
# 2 -0.001133 0.007842 -0.002576 0.000000 -0.005083 0.000000
# 3 -0.001930 -0.002576 0.008498 0.000000 0.005963 0.000000
# 4 0.000000 0.000000 0.000000 1.102200 0.000000 0.328535
# 5 -0.001369 -0.005083 0.005963 0.000000 0.032248 0.000000
# 6 0.000000 0.000000 0.000000 0.328535 0.000000 0.125037
#
#
# Mechanical properties :
#
#
# Convention : Reuss Voigt Hill
#
# Bulk Modulus (GPa) = 52.07577 59.73843 55.90710
# Shear Modulus (GPa) = 3.82368 35.71764 19.77066
#
# Velocity S-wave (km/s) = 1.23607 3.77783 2.81068
# Velocity P-wave (km/s) = 4.77970 6.54977 5.73346
#
# Compressibility (1/GPa) = 0.01920279
#
# Stress axis : x y z
#
# Youngs Moduli (GPa) = 70.72138 127.51447 117.67990
#
# Poissons Ratio (x) = 0.14447 0.22710
# Poissons Ratio (y) = 0.08012 0.30312
# Poissons Ratio (z) = 0.13648 0.32845
#
# Static dielectric constant tensor:
#      x y z
#    x 2.095700 0.000000 -0.027210 
#    y 0.000000 1.969750 0.000000 
#    z -0.027210 0.000000 2.042300 
# 
# From -- ./inp_files/13280.got.cif
#   From: 2010.05.17/outbox.cif.g08.bks.cpg/sg15_7_cif.got.tgz:13280.got - 2010.06.03 18:47:42.
