data_PCOD9259952
_publ_section_title
;
Structure prediction by ZEFSAII (Michael W. Deem and Ramdas Pophale) SiO2 
 PCOD9259952
Probable space group: C 2/C
;
_chemical_formula_sum "Si O2"
_cell_formula_units_Z 64
_cell_length_a 29.705813
_cell_length_b 11.986012
_cell_length_c 13.766481
_cell_angle_alpha 90.000000
_cell_angle_beta 139.529077
_cell_angle_gamma 90.000000
_cell_volume 3181.451588
_symmetry_space_group_name_H-M "C 2/C"
_symmetry_group_IT_number 15
_symmetry_cell_setting 'monoclinic'
loop_
_space_group_symop_operation_xyz
x,y,z
-x,y,1/2-z
-x,-y,-z
x,-y,1/2+z
1/2+x,1/2+y,z
1/2-x,1/2+y,1/2-z
1/2-x,1/2-y,-z
1/2+x,1/2-y,1/2+z
loop_
_atom_site_type_symbol
_atom_site_label
_atom_site_fract_x
_atom_site_fract_y
_atom_site_fract_z
Si Si1 0.675071 0.123890 0.797155
Si Si2 0.599871 0.980290 0.815658
Si Si3 0.451372 0.078944 0.052886
Si Si4 0.181507 0.290232 0.831840
Si Si5 0.165437 0.878461 0.726493
Si Si6 0.517201 0.339052 0.388586
Si Si7 0.271241 0.555362 0.365286
Si Si8 0.623629 0.573106 0.789516
O O1 0.608391 0.083539 0.624833
O O2 0.684903 0.255453 0.796817
O O3 0.651595 0.079944 0.865799
O O4 0.740153 0.058752 0.857726
O O5 0.586744 0.953650 0.908134
O O6 0.519629 0.997035 0.649349
O O7 0.635774 0.872843 0.823229
O O8 0.484344 0.203806 0.108567
O O9 0.210022 0.356879 0.787697
O O10 0.143708 0.175273 0.751963
O O11 0.250000 0.250000 0.000000
O O12 0.091987 0.867535 0.551363
O O13 0.213245 0.934435 0.722610
O O14 0.153384 0.960633 0.795376
O O15 0.500000 0.364920 0.250000
O O16 0.458339 0.412053 0.343076
O O17 0.338144 0.587685 0.542638
#
# Coordination Sequence:
#
# PCOD9259952 Si02
#       8
#     8   8   8   8   8   8   8   8
#     4  10  24  38  56  90 126 152 205 242 297 373
#     4  10  18  36  59  91 114 156 195 253 305 338
#     4  10  19  33  66  88 115 155 197 254 301 341
#     4   9  19  32  58  89 115 144 198 251 292 341
#     4  11  25  38  63  88 119 166 193 247 307 357
#     4  11  18  37  64  92 117 143 204 257 294 351
#     4  10  23  39  59  87 119 160 198 247 296 356
#     4  11  21  39  63  88 119 154 200 252 299 359
#
# _framework density 20.116603000000001
#
# number of rings (size 3 to 8) (size 9 to 14) (size 15 to 20)
#    0.000    1.750    3.750    0.750    7.000    2.500 
#    0.000    0.000    2.750    0.000    0.000    0.000 
#    0.000    0.000    0.000    0.000    0.000    0.000 
#
# Total GULP energy -178272.915279 kJ/mol
# GULP energy per Si atom -5571.028602 kJ/mol
# Density = 2.007082 g / cm^3
# Si number density = 20.116603 Si / 1000 Ang^3
#
#
#
# Elastic Constant Matrix: (Units=GPa)
#
#
# Indices 1 2 3 4 5 6 
#
# 1 116.9660 47.7026 16.3384 0.0000 13.3052 0.0000
# 2 47.7026 102.9693 3.3915 0.0000 3.8671 0.0000
# 3 16.3384 3.3915 30.2681 0.0000 -0.8345 0.0000
# 4 0.0000 0.0000 0.0000 -6.4145 0.0000 -16.1697
# 5 13.3052 3.8671 -0.8345 0.0000 26.4554 0.0000
# 6 0.0000 0.0000 0.0000 -16.1697 0.0000 7.4929
#
#
#
# Elastic Compliance Matrix: (Units=1/GPa)
#
#
# Indices 1 2 3 4 5 6 
#
# 1 0.012170 -0.005227 -0.006136 0.000000 -0.005550 0.000000
# 2 -0.005227 0.012050 0.001497 0.000000 0.000915 0.000000
# 3 -0.006136 0.001497 0.036293 0.000000 0.004012 0.000000
# 4 0.000000 0.000000 0.000000 -0.024208 0.000000 -0.052241
# 5 -0.005550 0.000915 0.004012 0.000000 0.040584 0.000000
# 6 0.000000 0.000000 0.000000 -0.052241 0.000000 0.020724
#
#
# Mechanical properties :
#
#
# Convention : Reuss Voigt Hill
#
# Bulk Modulus (GPa) = 24.52256 42.78538 33.65397
# Shear Modulus (GPa) = 38.18552 17.69148 27.93850
#
# Velocity S-wave (km/s) = 4.36157 2.96876 3.73074
# Velocity P-wave (km/s) = 6.13034 5.75033 5.94337
#
# Compressibility (1/GPa) = 0.04077877
#
# Stress axis : x y z
#
# Youngs Moduli (GPa) = 82.16993 82.98987 27.55318
#
# Poissons Ratio (x) = 0.43382 0.16908
# Poissons Ratio (y) = 0.42953 -0.04124
# Poissons Ratio (z) = 0.50423 -0.12422
#
# Static dielectric constant tensor:
#      x y z
#    x 1.576790 0.000000 -0.011590 
#    y 0.000000 1.724290 0.000000 
#    z -0.011590 0.000000 1.749830 
# 
# From -- ./inp_files/181776.got.cif
#   From: 2010.05.17/outbox.cif.g08.bks.cpg/sg15_91_cif.got.tgz:181776.got - 2010.06.03 18:47:42.
