data_PCOD9259732
_publ_section_title
;
Structure prediction by ZEFSAII (Michael W. Deem and Ramdas Pophale) SiO2 
 PCOD9259732
Probable space group: C 2/C
;
_chemical_formula_sum "Si O2"
_cell_formula_units_Z 64
_cell_length_a 12.597358
_cell_length_b 10.282601
_cell_length_c 30.510014
_cell_angle_alpha 90.000000
_cell_angle_beta 142.121113
_cell_angle_gamma 90.000000
_cell_volume 2426.550109
_symmetry_space_group_name_H-M "C 2/C"
_symmetry_group_IT_number 15
_symmetry_cell_setting 'monoclinic'
loop_
_space_group_symop_operation_xyz
x,y,z
-x,y,1/2-z
-x,-y,-z
x,-y,1/2+z
1/2+x,1/2+y,z
1/2-x,1/2+y,1/2-z
1/2-x,1/2-y,-z
1/2+x,1/2-y,1/2+z
loop_
_atom_site_type_symbol
_atom_site_label
_atom_site_fract_x
_atom_site_fract_y
_atom_site_fract_z
Si Si1 0.850689 0.500540 0.718950
Si Si2 0.358053 0.776026 0.991292
Si Si3 0.335680 0.342901 0.768895
Si Si4 0.029929 0.965657 0.559836
Si Si5 0.380719 0.540104 0.673463
Si Si6 0.440261 0.905114 0.883593
Si Si7 0.553803 0.128978 0.856409
Si Si8 0.243903 0.564284 0.536985
O O1 0.747126 0.448989 0.726635
O O2 0.708743 0.516841 0.636149
O O3 0.976559 0.604909 0.783225
O O4 0.000000 0.404364 0.750000
O O5 0.354707 0.928384 0.982890
O O6 0.236031 0.701450 0.917108
O O7 0.250000 0.750000 0.000000
O O8 0.527249 0.692335 0.055612
O O9 0.499764 0.414436 0.800525
O O10 0.182387 0.309116 0.684659
O O11 0.408724 0.231991 0.824229
O O12 0.885488 0.021720 0.546508
O O13 0.000000 0.000000 0.500000
O O14 0.500000 0.604880 0.750000
O O15 0.202699 0.489912 0.637119
O O16 0.334473 0.607874 0.611737
O O17 0.541644 0.002147 0.882949
O O18 0.589985 0.851584 0.964549
#
# Coordination Sequence:
#
# PCOD9259732 Si02
#       8
#     8   8   8   8   8   8   8   8
#     4  11  24  38  63  92 124 168 209 258 328 373
#     4  10  18  35  67  93 119 159 221 263 296 367
#     4  10  21  41  63  91 132 158 213 269 308 369
#     4  11  22  38  60  92 130 160 208 265 318 374
#     4  10  20  38  61  94 122 161 205 260 315 362
#     4  10  22  34  64  97 124 165 208 260 322 375
#     4  11  20  40  65  97 123 167 216 263 307 374
#     4  11  20  39  67  91 127 165 213 266 310 373
#
# _framework density 26.374894000000001
#
# number of rings (size 3 to 8) (size 9 to 14) (size 15 to 20)
#    0.000    1.500    5.000    1.875    1.750    1.500 
#    4.500    3.125    0.000    0.750    0.000    0.000 
#    0.000    0.000    0.000    0.000    0.000    0.000 
#
# Total GULP energy -178688.268323 kJ/mol
# GULP energy per Si atom -5584.008385 kJ/mol
# Density = 2.631486 g / cm^3
# Si number density = 26.374894 Si / 1000 Ang^3
#
#
#
# Elastic Constant Matrix: (Units=GPa)
#
#
# Indices 1 2 3 4 5 6 
#
# 1 98.0389 -4.9837 48.8171 0.0000 -7.7623 0.0000
# 2 -4.9837 42.6192 20.8377 0.0000 3.6285 0.0000
# 3 48.8171 20.8377 253.9436 0.0000 -16.8881 0.0000
# 4 0.0000 0.0000 0.0000 25.9678 0.0000 12.6792
# 5 -7.7623 3.6285 -16.8881 0.0000 59.4892 0.0000
# 6 0.0000 0.0000 0.0000 12.6792 0.0000 2.0150
#
#
#
# Elastic Compliance Matrix: (Units=1/GPa)
#
#
# Indices 1 2 3 4 5 6 
#
# 1 0.011564 0.002457 -0.002379 0.000000 0.000684 0.000000
# 2 0.002457 0.025227 -0.002674 0.000000 -0.001977 0.000000
# 3 -0.002379 -0.002674 0.004693 0.000000 0.001185 0.000000
# 4 0.000000 0.000000 0.000000 -0.018582 0.000000 0.116927
# 5 0.000684 -0.001977 0.001185 0.000000 0.017356 0.000000
# 6 0.000000 0.000000 0.000000 0.116927 0.000000 -0.239475
#
#
# Mechanical properties :
#
#
# Convention : Reuss Voigt Hill
#
# Bulk Modulus (GPa) = 27.55406 58.21600 42.88503
# Shear Modulus (GPa) = -27.48328 39.48976 6.00324
#
# Velocity S-wave (km/s) = -3.23154 3.87363 1.51032
# Velocity P-wave (km/s) = 1.85851 6.49054 4.39733
#
# Compressibility (1/GPa) = 0.03629229
#
# Stress axis : x y z
#
# Youngs Moduli (GPa) = 86.47734 39.64067 213.06256
#
# Poissons Ratio (x) = -0.09741 0.50691
# Poissons Ratio (y) = -0.21250 0.56970
# Poissons Ratio (z) = 0.20574 0.10599
#
# Static dielectric constant tensor:
#      x y z
#    x 2.504000 0.000000 -0.048440 
#    y 0.000000 2.248070 0.000000 
#    z -0.048440 0.000000 2.236720 
# 
# From -- ./inp_files/311215.got.cif
#   From: 2010.05.17/outbox.cif.g08.bks.cpg/sg15_156_cif.got.tgz:311215.got - 2010.06.03 18:47:42.
