data_PCOD9259915
_publ_section_title
;
Structure prediction by ZEFSAII (Michael W. Deem and Ramdas Pophale) SiO2 
 PCOD9259915
Probable space group: C 2/C
;
_chemical_formula_sum "Si O2"
_cell_formula_units_Z 56
_cell_length_a 9.526812
_cell_length_b 17.806561
_cell_length_c 25.318938
_cell_angle_alpha 90.000000
_cell_angle_beta 43.817328
_cell_angle_gamma 90.000000
_cell_volume 2973.760545
_symmetry_space_group_name_H-M "C 2/C"
_symmetry_group_IT_number 15
_symmetry_cell_setting 'monoclinic'
loop_
_space_group_symop_operation_xyz
x,y,z
-x,y,1/2-z
-x,-y,-z
x,-y,1/2+z
1/2+x,1/2+y,z
1/2-x,1/2+y,1/2-z
1/2-x,1/2-y,-z
1/2+x,1/2-y,1/2+z
loop_
_atom_site_type_symbol
_atom_site_label
_atom_site_fract_x
_atom_site_fract_y
_atom_site_fract_z
Si Si1 0.193205 0.730980 0.955802
Si Si2 0.539471 0.379077 0.510266
Si Si3 0.691922 0.030588 0.765998
Si Si4 0.018905 0.150269 0.802989
Si Si5 0.267137 0.995562 0.128401
Si Si6 0.870468 0.603285 0.009624
Si Si7 0.283222 0.518023 0.622630
O O1 0.405807 0.704902 0.872817
O O2 0.093312 0.804905 0.958311
O O3 0.250000 0.750000 0.000000
O O4 0.026259 0.665293 0.990555
O O5 0.716420 0.369361 0.506061
O O6 0.398659 0.447613 0.567029
O O7 0.624593 0.407298 0.430073
O O8 0.753993 0.118858 0.753375
O O9 0.754652 0.989069 0.803187
O O10 0.792829 0.009442 0.683075
O O11 0.453454 0.019423 0.826283
O O12 0.000000 0.183460 0.750000
O O13 0.888555 0.072513 0.839946
O O14 0.255592 0.063163 0.089858
O O15 0.489102 0.959439 0.057239
#
# Coordination Sequence:
#
# PCOD9259915 Si02
#       7
#     8   8   8   8   8   8   8
#     4  11  24  38  59  85 120 164 206 246 302 367
#     4  11  22  40  58  89 125 159 201 252 303 362
#     4  10  18  36  58  91 114 148 198 251 302 353
#     4   9  19  37  59  83 113 156 194 245 299 359
#     4   9  18  33  63  86 116 148 203 246 300 356
#     4  10  20  36  59  89 119 159 197 252 301 358
#     4  10  22  34  63  88 119 154 199 253 305 354
#
# _framework density 18.831374
#
# number of rings (size 3 to 8) (size 9 to 14) (size 15 to 20)
#    0.000    2.000    1.429    2.143    2.000    2.286 
#    2.571    0.000    0.000    0.000    7.429    0.000 
#    0.000    0.000    0.000    0.000    0.000    0.000 
#
# Total GULP energy -155995.905898 kJ/mol
# GULP energy per Si atom -5571.282354 kJ/mol
# Density = 1.878851 g / cm^3
# Si number density = 18.831374 Si / 1000 Ang^3
#
#
#
# Elastic Constant Matrix: (Units=GPa)
#
#
# Indices 1 2 3 4 5 6 
#
# 1 97.6918 16.4198 26.7170 -0.0013 3.9024 0.0008
# 2 16.4198 38.1928 5.0459 -0.0001 13.5355 -0.0002
# 3 26.7170 5.0459 92.9317 0.0001 25.4317 0.0003
# 4 -0.0013 -0.0001 0.0001 28.3561 0.0004 -5.5451
# 5 3.9024 13.5355 25.4317 0.0004 31.0782 -0.0004
# 6 0.0008 -0.0002 0.0003 -5.5451 -0.0004 23.5967
#
#
#
# Elastic Compliance Matrix: (Units=1/GPa)
#
#
# Indices 1 2 3 4 5 6 
#
# 1 0.012381 -0.006498 -0.004582 0.000000 0.005025 0.000000
# 2 -0.006498 0.034864 0.005035 0.000000 -0.018488 0.000000
# 3 -0.004582 0.005035 0.015781 0.000000 -0.014531 0.000000
# 4 0.000000 0.000000 0.000000 0.036965 0.000000 0.008686
# 5 0.005025 -0.018488 -0.014531 0.000000 0.051489 0.000001
# 6 0.000000 0.000000 0.000000 0.008686 0.000001 0.044420
#
#
# Mechanical properties :
#
#
# Convention : Reuss Voigt Hill
#
# Bulk Modulus (GPa) = 19.63281 36.13131 27.88206
# Shear Modulus (GPa) = 22.22541 28.64844 25.43692
#
# Velocity S-wave (km/s) = 3.43918 3.90463 3.67927
# Velocity P-wave (km/s) = 5.12043 6.28941 5.73478
#
# Compressibility (1/GPa) = 0.05093515
#
# Stress axis : x y z
#
# Youngs Moduli (GPa) = 80.77065 28.68319 63.36733
#
# Poissons Ratio (x) = 0.18639 0.29032
# Poissons Ratio (y) = 0.52486 -0.31903
# Poissons Ratio (z) = 0.37006 -0.14441
#
# Static dielectric constant tensor:
#      x y z
#    x 1.716010 0.000000 0.009320 
#    y 0.000000 1.626730 0.000000 
#    z 0.009320 0.000000 1.789540 
# 
# From -- ./inp_files/265456.got.cif
#   From: 2010.05.17/outbox.cif.g08.bks.cpg/sg15_133_cif.got.tgz:265456.got - 2010.06.03 18:47:42.
