data_PCOD9259606
_publ_section_title
;
Structure prediction by ZEFSAII (Michael W. Deem and Ramdas Pophale) SiO2 
 PCOD9259606
Probable space group: C 2/C
;
_chemical_formula_sum "Si O2"
_cell_formula_units_Z 44
_cell_length_a 16.959821
_cell_length_b 12.914375
_cell_length_c 9.637712
_cell_angle_alpha 90.000000
_cell_angle_beta 129.126557
_cell_angle_gamma 90.000000
_cell_volume 1637.542671
_symmetry_space_group_name_H-M "C 2/C"
_symmetry_group_IT_number 15
_symmetry_cell_setting 'monoclinic'
loop_
_space_group_symop_operation_xyz
x,y,z
-x,y,1/2-z
-x,-y,-z
x,-y,1/2+z
1/2+x,1/2+y,z
1/2-x,1/2+y,1/2-z
1/2-x,1/2-y,-z
1/2+x,1/2-y,1/2+z
loop_
_atom_site_type_symbol
_atom_site_label
_atom_site_fract_x
_atom_site_fract_y
_atom_site_fract_z
Si Si1 0.967949 0.119575 0.070724
Si Si2 0.606561 0.366561 0.287256
Si Si3 0.000000 0.483135 0.250000
Si Si4 0.352121 0.824304 0.017135
Si Si5 0.657749 0.245113 0.694678
Si Si6 0.170639 0.640910 0.406548
O O1 0.894478 0.208992 0.046319
O O2 0.000000 0.064313 0.250000
O O3 0.058304 0.185141 0.101281
O O4 0.911378 0.070350 0.875885
O O5 0.500000 0.359802 0.250000
O O6 0.712744 0.398829 0.478597
O O7 0.637600 0.246032 0.290925
O O8 0.061755 0.407132 0.420901
O O9 0.086883 0.555677 0.284823
O O10 0.333786 0.830224 0.162527
O O11 0.249433 0.826656 0.818189
O O12 0.660142 0.179821 0.556304
#
# Coordination Sequence:
#
# PCOD9259606 Si02
#       6
#     8   8   4   8   8   8
#     4  10  18  35  61  89 116 164 221 262 298 387
#     4  11  21  39  61  89 125 180 226 257 315 416
#     4  12  22  42  58 108 136 164 206 296 334 370
#     4  10  21  35  61  92 136 161 215 263 330 380
#     4  10  18  37  60  90 123 180 213 256 310 417
#     4  11  23  36  62  92 135 169 221 267 335 386
#
# _framework density 26.869530000000001
#
# number of rings (size 3 to 8) (size 9 to 14) (size 15 to 20)
#    0.000    1.455    7.273    0.000    0.000    0.727 
#    3.273    0.000    0.000    6.545    0.000    0.000 
#    0.000    0.000    0.000    0.000    0.000    0.000 
#
# Total GULP energy -123017.781725 kJ/mol
# GULP energy per Si atom -5591.717351 kJ/mol
# Density = 2.680837 g / cm^3
# Si number density = 26.869530 Si / 1000 Ang^3
#
#
#
# Elastic Constant Matrix: (Units=GPa)
#
#
# Indices 1 2 3 4 5 6 
#
# 1 135.5680 15.2425 73.4189 0.0000 12.4015 0.0000
# 2 15.2425 67.3335 27.9091 0.0000 10.2510 0.0000
# 3 73.4189 27.9091 167.7348 0.0000 -7.9708 0.0000
# 4 0.0000 0.0000 0.0000 27.2168 0.0000 13.0419
# 5 12.4015 10.2510 -7.9708 0.0000 82.5244 0.0000
# 6 0.0000 0.0000 0.0000 13.0419 0.0000 29.5035
#
#
#
# Elastic Compliance Matrix: (Units=1/GPa)
#
#
# Indices 1 2 3 4 5 6 
#
# 1 0.009965 -0.000128 -0.004431 0.000000 -0.001910 0.000000
# 2 -0.000128 0.016379 -0.002778 0.000000 -0.002284 0.000000
# 3 -0.004431 -0.002778 0.008450 0.000000 0.001827 0.000000
# 4 0.000000 0.000000 0.000000 0.046616 0.000000 -0.020607
# 5 -0.001910 -0.002284 0.001827 0.000000 0.012865 0.000000
# 6 0.000000 0.000000 0.000000 -0.020607 0.000000 0.043003
#
#
# Mechanical properties :
#
#
# Convention : Reuss Voigt Hill
#
# Bulk Modulus (GPa) = 49.70062 67.08637 58.39349
# Shear Modulus (GPa) = 31.51367 44.78665 38.15016
#
# Velocity S-wave (km/s) = 3.42839 4.08710 3.77215
# Velocity P-wave (km/s) = 5.84885 6.87707 6.38370
#
# Compressibility (1/GPa) = 0.02012047
#
# Stress axis : x y z
#
# Youngs Moduli (GPa) = 100.34796 61.05193 118.33762
#
# Poissons Ratio (x) = 0.00784 0.52439
# Poissons Ratio (y) = 0.01289 0.32870
# Poissons Ratio (z) = 0.44467 0.16958
#
# Static dielectric constant tensor:
#      x y z
#    x 2.188990 0.000000 -0.045880 
#    y 0.000000 2.100030 0.000000 
#    z -0.045880 0.000000 2.151200 
# 
# From -- ./inp_files/112835.got.cif
#   From: 2010.05.17/outbox.cif.g08.bks.cpg/sg15_57_cif.got.tgz:112835.got - 2010.06.03 18:47:42.
