data_PCOD9259523
_publ_section_title
;
Structure prediction by ZEFSAII (Michael W. Deem and Ramdas Pophale) SiO2 
 PCOD9259523
Probable space group: C 2/C
;
_chemical_formula_sum "Si O2"
_cell_formula_units_Z 56
_cell_length_a 12.447819
_cell_length_b 12.908468
_cell_length_c 17.305979
_cell_angle_alpha 90.000000
_cell_angle_beta 62.042280
_cell_angle_gamma 90.000000
_cell_volume 2456.231606
_symmetry_space_group_name_H-M "C 2/C"
_symmetry_group_IT_number 15
_symmetry_cell_setting 'monoclinic'
loop_
_space_group_symop_operation_xyz
x,y,z
-x,y,1/2-z
-x,-y,-z
x,-y,1/2+z
1/2+x,1/2+y,z
1/2-x,1/2+y,1/2-z
1/2-x,1/2-y,-z
1/2+x,1/2-y,1/2+z
loop_
_atom_site_type_symbol
_atom_site_label
_atom_site_fract_x
_atom_site_fract_y
_atom_site_fract_z
Si Si1 0.013831 0.113791 0.157887
Si Si2 0.975610 0.881805 0.170928
Si Si3 0.216455 0.828892 0.833132
Si Si4 0.796675 0.570260 0.024484
Si Si5 0.390311 0.176991 0.137776
Si Si6 0.760032 0.841540 0.434501
Si Si7 0.410663 0.972457 0.849218
O O1 0.000000 0.157243 0.250000
O O2 0.944010 0.001431 0.187304
O O3 0.928458 0.168344 0.124074
O O4 0.154179 0.102122 0.083593
O O5 0.107702 0.883148 0.089771
O O6 0.000000 0.841875 0.250000
O O7 0.903233 0.799439 0.146334
O O8 0.273606 0.848503 0.729641
O O9 0.249500 0.716857 0.856756
O O10 0.290482 0.911937 0.859706
O O11 0.870140 0.641755 0.058160
O O12 0.813035 0.448623 0.043327
O O13 0.858816 0.564828 0.919505
O O14 0.505253 0.114663 0.135521
O O15 0.750000 0.750000 0.500000
O O16 0.500000 0.007307 0.750000
#
# Coordination Sequence:
#
# PCOD9259523 Si02
#       7
#     8   8   8   8   8   8   8
#     4  10  22  37  59  93 128 163 210 256 319 378
#     4  10  18  35  59  86 115 160 213 259 297 367
#     4  11  20  36  61  88 130 166 204 263 314 372
#     4  11  22  37  63  94 127 163 210 262 314 381
#     4  11  19  34  63  90 122 163 210 263 315 359
#     4  11  20  36  59  92 119 157 218 260 303 368
#     4  10  21  37  60  93 120 159 212 263 317 361
#
# _framework density 22.799154000000001
#
# number of rings (size 3 to 8) (size 9 to 14) (size 15 to 20)
#    0.000    1.429    5.714    0.857    0.000    0.571 
#    0.000    0.000    3.143    2.571    0.000    0.000 
#    0.000    0.000    0.000    0.000    0.000    0.000 
#
# Total GULP energy -156076.789564 kJ/mol
# GULP energy per Si atom -5574.171056 kJ/mol
# Density = 2.274726 g / cm^3
# Si number density = 22.799154 Si / 1000 Ang^3
#
#
#
# Elastic Constant Matrix: (Units=GPa)
#
#
# Indices 1 2 3 4 5 6 
#
# 1 99.1523 11.4414 22.9621 0.0000 2.9290 0.0000
# 2 11.4414 22.7219 1.2295 0.0000 8.4406 0.0000
# 3 22.9621 1.2295 89.2343 0.0000 -10.9926 0.0000
# 4 0.0000 0.0000 0.0000 4.0791 0.0000 -10.8692
# 5 2.9290 8.4406 -10.9926 0.0000 19.0942 0.0000
# 6 0.0000 0.0000 0.0000 -10.8692 0.0000 12.2106
#
#
#
# Elastic Compliance Matrix: (Units=1/GPa)
#
#
# Indices 1 2 3 4 5 6 
#
# 1 0.011412 -0.005130 -0.003016 0.000000 -0.001219 0.000000
# 2 -0.005130 0.056234 -0.002605 0.000000 -0.025570 0.000000
# 3 -0.003016 -0.002605 0.013150 0.000000 0.009184 0.000000
# 4 0.000000 0.000000 0.000000 -0.178699 0.000000 -0.159067
# 5 -0.001219 -0.025570 0.009184 0.000000 0.069150 0.000000
# 6 0.000000 0.000000 0.000000 -0.159067 0.000000 -0.059696
#
#
# Mechanical properties :
#
#
# Convention : Reuss Voigt Hill
#
# Bulk Modulus (GPa) = 16.86531 31.37493 24.12012
# Shear Modulus (GPa) = -105.97057 18.77513 -43.59772
#
# Velocity S-wave (km/s) = -6.82502 2.87278 -4.37767
# Velocity P-wave (km/s) = 7.39557 4.97948 3.86648
#
# Compressibility (1/GPa) = 0.05929330
#
# Stress axis : x y z
#
# Youngs Moduli (GPa) = 87.62715 17.78298 76.04637
#
# Poissons Ratio (x) = 0.09123 0.22936
# Poissons Ratio (y) = 0.44956 0.19807
# Poissons Ratio (z) = 0.26429 0.04632
#
# Static dielectric constant tensor:
#      x y z
#    x 1.884600 0.000000 -0.030270 
#    y 0.000000 1.922970 0.000000 
#    z -0.030270 0.000000 1.972910 
# 
# From -- ./inp_files/197762.got.cif
#   From: 2010.05.17/outbox.cif.g08.bks.cpg/sg15_99_cif.got.tgz:197762.got - 2010.06.03 18:47:42.
