data_PCOD9259849
_publ_section_title
;
Structure prediction by ZEFSAII (Michael W. Deem and Ramdas Pophale) SiO2 
 PCOD9259849
Probable space group: C 2/C
;
_chemical_formula_sum "Si O2"
_cell_formula_units_Z 44
_cell_length_a 14.019956
_cell_length_b 12.458902
_cell_length_c 13.188910
_cell_angle_alpha 90.000000
_cell_angle_beta 100.561656
_cell_angle_gamma 90.000000
_cell_volume 2264.720287
_symmetry_space_group_name_H-M "C 2/C"
_symmetry_group_IT_number 15
_symmetry_cell_setting 'monoclinic'
loop_
_space_group_symop_operation_xyz
x,y,z
-x,y,1/2-z
-x,-y,-z
x,-y,1/2+z
1/2+x,1/2+y,z
1/2-x,1/2+y,1/2-z
1/2-x,1/2-y,-z
1/2+x,1/2-y,1/2+z
loop_
_atom_site_type_symbol
_atom_site_label
_atom_site_fract_x
_atom_site_fract_y
_atom_site_fract_z
Si Si1 0.000000 0.860737 0.750000
Si Si2 0.074780 0.796833 0.357856
Si Si3 0.865913 0.601614 0.468001
Si Si4 0.052372 0.557000 0.363929
Si Si5 0.560163 0.323189 0.974864
Si Si6 0.334291 0.486531 0.629737
O O1 0.095521 0.936056 0.770632
O O2 0.992315 0.797596 0.643095
O O3 0.105209 0.672237 0.362269
O O4 0.000000 0.809171 0.250000
O O5 0.014858 0.824059 0.448098
O O6 0.157607 0.885989 0.365330
O O7 0.880175 0.532356 0.572835
O O8 0.864296 0.727991 0.489171
O O9 0.773268 0.558699 0.390197
O O10 0.963153 0.582290 0.422208
O O11 0.000000 0.524238 0.250000
O O12 0.614757 0.434567 0.961023
#
# Coordination Sequence:
#
# PCOD9259849 Si02
#       6
#     4   8   8   8   8   8
#     4   8  20  32  54  82 114 140 178 220 292 316
#     4  10  18  36  58  76 113 149 180 222 279 332
#     4  10  20  37  56  80 112 140 191 228 272 331
#     4   9  21  38  56  75 107 157 179 224 277 333
#     4   9  19  35  56  79 112 144 176 227 280 330
#     4  10  19  34  57  86 110 139 185 234 277 330
#
# _framework density 19.428447999999999
#
# number of rings (size 3 to 8) (size 9 to 14) (size 15 to 20)
#    1.091    1.455    0.909    1.091    1.273    0.727 
#    6.545    0.000   16.000    0.000    0.000    0.000 
#    0.000    0.000    0.000    0.000    0.000    0.000 
#
# Total GULP energy -122472.836152 kJ/mol
# GULP energy per Si atom -5566.947098 kJ/mol
# Density = 1.938423 g / cm^3
# Si number density = 19.428448 Si / 1000 Ang^3
#
#
#
# Elastic Constant Matrix: (Units=GPa)
#
#
# Indices 1 2 3 4 5 6 
#
# 1 33.5428 12.8228 -2.8741 0.0000 23.4185 0.0000
# 2 12.8228 70.9729 9.9194 0.0000 21.5297 0.0000
# 3 -2.8741 9.9194 67.4315 0.0000 0.8757 0.0000
# 4 0.0000 0.0000 0.0000 27.4760 0.0000 5.7702
# 5 23.4185 21.5297 0.8757 0.0000 24.9634 0.0000
# 6 0.0000 0.0000 0.0000 5.7702 0.0000 11.0510
#
#
#
# Elastic Compliance Matrix: (Units=1/GPa)
#
#
# Indices 1 2 3 4 5 6 
#
# 1 0.095714 0.012857 0.003500 0.000000 -0.101002 0.000000
# 2 0.012857 0.021274 -0.002188 0.000000 -0.030332 0.000000
# 3 0.003500 -0.002188 0.015326 0.000000 -0.001934 0.000000
# 4 0.000000 0.000000 0.000000 0.040878 0.000000 -0.021344
# 5 -0.101002 -0.030332 -0.001934 0.000000 0.161039 0.000000
# 6 0.000000 0.000000 0.000000 -0.021344 0.000000 0.101634
#
#
# Mechanical properties :
#
#
# Convention : Reuss Voigt Hill
#
# Bulk Modulus (GPa) = 6.22461 23.52040 14.87250
# Shear Modulus (GPa) = 10.84418 22.83668 16.84043
#
# Velocity S-wave (km/s) = 2.36510 3.43217 2.94733
# Velocity P-wave (km/s) = 3.26636 5.27625 4.38793
#
# Compressibility (1/GPa) = 0.16065268
#
# Stress axis : x y z
#
# Youngs Moduli (GPa) = 10.44780 47.00554 65.24876
#
# Poissons Ratio (x) = -0.60435 -0.22836
# Poissons Ratio (y) = -0.13433 0.14274
# Poissons Ratio (z) = -0.03657 0.10283
#
# Static dielectric constant tensor:
#      x y z
#    x 1.653060 0.000000 -0.011280 
#    y 0.000000 1.704700 0.000000 
#    z -0.011280 0.000000 1.688930 
# 
# From -- ./inp_files/151437.got.cif
#   From: 2010.05.17/outbox.cif.g08.bks.cpg/sg15_76_cif.got.tgz:151437.got - 2010.06.03 18:47:42.
