data_PCOD9259024
_publ_section_title
;
Structure prediction by ZEFSAII (Michael W. Deem and Ramdas Pophale) SiO2 
 PCOD9259024
Probable space group: C 2/C
;
_chemical_formula_sum "Si O2"
_cell_formula_units_Z 36
_cell_length_a 21.161731
_cell_length_b 18.327820
_cell_length_c 5.727739
_cell_angle_alpha 90.000000
_cell_angle_beta 57.131633
_cell_angle_gamma 90.000000
_cell_volume 1865.876729
_symmetry_space_group_name_H-M "C 2/C"
_symmetry_group_IT_number 15
_symmetry_cell_setting 'monoclinic'
loop_
_space_group_symop_operation_xyz
x,y,z
-x,y,1/2-z
-x,-y,-z
x,-y,1/2+z
1/2+x,1/2+y,z
1/2-x,1/2+y,1/2-z
1/2-x,1/2-y,-z
1/2+x,1/2-y,1/2+z
loop_
_atom_site_type_symbol
_atom_site_label
_atom_site_fract_x
_atom_site_fract_y
_atom_site_fract_z
Si Si1 0.736180 0.532211 0.052925
Si Si2 0.867371 0.788563 0.310252
Si Si3 0.000000 0.819331 0.750000
Si Si4 0.767017 0.312253 0.280500
Si Si5 0.924136 0.079469 0.021197
O O1 0.759629 0.513582 0.273319
O O2 0.644424 0.529761 0.254885
O O3 0.764067 0.612295 0.923561
O O4 0.841498 0.717775 0.505220
O O5 0.798751 0.812091 0.281059
O O6 0.888426 0.859493 0.420945
O O7 0.941324 0.772747 0.013438
O O8 0.952921 0.872358 0.678295
O O9 0.750000 0.250000 0.500000
O O10 0.000000 0.046809 0.750000
#
# Coordination Sequence:
#
# PCOD9259024 Si02
#       5
#     8   8   4   8   8
#     4  12  26  40  56  87 126 163 204 246 299 359
#     4  10  19  34  61  84 116 147 210 251 300 335
#     4  10  18  34  58  86 114 154 202 254 280 364
#     4  11  21  37  61  83 111 162 203 256 296 353
#     4  10  21  36  55  83 121 163 203 238 286 359
#
# _framework density 19.293880000000001
#
# number of rings (size 3 to 8) (size 9 to 14) (size 15 to 20)
#    0.000    1.333    4.444    1.333    6.222    0.889 
#    0.000    0.000    0.000    0.000    0.000    1.556 
#    0.000    0.000    0.000    0.000    0.000    0.000 
#
# Total GULP energy -100495.325483 kJ/mol
# GULP energy per Si atom -5583.073638 kJ/mol
# Density = 1.924997 g / cm^3
# Si number density = 19.293880 Si / 1000 Ang^3
#
#
#
# Elastic Constant Matrix: (Units=GPa)
#
#
# Indices 1 2 3 4 5 6 
#
# 1 48.0543 5.4361 14.0559 0.0000 21.4895 0.0000
# 2 5.4361 82.7998 47.5776 0.0000 5.7204 0.0000
# 3 14.0559 47.5776 143.2109 0.0000 3.3423 0.0000
# 4 0.0000 0.0000 0.0000 44.3777 0.0000 -5.4197
# 5 21.4895 5.7204 3.3423 0.0000 33.7015 0.0000
# 6 0.0000 0.0000 0.0000 -5.4197 0.0000 21.9848
#
#
#
# Elastic Compliance Matrix: (Units=1/GPa)
#
#
# Indices 1 2 3 4 5 6 
#
# 1 0.030041 0.000966 -0.002825 0.000000 -0.019039 0.000000
# 2 0.000966 0.015100 -0.005049 0.000000 -0.002679 0.000000
# 3 -0.002825 -0.005049 0.008896 0.000000 0.001776 0.000000
# 4 0.000000 0.000000 0.000000 0.023233 0.000000 0.005727
# 5 -0.019039 -0.002679 0.001776 0.000000 0.042091 0.000000
# 6 0.000000 0.000000 0.000000 0.005727 0.000000 0.046898
#
#
# Mechanical properties :
#
#
# Convention : Reuss Voigt Hill
#
# Bulk Modulus (GPa) = 24.86221 45.35603 35.10912
# Shear Modulus (GPa) = 25.84224 33.81249 29.82737
#
# Velocity S-wave (km/s) = 3.66375 4.19083 3.93612
# Velocity P-wave (km/s) = 5.55081 6.85393 6.23650
#
# Compressibility (1/GPa) = 0.04022168
#
# Stress axis : x y z
#
# Youngs Moduli (GPa) = 33.28782 66.22489 112.41145
#
# Poissons Ratio (x) = -0.06400 0.31759
# Poissons Ratio (y) = -0.03217 0.56755
# Poissons Ratio (z) = 0.09405 0.33436
#
# Static dielectric constant tensor:
#      x y z
#    x 1.687710 0.000000 0.014600 
#    y 0.000000 1.659770 0.000000 
#    z 0.014600 0.000000 1.774400 
# 
# From -- ./inp_files/9693.got.cif
#   From: 2010.05.17/outbox.cif.g08.bks.cpg/sg15_5_cif.got.tgz:9693.got - 2010.06.03 18:47:42.
