data_PCOD9259152
_publ_section_title
;
Structure prediction by ZEFSAII (Michael W. Deem and Ramdas Pophale) SiO2 
 PCOD9259152
Probable space group: C 2/C
;
_chemical_formula_sum "Si O2"
_cell_formula_units_Z 48
_cell_length_a 27.368225
_cell_length_b 11.937512
_cell_length_c 14.218397
_cell_angle_alpha 90.000000
_cell_angle_beta 32.193830
_cell_angle_gamma 90.000000
_cell_volume 2474.931595
_symmetry_space_group_name_H-M "C 2/C"
_symmetry_group_IT_number 15
_symmetry_cell_setting 'monoclinic'
loop_
_space_group_symop_operation_xyz
x,y,z
-x,y,1/2-z
-x,-y,-z
x,-y,1/2+z
1/2+x,1/2+y,z
1/2-x,1/2+y,1/2-z
1/2-x,1/2-y,-z
1/2+x,1/2-y,1/2+z
loop_
_atom_site_type_symbol
_atom_site_label
_atom_site_fract_x
_atom_site_fract_y
_atom_site_fract_z
Si Si1 0.518248 0.123619 0.936683
Si Si2 0.702869 0.853064 0.019966
Si Si3 0.030120 0.148917 0.496193
Si Si4 0.593149 0.755602 0.034412
Si Si5 0.862722 0.001698 0.311921
Si Si6 0.898392 0.995866 0.960652
O O1 0.609387 0.120360 0.725791
O O2 0.533944 0.218195 0.990463
O O3 0.435398 0.173153 0.009102
O O4 0.500000 0.000000 0.000000
O O5 0.672966 0.811217 0.966109
O O6 0.750000 0.750000 0.000000
O O7 0.769733 0.960073 0.913324
O O8 0.926754 0.102655 0.678688
O O9 0.068662 0.104021 0.332587
O O10 0.093502 0.089051 0.471754
O O11 0.500000 0.751458 0.250000
O O12 0.619672 0.627423 0.969731
O O13 0.840747 0.991635 0.458609
O O14 0.000000 0.996666 0.750000
#
# Coordination Sequence:
#
# PCOD9259152 Si02
#       6
#     8   8   8   8   8   8
#     4  11  23  40  55  80 120 160 194 238 298 361
#     4  11  19  37  62  87 112 149 202 241 286 349
#     4  10  19  34  60  89 119 153 196 245 303 347
#     4   9  17  33  57  80 110 152 192 231 289 346
#     4  10  18  34  60  92 118 143 193 251 286 344
#     4   9  16  29  55  89 115 145 185 241 294 342
#
# _framework density 19.394476999999998
#
# number of rings (size 3 to 8) (size 9 to 14) (size 15 to 20)
#    0.000    2.000    3.333    4.000    0.000    0.000 
#    3.000    8.333    0.000    0.000    0.000    0.000 
#    0.000    0.000    0.000    0.000    0.000    0.000 
#
# Total GULP energy -133738.304361 kJ/mol
# GULP energy per Si atom -5572.429348 kJ/mol
# Density = 1.935033 g / cm^3
# Si number density = 19.394477 Si / 1000 Ang^3
#
#
#
# Elastic Constant Matrix: (Units=GPa)
#
#
# Indices 1 2 3 4 5 6 
#
# 1 137.4710 58.2647 25.2836 0.0000 0.8357 0.0000
# 2 58.2647 153.6428 31.0077 0.0000 11.1323 0.0000
# 3 25.2836 31.0077 46.2012 0.0000 -6.1093 0.0000
# 4 0.0000 0.0000 0.0000 25.8472 0.0000 2.1893
# 5 0.8357 11.1323 -6.1093 0.0000 24.9585 0.0000
# 6 0.0000 0.0000 0.0000 2.1893 0.0000 25.4202
#
#
#
# Elastic Compliance Matrix: (Units=1/GPa)
#
#
# Indices 1 2 3 4 5 6 
#
# 1 0.009027 -0.002832 -0.003010 0.000000 0.000224 0.000000
# 2 -0.002832 0.009004 -0.005179 0.000000 -0.005189 0.000000
# 3 -0.003010 -0.005179 0.027992 0.000000 0.009263 0.000000
# 4 0.000000 0.000000 0.000000 0.038973 0.000000 -0.003357
# 5 0.000224 -0.005189 0.009263 0.000000 0.044641 0.000000
# 6 0.000000 0.000000 0.000000 -0.003357 0.000000 0.039628
#
#
# Mechanical properties :
#
#
# Convention : Reuss Voigt Hill
#
# Bulk Modulus (GPa) = 41.69913 62.93634 52.31773
# Shear Modulus (GPa) = 25.08783 30.09577 27.59180
#
# Velocity S-wave (km/s) = 3.60051 3.94353 3.77591
# Velocity P-wave (km/s) = 6.23154 7.29769 6.78559
#
# Compressibility (1/GPa) = 0.02398132
#
# Stress axis : x y z
#
# Youngs Moduli (GPa) = 110.78246 111.06470 35.72423
#
# Poissons Ratio (x) = 0.31453 0.10751
# Poissons Ratio (y) = 0.31374 0.18502
# Poissons Ratio (z) = 0.33340 0.57522
#
# Static dielectric constant tensor:
#      x y z
#    x 1.796730 0.000000 0.003870 
#    y 0.000000 1.679810 0.000000 
#    z 0.003870 0.000000 1.692960 
# 
# From -- ./inp_files/177759.got.cif
#   From: 2010.05.17/outbox.cif.g08.bks.cpg/sg15_89_cif.got.tgz:177759.got - 2010.06.03 18:47:42.
