data_PCOD9259414
_publ_section_title
;
Structure prediction by ZEFSAII (Michael W. Deem and Ramdas Pophale) SiO2 
 PCOD9259414
Probable space group: C 2/C
;
_chemical_formula_sum "Si O2"
_cell_formula_units_Z 60
_cell_length_a 16.391145
_cell_length_b 8.398401
_cell_length_c 23.219689
_cell_angle_alpha 90.000000
_cell_angle_beta 99.236635
_cell_angle_gamma 90.000000
_cell_volume 3154.963493
_symmetry_space_group_name_H-M "C 2/C"
_symmetry_group_IT_number 15
_symmetry_cell_setting 'monoclinic'
loop_
_space_group_symop_operation_xyz
x,y,z
-x,y,1/2-z
-x,-y,-z
x,-y,1/2+z
1/2+x,1/2+y,z
1/2-x,1/2+y,1/2-z
1/2-x,1/2-y,-z
1/2+x,1/2-y,1/2+z
loop_
_atom_site_type_symbol
_atom_site_label
_atom_site_fract_x
_atom_site_fract_y
_atom_site_fract_z
Si Si1 0.611890 0.528666 0.429940
Si Si2 0.056858 0.096832 0.638565
Si Si3 0.818071 0.679306 0.625156
Si Si4 0.327292 0.115626 0.334241
Si Si5 0.323993 0.521333 0.441262
Si Si6 0.000000 0.157751 0.750000
Si Si7 0.761848 0.671026 0.893125
Si Si8 0.850558 0.380730 0.702248
O O1 0.529061 0.438794 0.402211
O O2 0.621054 0.699959 0.400222
O O3 0.622176 0.539359 0.499546
O O4 0.690165 0.428302 0.416100
O O5 0.092832 0.276540 0.642098
O O6 0.043854 0.058974 0.704563
O O7 0.126187 0.999438 0.612595
O O8 0.753679 0.782639 0.656280
O O9 0.759093 0.583755 0.573711
O O10 0.860594 0.545607 0.669275
O O11 0.326564 0.088574 0.265771
O O12 0.322588 0.953734 0.369660
O O13 0.303051 0.707056 0.442132
O O14 0.067969 0.271164 0.787094
O O15 0.718730 0.779423 0.839178
#
# Coordination Sequence:
#
# PCOD9259414 Si02
#       8
#     8   8   8   8   8   4   8   8
#     4  11  20  38  59  83 118 151 192 233 283 337
#     4  10  21  39  57  81 113 154 184 229 294 332
#     4   9  20  35  57  86 108 150 196 231 283 338
#     4   9  19  35  58  80 116 144 188 234 284 340
#     4  10  21  38  59  84 115 150 193 240 275 339
#     4  10  20  38  58  80 118 146 176 242 286 340
#     4  10  20  36  58  87 108 147 197 228 287 337
#     4  10  18  35  57  80 115 146 186 233 287 337
#
# _framework density 19.017651999999998
#
# number of rings (size 3 to 8) (size 9 to 14) (size 15 to 20)
#    0.000    2.133    1.333    2.000    0.000    1.067 
#    7.200    0.667    0.000    0.000    0.000    0.000 
#    0.000    0.000    0.000    0.000    0.000    0.000 
#
# Total GULP energy -167357.139948 kJ/mol
# GULP energy per Si atom -5578.571332 kJ/mol
# Density = 1.897437 g / cm^3
# Si number density = 19.017652 Si / 1000 Ang^3
#
#
#
# Elastic Constant Matrix: (Units=GPa)
#
#
# Indices 1 2 3 4 5 6 
#
# 1 54.0432 9.5239 22.7032 0.0000 -3.0695 0.0000
# 2 9.5239 68.7475 30.7474 0.0000 -5.8485 0.0000
# 3 22.7032 30.7474 71.4420 0.0000 4.6131 0.0000
# 4 0.0000 0.0000 0.0000 19.8807 0.0000 -3.9872
# 5 -3.0695 -5.8485 4.6131 0.0000 25.6517 0.0000
# 6 0.0000 0.0000 0.0000 -3.9872 0.0000 9.0672
#
#
#
# Elastic Compliance Matrix: (Units=1/GPa)
#
#
# Indices 1 2 3 4 5 6 
#
# 1 0.021755 0.000676 -0.007469 0.000000 0.004100 0.000000
# 2 0.000676 0.018856 -0.008714 0.000000 0.005947 0.000000
# 3 -0.007469 -0.008714 0.020546 0.000000 -0.006575 0.000000
# 4 0.000000 0.000000 0.000000 0.055165 0.000000 0.024258
# 5 0.004100 0.005947 -0.006575 0.000000 0.042013 0.000000
# 6 0.000000 0.000000 0.000000 0.024258 0.000000 0.120955
#
#
# Mechanical properties :
#
#
# Convention : Reuss Voigt Hill
#
# Bulk Modulus (GPa) = 33.17627 35.57574 34.37601
# Shear Modulus (GPa) = 15.60787 19.67047 17.63917
#
# Velocity S-wave (km/s) = 2.86790 3.21958 3.04882
# Velocity P-wave (km/s) = 5.33379 5.70686 5.52348
#
# Compressibility (1/GPa) = 0.03014202
#
# Stress axis : x y z
#
# Youngs Moduli (GPa) = 45.96591 53.03473 48.67185
#
# Poissons Ratio (x) = -0.03583 0.36353
# Poissons Ratio (y) = -0.03105 0.42412
# Poissons Ratio (z) = 0.34332 0.46213
#
# Static dielectric constant tensor:
#      x y z
#    x 1.651440 0.000000 -0.014850 
#    y 0.000000 1.661130 0.000000 
#    z -0.014850 0.000000 1.673100 
# 
# From -- ./inp_files/247506.got.cif
#   From: 2010.05.17/outbox.cif.g08.bks.cpg/sg15_124_cif.got.tgz:247506.got - 2010.06.03 18:47:42.
