data_PCOD9259616
_publ_section_title
;
Structure prediction by ZEFSAII (Michael W. Deem and Ramdas Pophale) SiO2 
 PCOD9259616
Probable space group: C 2/C
;
_chemical_formula_sum "Si O2"
_cell_formula_units_Z 64
_cell_length_a 11.214102
_cell_length_b 11.726518
_cell_length_c 22.049435
_cell_angle_alpha 90.000000
_cell_angle_beta 119.637374
_cell_angle_gamma 90.000000
_cell_volume 2520.211810
_symmetry_space_group_name_H-M "C 2/C"
_symmetry_group_IT_number 15
_symmetry_cell_setting 'monoclinic'
loop_
_space_group_symop_operation_xyz
x,y,z
-x,y,1/2-z
-x,-y,-z
x,-y,1/2+z
1/2+x,1/2+y,z
1/2-x,1/2+y,1/2-z
1/2-x,1/2-y,-z
1/2+x,1/2-y,1/2+z
loop_
_atom_site_type_symbol
_atom_site_label
_atom_site_fract_x
_atom_site_fract_y
_atom_site_fract_z
Si Si1 0.849727 0.836013 0.891150
Si Si2 0.958295 0.247601 0.671655
Si Si3 0.346935 0.135982 0.649465
Si Si4 0.288802 0.535716 0.484724
Si Si5 0.500511 0.114267 0.065681
Si Si6 0.260539 0.663934 0.057818
Si Si7 0.651553 0.450956 0.200551
Si Si8 0.609234 0.902406 0.155738
O O1 0.697992 0.788420 0.869148
O O2 0.909265 0.722107 0.877405
O O3 0.891250 0.890094 0.967791
O O4 0.853712 0.930870 0.838449
O O5 0.027244 0.317417 0.634634
O O6 0.009940 0.117970 0.674237
O O7 0.000000 0.280307 0.750000
O O8 0.277006 0.050592 0.581899
O O9 0.341084 0.268384 0.629601
O O10 0.250802 0.123505 0.682594
O O11 0.502983 0.093985 0.685172
O O12 0.329685 0.450750 0.549216
O O13 0.164158 0.610027 0.482290
O O14 0.604312 0.154399 0.041141
O O15 0.552156 0.987633 0.091649
O O16 0.250000 0.750000 0.000000
O O17 0.740305 0.443742 0.285173
#
# Coordination Sequence:
#
# PCOD9259616 Si02
#       8
#     8   8   8   8   8   8   8   8
#     4  10  22  39  57  88 128 160 206 258 311 379
#     4  11  20  38  62  90 120 161 211 259 309 376
#     4   9  19  35  56  89 117 153 197 255 310 365
#     4   8  18  34  60  84 110 153 201 255 309 362
#     4  10  20  35  61  88 118 156 205 265 313 365
#     4  10  18  35  61  91 117 147 211 264 308 372
#     4  11  21  38  62  87 121 166 207 254 316 371
#     4  11  22  37  56  85 126 163 202 250 315 387
#
# _framework density 25.394690000000001
#
# number of rings (size 3 to 8) (size 9 to 14) (size 15 to 20)
#    0.000    2.000    2.500    2.250    0.000    0.000 
#    2.250    2.500    0.000    0.000    0.000    0.000 
#    0.000    0.000    0.000    0.000    0.000    0.000 
#
# Total GULP energy -178637.839518 kJ/mol
# GULP energy per Si atom -5582.432485 kJ/mol
# Density = 2.533689 g / cm^3
# Si number density = 25.394690 Si / 1000 Ang^3
#
#
#
# Elastic Constant Matrix: (Units=GPa)
#
#
# Indices 1 2 3 4 5 6 
#
# 1 97.1290 39.3326 31.8601 0.0000 -25.0672 0.0000
# 2 39.3326 112.5069 28.7103 0.0000 -3.1767 0.0000
# 3 31.8601 28.7103 52.4107 0.0000 -18.8288 0.0000
# 4 0.0000 0.0000 0.0000 13.7891 0.0000 -8.6238
# 5 -25.0672 -3.1767 -18.8288 0.0000 37.1576 0.0000
# 6 0.0000 0.0000 0.0000 -8.6238 0.0000 41.0177
#
#
#
# Elastic Compliance Matrix: (Units=1/GPa)
#
#
# Indices 1 2 3 4 5 6 
#
# 1 0.015374 -0.004054 -0.004308 0.000000 0.007842 0.000000
# 2 -0.004054 0.011584 -0.005511 0.000000 -0.004537 0.000000
# 3 -0.004308 -0.005511 0.028736 0.000000 0.011184 0.000000
# 4 0.000000 0.000000 0.000000 0.083500 0.000000 0.017556
# 5 0.007842 -0.004537 0.011184 0.000000 0.037482 0.000000
# 6 0.000000 0.000000 0.000000 0.017556 0.000000 0.028071
#
#
# Mechanical properties :
#
#
# Convention : Reuss Voigt Hill
#
# Bulk Modulus (GPa) = 35.78111 51.31697 43.54904
# Shear Modulus (GPa) = 20.67745 29.20244 24.93995
#
# Velocity S-wave (km/s) = 2.85659 3.39476 3.13724
# Velocity P-wave (km/s) = 5.00007 5.96804 5.50537
#
# Compressibility (1/GPa) = 0.02794771
#
# Stress axis : x y z
#
# Youngs Moduli (GPa) = 65.04355 86.32620 34.80012
#
# Poissons Ratio (x) = 0.34998 0.14991
# Poissons Ratio (y) = 0.26370 0.19179
# Poissons Ratio (z) = 0.28019 0.47576
#
# Static dielectric constant tensor:
#      x y z
#    x 2.071990 0.000000 -0.077110 
#    y 0.000000 2.046350 0.000000 
#    z -0.077110 0.000000 2.126750 
# 
# From -- ./inp_files/292035.got.cif
#   From: 2010.05.17/outbox.cif.g08.bks.cpg/sg15_147_cif.got.tgz:292035.got - 2010.06.03 18:47:42.
