data_PCOD9259634
_publ_section_title
;
Structure prediction by ZEFSAII (Michael W. Deem and Ramdas Pophale) SiO2 
 PCOD9259634
Probable space group: C 2/C
;
_chemical_formula_sum "Si O2"
_cell_formula_units_Z 40
_cell_length_a 9.033565
_cell_length_b 14.640156
_cell_length_c 21.265556
_cell_angle_alpha 90.000000
_cell_angle_beta 146.462336
_cell_angle_gamma 90.000000
_cell_volume 1553.825109
_symmetry_space_group_name_H-M "C 2/C"
_symmetry_group_IT_number 15
_symmetry_cell_setting 'monoclinic'
loop_
_space_group_symop_operation_xyz
x,y,z
-x,y,1/2-z
-x,-y,-z
x,-y,1/2+z
1/2+x,1/2+y,z
1/2-x,1/2+y,1/2-z
1/2-x,1/2-y,-z
1/2+x,1/2-y,1/2+z
loop_
_atom_site_type_symbol
_atom_site_label
_atom_site_fract_x
_atom_site_fract_y
_atom_site_fract_z
Si Si1 0.500000 0.469715 0.250000
Si Si2 0.310235 0.750827 0.337576
Si Si3 0.371880 0.115359 0.318424
Si Si4 0.780036 0.449883 0.466735
Si Si5 0.263430 0.615588 0.956023
Si Si6 0.500000 0.020563 0.750000
O O1 0.716386 0.542416 0.304395
O O2 0.574245 0.418017 0.340404
O O3 0.292743 0.700589 0.263742
O O4 0.494165 0.686958 0.448177
O O5 0.491365 0.840180 0.389608
O O6 0.000000 0.753384 0.250000
O O7 0.620294 0.131125 0.452886
O O8 0.425147 0.052608 0.276989
O O9 0.677404 0.527957 0.478532
O O10 0.000000 0.500000 0.500000
O O11 0.199001 0.584956 0.861812
#
# Coordination Sequence:
#
# PCOD9259634 Si02
#       6
#     4   8   8   8   8   4
#     4  10  18  35  62 101 130 170 218 290 340 391
#     4  11  23  43  65  97 139 186 226 285 349 411
#     4  10  20  36  67  98 129 172 233 273 338 404
#     4   9  19  37  63 100 123 172 225 279 330 406
#     4  10  23  44  66  96 140 181 226 287 347 409
#     4  10  22  43  66  99 132 182 228 286 342 411
#
# _framework density 25.742925
#
# number of rings (size 3 to 8) (size 9 to 14) (size 15 to 20)
#    0.000    2.000    3.000    0.000    0.000    3.200 
#   19.800    1.000    0.000    0.000    0.000    0.000 
#    0.000    0.000    0.000    0.000    0.000    0.000 
#
# Total GULP energy -111574.058004 kJ/mol
# GULP energy per Si atom -5578.702900 kJ/mol
# Density = 2.568433 g / cm^3
# Si number density = 25.742925 Si / 1000 Ang^3
#
#
#
# Elastic Constant Matrix: (Units=GPa)
#
#
# Indices 1 2 3 4 5 6 
#
# 1 96.3054 11.7634 58.9240 0.0001 -13.0816 0.0000
# 2 11.7634 90.6340 55.7930 0.0000 -11.6341 0.0000
# 3 58.9240 55.7930 203.7524 0.0001 -38.3627 0.0001
# 4 0.0001 0.0000 0.0001 40.2405 0.0001 -0.1539
# 5 -13.0816 -11.6341 -38.3627 0.0001 58.6611 0.0000
# 6 0.0000 0.0000 0.0001 -0.1539 0.0000 19.3362
#
#
#
# Elastic Compliance Matrix: (Units=1/GPa)
#
#
# Indices 1 2 3 4 5 6 
#
# 1 0.012670 0.000743 -0.003772 0.000000 0.000506 0.000000
# 2 0.000743 0.013318 -0.003801 0.000000 0.000321 0.000000
# 3 -0.003772 -0.003801 0.007686 0.000000 0.003431 0.000000
# 4 0.000000 0.000000 0.000000 0.024851 0.000000 0.000198
# 5 0.000506 0.000321 0.003431 0.000000 0.019467 0.000000
# 6 0.000000 0.000000 0.000000 0.000198 0.000000 0.051718
#
#
# Mechanical properties :
#
#
# Convention : Reuss Voigt Hill
#
# Bulk Modulus (GPa) = 49.96989 71.51695 60.74342
# Shear Modulus (GPa) = 33.32395 41.26165 37.29280
#
# Velocity S-wave (km/s) = 3.60181 4.00788 3.81026
# Velocity P-wave (km/s) = 6.06223 7.01848 6.55781
#
# Compressibility (1/GPa) = 0.02001205
#
# Stress axis : x y z
#
# Youngs Moduli (GPa) = 78.92934 75.08544 130.11247
#
# Poissons Ratio (x) = -0.05576 0.49079
# Poissons Ratio (y) = -0.05861 0.49458
# Poissons Ratio (z) = 0.29773 0.28541
#
# Static dielectric constant tensor:
#      x y z
#    x 2.064850 0.000000 0.158150 
#    y 0.000000 2.048010 0.000000 
#    z 0.158150 0.000000 2.314960 
# 
# From -- ./inp_files/232968.got.cif
#   From: 2010.05.17/outbox.cif.g08.bks.cpg/sg15_117_cif.got.tgz:232968.got - 2010.06.03 18:47:42.
