data_PCOD9259237
_publ_section_title
;
Structure prediction by ZEFSAII (Michael W. Deem and Ramdas Pophale) SiO2 
 PCOD9259237
Probable space group: C 2/C
;
_chemical_formula_sum "Si O2"
_cell_formula_units_Z 60
_cell_length_a 22.257187
_cell_length_b 23.958632
_cell_length_c 9.533893
_cell_angle_alpha 90.000000
_cell_angle_beta 35.029812
_cell_angle_gamma 90.000000
_cell_volume 2918.209103
_symmetry_space_group_name_H-M "C 2/C"
_symmetry_group_IT_number 15
_symmetry_cell_setting 'monoclinic'
loop_
_space_group_symop_operation_xyz
x,y,z
-x,y,1/2-z
-x,-y,-z
x,-y,1/2+z
1/2+x,1/2+y,z
1/2-x,1/2+y,1/2-z
1/2-x,1/2-y,-z
1/2+x,1/2-y,1/2+z
loop_
_atom_site_type_symbol
_atom_site_label
_atom_site_fract_x
_atom_site_fract_y
_atom_site_fract_z
Si Si1 0.038333 0.407524 0.450910
Si Si2 0.896168 0.880493 0.524004
Si Si3 0.700163 0.823229 0.237623
Si Si4 0.799974 0.987961 0.579873
Si Si5 0.599832 0.606077 0.154216
Si Si6 0.655644 0.016125 0.109504
Si Si7 0.775354 0.293738 0.640118
Si Si8 0.500000 0.832791 0.250000
O O1 0.099465 0.363525 0.432933
O O2 0.116017 0.456257 0.245647
O O3 0.940145 0.440675 0.702843
O O4 0.006020 0.372427 0.374856
O O5 0.914007 0.878268 0.656481
O O6 0.795889 0.844283 0.671924
O O7 0.868687 0.942811 0.529055
O O8 0.000000 0.860282 0.250000
O O9 0.712882 0.763487 0.286870
O O10 0.799776 0.859703 0.090126
O O11 0.712574 0.806638 0.049455
O O12 0.869217 0.041349 0.411786
O O13 0.747557 0.964788 0.538555
O O14 0.704782 0.005786 0.864077
O O15 0.500000 0.617496 0.250000
O O16 0.894449 0.296401 0.464767
#
# Coordination Sequence:
#
# PCOD9259237 Si02
#       8
#     8   8   8   8   8   8   8   4
#     4  10  19  35  56  90 126 162 198 255 310 380
#     4  11  24  42  64  89 125 167 209 257 315 374
#     4   9  18  39  59  89 123 159 207 256 305 367
#     4  12  22  40  60  90 125 162 206 256 301 380
#     4  11  24  40  61  91 119 162 211 254 309 369
#     4  11  22  35  61  89 129 163 201 246 318 367
#     4   9  19  36  64  90 119 161 213 255 306 370
#     4  10  18  34  62  92 118 160 210 254 310 374
#
# _framework density 20.560555000000001
#
# number of rings (size 3 to 8) (size 9 to 14) (size 15 to 20)
#    0.000    1.600    2.667    3.600    2.800    2.667 
#    0.000    1.333    0.000    0.800    0.000    0.000 
#    0.000    0.000    0.000    0.000    0.000    0.000 
#
# Total GULP energy -167591.933538 kJ/mol
# GULP energy per Si atom -5586.397785 kJ/mol
# Density = 2.051376 g / cm^3
# Si number density = 20.560555 Si / 1000 Ang^3
#
#
#
# Elastic Constant Matrix: (Units=GPa)
#
#
# Indices 1 2 3 4 5 6 
#
# 1 104.7579 31.8312 15.1467 0.0000 -26.1297 0.0000
# 2 31.8312 83.5763 14.5945 0.0000 -12.0110 0.0000
# 3 15.1467 14.5945 50.7269 0.0000 -10.3805 0.0000
# 4 0.0000 0.0000 0.0000 19.8313 0.0000 -4.1949
# 5 -26.1297 -12.0110 -10.3805 0.0000 28.0768 0.0000
# 6 0.0000 0.0000 0.0000 -4.1949 0.0000 15.4983
#
#
#
# Elastic Compliance Matrix: (Units=1/GPa)
#
#
# Indices 1 2 3 4 5 6 
#
# 1 0.013364 -0.003412 -0.000825 0.000000 0.010673 0.000000
# 2 -0.003412 0.013988 -0.002630 0.000000 0.001836 0.000000
# 3 -0.000825 -0.002630 0.021993 0.000000 0.006239 0.000000
# 4 0.000000 0.000000 0.000000 0.053488 0.000000 0.014478
# 5 0.010673 0.001836 0.006239 0.000000 0.048641 0.000000
# 6 0.000000 0.000000 0.000000 0.014478 0.000000 0.068442
#
#
# Mechanical properties :
#
#
# Convention : Reuss Voigt Hill
#
# Bulk Modulus (GPa) = 28.08090 40.24510 34.16300
# Shear Modulus (GPa) = 20.36501 24.51384 22.43943
#
# Velocity S-wave (km/s) = 3.15062 3.45668 3.30719
# Velocity P-wave (km/s) = 5.18869 5.96221 5.58885
#
# Compressibility (1/GPa) = 0.03561139
#
# Stress axis : x y z
#
# Youngs Moduli (GPa) = 74.82849 71.49119 45.46917
#
# Poissons Ratio (x) = 0.24393 0.03750
# Poissons Ratio (y) = 0.25532 0.11958
# Poissons Ratio (z) = 0.06171 0.18801
#
# Static dielectric constant tensor:
#      x y z
#    x 1.733900 0.000000 -0.012720 
#    y 0.000000 1.739580 0.000000 
#    z -0.012720 0.000000 1.719440 
# 
# From -- ./inp_files/58728.got.cif
#   From: 2010.05.17/outbox.cif.g08.bks.cpg/sg15_30_cif.got.tgz:58728.got - 2010.06.03 18:47:42.
