data_PCOD9259227
_publ_section_title
;
Structure prediction by ZEFSAII (Michael W. Deem and Ramdas Pophale) SiO2 
 PCOD9259227
Probable space group: C 2/C
;
_chemical_formula_sum "Si O2"
_cell_formula_units_Z 60
_cell_length_a 7.564750
_cell_length_b 12.464009
_cell_length_c 27.748114
_cell_angle_alpha 90.000000
_cell_angle_beta 66.055254
_cell_angle_gamma 90.000000
_cell_volume 2391.124528
_symmetry_space_group_name_H-M "C 2/C"
_symmetry_group_IT_number 15
_symmetry_cell_setting 'monoclinic'
loop_
_space_group_symop_operation_xyz
x,y,z
-x,y,1/2-z
-x,-y,-z
x,-y,1/2+z
1/2+x,1/2+y,z
1/2-x,1/2+y,1/2-z
1/2-x,1/2-y,-z
1/2+x,1/2-y,1/2+z
loop_
_atom_site_type_symbol
_atom_site_label
_atom_site_fract_x
_atom_site_fract_y
_atom_site_fract_z
Si Si1 0.476619 0.329469 0.638851
Si Si2 0.344637 0.148838 0.836933
Si Si3 0.182386 0.667008 0.912148
Si Si4 0.007324 0.778608 0.449254
Si Si5 0.698823 0.944361 0.946038
Si Si6 0.500000 0.500000 0.500000
Si Si7 0.552628 0.073665 0.188969
Si Si8 0.034655 0.192917 0.803039
O O1 0.512937 0.249823 0.679085
O O2 0.470237 0.248348 0.593798
O O3 0.645181 0.412881 0.612376
O O4 0.274682 0.388803 0.661895
O O5 0.177148 0.178665 0.894010
O O6 0.224820 0.134076 0.801061
O O7 0.454176 0.039048 0.837576
O O8 0.311403 0.721722 0.939591
O O9 0.099259 0.553329 0.938446
O O10 0.344124 0.652638 0.851940
O O11 0.067596 0.662043 0.461933
O O12 0.993490 0.872066 0.489294
O O13 0.829760 0.977418 0.976927
O O14 0.500000 0.055379 0.250000
O O15 0.440508 0.180590 0.185062
O O16 0.000000 0.187267 0.750000
#
# Coordination Sequence:
#
# PCOD9259227 Si02
#       8
#     8   8   8   8   8   4   8   8
#     4  10  21  37  58  81 109 150 194 232 278 338
#     4  10  21  38  59  81 109 151 193 230 280 340
#     4   9  19  35  55  80 111 149 187 229 279 333
#     4   9  19  36  59  83 114 150 186 229 283 342
#     4  10  20  37  60  85 112 149 187 228 283 340
#     4  10  18  34  62  90 116 144 184 234 284 338
#     4  10  21  36  53  78 110 144 185 236 284 325
#     4   9  19  37  55  79 114 145 186 240 284 328
#
# _framework density 25.092794000000001
#
# number of rings (size 3 to 8) (size 9 to 14) (size 15 to 20)
#    0.000    2.400    0.000    2.800    0.000    7.467 
#    0.000    9.333    0.000   17.600    0.000    0.000 
#    0.000    0.000    0.000    0.000    0.000    0.000 
#
# Total GULP energy -167370.346609 kJ/mol
# GULP energy per Si atom -5579.011554 kJ/mol
# Density = 2.503568 g / cm^3
# Si number density = 25.092794 Si / 1000 Ang^3
#
#
#
# Elastic Constant Matrix: (Units=GPa)
#
#
# Indices 1 2 3 4 5 6 
#
# 1 35.3412 14.4032 23.6445 0.0000 17.7015 0.0000
# 2 14.4032 172.0992 60.1622 0.0000 -0.8567 0.0000
# 3 23.6445 60.1622 63.9025 0.0000 15.0426 0.0000
# 4 0.0000 0.0000 0.0000 27.6669 0.0000 4.2935
# 5 17.7015 -0.8567 15.0426 0.0000 30.6878 0.0000
# 6 0.0000 0.0000 0.0000 4.2935 0.0000 42.3603
#
#
#
# Elastic Compliance Matrix: (Units=1/GPa)
#
#
# Indices 1 2 3 4 5 6 
#
# 1 0.047270 0.000504 -0.013056 0.000000 -0.020852 0.000000
# 2 0.000504 0.009338 -0.010141 0.000000 0.004941 0.000000
# 3 -0.013056 -0.010141 0.032016 0.000000 -0.008445 0.000000
# 4 0.000000 0.000000 0.000000 0.036722 0.000000 -0.003722
# 5 -0.020852 0.004941 -0.008445 0.000000 0.048892 0.000000
# 6 0.000000 0.000000 0.000000 -0.003722 0.000000 0.023984
#
#
# Mechanical properties :
#
#
# Convention : Reuss Voigt Hill
#
# Bulk Modulus (GPa) = 23.12854 51.97365 37.55110
# Shear Modulus (GPa) = 19.37831 31.68520 25.53175
#
# Velocity S-wave (km/s) = 2.78198 3.55733 3.19328
# Velocity P-wave (km/s) = 4.42227 6.13436 5.34728
#
# Compressibility (1/GPa) = 0.04323662
#
# Stress axis : x y z
#
# Youngs Moduli (GPa) = 21.15523 107.08753 31.23483
#
# Poissons Ratio (x) = -0.05402 0.40782
# Poissons Ratio (y) = -0.01067 0.31676
# Poissons Ratio (z) = 0.27621 1.08600
#
# Static dielectric constant tensor:
#      x y z
#    x 1.954790 0.000000 -0.026580 
#    y 0.000000 1.946870 0.000000 
#    z -0.026580 0.000000 2.022390 
# 
# From -- ./inp_files/307140.got.cif
#   From: 2010.05.17/outbox.cif.g08.bks.cpg/sg15_154_cif.got.tgz:307140.got - 2010.06.03 18:47:42.
