data_PCOD9259142
_publ_section_title
;
Structure prediction by ZEFSAII (Michael W. Deem and Ramdas Pophale) SiO2 
 PCOD9259142
Probable space group: C 2/C
;
_chemical_formula_sum "Si O2"
_cell_formula_units_Z 44
_cell_length_a 13.723378
_cell_length_b 19.053090
_cell_length_c 20.610499
_cell_angle_alpha 90.000000
_cell_angle_beta 24.771670
_cell_angle_gamma 90.000000
_cell_volume 2258.043319
_symmetry_space_group_name_H-M "C 2/C"
_symmetry_group_IT_number 15
_symmetry_cell_setting 'monoclinic'
loop_
_space_group_symop_operation_xyz
x,y,z
-x,y,1/2-z
-x,-y,-z
x,-y,1/2+z
1/2+x,1/2+y,z
1/2-x,1/2+y,1/2-z
1/2-x,1/2-y,-z
1/2+x,1/2-y,1/2+z
loop_
_atom_site_type_symbol
_atom_site_label
_atom_site_fract_x
_atom_site_fract_y
_atom_site_fract_z
Si Si1 0.492216 0.756459 0.179240
Si Si2 0.467491 0.879394 0.107053
Si Si3 0.750287 0.220290 0.872618
Si Si4 0.149620 0.674772 0.298999
Si Si5 0.000000 0.923521 0.750000
Si Si6 0.811613 0.522064 0.169126
O O1 0.500000 0.749588 0.250000
O O2 0.414666 0.831907 0.201092
O O3 0.345299 0.697912 0.231992
O O4 0.750000 0.750000 0.000000
O O5 0.358039 0.835815 0.112795
O O6 0.332153 0.952093 0.198485
O O7 0.747380 0.888642 0.923289
O O8 0.778493 0.292899 0.814339
O O9 0.000000 0.200198 0.750000
O O10 0.574754 0.217397 0.039395
O O11 0.125744 0.591463 0.326944
O O12 0.920048 0.965311 0.733494
O O13 0.000000 0.500000 0.000000
#
# Coordination Sequence:
#
# PCOD9259142 Si02
#       6
#     8   8   8   8   4   8
#     4  11  23  37  64  92 128 160 202 259 312 364
#     4  10  22  37  61  94 120 157 209 256 304 362
#     4  11  23  39  60  86 128 165 206 251 304 369
#     4  11  22  39  59  93 120 163 210 252 306 367
#     4  10  18  34  60  90 122 150 200 258 308 350
#     4  10  20  34  59  88 119 156 204 249 301 362
#
# _framework density 19.485897999999999
#
# number of rings (size 3 to 8) (size 9 to 14) (size 15 to 20)
#    0.000    1.455    3.636    3.818    3.818    0.000 
#    0.000    0.909    0.000   13.091    0.000    0.000 
#    0.000    0.000    0.000    0.000    0.000    0.000 
#
# Total GULP energy -122509.837136 kJ/mol
# GULP energy per Si atom -5568.628961 kJ/mol
# Density = 1.944155 g / cm^3
# Si number density = 19.485898 Si / 1000 Ang^3
#
#
#
# Elastic Constant Matrix: (Units=GPa)
#
#
# Indices 1 2 3 4 5 6 
#
# 1 55.6016 22.1897 18.2761 -0.0142 -19.6808 -0.0049
# 2 22.1897 146.6430 18.2990 -0.0525 -1.6346 0.0214
# 3 18.2761 18.2990 63.0210 -0.0738 -25.3431 0.0115
# 4 -0.0142 -0.0525 -0.0738 19.8032 -0.0089 3.2188
# 5 -19.6808 -1.6346 -25.3431 -0.0089 35.0208 0.0085
# 6 -0.0049 0.0214 0.0115 3.2188 0.0085 22.3935
#
#
#
# Elastic Compliance Matrix: (Units=1/GPa)
#
#
# Indices 1 2 3 4 5 6 
#
# 1 0.024156 -0.003403 -0.000877 0.000010 0.012781 0.000003
# 2 -0.003403 0.007622 -0.002612 0.000008 -0.003447 -0.000006
# 3 -0.000877 -0.002612 0.023461 0.000092 0.016363 -0.000029
# 4 0.000010 0.000008 0.000092 0.051705 0.000088 -0.007432
# 5 0.012781 -0.003447 0.016363 0.000088 0.047418 -0.000033
# 6 0.000003 -0.000006 -0.000029 -0.007432 -0.000033 0.045724
#
#
# Mechanical properties :
#
#
# Convention : Reuss Voigt Hill
#
# Bulk Modulus (GPa) = 24.12379 42.53279 33.32829
# Shear Modulus (GPa) = 21.95981 29.21021 25.58501
#
# Velocity S-wave (km/s) = 3.36066 3.87595 3.62747
# Velocity P-wave (km/s) = 5.24078 6.47345 5.88945
#
# Compressibility (1/GPa) = 0.04145285
#
# Stress axis : x y z
#
# Youngs Moduli (GPa) = 41.39812 131.20216 42.62408
#
# Poissons Ratio (x) = 0.44651 0.03739
# Poissons Ratio (y) = 0.14089 0.11135
# Poissons Ratio (z) = 0.03631 0.34276
#
# Static dielectric constant tensor:
#      x y z
#    x 1.726790 0.000040 0.020530 
#    y 0.000040 1.823220 0.000070 
#    z 0.020530 0.000070 1.723600 
# 
# From -- ./inp_files/274986.got.cif
#   From: 2010.05.17/outbox.cif.g08.bks.cpg/sg15_138_cif.got.tgz:274986.got - 2010.06.03 18:47:42.
