data_PCOD9259923
_publ_section_title
;
Structure prediction by ZEFSAII (Michael W. Deem and Ramdas Pophale) SiO2 
 PCOD9259923
Probable space group: C 2/C
;
_chemical_formula_sum "Si O2"
_cell_formula_units_Z 48
_cell_length_a 29.142897
_cell_length_b 17.877797
_cell_length_c 15.994538
_cell_angle_alpha 90.000000
_cell_angle_beta 18.177906
_cell_angle_gamma 90.000000
_cell_volume 2599.736133
_symmetry_space_group_name_H-M "C 2/C"
_symmetry_group_IT_number 15
_symmetry_cell_setting 'monoclinic'
loop_
_space_group_symop_operation_xyz
x,y,z
-x,y,1/2-z
-x,-y,-z
x,-y,1/2+z
1/2+x,1/2+y,z
1/2-x,1/2+y,1/2-z
1/2-x,1/2-y,-z
1/2+x,1/2-y,1/2+z
loop_
_atom_site_type_symbol
_atom_site_label
_atom_site_fract_x
_atom_site_fract_y
_atom_site_fract_z
Si Si1 0.870278 0.785542 0.730735
Si Si2 0.087417 0.944552 0.760503
Si Si3 0.200720 0.285052 0.323637
Si Si4 0.301078 0.271715 0.320510
Si Si5 0.500000 0.637781 0.250000
Si Si6 0.000000 0.410873 0.750000
Si Si7 0.726058 0.450868 0.132266
O O1 0.879897 0.873965 0.734667
O O2 0.841157 0.763326 0.684779
O O3 0.028255 0.752240 0.482508
O O4 0.750000 0.750000 0.000000
O O5 0.082296 0.911289 0.677114
O O6 0.203668 0.008283 0.582868
O O7 0.921406 0.974803 0.062889
O O8 0.208676 0.244590 0.400371
O O9 0.089303 0.355062 0.532167
O O10 0.368030 0.314901 0.019947
O O11 0.250000 0.250000 0.500000
O O12 0.286565 0.361534 0.346679
O O13 0.119441 0.461757 0.590178
#
# Coordination Sequence:
#
# PCOD9259923 Si02
#       7
#     8   8   8   8   4   4   8
#     4  11  19  32  57  83 109 141 190 238 271 331
#     4  10  20  36  58  82 114 154 187 230 286 345
#     4  11  20  34  58  85 110 148 195 229 284 345
#     4  10  20  37  57  81 113 151 183 232 287 335
#     4  12  18  38  59  83 108 160 190 220 296 352
#     4  10  18  36  59  81 108 150 184 242 284 338
#     4   9  19  37  57  80 111 152 188 229 282 343
#
# _framework density 18.463412000000002
#
# number of rings (size 3 to 8) (size 9 to 14) (size 15 to 20)
#    0.000    1.667    6.667    2.000    0.000    0.000 
#    0.000    8.333    0.000    0.000    0.000    0.000 
#    0.000    0.000    0.000    0.000    0.000    0.000 
#
# Total GULP energy -133634.819509 kJ/mol
# GULP energy per Si atom -5568.117480 kJ/mol
# Density = 1.842139 g / cm^3
# Si number density = 18.463412 Si / 1000 Ang^3
#
#
#
# Elastic Constant Matrix: (Units=GPa)
#
#
# Indices 1 2 3 4 5 6 
#
# 1 179.9377 38.9197 29.1447 0.0003 -14.3989 -0.0001
# 2 38.9197 28.0157 10.5939 0.0007 -6.9247 -0.0003
# 3 29.1447 10.5939 88.0711 0.0009 -19.1586 -0.0005
# 4 0.0003 0.0007 0.0009 16.0441 -0.0003 -3.9792
# 5 -14.3989 -6.9247 -19.1586 -0.0003 34.2357 0.0002
# 6 -0.0001 -0.0003 -0.0005 -3.9792 0.0002 33.5068
#
#
#
# Elastic Compliance Matrix: (Units=1/GPa)
#
#
# Indices 1 2 3 4 5 6 
#
# 1 0.008113 -0.010651 -0.001286 0.000000 0.000538 0.000000
# 2 -0.010651 0.052398 -0.001648 -0.000002 0.005197 0.000000
# 3 -0.001286 -0.001648 0.013422 -0.000001 0.006637 0.000000
# 4 0.000000 -0.000002 -0.000001 0.064220 0.000000 0.007627
# 5 0.000538 0.005197 0.006637 0.000000 0.034200 0.000000
# 6 0.000000 0.000000 0.000000 0.007627 0.000000 0.030750
#
#
# Mechanical properties :
#
#
# Convention : Reuss Voigt Hill
#
# Bulk Modulus (GPa) = 21.38464 50.37124 35.87794
# Shear Modulus (GPa) = 20.33670 31.24840 25.79255
#
# Velocity S-wave (km/s) = 3.32242 4.11840 3.74164
# Velocity P-wave (km/s) = 5.13082 7.06795 6.17581
#
# Compressibility (1/GPa) = 0.04676254
#
# Stress axis : x y z
#
# Youngs Moduli (GPa) = 123.26536 19.08473 74.50377
#
# Poissons Ratio (x) = 0.20327 0.09585
# Poissons Ratio (y) = 1.31286 0.12277
# Poissons Ratio (z) = 0.15858 0.03145
#
# Static dielectric constant tensor:
#      x y z
#    x 1.759680 0.000000 0.027090 
#    y 0.000000 1.655090 0.000000 
#    z 0.027090 0.000000 1.725560 
# 
# From -- ./inp_files/178923.got.cif
#   From: 2010.05.17/outbox.cif.g08.bks.cpg/sg15_90_cif.got.tgz:178923.got - 2010.06.03 18:47:42.
