data_PCOD9259241
_publ_section_title
;
Structure prediction by ZEFSAII (Michael W. Deem and Ramdas Pophale) SiO2 
 PCOD9259241
Probable space group: C 2/C
;
_chemical_formula_sum "Si O2"
_cell_formula_units_Z 64
_cell_length_a 18.520551
_cell_length_b 9.396072
_cell_length_c 30.321105
_cell_angle_alpha 90.000000
_cell_angle_beta 144.382175
_cell_angle_gamma 90.000000
_cell_volume 3072.901641
_symmetry_space_group_name_H-M "C 2/C"
_symmetry_group_IT_number 15
_symmetry_cell_setting 'monoclinic'
loop_
_space_group_symop_operation_xyz
x,y,z
-x,y,1/2-z
-x,-y,-z
x,-y,1/2+z
1/2+x,1/2+y,z
1/2-x,1/2+y,1/2-z
1/2-x,1/2-y,-z
1/2+x,1/2-y,1/2+z
loop_
_atom_site_type_symbol
_atom_site_label
_atom_site_fract_x
_atom_site_fract_y
_atom_site_fract_z
Si Si1 0.216618 0.412930 0.178957
Si Si2 0.685573 0.402107 0.129620
Si Si3 0.385938 0.737718 0.548762
Si Si4 0.711403 0.171788 0.349648
Si Si5 0.446464 0.505889 0.346718
Si Si6 0.922191 0.314053 0.301385
Si Si7 0.534614 0.868344 0.548789
Si Si8 0.478766 0.100740 0.172738
O O1 0.222124 0.305924 0.139956
O O2 0.356468 0.436812 0.265144
O O3 0.142354 0.353779 0.184111
O O4 0.144720 0.557722 0.131873
O O5 0.705857 0.530873 0.106126
O O6 0.631287 0.483209 0.146319
O O7 0.812949 0.328024 0.210425
O O8 0.598468 0.279958 0.066129
O O9 0.250000 0.750000 0.500000
O O10 0.430275 0.577683 0.578864
O O11 0.415431 0.808879 0.516504
O O12 0.478912 0.827303 0.625727
O O13 0.605214 0.130652 0.261149
O O14 0.632073 0.174947 0.355016
O O15 0.472357 0.658917 0.338261
O O16 0.023367 0.430955 0.336363
O O17 0.500000 0.000000 0.500000
#
# Coordination Sequence:
#
# PCOD9259241 Si02
#       8
#     8   8   8   8   8   8   8   8
#     4  11  19  35  65  94 117 153 211 264 305 362
#     4   9  19  34  60  91 120 150 196 264 309 349
#     4  11  24  43  59  85 128 170 202 245 315 386
#     4  10  20  36  62  92 121 153 199 258 314 364
#     4  10  19  35  64  94 114 153 211 260 304 363
#     4  10  18  34  62  94 117 147 209 262 308 354
#     4  11  24  41  60  89 125 164 206 255 309 368
#     4  10  21  38  59  88 126 162 192 248 319 372
#
# _framework density 20.827220000000001
#
# number of rings (size 3 to 8) (size 9 to 14) (size 15 to 20)
#    0.000    1.750    5.000    0.000    1.750    0.000 
#    2.250    2.500    2.750    0.000    0.000    0.000 
#    0.000    0.000    0.000    0.000    0.000    0.000 
#
# Total GULP energy -178203.213307 kJ/mol
# GULP energy per Si atom -5568.850416 kJ/mol
# Density = 2.077982 g / cm^3
# Si number density = 20.827220 Si / 1000 Ang^3
#
#
#
# Elastic Constant Matrix: (Units=GPa)
#
#
# Indices 1 2 3 4 5 6 
#
# 1 46.9182 16.2286 5.6762 0.0000 14.6246 0.0000
# 2 16.2286 85.0470 -0.0029 0.0000 9.2801 0.0000
# 3 5.6762 -0.0029 23.9916 0.0000 -3.7943 0.0000
# 4 0.0000 0.0000 0.0000 24.5416 0.0000 -0.6066
# 5 14.6246 9.2801 -3.7943 0.0000 27.7877 0.0000
# 6 0.0000 0.0000 0.0000 -0.6066 0.0000 29.4380
#
#
#
# Elastic Compliance Matrix: (Units=1/GPa)
#
#
# Indices 1 2 3 4 5 6 
#
# 1 0.028366 -0.003787 -0.009068 0.000000 -0.014902 0.000000
# 2 -0.003787 0.012719 0.000553 0.000000 -0.002179 0.000000
# 3 -0.009068 0.000553 0.045536 0.000000 0.010806 0.000000
# 4 0.000000 0.000000 0.000000 0.040768 0.000000 0.000840
# 5 -0.014902 -0.002179 0.010806 0.000000 0.046033 0.000000
# 6 0.000000 0.000000 0.000000 0.000840 0.000000 0.033987
#
#
# Mechanical properties :
#
#
# Convention : Reuss Voigt Hill
#
# Bulk Modulus (GPa) = 16.12506 22.19561 19.16033
# Shear Modulus (GPa) = 19.78748 25.29045 22.53897
#
# Velocity S-wave (km/s) = 3.08568 3.48846 3.29323
# Velocity P-wave (km/s) = 4.52264 5.18709 4.86622
#
# Compressibility (1/GPa) = 0.06201529
#
# Stress axis : x y z
#
# Youngs Moduli (GPa) = 35.25378 78.62492 21.96077
#
# Poissons Ratio (x) = 0.29775 0.19915
# Poissons Ratio (y) = 0.13350 -0.01214
# Poissons Ratio (z) = 0.31969 -0.04347
#
# Static dielectric constant tensor:
#      x y z
#    x 1.766480 0.000000 -0.005130 
#    y 0.000000 1.783130 0.000000 
#    z -0.005130 0.000000 1.789900 
# 
# From -- ./inp_files/315727.got.cif
#   From: 2010.05.17/outbox.cif.g08.bks.cpg/sg15_158_cif.got.tgz:315727.got - 2010.06.03 18:47:42.
