data_PCOD9259330
_publ_section_title
;
Structure prediction by ZEFSAII (Michael W. Deem and Ramdas Pophale) SiO2 
 PCOD9259330
Probable space group: C 2/C
;
_chemical_formula_sum "Si O2"
_cell_formula_units_Z 56
_cell_length_a 26.664283
_cell_length_b 13.199291
_cell_length_c 9.607452
_cell_angle_alpha 90.000000
_cell_angle_beta 75.454122
_cell_angle_gamma 90.000000
_cell_volume 3272.956594
_symmetry_space_group_name_H-M "C 2/C"
_symmetry_group_IT_number 15
_symmetry_cell_setting 'monoclinic'
loop_
_space_group_symop_operation_xyz
x,y,z
-x,y,1/2-z
-x,-y,-z
x,-y,1/2+z
1/2+x,1/2+y,z
1/2-x,1/2+y,1/2-z
1/2-x,1/2-y,-z
1/2+x,1/2-y,1/2+z
loop_
_atom_site_type_symbol
_atom_site_label
_atom_site_fract_x
_atom_site_fract_y
_atom_site_fract_z
Si Si1 0.127684 0.393538 0.677727
Si Si2 0.806445 0.930457 0.085376
Si Si3 0.327065 0.382724 0.757815
Si Si4 0.376586 0.185794 0.615949
Si Si5 0.308575 0.081121 0.879610
Si Si6 0.462306 0.971119 0.150333
Si Si7 0.209305 0.298334 0.835998
O O1 0.122222 0.318768 0.551605
O O2 0.151725 0.496644 0.597110
O O3 0.074903 0.433665 0.784294
O O4 0.169051 0.352029 0.760122
O O5 0.747893 0.966238 0.093644
O O6 0.798054 0.822303 0.166900
O O7 0.831597 0.015662 0.163315
O O8 0.831932 0.909818 0.917578
O O9 0.367609 0.298039 0.679987
O O10 0.268676 0.335766 0.775553
O O11 0.328949 0.122783 0.718574
O O12 0.426103 0.123646 0.635853
O O13 0.304806 0.169144 0.996205
O O14 0.500000 0.945577 0.250000
O O15 0.500000 0.000000 0.000000
#
# Coordination Sequence:
#
# PCOD9259330 Si02
#       7
#     8   8   8   8   8   8   8
#     4  11  23  33  60  88 121 154 196 240 302 357
#     4  11  22  35  53  79 118 167 208 237 282 340
#     4  11  23  37  55  81 122 164 207 246 279 356
#     4  11  22  37  56  85 121 154 194 244 304 349
#     4  10  18  35  51  79 119 163 200 239 278 350
#     4  11  23  42  63  93 120 148 193 252 310 363
#     4  11  21  36  53  83 122 168 200 237 295 346
#
# _framework density 17.109912999999999
#
# number of rings (size 3 to 8) (size 9 to 14) (size 15 to 20)
#    0.000    1.143    5.714    2.571    6.000    0.571 
#    0.000    0.000    0.000    0.000    0.000    5.000 
#    0.000    0.000    0.000    0.000    0.000    0.000 
#
# Total GULP energy -156211.401155 kJ/mol
# GULP energy per Si atom -5578.978613 kJ/mol
# Density = 1.707097 g / cm^3
# Si number density = 17.109913 Si / 1000 Ang^3
#
#
#
# Elastic Constant Matrix: (Units=GPa)
#
#
# Indices 1 2 3 4 5 6 
#
# 1 60.6469 15.3601 38.3381 0.0000 -2.2482 0.0000
# 2 15.3601 100.4469 46.5131 0.0000 -7.1923 0.0000
# 3 38.3381 46.5131 96.1817 0.0000 -3.5797 0.0000
# 4 0.0000 0.0000 0.0000 27.9100 0.0000 -1.7815
# 5 -2.2482 -7.1923 -3.5797 0.0000 27.7304 0.0000
# 6 0.0000 0.0000 0.0000 -1.7815 0.0000 24.7186
#
#
#
# Elastic Compliance Matrix: (Units=1/GPa)
#
#
# Indices 1 2 3 4 5 6 
#
# 1 0.022126 0.000962 -0.009253 0.000000 0.000849 0.000000
# 2 0.000962 0.013050 -0.006597 0.000000 0.002611 0.000000
# 3 -0.009253 -0.006597 0.017267 0.000000 -0.000232 0.000000
# 4 0.000000 0.000000 0.000000 0.035995 0.000000 0.002594
# 5 0.000849 0.002611 -0.000232 0.000000 0.036778 0.000000
# 6 0.000000 0.000000 0.000000 0.002594 0.000000 0.040642
#
#
# Mechanical properties :
#
#
# Convention : Reuss Voigt Hill
#
# Bulk Modulus (GPa) = 44.11767 50.85535 47.48651
# Shear Modulus (GPa) = 24.60738 26.54274 25.57506
#
# Velocity S-wave (km/s) = 3.79647 3.94294 3.87040
# Velocity P-wave (km/s) = 6.71255 7.10748 6.91284
#
# Compressibility (1/GPa) = 0.02266665
#
# Stress axis : x y z
#
# Youngs Moduli (GPa) = 45.19549 76.62626 57.91346
#
# Poissons Ratio (x) = -0.07372 0.53588
# Poissons Ratio (y) = -0.04348 0.38208
# Poissons Ratio (z) = 0.41820 0.50553
#
# Static dielectric constant tensor:
#      x y z
#    x 1.560850 0.000000 0.001920 
#    y 0.000000 1.597920 0.000000 
#    z 0.001920 0.000000 1.584010 
# 
# From -- ./inp_files/65417.got.cif
#   From: 2010.05.17/outbox.cif.g08.bks.cpg/sg15_33_cif.got.tgz:65417.got - 2010.06.03 18:47:42.
