data_PCOD9259537
_publ_section_title
;
Structure prediction by ZEFSAII (Michael W. Deem and Ramdas Pophale) SiO2 
 PCOD9259537
Probable space group: C 2/C
;
_chemical_formula_sum "Si O2"
_cell_formula_units_Z 56
_cell_length_a 11.022029
_cell_length_b 15.078465
_cell_length_c 26.121042
_cell_angle_alpha 90.000000
_cell_angle_beta 137.129040
_cell_angle_gamma 90.000000
_cell_volume 2953.529052
_symmetry_space_group_name_H-M "C 2/C"
_symmetry_group_IT_number 15
_symmetry_cell_setting 'monoclinic'
loop_
_space_group_symop_operation_xyz
x,y,z
-x,y,1/2-z
-x,-y,-z
x,-y,1/2+z
1/2+x,1/2+y,z
1/2-x,1/2+y,1/2-z
1/2-x,1/2-y,-z
1/2+x,1/2-y,1/2+z
loop_
_atom_site_type_symbol
_atom_site_label
_atom_site_fract_x
_atom_site_fract_y
_atom_site_fract_z
Si Si1 0.844853 0.635924 0.541332
Si Si2 0.535712 0.371871 0.321681
Si Si3 0.380956 0.445660 0.765228
Si Si4 0.017436 0.808936 0.613931
Si Si5 0.032782 0.438156 0.894185
Si Si6 0.933918 0.399448 0.483360
Si Si7 0.120857 0.317346 0.834488
O O1 0.634768 0.644224 0.467568
O O2 0.930058 0.714165 0.601455
O O3 0.904260 0.538952 0.577300
O O4 0.931714 0.652453 0.511746
O O5 0.500000 0.368019 0.250000
O O6 0.417388 0.456360 0.301150
O O7 0.736997 0.395627 0.399281
O O8 0.524100 0.267506 0.331542
O O9 0.500000 0.438986 0.750000
O O10 0.434890 0.370906 0.823062
O O11 0.175401 0.438210 0.685316
O O12 0.193366 0.791855 0.634543
O O13 0.141107 0.393051 0.882241
O O14 0.061377 0.381752 0.954999
O O15 0.000000 0.500000 0.500000
O O16 0.000000 0.348720 0.750000
#
# Coordination Sequence:
#
# PCOD9259537 Si02
#       7
#     8   8   8   8   8   8   8
#     4  10  21  39  62  89 120 162 201 251 309 359
#     4  10  20  36  62  85 117 157 202 246 297 356
#     4  11  21  36  63  92 115 158 206 256 300 349
#     4  11  22  40  65  85 124 162 202 246 308 374
#     4  11  23  36  62  90 125 152 204 259 297 359
#     4  10  18  35  59  90 114 147 202 255 288 345
#     4  11  23  41  60  91 121 164 200 243 306 374
#
# _framework density 18.960370000000001
#
# number of rings (size 3 to 8) (size 9 to 14) (size 15 to 20)
#    0.000    1.429    2.857    6.000    2.000    1.143 
#    0.000    0.714    6.286    0.000    0.000    0.000 
#    0.000    0.000    0.000    0.000    0.000    0.000 
#
# Total GULP energy -156055.892658 kJ/mol
# GULP energy per Si atom -5573.424738 kJ/mol
# Density = 1.891722 g / cm^3
# Si number density = 18.960370 Si / 1000 Ang^3
#
#
#
# Elastic Constant Matrix: (Units=GPa)
#
#
# Indices 1 2 3 4 5 6 
#
# 1 36.1957 12.9273 26.0753 0.0000 -3.6415 0.0000
# 2 12.9273 102.8180 38.6907 0.0000 -22.8535 0.0000
# 3 26.0753 38.6907 121.6253 0.0000 8.5793 0.0000
# 4 0.0000 0.0000 0.0000 10.7525 0.0000 24.3766
# 5 -3.6415 -22.8535 8.5793 0.0000 23.5294 0.0000
# 6 0.0000 0.0000 0.0000 24.3766 0.0000 -2.9739
#
#
#
# Elastic Compliance Matrix: (Units=1/GPa)
#
#
# Indices 1 2 3 4 5 6 
#
# 1 0.034177 0.000819 -0.008228 0.000000 0.009085 0.000000
# 2 0.000819 0.016159 -0.006602 0.000000 0.018228 0.000000
# 3 -0.008228 -0.006602 0.012962 0.000000 -0.012412 0.000000
# 4 0.000000 0.000000 0.000000 0.004749 0.000000 0.038928
# 5 0.009085 0.018228 -0.012412 0.000000 0.066136 0.000000
# 6 0.000000 0.000000 0.000000 0.038928 0.000000 -0.017171
#
#
# Mechanical properties :
#
#
# Convention : Reuss Voigt Hill
#
# Bulk Modulus (GPa) = 28.34910 46.22504 37.28707
# Shear Modulus (GPa) = 31.88916 18.45799 25.17357
#
# Velocity S-wave (km/s) = 4.10553 3.12349 3.64771
# Velocity P-wave (km/s) = 6.12030 6.11890 6.11960
#
# Compressibility (1/GPa) = 0.03527449
#
# Stress axis : x y z
#
# Youngs Moduli (GPa) = 29.25946 61.88540 77.15066
#
# Poissons Ratio (x) = -0.05066 0.63483
# Poissons Ratio (y) = -0.02395 0.50932
# Poissons Ratio (z) = 0.24076 0.40855
#
# Static dielectric constant tensor:
#      x y z
#    x 1.706290 0.000000 -0.016870 
#    y 0.000000 1.716830 0.000000 
#    z -0.016870 0.000000 1.663270 
# 
# From -- ./inp_files/292913.got.cif
#   From: 2010.05.17/outbox.cif.g08.bks.cpg/sg15_147_cif.got.tgz:292913.got - 2010.06.03 18:47:42.
