data_PCOD9259925
_publ_section_title
;
Structure prediction by ZEFSAII (Michael W. Deem and Ramdas Pophale) SiO2 
 PCOD9259925
Probable space group: C 2/C
;
_chemical_formula_sum "Si O2"
_cell_formula_units_Z 48
_cell_length_a 25.681666
_cell_length_b 9.115338
_cell_length_c 14.019769
_cell_angle_alpha 90.000000
_cell_angle_beta 35.821496
_cell_angle_gamma 90.000000
_cell_volume 1920.821907
_symmetry_space_group_name_H-M "C 2/C"
_symmetry_group_IT_number 15
_symmetry_cell_setting 'monoclinic'
loop_
_space_group_symop_operation_xyz
x,y,z
-x,y,1/2-z
-x,-y,-z
x,-y,1/2+z
1/2+x,1/2+y,z
1/2-x,1/2+y,1/2-z
1/2-x,1/2-y,-z
1/2+x,1/2-y,1/2+z
loop_
_atom_site_type_symbol
_atom_site_label
_atom_site_fract_x
_atom_site_fract_y
_atom_site_fract_z
Si Si1 0.099691 0.851806 0.558856
Si Si2 0.813906 0.054186 0.950778
Si Si3 0.374068 0.927597 0.599136
Si Si4 0.194035 0.363457 0.453386
Si Si5 0.489718 0.593787 0.920809
Si Si6 0.954601 0.592839 0.177746
O O1 0.136732 0.731563 0.431437
O O2 0.000000 0.816240 0.750000
O O3 0.176269 0.892090 0.520836
O O4 0.083549 0.006104 0.528584
O O5 0.788051 0.188896 0.060579
O O6 0.916576 0.084428 0.771738
O O7 0.762049 0.065365 0.928160
O O8 0.381291 0.928937 0.703174
O O9 0.313853 0.048210 0.633871
O O10 0.477727 0.960825 0.420187
O O11 0.097784 0.386671 0.646721
O O12 0.483164 0.767559 0.942664
O O13 0.500000 0.500000 0.000000
#
# Coordination Sequence:
#
# PCOD9259925 Si02
#       6
#     8   8   8   8   8   8
#     4  10  19  33  57  85 109 144 190 237 282 330
#     4   9  21  37  58  79 112 152 191 223 291 345
#     4  11  21  35  58  85 113 147 190 239 281 330
#     4  10  20  40  57  79 118 155 184 230 284 350
#     4  10  18  36  59  82 109 143 187 241 277 337
#     4  10  21  36  58  86 112 150 191 230 287 338
#
# _framework density 24.989304000000001
#
# number of rings (size 3 to 8) (size 9 to 14) (size 15 to 20)
#    0.000    2.000    1.667    2.500    0.000    3.333 
#    3.000    0.000    0.000    0.000    0.000    0.000 
#    0.000    0.000    0.000    0.000    0.000    0.000 
#
# Total GULP energy -134056.503437 kJ/mol
# GULP energy per Si atom -5585.687643 kJ/mol
# Density = 2.493243 g / cm^3
# Si number density = 24.989304 Si / 1000 Ang^3
#
#
#
# Elastic Constant Matrix: (Units=GPa)
#
#
# Indices 1 2 3 4 5 6 
#
# 1 135.2758 58.9487 0.9695 0.0000 4.6829 0.0000
# 2 58.9487 83.6322 8.9188 -0.0001 -0.3674 0.0001
# 3 0.9695 8.9188 39.3712 0.0000 5.1869 0.0000
# 4 0.0000 -0.0001 0.0000 18.8276 0.0001 4.8393
# 5 4.6829 -0.3674 5.1869 0.0001 38.9011 0.0000
# 6 0.0000 0.0001 0.0000 4.8393 0.0000 45.5316
#
#
#
# Elastic Compliance Matrix: (Units=1/GPa)
#
#
# Indices 1 2 3 4 5 6 
#
# 1 0.010852 -0.007840 0.001721 0.000000 -0.001610 0.000000
# 2 -0.007840 0.017926 -0.004086 0.000000 0.001658 0.000000
# 3 0.001721 -0.004086 0.026785 0.000000 -0.003817 0.000000
# 4 0.000000 0.000000 0.000000 0.054605 0.000000 -0.005804
# 5 -0.001610 0.001658 -0.003817 0.000000 0.026425 0.000000
# 6 0.000000 0.000000 0.000000 -0.005804 0.000000 0.022580
#
#
# Mechanical properties :
#
#
# Convention : Reuss Voigt Hill
#
# Bulk Modulus (GPa) = 28.44681 43.99480 36.22080
# Shear Modulus (GPa) = 26.13684 33.28152 29.70918
#
# Velocity S-wave (km/s) = 3.23758 3.65338 3.45175
# Velocity P-wave (km/s) = 5.03827 5.95315 5.51471
#
# Compressibility (1/GPa) = 0.03515333
#
# Stress axis : x y z
#
# Youngs Moduli (GPa) = 92.14915 55.78486 37.33372
#
# Poissons Ratio (x) = 0.43733 -0.06424
# Poissons Ratio (y) = 0.72242 0.15255
# Poissons Ratio (z) = -0.15857 0.22795
#
# Static dielectric constant tensor:
#      x y z
#    x 2.083360 0.000000 0.049800 
#    y 0.000000 2.087740 0.000000 
#    z 0.049800 0.000000 2.066320 
# 
# From -- ./inp_files/176913.got.cif
#   From: 2010.05.17/outbox.cif.g08.bks.cpg/sg15_89_cif.got.tgz:176913.got - 2010.06.03 18:47:42.
