data_PCOD9259627
_publ_section_title
;
Structure prediction by ZEFSAII (Michael W. Deem and Ramdas Pophale) SiO2 
 PCOD9259627
Probable space group: C 2/C
;
_chemical_formula_sum "Si O2"
_cell_formula_units_Z 32
_cell_length_a 11.896751
_cell_length_b 17.929727
_cell_length_c 9.001882
_cell_angle_alpha 90.000000
_cell_angle_beta 41.810430
_cell_angle_gamma 90.000000
_cell_volume 1280.103488
_symmetry_space_group_name_H-M "C 2/C"
_symmetry_group_IT_number 15
_symmetry_cell_setting 'monoclinic'
loop_
_space_group_symop_operation_xyz
x,y,z
-x,y,1/2-z
-x,-y,-z
x,-y,1/2+z
1/2+x,1/2+y,z
1/2-x,1/2+y,1/2-z
1/2-x,1/2-y,-z
1/2+x,1/2-y,1/2+z
loop_
_atom_site_type_symbol
_atom_site_label
_atom_site_fract_x
_atom_site_fract_y
_atom_site_fract_z
Si Si1 0.212282 0.593667 0.366750
Si Si2 0.191432 0.028632 0.533072
Si Si3 0.189804 0.261370 0.730185
Si Si4 0.121983 0.633302 0.919855
O O1 0.287284 0.556279 0.437084
O O2 0.275003 0.674331 0.248779
O O3 0.007498 0.594456 0.565482
O O4 0.266581 0.539583 0.178897
O O5 0.319071 0.079175 0.505765
O O6 0.000000 0.053464 0.750000
O O7 0.250000 0.250000 0.500000
O O8 0.214537 0.181433 0.783501
O O9 0.005083 0.298537 0.908938
#
# Coordination Sequence:
#
# PCOD9259627 Si02
#       4
#     8   8   8   8
#     4  10  24  39  65  92 123 162 206 252 307 360
#     4  12  23  40  59  96 128 162 199 251 311 364
#     4  10  18  35  61  94 114 151 212 259 290 346
#     4  10  22  36  64  91 121 159 209 257 300 354
#
# _framework density 24.997979000000001
#
# number of rings (size 3 to 8) (size 9 to 14) (size 15 to 20)
#    1.500    0.000    2.500    4.500    3.500    0.000 
#    0.000    0.000    0.000    6.000    0.000    0.000 
#    0.000    0.000    0.000    0.000    0.000    0.000 
#
# Total GULP energy -89177.689254 kJ/mol
# GULP energy per Si atom -5573.605578 kJ/mol
# Density = 2.494108 g / cm^3
# Si number density = 24.997979 Si / 1000 Ang^3
#
#
#
# Elastic Constant Matrix: (Units=GPa)
#
#
# Indices 1 2 3 4 5 6 
#
# 1 60.1936 11.9527 23.6733 0.0000 -23.7927 0.0000
# 2 11.9527 84.5383 31.1190 0.0000 9.4329 0.0000
# 3 23.6733 31.1190 67.9602 0.0000 -6.4129 0.0000
# 4 0.0000 0.0000 0.0000 32.0679 0.0000 -13.6443
# 5 -23.7927 9.4329 -6.4129 0.0000 36.6091 0.0000
# 6 0.0000 0.0000 0.0000 -13.6443 0.0000 46.9819
#
#
#
# Elastic Compliance Matrix: (Units=1/GPa)
#
#
# Indices 1 2 3 4 5 6 
#
# 1 0.026358 -0.003400 -0.006025 0.000000 0.016951 0.000000
# 2 -0.003400 0.015581 -0.006647 0.000000 -0.007389 0.000000
# 3 -0.006025 -0.006647 0.019980 0.000000 0.001297 0.000000
# 4 0.000000 0.000000 0.000000 0.035580 0.000000 0.010333
# 5 0.016951 -0.007389 0.001297 0.000000 0.040463 0.000000
# 6 0.000000 0.000000 0.000000 0.010333 0.000000 0.024286
#
#
# Mechanical properties :
#
#
# Convention : Reuss Voigt Hill
#
# Bulk Modulus (GPa) = 33.58721 38.46467 36.02594
# Shear Modulus (GPa) = 24.47161 32.86158 28.66660
#
# Velocity S-wave (km/s) = 3.13220 3.62963 3.39005
# Velocity P-wave (km/s) = 5.15229 5.74336 5.45583
#
# Compressibility (1/GPa) = 0.02977324
#
# Stress axis : x y z
#
# Youngs Moduli (GPa) = 37.93897 64.18011 50.05125
#
# Poissons Ratio (x) = 0.21823 0.30156
# Poissons Ratio (y) = 0.12900 0.33271
# Poissons Ratio (z) = 0.22859 0.42663
#
# Static dielectric constant tensor:
#      x y z
#    x 2.055350 0.000000 -0.031120 
#    y 0.000000 2.168450 0.000000 
#    z -0.031120 0.000000 2.101540 
# 
# From -- ./inp_files/29626.got.cif
#   From: 2010.05.17/outbox.cif.g08.bks.cpg/sg15_15_cif.got.tgz:29626.got - 2010.06.03 18:47:42.
