data_PCOD9259793
_publ_section_title
;
Structure prediction by ZEFSAII (Michael W. Deem and Ramdas Pophale) SiO2 
 PCOD9259793
Probable space group: C 2/C
;
_chemical_formula_sum "Si O2"
_cell_formula_units_Z 44
_cell_length_a 10.661233
_cell_length_b 13.424260
_cell_length_c 21.245416
_cell_angle_alpha 90.000000
_cell_angle_beta 34.035753
_cell_angle_gamma 90.000000
_cell_volume 1701.869240
_symmetry_space_group_name_H-M "C 2/C"
_symmetry_group_IT_number 15
_symmetry_cell_setting 'monoclinic'
loop_
_space_group_symop_operation_xyz
x,y,z
-x,y,1/2-z
-x,-y,-z
x,-y,1/2+z
1/2+x,1/2+y,z
1/2-x,1/2+y,1/2-z
1/2-x,1/2-y,-z
1/2+x,1/2-y,1/2+z
loop_
_atom_site_type_symbol
_atom_site_label
_atom_site_fract_x
_atom_site_fract_y
_atom_site_fract_z
Si Si1 0.188897 0.984011 0.055403
Si Si2 0.419238 0.872047 0.863814
Si Si3 0.006610 0.350998 0.439129
Si Si4 0.208751 0.430999 0.234760
Si Si5 0.000000 0.191110 0.750000
Si Si6 0.080178 0.132800 0.983742
O O1 0.240295 0.859965 0.139310
O O2 0.941961 0.948649 0.175611
O O3 0.343227 0.893115 0.966669
O O4 0.337017 0.062867 0.031376
O O5 0.583934 0.963379 0.780845
O O6 0.127224 0.052032 0.018235
O O7 0.181460 0.875231 0.926970
O O8 0.053529 0.364874 0.344646
O O9 0.904265 0.244925 0.498114
O O10 0.471229 0.231148 0.202824
O O11 0.274441 0.386888 0.139684
#
# Coordination Sequence:
#
# PCOD9259793 Si02
#       6
#     8   8   8   8   4   8
#     4  10  19  33  54  85 113 146 192 236 279 334
#     4   9  17  30  54  82 110 147 187 223 276 339
#     4  10  22  35  54  86 115 146 190 236 281 335
#     4  10  19  35  60  86 115 151 184 230 285 333
#     4  10  18  36  56  78 114 148 180 236 282 322
#     4  10  19  33  55  89 120 143 183 237 284 333
#
# _framework density 25.853926999999999
#
# number of rings (size 3 to 8) (size 9 to 14) (size 15 to 20)
#    0.000    2.182    0.000    6.000    0.000    3.636 
#    0.000    9.091    0.000    4.364    0.000   15.273 
#    0.000    0.000    0.000    0.000    0.000    0.000 
#
# Total GULP energy -123129.039618 kJ/mol
# GULP energy per Si atom -5596.774528 kJ/mol
# Density = 2.579508 g / cm^3
# Si number density = 25.853927 Si / 1000 Ang^3
#
#
#
# Elastic Constant Matrix: (Units=GPa)
#
#
# Indices 1 2 3 4 5 6 
#
# 1 74.5048 19.3005 17.1507 0.0000 -16.3724 0.0002
# 2 19.3005 129.0416 60.4387 0.0005 -7.3629 0.0000
# 3 17.1507 60.4387 170.6860 0.0020 -6.5796 -0.0006
# 4 0.0000 0.0005 0.0020 61.2852 -0.0007 -11.0863
# 5 -16.3724 -7.3629 -6.5796 -0.0007 47.1041 0.0001
# 6 0.0002 0.0000 -0.0006 -11.0863 0.0001 42.8157
#
#
#
# Elastic Compliance Matrix: (Units=1/GPa)
#
#
# Indices 1 2 3 4 5 6 
#
# 1 0.015090 -0.001626 -0.000752 0.000000 0.004886 0.000000
# 2 -0.001626 0.009512 -0.003186 0.000000 0.000477 0.000000
# 3 -0.000752 -0.003186 0.007071 0.000000 0.000228 0.000000
# 4 0.000000 0.000000 0.000000 0.017119 0.000000 0.004433
# 5 0.004886 0.000477 0.000228 0.000000 0.023034 0.000000
# 6 0.000000 0.000000 0.000000 0.004433 0.000000 0.024504
#
#
# Mechanical properties :
#
#
# Convention : Reuss Voigt Hill
#
# Bulk Modulus (GPa) = 48.67495 63.11246 55.89371
# Shear Modulus (GPa) = 43.74159 48.73050 46.23604
#
# Velocity S-wave (km/s) = 4.11770 4.34618 4.23348
# Velocity P-wave (km/s) = 6.44011 7.04627 6.75000
#
# Compressibility (1/GPa) = 0.02054445
#
# Stress axis : x y z
#
# Youngs Moduli (GPa) = 66.26934 105.12760 141.41478
#
# Poissons Ratio (x) = 0.17093 0.10637
# Poissons Ratio (y) = 0.10775 0.45061
# Poissons Ratio (z) = 0.04985 0.33499
#
# Static dielectric constant tensor:
#      x y z
#    x 2.239060 0.000000 0.053130 
#    y 0.000000 2.053880 0.000000 
#    z 0.053130 0.000000 2.032510 
# 
# From -- ./inp_files/142921.got.cif
#   From: 2010.05.17/outbox.cif.g08.bks.cpg/sg15_72_cif.got.tgz:142921.got - 2010.06.03 18:47:42.
