data_PCOD9259481
_publ_section_title
;
Structure prediction by ZEFSAII (Michael W. Deem and Ramdas Pophale) SiO2 
 PCOD9259481
Probable space group: C 2/C
;
_chemical_formula_sum "Si O2"
_cell_formula_units_Z 56
_cell_length_a 10.452085
_cell_length_b 27.169520
_cell_length_c 13.117821
_cell_angle_alpha 90.000000
_cell_angle_beta 133.800311
_cell_angle_gamma 90.000000
_cell_volume 2688.668664
_symmetry_space_group_name_H-M "C 2/C"
_symmetry_group_IT_number 15
_symmetry_cell_setting 'monoclinic'
loop_
_space_group_symop_operation_xyz
x,y,z
-x,y,1/2-z
-x,-y,-z
x,-y,1/2+z
1/2+x,1/2+y,z
1/2-x,1/2+y,1/2-z
1/2-x,1/2-y,-z
1/2+x,1/2-y,1/2+z
loop_
_atom_site_type_symbol
_atom_site_label
_atom_site_fract_x
_atom_site_fract_y
_atom_site_fract_z
Si Si1 0.279861 0.625663 0.203054
Si Si2 0.977726 0.736698 0.920916
Si Si3 0.257387 0.326009 0.477227
Si Si4 0.777705 0.030867 0.432568
Si Si5 0.386163 0.211681 0.288452
Si Si6 0.089865 0.076597 0.494379
Si Si7 0.966875 0.457144 0.901772
O O1 0.306834 0.660617 0.121942
O O2 0.209927 0.658573 0.258471
O O3 0.448954 0.595203 0.332592
O O4 0.122778 0.588251 0.090565
O O5 0.100100 0.785714 0.980541
O O6 0.775129 0.749991 0.790106
O O7 0.067235 0.699190 0.890589
O O8 0.996071 0.716386 0.045467
O O9 0.280143 0.376466 0.425991
O O10 0.815787 0.974233 0.483382
O O11 0.670281 0.029403 0.265741
O O12 0.649602 0.054746 0.444968
O O13 0.961343 0.060030 0.516468
O O14 0.500000 0.217847 0.250000
O O15 0.000000 0.500000 0.000000
#
# Coordination Sequence:
#
# PCOD9259481 Si02
#       7
#     8   8   8   8   8   8   8
#     4  10  21  33  64  90 112 161 215 244 302 385
#     4  10  23  39  61  94 126 157 205 271 311 377
#     4  10  20  35  60  91 124 155 209 255 314 373
#     4   9  21  35  57  89 126 157 206 258 313 359
#     4  11  23  41  64  91 120 167 207 258 323 385
#     4  10  18  35  58  86 118 162 202 254 301 366
#     4  10  20  37  55  87 126 162 204 260 307 373
#
# _framework density 20.828151999999999
#
# number of rings (size 3 to 8) (size 9 to 14) (size 15 to 20)
#    0.000    2.000    1.429    1.714    6.000    2.857 
#    0.000    9.286    0.000    0.000    0.000    0.000 
#    0.000    0.000    0.000    0.000    0.000    0.000 
#
# Total GULP energy -156240.505358 kJ/mol
# GULP energy per Si atom -5580.018049 kJ/mol
# Density = 2.078075 g / cm^3
# Si number density = 20.828152 Si / 1000 Ang^3
#
#
#
# Elastic Constant Matrix: (Units=GPa)
#
#
# Indices 1 2 3 4 5 6 
#
# 1 106.3779 33.0829 18.5265 0.0000 3.2070 0.0000
# 2 33.0829 89.3236 5.7460 0.0000 2.9579 0.0000
# 3 18.5265 5.7460 44.4414 0.0000 -3.3327 0.0000
# 4 0.0000 0.0000 0.0000 22.9938 0.0000 -7.3660
# 5 3.2070 2.9579 -3.3327 0.0000 28.7520 0.0000
# 6 0.0000 0.0000 0.0000 -7.3660 0.0000 20.4149
#
#
#
# Elastic Compliance Matrix: (Units=1/GPa)
#
#
# Indices 1 2 3 4 5 6 
#
# 1 0.011414 -0.003902 -0.004357 0.000000 -0.001377 0.000000
# 2 -0.003902 0.012674 -0.000078 0.000000 -0.000878 0.000000
# 3 -0.004357 -0.000078 0.024579 0.000000 0.003343 0.000000
# 4 0.000000 0.000000 0.000000 0.049174 0.000000 0.017743
# 5 -0.001377 -0.000878 0.003343 0.000000 0.035412 0.000000
# 6 0.000000 0.000000 0.000000 0.017743 0.000000 0.055386
#
#
# Mechanical properties :
#
#
# Convention : Reuss Voigt Hill
#
# Bulk Modulus (GPa) = 31.25609 39.42819 35.34214
# Shear Modulus (GPa) = 23.15071 26.61798 24.88434
#
# Velocity S-wave (km/s) = 3.33755 3.57876 3.46026
# Velocity P-wave (km/s) = 5.46732 6.00400 5.74193
#
# Compressibility (1/GPa) = 0.03199377
#
# Stress axis : x y z
#
# Youngs Moduli (GPa) = 87.61056 78.89932 40.68562
#
# Poissons Ratio (x) = 0.30783 0.17727
# Poissons Ratio (y) = 0.34182 0.00318
# Poissons Ratio (z) = 0.38173 0.00616
#
# Static dielectric constant tensor:
#      x y z
#    x 1.840940 0.000000 -0.108440 
#    y 0.000000 1.777500 0.000000 
#    z -0.108440 0.000000 2.114580 
# 
# From -- ./inp_files/148588.got.cif
#   From: 2010.05.17/outbox.cif.g08.bks.cpg/sg15_75_cif.got.tgz:148588.got - 2010.06.03 18:47:42.
