data_PCOD9259919
_publ_section_title
;
Structure prediction by ZEFSAII (Michael W. Deem and Ramdas Pophale) SiO2 
 PCOD9259919
Probable space group: C 2/C
;
_chemical_formula_sum "Si O2"
_cell_formula_units_Z 36
_cell_length_a 11.621062
_cell_length_b 19.342449
_cell_length_c 14.158635
_cell_angle_alpha 90.000000
_cell_angle_beta 32.861787
_cell_angle_gamma 90.000000
_cell_volume 1726.910938
_symmetry_space_group_name_H-M "C 2/C"
_symmetry_group_IT_number 15
_symmetry_cell_setting 'monoclinic'
loop_
_space_group_symop_operation_xyz
x,y,z
-x,y,1/2-z
-x,-y,-z
x,-y,1/2+z
1/2+x,1/2+y,z
1/2-x,1/2+y,1/2-z
1/2-x,1/2-y,-z
1/2+x,1/2-y,1/2+z
loop_
_atom_site_type_symbol
_atom_site_label
_atom_site_fract_x
_atom_site_fract_y
_atom_site_fract_z
Si Si1 0.618484 0.073672 0.967682
Si Si2 0.103443 0.851257 0.939573
Si Si3 0.000000 0.569345 0.250000
Si Si4 0.675500 0.288833 0.207130
Si Si5 0.148943 0.946283 0.736484
O O1 0.684037 0.152449 0.940282
O O2 0.805170 0.029034 0.790370
O O3 0.567525 0.036074 0.103398
O O4 0.396672 0.077433 0.064476
O O5 0.294446 0.887693 0.863055
O O6 0.199112 0.777358 0.841999
O O7 0.050344 0.905047 0.892967
O O8 0.924503 0.828889 0.135820
O O9 0.500000 0.267987 0.250000
O O10 0.000000 0.933249 0.750000
#
# Coordination Sequence:
#
# PCOD9259919 Si02
#       5
#     8   8   4   8   8
#     4  10  22  40  64  92 124 155 213 249 308 358
#     4  11  22  36  63  93 128 155 202 249 319 357
#     4  10  18  36  58  96 120 156 194 262 306 358
#     4  12  21  38  65  99 120 156 202 269 307 357
#     4  10  23  44  59  88 130 166 200 250 295 378
#
# _framework density 20.846473
#
# number of rings (size 3 to 8) (size 9 to 14) (size 15 to 20)
#    0.000    1.333    3.333    4.000    0.000    0.889 
#    8.000    4.444    0.000    0.000    0.000    0.000 
#    0.000    0.000    0.000    0.000    0.000    0.000 
#
# Total GULP energy -100316.850822 kJ/mol
# GULP energy per Si atom -5573.158379 kJ/mol
# Density = 2.079903 g / cm^3
# Si number density = 20.846473 Si / 1000 Ang^3
#
#
#
# Elastic Constant Matrix: (Units=GPa)
#
#
# Indices 1 2 3 4 5 6 
#
# 1 138.8568 25.5187 38.0463 0.0192 1.6581 -0.0127
# 2 25.5187 68.4205 18.8868 0.0700 17.8211 -0.0376
# 3 38.0463 18.8868 68.2211 0.1455 26.5242 -0.0827
# 4 0.0192 0.0700 0.1455 -7.7427 -0.0360 33.8928
# 5 1.6581 17.8211 26.5242 -0.0360 25.3357 0.0236
# 6 -0.0127 -0.0376 -0.0827 33.8928 0.0236 8.9604
#
#
#
# Elastic Compliance Matrix: (Units=1/GPa)
#
#
# Indices 1 2 3 4 5 6 
#
# 1 0.010447 -0.004514 -0.009351 -0.000045 0.012281 0.000046
# 2 -0.004514 0.019844 0.003938 0.000058 -0.017786 -0.000061
# 3 -0.009351 0.003938 0.033090 0.000147 -0.036800 -0.000150
# 4 -0.000045 0.000058 0.000147 -0.007355 -0.000229 0.027824
# 5 0.012281 -0.017786 -0.036800 -0.000229 0.089703 0.000231
# 6 0.000046 -0.000061 -0.000150 0.027824 0.000231 0.006357
#
#
# Mechanical properties :
#
#
# Convention : Reuss Voigt Hill
#
# Bulk Modulus (GPa) = 22.97338 48.93357 35.95347
# Shear Modulus (GPa) = 26.81705 18.18045 22.49875
#
# Velocity S-wave (km/s) = 3.59054 2.95636 3.28877
# Velocity P-wave (km/s) = 5.31352 5.93108 5.63077
#
# Compressibility (1/GPa) = 0.04352865
#
# Stress axis : x y z
#
# Youngs Moduli (GPa) = 95.72407 50.39224 30.22032
#
# Poissons Ratio (x) = 0.22745 0.28259
# Poissons Ratio (y) = 0.43207 -0.11902
# Poissons Ratio (z) = 0.89512 -0.19846
#
# Static dielectric constant tensor:
#      x y z
#    x 1.730870 0.000000 0.058480 
#    y 0.000000 1.802000 0.000010 
#    z 0.058480 0.000010 1.882290 
# 
# From -- ./inp_files/28798.got.cif
#   From: 2010.05.17/outbox.cif.g08.bks.cpg/sg15_15_cif.got.tgz:28798.got - 2010.06.03 18:47:42.
