data_PCOD9259331
_publ_section_title
;
Structure prediction by ZEFSAII (Michael W. Deem and Ramdas Pophale) SiO2 
 PCOD9259331
Probable space group: C 2/C
;
_chemical_formula_sum "Si O2"
_cell_formula_units_Z 60
_cell_length_a 26.970815
_cell_length_b 29.447873
_cell_length_c 8.261198
_cell_angle_alpha 90.000000
_cell_angle_beta 32.211012
_cell_angle_gamma 90.000000
_cell_volume 3497.437301
_symmetry_space_group_name_H-M "C 2/C"
_symmetry_group_IT_number 15
_symmetry_cell_setting 'monoclinic'
loop_
_space_group_symop_operation_xyz
x,y,z
-x,y,1/2-z
-x,-y,-z
x,-y,1/2+z
1/2+x,1/2+y,z
1/2-x,1/2+y,1/2-z
1/2-x,1/2-y,-z
1/2+x,1/2-y,1/2+z
loop_
_atom_site_type_symbol
_atom_site_label
_atom_site_fract_x
_atom_site_fract_y
_atom_site_fract_z
Si Si1 0.292142 0.206465 0.606852
Si Si2 0.500000 0.101911 0.250000
Si Si3 0.889586 0.803940 0.357444
Si Si4 0.385686 0.064106 0.057961
Si Si5 0.280813 0.843644 0.795762
Si Si6 0.113663 0.681496 0.815327
Si Si7 0.095845 0.523827 0.170418
Si Si8 0.407603 0.284207 0.681088
O O1 0.341557 0.255343 0.449965
O O2 0.301639 0.180540 0.410110
O O3 0.338489 0.182817 0.638492
O O4 0.183810 0.212256 0.956059
O O5 0.453434 0.137530 0.502683
O O6 0.573839 0.065486 0.112170
O O7 0.829103 0.841581 0.433576
O O8 0.886368 0.805815 0.563049
O O9 0.997620 0.804608 0.012032
O O10 0.332219 0.108555 0.157120
O O11 0.355626 0.048275 0.317469
O O12 0.500000 0.070454 0.750000
O O13 0.358451 0.020530 0.027690
O O14 0.319801 0.820819 0.523462
O O15 0.068891 0.731122 0.918609
O O16 0.000000 0.500000 0.500000
#
# Coordination Sequence:
#
# PCOD9259331 Si02
#       8
#     8   4   8   8   8   8   8   8
#     4  11  21  39  52  81 116 151 198 240 281 334
#     4  12  20  32  60  82 114 156 190 232 290 340
#     4  10  20  37  57  79 112 155 193 243 278 333
#     4  10  21  35  52  79 110 149 180 226 280 347
#     4  12  23  35  55  82 115 143 199 239 271 333
#     4  11  21  36  55  82 114 154 193 239 270 334
#     4  10  18  35  52  76 110 147 182 220 288 352
#     4  10  20  38  59  77 117 161 197 228 296 326
#
# _framework density 17.155418000000001
#
# number of rings (size 3 to 8) (size 9 to 14) (size 15 to 20)
#    0.000    1.333    4.667    5.200    0.000    1.600 
#    0.000    0.000    0.000    0.000    0.000    0.000 
#    0.000   22.400    0.000    0.000    0.000    0.000 
#
# Total GULP energy -167081.469218 kJ/mol
# GULP energy per Si atom -5569.382307 kJ/mol
# Density = 1.711637 g / cm^3
# Si number density = 17.155418 Si / 1000 Ang^3
#
#
#
# Elastic Constant Matrix: (Units=GPa)
#
#
# Indices 1 2 3 4 5 6 
#
# 1 81.9643 41.3666 27.3279 0.0000 -1.2079 0.0000
# 2 41.3666 88.7576 21.9499 0.0000 -7.0548 0.0000
# 3 27.3279 21.9499 63.1963 0.0000 -4.7670 0.0000
# 4 0.0000 0.0000 0.0000 33.7766 0.0000 4.5947
# 5 -1.2079 -7.0548 -4.7670 0.0000 27.3781 0.0000
# 6 0.0000 0.0000 0.0000 4.5947 0.0000 27.2462
#
#
#
# Elastic Compliance Matrix: (Units=1/GPa)
#
#
# Indices 1 2 3 4 5 6 
#
# 1 0.017454 -0.006987 -0.005268 0.000000 -0.001948 0.000000
# 2 -0.006987 0.015288 -0.002042 0.000000 0.003276 0.000000
# 3 -0.005268 -0.002042 0.019003 0.000000 0.002550 0.000000
# 4 0.000000 0.000000 0.000000 0.030301 0.000000 -0.005110
# 5 -0.001948 0.003276 0.002550 0.000000 0.037728 0.000000
# 6 0.000000 0.000000 0.000000 -0.005110 0.000000 0.037564
#
#
# Mechanical properties :
#
#
# Convention : Reuss Voigt Hill
#
# Bulk Modulus (GPa) = 43.19105 46.13411 44.66258
# Shear Modulus (GPa) = 25.81987 27.23178 26.52582
#
# Velocity S-wave (km/s) = 3.88371 3.98849 3.93645
# Velocity P-wave (km/s) = 6.73364 6.93981 6.83750
#
# Compressibility (1/GPa) = 0.02315295
#
# Stress axis : x y z
#
# Youngs Moduli (GPa) = 57.29247 65.40991 52.62269
#
# Poissons Ratio (x) = 0.45701 0.27721
# Poissons Ratio (y) = 0.40029 0.10744
# Poissons Ratio (z) = 0.30181 0.13354
#
# Static dielectric constant tensor:
#      x y z
#    x 1.642110 0.000000 0.014490 
#    y 0.000000 2.641390 0.000000 
#    z 0.014490 0.000000 1.632550 
# 
# From -- ./inp_files/71001.got.cif
#   From: 2010.05.17/outbox.cif.g08.bks.cpg/sg15_36_cif.got.tgz:71001.got - 2010.06.03 18:47:42.
