data_PCOD9259950
_publ_section_title
;
Structure prediction by ZEFSAII (Michael W. Deem and Ramdas Pophale) SiO2 
 PCOD9259950
Probable space group: C 2/C
;
_chemical_formula_sum "Si O2"
_cell_formula_units_Z 56
_cell_length_a 9.450563
_cell_length_b 13.313675
_cell_length_c 20.841208
_cell_angle_alpha 90.000000
_cell_angle_beta 87.775828
_cell_angle_gamma 90.000000
_cell_volume 2620.301190
_symmetry_space_group_name_H-M "C 2/C"
_symmetry_group_IT_number 15
_symmetry_cell_setting 'monoclinic'
loop_
_space_group_symop_operation_xyz
x,y,z
-x,y,1/2-z
-x,-y,-z
x,-y,1/2+z
1/2+x,1/2+y,z
1/2-x,1/2+y,1/2-z
1/2-x,1/2-y,-z
1/2+x,1/2-y,1/2+z
loop_
_atom_site_type_symbol
_atom_site_label
_atom_site_fract_x
_atom_site_fract_y
_atom_site_fract_z
Si Si1 0.055787 0.188458 0.098494
Si Si2 0.000000 0.019602 0.250000
Si Si3 0.002511 0.111528 0.967888
Si Si4 0.698599 0.679333 0.300981
Si Si5 0.799482 0.168607 0.651700
Si Si6 0.152751 0.411271 0.265733
Si Si7 0.166301 0.027924 0.629584
Si Si8 0.500000 0.210885 0.250000
O O1 0.157417 0.271338 0.129739
O O2 0.902100 0.173135 0.134591
O O3 0.141655 0.084183 0.106003
O O4 0.023586 0.192966 0.023219
O O5 0.128516 0.097542 0.256160
O O6 0.048403 0.956346 0.187935
O O7 0.125773 0.127510 0.913553
O O8 0.861667 0.107596 0.926006
O O9 0.000000 0.000000 0.000000
O O10 0.663845 0.791683 0.277721
O O11 0.867615 0.665084 0.293230
O O12 0.749348 0.080476 0.700783
O O13 0.906644 0.235368 0.694264
O O14 0.193630 0.458660 0.332550
O O15 0.000000 0.445522 0.250000
#
# Coordination Sequence:
#
# PCOD9259950 Si02
#       8
#     8   4   8   8   8   8   8   4
#     4  10  21  39  61  82 123 161 201 238 297 363
#     4  10  18  37  58  83 118 156 196 246 308 357
#     4  10  21  37  61  85 115 164 210 244 282 361
#     4  10  18  36  59  90 115 156 195 242 305 361
#     4  11  20  37  60  91 117 156 205 246 301 353
#     4  11  19  35  60  90 121 151 188 255 313 353
#     4  10  20  34  56  88 114 153 202 244 299 356
#     4  10  20  31  60  95 120 136 194 260 294 349
#
# _framework density 21.371590000000001
#
# number of rings (size 3 to 8) (size 9 to 14) (size 15 to 20)
#    0.000    1.714    2.143    5.571    0.000    0.571 
#    5.143    2.857    0.000    1.714    0.000    0.000 
#    0.000    0.000    0.000    0.000    0.000    0.000 
#
# Total GULP energy -155920.517816 kJ/mol
# GULP energy per Si atom -5568.589922 kJ/mol
# Density = 2.132295 g / cm^3
# Si number density = 21.371590 Si / 1000 Ang^3
#
#
#
# Elastic Constant Matrix: (Units=GPa)
#
#
# Indices 1 2 3 4 5 6 
#
# 1 154.8657 15.7998 40.8633 0.0000 17.7775 0.0000
# 2 15.7998 42.9070 13.6090 0.0000 -0.0234 0.0000
# 3 40.8633 13.6090 129.8046 0.0000 9.0781 0.0000
# 4 0.0000 0.0000 0.0000 19.3029 0.0000 -1.4558
# 5 17.7775 -0.0234 9.0781 0.0000 28.6610 0.0000
# 6 0.0000 0.0000 0.0000 -1.4558 0.0000 22.3468
#
#
#
# Elastic Compliance Matrix: (Units=1/GPa)
#
#
# Indices 1 2 3 4 5 6 
#
# 1 0.007659 -0.002224 -0.001887 0.000000 -0.004155 0.000000
# 2 -0.002224 0.024773 -0.002040 0.000000 0.002046 0.000000
# 3 -0.001887 -0.002040 0.008621 0.000000 -0.001562 0.000000
# 4 0.000000 0.000000 0.000000 0.052061 0.000000 0.003392
# 5 -0.004155 0.002046 -0.001562 0.000000 0.037964 0.000000
# 6 0.000000 0.000000 0.000000 0.003392 0.000000 0.044970
#
#
# Mechanical properties :
#
#
# Convention : Reuss Voigt Hill
#
# Bulk Modulus (GPa) = 34.78215 52.01351 43.39783
# Shear Modulus (GPa) = 25.26074 31.21583 28.23829
#
# Velocity S-wave (km/s) = 3.44172 3.82596 3.63891
# Velocity P-wave (km/s) = 5.66606 6.62629 6.16490
#
# Compressibility (1/GPa) = 0.02875038
#
# Stress axis : x y z
#
# Youngs Moduli (GPa) = 130.56472 40.36594 115.99355
#
# Poissons Ratio (x) = 0.08977 0.21893
# Poissons Ratio (y) = 0.29037 0.23666
# Poissons Ratio (z) = 0.24643 0.08236
#
# Static dielectric constant tensor:
#      x y z
#    x 1.896340 0.000000 0.013160 
#    y 0.000000 1.834300 0.000000 
#    z 0.013160 0.000000 1.834760 
# 
# From -- ./inp_files/264997.got.cif
#   From: 2010.05.17/outbox.cif.g08.bks.cpg/sg15_133_cif.got.tgz:264997.got - 2010.06.03 18:47:42.
