data_PCOD9259369
_publ_section_title
;
Structure prediction by ZEFSAII (Michael W. Deem and Ramdas Pophale) SiO2 
 PCOD9259369
Probable space group: C 2/C
;
_chemical_formula_sum "Si O2"
_cell_formula_units_Z 44
_cell_length_a 16.521448
_cell_length_b 7.699644
_cell_length_c 15.851957
_cell_angle_alpha 90.000000
_cell_angle_beta 86.528887
_cell_angle_gamma 90.000000
_cell_volume 2012.816448
_symmetry_space_group_name_H-M "C 2/C"
_symmetry_group_IT_number 15
_symmetry_cell_setting 'monoclinic'
loop_
_space_group_symop_operation_xyz
x,y,z
-x,y,1/2-z
-x,-y,-z
x,-y,1/2+z
1/2+x,1/2+y,z
1/2-x,1/2+y,1/2-z
1/2-x,1/2-y,-z
1/2+x,1/2-y,1/2+z
loop_
_atom_site_type_symbol
_atom_site_label
_atom_site_fract_x
_atom_site_fract_y
_atom_site_fract_z
Si Si1 0.107815 0.589999 0.775689
Si Si2 0.500000 0.766127 0.750000
Si Si3 0.461802 0.804981 0.392988
Si Si4 0.071785 0.930617 0.096619
Si Si5 0.151581 0.603262 0.032000
Si Si6 0.760066 0.149561 0.865902
O O1 0.077135 0.395464 0.754123
O O2 0.344460 0.548949 0.855332
O O3 0.200230 0.624833 0.792429
O O4 0.052111 0.638026 0.860488
O O5 0.580341 0.200595 0.696959
O O6 0.410556 0.949174 0.445962
O O7 0.454472 0.616553 0.434111
O O8 0.008702 0.848101 0.166091
O O9 0.099193 0.781211 0.029984
O O10 0.211290 0.656345 0.106881
O O11 0.209447 0.577537 0.949253
#
# Coordination Sequence:
#
# PCOD9259369 Si02
#       6
#     8   4   8   8   8   8
#     4  10  18  35  55  86 104 145 178 235 266 323
#     4  10  18  36  58  76 116 140 182 230 284 308
#     4  10  20  34  59  78 114 138 188 222 276 316
#     4  10  19  37  57  78 106 150 176 223 274 326
#     4   9  19  40  55  76 114 149 172 230 268 329
#     4   9  20  36  58  77 113 143 185 216 282 317
#
# _framework density 21.859915999999998
#
# number of rings (size 3 to 8) (size 9 to 14) (size 15 to 20)
#    1.091    1.455    3.636    1.091    0.000    4.364 
#    0.000    2.727    0.000    0.000    0.000    0.000 
#    0.000    0.000    0.000    0.000    0.000    0.000 
#
# Total GULP energy -122601.245272 kJ/mol
# GULP energy per Si atom -5572.783876 kJ/mol
# Density = 2.181016 g / cm^3
# Si number density = 21.859916 Si / 1000 Ang^3
#
#
#
# Elastic Constant Matrix: (Units=GPa)
#
#
# Indices 1 2 3 4 5 6 
#
# 1 37.8463 17.7017 18.3607 0.0000 12.5745 0.0000
# 2 17.7017 129.9548 4.0372 0.0000 -8.4295 0.0000
# 3 18.3607 4.0372 34.9354 0.0000 3.9458 0.0000
# 4 0.0000 0.0000 0.0000 11.6253 0.0000 -8.6290
# 5 12.5745 -8.4295 3.9458 0.0000 49.5790 0.0000
# 6 0.0000 0.0000 0.0000 -8.6290 0.0000 12.1899
#
#
#
# Elastic Compliance Matrix: (Units=1/GPa)
#
#
# Indices 1 2 3 4 5 6 
#
# 1 0.042439 -0.005801 -0.020491 0.000000 -0.010119 0.000000
# 2 -0.005801 0.008613 0.001737 0.000000 0.002797 0.000000
# 3 -0.020491 0.001737 0.038922 0.000000 0.002395 0.000000
# 4 0.000000 0.000000 0.000000 0.181257 0.000000 0.128308
# 5 -0.010119 0.002797 0.002395 0.000000 0.023021 0.000000
# 6 0.000000 0.000000 0.000000 0.128308 0.000000 0.172862
#
#
# Mechanical properties :
#
#
# Convention : Reuss Voigt Hill
#
# Bulk Modulus (GPa) = 24.47069 31.43731 27.95400
# Shear Modulus (GPa) = 9.43675 25.52130 17.47903
#
# Velocity S-wave (km/s) = 2.07997 3.42057 2.83077
# Velocity P-wave (km/s) = 4.12153 5.47840 4.84767
#
# Compressibility (1/GPa) = 0.04086521
#
# Stress axis : x y z
#
# Youngs Moduli (GPa) = 23.56335 116.10928 25.69221
#
# Poissons Ratio (x) = 0.67350 0.52646
# Poissons Ratio (y) = 0.13668 -0.04464
# Poissons Ratio (z) = 0.48284 -0.20172
#
# Static dielectric constant tensor:
#      x y z
#    x 1.809260 0.000000 0.053850 
#    y 0.000000 1.808180 0.000000 
#    z 0.053850 0.000000 1.829030 
# 
# From -- ./inp_files/272113.got.cif
#   From: 2010.05.17/outbox.cif.g08.bks.cpg/sg15_137_cif.got.tgz:272113.got - 2010.06.03 18:47:42.
