data_PCOD9259924
_publ_section_title
;
Structure prediction by ZEFSAII (Michael W. Deem and Ramdas Pophale) SiO2 
 PCOD9259924
Probable space group: C 2/C
;
_chemical_formula_sum "Si O2"
_cell_formula_units_Z 40
_cell_length_a 25.755769
_cell_length_b 7.232618
_cell_length_c 14.588076
_cell_angle_alpha 90.000000
_cell_angle_beta 47.357102
_cell_angle_gamma 90.000000
_cell_volume 1998.959245
_symmetry_space_group_name_H-M "C 2/C"
_symmetry_group_IT_number 15
_symmetry_cell_setting 'monoclinic'
loop_
_space_group_symop_operation_xyz
x,y,z
-x,y,1/2-z
-x,-y,-z
x,-y,1/2+z
1/2+x,1/2+y,z
1/2-x,1/2+y,1/2-z
1/2-x,1/2-y,-z
1/2+x,1/2-y,1/2+z
loop_
_atom_site_type_symbol
_atom_site_label
_atom_site_fract_x
_atom_site_fract_y
_atom_site_fract_z
Si Si1 0.543529 0.384613 0.323738
Si Si2 0.781461 0.125419 0.075192
Si Si3 0.646127 0.087783 0.140012
Si Si4 0.396540 0.485037 0.052609
Si Si5 0.879674 0.823977 0.889739
O O1 0.574586 0.200994 0.241565
O O2 0.585196 0.421848 0.368437
O O3 0.460707 0.381808 0.444196
O O4 0.564088 0.556948 0.234583
O O5 0.698016 0.117448 0.165254
O O6 0.812388 0.311260 0.993013
O O7 0.821356 0.082834 0.122764
O O8 0.810992 0.958346 0.974922
O O9 0.633005 0.874926 0.136096
O O10 0.399249 0.320626 0.974161
#
# Coordination Sequence:
#
# PCOD9259924 Si02
#       5
#     8   8   8   8   8
#     4  10  20  39  55  82 115 148 187 229 276 340
#     4   8  19  36  55  80 113 148 175 235 280 325
#     4  10  18  36  59  82 107 147 192 224 278 333
#     4   9  20  40  54  78 122 149 176 236 285 321
#     4   9  19  36  59  80 110 147 185 233 276 333
#
# _framework density 20.010413
#
# number of rings (size 3 to 8) (size 9 to 14) (size 15 to 20)
#    1.200    1.600    0.000    1.200    0.000    0.000 
#   14.400    2.000    0.000    0.000    0.000    0.000 
#    0.000    0.000    0.000    0.000    0.000    0.000 
#
# Total GULP energy -111345.629821 kJ/mol
# GULP energy per Si atom -5567.281491 kJ/mol
# Density = 1.996487 g / cm^3
# Si number density = 20.010413 Si / 1000 Ang^3
#
#
#
# Elastic Constant Matrix: (Units=GPa)
#
#
# Indices 1 2 3 4 5 6 
#
# 1 93.2157 12.0443 5.3171 -0.0002 12.5573 0.0002
# 2 12.0443 106.4504 13.9366 -0.0010 -13.1561 0.0023
# 3 5.3171 13.9366 30.6191 0.0002 8.6831 0.0003
# 4 -0.0002 -0.0010 0.0002 2.5646 0.0002 -1.7367
# 5 12.5573 -13.1561 8.6831 0.0002 32.5466 -0.0004
# 6 0.0002 0.0023 0.0003 -1.7367 -0.0004 -0.6997
#
#
#
# Elastic Compliance Matrix: (Units=1/GPa)
#
#
# Indices 1 2 3 4 5 6 
#
# 1 0.011705 -0.002060 0.000457 0.000000 -0.005471 0.000000
# 2 -0.002060 0.011427 -0.006901 0.000009 0.007255 0.000007
# 3 0.000457 -0.006901 0.039555 0.000000 -0.013519 0.000005
# 4 0.000000 0.000009 0.000000 0.145451 -0.000002 -0.361025
# 5 -0.005471 0.007255 -0.013519 -0.000002 0.039375 -0.000003
# 6 0.000000 0.000007 0.000005 -0.361025 -0.000003 -0.533132
#
#
# Mechanical properties :
#
#
# Convention : Reuss Voigt Hill
#
# Bulk Modulus (GPa) = 21.89250 32.54235 27.21743
# Shear Modulus (GPa) = -19.73291 20.14811 0.20760
#
# Velocity S-wave (km/s) = -3.14368 3.17658 0.32244
# Velocity P-wave (km/s) = 1.48750 5.45456 3.71077
#
# Compressibility (1/GPa) = 0.04567774
#
# Stress axis : x y z
#
# Youngs Moduli (GPa) = 85.43410 87.50973 25.28137
#
# Poissons Ratio (x) = 0.18029 -0.01154
# Poissons Ratio (y) = 0.17601 0.17447
# Poissons Ratio (z) = -0.03901 0.60390
#
# Static dielectric constant tensor:
#      x y z
#    x 1.768270 0.000000 -0.001170 
#    y 0.000000 1.658950 0.000000 
#    z -0.001170 0.000000 1.714810 
# 
# From -- ./inp_files/175314.got.cif
#   From: 2010.05.17/outbox.cif.g08.bks.cpg/sg15_88_cif.got.tgz:175314.got - 2010.06.03 18:47:42.
