data_PCOD9259761
_publ_section_title
;
Structure prediction by ZEFSAII (Michael W. Deem and Ramdas Pophale) SiO2 
 PCOD9259761
Probable space group: C 2/C
;
_chemical_formula_sum "Si O2"
_cell_formula_units_Z 56
_cell_length_a 27.345920
_cell_length_b 18.999934
_cell_length_c 15.956416
_cell_angle_alpha 90.000000
_cell_angle_beta 22.497768
_cell_angle_gamma 90.000000
_cell_volume 3172.333195
_symmetry_space_group_name_H-M "C 2/C"
_symmetry_group_IT_number 15
_symmetry_cell_setting 'monoclinic'
loop_
_space_group_symop_operation_xyz
x,y,z
-x,y,1/2-z
-x,-y,-z
x,-y,1/2+z
1/2+x,1/2+y,z
1/2-x,1/2+y,1/2-z
1/2-x,1/2-y,-z
1/2+x,1/2-y,1/2+z
loop_
_atom_site_type_symbol
_atom_site_label
_atom_site_fract_x
_atom_site_fract_y
_atom_site_fract_z
Si Si1 0.847043 0.812520 0.357280
Si Si2 0.871570 0.239909 0.064592
Si Si3 0.287030 0.827087 0.361064
Si Si4 0.541975 0.232208 0.778692
Si Si5 0.347821 0.397487 0.511970
Si Si6 0.329708 0.329339 0.197418
Si Si7 0.646738 0.558112 0.983633
O O1 0.750000 0.750000 0.500000
O O2 0.795538 0.867163 0.507308
O O3 0.863037 0.845583 0.240131
O O4 0.978798 0.775932 0.176871
O O5 0.838632 0.275053 0.205903
O O6 0.809684 0.294279 0.096413
O O7 0.817285 0.161650 0.129992
O O8 0.390697 0.827308 0.271206
O O9 0.153442 0.791181 0.599063
O O10 0.244279 0.901462 0.390996
O O11 0.500000 0.214572 0.750000
O O12 0.423957 0.268892 0.012348
O O13 0.500000 0.399229 0.250000
O O14 0.314745 0.476879 0.586939
O O15 0.346266 0.396972 0.112570
O O16 0.500000 0.562250 0.250000
#
# Coordination Sequence:
#
# PCOD9259761 Si02
#       7
#     8   8   8   8   8   8   8
#     4  11  21  35  56  83 107 139 190 231 266 317
#     4  10  19  34  54  84 104 141 187 224 266 320
#     4  10  19  30  56  83 108 140 182 223 270 332
#     4  11  18  31  51  84 110 137 180 227 270 312
#     4   9  20  35  54  79 116 145 176 226 276 321
#     4  11  19  33  57  81 112 141 184 221 272 328
#     4  10  18  36  54  79 118 145 171 227 287 329
#
# _framework density 17.652622000000001
#
# number of rings (size 3 to 8) (size 9 to 14) (size 15 to 20)
#    0.000    1.714    7.143    0.000    0.000    0.000 
#    0.000    9.286    0.000    7.714    0.000    0.000 
#    0.000    0.000    0.000    0.000    0.000    0.000 
#
# Total GULP energy -155950.318905 kJ/mol
# GULP energy per Si atom -5569.654247 kJ/mol
# Density = 1.761244 g / cm^3
# Si number density = 17.652622 Si / 1000 Ang^3
#
#
#
# Elastic Constant Matrix: (Units=GPa)
#
#
# Indices 1 2 3 4 5 6 
#
# 1 118.8746 38.9990 25.4846 0.0001 -13.9706 0.0000
# 2 38.9990 124.2163 27.2819 0.0004 -7.6131 -0.0001
# 3 25.4846 27.2819 41.0325 0.0006 -7.0941 -0.0002
# 4 0.0001 0.0004 0.0006 20.2526 -0.0002 0.0321
# 5 -13.9706 -7.6131 -7.0941 -0.0002 17.9070 0.0000
# 6 0.0000 -0.0001 -0.0002 0.0321 0.0000 18.9256
#
#
#
# Elastic Compliance Matrix: (Units=1/GPa)
#
#
# Indices 1 2 3 4 5 6 
#
# 1 0.010681 -0.002063 -0.004265 0.000000 0.005766 0.000000
# 2 -0.002063 0.009871 -0.005190 0.000000 0.000531 0.000000
# 3 -0.004265 -0.005190 0.031684 -0.000001 0.007018 0.000000
# 4 0.000000 0.000000 -0.000001 0.049376 0.000000 -0.000084
# 5 0.005766 0.000531 0.007018 0.000000 0.063349 0.000000
# 6 0.000000 0.000000 0.000000 -0.000084 0.000000 0.052839
#
#
# Mechanical properties :
#
#
# Convention : Reuss Voigt Hill
#
# Bulk Modulus (GPa) = 34.24706 51.96159 43.10433
# Shear Modulus (GPa) = 19.95462 24.24091 22.09776
#
# Velocity S-wave (km/s) = 3.36580 3.70972 3.54193
# Velocity P-wave (km/s) = 5.87771 6.91729 6.41858
#
# Compressibility (1/GPa) = 0.02919958
#
# Stress axis : x y z
#
# Youngs Moduli (GPa) = 93.62279 101.31109 31.56196
#
# Poissons Ratio (x) = 0.20903 0.13461
# Poissons Ratio (y) = 0.19317 0.16379
# Poissons Ratio (z) = 0.39931 0.52576
#
# Static dielectric constant tensor:
#      x y z
#    x 1.757850 0.000000 0.061250 
#    y 0.000000 1.578170 0.000000 
#    z 0.061250 0.000000 1.675640 
# 
# From -- ./inp_files/225682.got.cif
#   From: 2010.05.17/outbox.cif.g08.bks.cpg/sg15_113_cif.got.tgz:225682.got - 2010.06.03 18:47:42.
