data_PCOD9259113
_publ_section_title
;
Structure prediction by ZEFSAII (Michael W. Deem and Ramdas Pophale) SiO2 
 PCOD9259113
Probable space group: C 2/C
;
_chemical_formula_sum "Si O2"
_cell_formula_units_Z 52
_cell_length_a 8.193450
_cell_length_b 22.035636
_cell_length_c 12.627277
_cell_angle_alpha 90.000000
_cell_angle_beta 110.866699
_cell_angle_gamma 90.000000
_cell_volume 2130.297967
_symmetry_space_group_name_H-M "C 2/C"
_symmetry_group_IT_number 15
_symmetry_cell_setting 'monoclinic'
loop_
_space_group_symop_operation_xyz
x,y,z
-x,y,1/2-z
-x,-y,-z
x,-y,1/2+z
1/2+x,1/2+y,z
1/2-x,1/2+y,1/2-z
1/2-x,1/2-y,-z
1/2+x,1/2-y,1/2+z
loop_
_atom_site_type_symbol
_atom_site_label
_atom_site_fract_x
_atom_site_fract_y
_atom_site_fract_z
Si Si1 0.830534 0.184043 0.511638
Si Si2 0.296778 0.161349 0.411551
Si Si3 0.237582 0.791757 0.128645
Si Si4 0.964828 0.092560 0.406413
Si Si5 0.500000 0.111928 0.750000
Si Si6 0.539465 0.535586 0.872638
Si Si7 0.604301 0.085345 0.551064
O O1 0.750000 0.250000 0.500000
O O2 0.819794 0.142853 0.401491
O O3 0.738101 0.142093 0.576167
O O4 0.034649 0.194118 0.574003
O O5 0.325513 0.194504 0.533241
O O6 0.258198 0.221595 0.333961
O O7 0.453210 0.112427 0.438130
O O8 0.120145 0.124126 0.380622
O O9 0.337821 0.841839 0.218028
O O10 0.025055 0.070674 0.538389
O O11 0.933527 0.027836 0.346501
O O12 0.513860 0.075212 0.643799
O O13 0.500000 0.564192 0.750000
O O14 0.752485 0.532068 0.937533
#
# Coordination Sequence:
#
# PCOD9259113 Si02
#       7
#     8   8   8   8   4   8   8
#     4  10  18  34  60  84 113 157 192 238 293 372
#     4   9  17  34  55  81 109 154 186 239 297 356
#     4   9  18  32  52  82 122 147 188 230 303 365
#     4   9  21  38  59  82 118 152 199 247 294 361
#     4  10  22  32  50  90 116 154 190 258 302 356
#     4  10  22  39  58  84 111 160 203 251 296 347
#     4  10  21  32  57  84 113 147 203 249 296 346
#
# _framework density 24.409732000000002
#
# number of rings (size 3 to 8) (size 9 to 14) (size 15 to 20)
#    0.000    2.462    1.538    0.000   10.769    0.615 
#    1.385    0.000    0.000    0.000    0.000    0.000 
#    0.000    0.000    0.000    0.000    0.000    0.000 
#
# Total GULP energy -144753.122738 kJ/mol
# GULP energy per Si atom -5567.427798 kJ/mol
# Density = 2.435417 g / cm^3
# Si number density = 24.409732 Si / 1000 Ang^3
#
#
#
# Elastic Constant Matrix: (Units=GPa)
#
#
# Indices 1 2 3 4 5 6 
#
# 1 121.6909 17.0094 4.2305 0.0000 -4.2144 0.0000
# 2 17.0094 99.5246 -2.3151 0.0000 -4.9144 0.0000
# 3 4.2305 -2.3151 32.9156 0.0000 -4.5654 0.0000
# 4 0.0000 0.0000 0.0000 13.3939 0.0000 -6.3360
# 5 -4.2144 -4.9144 -4.5654 0.0000 20.1886 0.0000
# 6 0.0000 0.0000 0.0000 -6.3360 0.0000 33.6839
#
#
#
# Elastic Compliance Matrix: (Units=1/GPa)
#
#
# Indices 1 2 3 4 5 6 
#
# 1 0.008493 -0.001416 -0.001025 0.000000 0.001196 0.000000
# 2 -0.001416 0.010444 0.001268 0.000000 0.002534 0.000000
# 3 -0.001025 0.001268 0.031606 0.000000 0.007242 0.000000
# 4 0.000000 0.000000 0.000000 0.081953 0.000000 0.015415
# 5 0.001196 0.002534 0.007242 0.000000 0.052037 0.000000
# 6 0.000000 0.000000 0.000000 0.015415 0.000000 0.032587
#
#
# Mechanical properties :
#
#
# Convention : Reuss Voigt Hill
#
# Bulk Modulus (GPa) = 20.74848 32.44230 26.59539
# Shear Modulus (GPa) = 21.22846 29.13370 25.18108
#
# Velocity S-wave (km/s) = 2.95222 3.45850 3.21534
# Velocity P-wave (km/s) = 4.48769 5.40998 4.97027
#
# Compressibility (1/GPa) = 0.04819629
#
# Stress axis : x y z
#
# Youngs Moduli (GPa) = 117.75005 95.74501 31.63945
#
# Poissons Ratio (x) = 0.13560 0.03244
# Poissons Ratio (y) = 0.16676 -0.04012
# Poissons Ratio (z) = 0.12072 -0.12141
#
# Static dielectric constant tensor:
#      x y z
#    x 1.954270 0.000000 0.009270 
#    y 0.000000 2.102360 0.000000 
#    z 0.009270 0.000000 2.045420 
# 
# From -- ./inp_files/136911.got.cif
#   From: 2010.05.17/outbox.cif.g08.bks.cpg/sg15_69_cif.got.tgz:136911.got - 2010.06.03 18:47:42.
