data_PCOD9259001
_publ_section_title
;
Structure prediction by ZEFSAII (Michael W. Deem and Ramdas Pophale) SiO2 
 PCOD9259001
Probable space group: C 2/C
;
_chemical_formula_sum "Si O2"
_cell_formula_units_Z 48
_cell_length_a 13.296587
_cell_length_b 14.389503
_cell_length_c 11.211433
_cell_angle_alpha 90.000000
_cell_angle_beta 88.646880
_cell_angle_gamma 90.000000
_cell_volume 2144.499640
_symmetry_space_group_name_H-M "C 2/C"
_symmetry_group_IT_number 15
_symmetry_cell_setting 'monoclinic'
loop_
_space_group_symop_operation_xyz
x,y,z
-x,y,1/2-z
-x,-y,-z
x,-y,1/2+z
1/2+x,1/2+y,z
1/2-x,1/2+y,1/2-z
1/2-x,1/2-y,-z
1/2+x,1/2-y,1/2+z
loop_
_atom_site_type_symbol
_atom_site_label
_atom_site_fract_x
_atom_site_fract_y
_atom_site_fract_z
Si Si1 0.073999 0.665505 0.573191
Si Si2 0.764326 0.854172 0.674690
Si Si3 0.688465 0.998038 0.507874
Si Si4 0.324663 0.654861 0.434227
Si Si5 0.649606 0.162279 0.845151
Si Si6 0.978875 0.949002 0.624980
O O1 0.094815 0.566882 0.512788
O O2 0.145564 0.744974 0.513524
O O3 0.044709 0.317828 0.416866
O O4 0.882621 0.659369 0.792511
O O5 0.686210 0.921730 0.612815
O O6 0.757210 0.849991 0.817216
O O7 0.773512 0.746754 0.636901
O O8 0.870304 0.901981 0.634012
O O9 0.694324 0.934685 0.390009
O O10 0.780847 0.072174 0.516435
O O11 0.434463 0.628568 0.378424
O O12 0.000000 0.002596 0.750000
O O13 0.000000 0.000000 0.500000
#
# Coordination Sequence:
#
# PCOD9259001 Si02
#       6
#     8   8   8   8   8   8
#     4  10  21  38  56  76 107 148 185 220 276 347
#     4  10  20  35  56  80 109 145 186 225 274 341
#     4  12  21  33  56  86 108 132 182 241 281 306
#     4  10  20  35  56  80 109 145 186 225 274 341
#     4  10  21  38  56  76 107 148 185 220 276 347
#     4  10  18  34  58  83 112 154 194 231 280 341
#
# _framework density 22.382843999999999
#
# number of rings (size 3 to 8) (size 9 to 14) (size 15 to 20)
#    0.000    1.667    3.333    2.500    0.000    0.000 
#    0.000    0.000    0.000    2.000    0.000    0.000 
#    0.000    0.000    0.000    0.000    0.000    0.000 
#
# Total GULP energy -133828.757412 kJ/mol
# GULP energy per Si atom -5576.198225 kJ/mol
# Density = 2.233190 g / cm^3
# Si number density = 22.382844 Si / 1000 Ang^3
#
#
#
# Elastic Constant Matrix: (Units=GPa)
#
#
# Indices 1 2 3 4 5 6 
#
# 1 36.6424 14.2050 -6.2009 0.0000 -13.6776 0.0000
# 2 14.2050 160.1770 34.3163 0.0000 -2.0134 0.0000
# 3 -6.2009 34.3163 80.1662 0.0000 -6.0944 0.0000
# 4 0.0000 0.0000 0.0000 29.6590 0.0000 -5.5739
# 5 -13.6776 -2.0134 -6.0944 0.0000 25.7942 0.0000
# 6 0.0000 0.0000 0.0000 -5.5739 0.0000 24.9920
#
#
#
# Elastic Compliance Matrix: (Units=1/GPa)
#
#
# Indices 1 2 3 4 5 6 
#
# 1 0.038127 -0.004506 0.006505 0.000000 0.021403 0.000000
# 2 -0.004506 0.007407 -0.003724 0.000000 -0.002691 0.000000
# 3 0.006505 -0.003724 0.015082 0.000000 0.006722 0.000000
# 4 0.000000 0.000000 0.000000 0.035192 0.000000 0.007849
# 5 0.021403 -0.002691 0.006722 0.000000 0.051495 0.000000
# 6 0.000000 0.000000 0.000000 0.007849 0.000000 0.041763
#
#
# Mechanical properties :
#
#
# Convention : Reuss Voigt Hill
#
# Bulk Modulus (GPa) = 17.49253 40.18071 28.83662
# Shear Modulus (GPa) = 23.63273 31.73340 27.68306
#
# Velocity S-wave (km/s) = 3.25290 3.76939 3.52063
# Velocity P-wave (km/s) = 4.68408 6.07742 5.42566
#
# Compressibility (1/GPa) = 0.05716725
#
# Stress axis : x y z
#
# Youngs Moduli (GPa) = 26.22792 135.01454 66.30321
#
# Poissons Ratio (x) = 0.60836 -0.43130
# Poissons Ratio (y) = 0.11818 0.24689
# Poissons Ratio (z) = -0.17061 0.50274
#
# Static dielectric constant tensor:
#      x y z
#    x 1.885830 0.000000 -0.002000 
#    y 0.000000 1.910150 0.000000 
#    z -0.002000 0.000000 1.893250 
# 
# From -- ./inp_files/152098.got.cif
#   From: 2010.05.17/outbox.cif.g08.bks.cpg/sg15_77_cif.got.tgz:152098.got - 2010.06.03 18:47:42.
