data_PCOD9259044
_publ_section_title
;
Structure prediction by ZEFSAII (Michael W. Deem and Ramdas Pophale) SiO2 
 PCOD9259044
Probable space group: C 2/C
;
_chemical_formula_sum "Si O2"
_cell_formula_units_Z 52
_cell_length_a 21.261022
_cell_length_b 6.908692
_cell_length_c 14.587221
_cell_angle_alpha 90.000000
_cell_angle_beta 78.933617
_cell_angle_gamma 90.000000
_cell_volume 2102.814669
_symmetry_space_group_name_H-M "C 2/C"
_symmetry_group_IT_number 15
_symmetry_cell_setting 'monoclinic'
loop_
_space_group_symop_operation_xyz
x,y,z
-x,y,1/2-z
-x,-y,-z
x,-y,1/2+z
1/2+x,1/2+y,z
1/2-x,1/2+y,1/2-z
1/2-x,1/2-y,-z
1/2+x,1/2-y,1/2+z
loop_
_atom_site_type_symbol
_atom_site_label
_atom_site_fract_x
_atom_site_fract_y
_atom_site_fract_z
Si Si1 0.000000 0.766181 0.750000
Si Si2 0.574800 0.333995 0.042986
Si Si3 0.461550 0.792400 0.454230
Si Si4 0.289302 0.457779 0.559147
Si Si5 0.758256 0.910920 0.359413
Si Si6 0.647030 0.836259 0.886106
Si Si7 0.398140 0.401078 0.261962
O O1 0.979406 0.650742 0.846023
O O2 0.943073 0.913316 0.735843
O O3 0.554473 0.561363 0.047548
O O4 0.583167 0.296577 0.148407
O O5 0.522000 0.208241 0.005655
O O6 0.643765 0.341408 0.974612
O O7 0.397489 0.883030 0.514665
O O8 0.245107 0.320845 0.632420
O O9 0.261063 0.478489 0.465139
O O10 0.305971 0.661440 0.597864
O O11 0.824539 0.969226 0.294570
O O12 0.693103 0.996437 0.337888
O O13 0.600637 0.745245 0.822727
#
# Coordination Sequence:
#
# PCOD9259044 Si02
#       7
#     4   8   8   8   8   8   8
#     4  10  18  34  58  90 118 152 214 262 304 360
#     4   8  15  32  55  82 115 158 199 242 302 350
#     4   9  17  31  57  88 115 156 209 252 300 363
#     4   9  19  37  58  77 116 161 198 248 304 344
#     4  10  22  37  55  87 118 160 202 243 302 367
#     4  11  21  35  59  88 121 157 200 247 302 361
#     4  10  20  32  55  88 121 158 205 249 296 369
#
# _framework density 24.728763000000001
#
# number of rings (size 3 to 8) (size 9 to 14) (size 15 to 20)
#    0.000    2.462    0.000    5.077    2.154    0.000 
#    0.000    0.769    0.000    0.000    0.000   17.231 
#    0.000    0.000    0.000    0.000    0.000    0.000 
#
# Total GULP energy -145551.037202 kJ/mol
# GULP energy per Si atom -5598.116815 kJ/mol
# Density = 2.467248 g / cm^3
# Si number density = 24.728763 Si / 1000 Ang^3
#
#
#
# Elastic Constant Matrix: (Units=GPa)
#
#
# Indices 1 2 3 4 5 6 
#
# 1 92.1917 21.5840 34.4723 0.0000 -11.1759 0.0000
# 2 21.5840 60.6093 11.3920 0.0000 -6.9959 0.0000
# 3 34.4723 11.3920 114.3645 0.0000 -6.7618 0.0000
# 4 0.0000 0.0000 0.0000 5.5666 0.0000 -2.6739
# 5 -11.1759 -6.9959 -6.7618 0.0000 39.6539 0.0000
# 6 0.0000 0.0000 0.0000 -2.6739 0.0000 36.7428
#
#
#
# Elastic Compliance Matrix: (Units=1/GPa)
#
#
# Indices 1 2 3 4 5 6 
#
# 1 0.013348 -0.003809 -0.003497 0.000000 0.002494 0.000000
# 2 -0.003809 0.018193 -0.000543 0.000000 0.002044 0.000000
# 3 -0.003497 -0.000543 0.009888 0.000000 0.000605 0.000000
# 4 0.000000 0.000000 0.000000 0.186149 0.000000 0.013547
# 5 0.002494 0.002044 0.000605 0.000000 0.026385 0.000000
# 6 0.000000 0.000000 0.000000 0.013547 0.000000 0.028202
#
#
# Mechanical properties :
#
#
# Convention : Reuss Voigt Hill
#
# Bulk Modulus (GPa) = 38.86158 44.67355 41.76756
# Shear Modulus (GPa) = 16.31638 29.70715 23.01177
#
# Velocity S-wave (km/s) = 2.57147 3.46977 3.05383
# Velocity P-wave (km/s) = 4.95640 5.84440 5.41862
#
# Compressibility (1/GPa) = 0.02573236
#
# Stress axis : x y z
#
# Youngs Moduli (GPa) = 74.91522 54.96487 101.13415
#
# Poissons Ratio (x) = 0.20933 0.35364
# Poissons Ratio (y) = 0.28532 0.05496
# Poissons Ratio (z) = 0.26196 0.02987
#
# Static dielectric constant tensor:
#      x y z
#    x 1.942050 0.000000 0.017170 
#    y 0.000000 1.956940 0.000000 
#    z 0.017170 0.000000 1.966730 
# 
# From -- ./inp_files/166231.got.cif
#   From: 2010.05.17/outbox.cif.g08.bks.cpg/sg15_84_cif.got.tgz:166231.got - 2010.06.03 18:47:42.
