data_PCOD9259764
_publ_section_title
;
Structure prediction by ZEFSAII (Michael W. Deem and Ramdas Pophale) SiO2 
 PCOD9259764
Probable space group: C 2/C
;
_chemical_formula_sum "Si O2"
_cell_formula_units_Z 56
_cell_length_a 12.192116
_cell_length_b 25.516483
_cell_length_c 15.404975
_cell_angle_alpha 90.000000
_cell_angle_beta 141.305761
_cell_angle_gamma 90.000000
_cell_volume 2996.090903
_symmetry_space_group_name_H-M "C 2/C"
_symmetry_group_IT_number 15
_symmetry_cell_setting 'monoclinic'
loop_
_space_group_symop_operation_xyz
x,y,z
-x,y,1/2-z
-x,-y,-z
x,-y,1/2+z
1/2+x,1/2+y,z
1/2-x,1/2+y,1/2-z
1/2-x,1/2-y,-z
1/2+x,1/2-y,1/2+z
loop_
_atom_site_type_symbol
_atom_site_label
_atom_site_fract_x
_atom_site_fract_y
_atom_site_fract_z
Si Si1 0.175944 0.061311 0.893220
Si Si2 0.524986 0.916761 0.664517
Si Si3 0.848749 0.028882 0.980985
Si Si4 0.665369 0.902275 0.510583
Si Si5 0.837409 0.473941 0.319049
Si Si6 0.856597 0.802818 0.585456
Si Si7 0.875299 0.112607 0.314263
O O1 0.231238 0.025915 0.843680
O O2 0.000000 0.087693 0.750000
O O3 0.145282 0.025256 0.960135
O O4 0.335397 0.099998 0.012810
O O5 0.500000 0.928433 0.750000
O O6 0.691510 0.879782 0.750762
O O7 0.562981 0.971477 0.637905
O O8 0.725858 0.063870 0.966388
O O9 0.028831 0.061395 0.089740
O O10 0.773889 0.030594 0.837936
O O11 0.474741 0.925673 0.412106
O O12 0.694169 0.841903 0.505711
O O13 0.807322 0.904456 0.676576
O O14 0.750000 0.750000 0.500000
O O15 0.000000 0.792276 0.750000
O O16 0.985992 0.839247 0.603571
#
# Coordination Sequence:
#
# PCOD9259764 Si02
#       7
#     8   8   8   8   8   8   8
#     4  12  24  35  49  72 110 156 202 246 278 327
#     4  12  22  36  53  76 114 157 204 235 273 338
#     4  11  21  34  50  76 110 150 204 238 279 336
#     4  10  18  36  54  80 110 150 183 233 290 342
#     4  12  22  34  53  76 113 160 201 241 282 329
#     4   9  20  37  62  88 115 140 180 236 300 356
#     4  10  22  37  56  80 113 153 187 236 296 338
#
# _framework density 18.691023000000001
#
# number of rings (size 3 to 8) (size 9 to 14) (size 15 to 20)
#    0.000    1.143    4.286    4.714    2.000    3.429 
#    0.000    0.000    0.000    0.000    0.000    5.000 
#    0.000    0.000    0.000    0.000    0.000    0.000 
#
# Total GULP energy -155897.874331 kJ/mol
# GULP energy per Si atom -5567.781226 kJ/mol
# Density = 1.864848 g / cm^3
# Si number density = 18.691023 Si / 1000 Ang^3
#
#
#
# Elastic Constant Matrix: (Units=GPa)
#
#
# Indices 1 2 3 4 5 6 
#
# 1 94.2363 17.7864 39.5774 0.0000 4.1144 0.0000
# 2 17.7864 79.2758 27.3176 0.0000 21.4515 0.0000
# 3 39.5774 27.3176 104.5649 0.0000 15.2452 0.0000
# 4 0.0000 0.0000 0.0000 25.7436 0.0000 11.5898
# 5 4.1144 21.4515 15.2452 0.0000 34.9235 0.0000
# 6 0.0000 0.0000 0.0000 11.5898 0.0000 15.9625
#
#
#
# Elastic Compliance Matrix: (Units=1/GPa)
#
#
# Indices 1 2 3 4 5 6 
#
# 1 0.012809 -0.001699 -0.004631 0.000000 0.001556 0.000000
# 2 -0.001699 0.016147 -0.002305 0.000000 -0.008712 0.000000
# 3 -0.004631 -0.002305 0.012423 0.000000 -0.003462 0.000000
# 4 0.000000 0.000000 0.000000 0.057708 0.000000 -0.041900
# 5 0.001556 -0.008712 -0.003462 0.000000 0.035313 0.000000
# 6 0.000000 0.000000 0.000000 -0.041900 0.000000 0.093069
#
#
# Mechanical properties :
#
#
# Convention : Reuss Voigt Hill
#
# Bulk Modulus (GPa) = 41.47909 49.71554 45.59732
# Shear Modulus (GPa) = 19.78023 28.21895 23.99959
#
# Velocity S-wave (km/s) = 3.25664 3.88978 3.58721
# Velocity P-wave (km/s) = 6.03168 6.84326 6.45024
#
# Compressibility (1/GPa) = 0.02410853
#
# Stress axis : x y z
#
# Youngs Moduli (GPa) = 78.06746 61.93066 80.49397
#
# Poissons Ratio (x) = 0.10523 0.37279
# Poissons Ratio (y) = 0.13265 0.18555
# Poissons Ratio (z) = 0.36156 0.14276
#
# Static dielectric constant tensor:
#      x y z
#    x 1.774990 0.000000 0.032860 
#    y 0.000000 1.615260 0.000000 
#    z 0.032860 0.000000 1.749100 
# 
# From -- ./inp_files/148566.got.cif
#   From: 2010.05.17/outbox.cif.g08.bks.cpg/sg15_75_cif.got.tgz:148566.got - 2010.06.03 18:47:42.
