data_PCOD9259266
_publ_section_title
;
Structure prediction by ZEFSAII (Michael W. Deem and Ramdas Pophale) SiO2 
 PCOD9259266
Probable space group: C 2/C
;
_chemical_formula_sum "Si O2"
_cell_formula_units_Z 56
_cell_length_a 18.139934
_cell_length_b 16.984537
_cell_length_c 8.960870
_cell_angle_alpha 90.000000
_cell_angle_beta 54.369864
_cell_angle_gamma 90.000000
_cell_volume 2243.986971
_symmetry_space_group_name_H-M "C 2/C"
_symmetry_group_IT_number 15
_symmetry_cell_setting 'monoclinic'
loop_
_space_group_symop_operation_xyz
x,y,z
-x,y,1/2-z
-x,-y,-z
x,-y,1/2+z
1/2+x,1/2+y,z
1/2-x,1/2+y,1/2-z
1/2-x,1/2-y,-z
1/2+x,1/2-y,1/2+z
loop_
_atom_site_type_symbol
_atom_site_label
_atom_site_fract_x
_atom_site_fract_y
_atom_site_fract_z
Si Si1 0.431103 0.006531 0.446302
Si Si2 0.451511 0.246957 0.462015
Si Si3 0.568280 0.174681 0.543300
Si Si4 0.749865 0.418802 0.055805
Si Si5 0.757393 0.200052 0.204973
Si Si6 0.094642 0.105243 0.319190
Si Si7 0.855773 0.034383 0.539624
O O1 0.500000 0.042726 0.250000
O O2 0.406288 0.914655 0.443072
O O3 0.500000 0.000000 0.500000
O O4 0.340311 0.055021 0.534095
O O5 0.500000 0.263662 0.250000
O O6 0.503451 0.175798 0.476273
O O7 0.341984 0.239836 0.587144
O O8 0.466291 0.323585 0.549757
O O9 0.500000 0.205664 0.750000
O O10 0.660290 0.220137 0.390126
O O11 0.680064 0.415786 0.276788
O O12 0.754935 0.344044 0.939387
O O13 0.719042 0.487277 0.973608
O O14 0.803702 0.138092 0.264951
O O15 0.086555 0.033636 0.445918
O O16 0.093586 0.082228 0.148543
#
# Coordination Sequence:
#
# PCOD9259266 Si02
#       7
#     8   8   8   8   8   8   8
#     4  11  22  35  58  98 139 166 214 284 349 411
#     4  10  24  47  65  92 141 184 244 281 327 423
#     4  11  24  43  66  98 136 186 232 282 342 417
#     4  10  18  34  64 101 135 172 214 278 360 423
#     4   9  21  42  68  96 136 179 229 287 345 401
#     4   8  18  36  61  97 133 169 224 285 339 405
#     4   9  15  31  63  96 127 167 218 275 350 403
#
# _framework density 24.955583000000001
#
# number of rings (size 3 to 8) (size 9 to 14) (size 15 to 20)
#    0.857    1.429    0.000    4.286    0.000    4.000 
#    2.571    0.714    0.000    0.000    0.000    0.000 
#    0.000    0.000    0.000    0.000    0.000    0.000 
#
# Total GULP energy -156189.803774 kJ/mol
# GULP energy per Si atom -5578.207278 kJ/mol
# Density = 2.489878 g / cm^3
# Si number density = 24.955583 Si / 1000 Ang^3
#
#
#
# Elastic Constant Matrix: (Units=GPa)
#
#
# Indices 1 2 3 4 5 6 
#
# 1 114.2344 18.8942 50.4094 0.0000 -53.3463 0.0000
# 2 18.8942 79.4372 50.7157 0.0000 -14.0005 0.0000
# 3 50.4094 50.7157 168.8095 0.0000 15.3108 0.0000
# 4 0.0000 0.0000 0.0000 -56.9258 0.0000 22.9450
# 5 -53.3463 -14.0005 15.3108 0.0000 14.5826 0.0000
# 6 0.0000 0.0000 0.0000 22.9450 0.0000 33.4040
#
#
#
# Elastic Compliance Matrix: (Units=1/GPa)
#
#
# Indices 1 2 3 4 5 6 
#
# 1 -0.003176 -0.006515 0.005003 0.000000 -0.023126 0.000000
# 2 -0.006515 0.012968 -0.001015 0.000000 -0.010316 0.000000
# 3 0.005003 -0.001015 0.003496 0.000000 0.013658 0.000000
# 4 0.000000 0.000000 0.000000 -0.013758 0.000000 0.009450
# 5 -0.023126 -0.010316 0.013658 0.000000 -0.040270 0.000000
# 6 0.000000 0.000000 0.000000 0.009450 0.000000 0.023445
#
#
# Mechanical properties :
#
#
# Convention : Reuss Voigt Hill
#
# Bulk Modulus (GPa) = 121.43321 66.94666 94.18993
# Shear Modulus (GPa) = -526.51415 14.37628 -256.06893
#
# Velocity S-wave (km/s) = -14.54093 2.40276 -10.14064
# Velocity P-wave (km/s) = 15.26934 5.88067 9.96420
#
# Compressibility (1/GPa) = 0.00823498
#
# Stress axis : x y z
#
# Youngs Moduli (GPa) = -314.86446 77.11428 286.04212
#
# Poissons Ratio (x) = 0.50237 -1.43110
# Poissons Ratio (y) = -2.05123 0.29029
# Poissons Ratio (z) = 1.57530 0.07826
#
# Static dielectric constant tensor:
#      x y z
#    x 1.930970 0.000000 -0.042340 
#    y 0.000000 2.034610 0.000000 
#    z -0.042340 0.000000 1.958810 
# 
# From -- ./inp_files/56475.got.cif
#   From: 2010.05.17/outbox.cif.g08.bks.cpg/sg15_29_cif.got.tgz:56475.got - 2010.06.03 18:47:42.
