data_PCOD9259600
_publ_section_title
;
Structure prediction by ZEFSAII (Michael W. Deem and Ramdas Pophale) SiO2 
 PCOD9259600
Probable space group: C 2/C
;
_chemical_formula_sum "Si O2"
_cell_formula_units_Z 64
_cell_length_a 9.178227
_cell_length_b 21.694159
_cell_length_c 16.721575
_cell_angle_alpha 90.000000
_cell_angle_beta 89.790429
_cell_angle_gamma 90.000000
_cell_volume 3329.476006
_symmetry_space_group_name_H-M "C 2/C"
_symmetry_group_IT_number 15
_symmetry_cell_setting 'monoclinic'
loop_
_space_group_symop_operation_xyz
x,y,z
-x,y,1/2-z
-x,-y,-z
x,-y,1/2+z
1/2+x,1/2+y,z
1/2-x,1/2+y,1/2-z
1/2-x,1/2-y,-z
1/2+x,1/2-y,1/2+z
loop_
_atom_site_type_symbol
_atom_site_label
_atom_site_fract_x
_atom_site_fract_y
_atom_site_fract_z
Si Si1 0.863326 0.079842 0.922566
Si Si2 0.315241 0.587637 0.610499
Si Si3 0.826801 0.211123 0.252980
Si Si4 0.143892 0.596251 0.206498
Si Si5 0.302403 0.267769 0.089003
Si Si6 0.863319 0.527104 0.453284
Si Si7 0.657821 0.490935 0.236034
Si Si8 0.905575 0.205020 0.831524
O O1 0.834315 0.030034 0.854226
O O2 0.848848 0.145500 0.878776
O O3 0.035747 0.078592 0.940239
O O4 0.754886 0.063314 0.993066
O O5 0.270337 0.658928 0.603639
O O6 0.207669 0.535241 0.581117
O O7 0.344482 0.566999 0.702384
O O8 0.770707 0.145598 0.220349
O O9 0.776580 0.226284 0.343841
O O10 0.733744 0.257441 0.197612
O O11 0.000000 0.217529 0.250000
O O12 0.102390 0.575036 0.117677
O O13 0.207176 0.534170 0.245419
O O14 0.000000 0.620571 0.250000
O O15 0.475884 0.262642 0.109604
O O16 0.250000 0.250000 0.000000
O O17 0.000000 0.500000 0.500000
O O18 0.500000 0.522211 0.250000
O O19 0.000000 0.192156 0.750000
#
# Coordination Sequence:
#
# PCOD9259600 Si02
#       8
#     8   8   8   8   8   8   8   8
#     4  10  18  35  61  85 111 146 188 236 288 347
#     4   9  20  37  57  83 117 152 189 228 286 360
#     4  11  24  41  61  87 118 158 206 251 302 371
#     4  11  23  40  57  78 115 158 196 242 301 362
#     4  10  21  38  63  90 118 158 201 247 299 357
#     4  11  24  37  55  89 122 151 194 250 303 349
#     4   9  17  33  58  82 107 146 188 228 281 349
#     4   9  19  39  62  86 118 157 197 240 298 367
#
# _framework density 19.222245000000001
#
# number of rings (size 3 to 8) (size 9 to 14) (size 15 to 20)
#    0.000    2.000    0.000    5.250    0.000    6.000 
#    0.000    4.375    0.000    0.000    0.000    0.000 
#    0.000    0.000    0.000    0.000    0.000    0.000 
#
# Total GULP energy -178376.692909 kJ/mol
# GULP energy per Si atom -5574.271653 kJ/mol
# Density = 1.917849 g / cm^3
# Si number density = 19.222245 Si / 1000 Ang^3
#
#
#
# Elastic Constant Matrix: (Units=GPa)
#
#
# Indices 1 2 3 4 5 6 
#
# 1 87.6778 24.6052 30.3191 0.0000 18.3626 0.0000
# 2 24.6052 64.1737 6.6126 0.0000 12.7273 0.0000
# 3 30.3191 6.6126 70.7270 0.0000 19.5649 0.0000
# 4 0.0000 0.0000 0.0000 21.7572 0.0000 4.6814
# 5 18.3626 12.7273 19.5649 0.0000 27.9136 0.0000
# 6 0.0000 0.0000 0.0000 4.6814 0.0000 21.7654
#
#
#
# Elastic Compliance Matrix: (Units=1/GPa)
#
#
# Indices 1 2 3 4 5 6 
#
# 1 0.015306 -0.004449 -0.004864 0.000000 -0.004631 0.000000
# 2 -0.004449 0.018452 0.002109 0.000000 -0.006965 0.000000
# 3 -0.004864 0.002109 0.019114 0.000000 -0.011158 0.000000
# 4 0.000000 0.000000 0.000000 0.048192 0.000000 -0.010365
# 5 -0.004631 -0.006965 -0.011158 0.000000 0.049868 0.000000
# 6 0.000000 0.000000 0.000000 -0.010365 0.000000 0.048174
#
#
# Mechanical properties :
#
#
# Convention : Reuss Voigt Hill
#
# Bulk Modulus (GPa) = 25.99923 38.40581 32.20252
# Shear Modulus (GPa) = 22.09108 25.02335 23.55721
#
# Velocity S-wave (km/s) = 3.39373 3.61195 3.50454
# Velocity P-wave (km/s) = 5.37694 6.11704 5.75889
#
# Compressibility (1/GPa) = 0.03846267
#
# Stress axis : x y z
#
# Youngs Moduli (GPa) = 65.33462 54.19324 52.31865
#
# Poissons Ratio (x) = 0.24110 0.25450
# Poissons Ratio (y) = 0.29066 -0.11032
# Poissons Ratio (z) = 0.31781 -0.11427
#
# Static dielectric constant tensor:
#      x y z
#    x 1.705470 0.000000 0.010900 
#    y 0.000000 1.697240 0.000000 
#    z 0.010900 0.000000 1.688340 
# 
# From -- ./inp_files/137839.got.cif
#   From: 2010.05.17/outbox.cif.g08.bks.cpg/sg15_69_cif.got.tgz:137839.got - 2010.06.03 18:47:42.
