data_PCOD9259984
_publ_section_title
;
Structure prediction by ZEFSAII (Michael W. Deem and Ramdas Pophale) SiO2 
 PCOD9259984
Probable space group: C 2/C
;
_chemical_formula_sum "Si O2"
_cell_formula_units_Z 40
_cell_length_a 7.782224
_cell_length_b 18.497717
_cell_length_c 21.842883
_cell_angle_alpha 90.000000
_cell_angle_beta 148.136309
_cell_angle_gamma 90.000000
_cell_volume 1659.906651
_symmetry_space_group_name_H-M "C 2/C"
_symmetry_group_IT_number 15
_symmetry_cell_setting 'monoclinic'
loop_
_space_group_symop_operation_xyz
x,y,z
-x,y,1/2-z
-x,-y,-z
x,-y,1/2+z
1/2+x,1/2+y,z
1/2-x,1/2+y,1/2-z
1/2-x,1/2-y,-z
1/2+x,1/2-y,1/2+z
loop_
_atom_site_type_symbol
_atom_site_label
_atom_site_fract_x
_atom_site_fract_y
_atom_site_fract_z
Si Si1 0.630539 0.286876 0.357180
Si Si2 0.490791 0.973694 0.580474
Si Si3 0.146039 0.102018 0.632008
Si Si4 0.231508 0.124519 0.098163
Si Si5 0.787883 0.611557 0.462581
O O1 0.500000 0.301669 0.250000
O O2 0.428920 0.332035 0.345710
O O3 0.602024 0.201534 0.359601
O O4 0.004288 0.314644 0.477077
O O5 0.442707 0.941274 0.633599
O O6 0.719467 0.924917 0.606941
O O7 0.132782 0.957101 0.442847
O O8 0.512381 0.057985 0.573426
O O9 0.500000 0.073630 0.750000
O O10 0.077405 0.125624 0.541872
O O11 0.065156 0.118702 0.113657
#
# Coordination Sequence:
#
# PCOD9259984 Si02
#       5
#     8   8   8   8   8
#     4  11  22  36  56  87 120 152 201 238 286 349
#     4   8  20  34  60  85 112 149 196 236 295 349
#     4   9  19  35  57  84 112 150 191 239 286 345
#     4  10  20  36  60  83 113 159 188 240 288 344
#     4  10  18  36  60  85 112 152 193 241 296 347
#
# _framework density 24.097740999999999
#
# number of rings (size 3 to 8) (size 9 to 14) (size 15 to 20)
#    1.200    1.200    0.000    3.000    0.000    0.000 
#    0.000    1.000    8.800    0.000    0.000    0.000 
#    0.000    0.000    0.000    0.000    0.000    0.000 
#
# Total GULP energy -111634.736998 kJ/mol
# GULP energy per Si atom -5581.736850 kJ/mol
# Density = 2.404289 g / cm^3
# Si number density = 24.097741 Si / 1000 Ang^3
#
#
#
# Elastic Constant Matrix: (Units=GPa)
#
#
# Indices 1 2 3 4 5 6 
#
# 1 112.7688 1.6545 13.9713 0.0062 7.8842 -0.0084
# 2 1.6545 80.7246 -1.6801 0.0023 -1.7339 -0.0012
# 3 13.9713 -1.6801 53.1008 0.0049 -10.9034 0.0544
# 4 0.0062 0.0023 0.0049 12.7179 0.0033 -8.1411
# 5 7.8842 -1.7339 -10.9034 0.0033 26.3223 0.0079
# 6 -0.0084 -0.0012 0.0544 -8.1411 0.0079 -30.5096
#
#
#
# Elastic Compliance Matrix: (Units=1/GPa)
#
#
# Indices 1 2 3 4 5 6 
#
# 1 0.009599 -0.000361 -0.003423 -0.000007 -0.004317 -0.000008
# 2 -0.000361 0.012437 0.000742 -0.000002 0.001235 0.000002
# 3 -0.003423 0.000742 0.021834 0.000015 0.010118 0.000038
# 4 -0.000007 -0.000002 0.000015 0.067158 0.000005 -0.017920
# 5 -0.004317 0.001235 0.010118 0.000005 0.043556 0.000029
# 6 -0.000008 0.000002 0.000038 -0.017920 0.000029 -0.027995
#
#
# Mechanical properties :
#
#
# Convention : Reuss Voigt Hill
#
# Bulk Modulus (GPa) = 26.46505 30.49840 28.48173
# Shear Modulus (GPa) = 34.41882 17.21602 25.81742
#
# Velocity S-wave (km/s) = 3.78339 2.67577 3.27672
# Velocity P-wave (km/s) = 5.48558 4.71486 5.11476
#
# Compressibility (1/GPa) = 0.03778568
#
# Stress axis : x y z
#
# Youngs Moduli (GPa) = 104.17815 80.40422 45.80030
#
# Poissons Ratio (x) = 0.02900 0.15679
# Poissons Ratio (y) = 0.03758 -0.03398
# Poissons Ratio (z) = 0.35664 -0.05965
#
# Static dielectric constant tensor:
#      x y z
#    x 1.930240 0.000010 0.003700 
#    y 0.000010 1.895670 0.000000 
#    z 0.003700 0.000000 1.895450 
# 
# From -- ./inp_files/189505.got.cif
#   From: 2010.05.17/outbox.cif.g08.bks.cpg/sg15_95_cif.got.tgz:189505.got - 2010.06.03 18:47:42.
