data_PCOD9259691
_publ_section_title
;
Structure prediction by ZEFSAII (Michael W. Deem and Ramdas Pophale) SiO2 
 PCOD9259691
Probable space group: C 2/C
;
_chemical_formula_sum "Si O2"
_cell_formula_units_Z 64
_cell_length_a 18.922181
_cell_length_b 10.039911
_cell_length_c 22.547841
_cell_angle_alpha 90.000000
_cell_angle_beta 134.878340
_cell_angle_gamma 90.000000
_cell_volume 3035.367171
_symmetry_space_group_name_H-M "C 2/C"
_symmetry_group_IT_number 15
_symmetry_cell_setting 'monoclinic'
loop_
_space_group_symop_operation_xyz
x,y,z
-x,y,1/2-z
-x,-y,-z
x,-y,1/2+z
1/2+x,1/2+y,z
1/2-x,1/2+y,1/2-z
1/2-x,1/2-y,-z
1/2+x,1/2-y,1/2+z
loop_
_atom_site_type_symbol
_atom_site_label
_atom_site_fract_x
_atom_site_fract_y
_atom_site_fract_z
Si Si1 0.055335 0.401837 0.409527
Si Si2 0.288547 0.901490 0.345259
Si Si3 0.328152 0.638356 0.523455
Si Si4 0.654762 0.133764 0.753955
Si Si5 0.328998 0.197733 0.412353
Si Si6 0.109705 0.855530 0.322089
Si Si7 0.149699 0.551580 0.354768
Si Si8 0.531513 0.182791 0.465144
O O1 0.130371 0.320268 0.496441
O O2 0.106189 0.457392 0.380166
O O3 0.024410 0.535377 0.430110
O O4 0.956500 0.320801 0.331508
O O5 0.291681 0.886431 0.277043
O O6 0.184748 0.856230 0.312067
O O7 0.381927 0.829933 0.433354
O O8 0.299618 0.053140 0.370910
O O9 0.250000 0.750000 0.500000
O O10 0.346441 0.564221 0.595749
O O11 0.267986 0.562137 0.437687
O O12 0.424810 0.711079 0.555437
O O13 0.731490 0.214665 0.840946
O O14 0.632259 0.001988 0.778902
O O15 0.428302 0.230159 0.432568
O O16 0.103628 0.698377 0.334264
O O17 0.000000 0.908188 0.250000
#
# Coordination Sequence:
#
# PCOD9259691 Si02
#       8
#     8   8   8   8   8   8   8   8
#     4  11  20  43  69  91 124 169 226 269 314 382
#     4  11  22  40  65  91 130 166 212 266 322 395
#     4  10  18  35  63  97 123 148 202 279 325 358
#     4  12  26  39  61  99 127 174 218 259 316 392
#     4  11  25  41  63  93 132 177 216 253 330 388
#     4  11  22  37  66 100 123 157 209 278 331 366
#     4  11  23  40  66  96 123 160 221 276 316 371
#     4  11  18  40  68  94 122 167 211 268 326 378
#
# _framework density 21.084764
#
# number of rings (size 3 to 8) (size 9 to 14) (size 15 to 20)
#    0.000    1.000    7.500    2.625    3.500    0.500 
#    0.000    3.125    0.000    0.000    0.000    0.000 
#    0.000    0.000    0.000    0.000    0.000    0.000 
#
# Total GULP energy -178474.077192 kJ/mol
# GULP energy per Si atom -5577.314912 kJ/mol
# Density = 2.103677 g / cm^3
# Si number density = 21.084764 Si / 1000 Ang^3
#
#
#
# Elastic Constant Matrix: (Units=GPa)
#
#
# Indices 1 2 3 4 5 6 
#
# 1 95.5383 17.5817 43.7349 0.0000 -0.5785 0.0000
# 2 17.5817 15.2686 12.5522 0.0000 5.0043 0.0000
# 3 43.7349 12.5522 118.5144 0.0000 4.4457 0.0000
# 4 0.0000 0.0000 0.0000 18.9082 0.0000 3.0142
# 5 -0.5785 5.0043 4.4457 0.0000 45.4759 0.0000
# 6 0.0000 0.0000 0.0000 3.0142 0.0000 21.9608
#
#
#
# Elastic Compliance Matrix: (Units=1/GPa)
#
#
# Indices 1 2 3 4 5 6 
#
# 1 0.015054 -0.014704 -0.004081 0.000000 0.002209 0.000000
# 2 -0.014704 0.088515 -0.003589 0.000000 -0.009576 0.000000
# 3 -0.004081 -0.003589 0.010349 0.000000 -0.000669 0.000000
# 4 0.000000 0.000000 0.000000 0.054070 0.000000 -0.007421
# 5 0.002209 -0.009576 -0.000669 0.000000 0.023137 0.000000
# 6 0.000000 0.000000 0.000000 -0.007421 0.000000 0.046554
#
#
# Mechanical properties :
#
#
# Convention : Reuss Voigt Hill
#
# Bulk Modulus (GPa) = 14.45727 41.89544 28.17635
# Shear Modulus (GPa) = 16.36741 27.63249 21.99995
#
# Velocity S-wave (km/s) = 2.78918 3.62407 3.23368
# Velocity P-wave (km/s) = 4.15263 6.11760 5.22826
#
# Compressibility (1/GPa) = 0.06916935
#
# Stress axis : x y z
#
# Youngs Moduli (GPa) = 66.42536 11.29755 96.62736
#
# Poissons Ratio (x) = 0.16612 0.39434
# Poissons Ratio (y) = 0.97672 0.34684
# Poissons Ratio (z) = 0.27108 0.04055
#
# Static dielectric constant tensor:
#      x y z
#    x 1.773410 0.000000 0.035710 
#    y 0.000000 1.775510 0.000000 
#    z 0.035710 0.000000 1.866820 
# 
# From -- ./inp_files/248632.got.cif
#   From: 2010.05.17/outbox.cif.g08.bks.cpg/sg15_125_cif.got.tgz:248632.got - 2010.06.03 18:47:42.
