data_PCOD9259497
_publ_section_title
;
Structure prediction by ZEFSAII (Michael W. Deem and Ramdas Pophale) SiO2 
 PCOD9259497
Probable space group: C 2/C
;
_chemical_formula_sum "Si O2"
_cell_formula_units_Z 56
_cell_length_a 9.709708
_cell_length_b 11.583051
_cell_length_c 23.487119
_cell_angle_alpha 90.000000
_cell_angle_beta 112.161555
_cell_angle_gamma 90.000000
_cell_volume 2446.402886
_symmetry_space_group_name_H-M "C 2/C"
_symmetry_group_IT_number 15
_symmetry_cell_setting 'monoclinic'
loop_
_space_group_symop_operation_xyz
x,y,z
-x,y,1/2-z
-x,-y,-z
x,-y,1/2+z
1/2+x,1/2+y,z
1/2-x,1/2+y,1/2-z
1/2-x,1/2-y,-z
1/2+x,1/2-y,1/2+z
loop_
_atom_site_type_symbol
_atom_site_label
_atom_site_fract_x
_atom_site_fract_y
_atom_site_fract_z
Si Si1 0.326292 0.119935 0.984381
Si Si2 0.322185 0.001513 0.670809
Si Si3 0.840618 0.459911 0.301878
Si Si4 0.208499 0.929853 0.039967
Si Si5 0.366611 0.895635 0.912632
Si Si6 0.591950 0.276733 0.929509
Si Si7 0.760829 0.248780 0.364173
O O1 0.259654 0.213503 0.930600
O O2 0.361566 0.017458 0.944938
O O3 0.474601 0.153558 0.042401
O O4 0.219957 0.053046 0.011524
O O5 0.336758 0.863453 0.663435
O O6 0.481661 0.060392 0.681358
O O7 0.278945 0.022024 0.729064
O O8 0.205387 0.050493 0.606529
O O9 0.844727 0.571611 0.343525
O O10 0.750499 0.359757 0.321099
O O11 0.361057 0.855840 0.051576
O O12 0.094515 0.851895 0.987579
O O13 0.226146 0.822647 0.911798
O O14 0.431266 0.288732 0.878914
#
# Coordination Sequence:
#
# PCOD9259497 Si02
#       7
#     8   8   8   8   8   8   8
#     4   9  16  31  58  84 116 156 192 245 297 357
#     4  11  23  39  65  86 117 163 210 245 296 375
#     4  10  22  44  62  84 119 161 206 255 287 366
#     4  10  18  35  58  91 123 154 199 248 304 362
#     4   9  16  32  60  86 117 155 196 241 301 351
#     4  10  19  32  61  93 121 155 195 250 311 368
#     4  11  22  39  63  90 117 159 203 245 317 367
#
# _framework density 22.890751999999999
#
# number of rings (size 3 to 8) (size 9 to 14) (size 15 to 20)
#    0.000    2.000    2.857    3.429    0.000    2.286 
#    0.000    0.000   25.143    0.000    0.000    0.000 
#    0.000    0.000    0.000    0.000    0.000    0.000 
#
# Total GULP energy -156257.318339 kJ/mol
# GULP energy per Si atom -5580.618512 kJ/mol
# Density = 2.283865 g / cm^3
# Si number density = 22.890752 Si / 1000 Ang^3
#
#
#
# Elastic Constant Matrix: (Units=GPa)
#
#
# Indices 1 2 3 4 5 6 
#
# 1 44.6196 20.0372 14.0026 0.0000 -10.4438 0.0000
# 2 20.0372 102.8038 39.5676 0.0000 -16.1269 0.0000
# 3 14.0026 39.5676 163.3928 0.0000 -44.3590 0.0000
# 4 0.0000 0.0000 0.0000 24.5094 0.0000 -2.3693
# 5 -10.4438 -16.1269 -44.3590 0.0000 19.7060 0.0000
# 6 0.0000 0.0000 0.0000 -2.3693 0.0000 27.3249
#
#
#
# Elastic Compliance Matrix: (Units=1/GPa)
#
#
# Indices 1 2 3 4 5 6 
#
# 1 0.027733 -0.003714 0.004340 0.000000 0.021429 0.000000
# 2 -0.003714 0.011678 -0.001156 0.000000 0.004987 0.000000
# 3 0.004340 -0.001156 0.016447 0.000000 0.038378 0.000000
# 4 0.000000 0.000000 0.000000 0.041145 0.000000 0.003568
# 5 0.021429 0.004987 0.038378 0.000000 0.152573 0.000000
# 6 0.000000 0.000000 0.000000 0.003568 0.000000 0.036906
#
#
# Mechanical properties :
#
#
# Convention : Reuss Voigt Hill
#
# Bulk Modulus (GPa) = 18.24856 50.89234 34.57045
# Shear Modulus (GPa) = 16.35006 30.12200 23.23603
#
# Velocity S-wave (km/s) = 2.67547 3.63147 3.18949
# Velocity P-wave (km/s) = 4.18731 6.31383 5.35714
#
# Compressibility (1/GPa) = 0.05479885
#
# Stress axis : x y z
#
# Youngs Moduli (GPa) = 36.05780 85.62808 60.80073
#
# Poissons Ratio (x) = 0.31806 -0.26390
# Poissons Ratio (y) = 0.13393 0.07028
# Poissons Ratio (z) = -0.15650 0.09898
#
# Static dielectric constant tensor:
#      x y z
#    x 1.869480 0.000000 -0.024750 
#    y 0.000000 1.919690 0.000000 
#    z -0.024750 0.000000 1.876070 
# 
# From -- ./inp_files/268973.got.cif
#   From: 2010.05.17/outbox.cif.g08.bks.cpg/sg15_135_cif.got.tgz:268973.got - 2010.06.03 18:47:42.
