data_PCOD9259614
_publ_section_title
;
Structure prediction by ZEFSAII (Michael W. Deem and Ramdas Pophale) SiO2 
 PCOD9259614
Probable space group: C 2/C
;
_chemical_formula_sum "Si O2"
_cell_formula_units_Z 60
_cell_length_a 14.144500
_cell_length_b 15.909155
_cell_length_c 27.269047
_cell_angle_alpha 90.000000
_cell_angle_beta 149.333628
_cell_angle_gamma 90.000000
_cell_volume 3129.733432
_symmetry_space_group_name_H-M "C 2/C"
_symmetry_group_IT_number 15
_symmetry_cell_setting 'monoclinic'
loop_
_space_group_symop_operation_xyz
x,y,z
-x,y,1/2-z
-x,-y,-z
x,-y,1/2+z
1/2+x,1/2+y,z
1/2-x,1/2+y,1/2-z
1/2-x,1/2-y,-z
1/2+x,1/2-y,1/2+z
loop_
_atom_site_type_symbol
_atom_site_label
_atom_site_fract_x
_atom_site_fract_y
_atom_site_fract_z
Si Si1 0.118641 0.725897 0.514851
Si Si2 0.709432 0.253582 0.836602
Si Si3 0.729757 0.728807 0.171960
Si Si4 0.405173 0.984498 0.115554
Si Si5 0.823254 0.183190 0.993413
Si Si6 0.836887 0.121652 0.534666
Si Si7 0.254191 0.628662 0.766405
Si Si8 0.500000 0.090775 0.250000
O O1 0.183320 0.725069 0.599737
O O2 0.134365 0.820925 0.500970
O O3 0.266531 0.677720 0.548016
O O4 0.903355 0.697827 0.410080
O O5 0.500000 0.290449 0.750000
O O6 0.769491 0.216981 0.915799
O O7 0.695494 0.180790 0.789137
O O8 0.764625 0.799754 0.228587
O O9 0.880651 0.656572 0.229392
O O10 0.540949 0.680168 0.099573
O O11 0.267989 0.907072 0.046157
O O12 0.604369 0.944390 0.192602
O O13 0.401987 0.027378 0.167980
O O14 0.325503 0.056191 0.045549
O O15 0.750000 0.250000 0.000000
O O16 0.042522 0.089333 0.637056
#
# Coordination Sequence:
#
# PCOD9259614 Si02
#       8
#     8   8   8   8   8   8   8   4
#     4   9  20  39  63  89 125 171 219 273 322 400
#     4  10  18  35  61  90 122 164 213 260 322 388
#     4  11  22  41  67  93 123 174 232 257 332 415
#     4  12  24  40  60 100 136 163 219 278 330 382
#     4  11  22  41  62  90 129 175 211 266 329 401
#     4  10  22  41  61  93 133 169 214 275 337 381
#     4  11  23  40  66  91 133 180 214 272 335 402
#     4  12  26  38  66 106 132 166 222 288 336 388
#
# _framework density 19.170961999999999
#
# number of rings (size 3 to 8) (size 9 to 14) (size 15 to 20)
#    0.000    1.333    4.000    1.600    5.600    0.533 
#    0.000    0.667    0.000    0.000    3.467    0.000 
#    0.000    0.000    0.000    0.000    0.000    0.000 
#
# Total GULP energy -167173.491696 kJ/mol
# GULP energy per Si atom -5572.449723 kJ/mol
# Density = 1.912733 g / cm^3
# Si number density = 19.170962 Si / 1000 Ang^3
#
#
#
# Elastic Constant Matrix: (Units=GPa)
#
#
# Indices 1 2 3 4 5 6 
#
# 1 82.7584 30.1951 31.8845 -0.0001 5.3483 0.0000
# 2 30.1951 66.1085 35.4419 0.0000 -9.7301 0.0000
# 3 31.8845 35.4419 77.2317 0.0004 2.9137 0.0000
# 4 -0.0001 0.0000 0.0004 25.4870 0.0000 8.9361
# 5 5.3483 -9.7301 2.9137 0.0000 31.0962 -0.0001
# 6 0.0000 0.0000 0.0000 8.9361 -0.0001 16.8113
#
#
#
# Elastic Compliance Matrix: (Units=1/GPa)
#
#
# Indices 1 2 3 4 5 6 
#
# 1 0.015946 -0.005922 -0.003705 0.000000 -0.004249 0.000000
# 2 -0.005922 0.023990 -0.008917 0.000000 0.009361 0.000000
# 3 -0.003705 -0.008917 0.018717 0.000000 -0.003907 0.000000
# 4 0.000000 0.000000 0.000000 0.048223 0.000000 -0.025633
# 5 -0.004249 0.009361 -0.003907 0.000000 0.036184 0.000000
# 6 0.000000 0.000000 0.000000 -0.025633 0.000000 0.073109
#
#
# Mechanical properties :
#
#
# Convention : Reuss Voigt Hill
#
# Bulk Modulus (GPa) = 46.37369 46.79350 46.58359
# Shear Modulus (GPa) = 19.19769 23.25070 21.22420
#
# Velocity S-wave (km/s) = 3.16791 3.48632 3.33092
# Velocity P-wave (km/s) = 6.13376 6.37710 6.25661
#
# Compressibility (1/GPa) = 0.02156395
#
# Stress axis : x y z
#
# Youngs Moduli (GPa) = 62.71060 41.68365 53.42650
#
# Poissons Ratio (x) = 0.24687 0.19796
# Poissons Ratio (y) = 0.37140 0.47642
# Poissons Ratio (z) = 0.23235 0.37171
#
# Static dielectric constant tensor:
#      x y z
#    x 1.712670 0.000000 0.033080 
#    y 0.000000 1.644080 0.000000 
#    z 0.033080 0.000000 1.709380 
# 
# From -- ./inp_files/296700.got.cif
#   From: 2010.05.17/outbox.cif.g08.bks.cpg/sg15_149_cif.got.tgz:296700.got - 2010.06.03 18:47:42.
