data_PCOD9259747
_publ_section_title
;
Structure prediction by ZEFSAII (Michael W. Deem and Ramdas Pophale) SiO2 
 PCOD9259747
Probable space group: C 2/C
;
_chemical_formula_sum "Si O2"
_cell_formula_units_Z 52
_cell_length_a 8.531678
_cell_length_b 16.952414
_cell_length_c 14.960644
_cell_angle_alpha 90.000000
_cell_angle_beta 83.857498
_cell_angle_gamma 90.000000
_cell_volume 2151.373215
_symmetry_space_group_name_H-M "C 2/C"
_symmetry_group_IT_number 15
_symmetry_cell_setting 'monoclinic'
loop_
_space_group_symop_operation_xyz
x,y,z
-x,y,1/2-z
-x,-y,-z
x,-y,1/2+z
1/2+x,1/2+y,z
1/2-x,1/2+y,1/2-z
1/2-x,1/2-y,-z
1/2+x,1/2-y,1/2+z
loop_
_atom_site_type_symbol
_atom_site_label
_atom_site_fract_x
_atom_site_fract_y
_atom_site_fract_z
Si Si1 0.718688 0.254766 0.799665
Si Si2 0.579131 0.731380 0.549665
Si Si3 0.757521 0.587007 0.733541
Si Si4 0.502421 0.598974 0.141609
Si Si5 0.341710 0.157098 0.120318
Si Si6 0.500000 0.045707 0.250000
Si Si7 0.996965 0.929491 0.106498
O O1 0.876224 0.242700 0.848373
O O2 0.649392 0.166784 0.796835
O O3 0.604263 0.321383 0.848967
O O4 0.768820 0.285563 0.700203
O O5 0.750000 0.750000 0.500000
O O6 0.440417 0.793742 0.541643
O O7 0.527280 0.641787 0.536452
O O8 0.631495 0.606041 0.817638
O O9 0.661087 0.563037 0.651030
O O10 0.854871 0.513813 0.764320
O O11 0.500000 0.577705 0.250000
O O12 0.682802 0.613474 0.100466
O O13 0.444322 0.519722 0.094812
O O14 0.460717 0.099019 0.166424
#
# Coordination Sequence:
#
# PCOD9259747 Si02
#       7
#     8   8   8   8   8   4   8
#     4  10  20  36  59  83 111 145 183 230 279 335
#     4  11  23  38  57  78 111 154 194 228 276 332
#     4  10  19  30  53  86 112 138 173 225 275 332
#     4  10  19  33  58  87 111 140 181 232 287 331
#     4  11  20  36  56  84 112 141 181 236 280 329
#     4  12  20  30  56  94 112 132 184 232 282 326
#     4  10  18  36  52  77 113 145 179 217 284 326
#
# _framework density 24.170608999999999
#
# number of rings (size 3 to 8) (size 9 to 14) (size 15 to 20)
#    0.000    1.538    6.154    0.923    3.231    0.000 
#    0.000    2.308    0.000    0.000    0.000    0.000 
#    0.000    0.000    0.000    0.000    0.000    0.000 
#
# Total GULP energy -145180.157513 kJ/mol
# GULP energy per Si atom -5583.852212 kJ/mol
# Density = 2.411560 g / cm^3
# Si number density = 24.170609 Si / 1000 Ang^3
#
#
#
# Elastic Constant Matrix: (Units=GPa)
#
#
# Indices 1 2 3 4 5 6 
#
# 1 90.1006 48.6144 16.2321 0.0000 -15.6492 0.0000
# 2 48.6144 226.2263 42.0312 0.0000 -26.7338 0.0000
# 3 16.2321 42.0312 55.6240 0.0000 -26.4286 0.0000
# 4 0.0000 0.0000 0.0000 31.1642 0.0000 -12.4429
# 5 -15.6492 -26.7338 -26.4286 0.0000 36.1652 0.0000
# 6 0.0000 0.0000 0.0000 -12.4429 0.0000 38.3893
#
#
#
# Elastic Compliance Matrix: (Units=1/GPa)
#
#
# Indices 1 2 3 4 5 6 
#
# 1 0.013044 -0.002309 -0.000293 0.000000 0.003724 0.000000
# 2 -0.002309 0.005603 -0.003166 0.000000 0.000829 0.000000
# 3 -0.000293 -0.003166 0.029540 0.000000 0.019120 0.000000
# 4 0.000000 0.000000 0.000000 0.036858 0.000000 0.011947
# 5 0.003724 0.000829 0.019120 0.000000 0.043848 0.000000
# 6 0.000000 0.000000 0.000000 0.011947 0.000000 0.029921
#
#
# Mechanical properties :
#
#
# Convention : Reuss Voigt Hill
#
# Bulk Modulus (GPa) = 27.28358 65.07849 46.18103
# Shear Modulus (GPa) = 27.38750 38.81530 33.10140
#
# Velocity S-wave (km/s) = 3.36979 4.01170 3.70468
# Velocity P-wave (km/s) = 5.14326 6.95999 6.11942
#
# Compressibility (1/GPa) = 0.03665208
#
# Stress axis : x y z
#
# Youngs Moduli (GPa) = 76.66467 178.48771 33.85225
#
# Poissons Ratio (x) = 0.41205 0.00991
# Poissons Ratio (y) = 0.17699 0.10717
# Poissons Ratio (z) = 0.02244 0.56508
#
# Static dielectric constant tensor:
#      x y z
#    x 1.934620 0.000000 0.038310 
#    y 0.000000 1.985840 0.000000 
#    z 0.038310 0.000000 2.029820 
# 
# From -- ./inp_files/190562.got.cif
#   From: 2010.05.17/outbox.cif.g08.bks.cpg/sg15_96_cif.got.tgz:190562.got - 2010.06.03 18:47:42.
