data_PCOD9259912
_publ_section_title
;
Structure prediction by ZEFSAII (Michael W. Deem and Ramdas Pophale) SiO2 
 PCOD9259912
Probable space group: C 2/C
;
_chemical_formula_sum "Si O2"
_cell_formula_units_Z 52
_cell_length_a 15.534967
_cell_length_b 8.460026
_cell_length_c 24.615704
_cell_angle_alpha 90.000000
_cell_angle_beta 137.602026
_cell_angle_gamma 90.000000
_cell_volume 2181.384248
_symmetry_space_group_name_H-M "C 2/C"
_symmetry_group_IT_number 15
_symmetry_cell_setting 'monoclinic'
loop_
_space_group_symop_operation_xyz
x,y,z
-x,y,1/2-z
-x,-y,-z
x,-y,1/2+z
1/2+x,1/2+y,z
1/2-x,1/2+y,1/2-z
1/2-x,1/2-y,-z
1/2+x,1/2-y,1/2+z
loop_
_atom_site_type_symbol
_atom_site_label
_atom_site_fract_x
_atom_site_fract_y
_atom_site_fract_z
Si Si1 0.760592 0.942696 0.136877
Si Si2 0.465192 0.834397 0.320989
Si Si3 0.731165 0.344165 0.694014
Si Si4 0.551936 0.091319 0.116834
Si Si5 0.989848 0.064035 0.934683
Si Si6 0.177044 0.104517 0.439227
Si Si7 0.000000 0.173736 0.250000
O O1 0.635688 0.014506 0.107979
O O2 0.755150 0.987164 0.070728
O O3 0.887233 0.035609 0.215408
O O4 0.765000 0.759047 0.156630
O O5 0.366087 0.765101 0.317205
O O6 0.567302 0.694830 0.350571
O O7 0.406495 0.831457 0.234761
O O8 0.533906 0.968452 0.388325
O O9 0.851313 0.370712 0.788293
O O10 0.649696 0.502993 0.648697
O O11 0.495651 0.250163 0.066680
O O12 0.096557 0.982537 0.947339
O O13 0.000000 0.000000 0.000000
O O14 0.250000 0.250000 0.500000
#
# Coordination Sequence:
#
# PCOD9259912 Si02
#       7
#     8   8   8   8   8   8   4
#     4  10  21  36  64  83 122 160 209 259 316 374
#     4   9  20  36  60  87 116 159 207 254 310 380
#     4  10  21  38  63  93 122 168 212 255 317 390
#     4  11  21  39  63  94 124 164 207 268 314 383
#     4  11  24  42  65  92 130 169 215 264 322 389
#     4  10  22  42  61  84 119 164 212 258 318 382
#     4  10  18  36  58  90 122 164 198 262 326 374
#
# _framework density 23.838076000000001
#
# number of rings (size 3 to 8) (size 9 to 14) (size 15 to 20)
#    0.000    1.846    1.538    2.769    4.308    1.231 
#    2.769    6.154    0.000    0.000    0.000    0.000 
#    0.000    0.000    0.000    0.000    0.000    0.000 
#
# Total GULP energy -144808.056899 kJ/mol
# GULP energy per Si atom -5569.540650 kJ/mol
# Density = 2.378382 g / cm^3
# Si number density = 23.838076 Si / 1000 Ang^3
#
#
#
# Elastic Constant Matrix: (Units=GPa)
#
#
# Indices 1 2 3 4 5 6 
#
# 1 139.3987 56.5232 0.6406 0.0000 -30.6966 0.0000
# 2 56.5232 82.7668 7.2933 0.0000 0.8113 0.0000
# 3 0.6406 7.2933 45.7047 0.0000 -9.1582 0.0000
# 4 0.0000 0.0000 0.0000 34.6861 0.0000 -6.3913
# 5 -30.6966 0.8113 -9.1582 0.0000 32.6301 0.0000
# 6 0.0000 0.0000 0.0000 -6.3913 0.0000 52.2865
#
#
#
# Elastic Compliance Matrix: (Units=1/GPa)
#
#
# Indices 1 2 3 4 5 6 
#
# 1 0.014977 -0.010792 0.004651 0.000000 0.015664 0.000000
# 2 -0.010792 0.020055 -0.005492 0.000000 -0.012192 0.000000
# 3 0.004651 -0.005492 0.025001 0.000000 0.011529 0.000000
# 4 0.000000 0.000000 0.000000 0.029494 0.000000 0.003605
# 5 0.015664 -0.012192 0.011529 0.000000 0.048921 0.000000
# 6 0.000000 0.000000 0.000000 0.003605 0.000000 0.019566
#
#
# Mechanical properties :
#
#
# Convention : Reuss Voigt Hill
#
# Bulk Modulus (GPa) = 27.19790 44.08717 35.64253
# Shear Modulus (GPa) = 25.83486 37.48141 31.65813
#
# Velocity S-wave (km/s) = 3.29563 3.96957 3.64819
# Velocity P-wave (km/s) = 5.09075 6.28845 5.72103
#
# Compressibility (1/GPa) = 0.03676755
#
# Stress axis : x y z
#
# Youngs Moduli (GPa) = 66.76759 49.86164 39.99852
#
# Poissons Ratio (x) = 0.53809 -0.18602
# Poissons Ratio (y) = 0.72054 0.21968
# Poissons Ratio (z) = -0.31052 0.27385
#
# Static dielectric constant tensor:
#      x y z
#    x 1.786250 0.000000 -0.072880 
#    y 0.000000 2.099500 0.000000 
#    z -0.072880 0.000000 1.963660 
# 
# From -- ./inp_files/242432.got.cif
#   From: 2010.05.17/outbox.cif.g08.bks.cpg/sg15_122_cif.got.tgz:242432.got - 2010.06.03 18:47:42.
