data_PCOD9259017
_publ_section_title
;
Structure prediction by ZEFSAII (Michael W. Deem and Ramdas Pophale) SiO2 
 PCOD9259017
Probable space group: C 2/C
;
_chemical_formula_sum "Si O2"
_cell_formula_units_Z 60
_cell_length_a 17.502133
_cell_length_b 9.128552
_cell_length_c 21.501836
_cell_angle_alpha 90.000000
_cell_angle_beta 110.956985
_cell_angle_gamma 90.000000
_cell_volume 3208.079884
_symmetry_space_group_name_H-M "C 2/C"
_symmetry_group_IT_number 15
_symmetry_cell_setting 'monoclinic'
loop_
_space_group_symop_operation_xyz
x,y,z
-x,y,1/2-z
-x,-y,-z
x,-y,1/2+z
1/2+x,1/2+y,z
1/2-x,1/2+y,1/2-z
1/2-x,1/2-y,-z
1/2+x,1/2-y,1/2+z
loop_
_atom_site_type_symbol
_atom_site_label
_atom_site_fract_x
_atom_site_fract_y
_atom_site_fract_z
Si Si1 0.183766 0.791090 0.149059
Si Si2 0.247603 0.920588 0.512417
Si Si3 0.737223 0.483544 0.876909
Si Si4 0.344490 0.971566 0.158709
Si Si5 0.646280 0.283144 0.280741
Si Si6 0.428705 0.305526 0.635869
Si Si7 0.500000 0.497338 0.250000
Si Si8 0.916833 0.917808 0.495605
O O1 0.207543 0.621784 0.147759
O O2 0.152120 0.810008 0.209173
O O3 0.121787 0.836504 0.075766
O O4 0.267355 0.884808 0.165752
O O5 0.250000 0.750000 0.500000
O O6 0.308673 0.966009 0.584014
O O7 0.272994 0.997500 0.455814
O O8 0.155979 0.971890 0.504175
O O9 0.721361 0.639417 0.839398
O O10 0.653453 0.392565 0.866131
O O11 0.365417 0.113756 0.205588
O O12 0.415004 0.855891 0.160521
O O13 0.572882 0.384984 0.281278
O O14 0.501744 0.394101 0.691038
O O15 0.432536 0.318894 0.562134
O O16 0.000000 0.000000 0.500000
#
# Coordination Sequence:
#
# PCOD9259017 Si02
#       8
#     8   8   8   8   8   8   4   8
#     4  10  20  34  54  83 112 143 184 231 285 331
#     4  10  18  34  58  85 108 143 191 236 275 331
#     4   9  18  33  55  80 108 142 187 231 274 330
#     4  10  20  34  58  84 108 143 193 240 275 329
#     4  11  20  34  54  82 112 148 183 231 283 338
#     4   9  19  36  56  81 107 146 192 232 275 337
#     4  10  22  36  56  76 110 152 190 224 286 346
#     4  10  20  35  59  83 114 151 187 231 288 344
#
# _framework density 18.702776
#
# number of rings (size 3 to 8) (size 9 to 14) (size 15 to 20)
#    0.000    2.133    1.333    2.400    0.000    3.733 
#    0.000    0.000    2.933    1.600    0.000    0.000 
#    0.000    0.000    0.000    0.000    0.000    0.000 
#
# Total GULP energy -167118.398587 kJ/mol
# GULP energy per Si atom -5570.613286 kJ/mol
# Density = 1.866021 g / cm^3
# Si number density = 18.702776 Si / 1000 Ang^3
#
#
#
# Elastic Constant Matrix: (Units=GPa)
#
#
# Indices 1 2 3 4 5 6 
#
# 1 20.8284 18.9726 2.4017 0.0000 2.4821 0.0000
# 2 18.9726 117.7421 33.6189 0.0000 -5.0013 0.0000
# 3 2.4017 33.6189 83.2845 0.0000 -6.1902 0.0000
# 4 0.0000 0.0000 0.0000 32.8938 0.0000 -6.0409
# 5 2.4821 -5.0013 -6.1902 0.0000 19.0238 0.0000
# 6 0.0000 0.0000 0.0000 -6.0409 0.0000 15.6827
#
#
#
# Elastic Compliance Matrix: (Units=1/GPa)
#
#
# Indices 1 2 3 4 5 6 
#
# 1 0.058375 -0.010323 0.001758 0.000000 -0.009758 0.000000
# 2 -0.010323 0.011456 -0.004102 0.000000 0.003024 0.000000
# 3 0.001758 -0.004102 0.013850 0.000000 0.003199 0.000000
# 4 0.000000 0.000000 0.000000 0.032715 0.000000 0.012602
# 5 -0.009758 0.003024 0.003199 0.000000 0.055675 0.000000
# 6 0.000000 0.000000 0.000000 0.012602 0.000000 0.068618
#
#
# Mechanical properties :
#
#
# Convention : Reuss Voigt Hill
#
# Bulk Modulus (GPa) = 17.13862 36.87126 27.00494
# Shear Modulus (GPa) = 17.51489 24.64419 21.07954
#
# Velocity S-wave (km/s) = 3.06353 3.63392 3.36084
# Velocity P-wave (km/s) = 4.65802 6.11263 5.43422
#
# Compressibility (1/GPa) = 0.05834774
#
# Stress axis : x y z
#
# Youngs Moduli (GPa) = 17.13072 87.28883 72.20254
#
# Poissons Ratio (x) = 0.90107 -0.12696
# Poissons Ratio (y) = 0.17684 0.29618
# Poissons Ratio (z) = -0.03012 0.35806
#
# Static dielectric constant tensor:
#      x y z
#    x 1.670550 0.000000 0.048300 
#    y 0.000000 1.670500 0.000000 
#    z 0.048300 0.000000 1.709700 
# 
# From -- ./inp_files/247556.got.cif
#   From: 2010.05.17/outbox.cif.g08.bks.cpg/sg15_124_cif.got.tgz:247556.got - 2010.06.03 18:47:42.
