data_PCOD9259300
_publ_section_title
;
Structure prediction by ZEFSAII (Michael W. Deem and Ramdas Pophale) SiO2 
 PCOD9259300
Probable space group: C 2/C
;
_chemical_formula_sum "Si O2"
_cell_formula_units_Z 52
_cell_length_a 10.114550
_cell_length_b 16.699992
_cell_length_c 11.843383
_cell_angle_alpha 90.000000
_cell_angle_beta 98.178849
_cell_angle_gamma 90.000000
_cell_volume 1980.152760
_symmetry_space_group_name_H-M "C 2/C"
_symmetry_group_IT_number 15
_symmetry_cell_setting 'monoclinic'
loop_
_space_group_symop_operation_xyz
x,y,z
-x,y,1/2-z
-x,-y,-z
x,-y,1/2+z
1/2+x,1/2+y,z
1/2-x,1/2+y,1/2-z
1/2-x,1/2-y,-z
1/2+x,1/2-y,1/2+z
loop_
_atom_site_type_symbol
_atom_site_label
_atom_site_fract_x
_atom_site_fract_y
_atom_site_fract_z
Si Si1 0.000000 0.243912 0.250000
Si Si2 0.671598 0.173395 0.283579
Si Si3 0.757371 0.098037 0.059890
Si Si4 0.321507 0.428085 0.119015
Si Si5 0.783408 0.169035 0.822258
Si Si6 0.541874 0.881284 0.977559
Si Si7 0.926060 0.197666 0.464701
O O1 0.869587 0.300915 0.222036
O O2 0.004685 0.185121 0.357964
O O3 0.738264 0.129663 0.185407
O O4 0.632595 0.256968 0.219154
O O5 0.577499 0.117864 0.349049
O O6 0.776916 0.200147 0.392961
O O7 0.599603 0.079676 0.010701
O O8 0.843869 0.018006 0.081049
O O9 0.797421 0.152959 0.957212
O O10 0.322078 0.407778 0.251710
O O11 0.168458 0.409904 0.063298
O O12 0.415019 0.366716 0.061486
O O13 0.528845 0.786210 0.997953
#
# Coordination Sequence:
#
# PCOD9259300 Si02
#       7
#     4   8   8   8   8   8   8
#     4  10  18  34  66  88 104 164 232 258 264 386
#     4  10  21  38  58  87 121 169 211 261 308 379
#     4  12  25  34  59  98 130 152 210 277 323 355
#     4  11  22  37  58  90 131 171 196 262 329 384
#     4  11  20  38  59  86 123 164 211 252 317 374
#     4  11  19  40  58  88 126 171 208 252 308 391
#     4  10  19  39  64  83 120 173 226 235 309 389
#
# _framework density 26.260601000000001
#
# number of rings (size 3 to 8) (size 9 to 14) (size 15 to 20)
#    0.000    1.231    6.154    2.308    4.308    0.000 
#    2.769    0.000    0.000    3.692    8.000    0.000 
#    0.000    0.000    0.000    0.000    0.000    0.000 
#
# Total GULP energy -145332.883854 kJ/mol
# GULP energy per Si atom -5589.726302 kJ/mol
# Density = 2.620083 g / cm^3
# Si number density = 26.260601 Si / 1000 Ang^3
#
#
#
# Elastic Constant Matrix: (Units=GPa)
#
#
# Indices 1 2 3 4 5 6 
#
# 1 68.5330 -5.8914 16.0320 0.0000 -10.2169 0.0000
# 2 -5.8914 102.4895 33.7117 0.0000 -10.6683 0.0000
# 3 16.0320 33.7117 195.9625 0.0000 -4.8031 0.0000
# 4 0.0000 0.0000 0.0000 31.3658 0.0000 5.0676
# 5 -10.2169 -10.6683 -4.8031 0.0000 57.4950 0.0000
# 6 0.0000 0.0000 0.0000 5.0676 0.0000 7.9576
#
#
#
# Elastic Compliance Matrix: (Units=1/GPa)
#
#
# Indices 1 2 3 4 5 6 
#
# 1 0.015524 0.001689 -0.001488 0.000000 0.002948 0.000000
# 2 0.001689 0.010710 -0.001928 0.000000 0.002126 0.000000
# 3 -0.001488 -0.001928 0.005553 0.000000 -0.000158 0.000000
# 4 0.000000 0.000000 0.000000 0.035538 0.000000 -0.022631
# 5 0.002948 0.002126 -0.000158 0.000000 0.018298 0.000000
# 6 0.000000 0.000000 0.000000 -0.022631 0.000000 0.140078
#
#
# Mechanical properties :
#
#
# Convention : Reuss Voigt Hill
#
# Bulk Modulus (GPa) = 35.29741 50.52105 42.90923
# Shear Modulus (GPa) = 20.95549 40.90586 30.93067
#
# Velocity S-wave (km/s) = 2.82792 3.95104 3.43568
# Velocity P-wave (km/s) = 4.91256 6.33201 5.66691
#
# Compressibility (1/GPa) = 0.02833069
#
# Stress axis : x y z
#
# Youngs Moduli (GPa) = 64.41519 93.37227 180.09407
#
# Poissons Ratio (x) = -0.15768 0.26804
# Poissons Ratio (y) = -0.10878 0.34731
# Poissons Ratio (z) = 0.09587 0.18007
#
# Static dielectric constant tensor:
#      x y z
#    x 2.416980 0.000000 -0.028870 
#    y 0.000000 2.012400 0.000000 
#    z -0.028870 0.000000 2.058650 
# 
# From -- ./inp_files/97800.got.cif
#   From: 2010.05.17/outbox.cif.g08.bks.cpg/sg15_49_cif.got.tgz:97800.got - 2010.06.03 18:47:42.
