data_PCOD9259874
_publ_section_title
;
Structure prediction by ZEFSAII (Michael W. Deem and Ramdas Pophale) SiO2 
 PCOD9259874
Probable space group: C 2/C
;
_chemical_formula_sum "Si O2"
_cell_formula_units_Z 48
_cell_length_a 9.317769
_cell_length_b 10.837934
_cell_length_c 25.720923
_cell_angle_alpha 90.000000
_cell_angle_beta 119.330061
_cell_angle_gamma 90.000000
_cell_volume 2264.477596
_symmetry_space_group_name_H-M "C 2/C"
_symmetry_group_IT_number 15
_symmetry_cell_setting 'monoclinic'
loop_
_space_group_symop_operation_xyz
x,y,z
-x,y,1/2-z
-x,-y,-z
x,-y,1/2+z
1/2+x,1/2+y,z
1/2-x,1/2+y,1/2-z
1/2-x,1/2-y,-z
1/2+x,1/2-y,1/2+z
loop_
_atom_site_type_symbol
_atom_site_label
_atom_site_fract_x
_atom_site_fract_y
_atom_site_fract_z
Si Si1 0.816895 0.558998 0.421405
Si Si2 0.295940 0.672148 0.366180
Si Si3 0.561171 0.354830 0.377909
Si Si4 0.937627 0.633630 0.552459
Si Si5 0.509773 0.404962 0.690847
Si Si6 0.124183 0.927240 0.060654
O O1 0.714141 0.439756 0.425061
O O2 0.897516 0.623545 0.484565
O O3 0.671577 0.627215 0.364809
O O4 0.957810 0.489576 0.413716
O O5 0.135819 0.742770 0.358611
O O6 0.450616 0.748726 0.416584
O O7 0.343992 0.664091 0.313780
O O8 0.302161 0.535816 0.390261
O O9 0.474156 0.450190 0.322527
O O10 0.459770 0.334513 0.412573
O O11 0.768273 0.631915 0.553019
O O12 0.500000 0.386873 0.750000
O O13 0.000000 0.000000 0.000000
#
# Coordination Sequence:
#
# PCOD9259874 Si02
#       6
#     8   8   8   8   8   8
#     4   8  17  34  56  83 112 150 177 233 291 321
#     4  10  21  37  59  82 114 151 186 236 290 334
#     4   8  18  37  52  82 113 144 191 230 283 325
#     4  10  18  36  58  82 121 140 186 237 277 351
#     4   9  18  37  62  77 111 152 189 238 284 337
#     4  11  20  34  53  87 118 149 188 227 282 346
#
# _framework density 21.196942
#
# number of rings (size 3 to 8) (size 9 to 14) (size 15 to 20)
#    1.000    1.667    1.667    0.000    0.000    3.333 
#    3.000    3.333    0.000    0.000    0.000    0.000 
#    0.000    0.000    0.000    0.000    0.000    0.000 
#
# Total GULP energy -133733.327539 kJ/mol
# GULP energy per Si atom -5572.221981 kJ/mol
# Density = 2.114870 g / cm^3
# Si number density = 21.196942 Si / 1000 Ang^3
#
#
#
# Elastic Constant Matrix: (Units=GPa)
#
#
# Indices 1 2 3 4 5 6 
#
# 1 115.5793 30.2316 19.7478 0.0000 -19.0526 0.0000
# 2 30.2316 55.9931 13.9065 0.0000 -13.1276 0.0000
# 3 19.7478 13.9065 64.1631 0.0000 -24.4756 0.0000
# 4 0.0000 0.0000 0.0000 13.6231 0.0000 -4.6768
# 5 -19.0526 -13.1276 -24.4756 0.0000 22.1639 0.0000
# 6 0.0000 0.0000 0.0000 -4.6768 0.0000 36.3243
#
#
#
# Elastic Compliance Matrix: (Units=1/GPa)
#
#
# Indices 1 2 3 4 5 6 
#
# 1 0.010902 -0.004280 0.000311 0.000000 0.007180 0.000000
# 2 -0.004280 0.022424 0.000208 0.000000 0.009831 0.000000
# 3 0.000311 0.000208 0.026943 0.000000 0.030144 0.000000
# 4 0.000000 0.000000 0.000000 0.076799 0.000000 0.009888
# 5 0.007180 0.009831 0.030144 0.000000 0.090402 0.000000
# 6 0.000000 0.000000 0.000000 0.009888 0.000000 0.028803
#
#
# Mechanical properties :
#
#
# Convention : Reuss Voigt Hill
#
# Bulk Modulus (GPa) = 18.95871 40.38970 29.67420
# Shear Modulus (GPa) = 17.76974 25.87890 21.82432
#
# Velocity S-wave (km/s) = 2.89851 3.49790 3.21222
# Velocity P-wave (km/s) = 4.49058 5.95060 5.27138
#
# Compressibility (1/GPa) = 0.05274622
#
# Stress axis : x y z
#
# Youngs Moduli (GPa) = 91.72599 44.59585 37.11524
#
# Poissons Ratio (x) = 0.19087 -0.01155
# Poissons Ratio (y) = 0.39259 -0.00770
# Poissons Ratio (z) = -0.02855 -0.00925
#
# Static dielectric constant tensor:
#      x y z
#    x 1.828670 0.000000 0.002730 
#    y 0.000000 1.847950 0.000000 
#    z 0.002730 0.000000 1.744200 
# 
# From -- ./inp_files/263538.got.cif
#   From: 2010.05.17/outbox.cif.g08.bks.cpg/sg15_132_cif.got.tgz:263538.got - 2010.06.03 18:47:42.
