data_PCOD9259507
_publ_section_title
;
Structure prediction by ZEFSAII (Michael W. Deem and Ramdas Pophale) SiO2 
 PCOD9259507
Probable space group: C 2/C
;
_chemical_formula_sum "Si O2"
_cell_formula_units_Z 60
_cell_length_a 12.039513
_cell_length_b 9.239744
_cell_length_c 21.899542
_cell_angle_alpha 90.000000
_cell_angle_beta 65.914881
_cell_angle_gamma 90.000000
_cell_volume 2224.058577
_symmetry_space_group_name_H-M "C 2/C"
_symmetry_group_IT_number 15
_symmetry_cell_setting 'monoclinic'
loop_
_space_group_symop_operation_xyz
x,y,z
-x,y,1/2-z
-x,-y,-z
x,-y,1/2+z
1/2+x,1/2+y,z
1/2-x,1/2+y,1/2-z
1/2-x,1/2-y,-z
1/2+x,1/2-y,1/2+z
loop_
_atom_site_type_symbol
_atom_site_label
_atom_site_fract_x
_atom_site_fract_y
_atom_site_fract_z
Si Si1 0.500000 0.023103 0.750000
Si Si2 0.498748 0.407076 0.156066
Si Si3 0.770835 0.747018 0.360527
Si Si4 0.815246 0.327421 0.720653
Si Si5 0.577571 0.668204 0.085242
Si Si6 0.041781 0.802916 0.460965
Si Si7 0.312520 0.042760 0.091172
Si Si8 0.813043 0.568471 0.887435
O O1 0.388324 0.100878 0.808059
O O2 0.431746 0.925315 0.714871
O O3 0.602051 0.335509 0.173926
O O4 0.370994 0.331092 0.195136
O O5 0.505208 0.579279 0.153004
O O6 0.534974 0.359547 0.078401
O O7 0.739220 0.691683 0.299699
O O8 0.797594 0.604033 0.393911
O O9 0.683661 0.870046 0.406680
O O10 0.769857 0.400414 0.668524
O O11 0.711329 0.594688 0.064649
O O12 0.604364 0.837862 0.085666
O O13 0.510809 0.649113 0.035852
O O14 0.065169 0.632015 0.448098
O O15 0.178237 0.868203 0.421418
#
# Coordination Sequence:
#
# PCOD9259507 Si02
#       8
#     4   8   8   8   8   8   8   8
#     4  10  20  38  58  82 126 154 180 254 324 360
#     4  10  19  38  62  87 116 166 204 241 308 367
#     4  10  20  38  61  87 121 156 199 247 309 370
#     4  10  18  35  59  80 123 157 189 253 311 365
#     4  10  21  40  60  87 123 161 207 251 301 362
#     4  10  21  40  63  84 124 162 204 259 298 353
#     4   9  20  34  59  86 112 156 207 233 304 373
#     4  10  20  39  61  86 121 157 195 253 307 350
#
# _framework density 26.977705
#
# number of rings (size 3 to 8) (size 9 to 14) (size 15 to 20)
#    0.000    2.133    2.667    2.000    0.000    6.400 
#    9.600    6.667    2.933    0.000    0.000    0.000 
#    0.000    0.000    0.000    0.000    0.000    0.000 
#
# Total GULP energy -167673.402984 kJ/mol
# GULP energy per Si atom -5589.113433 kJ/mol
# Density = 2.691630 g / cm^3
# Si number density = 26.977705 Si / 1000 Ang^3
#
#
#
# Elastic Constant Matrix: (Units=GPa)
#
#
# Indices 1 2 3 4 5 6 
#
# 1 85.3680 29.5942 17.6279 0.0000 7.7659 0.0000
# 2 29.5942 168.8317 29.5732 0.0000 -3.7999 0.0000
# 3 17.6279 29.5732 43.3704 0.0000 26.3709 0.0000
# 4 0.0000 0.0000 0.0000 29.7886 0.0000 -10.9159
# 5 7.7659 -3.7999 26.3709 0.0000 50.3493 0.0000
# 6 0.0000 0.0000 0.0000 -10.9159 0.0000 31.5544
#
#
#
# Elastic Compliance Matrix: (Units=1/GPa)
#
#
# Indices 1 2 3 4 5 6 
#
# 1 0.013137 -0.001530 -0.004393 0.000000 0.000159 0.000000
# 2 -0.001530 0.007594 -0.007408 0.000000 0.004689 0.000000
# 3 -0.004393 -0.007408 0.043757 0.000000 -0.022800 0.000000
# 4 0.000000 0.000000 0.000000 0.038443 0.000000 0.013299
# 5 0.000159 0.004689 -0.022800 0.000000 0.032132 0.000000
# 6 0.000000 0.000000 0.000000 0.013299 0.000000 0.036292
#
#
# Mechanical properties :
#
#
# Convention : Reuss Voigt Hill
#
# Bulk Modulus (GPa) = 26.43630 50.12898 38.28264
# Shear Modulus (GPa) = 23.73880 37.05679 30.39780
#
# Velocity S-wave (km/s) = 2.96960 3.71024 3.36039
# Velocity P-wave (km/s) = 4.64528 6.08083 5.41087
#
# Compressibility (1/GPa) = 0.03782678
#
# Stress axis : x y z
#
# Youngs Moduli (GPa) = 76.12108 131.67827 22.85350
#
# Poissons Ratio (x) = 0.20141 0.10041
# Poissons Ratio (y) = 0.11643 0.16929
# Poissons Ratio (z) = 0.33443 0.97543
#
# Static dielectric constant tensor:
#      x y z
#    x 2.048580 0.000000 -0.025870 
#    y 0.000000 2.132050 0.000000 
#    z -0.025870 0.000000 2.155990 
# 
# From -- ./inp_files/273112.got.cif
#   From: 2010.05.17/outbox.cif.g08.bks.cpg/sg15_137_cif.got.tgz:273112.got - 2010.06.03 18:47:42.
