data_PCOD9259715
_publ_section_title
;
Structure prediction by ZEFSAII (Michael W. Deem and Ramdas Pophale) SiO2 
 PCOD9259715
Probable space group: C 2/C
;
_chemical_formula_sum "Si O2"
_cell_formula_units_Z 64
_cell_length_a 31.649781
_cell_length_b 7.982766
_cell_length_c 17.676152
_cell_angle_alpha 90.000000
_cell_angle_beta 41.274226
_cell_angle_gamma 90.000000
_cell_volume 2946.011177
_symmetry_space_group_name_H-M "C 2/C"
_symmetry_group_IT_number 15
_symmetry_cell_setting 'monoclinic'
loop_
_space_group_symop_operation_xyz
x,y,z
-x,y,1/2-z
-x,-y,-z
x,-y,1/2+z
1/2+x,1/2+y,z
1/2-x,1/2+y,1/2-z
1/2-x,1/2-y,-z
1/2+x,1/2-y,1/2+z
loop_
_atom_site_type_symbol
_atom_site_label
_atom_site_fract_x
_atom_site_fract_y
_atom_site_fract_z
Si Si1 0.026397 0.886131 0.532579
Si Si2 0.846635 0.500654 0.834385
Si Si3 0.148271 0.186069 0.579237
Si Si4 0.245009 0.026273 0.845333
Si Si5 0.383182 0.371510 0.774927
Si Si6 0.534473 0.862290 0.904539
Si Si7 0.083100 0.805596 0.021683
Si Si8 0.300947 0.649919 0.237240
O O1 0.064142 0.750903 0.431914
O O2 0.958962 0.832034 0.661320
O O3 0.071181 0.994192 0.526911
O O4 0.000000 0.000000 0.500000
O O5 0.821908 0.355099 0.924384
O O6 0.810185 0.489509 0.803160
O O7 0.850876 0.698381 0.850381
O O8 0.916773 0.436907 0.719961
O O9 0.195328 0.077988 0.462492
O O10 0.093340 0.240520 0.594457
O O11 0.123281 0.045304 0.671047
O O12 0.233162 0.975904 0.774479
O O13 0.246643 0.227085 0.842439
O O14 0.344914 0.406857 0.748126
O O15 0.479426 0.771777 0.931103
O O16 0.500000 0.000000 0.000000
O O17 0.145622 0.758413 0.887991
#
# Coordination Sequence:
#
# PCOD9259715 Si02
#       8
#     8   8   8   8   8   8   8   8
#     4  10  18  35  65  91 123 162 207 265 316 378
#     4  11  24  40  64  95 131 169 219 261 330 397
#     4  11  25  44  64  90 137 179 208 268 334 390
#     4  10  24  43  64  96 124 168 225 272 326 387
#     4  11  22  42  65  96 128 170 217 262 329 391
#     4  11  19  37  66  96 126 162 211 274 324 374
#     4  10  22  41  62  97 129 167 219 267 328 390
#     4  10  21  41  65  94 126 161 229 276 314 389
#
# _framework density 21.724288000000001
#
# number of rings (size 3 to 8) (size 9 to 14) (size 15 to 20)
#    0.000    1.500    3.750    2.625    1.750    5.000 
#    6.750    1.250    0.000    0.000    0.000    0.000 
#    0.000    0.000    0.000    0.000    0.000    0.000 
#
# Total GULP energy -178202.479411 kJ/mol
# GULP energy per Si atom -5568.827482 kJ/mol
# Density = 2.167484 g / cm^3
# Si number density = 21.724288 Si / 1000 Ang^3
#
#
#
# Elastic Constant Matrix: (Units=GPa)
#
#
# Indices 1 2 3 4 5 6 
#
# 1 100.3803 27.0325 -0.1226 0.0041 15.8322 -0.0008
# 2 27.0325 64.5253 11.1686 -0.0176 10.1588 0.0018
# 3 -0.1226 11.1686 23.4255 -0.0062 6.4093 -0.0005
# 4 0.0041 -0.0176 -0.0062 29.5604 0.0037 -3.7270
# 5 15.8322 10.1588 6.4093 0.0037 29.3146 -0.0001
# 6 -0.0008 0.0018 -0.0005 -3.7270 -0.0001 29.5256
#
#
#
# Elastic Compliance Matrix: (Units=1/GPa)
#
#
# Indices 1 2 3 4 5 6 
#
# 1 0.012192 -0.004888 0.003970 -0.000003 -0.005758 0.000000
# 2 -0.004888 0.019391 -0.008673 0.000011 -0.002183 0.000000
# 3 0.003970 -0.008673 0.049574 0.000006 -0.009977 0.000002
# 4 -0.000003 0.000011 0.000006 0.034376 -0.000008 0.004339
# 5 -0.005758 -0.002183 -0.009977 -0.000008 0.040161 -0.000001
# 6 0.000000 0.000000 0.000002 0.004339 -0.000001 0.034417
#
#
# Mechanical properties :
#
#
# Convention : Reuss Voigt Hill
#
# Bulk Modulus (GPa) = 16.13588 29.38755 22.76171
# Shear Modulus (GPa) = 21.74381 27.69696 24.72039
#
# Velocity S-wave (km/s) = 3.16713 3.57449 3.37696
# Velocity P-wave (km/s) = 4.56267 5.53108 5.07005
#
# Compressibility (1/GPa) = 0.06197369
#
# Stress axis : x y z
#
# Youngs Moduli (GPa) = 82.02388 51.57130 20.17181
#
# Poissons Ratio (x) = 0.25209 -0.08008
# Poissons Ratio (y) = 0.40094 0.17495
# Poissons Ratio (z) = -0.32562 0.44728
#
# Static dielectric constant tensor:
#      x y z
#    x 1.794800 0.000000 0.004180 
#    y 0.000000 1.976670 -0.000010 
#    z 0.004180 -0.000010 1.864890 
# 
# From -- ./inp_files/224606.got.cif
#   From: 2010.05.17/outbox.cif.g08.bks.cpg/sg15_113_cif.got.tgz:224606.got - 2010.06.03 18:47:42.
