data_PCOD9259138
_publ_section_title
;
Structure prediction by ZEFSAII (Michael W. Deem and Ramdas Pophale) SiO2 
 PCOD9259138
Probable space group: C 2/C
;
_chemical_formula_sum "Si O2"
_cell_formula_units_Z 40
_cell_length_a 19.645827
_cell_length_b 11.705495
_cell_length_c 14.489317
_cell_angle_alpha 90.000000
_cell_angle_beta 26.552867
_cell_angle_gamma 90.000000
_cell_volume 1489.492268
_symmetry_space_group_name_H-M "C 2/C"
_symmetry_group_IT_number 15
_symmetry_cell_setting 'monoclinic'
loop_
_space_group_symop_operation_xyz
x,y,z
-x,y,1/2-z
-x,-y,-z
x,-y,1/2+z
1/2+x,1/2+y,z
1/2-x,1/2+y,1/2-z
1/2-x,1/2-y,-z
1/2+x,1/2-y,1/2+z
loop_
_atom_site_type_symbol
_atom_site_label
_atom_site_fract_x
_atom_site_fract_y
_atom_site_fract_z
Si Si1 0.556979 0.816867 0.325459
Si Si2 0.278029 0.887276 0.543782
Si Si3 0.365721 0.597549 0.975938
Si Si4 0.927240 0.277130 0.661968
Si Si5 0.834662 0.944637 0.183584
O O1 0.403666 0.821898 0.451999
O O2 0.528620 0.849362 0.466296
O O3 0.629224 0.690593 0.232802
O O4 0.669999 0.891733 0.124635
O O5 0.348581 0.688673 0.684663
O O6 0.264416 0.006446 0.611996
O O7 0.500000 0.544244 0.750000
O O8 0.464964 0.700178 0.904495
O O9 0.211731 0.655285 0.123003
O O10 0.302809 0.506642 0.126250
O O11 0.000000 0.000000 0.000000
#
# Coordination Sequence:
#
# PCOD9259138 Si02
#       5
#     8   8   8   8   8
#     4  10  18  34  60  89 116 158 193 250 310 356
#     4  10  19  34  60  89 124 150 201 248 313 358
#     4  11  23  42  61  87 123 165 205 245 298 369
#     4  11  21  42  66  85 122 164 201 252 308 358
#     4  10  20  39  62  87 117 162 202 245 301 367
#
# _framework density 26.854787999999999
#
# number of rings (size 3 to 8) (size 9 to 14) (size 15 to 20)
#    0.000    1.600    6.000    0.600    0.000    0.000 
#    7.200    5.000    0.000    0.000    0.000    0.000 
#    0.000    0.000    0.000    0.000    0.000    0.000 
#
# Total GULP energy -111860.575484 kJ/mol
# GULP energy per Si atom -5593.028774 kJ/mol
# Density = 2.679367 g / cm^3
# Si number density = 26.854788 Si / 1000 Ang^3
#
#
#
# Elastic Constant Matrix: (Units=GPa)
#
#
# Indices 1 2 3 4 5 6 
#
# 1 71.1092 12.7857 9.7867 0.0000 -2.6371 0.0000
# 2 12.7857 77.0172 45.2533 0.0000 -0.2739 0.0000
# 3 9.7867 45.2533 136.4382 0.0000 15.0111 0.0000
# 4 0.0000 0.0000 0.0000 28.2683 0.0000 10.6261
# 5 -2.6371 -0.2739 15.0111 0.0000 50.2212 0.0000
# 6 0.0000 0.0000 0.0000 10.6261 0.0000 33.5583
#
#
#
# Elastic Compliance Matrix: (Units=1/GPa)
#
#
# Indices 1 2 3 4 5 6 
#
# 1 0.014542 -0.002163 -0.000422 0.000000 0.000878 0.000000
# 2 -0.002163 0.016598 -0.005529 0.000000 0.001630 0.000000
# 3 -0.000422 -0.005529 0.009512 0.000000 -0.002895 0.000000
# 4 0.000000 0.000000 0.000000 0.040155 0.000000 -0.012715
# 5 0.000878 0.001630 -0.002895 0.000000 0.020832 0.000000
# 6 0.000000 0.000000 0.000000 -0.012715 0.000000 0.033825
#
#
# Mechanical properties :
#
#
# Convention : Reuss Voigt Hill
#
# Bulk Modulus (GPa) = 40.94441 46.69066 43.81753
# Shear Modulus (GPa) = 31.28229 36.85881 34.07055
#
# Velocity S-wave (km/s) = 3.41672 3.70878 3.56574
# Velocity P-wave (km/s) = 5.55383 5.98031 5.77101
#
# Compressibility (1/GPa) = 0.02442336
#
# Stress axis : x y z
#
# Youngs Moduli (GPa) = 68.76411 60.24886 105.12922
#
# Poissons Ratio (x) = 0.13031 0.04440
# Poissons Ratio (y) = 0.14873 0.58129
# Poissons Ratio (z) = 0.02904 0.33313
#
# Static dielectric constant tensor:
#      x y z
#    x 2.176320 0.000000 0.067990 
#    y 0.000000 2.109850 0.000000 
#    z 0.067990 0.000000 2.203710 
# 
# From -- ./inp_files/173307.got.cif
#   From: 2010.05.17/outbox.cif.g08.bks.cpg/sg15_87_cif.got.tgz:173307.got - 2010.06.03 18:47:42.
