data_PCOD9259230
_publ_section_title
;
Structure prediction by ZEFSAII (Michael W. Deem and Ramdas Pophale) SiO2 
 PCOD9259230
Probable space group: C 2/C
;
_chemical_formula_sum "Si O2"
_cell_formula_units_Z 52
_cell_length_a 21.271374
_cell_length_b 15.667998
_cell_length_c 11.996918
_cell_angle_alpha 90.000000
_cell_angle_beta 42.998750
_cell_angle_gamma 90.000000
_cell_volume 2726.791371
_symmetry_space_group_name_H-M "C 2/C"
_symmetry_group_IT_number 15
_symmetry_cell_setting 'monoclinic'
loop_
_space_group_symop_operation_xyz
x,y,z
-x,y,1/2-z
-x,-y,-z
x,-y,1/2+z
1/2+x,1/2+y,z
1/2-x,1/2+y,1/2-z
1/2-x,1/2-y,-z
1/2+x,1/2-y,1/2+z
loop_
_atom_site_type_symbol
_atom_site_label
_atom_site_fract_x
_atom_site_fract_y
_atom_site_fract_z
Si Si1 0.675830 0.858070 0.568917
Si Si2 0.491397 0.273890 0.505628
Si Si3 0.004754 0.412326 0.427916
Si Si4 0.349754 0.943050 0.446503
Si Si5 0.000000 0.759292 0.250000
Si Si6 0.704480 0.694594 0.157623
Si Si7 0.196256 0.247951 0.749961
O O1 0.589340 0.799808 0.647201
O O2 0.760896 0.822504 0.387492
O O3 0.691102 0.833446 0.679034
O O4 0.657147 0.955621 0.562382
O O5 0.485591 0.170293 0.507625
O O6 0.488882 0.307947 0.381920
O O7 0.406275 0.305153 0.690209
O O8 0.594863 0.283559 0.417400
O O9 0.914599 0.414268 0.465589
O O10 0.000000 0.500000 0.500000
O O11 0.093969 0.410312 0.233427
O O12 0.251540 0.898044 0.585870
O O13 0.739900 0.735025 0.227695
O O14 0.750000 0.750000 0.000000
#
# Coordination Sequence:
#
# PCOD9259230 Si02
#       7
#     8   8   8   8   4   8   8
#     4  10  20  39  62  91 122 155 209 258 305 358
#     4  11  21  38  61  87 122 162 209 249 302 373
#     4  11  21  35  58  90 126 153 191 259 318 366
#     4  11  23  36  57  93 123 158 203 248 312 367
#     4  10  18  34  62  90 118 152 202 258 314 350
#     4  12  24  40  59  89 129 167 201 242 312 384
#     4  10  22  40  62  90 122 165 206 254 305 366
#
# _framework density 19.070034
#
# number of rings (size 3 to 8) (size 9 to 14) (size 15 to 20)
#    0.000    1.231    4.615    3.692    0.000    0.615 
#    0.000    0.769    0.000    0.000    4.000    0.000 
#    0.000    0.000    0.000    0.000    0.000    0.000 
#
# Total GULP energy -145097.523791 kJ/mol
# GULP energy per Si atom -5580.673992 kJ/mol
# Density = 1.902663 g / cm^3
# Si number density = 19.070034 Si / 1000 Ang^3
#
#
#
# Elastic Constant Matrix: (Units=GPa)
#
#
# Indices 1 2 3 4 5 6 
#
# 1 47.6268 -6.2844 22.9176 0.0000 2.0332 0.0000
# 2 -6.2844 18.3542 11.9221 0.0000 -6.5964 0.0000
# 3 22.9176 11.9221 128.1299 0.0000 -23.3850 0.0000
# 4 0.0000 0.0000 0.0000 23.4784 0.0000 -2.6330
# 5 2.0332 -6.5964 -23.3850 0.0000 42.8723 0.0000
# 6 0.0000 0.0000 0.0000 -2.6330 0.0000 19.2860
#
#
#
# Elastic Compliance Matrix: (Units=1/GPa)
#
#
# Indices 1 2 3 4 5 6 
#
# 1 0.025654 0.011809 -0.006194 0.000000 -0.002778 0.000000
# 2 0.011809 0.065177 -0.007162 0.000000 0.005562 0.000000
# 3 -0.006194 -0.007162 0.010474 0.000000 0.004905 0.000000
# 4 0.000000 0.000000 0.000000 0.043255 0.000000 0.005905
# 5 -0.002778 0.005562 0.004905 0.000000 0.026988 0.000000
# 6 0.000000 0.000000 0.000000 0.005905 0.000000 0.052657
#
#
# Mechanical properties :
#
#
# Convention : Reuss Voigt Hill
#
# Bulk Modulus (GPa) = 10.18213 27.91351 19.04782
# Shear Modulus (GPa) = 19.22802 28.16437 23.69620
#
# Velocity S-wave (km/s) = 3.17879 3.84720 3.52886
# Velocity P-wave (km/s) = 4.33865 5.86547 5.15886
#
# Compressibility (1/GPa) = 0.09821127
#
# Stress axis : x y z
#
# Youngs Moduli (GPa) = 38.98017 15.34273 95.47351
#
# Poissons Ratio (x) = -0.18118 0.59140
# Poissons Ratio (y) = -0.46031 0.68374
# Poissons Ratio (z) = 0.24146 0.10988
#
# Static dielectric constant tensor:
#      x y z
#    x 1.698750 0.000000 0.004360 
#    y 0.000000 1.648750 0.000000 
#    z 0.004360 0.000000 1.709200 
# 
# From -- ./inp_files/98180.got.cif
#   From: 2010.05.17/outbox.cif.g08.bks.cpg/sg15_50_cif.got.tgz:98180.got - 2010.06.03 18:47:42.
