data_PCOD9259569
_publ_section_title
;
Structure prediction by ZEFSAII (Michael W. Deem and Ramdas Pophale) SiO2 
 PCOD9259569
Probable space group: C 2/C
;
_chemical_formula_sum "Si O2"
_cell_formula_units_Z 52
_cell_length_a 12.991157
_cell_length_b 19.493331
_cell_length_c 23.352051
_cell_angle_alpha 90.000000
_cell_angle_beta 156.192137
_cell_angle_gamma 90.000000
_cell_volume 2387.186314
_symmetry_space_group_name_H-M "C 2/C"
_symmetry_group_IT_number 15
_symmetry_cell_setting 'monoclinic'
loop_
_space_group_symop_operation_xyz
x,y,z
-x,y,1/2-z
-x,-y,-z
x,-y,1/2+z
1/2+x,1/2+y,z
1/2-x,1/2+y,1/2-z
1/2-x,1/2-y,-z
1/2+x,1/2-y,1/2+z
loop_
_atom_site_type_symbol
_atom_site_label
_atom_site_fract_x
_atom_site_fract_y
_atom_site_fract_z
Si Si1 0.054903 0.552945 0.976094
Si Si2 0.500000 0.070942 0.250000
Si Si3 0.778198 0.971465 0.475081
Si Si4 0.884780 0.190676 0.603757
Si Si5 0.915631 0.300900 0.431319
Si Si6 0.125562 0.919609 0.163512
Si Si7 0.949767 0.146517 0.987472
O O1 0.090521 0.631884 0.013402
O O2 0.817840 0.561614 0.811465
O O3 0.265361 0.529423 0.037482
O O4 0.000000 0.500000 0.000000
O O5 0.247138 0.118842 0.132389
O O6 0.568558 0.018606 0.336901
O O7 0.807218 0.896177 0.464074
O O8 0.033593 0.010924 0.588142
O O9 0.750000 0.250000 0.500000
O O10 0.737516 0.186161 0.587984
O O11 0.185690 0.203833 0.767786
O O12 0.886256 0.119388 0.570791
O O13 0.046707 0.227356 0.500183
O O14 0.192221 0.870608 0.144638
#
# Coordination Sequence:
#
# PCOD9259569 Si02
#       7
#     8   4   8   8   8   8   8
#     4  11  24  43  60  83 125 170 211 249 309 380
#     4  10  20  38  64  94 120 154 204 262 314 356
#     4  11  22  37  61  87 123 167 203 252 312 375
#     4  10  18  35  60  87 120 156 203 263 312 356
#     4  10  22  36  58  93 120 159 207 258 314 366
#     4  10  21  38  62  89 118 158 209 265 307 366
#     4  11  21  37  62  95 124 150 210 262 318 369
#
# _framework density 21.782968
#
# number of rings (size 3 to 8) (size 9 to 14) (size 15 to 20)
#    0.000    1.538    1.538    5.538    2.154    2.462 
#    2.769    0.000    0.000    3.692    0.000    0.000 
#    0.000    0.000    0.000    0.000    0.000    0.000 
#
# Total GULP energy -144986.140505 kJ/mol
# GULP energy per Si atom -5576.390019 kJ/mol
# Density = 2.173339 g / cm^3
# Si number density = 21.782968 Si / 1000 Ang^3
#
#
#
# Elastic Constant Matrix: (Units=GPa)
#
#
# Indices 1 2 3 4 5 6 
#
# 1 66.4854 35.1918 9.6744 0.0030 -26.2461 0.0007
# 2 35.1918 164.9986 17.2739 0.0092 -9.8108 0.0012
# 3 9.6744 17.2739 54.6248 0.0298 -4.9126 0.0036
# 4 0.0030 0.0092 0.0298 25.4583 -0.0021 -5.0453
# 5 -26.2461 -9.8108 -4.9126 -0.0021 30.8336 -0.0018
# 6 0.0007 0.0012 0.0036 -5.0453 -0.0018 36.8590
#
#
#
# Elastic Compliance Matrix: (Units=1/GPa)
#
#
# Indices 1 2 3 4 5 6 
#
# 1 0.025294 -0.004059 -0.001396 0.000002 0.020017 0.000001
# 2 -0.004059 0.007009 -0.001631 0.000000 -0.001484 0.000000
# 3 -0.001396 -0.001631 0.019191 -0.000023 0.001350 -0.000005
# 4 0.000002 0.000000 -0.000023 0.040375 0.000001 0.005527
# 5 0.020017 -0.001484 0.001350 0.000001 0.049214 0.000002
# 6 0.000001 0.000000 -0.000005 0.005527 0.000002 0.027887
#
#
# Mechanical properties :
#
#
# Convention : Reuss Voigt Hill
#
# Bulk Modulus (GPa) = 26.79327 45.59880 36.19604
# Shear Modulus (GPa) = 25.56460 33.56143 29.56302
#
# Velocity S-wave (km/s) = 3.42951 3.92946 3.68796
# Velocity P-wave (km/s) = 5.29234 6.44719 5.89809
#
# Compressibility (1/GPa) = 0.03732280
#
# Stress axis : x y z
#
# Youngs Moduli (GPa) = 39.53442 142.67817 52.10720
#
# Poissons Ratio (x) = 0.57907 0.07275
# Poissons Ratio (y) = 0.16045 0.08499
# Poissons Ratio (z) = 0.05520 0.23272
#
# Static dielectric constant tensor:
#      x y z
#    x 1.602220 0.000030 0.110880 
#    y 0.000030 1.820950 -0.000020 
#    z 0.110880 -0.000020 1.867240 
# 
# From -- ./inp_files/240562.got.cif
#   From: 2010.05.17/outbox.cif.g08.bks.cpg/sg15_121_cif.got.tgz:240562.got - 2010.06.03 18:47:42.
