data_PCOD9259333
_publ_section_title
;
Structure prediction by ZEFSAII (Michael W. Deem and Ramdas Pophale) SiO2 
 PCOD9259333
Probable space group: C 2/C
;
_chemical_formula_sum "Si O2"
_cell_formula_units_Z 48
_cell_length_a 12.476147
_cell_length_b 21.907488
_cell_length_c 9.064804
_cell_angle_alpha 90.000000
_cell_angle_beta 76.422576
_cell_angle_gamma 90.000000
_cell_volume 2408.361559
_symmetry_space_group_name_H-M "C 2/C"
_symmetry_group_IT_number 15
_symmetry_cell_setting 'monoclinic'
loop_
_space_group_symop_operation_xyz
x,y,z
-x,y,1/2-z
-x,-y,-z
x,-y,1/2+z
1/2+x,1/2+y,z
1/2-x,1/2+y,1/2-z
1/2-x,1/2-y,-z
1/2+x,1/2-y,1/2+z
loop_
_atom_site_type_symbol
_atom_site_label
_atom_site_fract_x
_atom_site_fract_y
_atom_site_fract_z
Si Si1 0.917595 0.473412 0.152529
Si Si2 0.351951 0.331245 0.535578
Si Si3 0.500000 0.176450 0.250000
Si Si4 0.418712 0.276468 0.044060
Si Si5 0.500000 0.202168 0.750000
Si Si6 0.218011 0.706081 0.789111
Si Si7 0.179624 0.577170 0.100730
O O1 0.857189 0.524945 0.271696
O O2 0.000000 0.443528 0.250000
O O3 0.830662 0.442631 0.067602
O O4 0.000000 0.500000 0.000000
O O5 0.483132 0.325737 0.476010
O O6 0.292878 0.317069 0.399273
O O7 0.314652 0.275308 0.653310
O O8 0.298820 0.394837 0.600600
O O9 0.447518 0.221867 0.148157
O O10 0.593030 0.132687 0.153219
O O11 0.297892 0.299043 0.123170
O O12 0.432518 0.244923 0.883140
O O13 0.601080 0.172238 0.805094
#
# Coordination Sequence:
#
# PCOD9259333 Si02
#       7
#     8   8   4   8   4   8   8
#     4   9  18  34  52  77 108 145 196 243 295 344
#     4  10  19  33  57  82 109 160 200 217 285 350
#     4  12  18  32  60  75 114 163 188 226 284 342
#     4  11  20  36  55  81 120 161 197 224 267 364
#     4  10  22  30  48  79 122 153 184 242 276 306
#     4  10  18  35  52  83 120 155 191 230 274 361
#     4  11  19  34  55  81 111 150 194 247 294 334
#
# _framework density 19.930561999999998
#
# number of rings (size 3 to 8) (size 9 to 14) (size 15 to 20)
#    0.000    1.667    5.833    2.500    0.000    0.000 
#    6.000    0.000    0.000    0.000    0.000    4.667 
#    0.000    0.000    0.000    0.000    0.000    0.000 
#
# Total GULP energy -133735.884483 kJ/mol
# GULP energy per Si atom -5572.328520 kJ/mol
# Density = 1.988520 g / cm^3
# Si number density = 19.930562 Si / 1000 Ang^3
#
#
#
# Elastic Constant Matrix: (Units=GPa)
#
#
# Indices 1 2 3 4 5 6 
#
# 1 122.8174 23.4587 26.6412 0.0000 -19.4263 0.0000
# 2 23.4587 65.5586 22.8236 0.0000 -0.1571 0.0000
# 3 26.6412 22.8236 111.0393 0.0000 1.4445 0.0000
# 4 0.0000 0.0000 0.0000 12.4281 0.0000 7.9330
# 5 -19.4263 -0.1571 1.4445 0.0000 37.3671 0.0000
# 6 0.0000 0.0000 0.0000 7.9330 0.0000 21.2485
#
#
#
# Elastic Compliance Matrix: (Units=1/GPa)
#
#
# Indices 1 2 3 4 5 6 
#
# 1 0.009922 -0.002892 -0.001854 0.000000 0.005218 0.000000
# 2 -0.002892 0.017274 -0.002839 0.000000 -0.001321 0.000000
# 3 -0.001854 -0.002839 0.010052 0.000000 -0.001364 0.000000
# 4 0.000000 0.000000 0.000000 0.105637 0.000000 -0.039439
# 5 0.005218 -0.001321 -0.001364 0.000000 0.029521 0.000000
# 6 0.000000 0.000000 0.000000 -0.039439 0.000000 0.061786
#
#
# Mechanical properties :
#
#
# Convention : Reuss Voigt Hill
#
# Bulk Modulus (GPa) = 45.29723 49.47359 47.38541
# Shear Modulus (GPa) = 19.47623 29.30820 24.39221
#
# Velocity S-wave (km/s) = 3.12942 3.83889 3.50217
# Velocity P-wave (km/s) = 5.98620 6.67280 6.33880
#
# Compressibility (1/GPa) = 0.02207641
#
# Stress axis : x y z
#
# Youngs Moduli (GPa) = 100.78516 57.89086 99.48276
#
# Poissons Ratio (x) = 0.16745 0.18443
# Poissons Ratio (y) = 0.29152 0.28247
# Poissons Ratio (z) = 0.18685 0.16438
#
# Static dielectric constant tensor:
#      x y z
#    x 1.775470 0.000000 0.024510 
#    y 0.000000 1.749300 0.000000 
#    z 0.024510 0.000000 1.767500 
# 
# From -- ./inp_files/31941.got.cif
#   From: 2010.05.17/outbox.cif.g08.bks.cpg/sg15_16_cif.got.tgz:31941.got - 2010.06.03 18:47:42.
