data_PCOD9259982
_publ_section_title
;
Structure prediction by ZEFSAII (Michael W. Deem and Ramdas Pophale) SiO2 
 PCOD9259982
Probable space group: C 2/C
;
_chemical_formula_sum "Si O2"
_cell_formula_units_Z 40
_cell_length_a 9.130056
_cell_length_b 9.703174
_cell_length_c 17.829140
_cell_angle_alpha 90.000000
_cell_angle_beta 84.499461
_cell_angle_gamma 90.000000
_cell_volume 1572.219724
_symmetry_space_group_name_H-M "C 2/C"
_symmetry_group_IT_number 15
_symmetry_cell_setting 'monoclinic'
loop_
_space_group_symop_operation_xyz
x,y,z
-x,y,1/2-z
-x,-y,-z
x,-y,1/2+z
1/2+x,1/2+y,z
1/2-x,1/2+y,1/2-z
1/2-x,1/2-y,-z
1/2+x,1/2-y,1/2+z
loop_
_atom_site_type_symbol
_atom_site_label
_atom_site_fract_x
_atom_site_fract_y
_atom_site_fract_z
Si Si1 0.272762 0.922849 0.643581
Si Si2 0.000000 0.522145 0.250000
Si Si3 0.500000 0.483026 0.750000
Si Si4 0.729674 0.478880 0.352806
Si Si5 0.678227 0.230872 0.920908
Si Si6 0.113657 0.374196 0.015043
O O1 0.276630 0.084981 0.618428
O O2 0.411206 0.897890 0.690871
O O3 0.304623 0.841281 0.566184
O O4 0.125557 0.901432 0.698139
O O5 0.873397 0.438968 0.298334
O O6 0.410461 0.562946 0.689333
O O7 0.720506 0.644491 0.364135
O O8 0.765213 0.430336 0.434036
O O9 0.502376 0.231992 0.944402
O O10 0.750000 0.250000 0.000000
O O11 0.000000 0.500000 0.000000
#
# Coordination Sequence:
#
# PCOD9259982 Si02
#       6
#     8   4   4   8   8   8
#     4  10  20  38  61  86 122 165 206 255 332 372
#     4  10  18  36  60  84 124 170 202 256 332 388
#     4  10  26  40  56  92 130 162 192 280 328 366
#     4  11  21  39  62  91 126 163 218 259 317 390
#     4  11  19  35  66  94 116 160 224 263 302 389
#     4  10  18  37  63  90 118 173 210 255 323 380
#
# _framework density 25.441737
#
# number of rings (size 3 to 8) (size 9 to 14) (size 15 to 20)
#    0.000    1.600    8.000    0.000    0.000    2.400 
#    0.000    1.000    0.000    0.000    0.000    0.000 
#    0.000    0.000    0.000    0.000    0.000    0.000 
#
# Total GULP energy -111845.493205 kJ/mol
# GULP energy per Si atom -5592.274660 kJ/mol
# Density = 2.538383 g / cm^3
# Si number density = 25.441737 Si / 1000 Ang^3
#
#
#
# Elastic Constant Matrix: (Units=GPa)
#
#
# Indices 1 2 3 4 5 6 
#
# 1 181.2193 13.7736 66.5413 0.0000 8.4957 0.0000
# 2 13.7736 132.8657 17.3448 0.0000 0.0937 0.0000
# 3 66.5413 17.3448 187.1601 0.0000 23.9850 0.0000
# 4 0.0000 0.0000 0.0000 -20.5006 0.0000 -2.2733
# 5 8.4957 0.0937 23.9850 0.0000 70.5820 0.0000
# 6 0.0000 0.0000 0.0000 -2.2733 0.0000 11.5857
#
#
#
# Elastic Compliance Matrix: (Units=1/GPa)
#
#
# Indices 1 2 3 4 5 6 
#
# 1 0.006365 -0.000369 -0.002227 0.000000 -0.000009 0.000000
# 2 -0.000369 0.007644 -0.000608 0.000000 0.000241 0.000000
# 3 -0.002227 -0.000608 0.006437 0.000000 -0.001919 0.000000
# 4 0.000000 0.000000 0.000000 -0.047740 0.000000 -0.009368
# 5 -0.000009 0.000241 -0.001919 0.000000 0.014821 0.000000
# 6 0.000000 0.000000 0.000000 -0.009368 0.000000 0.084475
#
#
# Mechanical properties :
#
#
# Convention : Reuss Voigt Hill
#
# Bulk Modulus (GPa) = 71.24297 77.39605 74.31951
# Shear Modulus (GPa) = 60.17642 39.23913 49.70777
#
# Velocity S-wave (km/s) = 4.86867 3.93149 4.42496
# Velocity P-wave (km/s) = 7.72454 7.14813 7.44192
#
# Compressibility (1/GPa) = 0.01403647
#
# Stress axis : x y z
#
# Youngs Moduli (GPa) = 157.12084 130.82401 155.34754
#
# Poissons Ratio (x) = 0.04827 0.34603
# Poissons Ratio (y) = 0.05798 0.09446
# Poissons Ratio (z) = 0.34998 0.07955
#
# Static dielectric constant tensor:
#      x y z
#    x 2.039000 0.000000 0.060510 
#    y 0.000000 2.006660 0.000000 
#    z 0.060510 0.000000 2.105640 
# 
# From -- ./inp_files/187928.got.cif
#   From: 2010.05.17/outbox.cif.g08.bks.cpg/sg15_94_cif.got.tgz:187928.got - 2010.06.03 18:47:42.
