data_PCOD9259674
_publ_section_title
;
Structure prediction by ZEFSAII (Michael W. Deem and Ramdas Pophale) SiO2 
 PCOD9259674
Probable space group: C 2/C
;
_chemical_formula_sum "Si O2"
_cell_formula_units_Z 40
_cell_length_a 12.800371
_cell_length_b 7.111266
_cell_length_c 18.677451
_cell_angle_alpha 90.000000
_cell_angle_beta 63.858802
_cell_angle_gamma 90.000000
_cell_volume 1526.242835
_symmetry_space_group_name_H-M "C 2/C"
_symmetry_group_IT_number 15
_symmetry_cell_setting 'monoclinic'
loop_
_space_group_symop_operation_xyz
x,y,z
-x,y,1/2-z
-x,-y,-z
x,-y,1/2+z
1/2+x,1/2+y,z
1/2-x,1/2+y,1/2-z
1/2-x,1/2-y,-z
1/2+x,1/2-y,1/2+z
loop_
_atom_site_type_symbol
_atom_site_label
_atom_site_fract_x
_atom_site_fract_y
_atom_site_fract_z
Si Si1 0.616448 0.132539 0.626334
Si Si2 0.444344 0.322758 0.099742
Si Si3 0.259167 0.972510 0.618794
Si Si4 0.117296 0.528511 0.285847
Si Si5 0.182125 0.880272 0.949875
O O1 0.652997 0.347032 0.623860
O O2 0.483447 0.099473 0.646452
O O3 0.626450 0.036896 0.702397
O O4 0.714603 0.017409 0.553786
O O5 0.430584 0.237794 0.183083
O O6 0.377125 0.510666 0.098800
O O7 0.374524 0.161670 0.074009
O O8 0.575579 0.344707 0.035368
O O9 0.267706 0.181118 0.588090
O O10 0.265671 0.985725 0.703692
#
# Coordination Sequence:
#
# PCOD9259674 Si02
#       5
#     8   8   8   8   8
#     4  10  21  39  54  86 116 152 199 254 288 369
#     4   8  19  36  58  85 117 154 192 246 300 356
#     4   9  20  36  58  78 114 154 193 240 304 346
#     4   9  21  39  55  81 124 148 198 251 298 358
#     4  10  18  35  63  83 115 154 200 240 301 367
#
# _framework density 26.208147
#
# number of rings (size 3 to 8) (size 9 to 14) (size 15 to 20)
#    1.200    1.600    0.000    0.600    2.800    0.800 
#    3.600    3.000    0.000    0.000    0.000    0.000 
#    0.000    0.000    0.000    0.000    0.000    0.000 
#
# Total GULP energy -111819.116895 kJ/mol
# GULP energy per Si atom -5590.955845 kJ/mol
# Density = 2.614850 g / cm^3
# Si number density = 26.208147 Si / 1000 Ang^3
#
#
#
# Elastic Constant Matrix: (Units=GPa)
#
#
# Indices 1 2 3 4 5 6 
#
# 1 62.3406 46.8645 8.0628 0.0000 -5.3400 0.0000
# 2 46.8645 193.2461 45.3768 0.0000 8.1039 0.0000
# 3 8.0628 45.3768 77.6321 0.0000 -10.6018 0.0000
# 4 0.0000 0.0000 0.0000 33.7946 0.0000 -2.2299
# 5 -5.3400 8.1039 -10.6018 0.0000 35.1013 0.0000
# 6 0.0000 0.0000 0.0000 -2.2299 0.0000 53.1811
#
#
#
# Elastic Compliance Matrix: (Units=1/GPa)
#
#
# Indices 1 2 3 4 5 6 
#
# 1 0.020432 -0.005590 0.001821 0.000000 0.004949 0.000000
# 2 -0.005590 0.007754 -0.004498 0.000000 -0.003999 0.000000
# 3 0.001821 -0.004498 0.016168 0.000000 0.006199 0.000000
# 4 0.000000 0.000000 0.000000 0.029673 0.000000 0.001244
# 5 0.004949 -0.003999 0.006199 0.000000 0.032037 0.000000
# 6 0.000000 0.000000 0.000000 0.001244 0.000000 0.018856
#
#
# Mechanical properties :
#
#
# Convention : Reuss Voigt Hill
#
# Bulk Modulus (GPa) = 35.94524 59.31410 47.62967
# Shear Modulus (GPa) = 33.17260 39.94304 36.55782
#
# Velocity S-wave (km/s) = 3.56158 3.90817 3.73889
# Velocity P-wave (km/s) = 5.53698 6.56095 6.07060
#
# Compressibility (1/GPa) = 0.02782009
#
# Stress axis : x y z
#
# Youngs Moduli (GPa) = 48.94364 128.95993 61.85129
#
# Poissons Ratio (x) = 0.72090 -0.11265
# Poissons Ratio (y) = 0.27360 0.27821
# Poissons Ratio (z) = -0.08914 0.58007
#
# Static dielectric constant tensor:
#      x y z
#    x 2.088260 0.000000 0.030720 
#    y 0.000000 2.018760 0.000000 
#    z 0.030720 0.000000 2.142350 
# 
# From -- ./inp_files/241904.got.cif
#   From: 2010.05.17/outbox.cif.g08.bks.cpg/sg15_121_cif.got.tgz:241904.got - 2010.06.03 18:47:42.
