data_PCOD9259122
_publ_section_title
;
Structure prediction by ZEFSAII (Michael W. Deem and Ramdas Pophale) SiO2 
 PCOD9259122
Probable space group: C 2/C
;
_chemical_formula_sum "Si O2"
_cell_formula_units_Z 52
_cell_length_a 11.680020
_cell_length_b 8.195148
_cell_length_c 23.779543
_cell_angle_alpha 90.000000
_cell_angle_beta 88.664974
_cell_angle_gamma 90.000000
_cell_volume 2275.547931
_symmetry_space_group_name_H-M "C 2/C"
_symmetry_group_IT_number 15
_symmetry_cell_setting 'monoclinic'
loop_
_space_group_symop_operation_xyz
x,y,z
-x,y,1/2-z
-x,-y,-z
x,-y,1/2+z
1/2+x,1/2+y,z
1/2-x,1/2+y,1/2-z
1/2-x,1/2-y,-z
1/2+x,1/2-y,1/2+z
loop_
_atom_site_type_symbol
_atom_site_label
_atom_site_fract_x
_atom_site_fract_y
_atom_site_fract_z
Si Si1 0.272173 0.174944 0.174527
Si Si2 0.297477 0.704227 0.560095
Si Si3 0.534014 0.887533 0.552164
Si Si4 0.235959 0.164381 0.408034
Si Si5 0.500000 0.868915 0.250000
Si Si6 0.756824 0.524533 0.286698
Si Si7 0.442019 0.888350 0.135655
O O1 0.226050 0.212383 0.112340
O O2 0.306475 0.356372 0.195354
O O3 0.207734 0.102673 0.229831
O O4 0.366690 0.038432 0.160284
O O5 0.250000 0.750000 0.500000
O O6 0.299444 0.511588 0.568773
O O7 0.426458 0.771097 0.562951
O O8 0.543385 0.021138 0.602322
O O9 0.500000 0.000000 0.500000
O O10 0.652484 0.790524 0.556785
O O11 0.133098 0.292240 0.408824
O O12 0.259342 0.143392 0.340421
O O13 0.388431 0.973356 0.270832
O O14 0.472040 0.784383 0.190663
#
# Coordination Sequence:
#
# PCOD9259122 Si02
#       7
#     8   8   8   8   4   8   8
#     4   9  20  35  62  87 125 164 209 260 318 386
#     4  10  21  41  64  94 128 170 217 265 322 386
#     4  11  22  42  66  90 126 171 214 263 322 377
#     4  11  22  41  67  89 128 168 210 266 320 376
#     4  10  18  34  60  86 122 156 198 250 316 380
#     4  10  18  35  60  87 121 164 200 262 318 371
#     4  10  22  40  63  93 120 166 214 255 321 390
#
# _framework density 22.851638000000001
#
# number of rings (size 3 to 8) (size 9 to 14) (size 15 to 20)
#    0.000    1.846    3.077    1.846    0.000    0.615 
#    2.769    0.769    0.000    0.000    0.000    0.000 
#    0.000    0.000    0.000    0.000    0.000    0.000 
#
# Total GULP energy -144854.948970 kJ/mol
# GULP energy per Si atom -5571.344191 kJ/mol
# Density = 2.279963 g / cm^3
# Si number density = 22.851638 Si / 1000 Ang^3
#
#
#
# Elastic Constant Matrix: (Units=GPa)
#
#
# Indices 1 2 3 4 5 6 
#
# 1 72.0441 20.7532 4.8008 0.0000 23.0033 0.0000
# 2 20.7532 41.8518 22.2787 0.0000 4.0822 0.0000
# 3 4.8008 22.2787 153.9581 0.0000 19.7333 0.0000
# 4 0.0000 0.0000 0.0000 35.5820 0.0000 3.5374
# 5 23.0033 4.0822 19.7333 0.0000 32.1005 0.0000
# 6 0.0000 0.0000 0.0000 3.5374 0.0000 37.4986
#
#
#
# Elastic Compliance Matrix: (Units=1/GPa)
#
#
# Indices 1 2 3 4 5 6 
#
# 1 0.021998 -0.010909 0.002969 0.000000 -0.016202 0.000000
# 2 -0.010909 0.031332 -0.005086 0.000000 0.006959 0.000000
# 3 0.002969 -0.005086 0.007955 0.000000 -0.006371 0.000000
# 4 0.000000 0.000000 0.000000 0.028370 0.000000 -0.002676
# 5 -0.016202 0.006959 -0.006371 0.000000 0.045794 0.000000
# 6 0.000000 0.000000 0.000000 -0.002676 0.000000 0.026920
#
#
# Mechanical properties :
#
#
# Convention : Reuss Voigt Hill
#
# Bulk Modulus (GPa) = 28.38092 40.39104 34.38598
# Shear Modulus (GPa) = 24.97947 35.70431 30.34189
#
# Velocity S-wave (km/s) = 3.30982 3.95706 3.64782
# Velocity P-wave (km/s) = 5.20126 6.21220 5.72907
#
# Compressibility (1/GPa) = 0.03523493
#
# Stress axis : x y z
#
# Youngs Moduli (GPa) = 45.45857 31.91669 125.70303
#
# Poissons Ratio (x) = 0.34816 -0.37324
# Poissons Ratio (y) = 0.49589 0.63928
# Poissons Ratio (z) = -0.13498 0.16232
#
# Static dielectric constant tensor:
#      x y z
#    x -3.414410 0.000000 -2.342510 
#    y 0.000000 1.790620 0.000000 
#    z -2.342510 0.000000 0.897400 
# 
# From -- ./inp_files/272343.got.cif
#   From: 2010.05.17/outbox.cif.g08.bks.cpg/sg15_137_cif.got.tgz:272343.got - 2010.06.03 18:47:42.
