data_PCOD9259762
_publ_section_title
;
Structure prediction by ZEFSAII (Michael W. Deem and Ramdas Pophale) SiO2 
 PCOD9259762
Probable space group: C 2/C
;
_chemical_formula_sum "Si O2"
_cell_formula_units_Z 44
_cell_length_a 9.822551
_cell_length_b 28.440635
_cell_length_c 8.949313
_cell_angle_alpha 90.000000
_cell_angle_beta 100.397983
_cell_angle_gamma 90.000000
_cell_volume 2459.019699
_symmetry_space_group_name_H-M "C 2/C"
_symmetry_group_IT_number 15
_symmetry_cell_setting 'monoclinic'
loop_
_space_group_symop_operation_xyz
x,y,z
-x,y,1/2-z
-x,-y,-z
x,-y,1/2+z
1/2+x,1/2+y,z
1/2-x,1/2+y,1/2-z
1/2-x,1/2-y,-z
1/2+x,1/2-y,1/2+z
loop_
_atom_site_type_symbol
_atom_site_label
_atom_site_fract_x
_atom_site_fract_y
_atom_site_fract_z
Si Si1 0.256869 0.350044 0.050668
Si Si2 0.431182 0.567990 0.479782
Si Si3 0.964997 0.675545 0.567150
Si Si4 0.500000 0.502080 0.750000
Si Si5 0.174404 0.862341 0.083526
Si Si6 0.022952 0.774909 0.430391
O O1 0.325370 0.389293 0.961739
O O2 0.300470 0.362229 0.231335
O O3 0.325108 0.299239 0.026235
O O4 0.092533 0.349847 0.011568
O O5 0.415651 0.536111 0.624122
O O6 0.415847 0.532866 0.339648
O O7 0.584473 0.592251 0.518437
O O8 0.818502 0.648952 0.529517
O O9 0.000000 0.677184 0.750000
O O10 0.977665 0.728718 0.509784
O O11 0.077511 0.817138 0.040217
O O12 0.000000 0.765627 0.250000
#
# Coordination Sequence:
#
# PCOD9259762 Si02
#       6
#     8   8   8   4   8   8
#     4   9  17  32  51  70 103 132 163 196 243 287
#     4  10  18  36  54  79  92 122 159 201 248 289
#     4  10  19  30  48  73 100 139 166 194 234 285
#     4  10  20  32  62  76  92 114 164 208 240 300
#     4   9  17  32  51  70 103 132 163 196 243 287
#     4   9  17  31  47  68  98 141 171 199 230 270
#
# _framework density 17.89331
#
# number of rings (size 3 to 8) (size 9 to 14) (size 15 to 20)
#    0.000    2.545    1.818    2.182    0.000    0.000 
#    9.818    0.000    0.000    6.545    0.000    0.000 
#    0.000    0.000    0.000    0.000    0.000    0.000 
#
# Total GULP energy -122526.206800 kJ/mol
# GULP energy per Si atom -5569.373036 kJ/mol
# Density = 1.785258 g / cm^3
# Si number density = 17.893310 Si / 1000 Ang^3
#
#
#
# Elastic Constant Matrix: (Units=GPa)
#
#
# Indices 1 2 3 4 5 6 
#
# 1 122.7766 39.2120 12.1407 0.0000 -4.0262 0.0000
# 2 39.2120 101.8452 22.8890 0.0000 -5.9057 0.0000
# 3 12.1407 22.8890 24.1322 0.0000 -7.6767 0.0000
# 4 0.0000 0.0000 0.0000 23.0988 0.0000 -8.1870
# 5 -4.0262 -5.9057 -7.6767 0.0000 7.6397 0.0000
# 6 0.0000 0.0000 0.0000 -8.1870 0.0000 12.7274
#
#
#
# Elastic Compliance Matrix: (Units=1/GPa)
#
#
# Indices 1 2 3 4 5 6 
#
# 1 0.009344 -0.003249 -0.001252 0.000000 0.001155 0.000000
# 2 -0.003249 0.013666 -0.012510 0.000000 -0.003719 0.000000
# 3 -0.001252 -0.012510 0.074444 0.000000 0.064474 0.000000
# 4 0.000000 0.000000 0.000000 0.056078 0.000000 0.036073
# 5 0.001155 -0.003719 0.064474 0.000000 0.193416 0.000000
# 6 0.000000 0.000000 0.000000 0.036073 0.000000 0.101775
#
#
# Mechanical properties :
#
#
# Convention : Reuss Voigt Hill
#
# Bulk Modulus (GPa) = 15.76504 44.13749 29.95127
# Shear Modulus (GPa) = 9.92282 20.32732 15.12507
#
# Velocity S-wave (km/s) = 2.35745 3.37416 2.91054
# Velocity P-wave (km/s) = 4.02987 6.31669 5.29813
#
# Compressibility (1/GPa) = 0.06343149
#
# Stress axis : x y z
#
# Youngs Moduli (GPa) = 107.01700 73.17526 13.43295
#
# Poissons Ratio (x) = 0.23778 0.01681
# Poissons Ratio (y) = 0.34775 0.16805
# Poissons Ratio (z) = 0.13394 0.91544
#
# Static dielectric constant tensor:
#      x y z
#    x 1.641360 0.000000 -0.005620 
#    y 0.000000 1.597670 0.000000 
#    z -0.005620 0.000000 1.636060 
# 
# From -- ./inp_files/25462.got.cif
#   From: 2010.05.17/outbox.cif.g08.bks.cpg/sg15_13_cif.got.tgz:25462.got - 2010.06.03 18:47:42.
