data_PCOD9259427
_publ_section_title
;
Structure prediction by ZEFSAII (Michael W. Deem and Ramdas Pophale) SiO2 
 PCOD9259427
Probable space group: C 2/C
;
_chemical_formula_sum "Si O2"
_cell_formula_units_Z 64
_cell_length_a 11.841780
_cell_length_b 22.361806
_cell_length_c 16.771001
_cell_angle_alpha 90.000000
_cell_angle_beta 57.442665
_cell_angle_gamma 90.000000
_cell_volume 3743.129643
_symmetry_space_group_name_H-M "C 2/C"
_symmetry_group_IT_number 15
_symmetry_cell_setting 'monoclinic'
loop_
_space_group_symop_operation_xyz
x,y,z
-x,y,1/2-z
-x,-y,-z
x,-y,1/2+z
1/2+x,1/2+y,z
1/2-x,1/2+y,1/2-z
1/2-x,1/2-y,-z
1/2+x,1/2-y,1/2+z
loop_
_atom_site_type_symbol
_atom_site_label
_atom_site_fract_x
_atom_site_fract_y
_atom_site_fract_z
Si Si1 0.608054 0.008567 0.142656
Si Si2 0.869983 0.252044 0.845946
Si Si3 0.101371 0.726299 0.570337
Si Si4 0.401347 0.201926 0.508747
Si Si5 0.951102 0.413490 0.586144
Si Si6 0.989391 0.149486 0.345963
Si Si7 0.221788 0.622128 0.194561
Si Si8 0.707480 0.899334 0.017219
O O1 0.500000 0.988986 0.250000
O O2 0.521470 0.029562 0.098860
O O3 0.684344 0.065833 0.152286
O O4 0.702049 0.954932 0.078961
O O5 0.900417 0.260946 0.927560
O O6 0.831655 0.317120 0.825360
O O7 0.000000 0.229649 0.750000
O O8 0.737977 0.211532 0.892740
O O9 0.250000 0.750000 0.500000
O O10 0.027008 0.778055 0.647767
O O11 0.123725 0.657031 0.585540
O O12 0.021940 0.723628 0.517733
O O13 0.431577 0.133811 0.476122
O O14 0.857691 0.387180 0.692253
O O15 0.864624 0.417762 0.538726
O O16 0.856391 0.122545 0.437620
O O17 0.000000 0.129538 0.250000
O O18 0.122324 0.130465 0.343385
#
# Coordination Sequence:
#
# PCOD9259427 Si02
#       8
#     8   8   8   8   8   8   8   8
#     4  10  21  36  58  81 107 142 189 238 277 323
#     4  11  19  31  54  83 115 145 184 231 283 333
#     4   9  20  35  52  82 116 144 182 222 278 340
#     4  10  19  31  54  82 113 145 178 230 280 330
#     4  10  18  35  57  83 107 140 192 233 271 333
#     4  11  21  36  58  84 112 147 185 229 283 336
#     4  11  19  35  57  85 110 142 192 240 273 329
#     4  10  21  36  56  82 113 148 183 225 284 338
#
# _framework density 17.097991
#
# number of rings (size 3 to 8) (size 9 to 14) (size 15 to 20)
#    0.000    1.750    5.000    0.750    0.000    1.000 
#    0.000    0.000    2.750    0.750    0.000    0.000 
#    0.000    0.000    0.000    0.000    0.000    0.000 
#
# Total GULP energy -178318.527181 kJ/mol
# GULP energy per Si atom -5572.453974 kJ/mol
# Density = 1.705908 g / cm^3
# Si number density = 17.097991 Si / 1000 Ang^3
#
#
#
# Elastic Constant Matrix: (Units=GPa)
#
#
# Indices 1 2 3 4 5 6 
#
# 1 89.3467 23.0876 34.4810 0.0000 -15.6532 0.0000
# 2 23.0876 75.5370 49.9942 0.0000 -9.1411 0.0000
# 3 34.4810 49.9942 82.6028 0.0000 -15.8089 0.0000
# 4 0.0000 0.0000 0.0000 28.6487 0.0000 -4.5727
# 5 -15.6532 -9.1411 -15.8089 0.0000 20.6025 0.0000
# 6 0.0000 0.0000 0.0000 -4.5727 0.0000 14.2479
#
#
#
# Elastic Compliance Matrix: (Units=1/GPa)
#
#
# Indices 1 2 3 4 5 6 
#
# 1 0.014254 -0.000768 -0.004076 0.000000 0.007361 0.000000
# 2 -0.000768 0.022132 -0.013253 0.000000 -0.000933 0.000000
# 3 -0.004076 -0.013253 0.023573 0.000000 0.009111 0.000000
# 4 0.000000 0.000000 0.000000 0.036790 0.000000 0.011807
# 5 0.007361 -0.000933 0.009111 0.000000 0.060707 0.000000
# 6 0.000000 0.000000 0.000000 0.011807 0.000000 0.073975
#
#
# Mechanical properties :
#
#
# Convention : Reuss Voigt Hill
#
# Bulk Modulus (GPa) = 42.08151 51.40134 46.74142
# Shear Modulus (GPa) = 18.14576 22.02806 20.08691
#
# Velocity S-wave (km/s) = 3.26126 3.59324 3.43127
# Velocity P-wave (km/s) = 6.23270 6.88064 6.56467
#
# Compressibility (1/GPa) = 0.02376341
#
# Stress axis : x y z
#
# Youngs Moduli (GPa) = 70.15792 45.18373 42.42206
#
# Poissons Ratio (x) = 0.03469 0.17293
# Poissons Ratio (y) = 0.05386 0.56222
# Poissons Ratio (z) = 0.28600 0.59882
#
# Static dielectric constant tensor:
#      x y z
#    x 1.575810 0.000000 0.003680 
#    y 0.000000 1.599650 0.000000 
#    z 0.003680 0.000000 1.575900 
# 
# From -- ./inp_files/200184.got.cif
#   From: 2010.05.17/outbox.cif.g08.bks.cpg/sg15_101_cif.got.tgz:200184.got - 2010.06.03 18:47:42.
