data_PCOD9259251
_publ_section_title
;
Structure prediction by ZEFSAII (Michael W. Deem and Ramdas Pophale) SiO2 
 PCOD9259251
Probable space group: C 2/C
;
_chemical_formula_sum "Si O2"
_cell_formula_units_Z 40
_cell_length_a 15.056238
_cell_length_b 7.871670
_cell_length_c 14.240454
_cell_angle_alpha 90.000000
_cell_angle_beta 69.258221
_cell_angle_gamma 90.000000
_cell_volume 1578.356847
_symmetry_space_group_name_H-M "C 2/C"
_symmetry_group_IT_number 15
_symmetry_cell_setting 'monoclinic'
loop_
_space_group_symop_operation_xyz
x,y,z
-x,y,1/2-z
-x,-y,-z
x,-y,1/2+z
1/2+x,1/2+y,z
1/2-x,1/2+y,1/2-z
1/2-x,1/2-y,-z
1/2+x,1/2-y,1/2+z
loop_
_atom_site_type_symbol
_atom_site_label
_atom_site_fract_x
_atom_site_fract_y
_atom_site_fract_z
Si Si1 0.738372 0.854304 0.201195
Si Si2 0.896660 0.381350 0.497797
Si Si3 0.553250 0.068473 0.319676
Si Si4 0.288232 0.472868 0.374478
Si Si5 0.891672 0.017907 0.504327
O O1 0.640036 0.955677 0.250252
O O2 0.714246 0.664603 0.172020
O O3 0.809765 0.974263 0.113531
O O4 0.783518 0.847532 0.288252
O O5 0.916541 0.326003 0.599397
O O6 0.813568 0.517758 0.534105
O O7 0.871569 0.201964 0.464605
O O8 0.982694 0.445177 0.404217
O O9 0.500000 0.144140 0.250000
O O10 0.364793 0.410521 0.422375
O O11 0.000000 0.000000 0.500000
#
# Coordination Sequence:
#
# PCOD9259251 Si02
#       5
#     8   8   8   8   8
#     4  10  22  39  64  93 121 167 207 255 311 365
#     4   9  20  37  58  88 121 158 205 250 308 363
#     4  10  18  34  63  87 115 159 209 249 301 368
#     4  10  21  42  63  89 127 161 208 258 308 369
#     4  11  23  40  59  89 128 165 200 257 316 362
#
# _framework density 25.342813
#
# number of rings (size 3 to 8) (size 9 to 14) (size 15 to 20)
#    0.000    2.000    0.000    4.800    2.800    0.800 
#   10.800    1.000    0.000    0.000    0.000    0.000 
#    0.000    0.000    0.000    0.000    0.000    0.000 
#
# Total GULP energy -111495.354305 kJ/mol
# GULP energy per Si atom -5574.767715 kJ/mol
# Density = 2.528513 g / cm^3
# Si number density = 25.342813 Si / 1000 Ang^3
#
#
#
# Elastic Constant Matrix: (Units=GPa)
#
#
# Indices 1 2 3 4 5 6 
#
# 1 165.4263 5.2190 103.4447 0.0000 32.6924 0.0000
# 2 5.2190 52.5420 40.8221 0.0000 -2.2540 0.0000
# 3 103.4447 40.8221 154.7222 0.0000 -10.7675 0.0000
# 4 0.0000 0.0000 0.0000 29.5114 0.0000 -13.9029
# 5 32.6924 -2.2540 -10.7675 0.0000 66.7580 0.0000
# 6 0.0000 0.0000 0.0000 -13.9029 0.0000 9.3355
#
#
#
# Elastic Compliance Matrix: (Units=1/GPa)
#
#
# Indices 1 2 3 4 5 6 
#
# 1 0.016635 0.008933 -0.014184 0.000000 -0.010133 0.000000
# 2 0.008933 0.028740 -0.013949 0.000000 -0.005654 0.000000
# 3 -0.014184 -0.013949 0.020305 0.000000 0.009750 0.000000
# 4 0.000000 0.000000 0.000000 0.113553 0.000000 0.169110
# 5 -0.010133 -0.005654 0.009750 0.000000 0.021323 0.000000
# 6 0.000000 0.000000 0.000000 0.169110 0.000000 0.358966
#
#
# Mechanical properties :
#
#
# Convention : Reuss Voigt Hill
#
# Bulk Modulus (GPa) = 36.65560 74.62911 55.64236
# Shear Modulus (GPa) = 8.23700 36.00129 22.11915
#
# Velocity S-wave (km/s) = 1.80480 3.77314 2.95752
# Velocity P-wave (km/s) = 4.34032 6.96375 5.80225
#
# Compressibility (1/GPa) = 0.02728096
#
# Stress axis : x y z
#
# Youngs Moduli (GPa) = 60.11269 34.79472 49.24784
#
# Poissons Ratio (x) = -0.31083 0.69855
# Poissons Ratio (y) = -0.53700 0.68696
# Poissons Ratio (z) = 0.85266 0.48535
#
# Static dielectric constant tensor:
#      x y z
#    x 2.242660 0.000000 0.035920 
#    y 0.000000 2.033370 0.000000 
#    z 0.035920 0.000000 2.018270 
# 
# From -- ./inp_files/142150.got.cif
#   From: 2010.05.17/outbox.cif.g08.bks.cpg/sg15_72_cif.got.tgz:142150.got - 2010.06.03 18:47:42.
