data_PCOD9259105
_publ_section_title
;
Structure prediction by ZEFSAII (Michael W. Deem and Ramdas Pophale) SiO2 
 PCOD9259105
Probable space group: C 2/C
;
_chemical_formula_sum "Si O2"
_cell_formula_units_Z 52
_cell_length_a 30.270682
_cell_length_b 10.570212
_cell_length_c 17.765293
_cell_angle_alpha 90.000000
_cell_angle_beta 154.463420
_cell_angle_gamma 90.000000
_cell_volume 2450.436559
_symmetry_space_group_name_H-M "C 2/C"
_symmetry_group_IT_number 15
_symmetry_cell_setting 'monoclinic'
loop_
_space_group_symop_operation_xyz
x,y,z
-x,y,1/2-z
-x,-y,-z
x,-y,1/2+z
1/2+x,1/2+y,z
1/2-x,1/2+y,1/2-z
1/2-x,1/2-y,-z
1/2+x,1/2-y,1/2+z
loop_
_atom_site_type_symbol
_atom_site_label
_atom_site_fract_x
_atom_site_fract_y
_atom_site_fract_z
Si Si1 0.064900 0.017599 0.248612
Si Si2 0.650167 0.917661 0.881906
Si Si3 0.670639 0.486660 0.616646
Si Si4 0.310620 0.396391 0.686228
Si Si5 0.733281 0.667149 0.072912
Si Si6 0.500000 0.059517 0.750000
Si Si7 0.660501 0.279890 0.007451
O O1 0.085203 0.074204 0.196931
O O2 0.095962 0.132070 0.351557
O O3 0.141980 0.905318 0.387857
O O4 0.950856 0.968023 0.083164
O O5 0.699801 0.812425 0.013887
O O6 0.543329 0.969235 0.750307
O O7 0.665364 0.860638 0.821565
O O8 0.724463 0.038335 0.002149
O O9 0.691140 0.456177 0.733995
O O10 0.731648 0.396705 0.652316
O O11 0.685361 0.633063 0.616974
O O12 0.267858 0.256494 0.633411
O O13 0.592159 0.154546 0.916383
#
# Coordination Sequence:
#
# PCOD9259105 Si02
#       7
#     8   8   8   8   8   4   8
#     4  10  19  37  59  82 106 150 192 229 270 339
#     4   9  20  35  57  81 108 143 182 233 277 340
#     4  11  21  34  58  82 115 145 187 234 284 330
#     4  10  22  34  56  84 115 143 184 236 289 327
#     4   9  19  36  55  83 107 141 187 227 279 338
#     4  10  18  34  60  82 104 146 194 230 268 330
#     4  10  19  37  55  82 112 152 187 231 277 343
#
# _framework density 21.220708999999999
#
# number of rings (size 3 to 8) (size 9 to 14) (size 15 to 20)
#    0.000    2.154    1.538    2.308    4.308    1.231 
#    0.000    0.000    0.000    3.692    0.000    0.000 
#    0.000    0.000    0.000    0.000    0.000    0.000 
#
# Total GULP energy -144929.316592 kJ/mol
# GULP energy per Si atom -5574.204484 kJ/mol
# Density = 2.117241 g / cm^3
# Si number density = 21.220709 Si / 1000 Ang^3
#
#
#
# Elastic Constant Matrix: (Units=GPa)
#
#
# Indices 1 2 3 4 5 6 
#
# 1 135.1354 33.2378 11.9277 0.0000 4.0505 0.0000
# 2 33.2378 70.5749 7.2567 0.0000 7.2469 0.0000
# 3 11.9277 7.2567 20.3031 0.0000 1.0084 0.0000
# 4 0.0000 0.0000 0.0000 23.0796 0.0000 5.9639
# 5 4.0505 7.2469 1.0084 0.0000 29.3036 0.0000
# 6 0.0000 0.0000 0.0000 5.9639 0.0000 28.4964
#
#
#
# Elastic Compliance Matrix: (Units=1/GPa)
#
#
# Indices 1 2 3 4 5 6 
#
# 1 0.008638 -0.003666 -0.003757 0.000000 -0.000158 0.000000
# 2 -0.003666 0.016625 -0.003616 0.000000 -0.003480 0.000000
# 3 -0.003757 -0.003616 0.052773 0.000000 -0.000403 0.000000
# 4 0.000000 0.000000 0.000000 0.045805 0.000000 -0.009586
# 5 -0.000158 -0.003480 -0.000403 0.000000 0.035022 0.000000
# 6 0.000000 0.000000 0.000000 -0.009586 0.000000 0.037098
#
#
# Mechanical properties :
#
#
# Convention : Reuss Voigt Hill
#
# Bulk Modulus (GPa) = 17.86998 36.76197 27.31598
# Shear Modulus (GPa) = 21.12465 27.74868 24.43666
#
# Velocity S-wave (km/s) = 3.15854 3.62003 3.39713
# Velocity P-wave (km/s) = 4.66273 5.90204 5.31861
#
# Compressibility (1/GPa) = 0.05595977
#
# Stress axis : x y z
#
# Youngs Moduli (GPa) = 115.76906 60.15108 18.94915
#
# Poissons Ratio (x) = 0.22049 0.07118
# Poissons Ratio (y) = 0.42436 0.06851
# Poissons Ratio (z) = 0.43490 0.21749
#
# Static dielectric constant tensor:
#      x y z
#    x 1.861490 0.000000 0.041070 
#    y 0.000000 1.810500 0.000000 
#    z 0.041070 0.000000 1.767490 
# 
# From -- ./inp_files/166975.got.cif
#   From: 2010.05.17/outbox.cif.g08.bks.cpg/sg15_84_cif.got.tgz:166975.got - 2010.06.03 18:47:42.
