data_PCOD9259185
_publ_section_title
;
Structure prediction by ZEFSAII (Michael W. Deem and Ramdas Pophale) SiO2 
 PCOD9259185
Probable space group: C 2/C
;
_chemical_formula_sum "Si O2"
_cell_formula_units_Z 52
_cell_length_a 12.015734
_cell_length_b 14.930012
_cell_length_c 15.942321
_cell_angle_alpha 90.000000
_cell_angle_beta 67.351795
_cell_angle_gamma 90.000000
_cell_volume 2639.431147
_symmetry_space_group_name_H-M "C 2/C"
_symmetry_group_IT_number 15
_symmetry_cell_setting 'monoclinic'
loop_
_space_group_symop_operation_xyz
x,y,z
-x,y,1/2-z
-x,-y,-z
x,-y,1/2+z
1/2+x,1/2+y,z
1/2-x,1/2+y,1/2-z
1/2-x,1/2-y,-z
1/2+x,1/2-y,1/2+z
loop_
_atom_site_type_symbol
_atom_site_label
_atom_site_fract_x
_atom_site_fract_y
_atom_site_fract_z
Si Si1 0.891032 0.485397 0.159864
Si Si2 0.798691 0.299712 0.403299
Si Si3 0.736733 0.204936 0.094261
Si Si4 0.000000 0.281645 0.750000
Si Si5 0.045957 0.701124 0.908838
Si Si6 0.125240 0.668497 0.381831
Si Si7 0.833927 0.500963 0.873628
O O1 0.873583 0.387002 0.128636
O O2 0.833222 0.565594 0.123038
O O3 0.851763 0.490376 0.268017
O O4 0.036682 0.494540 0.117887
O O5 0.750000 0.250000 0.500000
O O6 0.729727 0.243201 0.352377
O O7 0.768364 0.405357 0.415269
O O8 0.943824 0.292192 0.366406
O O9 0.622546 0.254247 0.172034
O O10 0.860233 0.219342 0.109100
O O11 0.715393 0.098056 0.094353
O O12 0.750000 0.250000 0.000000
O O13 0.942247 0.332060 0.687551
O O14 0.969734 0.690082 0.017100
#
# Coordination Sequence:
#
# PCOD9259185 Si02
#       7
#     8   8   8   4   8   8   8
#     4  10  18  34  61  90 117 156 207 256 294 354
#     4   9  22  39  61  85 123 160 198 251 310 363
#     4  12  22  39  64  93 122 161 210 255 305 366
#     4  12  22  38  62  94 128 156 206 266 304 350
#     4  10  22  37  62  93 118 159 210 248 307 371
#     4  11  19  39  62  89 125 160 202 256 310 355
#     4  10  19  36  58  89 120 159 203 252 302 350
#
# _framework density 19.701215999999999
#
# number of rings (size 3 to 8) (size 9 to 14) (size 15 to 20)
#    0.000    1.538    4.615    0.462    2.154    2.462 
#    0.000    3.077    3.385    0.000    0.000    0.000 
#    0.000    0.000    0.000    0.000    0.000    0.000 
#
# Total GULP energy -144803.388221 kJ/mol
# GULP energy per Si atom -5569.361085 kJ/mol
# Density = 1.965637 g / cm^3
# Si number density = 19.701216 Si / 1000 Ang^3
#
#
#
# Elastic Constant Matrix: (Units=GPa)
#
#
# Indices 1 2 3 4 5 6 
#
# 1 70.9258 47.5062 9.1499 0.0000 0.8329 0.0000
# 2 47.5062 157.9481 24.2555 0.0000 -8.5508 0.0000
# 3 9.1499 24.2555 80.1865 0.0000 -3.9449 0.0000
# 4 0.0000 0.0000 0.0000 29.7075 0.0000 -1.8696
# 5 0.8329 -8.5508 -3.9449 0.0000 21.4370 0.0000
# 6 0.0000 0.0000 0.0000 -1.8696 0.0000 34.1144
#
#
#
# Elastic Compliance Matrix: (Units=1/GPa)
#
#
# Indices 1 2 3 4 5 6 
#
# 1 0.017852 -0.005448 -0.000535 0.000000 -0.002965 0.000000
# 2 -0.005448 0.008416 -0.001765 0.000000 0.003244 0.000000
# 3 -0.000535 -0.001765 0.013151 0.000000 0.001737 0.000000
# 4 0.000000 0.000000 0.000000 0.033778 0.000000 0.001851
# 5 -0.002965 0.003244 0.001737 0.000000 0.048377 0.000000
# 6 0.000000 0.000000 0.000000 0.001851 0.000000 0.029415
#
#
# Mechanical properties :
#
#
# Convention : Reuss Voigt Hill
#
# Bulk Modulus (GPa) = 41.79770 52.32039 47.05905
# Shear Modulus (GPa) = 28.66004 32.26170 30.46087
#
# Velocity S-wave (km/s) = 3.81824 4.05105 3.93637
# Velocity P-wave (km/s) = 6.37969 6.96390 6.67819
#
# Compressibility (1/GPa) = 0.02392476
#
# Stress axis : x y z
#
# Youngs Moduli (GPa) = 56.01623 118.81683 76.03858
#
# Poissons Ratio (x) = 0.64728 0.04068
# Poissons Ratio (y) = 0.30516 0.13418
# Poissons Ratio (z) = 0.02997 0.20967
#
# Static dielectric constant tensor:
#      x y z
#    x 1.691350 0.000000 0.058550 
#    y 0.000000 1.742610 0.000000 
#    z 0.058550 0.000000 1.726110 
# 
# From -- ./inp_files/197667.got.cif
#   From: 2010.05.17/outbox.cif.g08.bks.cpg/sg15_99_cif.got.tgz:197667.got - 2010.06.03 18:47:42.
