data_PCOD9259845
_publ_section_title
;
Structure prediction by ZEFSAII (Michael W. Deem and Ramdas Pophale) SiO2 
 PCOD9259845
Probable space group: C 2/C
;
_chemical_formula_sum "Si O2"
_cell_formula_units_Z 52
_cell_length_a 28.132872
_cell_length_b 18.355841
_cell_length_c 5.235717
_cell_angle_alpha 90.000000
_cell_angle_beta 95.115047
_cell_angle_gamma 90.000000
_cell_volume 2692.970348
_symmetry_space_group_name_H-M "C 2/C"
_symmetry_group_IT_number 15
_symmetry_cell_setting 'monoclinic'
loop_
_space_group_symop_operation_xyz
x,y,z
-x,y,1/2-z
-x,-y,-z
x,-y,1/2+z
1/2+x,1/2+y,z
1/2-x,1/2+y,1/2-z
1/2-x,1/2-y,-z
1/2+x,1/2-y,1/2+z
loop_
_atom_site_type_symbol
_atom_site_label
_atom_site_fract_x
_atom_site_fract_y
_atom_site_fract_z
Si Si1 0.051404 0.269142 0.809057
Si Si2 0.819863 0.211437 0.186581
Si Si3 0.655840 0.046408 0.811093
Si Si4 0.221039 0.643127 0.103218
Si Si5 0.645327 0.168205 0.462091
Si Si6 0.500000 0.450361 0.750000
Si Si7 0.572672 0.322047 0.831753
O O1 0.096901 0.320595 0.786262
O O2 0.000000 0.305471 0.750000
O O3 0.058896 0.232608 0.091545
O O4 0.946546 0.208056 0.908942
O O5 0.776222 0.155772 0.186532
O O6 0.833442 0.253087 0.454319
O O7 0.869754 0.177360 0.121324
O O8 0.799986 0.279312 0.008499
O O9 0.632075 0.122459 0.709434
O O10 0.644294 0.994507 0.567082
O O11 0.709107 0.078746 0.897750
O O12 0.187910 0.628455 0.333284
O O13 0.500000 0.500000 0.500000
O O14 0.546233 0.397656 0.767518
#
# Coordination Sequence:
#
# PCOD9259845 Si02
#       7
#     8   8   8   8   8   4   8
#     4  11  20  36  61  92 115 141 188 253 304 341
#     4   9  20  33  58  90 120 146 186 253 309 345
#     4  11  22  38  57  80 115 161 200 225 271 354
#     4  10  18  36  57  91 116 153 190 242 298 358
#     4  10  20  34  62  87 120 147 196 240 305 349
#     4  12  24  40  62  80 116 166 208 236 288 354
#     4  11  21  39  58  86 116 155 193 246 301 350
#
# _framework density 19.309532999999998
#
# number of rings (size 3 to 8) (size 9 to 14) (size 15 to 20)
#    0.000    1.538    4.615    1.385    0.000    0.000 
#    0.000    1.538    0.000    0.923    0.000    0.000 
#    0.000    0.000    0.000    0.000    0.000    0.000 
#
# Total GULP energy -144752.923163 kJ/mol
# GULP energy per Si atom -5567.420122 kJ/mol
# Density = 1.926558 g / cm^3
# Si number density = 19.309533 Si / 1000 Ang^3
#
#
#
# Elastic Constant Matrix: (Units=GPa)
#
#
# Indices 1 2 3 4 5 6 
#
# 1 111.7751 -1.1433 17.3360 0.0000 24.2293 0.0000
# 2 -1.1433 30.5273 14.7170 0.0000 3.8783 0.0000
# 3 17.3360 14.7170 94.2194 0.0000 2.1261 0.0000
# 4 0.0000 0.0000 0.0000 39.9534 0.0000 2.9296
# 5 24.2293 3.8783 2.1261 0.0000 24.9429 0.0000
# 6 0.0000 0.0000 0.0000 2.9296 0.0000 14.0486
#
#
#
# Elastic Compliance Matrix: (Units=1/GPa)
#
#
# Indices 1 2 3 4 5 6 
#
# 1 0.011924 0.003117 -0.002413 0.000000 -0.011862 0.000000
# 2 0.003117 0.036885 -0.006149 0.000000 -0.008239 0.000000
# 3 -0.002413 -0.006149 0.011967 0.000000 0.002280 0.000000
# 4 0.000000 0.000000 0.000000 0.025418 0.000000 -0.005300
# 5 -0.011862 -0.008239 0.002280 0.000000 0.052701 0.000000
# 6 0.000000 0.000000 0.000000 -0.005300 0.000000 0.072287
#
#
# Mechanical properties :
#
#
# Convention : Reuss Voigt Hill
#
# Bulk Modulus (GPa) = 20.04599 33.14903 26.59751
# Shear Modulus (GPa) = 20.94680 29.49647 25.22164
#
# Velocity S-wave (km/s) = 3.29719 3.91264 3.61803
# Velocity P-wave (km/s) = 4.98991 6.13320 5.59086
#
# Compressibility (1/GPa) = 0.04988528
#
# Stress axis : x y z
#
# Youngs Moduli (GPa) = 83.86495 27.11099 83.56621
#
# Poissons Ratio (x) = -0.08450 0.20166
# Poissons Ratio (y) = -0.26140 0.51385
# Poissons Ratio (z) = 0.20238 0.16671
#
# Static dielectric constant tensor:
#      x y z
#    x 1.698790 0.000000 -0.023720 
#    y 0.000000 1.706250 0.000000 
#    z -0.023720 0.000000 1.762490 
# 
# From -- ./inp_files/17094.got.cif
#   From: 2010.05.17/outbox.cif.g08.bks.cpg/sg15_9_cif.got.tgz:17094.got - 2010.06.03 18:47:42.
