data_PCOD9259879
_publ_section_title
;
Structure prediction by ZEFSAII (Michael W. Deem and Ramdas Pophale) SiO2 
 PCOD9259879
Probable space group: C 2/C
;
_chemical_formula_sum "Si O2"
_cell_formula_units_Z 56
_cell_length_a 12.621376
_cell_length_b 14.401363
_cell_length_c 24.323723
_cell_angle_alpha 90.000000
_cell_angle_beta 151.763129
_cell_angle_gamma 90.000000
_cell_volume 2091.749348
_symmetry_space_group_name_H-M "C 2/C"
_symmetry_group_IT_number 15
_symmetry_cell_setting 'monoclinic'
loop_
_space_group_symop_operation_xyz
x,y,z
-x,y,1/2-z
-x,-y,-z
x,-y,1/2+z
1/2+x,1/2+y,z
1/2-x,1/2+y,1/2-z
1/2-x,1/2-y,-z
1/2+x,1/2-y,1/2+z
loop_
_atom_site_type_symbol
_atom_site_label
_atom_site_fract_x
_atom_site_fract_y
_atom_site_fract_z
Si Si1 0.646611 0.538312 0.940476
Si Si2 0.272608 0.088659 0.710396
Si Si3 0.781330 0.914003 0.432287
Si Si4 0.784295 0.809103 0.726769
Si Si5 0.924704 0.671088 0.154250
Si Si6 0.779657 0.706004 0.453910
Si Si7 0.881228 0.644147 0.962959
O O1 0.635318 0.444465 0.970243
O O2 0.760930 0.611702 0.037653
O O3 0.766682 0.554384 0.937630
O O4 0.386473 0.560483 0.813406
O O5 0.160153 0.051991 0.602215
O O6 0.523602 0.055868 0.822672
O O7 0.294077 0.198518 0.723932
O O8 0.810478 0.804275 0.436611
O O9 0.658137 0.823553 0.727212
O O10 0.608537 0.846170 0.602322
O O11 0.038964 0.839778 0.832031
O O12 0.000000 0.639067 0.250000
O O13 0.789336 0.769104 0.102504
O O14 0.750000 0.750000 0.500000
O O15 0.008468 0.650001 0.547104
#
# Coordination Sequence:
#
# PCOD9259879 Si02
#       7
#     8   8   8   8   8   8   8
#     4  11  21  38  58  86 127 166 199 254 326 382
#     4  10  18  36  60  81 122 166 200 246 320 379
#     4  10  22  35  58  89 121 160 209 256 315 375
#     4  10  18  36  58  83 118 164 201 250 311 379
#     4  11  21  33  58  92 123 151 207 257 308 370
#     4  11  22  38  60  90 117 156 216 266 309 371
#     4  11  20  38  60  88 119 165 205 252 322 378
#
# _framework density 26.771851999999999
#
# number of rings (size 3 to 8) (size 9 to 14) (size 15 to 20)
#    0.000    1.429    4.286    2.571    2.000    0.000 
#    5.143    0.714    0.000    0.000    0.000    0.000 
#    0.000    0.000    0.000    0.000    0.000    0.000 
#
# Total GULP energy -156242.802756 kJ/mol
# GULP energy per Si atom -5580.100098 kJ/mol
# Density = 2.671092 g / cm^3
# Si number density = 26.771852 Si / 1000 Ang^3
#
#
#
# Elastic Constant Matrix: (Units=GPa)
#
#
# Indices 1 2 3 4 5 6 
#
# 1 167.3371 21.2891 31.4593 0.0004 33.1428 0.0001
# 2 21.2891 65.2037 14.3981 -0.0001 13.8341 0.0003
# 3 31.4593 14.3981 63.9124 0.0018 21.4982 0.0009
# 4 0.0004 -0.0001 0.0018 12.1129 -0.0001 -12.0909
# 5 33.1428 13.8341 21.4982 -0.0001 55.7576 -0.0005
# 6 0.0001 0.0003 0.0009 -12.0909 -0.0005 21.5323
#
#
#
# Elastic Compliance Matrix: (Units=1/GPa)
#
#
# Indices 1 2 3 4 5 6 
#
# 1 0.007158 -0.001190 -0.002210 0.000000 -0.003108 0.000000
# 2 -0.001190 0.016783 -0.002335 0.000001 -0.002556 0.000000
# 3 -0.002210 -0.002335 0.019101 -0.000008 -0.005471 -0.000005
# 4 0.000000 0.000001 -0.000008 0.187844 0.000004 0.105478
# 5 -0.003108 -0.002556 -0.005471 0.000004 0.022526 0.000003
# 6 0.000000 0.000000 -0.000005 0.105478 0.000003 0.105670
#
#
# Mechanical properties :
#
#
# Convention : Reuss Voigt Hill
#
# Bulk Modulus (GPa) = 31.67393 47.86068 39.76731
# Shear Modulus (GPa) = 13.12072 33.16766 23.14419
#
# Velocity S-wave (km/s) = 2.21621 3.52362 2.94342
# Velocity P-wave (km/s) = 4.29016 5.87117 5.14179
#
# Compressibility (1/GPa) = 0.03157170
#
# Stress axis : x y z
#
# Youngs Moduli (GPa) = 139.69723 59.58377 52.35368
#
# Poissons Ratio (x) = 0.07089 0.11571
# Poissons Ratio (y) = 0.16622 0.12226
# Poissons Ratio (z) = 0.30875 0.13915
#
# Static dielectric constant tensor:
#      x y z
#    x 2.238830 0.000000 -0.067070 
#    y 0.000000 2.185550 0.000000 
#    z -0.067070 0.000000 2.139330 
# 
# From -- ./inp_files/293692.got.cif
#   From: 2010.05.17/outbox.cif.g08.bks.cpg/sg15_147_cif.got.tgz:293692.got - 2010.06.03 18:47:42.
