data_PCOD9259781
_publ_section_title
;
Structure prediction by ZEFSAII (Michael W. Deem and Ramdas Pophale) SiO2 
 PCOD9259781
Probable space group: C 2/C
;
_chemical_formula_sum "Si O2"
_cell_formula_units_Z 52
_cell_length_a 30.040812
_cell_length_b 12.605975
_cell_length_c 8.695017
_cell_angle_alpha 90.000000
_cell_angle_beta 42.970800
_cell_angle_gamma 90.000000
_cell_volume 2244.421414
_symmetry_space_group_name_H-M "C 2/C"
_symmetry_group_IT_number 15
_symmetry_cell_setting 'monoclinic'
loop_
_space_group_symop_operation_xyz
x,y,z
-x,y,1/2-z
-x,-y,-z
x,-y,1/2+z
1/2+x,1/2+y,z
1/2-x,1/2+y,1/2-z
1/2-x,1/2-y,-z
1/2+x,1/2-y,1/2+z
loop_
_atom_site_type_symbol
_atom_site_label
_atom_site_fract_x
_atom_site_fract_y
_atom_site_fract_z
Si Si1 0.000000 0.922930 0.750000
Si Si2 0.122871 0.917421 0.286946
Si Si3 0.658323 0.784108 0.916017
Si Si4 0.038345 0.250282 0.407256
Si Si5 0.767684 0.470303 0.956660
Si Si6 0.910325 0.772726 0.381919
Si Si7 0.723796 0.154100 0.755546
O O1 0.975944 0.847535 0.670851
O O2 0.063883 0.976623 0.519923
O O3 0.138205 0.807954 0.343243
O O4 0.097069 0.883429 0.186802
O O5 0.191474 0.974145 0.103395
O O6 0.693705 0.880217 0.737568
O O7 0.711423 0.725062 0.890899
O O8 0.592758 0.815651 0.174340
O O9 0.069342 0.221734 0.492854
O O10 0.966376 0.290194 0.642114
O O11 0.789977 0.588629 0.863965
O O12 0.771278 0.434449 0.123059
O O13 0.839406 0.722425 0.550083
#
# Coordination Sequence:
#
# PCOD9259781 Si02
#       7
#     4   8   8   8   8   8   8
#     4   8  16  32  58  88 104 152 192 230 282 360
#     4   9  16  35  60  80 114 152 191 230 289 335
#     4  10  19  39  59  82 112 160 189 236 283 344
#     4   9  20  31  60  83 112 147 196 228 290 334
#     4  11  22  37  57  87 117 154 190 240 280 343
#     4  10  18  36  55  86 114 149 185 244 277 340
#     4  11  23  37  59  85 120 149 197 232 289 335
#
# _framework density 23.168552999999999
#
# number of rings (size 3 to 8) (size 9 to 14) (size 15 to 20)
#    0.000    2.154    3.077    0.923    2.154    1.846 
#    0.000    0.769    0.000   16.615    0.000    0.000 
#    0.000    0.000    0.000    0.000    0.000    0.000 
#
# Total GULP energy -145226.803638 kJ/mol
# GULP energy per Si atom -5585.646294 kJ/mol
# Density = 2.311582 g / cm^3
# Si number density = 23.168553 Si / 1000 Ang^3
#
#
#
# Elastic Constant Matrix: (Units=GPa)
#
#
# Indices 1 2 3 4 5 6 
#
# 1 69.9051 12.3313 24.5710 0.0000 -2.9146 0.0000
# 2 12.3313 44.1632 24.7709 0.0000 10.0664 0.0000
# 3 24.5710 24.7709 147.7252 0.0000 -13.9411 0.0000
# 4 0.0000 0.0000 0.0000 -1.2450 0.0000 22.9326
# 5 -2.9146 10.0664 -13.9411 0.0000 36.7771 0.0000
# 6 0.0000 0.0000 0.0000 22.9326 0.0000 22.3593
#
#
#
# Elastic Compliance Matrix: (Units=1/GPa)
#
#
# Indices 1 2 3 4 5 6 
#
# 1 0.015669 -0.003698 -0.001839 0.000000 0.001557 0.000000
# 2 -0.003698 0.028907 -0.005192 0.000000 -0.010174 0.000000
# 3 -0.001839 -0.005192 0.008365 0.000000 0.004447 0.000000
# 4 0.000000 0.000000 0.000000 -0.040379 0.000000 0.041414
# 5 0.001557 -0.010174 0.004447 0.000000 0.031784 0.000000
# 6 0.000000 0.000000 0.000000 0.041414 0.000000 0.002248
#
#
# Mechanical properties :
#
#
# Convention : Reuss Voigt Hill
#
# Bulk Modulus (GPa) = 31.76406 42.79334 37.27870
# Shear Modulus (GPa) = 63.65448 24.91962 44.28705
#
# Velocity S-wave (km/s) = 5.24730 3.28316 4.37683
# Velocity P-wave (km/s) = 7.10295 5.73435 6.45503
#
# Compressibility (1/GPa) = 0.03148213
#
# Stress axis : x y z
#
# Youngs Moduli (GPa) = 63.82087 34.59347 119.53871
#
# Poissons Ratio (x) = 0.12794 0.21984
# Poissons Ratio (y) = 0.23604 0.62067
# Poissons Ratio (z) = 0.11737 0.17962
#
# Static dielectric constant tensor:
#      x y z
#    x 1.871030 0.000000 0.005240 
#    y 0.000000 1.806340 0.000000 
#    z 0.005240 0.000000 1.912090 
# 
# From -- ./inp_files/55294.got.cif
#   From: 2010.05.17/outbox.cif.g08.bks.cpg/sg15_28_cif.got.tgz:55294.got - 2010.06.03 18:47:42.
