data_PCOD9259542
_publ_section_title
;
Structure prediction by ZEFSAII (Michael W. Deem and Ramdas Pophale) SiO2 
 PCOD9259542
Probable space group: C 2/C
;
_chemical_formula_sum "Si O2"
_cell_formula_units_Z 64
_cell_length_a 15.866776
_cell_length_b 18.881247
_cell_length_c 11.011863
_cell_angle_alpha 90.000000
_cell_angle_beta 85.466117
_cell_angle_gamma 90.000000
_cell_volume 3288.660347
_symmetry_space_group_name_H-M "C 2/C"
_symmetry_group_IT_number 15
_symmetry_cell_setting 'monoclinic'
loop_
_space_group_symop_operation_xyz
x,y,z
-x,y,1/2-z
-x,-y,-z
x,-y,1/2+z
1/2+x,1/2+y,z
1/2-x,1/2+y,1/2-z
1/2-x,1/2-y,-z
1/2+x,1/2-y,1/2+z
loop_
_atom_site_type_symbol
_atom_site_label
_atom_site_fract_x
_atom_site_fract_y
_atom_site_fract_z
Si Si1 0.447739 0.274407 0.487444
Si Si2 0.128322 0.917944 0.100697
Si Si3 0.848182 0.259634 0.244810
Si Si4 0.798929 0.296509 0.889118
Si Si5 0.745850 0.112144 0.694144
Si Si6 0.083169 0.060404 0.180780
Si Si7 0.625819 0.321029 0.505497
Si Si8 0.231670 0.952013 0.862411
O O1 0.414004 0.352276 0.459163
O O2 0.415371 0.257960 0.629511
O O3 0.395547 0.222809 0.404187
O O4 0.547757 0.279396 0.453501
O O5 0.189158 0.890788 0.200259
O O6 0.067773 0.977910 0.158061
O O7 0.181546 0.958762 0.993399
O O8 0.754677 0.232257 0.217170
O O9 0.836964 0.343750 0.260651
O O10 0.863229 0.221950 0.370597
O O11 0.786273 0.381143 0.881931
O O12 0.750000 0.250000 0.000000
O O13 0.793334 0.158167 0.584163
O O14 0.729112 0.029495 0.665884
O O15 0.095502 0.102388 0.055739
O O16 0.164492 0.064331 0.261095
O O17 0.000000 0.092448 0.250000
#
# Coordination Sequence:
#
# PCOD9259542 Si02
#       8
#     8   8   8   8   8   8   8   8
#     4  11  22  36  64  85 114 163 206 244 283 366
#     4  11  20  36  53  84 123 158 198 226 294 364
#     4  11  20  41  57  82 115 160 200 249 299 350
#     4  10  18  35  60  81 111 154 206 237 276 353
#     4  11  25  36  58  88 122 155 200 254 303 359
#     4  11  23  32  52  82 125 165 186 233 298 373
#     4  12  23  37  56  88 123 155 198 250 309 355
#     4  11  20  38  56  84 115 161 203 239 292 362
#
# _framework density 19.460812000000001
#
# number of rings (size 3 to 8) (size 9 to 14) (size 15 to 20)
#    0.000    1.000    6.250    3.000    3.500    1.000 
#    0.000    0.000    0.000    0.750    0.000    1.750 
#    0.000    0.000    0.000    0.000    0.000    0.000 
#
# Total GULP energy -178332.480027 kJ/mol
# GULP energy per Si atom -5572.890001 kJ/mol
# Density = 1.941652 g / cm^3
# Si number density = 19.460812 Si / 1000 Ang^3
#
#
#
# Elastic Constant Matrix: (Units=GPa)
#
#
# Indices 1 2 3 4 5 6 
#
# 1 40.0293 35.8563 0.5974 0.0000 8.0730 0.0000
# 2 35.8563 129.2767 13.1949 0.0000 5.6129 0.0000
# 3 0.5974 13.1949 32.3010 0.0000 2.6553 0.0000
# 4 0.0000 0.0000 0.0000 19.9629 0.0000 -21.2034
# 5 8.0730 5.6129 2.6553 0.0000 19.9665 0.0000
# 6 0.0000 0.0000 0.0000 -21.2034 0.0000 -14.4355
#
#
#
# Elastic Compliance Matrix: (Units=1/GPa)
#
#
# Indices 1 2 3 4 5 6 
#
# 1 0.036399 -0.010006 0.004442 0.000000 -0.012495 0.000000
# 2 -0.010006 0.010891 -0.004393 0.000000 0.001568 0.000000
# 3 0.004442 -0.004393 0.033079 0.000000 -0.004960 0.000000
# 4 0.000000 0.000000 0.000000 0.019567 0.000000 -0.028740
# 5 -0.012495 0.001568 -0.004960 0.000000 0.055355 0.000000
# 6 0.000000 0.000000 0.000000 -0.028740 0.000000 -0.027059
#
#
# Mechanical properties :
#
#
# Convention : Reuss Voigt Hill
#
# Bulk Modulus (GPa) = 16.54174 33.43380 24.98777
# Shear Modulus (GPa) = 29.70932 15.22934 22.46933
#
# Velocity S-wave (km/s) = 3.91144 2.80047 3.40162
# Velocity P-wave (km/s) = 5.37751 5.26063 5.31939
#
# Compressibility (1/GPa) = 0.06045314
#
# Stress axis : x y z
#
# Youngs Moduli (GPa) = 27.47359 91.81897 30.23078
#
# Poissons Ratio (x) = 0.91878 -0.13427
# Poissons Ratio (y) = 0.27491 0.13280
# Poissons Ratio (z) = -0.12203 0.40335
#
# Static dielectric constant tensor:
#      x y z
#    x 1.710530 0.000000 0.006020 
#    y 0.000000 1.760960 0.000000 
#    z 0.006020 0.000000 1.728720 
# 
# From -- ./inp_files/105732.got.cif
#   From: 2010.05.17/outbox.cif.g08.bks.cpg/sg15_53_cif.got.tgz:105732.got - 2010.06.03 18:47:42.
