data_PCOD9259604
_publ_section_title
;
Structure prediction by ZEFSAII (Michael W. Deem and Ramdas Pophale) SiO2 
 PCOD9259604
Probable space group: C 2/C
;
_chemical_formula_sum "Si O2"
_cell_formula_units_Z 52
_cell_length_a 20.683979
_cell_length_b 16.445876
_cell_length_c 11.868411
_cell_angle_alpha 90.000000
_cell_angle_beta 39.739434
_cell_angle_gamma 90.000000
_cell_volume 2580.990967
_symmetry_space_group_name_H-M "C 2/C"
_symmetry_group_IT_number 15
_symmetry_cell_setting 'monoclinic'
loop_
_space_group_symop_operation_xyz
x,y,z
-x,y,1/2-z
-x,-y,-z
x,-y,1/2+z
1/2+x,1/2+y,z
1/2-x,1/2+y,1/2-z
1/2-x,1/2-y,-z
1/2+x,1/2-y,1/2+z
loop_
_atom_site_type_symbol
_atom_site_label
_atom_site_fract_x
_atom_site_fract_y
_atom_site_fract_z
Si Si1 0.432647 0.733796 0.739048
Si Si2 0.700655 0.930937 0.308244
Si Si3 0.507255 0.134508 0.971408
Si Si4 0.218194 0.237331 0.912079
Si Si5 0.000000 0.713371 0.750000
Si Si6 0.730923 0.890218 0.732819
Si Si7 0.248542 0.352149 0.457063
O O1 0.500000 0.698907 0.750000
O O2 0.501316 0.788439 0.564850
O O3 0.357861 0.677425 0.765936
O O4 0.345585 0.790062 0.913018
O O5 0.585211 0.928934 0.419465
O O6 0.742709 0.847498 0.193988
O O7 0.706769 0.921613 0.434291
O O8 0.757711 0.015588 0.213606
O O9 0.390964 0.109382 0.115509
O O10 0.538855 0.160023 0.803219
O O11 0.252791 0.317110 0.791988
O O12 0.250000 0.250000 0.000000
O O13 0.096074 0.237681 0.076100
O O14 0.771218 0.870079 0.555750
#
# Coordination Sequence:
#
# PCOD9259604 Si02
#       7
#     8   8   8   8   4   8   8
#     4  10  18  35  61  87 117 153 200 254 301 362
#     4  12  22  39  65  90 126 166 198 259 319 367
#     4  10  20  35  58  95 121 158 195 255 322 374
#     4  11  23  41  65  90 124 172 203 251 316 367
#     4  10  20  38  60  88 132 156 216 246 296 390
#     4  10  25  38  60  96 126 157 213 253 308 380
#     4  10  21  36  58  88 123 156 206 247 307 363
#
# _framework density 20.147300999999999
#
# number of rings (size 3 to 8) (size 9 to 14) (size 15 to 20)
#    0.000    1.538    3.077    4.154    2.154    0.000 
#    0.000    1.538    1.692    1.846    0.000    0.000 
#    0.000    0.000    0.000    0.000    0.000    0.000 
#
# Total GULP energy -144762.612617 kJ/mol
# GULP energy per Si atom -5567.792793 kJ/mol
# Density = 2.010145 g / cm^3
# Si number density = 20.147301 Si / 1000 Ang^3
#
#
#
# Elastic Constant Matrix: (Units=GPa)
#
#
# Indices 1 2 3 4 5 6 
#
# 1 101.6731 28.2358 16.3742 0.0000 19.1630 0.0000
# 2 28.2358 109.5846 24.1932 0.0000 19.3526 0.0000
# 3 16.3742 24.1932 49.0932 0.0000 14.8060 0.0000
# 4 0.0000 0.0000 0.0000 10.9529 0.0000 -8.2773
# 5 19.1630 19.3526 14.8060 0.0000 34.8330 0.0000
# 6 0.0000 0.0000 0.0000 -8.2773 0.0000 5.7228
#
#
#
# Elastic Compliance Matrix: (Units=1/GPa)
#
#
# Indices 1 2 3 4 5 6 
#
# 1 0.011458 -0.001791 -0.001535 0.000000 -0.004656 0.000000
# 2 -0.001791 0.011047 -0.003777 0.000000 -0.003547 0.000000
# 3 -0.001535 -0.003777 0.025069 0.000000 -0.007713 0.000000
# 4 0.000000 0.000000 0.000000 -0.981228 0.000000 -1.419228
# 5 -0.004656 -0.003547 -0.007713 0.000000 0.036519 0.000000
# 6 0.000000 0.000000 0.000000 -1.419228 0.000000 -1.878001
#
#
# Mechanical properties :
#
#
# Convention : Reuss Voigt Hill
#
# Bulk Modulus (GPa) = 29.96896 44.21746 37.09321
# Shear Modulus (GPa) = -1.81831 23.07158 10.62664
#
# Velocity S-wave (km/s) = -0.95103 3.38767 2.29911
# Velocity P-wave (km/s) = 3.70152 6.10708 5.04964
#
# Compressibility (1/GPa) = 0.03336786
#
# Stress axis : x y z
#
# Youngs Moduli (GPa) = 87.27880 90.52168 39.89034
#
# Poissons Ratio (x) = 0.16214 0.06122
# Poissons Ratio (y) = 0.15633 0.15066
# Poissons Ratio (z) = 0.13394 0.34190
#
# Static dielectric constant tensor:
#      x y z
#    x 1.769390 0.000000 -0.019540 
#    y 0.000000 1.865200 0.000000 
#    z -0.019540 0.000000 1.773900 
# 
# From -- ./inp_files/113624.got.cif
#   From: 2010.05.17/outbox.cif.g08.bks.cpg/sg15_57_cif.got.tgz:113624.got - 2010.06.03 18:47:42.
