data_PCOD9259907
_publ_section_title
;
Structure prediction by ZEFSAII (Michael W. Deem and Ramdas Pophale) SiO2 
 PCOD9259907
Probable space group: C 2/C
;
_chemical_formula_sum "Si O2"
_cell_formula_units_Z 60
_cell_length_a 21.652689
_cell_length_b 11.425185
_cell_length_c 10.803791
_cell_angle_alpha 90.000000
_cell_angle_beta 85.598269
_cell_angle_gamma 90.000000
_cell_volume 2664.823074
_symmetry_space_group_name_H-M "C 2/C"
_symmetry_group_IT_number 15
_symmetry_cell_setting 'monoclinic'
loop_
_space_group_symop_operation_xyz
x,y,z
-x,y,1/2-z
-x,-y,-z
x,-y,1/2+z
1/2+x,1/2+y,z
1/2-x,1/2+y,1/2-z
1/2-x,1/2-y,-z
1/2+x,1/2-y,1/2+z
loop_
_atom_site_type_symbol
_atom_site_label
_atom_site_fract_x
_atom_site_fract_y
_atom_site_fract_z
Si Si1 0.438619 0.626903 0.340578
Si Si2 0.500000 0.212844 0.250000
Si Si3 0.801909 0.331398 0.559235
Si Si4 0.572960 0.205877 0.872493
Si Si5 0.901909 0.870288 0.406318
Si Si6 0.445420 0.179251 0.002770
Si Si7 0.808162 0.407175 0.058312
Si Si8 0.788120 0.258489 0.834677
O O1 0.500000 0.601934 0.250000
O O2 0.411971 0.735162 0.262302
O O3 0.406876 0.504534 0.369380
O O4 0.445667 0.680317 0.477038
O O5 0.445413 0.293797 0.310473
O O6 0.470553 0.147895 0.135651
O O7 0.750000 0.250000 0.500000
O O8 0.872510 0.349102 0.496595
O O9 0.780586 0.465100 0.582833
O O10 0.809069 0.276196 0.693133
O O11 0.620214 0.108354 0.914951
O O12 0.580189 0.319241 0.962180
O O13 0.503635 0.152094 0.901376
O O14 0.832143 0.832779 0.395957
O O15 0.777761 0.302836 0.143282
O O16 0.795960 0.373695 0.916981
#
# Coordination Sequence:
#
# PCOD9259907 Si02
#       8
#     8   4   8   8   8   8   8   8
#     4  10  21  34  60  97 137 171 216 285 340 398
#     4  10  18  36  58  88 132 162 216 268 322 400
#     4  12  28  44  72 105 132 178 232 287 335 412
#     4   9  22  40  64  92 135 180 219 282 347 402
#     4  10  19  34  62  91 129 177 216 266 339 399
#     4  10  23  40  62  98 134 168 235 275 338 405
#     4  10  25  48  70  96 137 181 228 278 344 409
#     4  10  24  46  66  99 134 183 223 272 348 411
#
# _framework density 22.515566
#
# number of rings (size 3 to 8) (size 9 to 14) (size 15 to 20)
#    0.000    1.867    2.000    0.000    7.467    2.133 
#    2.400    0.000    4.400    0.000    0.000    0.000 
#    0.000    0.000    0.000    0.000    0.000    0.000 
#
# Total GULP energy -167007.329020 kJ/mol
# GULP energy per Si atom -5566.910967 kJ/mol
# Density = 2.246432 g / cm^3
# Si number density = 22.515566 Si / 1000 Ang^3
#
#
#
# Elastic Constant Matrix: (Units=GPa)
#
#
# Indices 1 2 3 4 5 6 
#
# 1 101.4969 18.7381 4.9108 0.0000 11.4878 0.0000
# 2 18.7381 75.3144 16.9686 0.0000 15.3979 0.0000
# 3 4.9108 16.9686 88.4103 0.0000 7.7614 0.0000
# 4 0.0000 0.0000 0.0000 7.2527 0.0000 -3.8496
# 5 11.4878 15.3979 7.7614 0.0000 26.4652 0.0000
# 6 0.0000 0.0000 0.0000 -3.8496 0.0000 16.5658
#
#
#
# Elastic Compliance Matrix: (Units=1/GPa)
#
#
# Indices 1 2 3 4 5 6 
#
# 1 0.010603 -0.001943 0.000091 0.000000 -0.003499 0.000000
# 2 -0.001943 0.015847 -0.002256 0.000000 -0.007715 0.000000
# 3 0.000091 -0.002256 0.011934 0.000000 -0.002227 0.000000
# 4 0.000000 0.000000 0.000000 0.157281 0.000000 0.036550
# 5 -0.003499 -0.007715 -0.002227 0.000000 0.044446 0.000000
# 6 0.000000 0.000000 0.000000 0.036550 0.000000 0.068859
#
#
# Mechanical properties :
#
#
# Convention : Reuss Voigt Hill
#
# Bulk Modulus (GPa) = 33.14856 38.49520 35.82188
# Shear Modulus (GPa) = 15.27922 25.03033 20.15478
#
# Velocity S-wave (km/s) = 2.60784 3.33782 2.99515
# Velocity P-wave (km/s) = 4.88080 5.65588 5.28257
#
# Compressibility (1/GPa) = 0.03016723
#
# Stress axis : x y z
#
# Youngs Moduli (GPa) = 94.31437 63.10448 83.79161
#
# Poissons Ratio (x) = 0.12263 -0.00764
# Poissons Ratio (y) = 0.18328 0.18906
# Poissons Ratio (z) = -0.00860 0.14238
#
# Static dielectric constant tensor:
#      x y z
#    x 1.980610 0.000000 0.015410 
#    y 0.000000 1.831510 0.000000 
#    z 0.015410 0.000000 1.881420 
# 
# From -- ./inp_files/111647.got.cif
#   From: 2010.05.17/outbox.cif.g08.bks.cpg/sg15_56_cif.got.tgz:111647.got - 2010.06.03 18:47:42.
