data_PCOD9259347
_publ_section_title
;
Structure prediction by ZEFSAII (Michael W. Deem and Ramdas Pophale) SiO2 
 PCOD9259347
Probable space group: C 2/C
;
_chemical_formula_sum "Si O2"
_cell_formula_units_Z 60
_cell_length_a 22.755868
_cell_length_b 21.451982
_cell_length_c 12.500484
_cell_angle_alpha 90.000000
_cell_angle_beta 33.232631
_cell_angle_gamma 90.000000
_cell_volume 3344.257180
_symmetry_space_group_name_H-M "C 2/C"
_symmetry_group_IT_number 15
_symmetry_cell_setting 'monoclinic'
loop_
_space_group_symop_operation_xyz
x,y,z
-x,y,1/2-z
-x,-y,-z
x,-y,1/2+z
1/2+x,1/2+y,z
1/2-x,1/2+y,1/2-z
1/2-x,1/2-y,-z
1/2+x,1/2-y,1/2+z
loop_
_atom_site_type_symbol
_atom_site_label
_atom_site_fract_x
_atom_site_fract_y
_atom_site_fract_z
Si Si1 0.713225 0.929839 0.945437
Si Si2 0.500000 0.537195 0.250000
Si Si3 0.637386 0.686258 0.233304
Si Si4 0.240117 0.301794 0.173655
Si Si5 0.594577 0.366018 0.435330
Si Si6 0.165070 0.955380 0.140591
Si Si7 0.849977 0.443257 0.698829
Si Si8 0.410040 0.916536 0.157196
O O1 0.801708 0.877629 0.833681
O O2 0.675845 0.925158 0.882030
O O3 0.769472 0.995211 0.886766
O O4 0.615758 0.920818 0.176929
O O5 0.430695 0.582757 0.432574
O O6 0.576182 0.494045 0.208139
O O7 0.674350 0.737880 0.262555
O O8 0.511950 0.674216 0.419365
O O9 0.678260 0.703031 0.051665
O O10 0.310105 0.321454 0.168997
O O11 0.157330 0.358306 0.281312
O O12 0.618311 0.404099 0.291387
O O13 0.251739 0.927928 0.925948
O O14 0.865436 0.518378 0.678806
O O15 0.964062 0.414345 0.557890
#
# Coordination Sequence:
#
# PCOD9259347 Si02
#       8
#     8   4   8   8   8   8   8   8
#     4  10  18  35  54  87 111 145 187 238 285 343
#     4  12  20  36  58  88 118 150 176 248 286 350
#     4  10  21  34  58  85 111 144 190 234 293 335
#     4  10  20  38  58  82 114 146 189 243 285 334
#     4  12  21  38  58  88 119 149 186 243 292 346
#     4  11  23  32  57  87 119 151 187 226 302 352
#     4  10  20  34  54  82 117 145 184 233 279 348
#     4   9  19  35  55  81 110 149 187 232 286 335
#
# _framework density 17.941205
#
# number of rings (size 3 to 8) (size 9 to 14) (size 15 to 20)
#    0.000    1.600    2.667    4.000    1.867    1.067 
#    0.000    6.000    0.000    4.800    0.000    0.000 
#    0.000    0.000    0.000    0.000    0.000    0.000 
#
# Total GULP energy -167461.289368 kJ/mol
# GULP energy per Si atom -5582.042979 kJ/mol
# Density = 1.790037 g / cm^3
# Si number density = 17.941205 Si / 1000 Ang^3
#
#
#
# Elastic Constant Matrix: (Units=GPa)
#
#
# Indices 1 2 3 4 5 6 
#
# 1 61.0352 19.7187 18.4704 0.0000 -3.0709 0.0000
# 2 19.7187 54.2392 30.1231 0.0000 -8.4618 0.0000
# 3 18.4704 30.1231 58.4708 0.0000 -10.5520 0.0000
# 4 0.0000 0.0000 0.0000 14.2948 0.0000 -0.1542
# 5 -3.0709 -8.4618 -10.5520 0.0000 18.1274 0.0000
# 6 0.0000 0.0000 0.0000 -0.1542 0.0000 27.3191
#
#
#
# Elastic Compliance Matrix: (Units=1/GPa)
#
#
# Indices 1 2 3 4 5 6 
#
# 1 0.019069 -0.005124 -0.003612 0.000000 -0.001264 0.000000
# 2 -0.005124 0.027585 -0.011649 0.000000 0.005227 0.000000
# 3 -0.003612 -0.011649 0.025871 0.000000 0.009010 0.000000
# 4 0.000000 0.000000 0.000000 0.069960 0.000000 0.000395
# 5 -0.001264 0.005227 0.009010 0.000000 0.062636 0.000000
# 6 0.000000 0.000000 0.000000 0.000395 0.000000 0.036607
#
#
# Mechanical properties :
#
#
# Convention : Reuss Voigt Hill
#
# Bulk Modulus (GPa) = 31.49154 34.48550 32.98852
# Shear Modulus (GPa) = 17.06007 18.97712 18.01860
#
# Velocity S-wave (km/s) = 3.08699 3.25582 3.17253
# Velocity P-wave (km/s) = 5.50425 5.77901 5.64330
#
# Compressibility (1/GPa) = 0.03175456
#
# Stress axis : x y z
#
# Youngs Moduli (GPa) = 52.44172 36.25189 38.65322
#
# Poissons Ratio (x) = 0.18574 0.13962
# Poissons Ratio (y) = 0.26869 0.45028
# Poissons Ratio (z) = 0.18943 0.42231
#
# Static dielectric constant tensor:
#      x y z
#    x 1.605450 0.000000 -0.001970 
#    y 0.000000 1.612260 0.000000 
#    z -0.001970 0.000000 1.618750 
# 
# From -- ./inp_files/90892.got.cif
#   From: 2010.05.17/outbox.cif.g08.bks.cpg/sg15_46_cif.got.tgz:90892.got - 2010.06.03 18:47:42.
