data_PCOD9259006
_publ_section_title
;
Structure prediction by ZEFSAII (Michael W. Deem and Ramdas Pophale) SiO2 
 PCOD9259006
Probable space group: C 2/C
;
_chemical_formula_sum "Si O2"
_cell_formula_units_Z 48
_cell_length_a 13.083336
_cell_length_b 20.179817
_cell_length_c 16.730202
_cell_angle_alpha 90.000000
_cell_angle_beta 37.287755
_cell_angle_gamma 90.000000
_cell_volume 2675.958349
_symmetry_space_group_name_H-M "C 2/C"
_symmetry_group_IT_number 15
_symmetry_cell_setting 'monoclinic'
loop_
_space_group_symop_operation_xyz
x,y,z
-x,y,1/2-z
-x,-y,-z
x,-y,1/2+z
1/2+x,1/2+y,z
1/2-x,1/2+y,1/2-z
1/2-x,1/2-y,-z
1/2+x,1/2-y,1/2+z
loop_
_atom_site_type_symbol
_atom_site_label
_atom_site_fract_x
_atom_site_fract_y
_atom_site_fract_z
Si Si1 0.358957 0.793236 0.275143
Si Si2 0.624335 0.182177 0.480596
Si Si3 0.831891 0.461435 0.905864
Si Si4 0.303532 0.608304 0.513741
Si Si5 0.554605 0.059706 0.409859
Si Si6 0.618777 0.560847 0.398277
O O1 0.500000 0.769290 0.250000
O O2 0.205731 0.743270 0.382965
O O3 0.301118 0.864799 0.344781
O O4 0.452023 0.798255 0.133209
O O5 0.749073 0.155015 0.473835
O O6 0.591943 0.123030 0.440117
O O7 0.747457 0.532961 0.975412
O O8 0.708141 0.418682 0.926138
O O9 0.000000 0.475769 0.750000
O O10 0.902860 0.428798 0.941601
O O11 0.497058 0.608493 0.422811
O O12 0.725059 0.041446 0.255434
O O13 0.500000 0.000000 0.500000
O O14 0.500000 0.500000 0.500000
#
# Coordination Sequence:
#
# PCOD9259006 Si02
#       6
#     8   8   8   8   8   8
#     4  10  22  36  56  84 120 155 188 230 293 348
#     4  11  23  36  58  86 120 150 194 237 290 348
#     4   9  17  35  53  81 112 151 187 220 286 344
#     4  10  18  34  58  83 119 147 186 234 286 348
#     4  11  22  35  57  84 117 152 189 239 291 340
#     4   9  21  34  57  80 112 153 187 230 286 345
#
# _framework density 17.937498999999999
#
# number of rings (size 3 to 8) (size 9 to 14) (size 15 to 20)
#    0.000    2.000    1.667    3.500    9.333    0.000 
#    0.000    0.000    0.000    1.000    0.000    0.000 
#    0.000    0.000    0.000    0.000    0.000    0.000 
#
# Total GULP energy -133726.692530 kJ/mol
# GULP energy per Si atom -5571.945522 kJ/mol
# Density = 1.789667 g / cm^3
# Si number density = 17.937499 Si / 1000 Ang^3
#
#
#
# Elastic Constant Matrix: (Units=GPa)
#
#
# Indices 1 2 3 4 5 6 
#
# 1 122.5115 21.5352 46.7234 -0.0001 -3.7465 0.0011
# 2 21.5352 53.5565 32.8175 0.0024 4.3684 -0.0006
# 3 46.7234 32.8175 106.3572 0.0080 5.3073 -0.0032
# 4 -0.0001 0.0024 0.0080 28.9112 -0.0028 -6.5141
# 5 -3.7465 4.3684 5.3073 -0.0028 23.8217 0.0004
# 6 0.0011 -0.0006 -0.0032 -6.5141 0.0004 13.3417
#
#
#
# Elastic Compliance Matrix: (Units=1/GPa)
#
#
# Indices 1 2 3 4 5 6 
#
# 1 0.010101 -0.001833 -0.004013 0.000001 0.002819 -0.000001
# 2 -0.001833 0.023527 -0.006295 -0.000001 -0.003200 -0.000001
# 3 -0.004013 -0.006295 0.013228 -0.000003 -0.002424 0.000002
# 4 0.000001 -0.000001 -0.000003 0.038864 0.000005 0.018976
# 5 0.002819 -0.003200 -0.002424 0.000005 0.043549 0.000000
# 6 -0.000001 -0.000001 0.000002 0.018976 0.000000 0.084218
#
#
# Mechanical properties :
#
#
# Convention : Reuss Voigt Hill
#
# Bulk Modulus (GPa) = 44.29420 53.84192 49.06806
# Shear Modulus (GPa) = 20.38376 25.30484 22.84430
#
# Velocity S-wave (km/s) = 3.37468 3.76003 3.57255
# Velocity P-wave (km/s) = 6.31916 6.99514 6.66573
#
# Compressibility (1/GPa) = 0.02257632
#
# Stress axis : x y z
#
# Youngs Moduli (GPa) = 98.99794 42.50436 75.59560
#
# Poissons Ratio (x) = 0.07790 0.30334
# Poissons Ratio (y) = 0.18145 0.47585
# Poissons Ratio (z) = 0.39724 0.26755
#
# Static dielectric constant tensor:
#      x y z
#    x 1.649540 0.000000 -0.013320 
#    y 0.000000 1.609240 0.000000 
#    z -0.013320 0.000000 1.658460 
# 
# From -- ./inp_files/58405.got.cif
#   From: 2010.05.17/outbox.cif.g08.bks.cpg/sg15_30_cif.got.tgz:58405.got - 2010.06.03 18:47:42.
