data_PCOD9259522
_publ_section_title
;
Structure prediction by ZEFSAII (Michael W. Deem and Ramdas Pophale) SiO2 
 PCOD9259522
Probable space group: C 2/C
;
_chemical_formula_sum "Si O2"
_cell_formula_units_Z 40
_cell_length_a 11.364740
_cell_length_b 15.485800
_cell_length_c 10.067945
_cell_angle_alpha 90.000000
_cell_angle_beta 96.071157
_cell_angle_gamma 90.000000
_cell_volume 1761.940775
_symmetry_space_group_name_H-M "C 2/C"
_symmetry_group_IT_number 15
_symmetry_cell_setting 'monoclinic'
loop_
_space_group_symop_operation_xyz
x,y,z
-x,y,1/2-z
-x,-y,-z
x,-y,1/2+z
1/2+x,1/2+y,z
1/2-x,1/2+y,1/2-z
1/2-x,1/2-y,-z
1/2+x,1/2-y,1/2+z
loop_
_atom_site_type_symbol
_atom_site_label
_atom_site_fract_x
_atom_site_fract_y
_atom_site_fract_z
Si Si1 0.840365 0.170780 0.490638
Si Si2 0.926672 0.245683 0.936296
Si Si3 0.301481 0.672912 0.185752
Si Si4 0.521148 0.902246 0.391828
Si Si5 0.795694 0.497725 0.947667
O O1 0.750000 0.250000 0.500000
O O2 0.863976 0.173156 0.334827
O O3 0.780355 0.080650 0.523580
O O4 0.963231 0.185234 0.583138
O O5 0.868033 0.209860 0.064939
O O6 0.984710 0.336721 0.986942
O O7 0.820556 0.270261 0.824650
O O8 0.269204 0.574325 0.145946
O O9 0.500000 0.855921 0.250000
O O10 0.415147 0.969952 0.390070
O O11 0.648970 0.947204 0.418650
#
# Coordination Sequence:
#
# PCOD9259522 Si02
#       5
#     8   8   8   8   8
#     4  12  23  40  66  98 127 162 215 264 315 368
#     4  10  22  41  65  91 123 171 209 252 316 378
#     4  10  23  43  64  91 130 165 209 260 313 383
#     4  10  18  35  59  85 120 164 213 254 303 368
#     4  10  22  36  58  94 122 162 208 262 315 361
#
# _framework density 22.702238999999999
#
# number of rings (size 3 to 8) (size 9 to 14) (size 15 to 20)
#    0.000    1.600    2.000    3.000    0.000    1.600 
#    3.600    0.000    0.000    0.000    0.000    0.000 
#    0.000    0.000    0.000    0.000    0.000    0.000 
#
# Total GULP energy -111729.335923 kJ/mol
# GULP energy per Si atom -5586.466796 kJ/mol
# Density = 2.265057 g / cm^3
# Si number density = 22.702239 Si / 1000 Ang^3
#
#
#
# Elastic Constant Matrix: (Units=GPa)
#
#
# Indices 1 2 3 4 5 6 
#
# 1 82.5098 36.3277 7.4400 0.0000 19.6334 0.0000
# 2 36.3277 108.8892 2.7147 0.0000 4.8856 0.0000
# 3 7.4400 2.7147 57.7911 0.0000 10.5606 0.0000
# 4 0.0000 0.0000 0.0000 18.2442 0.0000 -0.0819
# 5 19.6334 4.8856 10.5606 0.0000 25.7509 0.0000
# 6 0.0000 0.0000 0.0000 -0.0819 0.0000 51.8233
#
#
#
# Elastic Compliance Matrix: (Units=1/GPa)
#
#
# Indices 1 2 3 4 5 6 
#
# 1 0.017336 -0.005237 0.000268 0.000000 -0.012334 0.000000
# 2 -0.005237 0.010845 -0.000204 0.000000 0.002019 0.000000
# 3 0.000268 -0.000204 0.018711 0.000000 -0.007839 0.000000
# 4 0.000000 0.000000 0.000000 0.054812 0.000000 0.000087
# 5 -0.012334 0.002019 -0.007839 0.000000 0.051070 0.000000
# 6 0.000000 0.000000 0.000000 0.000087 0.000000 0.019296
#
#
# Mechanical properties :
#
#
# Convention : Reuss Voigt Hill
#
# Bulk Modulus (GPa) = 27.36228 38.01722 32.68975
# Shear Modulus (GPa) = 25.69372 32.67751 29.18562
#
# Velocity S-wave (km/s) = 3.36783 3.79805 3.58939
# Velocity P-wave (km/s) = 5.21554 6.00133 5.62218
#
# Compressibility (1/GPa) = 0.03654666
#
# Stress axis : x y z
#
# Youngs Moduli (GPa) = 57.68233 92.20556 53.44357
#
# Poissons Ratio (x) = 0.48288 -0.01433
# Poissons Ratio (y) = 0.30208 0.01091
# Poissons Ratio (z) = -0.01546 0.01883
#
# Static dielectric constant tensor:
#      x y z
#    x 1.879340 0.000000 -0.023250 
#    y 0.000000 1.852800 0.000000 
#    z -0.023250 0.000000 1.881170 
# 
# From -- ./inp_files/85613.got.cif
#   From: 2010.05.17/outbox.cif.g08.bks.cpg/sg15_43_cif.got.tgz:85613.got - 2010.06.03 18:47:42.
