data_PCOD9259913
_publ_section_title
;
Structure prediction by ZEFSAII (Michael W. Deem and Ramdas Pophale) SiO2 
 PCOD9259913
Probable space group: C 2/C
;
_chemical_formula_sum "Si O2"
_cell_formula_units_Z 56
_cell_length_a 9.030605
_cell_length_b 28.365451
_cell_length_c 12.449059
_cell_angle_alpha 90.000000
_cell_angle_beta 56.928556
_cell_angle_gamma 90.000000
_cell_volume 2672.282141
_symmetry_space_group_name_H-M "C 2/C"
_symmetry_group_IT_number 15
_symmetry_cell_setting 'monoclinic'
loop_
_space_group_symop_operation_xyz
x,y,z
-x,y,1/2-z
-x,-y,-z
x,-y,1/2+z
1/2+x,1/2+y,z
1/2-x,1/2+y,1/2-z
1/2-x,1/2-y,-z
1/2+x,1/2-y,1/2+z
loop_
_atom_site_type_symbol
_atom_site_label
_atom_site_fract_x
_atom_site_fract_y
_atom_site_fract_z
Si Si1 0.693705 0.044862 0.118617
Si Si2 0.153348 0.392839 0.429311
Si Si3 0.802798 0.442274 0.478896
Si Si4 0.284502 0.135847 0.820497
Si Si5 0.209782 0.257015 0.141050
Si Si6 0.068620 0.673421 0.343570
Si Si7 0.158735 0.911610 0.745691
O O1 0.500000 0.053988 0.250000
O O2 0.842610 0.058603 0.145694
O O3 0.693462 0.990429 0.086595
O O4 0.720727 0.076939 0.002897
O O5 0.264985 0.381062 0.279376
O O6 0.995125 0.424457 0.441192
O O7 0.077504 0.344298 0.511782
O O8 0.724449 0.400290 0.436498
O O9 0.705862 0.447386 0.630680
O O10 0.500000 0.135922 0.750000
O O11 0.230912 0.189674 0.856346
O O12 0.323814 0.218496 0.159316
O O13 0.000000 0.252498 0.250000
O O14 0.250000 0.250000 0.000000
O O15 0.196744 0.628210 0.291694
O O16 0.000000 0.680346 0.250000
O O17 0.000000 0.884862 0.750000
#
# Coordination Sequence:
#
# PCOD9259913 Si02
#       7
#     8   8   8   8   8   8   8
#     4  12  20  35  63  92 115 161 214 264 316 376
#     4  10  18  36  58  90 124 154 203 275 314 367
#     4  10  21  33  61  88 120 159 211 258 313 379
#     4   9  19  35  56  90 125 158 202 263 315 381
#     4  11  22  40  67  95 130 180 221 264 337 398
#     4  11  20  39  64  93 120 161 219 276 314 384
#     4  11  23  39  57  85 124 164 212 257 325 391
#
# _framework density 20.955870999999998
#
# number of rings (size 3 to 8) (size 9 to 14) (size 15 to 20)
#    0.000    1.429    4.286    5.571    2.000    0.571 
#    0.000    2.857    3.143    0.000    0.000    0.000 
#    0.000    0.000    0.000    0.000    0.000    0.000 
#
# Total GULP energy -156228.805699 kJ/mol
# GULP energy per Si atom -5579.600204 kJ/mol
# Density = 2.090817 g / cm^3
# Si number density = 20.955871 Si / 1000 Ang^3
#
#
#
# Elastic Constant Matrix: (Units=GPa)
#
#
# Indices 1 2 3 4 5 6 
#
# 1 82.9679 49.9076 51.5433 0.0000 39.6451 0.0000
# 2 49.9076 138.4353 61.8662 0.0000 34.7917 0.0000
# 3 51.5433 61.8662 125.3601 0.0000 47.7099 0.0000
# 4 0.0000 0.0000 0.0000 20.8643 0.0000 11.2286
# 5 39.6451 34.7917 47.7099 0.0000 39.4720 0.0000
# 6 0.0000 0.0000 0.0000 11.2286 0.0000 20.5165
#
#
#
# Elastic Compliance Matrix: (Units=1/GPa)
#
#
# Indices 1 2 3 4 5 6 
#
# 1 0.024355 -0.003321 -0.000332 0.000000 -0.021134 0.000000
# 2 -0.003321 0.010260 -0.002825 0.000000 -0.002293 0.000000
# 3 -0.000332 -0.002825 0.015617 0.000000 -0.016053 0.000000
# 4 0.000000 0.000000 0.000000 0.067940 0.000000 -0.037183
# 5 -0.021134 -0.002293 -0.016053 0.000000 0.067985 0.000000
# 6 0.000000 0.000000 0.000000 -0.037183 0.000000 0.069091
#
#
# Mechanical properties :
#
#
# Convention : Reuss Voigt Hill
#
# Bulk Modulus (GPa) = 26.82669 74.82194 50.82431
# Shear Modulus (GPa) = 17.81713 28.40032 23.10873
#
# Velocity S-wave (km/s) = 2.91902 3.68536 3.32434
# Velocity P-wave (km/s) = 4.91835 7.34106 6.24826
#
# Compressibility (1/GPa) = 0.03727632
#
# Stress axis : x y z
#
# Youngs Moduli (GPa) = 41.05948 97.47000 64.03172
#
# Poissons Ratio (x) = 0.32365 0.02126
# Poissons Ratio (y) = 0.13634 0.18090
# Poissons Ratio (z) = 0.01363 0.27537
#
# Static dielectric constant tensor:
#      x y z
#    x 1.865270 0.000000 -0.080350 
#    y 0.000000 1.711240 0.000000 
#    z -0.080350 0.000000 1.826200 
# 
# From -- ./inp_files/81288.got.cif
#   From: 2010.05.17/outbox.cif.g08.bks.cpg/sg15_41_cif.got.tgz:81288.got - 2010.06.03 18:47:42.
