data_PCOD9259927
_publ_section_title
;
Structure prediction by ZEFSAII (Michael W. Deem and Ramdas Pophale) SiO2 
 PCOD9259927
Probable space group: C 2/C
;
_chemical_formula_sum "Si O2"
_cell_formula_units_Z 64
_cell_length_a 21.872428
_cell_length_b 8.257560
_cell_length_c 17.114672
_cell_angle_alpha 90.000000
_cell_angle_beta 80.176250
_cell_angle_gamma 90.000000
_cell_volume 3045.805870
_symmetry_space_group_name_H-M "C 2/C"
_symmetry_group_IT_number 15
_symmetry_cell_setting 'monoclinic'
loop_
_space_group_symop_operation_xyz
x,y,z
-x,y,1/2-z
-x,-y,-z
x,-y,1/2+z
1/2+x,1/2+y,z
1/2-x,1/2+y,1/2-z
1/2-x,1/2-y,-z
1/2+x,1/2-y,1/2+z
loop_
_atom_site_type_symbol
_atom_site_label
_atom_site_fract_x
_atom_site_fract_y
_atom_site_fract_z
Si Si1 0.969497 0.074098 0.388691
Si Si2 0.759729 0.265271 0.725293
Si Si3 0.702426 0.099712 0.526233
Si Si4 0.041710 0.616636 0.810291
Si Si5 0.585307 0.557625 0.926732
Si Si6 0.634439 0.912795 0.885249
Si Si7 0.134038 0.208622 0.172964
Si Si8 0.714973 0.570395 0.371742
O O1 0.942344 0.049328 0.480665
O O2 0.910717 0.063303 0.344454
O O3 0.997695 0.251158 0.361894
O O4 0.030980 0.965205 0.375008
O O5 0.818116 0.380088 0.695905
O O6 0.701167 0.335649 0.690377
O O7 0.739289 0.275941 0.819122
O O8 0.773106 0.088575 0.686501
O O9 0.750000 0.250000 0.500000
O O10 0.671592 0.032025 0.454196
O O11 0.649846 0.173285 0.596065
O O12 0.743845 0.967997 0.561920
O O13 0.075538 0.510166 0.867672
O O14 0.096910 0.703086 0.750046
O O15 0.000000 0.536968 0.750000
O O16 0.613219 0.734007 0.913592
O O17 0.641622 0.431450 0.903877
#
# Coordination Sequence:
#
# PCOD9259927 Si02
#       8
#     8   8   8   8   8   8   8   8
#     4  10  20  37  58  81 111 152 197 232 280 339
#     4  10  20  33  60  85 115 142 185 237 290 343
#     4  11  17  34  60  86 109 149 191 233 284 347
#     4  10  23  39  57  83 117 155 191 234 288 348
#     4  10  20  34  59  84 110 148 192 240 277 330
#     4  11  20  36  60  88 113 145 191 242 287 337
#     4  10  18  36  59  82 111 153 193 229 286 352
#     4  10  20  35  58  87 114 147 189 235 289 344
#
# _framework density 21.012501
#
# number of rings (size 3 to 8) (size 9 to 14) (size 15 to 20)
#    0.000    1.750    5.000    2.250    0.000    0.500 
#    0.000    4.375    5.500    2.250    0.000    0.000 
#    0.000    0.000    0.000    0.000    0.000    0.000 
#
# Total GULP energy -178477.063478 kJ/mol
# GULP energy per Si atom -5577.408234 kJ/mol
# Density = 2.096468 g / cm^3
# Si number density = 21.012501 Si / 1000 Ang^3
#
#
#
# Elastic Constant Matrix: (Units=GPa)
#
#
# Indices 1 2 3 4 5 6 
#
# 1 89.7103 2.0761 13.6422 0.0000 -5.2996 0.0000
# 2 2.0761 3.1301 0.6338 0.0000 4.3457 0.0000
# 3 13.6422 0.6338 69.3892 0.0000 -4.4636 0.0000
# 4 0.0000 0.0000 0.0000 23.8098 0.0000 0.7821
# 5 -5.2996 4.3457 -4.4636 0.0000 40.4616 0.0000
# 6 0.0000 0.0000 0.0000 0.7821 0.0000 25.3578
#
#
#
# Elastic Compliance Matrix: (Units=1/GPa)
#
#
# Indices 1 2 3 4 5 6 
#
# 1 0.011862 -0.010916 -0.002072 0.000000 0.002498 0.000000
# 2 -0.010916 0.388062 -0.004201 0.000000 -0.043572 0.000000
# 3 -0.002072 -0.004201 0.014975 0.000000 0.001832 0.000000
# 4 0.000000 0.000000 0.000000 0.042042 0.000000 -0.001297
# 5 0.002498 -0.043572 0.001832 0.000000 0.029924 0.000000
# 6 0.000000 0.000000 0.000000 -0.001297 0.000000 0.039476
#
#
# Mechanical properties :
#
#
# Convention : Reuss Voigt Hill
#
# Bulk Modulus (GPa) = 2.62797 21.65931 12.14364
# Shear Modulus (GPa) = 7.27211 27.65101 17.46156
#
# Velocity S-wave (km/s) = 1.86235 3.63151 2.88585
# Velocity P-wave (km/s) = 2.42443 5.28337 4.11047
#
# Compressibility (1/GPa) = 0.38052139
#
# Stress axis : x y z
#
# Youngs Moduli (GPa) = 84.30140 2.57691 66.77796
#
# Poissons Ratio (x) = 0.02813 0.13835
# Poissons Ratio (y) = 0.92022 0.28055
# Poissons Ratio (z) = 0.17465 0.01083
#
# Static dielectric constant tensor:
#      x y z
#    x 1.803520 0.000000 0.019740 
#    y 0.000000 1.756490 0.000000 
#    z 0.019740 0.000000 1.807830 
# 
# From -- ./inp_files/218246.got.cif
#   From: 2010.05.17/outbox.cif.g08.bks.cpg/sg15_110_cif.got.tgz:218246.got - 2010.06.03 18:47:42.
