data_PCOD9259000
_publ_section_title
;
Structure prediction by ZEFSAII (Michael W. Deem and Ramdas Pophale) SiO2 
 PCOD9259000
Probable space group: C 2/C
;
_chemical_formula_sum "Si O2"
_cell_formula_units_Z 56
_cell_length_a 9.170478
_cell_length_b 15.552722
_cell_length_c 28.010382
_cell_angle_alpha 90.000000
_cell_angle_beta 132.102920
_cell_angle_gamma 90.000000
_cell_volume 2964.061286
_symmetry_space_group_name_H-M "C 2/C"
_symmetry_group_IT_number 15
_symmetry_cell_setting 'monoclinic'
loop_
_space_group_symop_operation_xyz
x,y,z
-x,y,1/2-z
-x,-y,-z
x,-y,1/2+z
1/2+x,1/2+y,z
1/2-x,1/2+y,1/2-z
1/2-x,1/2-y,-z
1/2+x,1/2-y,1/2+z
loop_
_atom_site_type_symbol
_atom_site_label
_atom_site_fract_x
_atom_site_fract_y
_atom_site_fract_z
Si Si1 0.508906 0.952979 0.125294
Si Si2 0.829781 0.476915 0.926892
Si Si3 0.419117 0.811348 0.881847
Si Si4 0.818134 0.128511 0.900846
Si Si5 0.193857 0.893721 0.551878
Si Si6 0.299648 0.425169 0.737593
Si Si7 0.398585 0.457877 0.866785
O O1 0.386757 0.871477 0.115039
O O2 0.648463 0.952147 0.110057
O O3 0.332559 0.021732 0.074663
O O4 0.648599 0.996304 0.195300
O O5 0.858433 0.384266 0.907584
O O6 0.627141 0.477516 0.909827
O O7 0.000000 0.500000 0.000000
O O8 0.355109 0.718236 0.883837
O O9 0.653565 0.817927 0.926214
O O10 0.310823 0.843815 0.810097
O O11 0.802128 0.049102 0.860295
O O12 0.003162 0.108841 0.976566
O O13 0.136271 0.897895 0.594917
O O14 0.500000 0.436944 0.750000
O O15 0.334569 0.420618 0.801613
#
# Coordination Sequence:
#
# PCOD9259000 Si02
#       7
#     8   8   8   8   8   8   8
#     4   9  19  34  56  85 112 154 198 241 283 372
#     4  10  18  34  58  83 109 157 198 232 293 357
#     4  10  22  38  58  83 122 160 185 252 303 346
#     4  11  21  37  58  93 118 148 195 254 306 344
#     4   9  19  35  58  87 122 150 194 233 299 375
#     4  10  19  40  60  77 115 157 208 235 296 367
#     4  11  19  35  65  82 110 162 197 247 290 353
#
# _framework density 18.892997000000001
#
# number of rings (size 3 to 8) (size 9 to 14) (size 15 to 20)
#    0.000    2.286    2.857    4.714    0.000    5.143 
#    2.571    4.286    3.143    0.000    0.000    0.000 
#    0.000    0.000    0.000    0.000    0.000    0.000 
#
# Total GULP energy -156021.510650 kJ/mol
# GULP energy per Si atom -5572.196809 kJ/mol
# Density = 1.885000 g / cm^3
# Si number density = 18.892997 Si / 1000 Ang^3
#
#
#
# Elastic Constant Matrix: (Units=GPa)
#
#
# Indices 1 2 3 4 5 6 
#
# 1 99.3136 20.1495 -0.1576 0.0000 0.5081 0.0000
# 2 20.1495 55.4428 9.4009 0.0000 -10.9971 0.0000
# 3 -0.1576 9.4009 88.1424 0.0000 -9.7975 0.0000
# 4 0.0000 0.0000 0.0000 7.9140 0.0000 2.6586
# 5 0.5081 -10.9971 -9.7975 0.0000 38.4591 0.0000
# 6 0.0000 0.0000 0.0000 2.6586 0.0000 33.0906
#
#
#
# Elastic Compliance Matrix: (Units=1/GPa)
#
#
# Indices 1 2 3 4 5 6 
#
# 1 0.010947 -0.004290 0.000334 0.000000 -0.001286 0.000000
# 2 -0.004290 0.020990 -0.001619 0.000000 0.005646 0.000000
# 3 0.000334 -0.001619 0.011801 0.000000 0.002539 0.000000
# 4 0.000000 0.000000 0.000000 0.129864 0.000000 -0.010434
# 5 -0.001286 0.005646 0.002539 0.000000 0.028280 0.000000
# 6 0.000000 0.000000 0.000000 -0.010434 0.000000 0.031058
#
#
# Mechanical properties :
#
#
# Convention : Reuss Voigt Hill
#
# Bulk Modulus (GPa) = 30.68602 33.52049 32.10326
# Shear Modulus (GPa) = 19.61154 30.12646 24.86900
#
# Velocity S-wave (km/s) = 3.22535 3.99756 3.63203
# Velocity P-wave (km/s) = 5.49070 6.25204 5.88370
#
# Compressibility (1/GPa) = 0.03258813
#
# Stress axis : x y z
#
# Youngs Moduli (GPa) = 91.35230 47.64132 84.74039
#
# Poissons Ratio (x) = 0.20439 -0.02832
# Poissons Ratio (y) = 0.39191 0.13718
# Poissons Ratio (z) = -0.03053 0.07712
#
# Static dielectric constant tensor:
#      x y z
#    x 1.709610 0.000000 -0.002920 
#    y 0.000000 1.660860 0.000000 
#    z -0.002920 0.000000 1.688690 
# 
# From -- ./inp_files/289455.got.cif
#   From: 2010.05.17/outbox.cif.g08.bks.cpg/sg15_145_cif.got.tgz:289455.got - 2010.06.03 18:47:42.
