data_PCOD9259129
_publ_section_title
;
Structure prediction by ZEFSAII (Michael W. Deem and Ramdas Pophale) SiO2 
 PCOD9259129
Probable space group: C 2/C
;
_chemical_formula_sum "Si O2"
_cell_formula_units_Z 44
_cell_length_a 15.304086
_cell_length_b 17.318089
_cell_length_c 12.454992
_cell_angle_alpha 90.000000
_cell_angle_beta 139.219201
_cell_angle_gamma 90.000000
_cell_volume 2156.130159
_symmetry_space_group_name_H-M "C 2/C"
_symmetry_group_IT_number 15
_symmetry_cell_setting 'monoclinic'
loop_
_space_group_symop_operation_xyz
x,y,z
-x,y,1/2-z
-x,-y,-z
x,-y,1/2+z
1/2+x,1/2+y,z
1/2-x,1/2+y,1/2-z
1/2-x,1/2-y,-z
1/2+x,1/2-y,1/2+z
loop_
_atom_site_type_symbol
_atom_site_label
_atom_site_fract_x
_atom_site_fract_y
_atom_site_fract_z
Si Si1 0.888470 0.960597 0.470965
Si Si2 0.011352 0.206066 0.136892
Si Si3 0.500000 0.563194 0.750000
Si Si4 0.650129 0.180400 0.377288
Si Si5 0.768324 0.884393 0.178569
Si Si6 0.794681 0.715532 0.299526
O O1 0.936125 0.875185 0.548752
O O2 0.766822 0.946130 0.274041
O O3 0.000000 0.000000 0.500000
O O4 0.894432 0.011008 0.584675
O O5 0.000000 0.228383 0.250000
O O6 0.165260 0.192464 0.247170
O O7 0.931337 0.269199 0.991632
O O8 0.585724 0.610511 0.743501
O O9 0.500000 0.209322 0.250000
O O10 0.750000 0.250000 0.500000
O O11 0.669679 0.114495 0.485277
O O12 0.682130 0.162241 0.283218
O O13 0.755785 0.800538 0.219290
#
# Coordination Sequence:
#
# PCOD9259129 Si02
#       6
#     8   8   4   8   8   8
#     4   9  19  34  55  85 115 149 200 246 290 338
#     4  11  21  37  54  84 118 154 192 239 295 361
#     4  10  18  34  60  88 110 158 202 256 282 348
#     4  10  20  33  54  85 120 152 188 239 302 354
#     4   9  20  31  55  83 120 141 193 242 300 341
#     4  10  21  32  54  82 119 150 188 237 300 351
#
# _framework density 20.406931
#
# number of rings (size 3 to 8) (size 9 to 14) (size 15 to 20)
#    0.000    2.182    0.909    2.727   12.727    0.000 
#    0.000    0.000    0.000    1.091   14.182    0.000 
#    0.000    0.000    0.000    0.000    0.000    0.000 
#
# Total GULP energy -122497.801053 kJ/mol
# GULP energy per Si atom -5568.081866 kJ/mol
# Density = 2.036048 g / cm^3
# Si number density = 20.406931 Si / 1000 Ang^3
#
#
#
# Elastic Constant Matrix: (Units=GPa)
#
#
# Indices 1 2 3 4 5 6 
#
# 1 82.8581 -3.0515 35.0172 0.0000 -5.6918 0.0000
# 2 -3.0515 21.6541 14.7107 0.0000 -6.8782 0.0000
# 3 35.0172 14.7107 117.9895 0.0000 -17.2901 0.0000
# 4 0.0000 0.0000 0.0000 17.9123 0.0000 -7.6041
# 5 -5.6918 -6.8782 -17.2901 0.0000 44.2904 0.0000
# 6 0.0000 0.0000 0.0000 -7.6041 0.0000 16.9829
#
#
#
# Elastic Compliance Matrix: (Units=1/GPa)
#
#
# Indices 1 2 3 4 5 6 
#
# 1 0.014377 0.005577 -0.004841 0.000000 0.000824 0.000000
# 2 0.005577 0.054014 -0.007483 0.000000 0.006184 0.000000
# 3 -0.004841 -0.007483 0.011226 0.000000 0.002598 0.000000
# 4 0.000000 0.000000 0.000000 0.068930 0.000000 0.030863
# 5 0.000824 0.006184 0.002598 0.000000 0.024659 0.000000
# 6 0.000000 0.000000 0.000000 0.030863 0.000000 0.072702
#
#
# Mechanical properties :
#
#
# Convention : Reuss Voigt Hill
#
# Bulk Modulus (GPa) = 15.12380 35.09495 25.10937
# Shear Modulus (GPa) = 17.76555 27.55881 22.66218
#
# Velocity S-wave (km/s) = 2.95373 3.67885 3.33605
# Velocity P-wave (km/s) = 4.36577 5.93971 5.21249
#
# Compressibility (1/GPa) = 0.06612096
#
# Stress axis : x y z
#
# Youngs Moduli (GPa) = 69.55640 18.51355 89.07980
#
# Poissons Ratio (x) = -0.10324 0.43127
# Poissons Ratio (y) = -0.38789 0.66661
# Poissons Ratio (z) = 0.33675 0.13854
#
# Static dielectric constant tensor:
#      x y z
#    x 1.712740 0.000000 -0.055620 
#    y 0.000000 1.770890 0.000000 
#    z -0.055620 0.000000 1.831680 
# 
# From -- ./inp_files/49587.got.cif
#   From: 2010.05.17/outbox.cif.g08.bks.cpg/sg15_25_cif.got.tgz:49587.got - 2010.06.03 18:47:42.
