data_PCOD9259546
_publ_section_title
;
Structure prediction by ZEFSAII (Michael W. Deem and Ramdas Pophale) SiO2 
 PCOD9259546
Probable space group: C 2/C
;
_chemical_formula_sum "Si O2"
_cell_formula_units_Z 32
_cell_length_a 28.595226
_cell_length_b 7.115914
_cell_length_c 19.597135
_cell_angle_alpha 90.000000
_cell_angle_beta 25.111976
_cell_angle_gamma 90.000000
_cell_volume 1692.312709
_symmetry_space_group_name_H-M "C 2/C"
_symmetry_group_IT_number 15
_symmetry_cell_setting 'monoclinic'
loop_
_space_group_symop_operation_xyz
x,y,z
-x,y,1/2-z
-x,-y,-z
x,-y,1/2+z
1/2+x,1/2+y,z
1/2-x,1/2+y,1/2-z
1/2-x,1/2-y,-z
1/2+x,1/2-y,1/2+z
loop_
_atom_site_type_symbol
_atom_site_label
_atom_site_fract_x
_atom_site_fract_y
_atom_site_fract_z
Si Si1 0.974237 0.166018 0.481183
Si Si2 0.597004 0.518674 0.567807
Si Si3 0.705355 0.227040 0.710869
Si Si4 0.763384 0.347378 0.173817
O O1 0.085456 0.285778 0.335049
O O2 0.948690 0.074698 0.441670
O O3 0.858504 0.247034 0.661151
O O4 0.000000 0.000000 0.500000
O O5 0.500000 0.528939 0.750000
O O6 0.699556 0.386596 0.453233
O O7 0.650509 0.720209 0.480157
O O8 0.744428 0.444579 0.668855
O O9 0.699028 0.150156 0.796913
#
# Coordination Sequence:
#
# PCOD9259546 Si02
#       4
#     8   8   8   8
#     4   9  18  36  60  80 109 142 189 233 254 333
#     4  11  23  37  54  85 118 142 180 232 279 321
#     4  10  19  37  59  82 109 144 191 224 269 326
#     4  10  18  35  60  83 104 149 184 229 267 326
#
# _framework density 18.909034999999999
#
# number of rings (size 3 to 8) (size 9 to 14) (size 15 to 20)
#    0.000    2.000    7.500    0.000    0.000    3.000 
#    0.000    5.000    0.000    0.000    0.000    0.000 
#    0.000    0.000    0.000    0.000    0.000    0.000 
#
# Total GULP energy -89186.703653 kJ/mol
# GULP energy per Si atom -5574.168978 kJ/mol
# Density = 1.886600 g / cm^3
# Si number density = 18.909035 Si / 1000 Ang^3
#
#
#
# Elastic Constant Matrix: (Units=GPa)
#
#
# Indices 1 2 3 4 5 6 
#
# 1 31.2468 -13.2882 17.2256 -0.0008 -6.3506 0.0026
# 2 -13.2882 68.4137 26.1496 0.0031 11.3274 -0.0002
# 3 17.2256 26.1496 127.3954 0.0009 28.2431 0.0037
# 4 -0.0008 0.0031 0.0009 40.5909 0.0010 -6.3398
# 5 -6.3506 11.3274 28.2431 0.0010 28.9550 -0.0003
# 6 0.0026 -0.0002 0.0037 -6.3398 -0.0003 16.6607
#
#
#
# Elastic Compliance Matrix: (Units=1/GPa)
#
#
# Indices 1 2 3 4 5 6 
#
# 1 0.047563 0.011059 -0.012829 -0.000001 0.018619 -0.000004
# 2 0.011059 0.018779 -0.005434 -0.000001 0.000379 -0.000001
# 3 -0.012829 -0.005434 0.013846 0.000000 -0.014194 -0.000001
# 4 -0.000001 -0.000001 0.000000 0.026193 -0.000001 0.009967
# 5 0.018619 0.000379 -0.014194 -0.000001 0.052316 0.000001
# 6 -0.000004 -0.000001 -0.000001 0.009967 0.000001 0.063814
#
#
# Mechanical properties :
#
#
# Convention : Reuss Voigt Hill
#
# Bulk Modulus (GPa) = 15.20215 31.91444 23.55829
# Shear Modulus (GPa) = 19.31649 30.37256 24.84452
#
# Velocity S-wave (km/s) = 3.19963 4.01215 3.62870
# Velocity P-wave (km/s) = 4.65911 6.19497 5.48110
#
# Compressibility (1/GPa) = 0.06578015
#
# Stress axis : x y z
#
# Youngs Moduli (GPa) = 21.02494 53.25031 72.22120
#
# Poissons Ratio (x) = -0.58889 0.92651
# Poissons Ratio (y) = -0.23251 0.39246
# Poissons Ratio (z) = 0.26973 0.28937
#
# Static dielectric constant tensor:
#      x y z
#    x 1.657520 0.000010 -0.055780 
#    y 0.000010 1.698960 -0.000010 
#    z -0.055780 -0.000010 1.692890 
# 
# From -- ./inp_files/102151.got.cif
#   From: 2010.05.17/outbox.cif.g08.bks.cpg/sg15_52_cif.got.tgz:102151.got - 2010.06.03 18:47:42.
