data_PCOD9259548
_publ_section_title
;
Structure prediction by ZEFSAII (Michael W. Deem and Ramdas Pophale) SiO2 
 PCOD9259548
Probable space group: C 2/C
;
_chemical_formula_sum "Si O2"
_cell_formula_units_Z 64
_cell_length_a 13.533452
_cell_length_b 15.612344
_cell_length_c 13.748239
_cell_angle_alpha 90.000000
_cell_angle_beta 81.180643
_cell_angle_gamma 90.000000
_cell_volume 2870.505314
_symmetry_space_group_name_H-M "C 2/C"
_symmetry_group_IT_number 15
_symmetry_cell_setting 'monoclinic'
loop_
_space_group_symop_operation_xyz
x,y,z
-x,y,1/2-z
-x,-y,-z
x,-y,1/2+z
1/2+x,1/2+y,z
1/2-x,1/2+y,1/2-z
1/2-x,1/2-y,-z
1/2+x,1/2-y,1/2+z
loop_
_atom_site_type_symbol
_atom_site_label
_atom_site_fract_x
_atom_site_fract_y
_atom_site_fract_z
Si Si1 0.599301 0.659797 0.347409
Si Si2 0.612354 0.169138 0.361698
Si Si3 0.830067 0.249359 0.355303
Si Si4 0.328809 0.905324 0.845462
Si Si5 0.005420 0.854649 0.356043
Si Si6 0.096546 0.103931 0.036916
Si Si7 0.865982 0.249291 0.968707
Si Si8 0.318424 0.076281 0.965111
O O1 0.608028 0.712352 0.245629
O O2 0.708392 0.614645 0.348774
O O3 0.503451 0.596677 0.380105
O O4 0.586511 0.731633 0.433876
O O5 0.721618 0.211888 0.351725
O O6 0.618575 0.108079 0.266580
O O7 0.547904 0.256368 0.354038
O O8 0.609160 0.110455 0.459413
O O9 0.871791 0.201612 0.444164
O O10 0.818633 0.347545 0.384948
O O11 0.381211 0.835145 0.906722
O O12 0.343868 0.992913 0.899948
O O13 0.060720 0.905737 0.431742
O O14 0.000000 0.890783 0.250000
O O15 0.892818 0.836235 0.405374
O O16 0.205870 0.060424 0.028136
O O17 0.750000 0.250000 0.000000
#
# Coordination Sequence:
#
# PCOD9259548 Si02
#       8
#     8   8   8   8   8   8   8   8
#     4   9  20  34  59  82 114 149 196 240 282 343
#     4  10  19  37  57  82 107 154 201 222 286 344
#     4  10  18  35  60  83 110 149 191 237 279 349
#     4  10  21  36  53  84 117 158 185 232 300 344
#     4  11  18  32  62  79 104 146 199 237 269 338
#     4  10  19  35  57  89 108 148 193 240 289 334
#     4   9  19  34  53  80 110 145 191 231 278 333
#     4  11  21  35  60  84 120 149 190 242 290 350
#
# _framework density 22.295726999999999
#
# number of rings (size 3 to 8) (size 9 to 14) (size 15 to 20)
#    0.000    2.000    3.750    1.125    0.000    1.500 
#    0.000    3.125    5.500    1.500    0.000    0.000 
#    0.000    0.000    0.000    0.000    0.000    0.000 
#
# Total GULP energy -178135.770690 kJ/mol
# GULP energy per Si atom -5566.742834 kJ/mol
# Density = 2.224498 g / cm^3
# Si number density = 22.295727 Si / 1000 Ang^3
#
#
#
# Elastic Constant Matrix: (Units=GPa)
#
#
# Indices 1 2 3 4 5 6 
#
# 1 55.6184 -16.6368 -14.3722 0.0000 -1.7663 0.0000
# 2 -16.6368 66.4565 24.5842 0.0000 13.3555 0.0000
# 3 -14.3722 24.5842 136.8085 0.0000 12.6851 0.0000
# 4 0.0000 0.0000 0.0000 23.4739 0.0000 2.5156
# 5 -1.7663 13.3555 12.6851 0.0000 23.3436 0.0000
# 6 0.0000 0.0000 0.0000 2.5156 0.0000 8.3662
#
#
#
# Elastic Compliance Matrix: (Units=1/GPa)
#
#
# Indices 1 2 3 4 5 6 
#
# 1 0.019719 0.004829 0.001392 0.000000 -0.002027 0.000000
# 2 0.004829 0.018880 -0.002019 0.000000 -0.009339 0.000000
# 3 0.001392 -0.002019 0.008110 0.000000 -0.003147 0.000000
# 4 0.000000 0.000000 0.000000 0.044019 0.000000 -0.013236
# 5 -0.002027 -0.009339 -0.003147 0.000000 0.049738 0.000000
# 6 0.000000 0.000000 0.000000 -0.013236 0.000000 0.123508
#
#
# Mechanical properties :
#
#
# Convention : Reuss Voigt Hill
#
# Bulk Modulus (GPa) = 18.14458 27.33709 22.74084
# Shear Modulus (GPa) = 18.25194 28.72395 23.48794
#
# Velocity S-wave (km/s) = 2.86427 3.59321 3.24925
# Velocity P-wave (km/s) = 4.36973 5.43163 4.92936
#
# Compressibility (1/GPa) = 0.05511288
#
# Stress axis : x y z
#
# Youngs Moduli (GPa) = 50.71138 52.96523 123.29935
#
# Poissons Ratio (x) = -0.25578 -0.17160
# Poissons Ratio (y) = -0.24489 0.24900
# Poissons Ratio (z) = -0.07058 0.10696
#
# Static dielectric constant tensor:
#      x y z
#    x 1.857240 0.000000 -0.087690 
#    y 0.000000 1.820940 0.000000 
#    z -0.087690 0.000000 1.909400 
# 
# From -- ./inp_files/154823.got.cif
#   From: 2010.05.17/outbox.cif.g08.bks.cpg/sg15_78_cif.got.tgz:154823.got - 2010.06.03 18:47:42.
