data_PCOD9259102
_publ_section_title
;
Structure prediction by ZEFSAII (Michael W. Deem and Ramdas Pophale) SiO2 
 PCOD9259102
Probable space group: C 2/C
;
_chemical_formula_sum "Si O2"
_cell_formula_units_Z 56
_cell_length_a 10.166635
_cell_length_b 9.509606
_cell_length_c 24.593028
_cell_angle_alpha 90.000000
_cell_angle_beta 110.169207
_cell_angle_gamma 90.000000
_cell_volume 2231.868557
_symmetry_space_group_name_H-M "C 2/C"
_symmetry_group_IT_number 15
_symmetry_cell_setting 'monoclinic'
loop_
_space_group_symop_operation_xyz
x,y,z
-x,y,1/2-z
-x,-y,-z
x,-y,1/2+z
1/2+x,1/2+y,z
1/2-x,1/2+y,1/2-z
1/2-x,1/2-y,-z
1/2+x,1/2-y,1/2+z
loop_
_atom_site_type_symbol
_atom_site_label
_atom_site_fract_x
_atom_site_fract_y
_atom_site_fract_z
Si Si1 0.441419 0.197955 0.612807
Si Si2 0.131490 0.297000 0.232717
Si Si3 0.365651 0.771428 0.694509
Si Si4 0.313252 0.462732 0.636267
Si Si5 0.688634 0.684582 0.644818
Si Si6 0.881970 0.628933 0.964381
Si Si7 0.102207 0.301100 0.916225
O O1 0.548155 0.128351 0.671408
O O2 0.434968 0.364417 0.628331
O O3 0.284019 0.150171 0.605785
O O4 0.499597 0.175309 0.561342
O O5 0.231185 0.197488 0.211539
O O6 0.237589 0.374822 0.289976
O O7 0.000000 0.242042 0.250000
O O8 0.500000 0.785091 0.750000
O O9 0.350620 0.606277 0.672805
O O10 0.387143 0.859260 0.643019
O O11 0.208999 0.501995 0.572463
O O12 0.227077 0.350705 0.659839
O O13 0.524334 0.685662 0.608059
O O14 0.760678 0.747322 0.946118
O O15 0.929645 0.614744 0.033362
#
# Coordination Sequence:
#
# PCOD9259102 Si02
#       7
#     8   8   8   8   8   8   8
#     4   9  19  36  58  81 115 157 188 241 297 346
#     4  10  18  34  60  79 111 153 186 234 300 353
#     4  11  20  35  61  83 114 151 193 238 298 353
#     4   9  21  35  59  87 111 156 198 237 291 361
#     4   9  20  34  57  86 114 147 196 236 300 345
#     4  10  20  39  62  77 119 155 200 238 295 354
#     4  10  20  36  58  87 111 155 193 245 296 353
#
# _framework density 25.091080999999999
#
# number of rings (size 3 to 8) (size 9 to 14) (size 15 to 20)
#    0.857    1.429    4.286    0.000    2.000    1.143 
#    0.000    6.429   12.571    0.000    0.000    0.000 
#    0.000    0.000    0.000    0.000    0.000    0.000 
#
# Total GULP energy -155893.160918 kJ/mol
# GULP energy per Si atom -5567.612890 kJ/mol
# Density = 2.503397 g / cm^3
# Si number density = 25.091081 Si / 1000 Ang^3
#
#
#
# Elastic Constant Matrix: (Units=GPa)
#
#
# Indices 1 2 3 4 5 6 
#
# 1 188.4650 -1.0649 74.5992 0.0000 -39.7739 0.0000
# 2 -1.0649 90.2145 24.3050 0.0000 -12.7721 0.0000
# 3 74.5992 24.3050 164.0100 0.0000 -29.1341 0.0000
# 4 0.0000 0.0000 0.0000 8.0691 0.0000 9.8516
# 5 -39.7739 -12.7721 -29.1341 0.0000 38.9406 0.0000
# 6 0.0000 0.0000 0.0000 9.8516 0.0000 14.4305
#
#
#
# Elastic Compliance Matrix: (Units=1/GPa)
#
#
# Indices 1 2 3 4 5 6 
#
# 1 0.007720 0.001714 -0.002612 0.000000 0.006493 0.000000
# 2 0.001714 0.012216 -0.001807 0.000000 0.004405 0.000000
# 3 -0.002612 -0.001807 0.008043 0.000000 0.002757 0.000000
# 4 0.000000 0.000000 0.000000 0.744355 0.000000 -0.508168
# 5 0.006493 0.004405 0.002757 0.000000 0.035819 0.000000
# 6 0.000000 0.000000 0.000000 -0.508168 0.000000 0.416222
#
#
# Mechanical properties :
#
#
# Convention : Reuss Voigt Hill
#
# Bulk Modulus (GPa) = 44.31124 70.92981 57.62052
# Shear Modulus (GPa) = 4.04103 35.27807 19.65955
#
# Velocity S-wave (km/s) = 1.27045 3.75373 2.80219
# Velocity P-wave (km/s) = 4.45540 6.86423 5.78655
#
# Compressibility (1/GPa) = 0.02256764
#
# Stress axis : x y z
#
# Youngs Moduli (GPa) = 129.53534 81.86319 124.33561
#
# Poissons Ratio (x) = -0.14032 0.32476
# Poissons Ratio (y) = -0.22203 0.22472
# Poissons Ratio (z) = 0.33834 0.14796
#
# Static dielectric constant tensor:
#      x y z
#    x 2.013370 0.000000 -0.003960 
#    y 0.000000 2.027160 0.000000 
#    z -0.003960 0.000000 2.018680 
# 
# From -- ./inp_files/288061.got.cif
#   From: 2010.05.17/outbox.cif.g08.bks.cpg/sg15_145_cif.got.tgz:288061.got - 2010.06.03 18:47:42.
