data_PCOD9259009
_publ_section_title
;
Structure prediction by ZEFSAII (Michael W. Deem and Ramdas Pophale) SiO2 
 PCOD9259009
Probable space group: C 2/C
;
_chemical_formula_sum "Si O2"
_cell_formula_units_Z 60
_cell_length_a 11.107781
_cell_length_b 27.564539
_cell_length_c 13.161586
_cell_angle_alpha 90.000000
_cell_angle_beta 53.897143
_cell_angle_gamma 90.000000
_cell_volume 3255.940044
_symmetry_space_group_name_H-M "C 2/C"
_symmetry_group_IT_number 15
_symmetry_cell_setting 'monoclinic'
loop_
_space_group_symop_operation_xyz
x,y,z
-x,y,1/2-z
-x,-y,-z
x,-y,1/2+z
1/2+x,1/2+y,z
1/2-x,1/2+y,1/2-z
1/2-x,1/2-y,-z
1/2+x,1/2-y,1/2+z
loop_
_atom_site_type_symbol
_atom_site_label
_atom_site_fract_x
_atom_site_fract_y
_atom_site_fract_z
Si Si1 0.000000 0.111896 0.250000
Si Si2 0.309016 0.075649 0.010523
Si Si3 0.192707 0.859542 0.841174
Si Si4 0.733618 0.466293 0.343413
Si Si5 0.389101 0.443875 0.479547
Si Si6 0.643904 0.786007 0.614753
Si Si7 0.511445 0.122283 0.419199
Si Si8 0.323091 0.968106 0.073214
O O1 0.861432 0.081922 0.365168
O O2 0.925360 0.139998 0.192100
O O3 0.409293 0.118501 0.008566
O O4 0.362236 0.023345 0.026170
O O5 0.302860 0.069069 0.893308
O O6 0.137584 0.890594 0.963757
O O7 0.246204 0.808370 0.855354
O O8 0.346270 0.883269 0.724363
O O9 0.562056 0.453213 0.409909
O O10 0.714272 0.519877 0.401167
O O11 0.820299 0.463769 0.195388
O O12 0.341285 0.457282 0.390016
O O13 0.500000 0.766593 0.750000
O O14 0.750000 0.750000 0.500000
O O15 0.577585 0.830099 0.575790
O O16 0.411264 0.074385 0.471244
#
# Coordination Sequence:
#
# PCOD9259009 Si02
#       8
#     4   8   8   8   8   8   8   8
#     4  10  18  34  58  84 114 152 200 228 286 342
#     4  10  21  32  53  79 119 165 195 237 279 345
#     4  10  19  37  62  84 108 146 194 241 288 354
#     4  10  20  31  47  78 123 157 195 239 278 326
#     4  10  19  32  51  78 111 160 201 238 277 324
#     4  10  22  44  68  91 115 146 194 254 309 363
#     4  10  21  37  56  82 114 150 192 235 291 351
#     4  11  21  32  50  81 120 161 202 239 280 337
#
# _framework density 18.427858000000001
#
# number of rings (size 3 to 8) (size 9 to 14) (size 15 to 20)
#    0.000    1.867    2.667    2.400    3.733    0.533 
#    2.400    0.000    0.000    8.800    0.000    0.000 
#    0.000    0.000    0.000    0.000    0.000    0.000 
#
# Total GULP energy -167114.065954 kJ/mol
# GULP energy per Si atom -5570.468865 kJ/mol
# Density = 1.838591 g / cm^3
# Si number density = 18.427858 Si / 1000 Ang^3
#
#
#
# Elastic Constant Matrix: (Units=GPa)
#
#
# Indices 1 2 3 4 5 6 
#
# 1 105.5859 39.3030 43.7182 0.0000 7.2597 0.0000
# 2 39.3030 48.3500 42.5361 0.0000 -11.6723 0.0000
# 3 43.7182 42.5361 102.7139 0.0000 9.2385 0.0000
# 4 0.0000 0.0000 0.0000 28.3720 0.0000 -2.0391
# 5 7.2597 -11.6723 9.2385 0.0000 32.4235 0.0000
# 6 0.0000 0.0000 0.0000 -2.0391 0.0000 16.7516
#
#
#
# Elastic Compliance Matrix: (Units=1/GPa)
#
#
# Indices 1 2 3 4 5 6 
#
# 1 0.015602 -0.015399 0.000563 0.000000 -0.009197 0.000000
# 2 -0.015399 0.058428 -0.020366 0.000000 0.030285 0.000000
# 3 0.000563 -0.020366 0.019090 0.000000 -0.012897 0.000000
# 4 0.000000 0.000000 0.000000 0.035557 0.000000 0.004328
# 5 -0.009197 0.030285 -0.012897 0.000000 0.047478 0.000000
# 6 0.000000 0.000000 0.000000 0.004328 0.000000 0.060223
#
#
# Mechanical properties :
#
#
# Convention : Reuss Voigt Hill
#
# Bulk Modulus (GPa) = 44.01898 56.41827 50.21863
# Shear Modulus (GPa) = 15.90567 24.24892 20.07729
#
# Velocity S-wave (km/s) = 2.94110 3.63145 3.30435
# Velocity P-wave (km/s) = 5.95588 6.94733 6.47062
#
# Compressibility (1/GPa) = 0.02271747
#
# Stress axis : x y z
#
# Youngs Moduli (GPa) = 64.09449 17.11505 52.38333
#
# Poissons Ratio (x) = 0.26355 -0.02952
# Poissons Ratio (y) = 0.98697 1.06685
# Poissons Ratio (z) = -0.03612 0.34857
#
# Static dielectric constant tensor:
#      x y z
#    x 1.738930 0.000000 0.010880 
#    y 0.000000 1.619990 0.000000 
#    z 0.010880 0.000000 1.654210 
# 
# From -- ./inp_files/92046.got.cif
#   From: 2010.05.17/outbox.cif.g08.bks.cpg/sg15_47_cif.got.tgz:92046.got - 2010.06.03 18:47:42.
