data_PCOD9259220
_publ_section_title
;
Structure prediction by ZEFSAII (Michael W. Deem and Ramdas Pophale) SiO2 
 PCOD9259220
Probable space group: C 2/C
;
_chemical_formula_sum "Si O2"
_cell_formula_units_Z 56
_cell_length_a 20.363202
_cell_length_b 7.589583
_cell_length_c 18.958099
_cell_angle_alpha 90.000000
_cell_angle_beta 128.616799
_cell_angle_gamma 90.000000
_cell_volume 2289.272282
_symmetry_space_group_name_H-M "C 2/C"
_symmetry_group_IT_number 15
_symmetry_cell_setting 'monoclinic'
loop_
_space_group_symop_operation_xyz
x,y,z
-x,y,1/2-z
-x,-y,-z
x,-y,1/2+z
1/2+x,1/2+y,z
1/2-x,1/2+y,1/2-z
1/2-x,1/2-y,-z
1/2+x,1/2-y,1/2+z
loop_
_atom_site_type_symbol
_atom_site_label
_atom_site_fract_x
_atom_site_fract_y
_atom_site_fract_z
Si Si1 0.282980 0.715275 0.633835
Si Si2 0.205331 0.853567 0.802149
Si Si3 0.626990 0.869942 0.925722
Si Si4 0.039258 0.158365 0.125272
Si Si5 0.812343 0.055116 0.918451
Si Si6 0.478137 0.690638 0.537246
Si Si7 0.877289 0.779482 0.602799
O O1 0.281726 0.563667 0.691503
O O2 0.362884 0.742333 0.635266
O O3 0.206841 0.663847 0.529848
O O4 0.260270 0.911799 0.644224
O O5 0.134096 0.784389 0.701844
O O6 0.287517 0.731070 0.859296
O O7 0.158559 0.837998 0.846767
O O8 0.628940 0.069969 0.904337
O O9 0.547568 0.830302 0.921909
O O10 0.002117 0.248510 0.029111
O O11 0.973696 0.182489 0.144875
O O12 0.041672 0.947561 0.113701
O O13 0.896222 0.936470 0.969176
O O14 0.821794 0.126774 0.004850
#
# Coordination Sequence:
#
# PCOD9259220 Si02
#       7
#     8   8   8   8   8   8   8
#     4  10  19  33  60  92 117 145 194 251 309 339
#     4  12  21  37  60  94 121 152 198 261 309 344
#     4  10  18  34  62  89 113 156 201 244 288 374
#     4  10  23  41  58  82 123 168 197 251 297 366
#     4  10  20  38  62  88 118 155 198 253 295 368
#     4   9  21  43  61  79 118 170 210 231 302 368
#     4  11  20  36  63  89 121 158 200 245 311 363
#
# _framework density 24.461922999999999
#
# number of rings (size 3 to 8) (size 9 to 14) (size 15 to 20)
#    0.000    1.714    2.857    4.286    0.000    0.571 
#    7.714    0.000    0.000    0.000    0.000    0.000 
#    0.000    0.000    0.000    0.000    0.000    0.000 
#
# Total GULP energy -156320.816306 kJ/mol
# GULP energy per Si atom -5582.886297 kJ/mol
# Density = 2.440625 g / cm^3
# Si number density = 24.461923 Si / 1000 Ang^3
#
#
#
# Elastic Constant Matrix: (Units=GPa)
#
#
# Indices 1 2 3 4 5 6 
#
# 1 44.5086 7.4533 -6.6466 0.0000 -6.1846 0.0000
# 2 7.4533 109.7135 4.2176 0.0000 -5.6551 0.0000
# 3 -6.6466 4.2176 42.6137 0.0000 13.3151 0.0000
# 4 0.0000 0.0000 0.0000 12.6489 0.0000 5.2109
# 5 -6.1846 -5.6551 13.3151 0.0000 27.1660 0.0000
# 6 0.0000 0.0000 0.0000 5.2109 0.0000 33.5173
#
#
#
# Elastic Compliance Matrix: (Units=1/GPa)
#
#
# Indices 1 2 3 4 5 6 
#
# 1 0.023641 -0.001514 0.002662 0.000000 0.003762 0.000000
# 2 -0.001514 0.009427 -0.001978 0.000000 0.002587 0.000000
# 3 0.002662 -0.001978 0.028360 0.000000 -0.013706 0.000000
# 4 0.000000 0.000000 0.000000 0.084469 0.000000 -0.013132
# 5 0.003762 0.002587 -0.013706 0.000000 0.044924 0.000000
# 6 0.000000 0.000000 0.000000 -0.013132 0.000000 0.031877
#
#
# Mechanical properties :
#
#
# Convention : Reuss Voigt Hill
#
# Bulk Modulus (GPa) = 16.73137 22.98717 19.85927
# Shear Modulus (GPa) = 20.46826 27.45388 23.96107
#
# Velocity S-wave (km/s) = 2.89578 3.35372 3.13313
# Velocity P-wave (km/s) = 4.24681 4.94107 4.60703
#
# Compressibility (1/GPa) = 0.05976796
#
# Stress axis : x y z
#
# Youngs Moduli (GPa) = 42.29862 106.07953 35.26080
#
# Poissons Ratio (x) = 0.16065 -0.09386
# Poissons Ratio (y) = 0.06406 0.06973
# Poissons Ratio (z) = -0.11259 0.20977
#
# Static dielectric constant tensor:
#      x y z
#    x 2.111170 0.000000 -0.002650 
#    y 0.000000 1.951290 0.000000 
#    z -0.002650 0.000000 1.985820 
# 
# From -- ./inp_files/254891.got.cif
#   From: 2010.05.17/outbox.cif.g08.bks.cpg/sg15_128_cif.got.tgz:254891.got - 2010.06.03 18:47:42.
