data_PCOD9259016
_publ_section_title
;
Structure prediction by ZEFSAII (Michael W. Deem and Ramdas Pophale) SiO2 
 PCOD9259016
Probable space group: C 2/C
;
_chemical_formula_sum "Si O2"
_cell_formula_units_Z 56
_cell_length_a 14.126726
_cell_length_b 24.532868
_cell_length_c 8.724434
_cell_angle_alpha 90.000000
_cell_angle_beta 104.345263
_cell_angle_gamma 90.000000
_cell_volume 2929.343743
_symmetry_space_group_name_H-M "C 2/C"
_symmetry_group_IT_number 15
_symmetry_cell_setting 'monoclinic'
loop_
_space_group_symop_operation_xyz
x,y,z
-x,y,1/2-z
-x,-y,-z
x,-y,1/2+z
1/2+x,1/2+y,z
1/2-x,1/2+y,1/2-z
1/2-x,1/2-y,-z
1/2+x,1/2-y,1/2+z
loop_
_atom_site_type_symbol
_atom_site_label
_atom_site_fract_x
_atom_site_fract_y
_atom_site_fract_z
Si Si1 0.316294 0.387612 0.694541
Si Si2 0.500000 0.328843 0.250000
Si Si3 0.153525 0.696186 0.094541
Si Si4 0.500000 0.309378 0.750000
Si Si5 0.847260 0.099122 0.848935
Si Si6 0.284548 0.800778 0.233417
Si Si7 0.421533 0.484187 0.840721
Si Si8 0.954649 0.260157 0.514236
O O1 0.215904 0.355388 0.679295
O O2 0.403076 0.343764 0.737626
O O3 0.324002 0.408254 0.520329
O O4 0.343531 0.435934 0.821796
O O5 0.553671 0.367449 0.149419
O O6 0.568019 0.286544 0.370539
O O7 0.208476 0.751041 0.175227
O O8 0.164931 0.693473 0.913898
O O9 0.040470 0.698583 0.098134
O O10 0.488860 0.272488 0.597303
O O11 0.766919 0.141419 0.755263
O O12 0.864012 0.040019 0.781479
O O13 0.360599 0.785581 0.396587
O O14 0.500000 0.463079 0.750000
O O15 0.500000 0.500000 0.000000
#
# Coordination Sequence:
#
# PCOD9259016 Si02
#       8
#     8   4   8   4   8   8   8   8
#     4  11  21  35  57  82 113 148 189 232 275 342
#     4  12  24  33  54  84 128 147 182 234 288 346
#     4  10  18  34  58  85 107 148 198 232 271 339
#     4  12  16  31  58  82 106 145 190 220 274 334
#     4  11  22  37  51  83 117 150 182 231 287 336
#     4  10  19  34  58  82 113 150 192 232 278 337
#     4  12  23  36  57  82 112 150 187 232 288 334
#     4  12  21  35  56  87 117 153 185 234 284 338
#
# _framework density 19.116909
#
# number of rings (size 3 to 8) (size 9 to 14) (size 15 to 20)
#    0.000    0.857    8.571    0.857    0.000    0.571 
#    0.000    0.000    0.000    0.857    0.000    0.000 
#    0.000    0.000    0.000    0.000    0.000    0.000 
#
# Total GULP energy -156133.417528 kJ/mol
# GULP energy per Si atom -5576.193483 kJ/mol
# Density = 1.907340 g / cm^3
# Si number density = 19.116909 Si / 1000 Ang^3
#
#
#
# Elastic Constant Matrix: (Units=GPa)
#
#
# Indices 1 2 3 4 5 6 
#
# 1 41.9685 18.4049 9.1049 0.0000 12.1678 0.0000
# 2 18.4049 96.3653 14.6757 0.0000 15.0259 0.0000
# 3 9.1049 14.6757 42.9443 0.0000 15.5151 0.0000
# 4 0.0000 0.0000 0.0000 26.0595 0.0000 11.1737
# 5 12.1678 15.0259 15.5151 0.0000 30.9732 0.0000
# 6 0.0000 0.0000 0.0000 11.1737 0.0000 34.5394
#
#
#
# Elastic Compliance Matrix: (Units=1/GPa)
#
#
# Indices 1 2 3 4 5 6 
#
# 1 0.028315 -0.003842 -0.001642 0.000000 -0.008437 0.000000
# 2 -0.003842 0.011934 -0.002097 0.000000 -0.003230 0.000000
# 3 -0.001642 -0.002097 0.028998 0.000000 -0.012863 0.000000
# 4 0.000000 0.000000 0.000000 0.044554 0.000000 -0.014413
# 5 -0.008437 -0.003230 -0.012863 0.000000 0.043611 0.000000
# 6 0.000000 0.000000 0.000000 -0.014413 0.000000 0.033615
#
#
# Mechanical properties :
#
#
# Convention : Reuss Voigt Hill
#
# Bulk Modulus (GPa) = 18.48956 29.51658 24.00307
# Shear Modulus (GPa) = 22.29982 27.58725 24.94353
#
# Velocity S-wave (km/s) = 3.41911 3.80291 3.61611
# Velocity P-wave (km/s) = 5.02791 5.89546 5.47888
#
# Compressibility (1/GPa) = 0.05408457
#
# Stress axis : x y z
#
# Youngs Moduli (GPa) = 35.31731 83.79460 34.48511
#
# Poissons Ratio (x) = 0.32196 0.05662
# Poissons Ratio (y) = 0.13570 0.07231
# Poissons Ratio (z) = 0.05799 0.17570
#
# Static dielectric constant tensor:
#      x y z
#    x 1.807690 0.000000 0.626930 
#    y 0.000000 1.693850 0.000000 
#    z 0.626930 0.000000 5.287900 
# 
# From -- ./inp_files/42305.got.cif
#   From: 2010.05.17/outbox.cif.g08.bks.cpg/sg15_22_cif.got.tgz:42305.got - 2010.06.03 18:47:42.
