data_PCOD9259366
_publ_section_title
;
Structure prediction by ZEFSAII (Michael W. Deem and Ramdas Pophale) SiO2 
 PCOD9259366
Probable space group: C 2/C
;
_chemical_formula_sum "Si O2"
_cell_formula_units_Z 48
_cell_length_a 6.959832
_cell_length_b 20.836350
_cell_length_c 14.035286
_cell_angle_alpha 90.000000
_cell_angle_beta 103.841706
_cell_angle_gamma 90.000000
_cell_volume 1976.255910
_symmetry_space_group_name_H-M "C 2/C"
_symmetry_group_IT_number 15
_symmetry_cell_setting 'monoclinic'
loop_
_space_group_symop_operation_xyz
x,y,z
-x,y,1/2-z
-x,-y,-z
x,-y,1/2+z
1/2+x,1/2+y,z
1/2-x,1/2+y,1/2-z
1/2-x,1/2-y,-z
1/2+x,1/2-y,1/2+z
loop_
_atom_site_type_symbol
_atom_site_label
_atom_site_fract_x
_atom_site_fract_y
_atom_site_fract_z
Si Si1 0.193322 0.259111 0.214264
Si Si2 0.369086 0.154589 0.135537
Si Si3 0.705940 0.107302 0.661362
Si Si4 0.711642 0.027101 0.489552
Si Si5 0.090459 0.236782 0.564409
Si Si6 0.273425 0.402949 0.389495
O O1 0.180310 0.194987 0.151897
O O2 0.261949 0.318112 0.159069
O O3 0.339487 0.251683 0.318660
O O4 0.000000 0.276337 0.250000
O O5 0.500000 0.146174 0.250000
O O6 0.325935 0.084877 0.089004
O O7 0.440101 0.201648 0.055458
O O8 0.795576 0.060374 0.594224
O O9 0.465658 0.107992 0.623453
O O10 0.774852 0.088618 0.775470
O O11 0.500000 0.000000 0.500000
O O12 0.817060 0.966536 0.454551
O O13 0.250000 0.250000 0.500000
O O14 0.096824 0.158481 0.563370
#
# Coordination Sequence:
#
# PCOD9259366 Si02
#       6
#     8   8   8   8   8   8
#     4  10  19  37  57  77 117 151 187 237 287 336
#     4  10  23  34  55  91 114 145 193 243 285 337
#     4   9  16  31  53  77 104 146 190 220 278 339
#     4  10  20  31  52  85 111 145 188 237 279 340
#     4  10  18  35  55  84 113 145 188 233 291 334
#     4   9  17  31  54  77 111 146 183 227 282 340
#
# _framework density 24.288352
#
# number of rings (size 3 to 8) (size 9 to 14) (size 15 to 20)
#    0.000    2.333    3.333    2.000    4.667    0.667 
#    0.000    0.000    0.000    6.000    0.000    0.000 
#    0.000    0.000    0.000    0.000    0.000    0.000 
#
# Total GULP energy -133748.729498 kJ/mol
# GULP energy per Si atom -5572.863729 kJ/mol
# Density = 2.423307 g / cm^3
# Si number density = 24.288352 Si / 1000 Ang^3
#
#
#
# Elastic Constant Matrix: (Units=GPa)
#
#
# Indices 1 2 3 4 5 6 
#
# 1 59.2620 22.0675 20.9051 0.0000 -21.1313 0.0000
# 2 22.0675 202.3894 89.5539 0.0000 -32.4124 0.0000
# 3 20.9051 89.5539 151.3060 0.0000 -12.2727 0.0000
# 4 0.0000 0.0000 0.0000 64.0234 0.0000 -9.2942
# 5 -21.1313 -32.4124 -12.2727 0.0000 31.5880 0.0000
# 6 0.0000 0.0000 0.0000 -9.2942 0.0000 -1.4029
#
#
#
# Elastic Compliance Matrix: (Units=1/GPa)
#
#
# Indices 1 2 3 4 5 6 
#
# 1 0.022873 0.001116 -0.002568 0.000000 0.015449 0.000000
# 2 0.001116 0.007824 -0.004206 0.000000 0.007141 0.000000
# 3 -0.002568 -0.004206 0.009255 0.000000 -0.002437 0.000000
# 4 0.000000 0.000000 0.000000 0.007962 0.000000 -0.052748
# 5 0.015449 0.007141 -0.002437 0.000000 0.048373 0.000000
# 6 0.000000 0.000000 0.000000 -0.052748 0.000000 -0.363356
#
#
# Mechanical properties :
#
#
# Convention : Reuss Voigt Hill
#
# Bulk Modulus (GPa) = 34.91870 75.33448 55.12659
# Shear Modulus (GPa) = -20.30797 37.53710 8.61456
#
# Velocity S-wave (km/s) = -2.89471 3.93552 1.88533
# Velocity P-wave (km/s) = 1.79874 7.19271 5.24264
#
# Compressibility (1/GPa) = 0.02863795
#
# Stress axis : x y z
#
# Youngs Moduli (GPa) = 43.71946 127.81511 108.04399
#
# Poissons Ratio (x) = -0.14270 0.27745
# Poissons Ratio (y) = -0.04881 0.45441
# Poissons Ratio (z) = 0.11227 0.53756
#
# Static dielectric constant tensor:
#      x y z
#    x -7.878360 0.000000 -4.074000 
#    y 0.000000 1.962160 0.000000 
#    z -4.074000 0.000000 0.205380 
# 
# From -- ./inp_files/135488.got.cif
#   From: 2010.05.17/outbox.cif.g08.bks.cpg/sg15_68_cif.got.tgz:135488.got - 2010.06.03 18:47:42.
