data_PCOD9259530
_publ_section_title
;
Structure prediction by ZEFSAII (Michael W. Deem and Ramdas Pophale) SiO2 
 PCOD9259530
Probable space group: C 2/C
;
_chemical_formula_sum "Si O2"
_cell_formula_units_Z 56
_cell_length_a 11.594730
_cell_length_b 11.664479
_cell_length_c 16.619455
_cell_angle_alpha 90.000000
_cell_angle_beta 94.162249
_cell_angle_gamma 90.000000
_cell_volume 2241.794531
_symmetry_space_group_name_H-M "C 2/C"
_symmetry_group_IT_number 15
_symmetry_cell_setting 'monoclinic'
loop_
_space_group_symop_operation_xyz
x,y,z
-x,y,1/2-z
-x,-y,-z
x,-y,1/2+z
1/2+x,1/2+y,z
1/2-x,1/2+y,1/2-z
1/2-x,1/2-y,-z
1/2+x,1/2-y,1/2+z
loop_
_atom_site_type_symbol
_atom_site_label
_atom_site_fract_x
_atom_site_fract_y
_atom_site_fract_z
Si Si1 0.341166 0.431854 0.037453
Si Si2 0.956576 0.568151 0.339014
Si Si3 0.929293 0.955607 0.375950
Si Si4 0.775216 0.257680 0.829542
Si Si5 0.473329 0.196094 0.656785
Si Si6 0.633229 0.159251 0.463051
Si Si7 0.819036 0.170455 0.335184
O O1 0.431737 0.464447 0.111956
O O2 0.366262 0.295923 0.028778
O O3 0.381272 0.507037 0.962400
O O4 0.201028 0.420736 0.031177
O O5 0.825575 0.614166 0.336971
O O6 0.000000 0.606861 0.250000
O O7 0.996962 0.436975 0.344640
O O8 0.011787 0.619699 0.423307
O O9 0.876278 0.832202 0.353378
O O10 0.873677 0.048809 0.313240
O O11 0.657680 0.228027 0.871825
O O12 0.734071 0.248664 0.735268
O O13 0.500000 0.233533 0.750000
O O14 0.573219 0.265032 0.617618
O O15 0.715342 0.141447 0.388969
#
# Coordination Sequence:
#
# PCOD9259530 Si02
#       7
#     8   8   8   8   8   8   8
#     4   9  19  34  59  87 113 161 200 254 301 356
#     4  11  20  36  61  89 120 160 208 259 316 379
#     4  10  20  37  60  85 119 156 204 252 304 370
#     4  11  21  36  60  89 120 163 203 254 320 382
#     4   9  21  37  53  82 127 163 188 237 324 382
#     4  10  18  35  59  88 115 149 213 259 293 362
#     4  10  21  36  57  86 125 154 197 264 317 367
#
# _framework density 24.979989
#
# number of rings (size 3 to 8) (size 9 to 14) (size 15 to 20)
#    0.000    2.000    2.857    1.714    4.000    0.000 
#    2.571    3.571    0.000   27.429    0.000    0.000 
#    0.000    0.000    0.000    0.000    0.000    0.000 
#
# Total GULP energy -156046.098892 kJ/mol
# GULP energy per Si atom -5573.074960 kJ/mol
# Density = 2.492313 g / cm^3
# Si number density = 24.979989 Si / 1000 Ang^3
#
#
#
# Elastic Constant Matrix: (Units=GPa)
#
#
# Indices 1 2 3 4 5 6 
#
# 1 95.4888 30.0055 25.6219 0.0000 34.3082 0.0000
# 2 30.0055 78.3525 13.4332 0.0000 2.7051 0.0000
# 3 25.6219 13.4332 56.2371 0.0000 24.1779 0.0000
# 4 0.0000 0.0000 0.0000 28.9505 0.0000 4.1769
# 5 34.3082 2.7051 24.1779 0.0000 30.4043 0.0000
# 6 0.0000 0.0000 0.0000 4.1769 0.0000 33.5695
#
#
#
# Elastic Compliance Matrix: (Units=1/GPa)
#
#
# Indices 1 2 3 4 5 6 
#
# 1 0.021458 -0.007891 0.003368 0.000000 -0.026189 0.000000
# 2 -0.007891 0.016293 -0.005321 0.000000 0.011685 0.000000
# 3 0.003368 -0.005321 0.028792 0.000000 -0.026223 0.000000
# 4 0.000000 0.000000 0.000000 0.035173 0.000000 -0.004376
# 5 -0.026189 0.011685 -0.026223 0.000000 0.082255 0.000000
# 6 0.000000 0.000000 0.000000 -0.004376 0.000000 0.030333
#
#
# Mechanical properties :
#
#
# Convention : Reuss Voigt Hill
#
# Bulk Modulus (GPa) = 21.34167 40.91108 31.12637
# Shear Modulus (GPa) = 20.03118 29.31938 24.67528
#
# Velocity S-wave (km/s) = 2.83484 3.42967 3.14634
# Velocity P-wave (km/s) = 4.39057 5.66539 5.06822
#
# Compressibility (1/GPa) = 0.04685668
#
# Stress axis : x y z
#
# Youngs Moduli (GPa) = 46.60341 61.37470 34.73143
#
# Poissons Ratio (x) = 0.48428 -0.11698
# Poissons Ratio (y) = 0.36773 0.18480
# Poissons Ratio (z) = -0.15696 0.32656
#
# Static dielectric constant tensor:
#      x y z
#    x 2.111530 0.000000 -0.003850 
#    y 0.000000 2.017790 0.000000 
#    z -0.003850 0.000000 2.182810 
# 
# From -- ./inp_files/237127.got.cif
#   From: 2010.05.17/outbox.cif.g08.bks.cpg/sg15_119_cif.got.tgz:237127.got - 2010.06.03 18:47:42.
