data_PCOD9259040
_publ_section_title
;
Structure prediction by ZEFSAII (Michael W. Deem and Ramdas Pophale) SiO2 
 PCOD9259040
Probable space group: C 2/C
;
_chemical_formula_sum "Si O2"
_cell_formula_units_Z 60
_cell_length_a 31.377969
_cell_length_b 20.419881
_cell_length_c 11.310813
_cell_angle_alpha 90.000000
_cell_angle_beta 154.968591
_cell_angle_gamma 90.000000
_cell_volume 3066.410610
_symmetry_space_group_name_H-M "C 2/C"
_symmetry_group_IT_number 15
_symmetry_cell_setting 'monoclinic'
loop_
_space_group_symop_operation_xyz
x,y,z
-x,y,1/2-z
-x,-y,-z
x,-y,1/2+z
1/2+x,1/2+y,z
1/2-x,1/2+y,1/2-z
1/2-x,1/2-y,-z
1/2+x,1/2-y,1/2+z
loop_
_atom_site_type_symbol
_atom_site_label
_atom_site_fract_x
_atom_site_fract_y
_atom_site_fract_z
Si Si1 0.813464 0.160091 0.701293
Si Si2 0.117756 0.858641 0.513653
Si Si3 0.750159 0.428451 0.044304
Si Si4 0.911764 0.622403 0.123435
Si Si5 0.183874 0.459783 0.931422
Si Si6 0.863543 0.992204 0.057740
Si Si7 0.825466 0.746606 0.006370
Si Si8 0.000000 0.075223 0.250000
O O1 0.725917 0.104387 0.467090
O O2 0.836878 0.206569 0.649318
O O3 0.774038 0.205667 0.709566
O O4 0.910890 0.120706 0.982713
O O5 0.184250 0.885895 0.788953
O O6 0.169978 0.794223 0.593577
O O7 0.000000 0.848516 0.250000
O O8 0.122358 0.915407 0.424886
O O9 0.832179 0.476841 0.189743
O O10 0.673506 0.479670 0.912220
O O11 0.808425 0.385363 0.287355
O O12 0.000000 0.619405 0.250000
O O13 0.903476 0.565352 0.201178
O O14 0.908000 0.690771 0.185262
O O15 0.275378 0.484631 0.245462
O O16 0.962142 0.028979 0.260070
#
# Coordination Sequence:
#
# PCOD9259040 Si02
#       8
#     8   8   8   8   8   8   8   4
#     4   9  19  36  59  78 111 154 187 236 279 338
#     4  11  22  34  53  88 118 149 185 230 287 354
#     4  10  21  36  57  83 113 148 181 241 299 335
#     4  10  21  39  56  76 108 152 196 236 279 337
#     4   8  17  35  56  81 107 138 185 236 288 337
#     4   9  18  33  53  85 120 139 179 233 294 344
#     4  10  21  38  52  77 114 155 190 224 281 340
#     4  10  18  34  58  90 110 148 196 232 284 348
#
# _framework density 19.566851
#
# number of rings (size 3 to 8) (size 9 to 14) (size 15 to 20)
#    0.000    2.400    0.667    2.000    1.867    1.600 
#    2.400    0.000    0.000    0.000    5.200    0.000 
#    0.000    0.000    0.000    0.000    0.000    0.000 
#
# Total GULP energy -167212.702311 kJ/mol
# GULP energy per Si atom -5573.756744 kJ/mol
# Density = 1.952232 g / cm^3
# Si number density = 19.566851 Si / 1000 Ang^3
#
#
#
# Elastic Constant Matrix: (Units=GPa)
#
#
# Indices 1 2 3 4 5 6 
#
# 1 99.8636 29.1840 6.5593 0.0000 16.2736 0.0000
# 2 29.1840 82.1573 3.9253 0.0000 2.7950 0.0000
# 3 6.5593 3.9253 25.1313 0.0000 6.4538 0.0000
# 4 0.0000 0.0000 0.0000 16.5924 0.0000 3.3989
# 5 16.2736 2.7950 6.4538 0.0000 25.9898 0.0000
# 6 0.0000 0.0000 0.0000 3.3989 0.0000 60.6157
#
#
#
# Elastic Compliance Matrix: (Units=1/GPa)
#
#
# Indices 1 2 3 4 5 6 
#
# 1 0.012439 -0.004139 -0.000763 0.000000 -0.007154 0.000000
# 2 -0.004139 0.013660 -0.001433 0.000000 0.001478 0.000000
# 3 -0.000763 -0.001433 0.042780 0.000000 -0.009991 0.000000
# 4 0.000000 0.000000 0.000000 0.060969 0.000000 -0.003419
# 5 -0.007154 0.001478 -0.009991 0.000000 0.045278 0.000000
# 6 0.000000 0.000000 0.000000 -0.003419 0.000000 0.016689
#
#
# Mechanical properties :
#
#
# Convention : Reuss Voigt Hill
#
# Bulk Modulus (GPa) = 17.79055 31.83216 24.81135
# Shear Modulus (GPa) = 22.39927 31.80514 27.10221
#
# Velocity S-wave (km/s) = 3.38710 4.03607 3.72574
# Velocity P-wave (km/s) = 4.94049 6.16633 5.58713
#
# Compressibility (1/GPa) = 0.05620962
#
# Stress axis : x y z
#
# Youngs Moduli (GPa) = 80.39137 73.20568 23.37549
#
# Poissons Ratio (x) = 0.30298 0.01783
# Poissons Ratio (y) = 0.33272 0.03350
# Poissons Ratio (z) = 0.06133 0.10490
#
# Static dielectric constant tensor:
#      x y z
#    x 1.749270 0.000000 0.009310 
#    y 0.000000 1.693160 0.000000 
#    z 0.009310 0.000000 1.661940 
# 
# From -- ./inp_files/127428.got.cif
#   From: 2010.05.17/outbox.cif.g08.bks.cpg/sg15_64_cif.got.tgz:127428.got - 2010.06.03 18:47:42.
