data_PCOD9259625
_publ_section_title
;
Structure prediction by ZEFSAII (Michael W. Deem and Ramdas Pophale) SiO2 
 PCOD9259625
Probable space group: C 2/C
;
_chemical_formula_sum "Si O2"
_cell_formula_units_Z 40
_cell_length_a 17.848064
_cell_length_b 6.758990
_cell_length_c 20.406554
_cell_angle_alpha 90.000000
_cell_angle_beta 41.253055
_cell_angle_gamma 90.000000
_cell_volume 1623.238179
_symmetry_space_group_name_H-M "C 2/C"
_symmetry_group_IT_number 15
_symmetry_cell_setting 'monoclinic'
loop_
_space_group_symop_operation_xyz
x,y,z
-x,y,1/2-z
-x,-y,-z
x,-y,1/2+z
1/2+x,1/2+y,z
1/2-x,1/2+y,1/2-z
1/2-x,1/2-y,-z
1/2+x,1/2-y,1/2+z
loop_
_atom_site_type_symbol
_atom_site_label
_atom_site_fract_x
_atom_site_fract_y
_atom_site_fract_z
Si Si1 0.399519 0.344001 0.912229
Si Si2 0.528147 0.961280 0.801656
Si Si3 0.582447 0.429039 0.887484
Si Si4 0.780056 0.767989 0.870155
Si Si5 0.829975 0.487224 0.677631
O O1 0.425111 0.107222 0.889043
O O2 0.511163 0.445149 0.866866
O O3 0.349374 0.406309 0.875638
O O4 0.304957 0.360394 0.029831
O O5 0.500000 0.860594 0.750000
O O6 0.626004 0.122151 0.720343
O O7 0.582470 0.870570 0.831845
O O8 0.708929 0.514875 0.794701
O O9 0.609619 0.194768 0.878054
O O10 0.500000 0.500000 0.000000
O O11 0.707357 0.885150 0.865018
#
# Coordination Sequence:
#
# PCOD9259625 Si02
#       5
#     8   8   8   8   8
#     4   9  19  35  61  87 122 168 210 255 324 384
#     4   9  18  34  56  83 118 161 209 254 313 382
#     4  11  24  40  62  93 132 170 214 273 331 384
#     4  10  18  35  61  93 118 163 220 257 311 402
#     4  11  21  39  64  92 124 167 222 267 324 393
#
# _framework density 24.642102999999999
#
# number of rings (size 3 to 8) (size 9 to 14) (size 15 to 20)
#    0.000    2.000    4.000    1.200    0.000    3.200 
#    0.000    1.000    4.400    0.000    0.000    0.000 
#    0.000    0.000    0.000    0.000    0.000    0.000 
#
# Total GULP energy -111658.123997 kJ/mol
# GULP energy per Si atom -5582.906200 kJ/mol
# Density = 2.458602 g / cm^3
# Si number density = 24.642103 Si / 1000 Ang^3
#
#
#
# Elastic Constant Matrix: (Units=GPa)
#
#
# Indices 1 2 3 4 5 6 
#
# 1 265.5302 46.4953 26.7215 0.0000 13.3559 0.0000
# 2 46.4953 60.3426 1.1687 0.0000 -0.0666 0.0012
# 3 26.7215 1.1687 76.7050 0.0002 -3.8712 0.0001
# 4 0.0000 0.0000 0.0002 24.7213 0.0000 -8.1678
# 5 13.3559 -0.0666 -3.8712 0.0000 42.2451 -0.0001
# 6 0.0000 0.0012 0.0001 -8.1678 -0.0001 33.0986
#
#
#
# Elastic Compliance Matrix: (Units=1/GPa)
#
#
# Indices 1 2 3 4 5 6 
#
# 1 0.004633 -0.003539 -0.001642 0.000000 -0.001621 0.000000
# 2 -0.003539 0.019281 0.001002 0.000000 0.001241 -0.000001
# 3 -0.001642 0.001002 0.013683 0.000000 0.001774 0.000000
# 4 0.000000 0.000000 0.000000 0.044042 0.000000 0.010868
# 5 -0.001621 0.001241 0.001774 0.000000 0.024348 0.000000
# 6 0.000000 -0.000001 0.000000 0.010868 0.000000 0.032895
#
#
# Mechanical properties :
#
#
# Convention : Reuss Voigt Hill
#
# Bulk Modulus (GPa) = 34.20154 61.26098 47.73126
# Shear Modulus (GPa) = 31.84991 41.89251 36.87121
#
# Velocity S-wave (km/s) = 3.59904 4.12762 3.87236
# Velocity P-wave (km/s) = 5.58392 6.90150 6.27737
#
# Compressibility (1/GPa) = 0.02923845
#
# Stress axis : x y z
#
# Youngs Moduli (GPa) = 215.86381 51.86389 73.08252
#
# Poissons Ratio (x) = 0.18357 0.11998
# Poissons Ratio (y) = 0.76404 -0.07322
# Poissons Ratio (z) = 0.35438 -0.05196
#
# Static dielectric constant tensor:
#      x y z
#    x 2.091590 0.000000 0.044770 
#    y 0.000000 2.053790 0.000000 
#    z 0.044770 0.000000 1.950920 
# 
# From -- ./inp_files/247232.got.cif
#   From: 2010.05.17/outbox.cif.g08.bks.cpg/sg15_124_cif.got.tgz:247232.got - 2010.06.03 18:47:42.
