data_PCOD9259228
_publ_section_title
;
Structure prediction by ZEFSAII (Michael W. Deem and Ramdas Pophale) SiO2 
 PCOD9259228
Probable space group: C 2/C
;
_chemical_formula_sum "Si O2"
_cell_formula_units_Z 60
_cell_length_a 11.956142
_cell_length_b 15.099351
_cell_length_c 24.561165
_cell_angle_alpha 90.000000
_cell_angle_beta 133.553583
_cell_angle_gamma 90.000000
_cell_volume 3213.473552
_symmetry_space_group_name_H-M "C 2/C"
_symmetry_group_IT_number 15
_symmetry_cell_setting 'monoclinic'
loop_
_space_group_symop_operation_xyz
x,y,z
-x,y,1/2-z
-x,-y,-z
x,-y,1/2+z
1/2+x,1/2+y,z
1/2-x,1/2+y,1/2-z
1/2-x,1/2-y,-z
1/2+x,1/2-y,1/2+z
loop_
_atom_site_type_symbol
_atom_site_label
_atom_site_fract_x
_atom_site_fract_y
_atom_site_fract_z
Si Si1 0.769108 0.808544 0.269334
Si Si2 0.399833 0.360709 0.606048
Si Si3 0.000000 0.238305 0.250000
Si Si4 0.892545 0.739656 0.895451
Si Si5 0.847929 0.393849 0.661958
Si Si6 0.588744 0.120480 0.159955
Si Si7 0.828190 0.005519 0.310491
Si Si8 0.939015 0.599727 0.477040
O O1 0.637955 0.795550 0.271241
O O2 0.688038 0.806430 0.183360
O O3 0.873973 0.720903 0.308643
O O4 0.845566 0.902854 0.304048
O O5 0.439919 0.319701 0.679000
O O6 0.460294 0.291510 0.580902
O O7 0.509364 0.445264 0.635321
O O8 0.222054 0.386277 0.545401
O O9 0.771073 0.812572 0.876244
O O10 0.942618 0.669098 0.956807
O O11 0.759509 0.474246 0.661940
O O12 0.000000 0.374961 0.750000
O O13 0.924034 0.409265 0.629030
O O14 0.719714 0.056646 0.229870
O O15 0.590520 0.119254 0.096099
O O16 0.000000 0.500000 0.500000
#
# Coordination Sequence:
#
# PCOD9259228 Si02
#       8
#     8   8   4   8   8   8   8   8
#     4  11  20  35  64  96 114 160 209 253 303 353
#     4  10  19  41  59  82 123 161 198 259 300 355
#     4  10  18  34  62  90 116 154 210 254 292 352
#     4  10  21  39  60  87 121 164 200 244 318 356
#     4   9  18  38  60  84 122 157 197 259 297 354
#     4  11  21  40  60  89 129 157 200 255 304 364
#     4  10  20  36  63  95 116 155 214 257 299 355
#     4  12  25  39  57  89 125 164 203 246 310 373
#
# _framework density 18.671385000000001
#
# number of rings (size 3 to 8) (size 9 to 14) (size 15 to 20)
#    0.000    1.600    6.667    1.200    2.800    1.600 
#    0.000    0.000    0.000    3.200    0.000    0.000 
#    0.000    0.000    0.000    0.000    0.000    0.000 
#
# Total GULP energy -167417.341318 kJ/mol
# GULP energy per Si atom -5580.578044 kJ/mol
# Density = 1.862889 g / cm^3
# Si number density = 18.671385 Si / 1000 Ang^3
#
#
#
# Elastic Constant Matrix: (Units=GPa)
#
#
# Indices 1 2 3 4 5 6 
#
# 1 47.8153 -22.2171 6.1116 0.0000 -1.7071 0.0000
# 2 -22.2171 79.5696 9.8134 0.0000 0.4788 0.0000
# 3 6.1116 9.8134 20.6306 0.0000 5.2259 0.0000
# 4 0.0000 0.0000 0.0000 11.7757 0.0000 4.4793
# 5 -1.7071 0.4788 5.2259 0.0000 20.0557 0.0000
# 6 0.0000 0.0000 0.0000 4.4793 0.0000 9.2138
#
#
#
# Elastic Compliance Matrix: (Units=1/GPa)
#
#
# Indices 1 2 3 4 5 6 
#
# 1 0.027210 0.009280 -0.013925 0.000000 0.005723 0.000000
# 2 0.009280 0.016554 -0.011481 0.000000 0.003386 0.000000
# 3 -0.013925 -0.011481 0.062408 0.000000 -0.017173 0.000000
# 4 0.000000 0.000000 0.000000 0.104188 0.000000 -0.050652
# 5 0.005723 0.003386 -0.017173 0.000000 0.054742 0.000000
# 6 0.000000 0.000000 0.000000 -0.050652 0.000000 0.133157
#
#
# Mechanical properties :
#
#
# Convention : Reuss Voigt Hill
#
# Bulk Modulus (GPa) = 13.52797 15.04791 14.28794
# Shear Modulus (GPa) = 10.98534 18.49622 14.74078
#
# Velocity S-wave (km/s) = 2.42823 3.15082 2.81283
# Velocity P-wave (km/s) = 3.88880 4.61668 4.26828
#
# Compressibility (1/GPa) = 0.07392094
#
# Stress axis : x y z
#
# Youngs Moduli (GPa) = 36.75123 60.40659 16.02358
#
# Poissons Ratio (x) = -0.56060 0.22312
# Poissons Ratio (y) = -0.34107 0.18397
# Poissons Ratio (z) = 0.51175 0.69356
#
# Static dielectric constant tensor:
#      x y z
#    x 1.671590 0.000000 -0.006510 
#    y 0.000000 1.634430 0.000000 
#    z -0.006510 0.000000 1.637900 
# 
# From -- ./inp_files/269933.got.cif
#   From: 2010.05.17/outbox.cif.g08.bks.cpg/sg15_135_cif.got.tgz:269933.got - 2010.06.03 18:47:42.
