data_PCOD9259417
_publ_section_title
;
Structure prediction by ZEFSAII (Michael W. Deem and Ramdas Pophale) SiO2 
 PCOD9259417
Probable space group: C 2/C
;
_chemical_formula_sum "Si O2"
_cell_formula_units_Z 56
_cell_length_a 21.494017
_cell_length_b 15.904877
_cell_length_c 8.360497
_cell_angle_alpha 90.000000
_cell_angle_beta 102.501172
_cell_angle_gamma 90.000000
_cell_volume 2790.355529
_symmetry_space_group_name_H-M "C 2/C"
_symmetry_group_IT_number 15
_symmetry_cell_setting 'monoclinic'
loop_
_space_group_symop_operation_xyz
x,y,z
-x,y,1/2-z
-x,-y,-z
x,-y,1/2+z
1/2+x,1/2+y,z
1/2-x,1/2+y,1/2-z
1/2-x,1/2-y,-z
1/2+x,1/2-y,1/2+z
loop_
_atom_site_type_symbol
_atom_site_label
_atom_site_fract_x
_atom_site_fract_y
_atom_site_fract_z
Si Si1 0.500000 0.749515 0.250000
Si Si2 0.216807 0.059793 0.429610
Si Si3 0.695046 0.830635 0.308174
Si Si4 0.500000 0.962561 0.750000
Si Si5 0.122293 0.190677 0.478709
Si Si6 0.431538 0.107102 0.913613
Si Si7 0.182747 0.758288 0.317202
Si Si8 0.772335 0.117450 0.423570
O O1 0.552679 0.694714 0.367685
O O2 0.532155 0.812545 0.140200
O O3 0.277052 0.104742 0.546287
O O4 0.155794 0.100259 0.484677
O O5 0.211066 0.084361 0.242080
O O6 0.224971 0.961293 0.457722
O O7 0.664161 0.754041 0.390871
O O8 0.641984 0.874692 0.168929
O O9 0.754977 0.795682 0.242036
O O10 0.455270 0.908940 0.606696
O O11 0.455274 0.024608 0.829746
O O12 0.126871 0.227119 0.660818
O O13 0.179897 0.812643 0.476861
O O14 0.204257 0.664101 0.368272
#
# Coordination Sequence:
#
# PCOD9259417 Si02
#       8
#     4   8   8   4   8   8   8   8
#     4   9  20  36  58  82  99 158 190 220 289 334
#     4  11  20  35  57  84 115 144 185 232 284 334
#     4  10  18  35  57  81 111 149 180 231 281 331
#     4   9  18  36  48  74 113 148 184 238 269 320
#     4  10  18  38  60  79 117 144 188 233 277 335
#     4   9  19  34  52  75 109 146 191 225 278 332
#     4  10  20  38  56  85 116 145 182 230 285 338
#     4  11  22  35  55  87 115 147 181 223 292 338
#
# _framework density 20.069127000000002
#
# number of rings (size 3 to 8) (size 9 to 14) (size 15 to 20)
#    0.000    2.000    2.857    2.571    0.000    2.286 
#   10.286    0.000    0.000    3.429    0.000    0.000 
#    0.000    0.000    0.000    0.000    0.000    0.000 
#
# Total GULP energy -156395.146149 kJ/mol
# GULP energy per Si atom -5585.540934 kJ/mol
# Density = 2.002345 g / cm^3
# Si number density = 20.069127 Si / 1000 Ang^3
#
#
#
# Elastic Constant Matrix: (Units=GPa)
#
#
# Indices 1 2 3 4 5 6 
#
# 1 51.6906 10.6547 27.2415 0.0000 29.3818 0.0000
# 2 10.6547 93.5317 34.7288 0.0000 14.2976 0.0000
# 3 27.2415 34.7288 151.0691 0.0000 24.0577 0.0000
# 4 0.0000 0.0000 0.0000 32.6533 0.0000 2.5192
# 5 29.3818 14.2976 24.0577 0.0000 35.5150 0.0000
# 6 0.0000 0.0000 0.0000 2.5192 0.0000 9.2946
#
#
#
# Elastic Compliance Matrix: (Units=1/GPa)
#
#
# Indices 1 2 3 4 5 6 
#
# 1 0.037167 0.001135 -0.002235 0.000000 -0.029691 0.000000
# 2 0.001135 0.012065 -0.002304 0.000000 -0.004235 0.000000
# 3 -0.002235 -0.002304 0.007970 0.000000 -0.002622 0.000000
# 4 0.000000 0.000000 0.000000 0.031279 0.000000 -0.008478
# 5 -0.029691 -0.004235 -0.002622 0.000000 0.056203 0.000000
# 6 0.000000 0.000000 0.000000 -0.008478 0.000000 0.109888
#
#
# Mechanical properties :
#
#
# Convention : Reuss Voigt Hill
#
# Bulk Modulus (GPa) = 19.84357 49.06016 34.45186
# Shear Modulus (GPa) = 17.97421 30.40367 24.18894
#
# Velocity S-wave (km/s) = 2.99593 3.89645 3.47548
# Velocity P-wave (km/s) = 4.67724 6.68893 5.77141
#
# Compressibility (1/GPa) = 0.05039415
#
# Stress axis : x y z
#
# Youngs Moduli (GPa) = 26.90574 82.88351 125.47574
#
# Poissons Ratio (x) = -0.09404 0.28038
# Poissons Ratio (y) = -0.03053 0.28906
# Poissons Ratio (z) = 0.06012 0.19094
#
# Static dielectric constant tensor:
#      x y z
#    x 1.720170 0.000000 -0.026430 
#    y 0.000000 1.723900 0.000000 
#    z -0.026430 0.000000 1.751670 
# 
# From -- ./inp_files/61637.got.cif
#   From: 2010.05.17/outbox.cif.g08.bks.cpg/sg15_31_cif.got.tgz:61637.got - 2010.06.03 18:47:42.
