data_PCOD9259726
_publ_section_title
;
Structure prediction by ZEFSAII (Michael W. Deem and Ramdas Pophale) SiO2 
 PCOD9259726
Probable space group: C 2/C
;
_chemical_formula_sum "Si O2"
_cell_formula_units_Z 44
_cell_length_a 10.619992
_cell_length_b 24.342238
_cell_length_c 7.949643
_cell_angle_alpha 90.000000
_cell_angle_beta 106.619938
_cell_angle_gamma 90.000000
_cell_volume 1969.241397
_symmetry_space_group_name_H-M "C 2/C"
_symmetry_group_IT_number 15
_symmetry_cell_setting 'monoclinic'
loop_
_space_group_symop_operation_xyz
x,y,z
-x,y,1/2-z
-x,-y,-z
x,-y,1/2+z
1/2+x,1/2+y,z
1/2-x,1/2+y,1/2-z
1/2-x,1/2-y,-z
1/2+x,1/2-y,1/2+z
loop_
_atom_site_type_symbol
_atom_site_label
_atom_site_fract_x
_atom_site_fract_y
_atom_site_fract_z
Si Si1 0.208069 0.137565 0.746062
Si Si2 0.869665 0.732531 0.923245
Si Si3 0.054410 0.852214 0.544299
Si Si4 0.500000 0.838341 0.750000
Si Si5 0.728777 0.922082 0.740696
Si Si6 0.654251 0.036597 0.843075
O O1 0.307321 0.189089 0.770520
O O2 0.287982 0.081350 0.763354
O O3 0.096038 0.138469 0.561831
O O4 0.133487 0.142283 0.896088
O O5 0.925075 0.790258 0.883761
O O6 0.750000 0.750000 0.000000
O O7 0.973282 0.700192 0.079271
O O8 0.128155 0.895141 0.691021
O O9 0.625591 0.876950 0.769233
O O10 0.682464 0.939394 0.537778
O O11 0.721023 0.977686 0.845392
O O12 0.500000 0.029613 0.750000
#
# Coordination Sequence:
#
# PCOD9259726 Si02
#       6
#     8   8   8   4   8   8
#     4  10  21  41  64  92 135 167 215 261 313 384
#     4  10  18  35  66  95 127 166 217 257 313 381
#     4  10  22  40  68  98 126 176 214 259 319 381
#     4  12  20  36  66  96 126 164 216 266 316 380
#     4  12  25  40  67  94 127 168 216 268 323 377
#     4  12  26  43  65  95 130 168 216 270 325 377
#
# _framework density 22.343630000000001
#
# number of rings (size 3 to 8) (size 9 to 14) (size 15 to 20)
#    0.000    1.091    4.545    4.909    0.000    1.455 
#    0.000    0.909    4.000    0.000    0.000    0.000 
#    0.000    0.000    0.000    0.000    0.000    0.000 
#
# Total GULP energy -123137.743894 kJ/mol
# GULP energy per Si atom -5597.170177 kJ/mol
# Density = 2.229277 g / cm^3
# Si number density = 22.343630 Si / 1000 Ang^3
#
#
#
# Elastic Constant Matrix: (Units=GPa)
#
#
# Indices 1 2 3 4 5 6 
#
# 1 61.7772 49.7029 29.7614 0.0000 15.1293 0.0000
# 2 49.7029 180.3229 48.1527 0.0000 24.4741 0.0000
# 3 29.7614 48.1527 123.7551 0.0000 23.8541 0.0000
# 4 0.0000 0.0000 0.0000 22.1671 0.0000 33.7561
# 5 15.1293 24.4741 23.8541 0.0000 40.4281 0.0000
# 6 0.0000 0.0000 0.0000 33.7561 0.0000 -17.6087
#
#
#
# Elastic Compliance Matrix: (Units=1/GPa)
#
#
# Indices 1 2 3 4 5 6 
#
# 1 0.022399 -0.004929 -0.002740 0.000000 -0.003782 0.000000
# 2 -0.004929 0.007530 -0.001378 0.000000 -0.001901 0.000000
# 3 -0.002740 -0.001378 0.010061 0.000000 -0.004077 0.000000
# 4 0.000000 0.000000 0.000000 0.011510 0.000000 0.022066
# 5 -0.003782 -0.001901 -0.004077 0.000000 0.029707 0.000000
# 6 0.000000 0.000000 0.000000 0.022066 0.000000 -0.014490
#
#
# Mechanical properties :
#
#
# Convention : Reuss Voigt Hill
#
# Bulk Modulus (GPa) = 45.66935 69.00990 57.33963
# Shear Modulus (GPa) = 54.28257 24.87984 39.58120
#
# Velocity S-wave (km/s) = 4.93428 3.34055 4.21346
# Velocity P-wave (km/s) = 7.27646 6.76992 7.02775
#
# Compressibility (1/GPa) = 0.02189652
#
# Stress axis : x y z
#
# Youngs Moduli (GPa) = 44.64513 132.79823 99.38888
#
# Poissons Ratio (x) = 0.65456 0.27231
# Poissons Ratio (y) = 0.22005 0.13698
# Poissons Ratio (z) = 0.12232 0.18303
#
# Static dielectric constant tensor:
#      x y z
#    x 1.827690 0.000000 -0.041670 
#    y 0.000000 1.787350 0.000000 
#    z -0.041670 0.000000 1.855200 
# 
# From -- ./inp_files/32710.got.cif
#   From: 2010.05.17/outbox.cif.g08.bks.cpg/sg15_17_cif.got.tgz:32710.got - 2010.06.03 18:47:42.
