data_PCOD9259037
_publ_section_title
;
Structure prediction by ZEFSAII (Michael W. Deem and Ramdas Pophale) SiO2 
 PCOD9259037
Probable space group: C 2/C
;
_chemical_formula_sum "Si O2"
_cell_formula_units_Z 56
_cell_length_a 20.818324
_cell_length_b 14.664745
_cell_length_c 8.713219
_cell_angle_alpha 90.000000
_cell_angle_beta 110.628649
_cell_angle_gamma 90.000000
_cell_volume 2489.549095
_symmetry_space_group_name_H-M "C 2/C"
_symmetry_group_IT_number 15
_symmetry_cell_setting 'monoclinic'
loop_
_space_group_symop_operation_xyz
x,y,z
-x,y,1/2-z
-x,-y,-z
x,-y,1/2+z
1/2+x,1/2+y,z
1/2-x,1/2+y,1/2-z
1/2-x,1/2-y,-z
1/2+x,1/2-y,1/2+z
loop_
_atom_site_type_symbol
_atom_site_label
_atom_site_fract_x
_atom_site_fract_y
_atom_site_fract_z
Si Si1 0.206696 0.130960 0.791523
Si Si2 0.500000 0.739487 0.250000
Si Si3 0.068049 0.620437 0.016252
Si Si4 0.064376 0.910639 0.651911
Si Si5 0.276772 0.801714 0.870848
Si Si6 0.797892 0.053858 0.381642
Si Si7 0.000000 0.532197 0.250000
Si Si8 0.053084 0.888535 0.179787
O O1 0.240107 0.225767 0.773978
O O2 0.125876 0.156106 0.725928
O O3 0.213053 0.052522 0.666429
O O4 0.225957 0.087471 0.971719
O O5 0.482791 0.802348 0.091427
O O6 0.434769 0.676730 0.239530
O O7 0.051052 0.532936 0.892795
O O8 0.144341 0.662061 0.060734
O O9 0.045359 0.590432 0.167817
O O10 0.122583 0.918023 0.573683
O O11 0.990141 0.901064 0.511010
O O12 0.068917 0.006593 0.741980
O O13 0.236207 0.891151 0.786150
O O14 0.250000 0.750000 0.000000
O O15 0.000000 0.842949 0.250000
#
# Coordination Sequence:
#
# PCOD9259037 Si02
#       8
#     8   4   8   8   8   8   4   8
#     4  11  24  42  63  94 128 169 226 266 327 388
#     4  11  20  36  58  93 128 162 208 277 332 383
#     4  10  23  43  72  97 128 166 220 282 341 394
#     4  10  20  32  57  88 126 168 210 254 322 388
#     4  12  26  45  66  96 134 179 225 273 332 405
#     4  11  24  41  64  89 132 177 218 267 322 398
#     4   9  22  48  72 101 126 164 226 283 344 399
#     4  10  18  34  58  88 124 166 208 260 314 378
#
# _framework density 22.494033000000002
#
# number of rings (size 3 to 8) (size 9 to 14) (size 15 to 20)
#    0.000    1.429    2.143    3.000    0.000    4.571 
#    2.571    5.714    0.000    0.000    0.000    0.000 
#    0.000    0.000    0.000    0.000    0.000    0.000 
#
# Total GULP energy -156312.838720 kJ/mol
# GULP energy per Si atom -5582.601383 kJ/mol
# Density = 2.244284 g / cm^3
# Si number density = 22.494033 Si / 1000 Ang^3
#
#
#
# Elastic Constant Matrix: (Units=GPa)
#
#
# Indices 1 2 3 4 5 6 
#
# 1 53.2337 28.6588 33.8589 0.0000 -8.8525 0.0000
# 2 28.6588 98.3620 25.7875 0.0000 -14.1976 0.0000
# 3 33.8589 25.7875 96.4062 0.0000 -21.3998 0.0000
# 4 0.0000 0.0000 0.0000 28.1051 0.0000 -0.1675
# 5 -8.8525 -14.1976 -21.3998 0.0000 33.2979 0.0000
# 6 0.0000 0.0000 0.0000 -0.1675 0.0000 24.2992
#
#
#
# Elastic Compliance Matrix: (Units=1/GPa)
#
#
# Indices 1 2 3 4 5 6 
#
# 1 0.026930 -0.005815 -0.008006 0.000000 -0.000465 0.000000
# 2 -0.005815 0.012498 -0.000538 0.000000 0.003437 0.000000
# 3 -0.008006 -0.000538 0.014936 0.000000 0.007241 0.000000
# 4 0.000000 0.000000 0.000000 0.035582 0.000000 0.000245
# 5 -0.000465 0.003437 0.007241 0.000000 0.036028 0.000000
# 6 0.000000 0.000000 0.000000 0.000245 0.000000 0.041155
#
#
# Mechanical properties :
#
#
# Convention : Reuss Voigt Hill
#
# Bulk Modulus (GPa) = 38.99110 47.17914 43.08512
# Shear Modulus (GPa) = 24.46244 27.78690 26.12467
#
# Velocity S-wave (km/s) = 3.30132 3.51850 3.41164
# Velocity P-wave (km/s) = 5.64829 6.12585 5.89191
#
# Compressibility (1/GPa) = 0.02564688
#
# Stress axis : x y z
#
# Youngs Moduli (GPa) = 37.13293 80.01402 66.95313
#
# Poissons Ratio (x) = 0.46525 0.53603
# Poissons Ratio (y) = 0.21591 0.03601
# Poissons Ratio (z) = 0.29729 0.04304
#
# Static dielectric constant tensor:
#      x y z
#    x 1.886530 0.000000 -0.026970 
#    y 0.000000 1.835910 0.000000 
#    z -0.026970 0.000000 1.908960 
# 
# From -- ./inp_files/61635.got.cif
#   From: 2010.05.17/outbox.cif.g08.bks.cpg/sg15_31_cif.got.tgz:61635.got - 2010.06.03 18:47:42.
