data_PCOD9259177
_publ_section_title
;
Structure prediction by ZEFSAII (Michael W. Deem and Ramdas Pophale) SiO2 
 PCOD9259177
Probable space group: C 2/C
;
_chemical_formula_sum "Si O2"
_cell_formula_units_Z 52
_cell_length_a 9.146058
_cell_length_b 23.369119
_cell_length_c 22.847337
_cell_angle_alpha 90.000000
_cell_angle_beta 143.759559
_cell_angle_gamma 90.000000
_cell_volume 2886.875199
_symmetry_space_group_name_H-M "C 2/C"
_symmetry_group_IT_number 15
_symmetry_cell_setting 'monoclinic'
loop_
_space_group_symop_operation_xyz
x,y,z
-x,y,1/2-z
-x,-y,-z
x,-y,1/2+z
1/2+x,1/2+y,z
1/2-x,1/2+y,1/2-z
1/2-x,1/2-y,-z
1/2+x,1/2-y,1/2+z
loop_
_atom_site_type_symbol
_atom_site_label
_atom_site_fract_x
_atom_site_fract_y
_atom_site_fract_z
Si Si1 0.862921 0.863091 0.767141
Si Si2 0.893148 0.190600 0.044428
Si Si3 0.783896 0.495949 0.632634
Si Si4 0.350805 0.864663 0.640081
Si Si5 0.445675 0.919275 0.081317
Si Si6 0.500000 0.441056 0.250000
Si Si7 0.577627 0.479190 0.886521
O O1 0.570687 0.852223 0.665800
O O2 0.000000 0.863594 0.750000
O O3 0.987918 0.819817 0.853085
O O4 0.908213 0.924772 0.812866
O O5 0.121799 0.178473 0.073520
O O6 0.750000 0.250000 0.000000
O O7 0.700189 0.140057 0.968119
O O8 0.763558 0.430255 0.603809
O O9 0.859584 0.541706 0.608281
O O10 0.541343 0.506852 0.593648
O O11 0.000000 0.496807 0.750000
O O12 0.500000 0.862466 0.750000
O O13 0.739761 0.910004 0.177768
O O14 0.342239 0.953904 0.991118
O O15 0.437676 0.479628 0.173377
#
# Coordination Sequence:
#
# PCOD9259177 Si02
#       7
#     8   8   8   8   8   4   8
#     4  10  18  34  61  88 110 145 195 242 292 345
#     4  10  22  41  58  78 112 154 207 248 284 342
#     4  11  17  35  58  85 120 145 186 233 290 367
#     4   9  16  33  58  85 106 149 191 234 289 344
#     4  11  23  36  56  84 119 158 190 233 301 355
#     4  12  22  36  50  88 128 148 178 228 312 370
#     4  11  20  33  58  86 120 153 181 233 291 367
#
# _framework density 18.012556
#
# number of rings (size 3 to 8) (size 9 to 14) (size 15 to 20)
#    0.000    1.538    8.462    0.923    0.000    0.000 
#    4.154    1.538    0.000    0.000    0.000    0.000 
#    0.000    0.000    0.000    0.000    0.000    0.000 
#
# Total GULP energy -144881.339940 kJ/mol
# GULP energy per Si atom -5572.359228 kJ/mol
# Density = 1.797156 g / cm^3
# Si number density = 18.012556 Si / 1000 Ang^3
#
#
#
# Elastic Constant Matrix: (Units=GPa)
#
#
# Indices 1 2 3 4 5 6 
#
# 1 130.7917 46.3259 46.9654 -0.0002 22.1423 -0.0001
# 2 46.3259 90.6779 35.3767 -0.0001 9.1732 0.0000
# 3 46.9654 35.3767 95.7085 -0.0007 24.8071 -0.0003
# 4 -0.0002 -0.0001 -0.0007 18.6550 -0.0002 5.2637
# 5 22.1423 9.1732 24.8071 -0.0002 27.1764 -0.0002
# 6 -0.0001 0.0000 -0.0003 5.2637 -0.0002 14.8829
#
#
#
# Elastic Compliance Matrix: (Units=1/GPa)
#
#
# Indices 1 2 3 4 5 6 
#
# 1 0.010853 -0.004051 -0.002477 0.000000 -0.005214 0.000000
# 2 -0.004051 0.014398 -0.003838 0.000000 0.001944 0.000000
# 3 -0.002477 -0.003838 0.016012 0.000000 -0.011303 0.000000
# 4 0.000000 0.000000 0.000000 0.059547 0.000000 -0.021060
# 5 -0.005214 0.001944 -0.011303 0.000000 0.050706 0.000000
# 6 0.000000 0.000000 0.000000 -0.021060 0.000000 0.074640
#
#
# Mechanical properties :
#
#
# Convention : Reuss Voigt Hill
#
# Bulk Modulus (GPa) = 48.70519 63.83489 56.27004
# Shear Modulus (GPa) = 19.70594 24.71021 22.20807
#
# Velocity S-wave (km/s) = 3.31117 3.70784 3.51511
# Velocity P-wave (km/s) = 6.45885 7.33804 6.91244
#
# Compressibility (1/GPa) = 0.02053169
#
# Stress axis : x y z
#
# Youngs Moduli (GPa) = 92.14407 69.45311 62.45307
#
# Poissons Ratio (x) = 0.28133 0.15468
# Poissons Ratio (y) = 0.37324 0.23970
# Poissons Ratio (z) = 0.22822 0.26657
#
# Static dielectric constant tensor:
#      x y z
#    x 1.697690 0.000000 0.043900 
#    y 0.000000 1.591900 0.000000 
#    z 0.043900 0.000000 1.664280 
# 
# From -- ./inp_files/136924.got.cif
#   From: 2010.05.17/outbox.cif.g08.bks.cpg/sg15_69_cif.got.tgz:136924.got - 2010.06.03 18:47:42.
