data_PCOD9259191
_publ_section_title
;
Structure prediction by ZEFSAII (Michael W. Deem and Ramdas Pophale) SiO2 
 PCOD9259191
Probable space group: C 2/C
;
_chemical_formula_sum "Si O2"
_cell_formula_units_Z 44
_cell_length_a 16.745709
_cell_length_b 10.910398
_cell_length_c 10.903138
_cell_angle_alpha 90.000000
_cell_angle_beta 59.272404
_cell_angle_gamma 90.000000
_cell_volume 1712.360569
_symmetry_space_group_name_H-M "C 2/C"
_symmetry_group_IT_number 15
_symmetry_cell_setting 'monoclinic'
loop_
_space_group_symop_operation_xyz
x,y,z
-x,y,1/2-z
-x,-y,-z
x,-y,1/2+z
1/2+x,1/2+y,z
1/2-x,1/2+y,1/2-z
1/2-x,1/2-y,-z
1/2+x,1/2-y,1/2+z
loop_
_atom_site_type_symbol
_atom_site_label
_atom_site_fract_x
_atom_site_fract_y
_atom_site_fract_z
Si Si1 0.670263 0.402698 0.078016
Si Si2 0.578105 0.185310 0.588840
Si Si3 0.304535 0.333456 0.840367
Si Si4 0.533245 0.360133 0.985243
Si Si5 0.500000 0.952010 0.750000
Si Si6 0.170596 0.316284 0.734403
O O1 0.670085 0.546251 0.102488
O O2 0.678818 0.328202 0.197710
O O3 0.577423 0.352694 0.085432
O O4 0.755670 0.373177 0.921403
O O5 0.500000 0.232204 0.750000
O O6 0.669751 0.215962 0.597040
O O7 0.546561 0.267282 0.497273
O O8 0.554092 0.041464 0.611529
O O9 0.378169 0.334330 0.670429
O O10 0.206884 0.344583 0.843360
O O11 0.500000 0.500000 0.000000
O O12 0.574989 0.876521 0.766900
#
# Coordination Sequence:
#
# PCOD9259191 Si02
#       6
#     8   8   8   8   4   8
#     4  10  22  40  62  91 127 157 213 258 319 367
#     4   8  18  35  63  84 125 162 198 251 307 360
#     4  10  20  37  63  89 123 168 203 263 311 361
#     4  10  18  34  61  94 120 159 206 258 309 358
#     4  10  22  42  62  88 126 168 212 244 326 378
#     4  10  24  40  63  90 127 169 203 263 313 378
#
# _framework density 25.695523999999999
#
# number of rings (size 3 to 8) (size 9 to 14) (size 15 to 20)
#    0.545    1.818    1.818    0.000    2.545    2.909 
#    0.000    6.364    0.000    0.000    0.000    0.000 
#    0.000    0.000    0.000    0.000    0.000    0.000 
#
# Total GULP energy -123043.513551 kJ/mol
# GULP energy per Si atom -5592.886980 kJ/mol
# Density = 2.563704 g / cm^3
# Si number density = 25.695524 Si / 1000 Ang^3
#
#
#
# Elastic Constant Matrix: (Units=GPa)
#
#
# Indices 1 2 3 4 5 6 
#
# 1 203.0879 50.5199 26.9314 0.0000 6.3269 0.0000
# 2 50.5199 105.1551 30.9319 0.0000 18.0229 0.0000
# 3 26.9314 30.9319 63.2627 0.0000 35.7681 0.0000
# 4 0.0000 0.0000 0.0000 33.2932 0.0000 3.1669
# 5 6.3269 18.0229 35.7681 0.0000 42.3661 0.0000
# 6 0.0000 0.0000 0.0000 3.1669 0.0000 43.7823
#
#
#
# Elastic Compliance Matrix: (Units=1/GPa)
#
#
# Indices 1 2 3 4 5 6 
#
# 1 0.005802 -0.002421 -0.002637 0.000000 0.002390 0.000000
# 2 -0.002421 0.012119 -0.004179 0.000000 -0.001266 0.000000
# 3 -0.002637 -0.004179 0.033952 0.000000 -0.026492 0.000000
# 4 0.000000 0.000000 0.000000 0.030244 0.000000 -0.002188
# 5 0.002390 -0.001266 -0.026492 0.000000 0.046152 0.000000
# 6 0.000000 0.000000 0.000000 -0.002188 0.000000 0.022999
#
#
# Mechanical properties :
#
#
# Convention : Reuss Voigt Hill
#
# Bulk Modulus (GPa) = 29.94284 65.36355 47.65320
# Shear Modulus (GPa) = 27.64336 41.42982 34.53659
#
# Velocity S-wave (km/s) = 3.28350 4.01975 3.67013
# Velocity P-wave (km/s) = 5.10426 6.85838 6.04528
#
# Compressibility (1/GPa) = 0.03339696
#
# Stress axis : x y z
#
# Youngs Moduli (GPa) = 172.36848 82.51339 29.45342
#
# Poissons Ratio (x) = 0.19977 0.07768
# Poissons Ratio (y) = 0.41732 0.12310
# Poissons Ratio (z) = 0.45460 0.34486
#
# Static dielectric constant tensor:
#      x y z
#    x 2.124880 0.000000 -0.214620 
#    y 0.000000 1.899420 0.000000 
#    z -0.214620 0.000000 2.393090 
# 
# From -- ./inp_files/103621.got.cif
#   From: 2010.05.17/outbox.cif.g08.bks.cpg/sg15_52_cif.got.tgz:103621.got - 2010.06.03 18:47:42.
