data_PCOD9259242
_publ_section_title
;
Structure prediction by ZEFSAII (Michael W. Deem and Ramdas Pophale) SiO2 
 PCOD9259242
Probable space group: C 2/C
;
_chemical_formula_sum "Si O2"
_cell_formula_units_Z 52
_cell_length_a 10.049359
_cell_length_b 14.750123
_cell_length_c 21.176617
_cell_angle_alpha 90.000000
_cell_angle_beta 40.841778
_cell_angle_gamma 90.000000
_cell_volume 2052.815921
_symmetry_space_group_name_H-M "C 2/C"
_symmetry_group_IT_number 15
_symmetry_cell_setting 'monoclinic'
loop_
_space_group_symop_operation_xyz
x,y,z
-x,y,1/2-z
-x,-y,-z
x,-y,1/2+z
1/2+x,1/2+y,z
1/2-x,1/2+y,1/2-z
1/2-x,1/2-y,-z
1/2+x,1/2-y,1/2+z
loop_
_atom_site_type_symbol
_atom_site_label
_atom_site_fract_x
_atom_site_fract_y
_atom_site_fract_z
Si Si1 0.706703 0.413883 0.381642
Si Si2 0.664379 0.873299 0.444411
Si Si3 0.500000 0.238254 0.750000
Si Si4 0.701542 0.334271 0.919180
Si Si5 0.932178 0.116328 0.171997
Si Si6 0.000000 0.980626 0.250000
Si Si7 0.000000 0.560865 0.250000
Si Si8 0.344974 0.959022 0.469965
O O1 0.800375 0.324232 0.318473
O O2 0.471118 0.396411 0.484163
O O3 0.800507 0.497599 0.307873
O O4 0.828368 0.434332 0.402874
O O5 0.686629 0.767260 0.449656
O O6 0.867406 0.914681 0.341024
O O7 0.494860 0.891551 0.452366
O O8 0.608607 0.939325 0.522555
O O9 0.488982 0.299015 0.815488
O O10 0.660229 0.336907 0.858093
O O11 0.926125 0.377922 0.835155
O O12 0.121863 0.062224 0.075718
O O13 0.864685 0.047351 0.253709
#
# Coordination Sequence:
#
# PCOD9259242 Si02
#       8
#     8   8   4   8   8   4   4   8
#     4  10  22  40  61  85 121 162 205 247 305 359
#     4  10  19  33  59  88 119 154 193 252 300 362
#     4  10  18  34  62  94 118 156 212 246 292 358
#     4  11  22  40  61  86 123 158 206 256 301 357
#     4   9  19  35  57  88 120 159 199 255 298 355
#     4   9  19  33  53  88 126 152 199 241 311 363
#     4  11  25  41  61  82 116 168 207 247 301 373
#     4   9  19  36  59  87 119 159 194 248 312 355
#
# _framework density 25.331059
#
# number of rings (size 3 to 8) (size 9 to 14) (size 15 to 20)
#    0.000    2.154    0.000    2.769    2.154    3.692 
#    0.000    0.769    0.000    0.000    0.000    0.000 
#    0.000    0.000    0.000    0.000    0.000    0.000 
#
# Total GULP energy -145175.971651 kJ/mol
# GULP energy per Si atom -5583.691217 kJ/mol
# Density = 2.527340 g / cm^3
# Si number density = 25.331059 Si / 1000 Ang^3
#
#
#
# Elastic Constant Matrix: (Units=GPa)
#
#
# Indices 1 2 3 4 5 6 
#
# 1 76.9335 9.7640 14.1654 -0.0010 18.5763 -0.0002
# 2 9.7640 152.2762 30.7840 -0.0004 0.7536 0.0000
# 3 14.1654 30.7840 119.7262 -0.0041 -17.8137 -0.0018
# 4 -0.0010 -0.0004 -0.0041 -8.4195 0.0008 -23.3600
# 5 18.5763 0.7536 -17.8137 0.0008 42.6727 0.0003
# 6 -0.0002 0.0000 -0.0018 -23.3600 0.0003 5.8381
#
#
#
# Elastic Compliance Matrix: (Units=1/GPa)
#
#
# Indices 1 2 3 4 5 6 
#
# 1 0.015507 -0.000363 -0.002926 0.000000 -0.007966 0.000000
# 2 -0.000363 0.006970 -0.001859 0.000000 -0.000741 0.000000
# 3 -0.002926 -0.001859 0.009992 -0.000001 0.005478 -0.000001
# 4 0.000000 0.000000 -0.000001 -0.009814 0.000000 -0.039271
# 5 -0.007966 -0.000741 0.005478 0.000000 0.029202 0.000000
# 6 0.000000 0.000000 -0.000001 -0.039271 0.000000 0.014154
#
#
# Mechanical properties :
#
#
# Convention : Reuss Voigt Hill
#
# Bulk Modulus (GPa) = 45.10602 50.92920 48.01761
# Shear Modulus (GPa) = 59.73897 27.63309 43.68603
#
# Velocity S-wave (km/s) = 4.86153 3.30643 4.15734
# Velocity P-wave (km/s) = 7.02552 5.89285 6.48397
#
# Compressibility (1/GPa) = 0.02216999
#
# Stress axis : x y z
#
# Youngs Moduli (GPa) = 64.48899 143.47479 100.08261
#
# Poissons Ratio (x) = 0.05212 0.29288
# Poissons Ratio (y) = 0.02343 0.18609
# Poissons Ratio (z) = 0.18872 0.26678
#
# Static dielectric constant tensor:
#      x y z
#    x 2.102300 0.000000 -0.013520 
#    y 0.000000 2.018580 0.000000 
#    z -0.013520 0.000000 2.049160 
# 
# From -- ./inp_files/197733.got.cif
#   From: 2010.05.17/outbox.cif.g08.bks.cpg/sg15_99_cif.got.tgz:197733.got - 2010.06.03 18:47:42.
