data_PCOD9259564
_publ_section_title
;
Structure prediction by ZEFSAII (Michael W. Deem and Ramdas Pophale) SiO2 
 PCOD9259564
Probable space group: C 2/C
;
_chemical_formula_sum "Si O2"
_cell_formula_units_Z 56
_cell_length_a 9.153564
_cell_length_b 21.701353
_cell_length_c 14.952349
_cell_angle_alpha 90.000000
_cell_angle_beta 110.942383
_cell_angle_gamma 90.000000
_cell_volume 2773.994461
_symmetry_space_group_name_H-M "C 2/C"
_symmetry_group_IT_number 15
_symmetry_cell_setting 'monoclinic'
loop_
_space_group_symop_operation_xyz
x,y,z
-x,y,1/2-z
-x,-y,-z
x,-y,1/2+z
1/2+x,1/2+y,z
1/2-x,1/2+y,1/2-z
1/2-x,1/2-y,-z
1/2+x,1/2-y,1/2+z
loop_
_atom_site_type_symbol
_atom_site_label
_atom_site_fract_x
_atom_site_fract_y
_atom_site_fract_z
Si Si1 0.475866 0.365807 0.597994
Si Si2 0.961298 0.544995 0.407186
Si Si3 0.655606 0.741781 0.239351
Si Si4 0.681243 0.204780 0.561167
Si Si5 0.714592 0.581278 0.010157
Si Si6 0.135823 0.990475 0.838370
Si Si7 0.659089 0.819356 0.560973
O O1 0.584011 0.319449 0.677359
O O2 0.578698 0.392323 0.541214
O O3 0.423382 0.422844 0.647375
O O4 0.314130 0.331751 0.536290
O O5 0.806970 0.514761 0.329844
O O6 0.900930 0.612826 0.422163
O O7 0.000000 0.500000 0.500000
O O8 0.131291 0.557896 0.401882
O O9 0.500000 0.772078 0.250000
O O10 0.728555 0.779078 0.172687
O O11 0.778088 0.720155 0.341164
O O12 0.750000 0.250000 0.500000
O O13 0.729363 0.136477 0.542321
O O14 0.492449 0.210181 0.517053
O O15 0.656442 0.526677 0.934989
O O16 0.000000 0.019971 0.750000
#
# Coordination Sequence:
#
# PCOD9259564 Si02
#       7
#     8   8   8   8   8   8   8
#     4  10  18  35  60  87 113 147 205 254 306 374
#     4   8  16  33  58  81 113 153 192 248 312 363
#     4  10  21  38  59  87 116 156 209 255 305 369
#     4  11  22  41  57  84 123 159 208 261 307 367
#     4  10  20  36  57  85 117 156 200 251 309 373
#     4  10  19  35  55  84 119 153 193 247 314 381
#     4   9  20  36  60  83 114 163 199 249 313 366
#
# _framework density 20.187494000000001
#
# number of rings (size 3 to 8) (size 9 to 14) (size 15 to 20)
#    0.000    2.286    1.429    2.571    0.000    2.857 
#    2.571    2.143    0.000    0.000    0.000    0.000 
#    0.000    0.000    0.000    0.000    0.000    0.000 
#
# Total GULP energy -156041.865851 kJ/mol
# GULP energy per Si atom -5572.923780 kJ/mol
# Density = 2.014155 g / cm^3
# Si number density = 20.187494 Si / 1000 Ang^3
#
#
#
# Elastic Constant Matrix: (Units=GPa)
#
#
# Indices 1 2 3 4 5 6 
#
# 1 134.1176 11.3367 50.2584 0.0000 10.6687 0.0000
# 2 11.3367 36.2351 10.1849 0.0000 2.3512 0.0000
# 3 50.2584 10.1849 55.8960 0.0000 10.3307 0.0000
# 4 0.0000 0.0000 0.0000 24.2422 0.0000 -2.9866
# 5 10.6687 2.3512 10.3307 0.0000 32.5305 0.0000
# 6 0.0000 0.0000 0.0000 -2.9866 0.0000 23.1467
#
#
#
# Elastic Compliance Matrix: (Units=1/GPa)
#
#
# Indices 1 2 3 4 5 6 
#
# 1 0.011270 -0.000708 -0.009913 0.000000 -0.000497 0.000000
# 2 -0.000708 0.029138 -0.004597 0.000000 -0.000414 0.000000
# 3 -0.009913 -0.004597 0.028661 0.000000 -0.005519 0.000000
# 4 0.000000 0.000000 0.000000 0.041917 0.000000 0.005409
# 5 -0.000497 -0.000414 -0.005519 0.000000 0.032686 0.000000
# 6 0.000000 0.000000 0.000000 0.005409 0.000000 0.043901
#
#
# Mechanical properties :
#
#
# Convention : Reuss Voigt Hill
#
# Bulk Modulus (GPa) = 25.88313 41.08987 33.48650
# Shear Modulus (GPa) = 21.65596 26.28180 23.96888
#
# Velocity S-wave (km/s) = 3.27883 3.61208 3.44948
# Velocity P-wave (km/s) = 5.21378 6.14772 5.69991
#
# Compressibility (1/GPa) = 0.03863521
#
# Stress axis : x y z
#
# Youngs Moduli (GPa) = 88.73056 34.31971 34.89100
#
# Poissons Ratio (x) = 0.02428 0.34586
# Poissons Ratio (y) = 0.06278 0.16038
# Poissons Ratio (z) = 0.87955 0.15775
#
# Static dielectric constant tensor:
#      x y z
#    x 1.772410 0.000000 0.017480 
#    y 0.000000 1.734660 0.000000 
#    z 0.017480 0.000000 1.741230 
# 
# From -- ./inp_files/137464.got.cif
#   From: 2010.05.17/outbox.cif.g08.bks.cpg/sg15_69_cif.got.tgz:137464.got - 2010.06.03 18:47:42.
