data_PCOD9259379
_publ_section_title
;
Structure prediction by ZEFSAII (Michael W. Deem and Ramdas Pophale) SiO2 
 PCOD9259379
Probable space group: C 2/C
;
_chemical_formula_sum "Si O2"
_cell_formula_units_Z 64
_cell_length_a 22.820749
_cell_length_b 21.743579
_cell_length_c 11.559872
_cell_angle_alpha 90.000000
_cell_angle_beta 151.308098
_cell_angle_gamma 90.000000
_cell_volume 2753.881329
_symmetry_space_group_name_H-M "C 2/C"
_symmetry_group_IT_number 15
_symmetry_cell_setting 'monoclinic'
loop_
_space_group_symop_operation_xyz
x,y,z
-x,y,1/2-z
-x,-y,-z
x,-y,1/2+z
1/2+x,1/2+y,z
1/2-x,1/2+y,1/2-z
1/2-x,1/2-y,-z
1/2+x,1/2-y,1/2+z
loop_
_atom_site_type_symbol
_atom_site_label
_atom_site_fract_x
_atom_site_fract_y
_atom_site_fract_z
Si Si1 0.478449 0.374884 0.441722
Si Si2 0.806571 0.143985 0.458721
Si Si3 0.256550 0.594130 0.726826
Si Si4 0.646977 0.813571 0.481920
Si Si5 0.873619 0.178103 0.107746
Si Si6 0.902966 0.975006 0.994525
Si Si7 0.078321 0.563618 0.763944
Si Si8 0.891982 0.575561 0.232335
O O1 0.366403 0.382293 0.335353
O O2 0.585935 0.342346 0.695439
O O3 0.522876 0.443121 0.481698
O O4 0.422116 0.336634 0.236754
O O5 0.855088 0.086812 0.470022
O O6 0.710468 0.113133 0.377885
O O7 0.730012 0.186510 0.240916
O O8 0.129776 0.599006 0.437546
O O9 0.277212 0.632455 0.879280
O O10 0.292230 0.522320 0.797950
O O11 0.500000 0.814837 0.250000
O O12 0.669225 0.748130 0.463785
O O13 0.662735 0.878556 0.443110
O O14 0.000000 0.176318 0.250000
O O15 0.000000 0.005780 0.250000
O O16 0.132766 0.497640 0.822970
O O17 0.000000 0.553183 0.750000
O O18 0.003201 0.580873 0.516437
#
# Coordination Sequence:
#
# PCOD9259379 Si02
#       8
#     8   8   8   8   8   8   8   8
#     4   9  19  34  50  80 109 144 182 224 278 327
#     4  10  19  34  55  83 105 140 190 221 274 335
#     4  10  19  32  52  81 114 138 183 220 277 329
#     4  10  18  35  56  77 109 147 181 231 269 321
#     4   9  19  35  52  78 114 147 180 232 269 321
#     4  10  19  32  55  78 110 146 175 226 280 326
#     4  10  19  35  56  79 117 140 186 229 277 324
#     4  10  20  33  54  84 108 143 179 231 276 327
#
# _framework density 23.239927999999999
#
# number of rings (size 3 to 8) (size 9 to 14) (size 15 to 20)
#    0.000    2.250    2.500    2.250    0.000    2.000 
#    2.250    3.125    0.000    0.000    0.000    0.000 
#    0.000    0.000    0.000    0.000    0.000    0.000 
#
# Total GULP energy -178301.597658 kJ/mol
# GULP energy per Si atom -5571.924927 kJ/mol
# Density = 2.318703 g / cm^3
# Si number density = 23.239928 Si / 1000 Ang^3
#
#
#
# Elastic Constant Matrix: (Units=GPa)
#
#
# Indices 1 2 3 4 5 6 
#
# 1 38.3774 15.8661 66.6521 0.0000 -4.0250 0.0000
# 2 15.8661 83.2444 65.1602 0.0000 -25.1816 0.0000
# 3 66.6521 65.1602 246.3965 0.0000 -33.6217 0.0000
# 4 0.0000 0.0000 0.0000 -69.0356 0.0000 28.1653
# 5 -4.0250 -25.1816 -33.6217 0.0000 35.8805 0.0000
# 6 0.0000 0.0000 0.0000 28.1653 0.0000 -17.9107
#
#
#
# Elastic Compliance Matrix: (Units=1/GPa)
#
#
# Indices 1 2 3 4 5 6 
#
# 1 0.051249 -0.000783 -0.014845 0.000000 -0.008711 0.000000
# 2 -0.000783 0.017394 -0.003135 0.000000 0.009182 0.000000
# 3 -0.014845 -0.003135 0.009604 0.000000 0.005134 0.000000
# 4 0.000000 0.000000 0.000000 -0.040413 0.000000 -0.063551
# 5 -0.008711 0.009182 0.005134 0.000000 0.038147 0.000000
# 6 0.000000 0.000000 0.000000 -0.063551 0.000000 -0.155769
#
#
# Mechanical properties :
#
#
# Convention : Reuss Voigt Hill
#
# Bulk Modulus (GPa) = 24.55780 73.70834 49.13307
# Shear Modulus (GPa) = -174.28135 4.47617 -84.90259
#
# Velocity S-wave (km/s) = -8.66920 1.38933 -6.05082
# Velocity P-wave (km/s) = 9.46661 5.86164 5.25632
#
# Compressibility (1/GPa) = 0.04072026
#
# Stress axis : x y z
#
# Youngs Moduli (GPa) = 19.51267 57.49273 104.12681
#
# Poissons Ratio (x) = 0.04502 1.54573
# Poissons Ratio (y) = 0.01528 0.32645
# Poissons Ratio (z) = 0.28966 0.18024
#
# Static dielectric constant tensor:
#      x y z
#    x 2.355130 0.000000 0.095430 
#    y 0.000000 1.653920 0.000000 
#    z 0.095430 0.000000 2.024900 
# 
# From -- ./inp_files/124309.got.cif
#   From: 2010.05.17/outbox.cif.g08.bks.cpg/sg15_63_cif.got.tgz:124309.got - 2010.06.03 18:47:42.
