data_PCOD9259329
_publ_section_title
;
Structure prediction by ZEFSAII (Michael W. Deem and Ramdas Pophale) SiO2 
 PCOD9259329
Probable space group: C 2/C
;
_chemical_formula_sum "Si O2"
_cell_formula_units_Z 56
_cell_length_a 33.834919
_cell_length_b 12.901569
_cell_length_c 9.689945
_cell_angle_alpha 90.000000
_cell_angle_beta 47.667054
_cell_angle_gamma 90.000000
_cell_volume 3126.920062
_symmetry_space_group_name_H-M "C 2/C"
_symmetry_group_IT_number 15
_symmetry_cell_setting 'monoclinic'
loop_
_space_group_symop_operation_xyz
x,y,z
-x,y,1/2-z
-x,-y,-z
x,-y,1/2+z
1/2+x,1/2+y,z
1/2-x,1/2+y,1/2-z
1/2-x,1/2-y,-z
1/2+x,1/2-y,1/2+z
loop_
_atom_site_type_symbol
_atom_site_label
_atom_site_fract_x
_atom_site_fract_y
_atom_site_fract_z
Si Si1 0.038785 0.986032 0.780712
Si Si2 0.335931 0.875760 0.981835
Si Si3 0.382982 0.325281 0.466647
Si Si4 0.284956 0.711177 0.717445
Si Si5 0.808554 0.557654 0.245644
Si Si6 0.133087 0.874709 0.696189
Si Si7 0.309686 0.573978 0.920624
O O1 0.068330 0.095215 0.675628
O O2 0.000000 0.953178 0.750000
O O3 0.082968 0.900876 0.717352
O O4 0.000000 0.000000 0.000000
O O5 0.277370 0.821083 0.142496
O O6 0.336445 0.972404 0.085520
O O7 0.380409 0.788187 0.904206
O O8 0.337168 0.917094 0.822529
O O9 0.377491 0.308296 0.643232
O O10 0.333005 0.383792 0.509715
O O11 0.296583 0.833269 0.697673
O O12 0.319264 0.665489 0.511575
O O13 0.304709 0.661802 0.816388
O O14 0.748271 0.523107 0.426032
O O15 0.149409 0.986114 0.722190
#
# Coordination Sequence:
#
# PCOD9259329 Si02
#       7
#     8   8   8   8   8   8   8
#     4  11  23  42  63  93 120 148 193 253 315 369
#     4  11  23  37  55  81 122 165 209 251 284 359
#     4  11  22  37  56  85 121 156 192 249 308 354
#     4  11  21  36  53  83 122 168 203 243 296 352
#     4  11  22  35  53  79 117 167 210 239 289 343
#     4  11  23  33  60  88 121 154 197 240 306 369
#     4  10  18  35  51  79 119 162 201 238 289 347
#
# _framework density 17.908995999999998
#
# number of rings (size 3 to 8) (size 9 to 14) (size 15 to 20)
#    0.000    1.143    5.714    2.571    6.000    0.571 
#    0.000    0.000    0.000    0.000    0.000    5.000 
#    0.000    0.000    0.000    0.000    0.000    0.000 
#
# Total GULP energy -156188.854373 kJ/mol
# GULP energy per Si atom -5578.173370 kJ/mol
# Density = 1.786823 g / cm^3
# Si number density = 17.908996 Si / 1000 Ang^3
#
#
#
# Elastic Constant Matrix: (Units=GPa)
#
#
# Indices 1 2 3 4 5 6 
#
# 1 69.1891 24.8240 15.3337 0.0000 13.3856 0.0000
# 2 24.8240 64.5825 8.3536 0.0000 14.7322 0.0000
# 3 15.3337 8.3536 70.3194 0.0000 16.1302 0.0000
# 4 0.0000 0.0000 0.0000 23.2014 0.0000 5.2449
# 5 13.3856 14.7322 16.1302 0.0000 23.7644 0.0000
# 6 0.0000 0.0000 0.0000 5.2449 0.0000 22.3511
#
#
#
# Elastic Compliance Matrix: (Units=1/GPa)
#
#
# Indices 1 2 3 4 5 6 
#
# 1 0.017870 -0.005386 -0.002030 0.000000 -0.005349 0.000000
# 2 -0.005386 0.019673 0.001112 0.000000 -0.009917 0.000000
# 3 -0.002030 0.001112 0.017088 0.000000 -0.011144 0.000000
# 4 0.000000 0.000000 0.000000 0.045515 0.000000 -0.010681
# 5 -0.005349 -0.009917 -0.011144 0.000000 0.058804 0.000000
# 6 0.000000 0.000000 0.000000 -0.010681 0.000000 0.047247
#
#
# Mechanical properties :
#
#
# Convention : Reuss Voigt Hill
#
# Bulk Modulus (GPa) = 23.79666 33.45707 28.62686
# Shear Modulus (GPa) = 21.47648 24.23535 22.85592
#
# Velocity S-wave (km/s) = 3.46670 3.68265 3.57631
# Velocity P-wave (km/s) = 5.41668 6.06669 5.75088
#
# Compressibility (1/GPa) = 0.04202271
#
# Stress axis : x y z
#
# Youngs Moduli (GPa) = 55.95874 50.83184 58.52156
#
# Poissons Ratio (x) = 0.27379 0.11880
# Poissons Ratio (y) = 0.30141 -0.06509
# Poissons Ratio (z) = 0.11360 -0.05654
#
# Static dielectric constant tensor:
#      x y z
#    x 1.614410 0.000000 0.006580 
#    y 0.000000 1.643820 0.000000 
#    z 0.006580 0.000000 1.609830 
# 
# From -- ./inp_files/69312.got.cif
#   From: 2010.05.17/outbox.cif.g08.bks.cpg/sg15_35_cif.got.tgz:69312.got - 2010.06.03 18:47:42.
