data_PCOD9259650
_publ_section_title
;
Structure prediction by ZEFSAII (Michael W. Deem and Ramdas Pophale) SiO2 
 PCOD9259650
Probable space group: C 2/C
;
_chemical_formula_sum "Si O2"
_cell_formula_units_Z 52
_cell_length_a 15.724686
_cell_length_b 27.840902
_cell_length_c 8.845912
_cell_angle_alpha 90.000000
_cell_angle_beta 34.933849
_cell_angle_gamma 90.000000
_cell_volume 2217.594943
_symmetry_space_group_name_H-M "C 2/C"
_symmetry_group_IT_number 15
_symmetry_cell_setting 'monoclinic'
loop_
_space_group_symop_operation_xyz
x,y,z
-x,y,1/2-z
-x,-y,-z
x,-y,1/2+z
1/2+x,1/2+y,z
1/2-x,1/2+y,1/2-z
1/2-x,1/2-y,-z
1/2+x,1/2-y,1/2+z
loop_
_atom_site_type_symbol
_atom_site_label
_atom_site_fract_x
_atom_site_fract_y
_atom_site_fract_z
Si Si1 0.297722 0.577394 0.951253
Si Si2 0.500000 0.218410 0.750000
Si Si3 0.000000 0.761103 0.250000
Si Si4 0.076000 0.194627 0.929719
Si Si5 0.633559 0.820441 0.344158
Si Si6 0.120113 0.886497 0.862713
Si Si7 0.000000 0.393820 0.750000
Si Si8 0.605686 0.524975 0.220770
O O1 0.452063 0.594655 0.649615
O O2 0.313908 0.520997 0.969177
O O3 0.291793 0.610939 0.108557
O O4 0.153341 0.579447 0.057767
O O5 0.573948 0.255644 0.525238
O O6 0.393955 0.188536 0.792719
O O7 0.900427 0.792833 0.281507
O O8 0.906944 0.727493 0.498892
O O9 0.204262 0.166219 0.829638
O O10 0.922264 0.164416 0.149213
O O11 0.524015 0.860221 0.569354
O O12 0.191060 0.929221 0.660943
O O13 0.500000 0.547261 0.250000
O O14 0.500000 0.500000 0.500000
#
# Coordination Sequence:
#
# PCOD9259650 Si02
#       8
#     8   4   4   8   8   8   4   8
#     4  10  19  38  59  92 117 152 201 255 303 356
#     4  10  24  40  52  86 128 170 192 256 310 366
#     4   9  20  34  60  88 111 158 203 256 298 355
#     4  11  20  37  59  89 117 156 209 251 299 362
#     4  10  21  39  58  83 124 163 202 247 312 356
#     4  10  20  35  62  89 116 150 204 255 296 357
#     4  11  22  38  66  88 117 168 207 254 298 367
#     4  10  18  35  62  87 117 153 190 254 311 351
#
# _framework density 23.448827000000001
#
# number of rings (size 3 to 8) (size 9 to 14) (size 15 to 20)
#    0.000    1.846    4.615    1.846    1.077    0.000 
#    8.308    0.769    0.000    0.000    0.000    0.000 
#    0.000    0.000    0.000    0.000    0.000    0.000 
#
# Total GULP energy -144945.601145 kJ/mol
# GULP energy per Si atom -5574.830813 kJ/mol
# Density = 2.339546 g / cm^3
# Si number density = 23.448827 Si / 1000 Ang^3
#
#
#
# Elastic Constant Matrix: (Units=GPa)
#
#
# Indices 1 2 3 4 5 6 
#
# 1 172.0903 30.0984 33.5278 0.0000 7.3278 0.0000
# 2 30.0984 59.5564 -2.2711 0.0000 0.7935 0.0000
# 3 33.5278 -2.2711 28.4404 0.0000 -2.5116 0.0000
# 4 0.0000 0.0000 0.0000 6.4074 0.0000 5.1079
# 5 7.3278 0.7935 -2.5116 0.0000 38.0314 0.0000
# 6 0.0000 0.0000 0.0000 5.1079 0.0000 24.4816
#
#
#
# Elastic Compliance Matrix: (Units=1/GPa)
#
#
# Indices 1 2 3 4 5 6 
#
# 1 0.008941 -0.004912 -0.011140 0.000000 -0.002356 0.000000
# 2 -0.004912 0.019543 0.007442 0.000000 0.001030 0.000000
# 3 -0.011140 0.007442 0.049352 0.000000 0.005250 0.000000
# 4 0.000000 0.000000 0.000000 0.187208 0.000000 -0.039060
# 5 -0.002356 0.001030 0.005250 0.000000 0.027073 0.000000
# 6 0.000000 0.000000 0.000000 -0.039060 0.000000 0.048997
#
#
# Mechanical properties :
#
#
# Convention : Reuss Voigt Hill
#
# Bulk Modulus (GPa) = 16.49724 42.53304 29.51514
# Shear Modulus (GPa) = 13.20866 27.03286 20.12076
#
# Velocity S-wave (km/s) = 2.37596 3.39904 2.93246
# Velocity P-wave (km/s) = 3.81807 5.79506 4.90715
#
# Compressibility (1/GPa) = 0.06061618
#
# Stress axis : x y z
#
# Youngs Moduli (GPa) = 111.84741 51.16860 20.26243
#
# Poissons Ratio (x) = 0.25133 0.22573
# Poissons Ratio (y) = 0.54938 -0.15080
# Poissons Ratio (z) = 1.24602 -0.38080
#
# Static dielectric constant tensor:
#      x y z
#    x 1.892900 0.000000 0.000210 
#    y 0.000000 1.950760 0.000000 
#    z 0.000210 0.000000 1.995990 
# 
# From -- ./inp_files/44804.got.cif
#   From: 2010.05.17/outbox.cif.g08.bks.cpg/sg15_23_cif.got.tgz:44804.got - 2010.06.03 18:47:42.
