data_PCOD9259198
_publ_section_title
;
Structure prediction by ZEFSAII (Michael W. Deem and Ramdas Pophale) SiO2 
 PCOD9259198
Probable space group: C 2/C
;
_chemical_formula_sum "Si O2"
_cell_formula_units_Z 44
_cell_length_a 19.744282
_cell_length_b 10.918894
_cell_length_c 16.363561
_cell_angle_alpha 90.000000
_cell_angle_beta 150.582511
_cell_angle_gamma 90.000000
_cell_volume 1732.723828
_symmetry_space_group_name_H-M "C 2/C"
_symmetry_group_IT_number 15
_symmetry_cell_setting 'monoclinic'
loop_
_space_group_symop_operation_xyz
x,y,z
-x,y,1/2-z
-x,-y,-z
x,-y,1/2+z
1/2+x,1/2+y,z
1/2-x,1/2+y,1/2-z
1/2-x,1/2-y,-z
1/2+x,1/2-y,1/2+z
loop_
_atom_site_type_symbol
_atom_site_label
_atom_site_fract_x
_atom_site_fract_y
_atom_site_fract_z
Si Si1 0.285873 0.507877 0.923744
Si Si2 0.969092 0.633512 0.305891
Si Si3 0.500000 0.330858 0.750000
Si Si4 0.369584 0.636897 0.275910
Si Si5 0.481453 0.637424 0.899655
Si Si6 0.148762 0.503434 0.612466
O O1 0.142306 0.474614 0.814675
O O2 0.380857 0.388807 0.008501
O O3 0.248292 0.548554 0.790915
O O4 0.378811 0.596946 0.074876
O O5 0.000000 0.680134 0.250000
O O6 0.904925 0.743488 0.289618
O O7 0.109093 0.590367 0.496202
O O8 0.587723 0.288355 0.760354
O O9 0.465377 0.666505 0.453587
O O10 0.402171 0.489981 0.301568
O O11 0.212166 0.622799 0.142134
O O12 0.000000 0.500000 0.500000
#
# Coordination Sequence:
#
# PCOD9259198 Si02
#       6
#     8   8   4   8   8   8
#     4   9  20  36  51  80 112 149 187 222 277 335
#     4  11  22  32  55  89 116 143 180 236 290 328
#     4  10  18  34  62  78 104 148 200 234 254 340
#     4   9  18  35  53  76 111 151 189 220 277 339
#     4   9  20  33  50  79 113 146 178 227 281 334
#     4   9  19  37  55  78 117 155 181 217 286 347
#
# _framework density 25.393545
#
# number of rings (size 3 to 8) (size 9 to 14) (size 15 to 20)
#    0.000    2.545    0.000    2.182    7.636    0.727 
#    0.000    0.000    0.000    1.091   21.273    0.000 
#    0.000    0.000    0.000    0.000    0.000    0.000 
#
# Total GULP energy -122630.998847 kJ/mol
# GULP energy per Si atom -5574.136311 kJ/mol
# Density = 2.533575 g / cm^3
# Si number density = 25.393545 Si / 1000 Ang^3
#
#
#
# Elastic Constant Matrix: (Units=GPa)
#
#
# Indices 1 2 3 4 5 6 
#
# 1 110.7266 -0.6964 20.6559 0.0000 0.7974 0.0000
# 2 -0.6964 40.2472 24.1080 0.0000 3.0599 0.0000
# 3 20.6559 24.1080 108.9091 0.0000 2.4224 0.0000
# 4 0.0000 0.0000 0.0000 18.8514 0.0000 -3.0172
# 5 0.7974 3.0599 2.4224 0.0000 44.8359 0.0000
# 6 0.0000 0.0000 0.0000 -3.0172 0.0000 13.6385
#
#
#
# Elastic Compliance Matrix: (Units=1/GPa)
#
#
# Indices 1 2 3 4 5 6 
#
# 1 0.009434 0.001435 -0.002103 0.000000 -0.000152 0.000000
# 2 0.001435 0.028980 -0.006650 0.000000 -0.001644 0.000000
# 3 -0.002103 -0.006650 0.011055 0.000000 -0.000106 0.000000
# 4 0.000000 0.000000 0.000000 0.054994 0.000000 0.012166
# 5 -0.000152 -0.001644 -0.000106 0.000000 0.022424 0.000000
# 6 0.000000 0.000000 0.000000 0.012166 0.000000 0.076013
#
#
# Mechanical properties :
#
#
# Convention : Reuss Voigt Hill
#
# Bulk Modulus (GPa) = 28.71031 38.66865 33.68948
# Shear Modulus (GPa) = 21.81987 29.85285 25.83636
#
# Velocity S-wave (km/s) = 2.93451 3.43243 3.19319
# Velocity P-wave (km/s) = 4.77624 5.56503 5.18566
#
# Compressibility (1/GPa) = 0.03483070
#
# Stress axis : x y z
#
# Youngs Moduli (GPa) = 106.00227 34.50666 90.45345
#
# Poissons Ratio (x) = -0.04951 0.19026
# Poissons Ratio (y) = -0.15208 0.60156
# Poissons Ratio (z) = 0.22297 0.22949
#
# Static dielectric constant tensor:
#      x y z
#    x 2.183510 0.000000 0.064960 
#    y 0.000000 2.020280 0.000000 
#    z 0.064960 0.000000 2.013140 
# 
# From -- ./inp_files/168554.got.cif
#   From: 2010.05.17/outbox.cif.g08.bks.cpg/sg15_85_cif.got.tgz:168554.got - 2010.06.03 18:47:42.
