data_PCOD9259519
_publ_section_title
;
Structure prediction by ZEFSAII (Michael W. Deem and Ramdas Pophale) SiO2 
 PCOD9259519
Probable space group: C 2/C
;
_chemical_formula_sum "Si O2"
_cell_formula_units_Z 64
_cell_length_a 33.105567
_cell_length_b 12.309818
_cell_length_c 14.872681
_cell_angle_alpha 90.000000
_cell_angle_beta 142.667292
_cell_angle_gamma 90.000000
_cell_volume 3675.627469
_symmetry_space_group_name_H-M "C 2/C"
_symmetry_group_IT_number 15
_symmetry_cell_setting 'monoclinic'
loop_
_space_group_symop_operation_xyz
x,y,z
-x,y,1/2-z
-x,-y,-z
x,-y,1/2+z
1/2+x,1/2+y,z
1/2-x,1/2+y,1/2-z
1/2-x,1/2-y,-z
1/2+x,1/2-y,1/2+z
loop_
_atom_site_type_symbol
_atom_site_label
_atom_site_fract_x
_atom_site_fract_y
_atom_site_fract_z
Si Si1 0.331694 0.293829 0.349566
Si Si2 0.020889 0.045272 0.636467
Si Si3 0.605126 0.511242 0.958224
Si Si4 0.554455 0.134274 0.919737
Si Si5 0.437804 0.126441 0.073996
Si Si6 0.014111 0.374274 0.540501
Si Si7 0.624588 0.736083 0.777011
Si Si8 0.317587 0.268828 0.933796
O O1 0.358320 0.405284 0.439030
O O2 0.377492 0.198266 0.470401
O O3 0.346125 0.293334 0.267809
O O4 0.254677 0.266044 0.227346
O O5 0.071180 0.989017 0.799639
O O6 0.953364 0.049302 0.576299
O O7 0.063381 0.154409 0.691857
O O8 0.000000 0.000000 0.500000
O O9 0.657251 0.610352 0.045191
O O10 0.500000 0.159499 0.750000
O O11 0.567700 0.004645 0.941306
O O12 0.520936 0.173837 0.953743
O O13 0.500000 0.150724 0.250000
O O14 0.459141 0.166100 0.012638
O O15 0.372956 0.185780 0.994536
O O16 0.087467 0.352646 0.710229
O O17 0.000000 0.500000 0.500000
O O18 0.677938 0.734309 0.950048
#
# Coordination Sequence:
#
# PCOD9259519 Si02
#       8
#     8   8   8   8   8   8   8   8
#     4  11  23  38  57  82 123 155 191 237 298 353
#     4  10  19  36  63  87 114 147 195 253 290 339
#     4  10  23  36  58  91 115 155 200 241 300 351
#     4   9  21  35  57  83 111 152 189 235 290 343
#     4  10  18  35  59  84 112 144 194 242 281 331
#     4   9  17  31  54  85 112 137 186 239 284 328
#     4  10  19  36  58  87 112 153 196 241 288 345
#     4  11  23  36  60  83 119 156 197 238 291 358
#
# _framework density 17.411992999999999
#
# number of rings (size 3 to 8) (size 9 to 14) (size 15 to 20)
#    0.000    2.000    2.500    1.125    5.250    0.000 
#    0.000    0.000    0.000    3.000    0.000    0.000 
#    0.000    0.000    0.000    0.000    0.000    0.000 
#
# Total GULP energy -178198.356836 kJ/mol
# GULP energy per Si atom -5568.698651 kJ/mol
# Density = 1.737236 g / cm^3
# Si number density = 17.411993 Si / 1000 Ang^3
#
#
#
# Elastic Constant Matrix: (Units=GPa)
#
#
# Indices 1 2 3 4 5 6 
#
# 1 89.1822 39.4977 57.9909 0.0000 5.9782 0.0000
# 2 39.4977 57.9804 60.3265 0.0000 12.5869 0.0000
# 3 57.9909 60.3265 120.1938 0.0000 19.8882 0.0000
# 4 0.0000 0.0000 0.0000 21.0071 0.0000 -0.6649
# 5 5.9782 12.5869 19.8882 0.0000 28.4052 0.0000
# 6 0.0000 0.0000 0.0000 -0.6649 0.0000 19.7005
#
#
#
# Elastic Compliance Matrix: (Units=1/GPa)
#
#
# Indices 1 2 3 4 5 6 
#
# 1 0.017713 -0.006952 -0.005598 0.000000 0.003272 0.000000
# 2 -0.006952 0.039183 -0.015474 0.000000 -0.005065 0.000000
# 3 -0.005598 -0.015474 0.019745 0.000000 -0.005790 0.000000
# 4 0.000000 0.000000 0.000000 0.047654 0.000000 0.001608
# 5 0.003272 -0.005065 -0.005790 0.000000 0.040815 0.000000
# 6 0.000000 0.000000 0.000000 0.001608 0.000000 0.050815
#
#
# Mechanical properties :
#
#
# Convention : Reuss Voigt Hill
#
# Bulk Modulus (GPa) = 48.56076 64.77628 56.66852
# Shear Modulus (GPa) = 17.93164 21.12531 19.52848
#
# Velocity S-wave (km/s) = 3.21260 3.48697 3.35259
# Velocity P-wave (km/s) = 6.45840 7.31401 6.89948
#
# Compressibility (1/GPa) = 0.02059276
#
# Stress axis : x y z
#
# Youngs Moduli (GPa) = 56.45603 25.52144 50.64454
#
# Poissons Ratio (x) = 0.17743 0.28352
# Poissons Ratio (y) = 0.39249 0.78367
# Poissons Ratio (z) = 0.31605 0.39491
#
# Static dielectric constant tensor:
#      x y z
#    x 1.621990 0.000000 -0.021220 
#    y 0.000000 1.612780 0.000000 
#    z -0.021220 0.000000 1.628150 
# 
# From -- ./inp_files/181775.got.cif
#   From: 2010.05.17/outbox.cif.g08.bks.cpg/sg15_91_cif.got.tgz:181775.got - 2010.06.03 18:47:42.
