data_PCOD9259210
_publ_section_title
;
Structure prediction by ZEFSAII (Michael W. Deem and Ramdas Pophale) SiO2 
 PCOD9259210
Probable space group: C 2/C
;
_chemical_formula_sum "Si O2"
_cell_formula_units_Z 60
_cell_length_a 12.706836
_cell_length_b 12.242333
_cell_length_c 21.948284
_cell_angle_alpha 90.000000
_cell_angle_beta 60.069588
_cell_angle_gamma 90.000000
_cell_volume 2958.945205
_symmetry_space_group_name_H-M "C 2/C"
_symmetry_group_IT_number 15
_symmetry_cell_setting 'monoclinic'
loop_
_space_group_symop_operation_xyz
x,y,z
-x,y,1/2-z
-x,-y,-z
x,-y,1/2+z
1/2+x,1/2+y,z
1/2-x,1/2+y,1/2-z
1/2-x,1/2-y,-z
1/2+x,1/2-y,1/2+z
loop_
_atom_site_type_symbol
_atom_site_label
_atom_site_fract_x
_atom_site_fract_y
_atom_site_fract_z
Si Si1 0.612890 0.652959 0.465002
Si Si2 0.629117 0.328801 0.310237
Si Si3 0.373678 0.939966 0.890169
Si Si4 0.365869 0.843478 0.316752
Si Si5 0.010653 0.013237 0.092657
Si Si6 0.273603 0.667791 0.436421
Si Si7 0.500000 0.201826 0.250000
Si Si8 0.471751 0.843364 0.558684
O O1 0.752273 0.628545 0.438413
O O2 0.577411 0.606500 0.409006
O O3 0.536932 0.576109 0.532870
O O4 0.566969 0.774513 0.490641
O O5 0.766391 0.349997 0.291690
O O6 0.554702 0.441814 0.337161
O O7 0.602062 0.275531 0.253066
O O8 0.577235 0.241722 0.375166
O O9 0.441437 0.874771 0.817398
O O10 0.459918 0.937908 0.924174
O O11 0.343909 0.057467 0.870681
O O12 0.500000 0.848091 0.250000
O O13 0.339780 0.735544 0.363643
O O14 0.137226 0.070470 0.071150
O O15 0.250000 0.750000 0.500000
O O16 0.144782 0.627882 0.447671
#
# Coordination Sequence:
#
# PCOD9259210 Si02
#       8
#     8   8   8   8   8   8   4   8
#     4  10  18  34  62  87 111 153 196 238 291 369
#     4   9  20  41  58  80 115 154 199 236 290 361
#     4  11  20  37  62  84 116 157 197 244 302 357
#     4  11  23  41  59  86 122 162 198 242 309 365
#     4  10  19  35  61  86 113 155 194 232 302 350
#     4  11  21  39  63  89 124 158 200 251 299 357
#     4  10  22  40  60  82 112 152 200 248 286 344
#     4   9  20  36  60  87 117 151 191 251 300 345
#
# _framework density 20.277497
#
# number of rings (size 3 to 8) (size 9 to 14) (size 15 to 20)
#    0.000    1.867    3.333    1.200    0.000    1.067 
#    3.600    2.667    0.000    0.000    0.000    0.000 
#    0.000    0.000    0.000    0.000    0.000    0.000 
#
# Total GULP energy -167470.480576 kJ/mol
# GULP energy per Si atom -5582.349353 kJ/mol
# Density = 2.023134 g / cm^3
# Si number density = 20.277497 Si / 1000 Ang^3
#
#
#
# Elastic Constant Matrix: (Units=GPa)
#
#
# Indices 1 2 3 4 5 6 
#
# 1 94.5422 5.5816 -11.7819 0.0000 13.3044 0.0000
# 2 5.5816 45.6652 -1.8568 0.0000 12.9893 0.0000
# 3 -11.7819 -1.8568 22.2050 0.0000 -1.6440 0.0000
# 4 0.0000 0.0000 0.0000 -4.4134 0.0000 11.7038
# 5 13.3044 12.9893 -1.6440 0.0000 34.2506 0.0000
# 6 0.0000 0.0000 0.0000 11.7038 0.0000 12.8740
#
#
#
# Elastic Compliance Matrix: (Units=1/GPa)
#
#
# Indices 1 2 3 4 5 6 
#
# 1 0.011939 0.000025 0.006014 0.000000 -0.004358 0.000000
# 2 0.000025 0.024588 0.001383 0.000000 -0.009268 0.000000
# 3 0.006014 0.001383 0.048301 0.000000 -0.000542 0.000000
# 4 0.000000 0.000000 0.000000 -0.066430 0.000000 0.060392
# 5 -0.004358 -0.009268 -0.000542 0.000000 0.034378 0.000000
# 6 0.000000 0.000000 0.000000 0.060392 0.000000 0.022773
#
#
# Mechanical properties :
#
#
# Convention : Reuss Voigt Hill
#
# Bulk Modulus (GPa) = 10.03289 16.25535 13.14412
# Shear Modulus (GPa) = 53.23156 19.90688 36.56922
#
# Velocity S-wave (km/s) = 5.12918 3.13664 4.25130
# Velocity P-wave (km/s) = 6.32745 4.59912 5.53121
#
# Compressibility (1/GPa) = 0.09967217
#
# Stress axis : x y z
#
# Youngs Moduli (GPa) = 83.76193 40.67028 20.70334
#
# Poissons Ratio (x) = -0.00102 -0.12451
# Poissons Ratio (y) = -0.00209 -0.02864
# Poissons Ratio (z) = -0.50374 -0.05625
#
# Static dielectric constant tensor:
#      x y z
#    x 1.717920 0.000000 0.009900 
#    y 0.000000 1.724470 0.000000 
#    z 0.009900 0.000000 1.729840 
# 
# From -- ./inp_files/268799.got.cif
#   From: 2010.05.17/outbox.cif.g08.bks.cpg/sg15_135_cif.got.tgz:268799.got - 2010.06.03 18:47:42.
