data_PCOD9259434
_publ_section_title
;
Structure prediction by ZEFSAII (Michael W. Deem and Ramdas Pophale) SiO2 
 PCOD9259434
Probable space group: C 2/C
;
_chemical_formula_sum "Si O2"
_cell_formula_units_Z 56
_cell_length_a 13.481367
_cell_length_b 18.911420
_cell_length_c 15.449159
_cell_angle_alpha 90.000000
_cell_angle_beta 126.139839
_cell_angle_gamma 90.000000
_cell_volume 3180.888700
_symmetry_space_group_name_H-M "C 2/C"
_symmetry_group_IT_number 15
_symmetry_cell_setting 'monoclinic'
loop_
_space_group_symop_operation_xyz
x,y,z
-x,y,1/2-z
-x,-y,-z
x,-y,1/2+z
1/2+x,1/2+y,z
1/2-x,1/2+y,1/2-z
1/2-x,1/2-y,-z
1/2+x,1/2-y,1/2+z
loop_
_atom_site_type_symbol
_atom_site_label
_atom_site_fract_x
_atom_site_fract_y
_atom_site_fract_z
Si Si1 0.240961 0.152341 0.149664
Si Si2 0.894487 0.990548 0.871492
Si Si3 0.000000 0.051884 0.750000
Si Si4 0.137990 0.246159 0.239482
Si Si5 0.000000 0.695909 0.250000
Si Si6 0.568939 0.326371 0.402824
Si Si7 0.323821 0.634251 0.886466
Si Si8 0.368160 0.296407 0.582399
O O1 0.170838 0.084115 0.150575
O O2 0.211803 0.217588 0.196921
O O3 0.386717 0.148007 0.220417
O O4 0.179555 0.169635 0.026455
O O5 0.801901 0.054133 0.847768
O O6 0.944586 0.005847 0.800244
O O7 0.000000 0.000000 0.000000
O O8 0.086944 0.109401 0.843609
O O9 0.206213 0.316524 0.307101
O O10 0.143194 0.189396 0.321323
O O11 0.994600 0.248236 0.140508
O O12 0.051426 0.751138 0.348052
O O13 0.441584 0.341298 0.389723
O O14 0.365435 0.643197 0.008264
O O15 0.250000 0.250000 0.500000
#
# Coordination Sequence:
#
# PCOD9259434 Si02
#       8
#     8   8   4   8   4   8   8   8
#     4  12  22  37  60  87 116 155 196 248 297 348
#     4  11  21  37  60  85 116 150 196 240 294 359
#     4   9  20  36  60  90 117 146 194 240 299 340
#     4  10  19  33  55  84 115 148 191 239 295 339
#     4  11  24  38  58  88 119 148 200 250 293 342
#     4  10  19  38  60  85 114 153 194 248 291 345
#     4  10  18  35  57  85 116 148 193 242 292 346
#     4   9  18  32  54  84 112 144 189 234 284 348
#
# _framework density 17.605142000000001
#
# number of rings (size 3 to 8) (size 9 to 14) (size 15 to 20)
#    0.000    1.714    5.714    0.429    0.000    2.286 
#    0.000    2.857    0.000    0.857    0.000    0.000 
#    0.000    0.000    0.000    0.000    0.000    0.000 
#
# Total GULP energy -155938.525790 kJ/mol
# GULP energy per Si atom -5569.233064 kJ/mol
# Density = 1.756507 g / cm^3
# Si number density = 17.605142 Si / 1000 Ang^3
#
#
#
# Elastic Constant Matrix: (Units=GPa)
#
#
# Indices 1 2 3 4 5 6 
#
# 1 71.5926 6.4800 45.2496 0.0000 7.1154 0.0000
# 2 6.4800 53.3485 30.7141 0.0000 -3.8181 0.0000
# 3 45.2496 30.7141 105.1795 0.0000 -5.2365 0.0000
# 4 0.0000 0.0000 0.0000 18.2537 0.0000 -2.8488
# 5 7.1154 -3.8181 -5.2365 0.0000 36.6399 0.0000
# 6 0.0000 0.0000 0.0000 -2.8488 0.0000 28.2174
#
#
#
# Elastic Compliance Matrix: (Units=1/GPa)
#
#
# Indices 1 2 3 4 5 6 
#
# 1 0.020467 0.002843 -0.009889 0.000000 -0.005092 0.000000
# 2 0.002843 0.023001 -0.007904 0.000000 0.000715 0.000000
# 3 -0.009889 -0.007904 0.016240 0.000000 0.003418 0.000000
# 4 0.000000 0.000000 0.000000 0.055660 0.000000 0.005619
# 5 -0.005092 0.000715 0.003418 0.000000 0.028844 0.000000
# 6 0.000000 0.000000 0.000000 0.005619 0.000000 0.036006
#
#
# Mechanical properties :
#
#
# Convention : Reuss Voigt Hill
#
# Bulk Modulus (GPa) = 33.54815 43.88979 38.71897
# Shear Modulus (GPa) = 22.72158 26.46733 24.59445
#
# Velocity S-wave (km/s) = 3.59642 3.88156 3.74171
# Velocity P-wave (km/s) = 6.02851 6.71363 6.38027
#
# Compressibility (1/GPa) = 0.02980790
#
# Stress axis : x y z
#
# Youngs Moduli (GPa) = 48.85981 43.47615 61.57615
#
# Poissons Ratio (x) = -0.12359 0.60891
# Poissons Ratio (y) = -0.13890 0.48670
# Poissons Ratio (z) = 0.48316 0.34364
#
# Static dielectric constant tensor:
#      x y z
#    x 1.633390 0.000000 -0.033010 
#    y 0.000000 1.607280 0.000000 
#    z -0.033010 0.000000 1.628720 
# 
# From -- ./inp_files/155265.got.cif
#   From: 2010.05.17/outbox.cif.g08.bks.cpg/sg15_78_cif.got.tgz:155265.got - 2010.06.03 18:47:42.
