data_PCOD9259290
_publ_section_title
;
Structure prediction by ZEFSAII (Michael W. Deem and Ramdas Pophale) SiO2 
 PCOD9259290
Probable space group: C 2/C
;
_chemical_formula_sum "Si O2"
_cell_formula_units_Z 40
_cell_length_a 5.495041
_cell_length_b 18.468704
_cell_length_c 20.519350
_cell_angle_alpha 90.000000
_cell_angle_beta 52.961107
_cell_angle_gamma 90.000000
_cell_volume 1662.253539
_symmetry_space_group_name_H-M "C 2/C"
_symmetry_group_IT_number 15
_symmetry_cell_setting 'monoclinic'
loop_
_space_group_symop_operation_xyz
x,y,z
-x,y,1/2-z
-x,-y,-z
x,-y,1/2+z
1/2+x,1/2+y,z
1/2-x,1/2+y,1/2-z
1/2-x,1/2-y,-z
1/2+x,1/2-y,1/2+z
loop_
_atom_site_type_symbol
_atom_site_label
_atom_site_fract_x
_atom_site_fract_y
_atom_site_fract_z
Si Si1 0.620836 0.348913 0.080318
Si Si2 0.840867 0.795866 0.566837
Si Si3 0.755714 0.416564 0.524024
Si Si4 0.754206 0.029136 0.624763
Si Si5 0.356289 0.896764 0.703795
O O1 0.762105 0.285188 0.101050
O O2 0.339925 0.397528 0.149021
O O3 0.550705 0.304757 0.025622
O O4 0.889086 0.406481 0.019932
O O5 0.546545 0.847055 0.623359
O O6 0.110008 0.837726 0.559845
O O7 0.523927 0.471069 0.596674
O O8 0.734768 0.443237 0.452082
O O9 0.452780 0.981356 0.681189
O O10 0.500000 0.874220 0.750000
O O11 0.000000 0.887273 0.750000
#
# Coordination Sequence:
#
# PCOD9259290 Si02
#       5
#     8   8   8   8   8
#     4  10  18  34  65  91 126 144 192 275 319 362
#     4   9  21  36  57  97 115 159 206 244 322 371
#     4   9  17  32  58  90 122 148 187 259 314 363
#     4   9  20  34  56  93 114 154 203 247 308 359
#     4  11  26  44  64  83 122 174 218 247 292 378
#
# _framework density 24.063718999999999
#
# number of rings (size 3 to 8) (size 9 to 14) (size 15 to 20)
#    0.000    2.400    0.000    2.400    8.400    0.000 
#    0.000    1.000    0.000    0.000    0.000    0.000 
#    0.000    0.000    0.000    0.000    0.000    0.000 
#
# Total GULP energy -111494.873383 kJ/mol
# GULP energy per Si atom -5574.743669 kJ/mol
# Density = 2.400895 g / cm^3
# Si number density = 24.063719 Si / 1000 Ang^3
#
#
#
# Elastic Constant Matrix: (Units=GPa)
#
#
# Indices 1 2 3 4 5 6 
#
# 1 81.2529 24.1371 23.8140 0.0000 -22.6660 0.0000
# 2 24.1371 83.8146 9.2599 0.0000 -5.6335 0.0000
# 3 23.8140 9.2599 46.7464 0.0000 -20.6714 0.0000
# 4 0.0000 0.0000 0.0000 23.9765 0.0000 -13.5034
# 5 -22.6660 -5.6335 -20.6714 0.0000 42.1206 0.0000
# 6 0.0000 0.0000 0.0000 -13.5034 0.0000 33.3921
#
#
#
# Elastic Compliance Matrix: (Units=1/GPa)
#
#
# Indices 1 2 3 4 5 6 
#
# 1 0.016579 -0.003816 -0.005071 0.000000 0.005923 0.000000
# 2 -0.003816 0.013087 -0.000999 0.000000 -0.000794 0.000000
# 3 -0.005071 -0.000999 0.029257 0.000000 0.011496 0.000000
# 4 0.000000 0.000000 0.000000 0.054008 0.000000 0.021840
# 5 0.005923 -0.000794 0.011496 0.000000 0.032464 0.000000
# 6 0.000000 0.000000 0.000000 0.021840 0.000000 0.038779
#
#
# Mechanical properties :
#
#
# Convention : Reuss Voigt Hill
#
# Bulk Modulus (GPa) = 25.54269 36.24845 30.89557
# Shear Modulus (GPa) = 23.04178 30.20470 26.62324
#
# Velocity S-wave (km/s) = 3.09776 3.54672 3.32981
# Velocity P-wave (km/s) = 4.84071 5.64522 5.25837
#
# Compressibility (1/GPa) = 0.03915015
#
# Stress axis : x y z
#
# Youngs Moduli (GPa) = 60.31624 76.41081 34.18008
#
# Poissons Ratio (x) = 0.29160 0.17333
# Poissons Ratio (y) = 0.23018 0.03415
# Poissons Ratio (z) = 0.30587 0.07635
#
# Static dielectric constant tensor:
#      x y z
#    x 1.967300 0.000000 0.052730 
#    y 0.000000 1.994840 0.000000 
#    z 0.052730 0.000000 1.990330 
# 
# From -- ./inp_files/184218.got.cif
#   From: 2010.05.17/outbox.cif.g08.bks.cpg/sg15_93_cif.got.tgz:184218.got - 2010.06.03 18:47:42.
