data_PCOD9259839
_publ_section_title
;
Structure prediction by ZEFSAII (Michael W. Deem and Ramdas Pophale) SiO2 
 PCOD9259839
Probable space group: C 2/C
;
_chemical_formula_sum "Si O2"
_cell_formula_units_Z 40
_cell_length_a 18.794661
_cell_length_b 15.848338
_cell_length_c 9.181402
_cell_angle_alpha 90.000000
_cell_angle_beta 130.754858
_cell_angle_gamma 90.000000
_cell_volume 2071.645238
_symmetry_space_group_name_H-M "C 2/C"
_symmetry_group_IT_number 15
_symmetry_cell_setting 'monoclinic'
loop_
_space_group_symop_operation_xyz
x,y,z
-x,y,1/2-z
-x,-y,-z
x,-y,1/2+z
1/2+x,1/2+y,z
1/2-x,1/2+y,1/2-z
1/2-x,1/2-y,-z
1/2+x,1/2-y,1/2+z
loop_
_atom_site_type_symbol
_atom_site_label
_atom_site_fract_x
_atom_site_fract_y
_atom_site_fract_z
Si Si1 0.912077 0.221512 0.702108
Si Si2 0.684241 0.918771 0.651651
Si Si3 0.298623 0.920751 0.167704
Si Si4 0.999709 0.392464 0.581584
Si Si5 0.740326 0.724018 0.778028
O O1 0.969222 0.295119 0.860126
O O2 0.840671 0.268349 0.494448
O O3 0.837455 0.184377 0.716407
O O4 0.000000 0.170497 0.750000
O O5 0.690551 0.933724 0.488786
O O6 0.580795 0.926841 0.584338
O O7 0.715673 0.822103 0.718141
O O8 0.739490 0.993249 0.809236
O O9 0.400439 0.902683 0.373671
O O10 0.243402 0.836433 0.142495
O O11 0.000000 0.425530 0.750000
#
# Coordination Sequence:
#
# PCOD9259839 Si02
#       5
#     8   8   8   8   8
#     4   9  17  34  63  88 113 154 198 235 294 350
#     4  11  25  35  57  90 120 161 192 243 300 352
#     4  12  22  38  57  87 124 153 198 246 293 357
#     4  10  18  36  57  87 120 154 187 238 303 357
#     4  10  21  37  61  86 121 158 196 240 295 352
#
# _framework density 19.308325
#
# number of rings (size 3 to 8) (size 9 to 14) (size 15 to 20)
#    0.000    1.600    4.000    3.000    5.600    0.000 
#    0.000    0.000    0.000    1.200    0.000    0.000 
#    0.000    0.000    0.000    0.000    0.000    0.000 
#
# Total GULP energy -111335.759449 kJ/mol
# GULP energy per Si atom -5566.787972 kJ/mol
# Density = 1.926438 g / cm^3
# Si number density = 19.308325 Si / 1000 Ang^3
#
#
#
# Elastic Constant Matrix: (Units=GPa)
#
#
# Indices 1 2 3 4 5 6 
#
# 1 144.5961 32.8056 46.0943 0.0000 -18.6695 0.0000
# 2 32.8056 90.6932 8.4567 0.0000 -11.0414 0.0000
# 3 46.0943 8.4567 47.7627 0.0000 -16.4761 0.0000
# 4 0.0000 0.0000 0.0000 22.4665 0.0000 -7.0606
# 5 -18.6695 -11.0414 -16.4761 0.0000 42.3259 0.0000
# 6 0.0000 0.0000 0.0000 -7.0606 0.0000 24.5279
#
#
#
# Elastic Compliance Matrix: (Units=1/GPa)
#
#
# Indices 1 2 3 4 5 6 
#
# 1 0.010719 -0.002947 -0.009768 0.000000 0.000157 0.000000
# 2 -0.002947 0.012253 0.001535 0.000000 0.002494 0.000000
# 3 -0.009768 0.001535 0.033203 0.000000 0.009016 0.000000
# 4 0.000000 0.000000 0.000000 0.048938 0.000000 0.014087
# 5 0.000157 0.002494 0.009016 0.000000 0.027856 0.000000
# 6 0.000000 0.000000 0.000000 0.014087 0.000000 0.044825
#
#
# Mechanical properties :
#
#
# Convention : Reuss Voigt Hill
#
# Bulk Modulus (GPa) = 29.57448 50.86280 40.21864
# Shear Modulus (GPa) = 23.64908 30.91040 27.27974
#
# Velocity S-wave (km/s) = 3.50353 4.00545 3.76287
# Velocity P-wave (km/s) = 5.63174 6.91311 6.30506
#
# Compressibility (1/GPa) = 0.03381294
#
# Stress axis : x y z
#
# Youngs Moduli (GPa) = 93.29515 81.61439 30.11814
#
# Poissons Ratio (x) = 0.24054 0.29421
# Poissons Ratio (y) = 0.27496 -0.04624
# Poissons Ratio (z) = 0.91135 -0.12529
#
# Static dielectric constant tensor:
#      x y z
#    x 1.771480 0.000000 -0.005170 
#    y 0.000000 1.747410 0.000000 
#    z -0.005170 0.000000 1.661420 
# 
# From -- ./inp_files/38061.got.cif
#   From: 2010.05.17/outbox.cif.g08.bks.cpg/sg15_20_cif.got.tgz:38061.got - 2010.06.03 18:47:42.
