data_PCOD9259093
_publ_section_title
;
Structure prediction by ZEFSAII (Michael W. Deem and Ramdas Pophale) SiO2 
 PCOD9259093
Probable space group: C 2/C
;
_chemical_formula_sum "Si O2"
_cell_formula_units_Z 56
_cell_length_a 16.656664
_cell_length_b 8.437531
_cell_length_c 23.692280
_cell_angle_alpha 90.000000
_cell_angle_beta 126.623885
_cell_angle_gamma 90.000000
_cell_volume 2672.345253
_symmetry_space_group_name_H-M "C 2/C"
_symmetry_group_IT_number 15
_symmetry_cell_setting 'monoclinic'
loop_
_space_group_symop_operation_xyz
x,y,z
-x,y,1/2-z
-x,-y,-z
x,-y,1/2+z
1/2+x,1/2+y,z
1/2-x,1/2+y,1/2-z
1/2-x,1/2-y,-z
1/2+x,1/2-y,1/2+z
loop_
_atom_site_type_symbol
_atom_site_label
_atom_site_fract_x
_atom_site_fract_y
_atom_site_fract_z
Si Si1 0.938879 0.743616 0.629541
Si Si2 0.652414 0.952137 0.868035
Si Si3 0.500400 0.750513 0.873928
Si Si4 0.749209 0.338553 0.367408
Si Si5 0.581509 0.510527 0.235916
Si Si6 0.686770 0.545515 0.963788
Si Si7 0.957724 0.454228 0.421906
O O1 0.888644 0.630088 0.655486
O O2 0.040721 0.823644 0.695131
O O3 0.965445 0.638390 0.586148
O O4 0.864014 0.882280 0.578308
O O5 0.557116 0.850342 0.849126
O O6 0.702400 0.838199 0.842395
O O7 0.734124 0.969323 0.952910
O O8 0.431909 0.615987 0.819267
O O9 0.593894 0.659272 0.942379
O O10 0.440615 0.876623 0.885099
O O11 0.686035 0.474037 0.308778
O O12 0.738426 0.380524 0.429560
O O13 0.860291 0.349932 0.391349
O O14 0.500000 0.469715 0.250000
O O15 0.000000 0.500000 0.500000
#
# Coordination Sequence:
#
# PCOD9259093 Si02
#       7
#     8   8   8   8   8   8   8
#     4  10  22  38  59  88 126 161 197 263 313 364
#     4  10  18  34  59  92 114 156 214 248 301 366
#     4   9  19  36  60  86 118 165 194 250 303 362
#     4  11  21  37  65  86 119 166 203 252 305 364
#     4  11  20  42  62  85 125 158 211 260 305 360
#     4  10  18  36  62  89 119 157 209 255 298 360
#     4  11  23  41  60  91 128 158 200 254 317 374
#
# _framework density 20.955375
#
# number of rings (size 3 to 8) (size 9 to 14) (size 15 to 20)
#    0.000    1.714    4.286    4.714    0.000    1.143 
#    5.143    9.286    0.000    0.000    0.000    0.000 
#    0.000    0.000    0.000    0.000    0.000    0.000 
#
# Total GULP energy -156208.139396 kJ/mol
# GULP energy per Si atom -5578.862121 kJ/mol
# Density = 2.090768 g / cm^3
# Si number density = 20.955375 Si / 1000 Ang^3
#
#
#
# Elastic Constant Matrix: (Units=GPa)
#
#
# Indices 1 2 3 4 5 6 
#
# 1 69.1478 23.7729 -3.7017 0.0000 -0.1822 0.0000
# 2 23.7729 127.5619 10.9900 0.0000 -4.2929 0.0000
# 3 -3.7017 10.9900 56.0076 0.0000 -2.2990 0.0000
# 4 0.0000 0.0000 0.0000 24.4660 0.0000 -5.2025
# 5 -0.1822 -4.2929 -2.2990 0.0000 19.9996 0.0000
# 6 0.0000 0.0000 0.0000 -5.2025 0.0000 32.0712
#
#
#
# Elastic Compliance Matrix: (Units=1/GPa)
#
#
# Indices 1 2 3 4 5 6 
#
# 1 0.015599 -0.003057 0.001617 0.000000 -0.000328 0.000000
# 2 -0.003057 0.008621 -0.001827 0.000000 0.001613 0.000000
# 3 0.001617 -0.001827 0.018391 0.000000 0.001737 0.000000
# 4 0.000000 0.000000 0.000000 0.042333 0.000000 0.006867
# 5 -0.000328 0.001613 0.001737 0.000000 0.050544 0.000000
# 6 0.000000 0.000000 0.000000 0.006867 0.000000 0.032295
#
#
# Mechanical properties :
#
#
# Convention : Reuss Voigt Hill
#
# Bulk Modulus (GPa) = 27.71928 34.98220 31.35074
# Shear Modulus (GPa) = 26.83223 30.08442 28.45833
#
# Velocity S-wave (km/s) = 3.58221 3.79310 3.68916
# Velocity P-wave (km/s) = 5.51055 5.99278 5.75671
#
# Compressibility (1/GPa) = 0.03607597
#
# Stress axis : x y z
#
# Youngs Moduli (GPa) = 64.10826 115.99811 54.37296
#
# Poissons Ratio (x) = 0.35465 -0.08794
# Poissons Ratio (y) = 0.19600 0.09937
# Poissons Ratio (z) = -0.10369 0.21198
#
# Static dielectric constant tensor:
#      x y z
#    x 1.715320 0.000000 0.004410 
#    y 0.000000 1.760180 0.000000 
#    z 0.004410 0.000000 1.827180 
# 
# From -- ./inp_files/276633.got.cif
#   From: 2010.05.17/outbox.cif.g08.bks.cpg/sg15_139_cif.got.tgz:276633.got - 2010.06.03 18:47:42.
