data_PCOD9259713
_publ_section_title
;
Structure prediction by ZEFSAII (Michael W. Deem and Ramdas Pophale) SiO2 
 PCOD9259713
Probable space group: C 2/C
;
_chemical_formula_sum "Si O2"
_cell_formula_units_Z 60
_cell_length_a 19.846093
_cell_length_b 27.209343
_cell_length_c 11.264802
_cell_angle_alpha 90.000000
_cell_angle_beta 30.571751
_cell_angle_gamma 90.000000
_cell_volume 3093.908681
_symmetry_space_group_name_H-M "C 2/C"
_symmetry_group_IT_number 15
_symmetry_cell_setting 'monoclinic'
loop_
_space_group_symop_operation_xyz
x,y,z
-x,y,1/2-z
-x,-y,-z
x,-y,1/2+z
1/2+x,1/2+y,z
1/2-x,1/2+y,1/2-z
1/2-x,1/2-y,-z
1/2+x,1/2-y,1/2+z
loop_
_atom_site_type_symbol
_atom_site_label
_atom_site_fract_x
_atom_site_fract_y
_atom_site_fract_z
Si Si1 0.405541 0.402683 0.669232
Si Si2 0.284880 0.140291 0.249050
Si Si3 0.219932 0.511249 0.528598
Si Si4 0.279256 0.670958 0.521798
Si Si5 0.000000 0.453523 0.750000
Si Si6 0.053454 0.407415 0.417422
Si Si7 0.846258 0.728634 0.011178
Si Si8 0.619436 0.417434 0.161572
O O1 0.307750 0.381541 0.714919
O O2 0.338816 0.453895 0.806809
O O3 0.549787 0.410372 0.394260
O O4 0.393395 0.364662 0.796632
O O5 0.205301 0.129016 0.489740
O O6 0.424440 0.111675 0.042542
O O7 0.309967 0.197072 0.181697
O O8 0.129209 0.487965 0.563581
O O9 0.121349 0.544658 0.756109
O O10 0.286313 0.464548 0.490329
O O11 0.163122 0.635455 0.743651
O O12 0.228643 0.701636 0.483773
O O13 0.316462 0.713522 0.557388
O O14 0.011462 0.421269 0.614194
O O15 0.000000 0.722501 0.750000
O O16 0.500000 0.424101 0.250000
#
# Coordination Sequence:
#
# PCOD9259713 Si02
#       8
#     8   8   8   8   4   8   8   8
#     4   9  20  36  58  85 118 157 199 242 288 353
#     4  10  19  36  61  86 113 155 197 244 301 352
#     4  11  22  36  58  87 119 162 201 241 289 349
#     4   9  20  37  60  88 111 145 198 249 300 350
#     4  12  24  34  60  88 126 156 198 250 290 346
#     4  11  22  39  57  87 122 154 197 250 296 351
#     4  10  18  35  65  88 109 145 195 254 300 355
#     4  10  21  36  56  82 123 160 198 233 289 361
#
# _framework density 19.392945999999998
#
# number of rings (size 3 to 8) (size 9 to 14) (size 15 to 20)
#    0.000    1.867    2.667    1.600    3.733    0.000 
#    2.400    1.333   10.267    1.600    0.000    0.000 
#    0.000    0.000    0.000    0.000    0.000    0.000 
#
# Total GULP energy -167378.831684 kJ/mol
# GULP energy per Si atom -5579.294389 kJ/mol
# Density = 1.934881 g / cm^3
# Si number density = 19.392946 Si / 1000 Ang^3
#
#
#
# Elastic Constant Matrix: (Units=GPa)
#
#
# Indices 1 2 3 4 5 6 
#
# 1 28.9802 31.3825 22.2951 -0.0008 -1.0854 0.0055
# 2 31.3825 122.8613 49.6969 0.0011 4.9705 0.0107
# 3 22.2951 49.6969 92.3308 0.0059 4.4610 0.0205
# 4 -0.0008 0.0011 0.0059 -51.5815 -0.0060 80.2217
# 5 -1.0854 4.9705 4.4610 -0.0060 20.0676 -0.0049
# 6 0.0055 0.0107 0.0205 80.2217 -0.0049 -67.2393
#
#
#
# Elastic Compliance Matrix: (Units=1/GPa)
#
#
# Indices 1 2 3 4 5 6 
#
# 1 0.051747 -0.010623 -0.007116 0.000003 0.007012 0.000004
# 2 -0.010623 0.012621 -0.004093 -0.000001 -0.002791 -0.000001
# 3 -0.007116 -0.004093 0.014882 -0.000009 -0.002679 -0.000007
# 4 0.000003 -0.000001 -0.000009 0.022661 0.000016 0.027036
# 5 0.007012 -0.002791 -0.002679 0.000016 0.051498 0.000014
# 6 0.000004 -0.000001 -0.000007 0.027036 0.000014 0.017384
#
#
# Mechanical properties :
#
#
# Convention : Reuss Voigt Hill
#
# Bulk Modulus (GPa) = 28.10193 50.10238 39.10215
# Shear Modulus (GPa) = 22.09263 -10.36413 5.86425
#
# Velocity S-wave (km/s) = 3.37888 -2.31428 1.74083
# Velocity P-wave (km/s) = 5.45387 4.33016 4.92417
#
# Compressibility (1/GPa) = 0.03558475
#
# Stress axis : x y z
#
# Youngs Moduli (GPa) = 19.32471 79.23066 67.19624
#
# Poissons Ratio (x) = 0.84166 0.47820
# Poissons Ratio (y) = 0.20528 0.27507
# Poissons Ratio (z) = 0.13752 0.32433
#
# Static dielectric constant tensor:
#      x y z
#    x 1.732120 0.000000 0.006950 
#    y 0.000000 1.667600 0.000000 
#    z 0.006950 0.000000 1.683570 
# 
# From -- ./inp_files/114824.got.cif
#   From: 2010.05.17/outbox.cif.g08.bks.cpg/sg15_58_cif.got.tgz:114824.got - 2010.06.03 18:47:42.
