data_PCOD9259167
_publ_section_title
;
Structure prediction by ZEFSAII (Michael W. Deem and Ramdas Pophale) SiO2 
 PCOD9259167
Probable space group: C 2/C
;
_chemical_formula_sum "Si O2"
_cell_formula_units_Z 56
_cell_length_a 28.972623
_cell_length_b 6.538674
_cell_length_c 17.896951
_cell_angle_alpha 90.000000
_cell_angle_beta 50.673416
_cell_angle_gamma 90.000000
_cell_volume 2622.665090
_symmetry_space_group_name_H-M "C 2/C"
_symmetry_group_IT_number 15
_symmetry_cell_setting 'monoclinic'
loop_
_space_group_symop_operation_xyz
x,y,z
-x,y,1/2-z
-x,-y,-z
x,-y,1/2+z
1/2+x,1/2+y,z
1/2-x,1/2+y,1/2-z
1/2-x,1/2-y,-z
1/2+x,1/2-y,1/2+z
loop_
_atom_site_type_symbol
_atom_site_label
_atom_site_fract_x
_atom_site_fract_y
_atom_site_fract_z
Si Si1 0.421316 0.192324 0.902965
Si Si2 0.162302 0.314168 0.510826
Si Si3 0.380118 0.498193 0.823358
Si Si4 0.092871 0.959678 0.358275
Si Si5 0.176046 0.067575 0.898062
Si Si6 0.504309 0.205256 0.949401
Si Si7 0.259348 0.332129 0.906231
O O1 0.418142 0.339444 0.833996
O O2 0.482156 0.184589 0.886809
O O3 0.394335 0.965387 0.922306
O O4 0.372766 0.301854 0.006158
O O5 0.219418 0.462243 0.446781
O O6 0.154775 0.156372 0.587328
O O7 0.166786 0.164317 0.435186
O O8 0.413562 0.608198 0.721149
O O9 0.329123 0.374406 0.831360
O O10 0.156661 0.920233 0.331876
O O11 0.044321 0.845614 0.458859
O O12 0.069104 0.192392 0.385859
O O13 0.236262 0.171707 0.867497
O O14 0.500000 0.000000 0.000000
O O15 0.250000 0.250000 0.000000
#
# Coordination Sequence:
#
# PCOD9259167 Si02
#       7
#     8   8   8   8   8   8   8
#     4   9  19  35  59  87 112 146 196 243 285 352
#     4  10  18  34  61  82 112 156 196 230 286 354
#     4  11  22  36  56  88 124 150 192 248 290 342
#     4  10  23  41  58  86 121 151 192 250 298 343
#     4   9  19  36  57  80 114 155 196 232 287 351
#     4  10  21  42  66  82 111 161 197 239 304 359
#     4  11  19  36  57  86 116 154 196 233 284 345
#
# _framework density 21.352326000000001
#
# number of rings (size 3 to 8) (size 9 to 14) (size 15 to 20)
#    0.000    2.000    4.286    1.286    0.000    2.857 
#    2.571    0.000    0.000    0.000    0.000    0.000 
#    0.000    0.000    0.000    0.000    0.000    0.000 
#
# Total GULP energy -156024.879978 kJ/mol
# GULP energy per Si atom -5572.317142 kJ/mol
# Density = 2.130373 g / cm^3
# Si number density = 21.352326 Si / 1000 Ang^3
#
#
#
# Elastic Constant Matrix: (Units=GPa)
#
#
# Indices 1 2 3 4 5 6 
#
# 1 131.6548 49.5811 23.5764 -0.0018 28.3749 -0.0011
# 2 49.5811 93.6240 0.3343 0.0023 14.4699 0.0030
# 3 23.5764 0.3343 52.5072 0.0005 21.3956 0.0002
# 4 -0.0018 0.0023 0.0005 8.2015 -0.0002 6.5172
# 5 28.3749 14.4699 21.3956 -0.0002 30.3523 -0.0007
# 6 -0.0011 0.0030 0.0002 6.5172 -0.0007 17.8063
#
#
#
# Elastic Compliance Matrix: (Units=1/GPa)
#
#
# Indices 1 2 3 4 5 6 
#
# 1 0.011297 -0.004968 -0.002389 0.000004 -0.006509 0.000000
# 2 -0.004968 0.014072 0.004184 -0.000004 -0.005013 -0.000001
# 3 -0.002389 0.004184 0.028051 -0.000003 -0.019535 -0.000001
# 4 0.000004 -0.000004 -0.000003 0.171933 0.000000 -0.062928
# 5 -0.006509 -0.005013 -0.019535 0.000000 0.055192 0.000003
# 6 0.000000 -0.000001 -0.000001 -0.062928 0.000003 0.079192
#
#
# Mechanical properties :
#
#
# Convention : Reuss Voigt Hill
#
# Bulk Modulus (GPa) = 21.24298 47.19663 34.21980
# Shear Modulus (GPa) = 13.09677 24.89164 18.99420
#
# Velocity S-wave (km/s) = 2.47931 3.41802 2.98579
# Velocity P-wave (km/s) = 4.26220 6.14239 5.28655
#
# Compressibility (1/GPa) = 0.04707438
#
# Stress axis : x y z
#
# Youngs Moduli (GPa) = 88.51701 71.06311 35.64929
#
# Poissons Ratio (x) = 0.35306 0.08516
# Poissons Ratio (y) = 0.43978 -0.14916
# Poissons Ratio (z) = 0.21144 -0.29733
#
# Static dielectric constant tensor:
#      x y z
#    x 1.826090 -0.000010 -0.011810 
#    y -0.000010 1.840990 0.000010 
#    z -0.011810 0.000010 1.836730 
# 
# From -- ./inp_files/223799.got.cif
#   From: 2010.05.17/outbox.cif.g08.bks.cpg/sg15_112_cif.got.tgz:223799.got - 2010.06.03 18:47:42.
