data_PCOD9259297
_publ_section_title
;
Structure prediction by ZEFSAII (Michael W. Deem and Ramdas Pophale) SiO2 
 PCOD9259297
Probable space group: C 2/C
;
_chemical_formula_sum "Si O2"
_cell_formula_units_Z 44
_cell_length_a 18.645799
_cell_length_b 16.065453
_cell_length_c 7.511614
_cell_angle_alpha 90.000000
_cell_angle_beta 125.773509
_cell_angle_gamma 90.000000
_cell_volume 1825.605834
_symmetry_space_group_name_H-M "C 2/C"
_symmetry_group_IT_number 15
_symmetry_cell_setting 'monoclinic'
loop_
_space_group_symop_operation_xyz
x,y,z
-x,y,1/2-z
-x,-y,-z
x,-y,1/2+z
1/2+x,1/2+y,z
1/2-x,1/2+y,1/2-z
1/2-x,1/2-y,-z
1/2+x,1/2-y,1/2+z
loop_
_atom_site_type_symbol
_atom_site_label
_atom_site_fract_x
_atom_site_fract_y
_atom_site_fract_z
Si Si1 0.592328 0.957903 0.795958
Si Si2 0.186740 0.828083 0.631983
Si Si3 0.500000 0.675131 0.750000
Si Si4 0.363021 0.876807 0.016543
Si Si5 0.923546 0.803758 0.519554
Si Si6 0.238121 0.352972 0.154652
O O1 0.500000 0.933882 0.750000
O O2 0.605726 0.913688 0.627846
O O3 0.673364 0.929960 0.040296
O O4 0.598315 0.057506 0.790251
O O5 0.186929 0.727729 0.659047
O O6 0.234997 0.835790 0.511609
O O7 0.088551 0.864280 0.467067
O O8 0.256228 0.870285 0.865616
O O9 0.543763 0.715428 0.635608
O O10 0.398116 0.783372 0.073797
O O11 0.834238 0.857811 0.383343
O O12 0.000000 0.842856 0.750000
#
# Coordination Sequence:
#
# PCOD9259297 Si02
#       6
#     8   8   4   8   8   8
#     4  11  21  35  57  82 117 157 184 228 295 349
#     4   8  16  33  56  80 108 146 191 239 277 336
#     4  10  18  34  66  86 108 154 196 232 298 334
#     4  10  22  38  53  84 121 146 191 238 285 343
#     4  10  21  39  60  88 117 147 193 247 280 337
#     4   8  17  33  55  81 111 147 189 238 284 330
#
# _framework density 24.101586999999999
#
# number of rings (size 3 to 8) (size 9 to 14) (size 15 to 20)
#    0.000    2.545    0.000    4.364    5.091    0.000 
#    3.273    1.818    2.000    3.273    0.000    0.000 
#    0.000    0.000    0.000    0.000    0.000    0.000 
#
# Total GULP energy -122797.708037 kJ/mol
# GULP energy per Si atom -5581.714002 kJ/mol
# Density = 2.404673 g / cm^3
# Si number density = 24.101587 Si / 1000 Ang^3
#
#
#
# Elastic Constant Matrix: (Units=GPa)
#
#
# Indices 1 2 3 4 5 6 
#
# 1 125.5901 15.9143 50.5740 0.0000 12.4716 0.0000
# 2 15.9143 20.3578 -1.2324 0.0000 8.0406 0.0000
# 3 50.5740 -1.2324 90.7104 0.0000 19.3974 0.0000
# 4 0.0000 0.0000 0.0000 24.3583 0.0000 5.2173
# 5 12.4716 8.0406 19.3974 0.0000 70.6801 0.0000
# 6 0.0000 0.0000 0.0000 5.2173 0.0000 13.2801
#
#
#
# Elastic Compliance Matrix: (Units=1/GPa)
#
#
# Indices 1 2 3 4 5 6 
#
# 1 0.011986 -0.010179 -0.007029 0.000000 0.000972 0.000000
# 2 -0.010179 0.060446 0.008056 0.000000 -0.007291 0.000000
# 3 -0.007029 0.008056 0.015917 0.000000 -0.004044 0.000000
# 4 0.000000 0.000000 0.000000 0.044826 0.000000 -0.017611
# 5 0.000972 -0.007291 -0.004044 0.000000 0.015916 0.000000
# 6 0.000000 0.000000 0.000000 -0.017611 0.000000 0.082219
#
#
# Mechanical properties :
#
#
# Convention : Reuss Voigt Hill
#
# Bulk Modulus (GPa) = 14.27665 40.79669 27.53667
# Shear Modulus (GPa) = 18.31739 33.09052 25.70396
#
# Velocity S-wave (km/s) = 2.75981 3.70937 3.26925
# Velocity P-wave (km/s) = 4.01146 5.94219 5.06959
#
# Compressibility (1/GPa) = 0.07004445
#
# Stress axis : x y z
#
# Youngs Moduli (GPa) = 83.42893 16.54362 62.82502
#
# Poissons Ratio (x) = 0.16841 0.44159
# Poissons Ratio (y) = 0.84926 -0.50610
# Poissons Ratio (z) = 0.58641 -0.13327
#
# Static dielectric constant tensor:
#      x y z
#    x 1.944870 0.000000 0.005890 
#    y 0.000000 1.879000 0.000000 
#    z 0.005890 0.000000 2.008450 
# 
# From -- ./inp_files/13597.got.cif
#   From: 2010.05.17/outbox.cif.g08.bks.cpg/sg15_7_cif.got.tgz:13597.got - 2010.06.03 18:47:42.
