data_PCOD9259232
_publ_section_title
;
Structure prediction by ZEFSAII (Michael W. Deem and Ramdas Pophale) SiO2 
 PCOD9259232
Probable space group: C 2/C
;
_chemical_formula_sum "Si O2"
_cell_formula_units_Z 52
_cell_length_a 10.994008
_cell_length_b 24.157559
_cell_length_c 17.702373
_cell_angle_alpha 90.000000
_cell_angle_beta 33.856189
_cell_angle_gamma 90.000000
_cell_volume 2619.278978
_symmetry_space_group_name_H-M "C 2/C"
_symmetry_group_IT_number 15
_symmetry_cell_setting 'monoclinic'
loop_
_space_group_symop_operation_xyz
x,y,z
-x,y,1/2-z
-x,-y,-z
x,-y,1/2+z
1/2+x,1/2+y,z
1/2-x,1/2+y,1/2-z
1/2-x,1/2-y,-z
1/2+x,1/2-y,1/2+z
loop_
_atom_site_type_symbol
_atom_site_label
_atom_site_fract_x
_atom_site_fract_y
_atom_site_fract_z
Si Si1 0.457880 0.050969 0.959373
Si Si2 0.314621 0.631045 0.201254
Si Si3 0.000406 0.243968 0.340913
Si Si4 0.500000 0.567148 0.250000
Si Si5 0.522224 0.561594 0.525525
Si Si6 0.410547 0.936540 0.944015
Si Si7 0.893965 0.365736 0.223012
O O1 0.437650 0.104690 0.919447
O O2 0.532681 0.996694 0.874979
O O3 0.598376 0.067889 0.960089
O O4 0.214567 0.035287 0.112635
O O5 0.380374 0.694720 0.176019
O O6 0.420851 0.602736 0.220132
O O7 0.403353 0.602071 0.080446
O O8 0.061352 0.613537 0.337700
O O9 0.750000 0.250000 0.500000
O O10 0.000000 0.233315 0.250000
O O11 0.128847 0.301838 0.287176
O O12 0.500000 0.500000 0.500000
O O13 0.699199 0.559727 0.501244
O O14 0.309585 0.592426 0.668998
O O15 0.000000 0.364857 0.250000
#
# Coordination Sequence:
#
# PCOD9259232 Si02
#       7
#     8   8   8   4   8   8   8
#     4  10  21  39  61  92 128 164 213 264 331 394
#     4  11  21  38  63  91 128 168 215 267 332 392
#     4  11  23  41  69 100 134 172 229 286 338 395
#     4  10  18  34  62  90 118 164 206 260 324 386
#     4  12  24  41  65  94 134 171 219 278 341 401
#     4  10  23  38  62  90 126 172 210 261 330 404
#     4  11  23  39  64  98 126 165 219 278 327 389
#
# _framework density 19.852791
#
# number of rings (size 3 to 8) (size 9 to 14) (size 15 to 20)
#    0.000    1.231    0.769    6.923    2.154    3.077 
#    0.000    0.769    3.385    0.000    0.000    0.000 
#    0.000    0.000    0.000    0.000    0.000    0.000 
#
# Total GULP energy -145002.704258 kJ/mol
# GULP energy per Si atom -5577.027087 kJ/mol
# Density = 1.980761 g / cm^3
# Si number density = 19.852791 Si / 1000 Ang^3
#
#
#
# Elastic Constant Matrix: (Units=GPa)
#
#
# Indices 1 2 3 4 5 6 
#
# 1 96.1440 44.3588 31.7610 0.0006 -9.3387 0.0020
# 2 44.3588 169.3533 50.0520 0.0015 -4.8206 0.0007
# 3 31.7610 50.0520 85.9742 -0.0067 -7.2885 0.0073
# 4 0.0006 0.0015 -0.0067 21.3586 0.0031 0.5588
# 5 -9.3387 -4.8206 -7.2885 0.0031 33.1984 -0.0011
# 6 0.0020 0.0007 0.0073 0.5588 -0.0011 28.3684
#
#
#
# Elastic Compliance Matrix: (Units=1/GPa)
#
#
# Indices 1 2 3 4 5 6 
#
# 1 0.012767 -0.002345 -0.003134 -0.000002 0.002563 0.000000
# 2 -0.002345 0.007563 -0.003566 -0.000002 -0.000344 0.000001
# 3 -0.003134 -0.003566 0.015026 0.000005 0.001899 -0.000004
# 4 -0.000002 -0.000002 0.000005 0.046844 -0.000004 -0.000923
# 5 0.002563 -0.000344 0.001899 -0.000004 0.031210 0.000001
# 6 0.000000 0.000001 -0.000004 -0.000923 0.000001 0.035269
#
#
# Mechanical properties :
#
#
# Convention : Reuss Voigt Hill
#
# Bulk Modulus (GPa) = 57.91521 67.09056 62.50288
# Shear Modulus (GPa) = 28.98138 31.60504 30.29321
#
# Velocity S-wave (km/s) = 3.82490 3.99428 3.91050
# Velocity P-wave (km/s) = 6.98155 7.42561 7.20700
#
# Compressibility (1/GPa) = 0.01726662
#
# Stress axis : x y z
#
# Youngs Moduli (GPa) = 78.32551 132.22032 66.55009
#
# Poissons Ratio (x) = 0.31004 0.20858
# Poissons Ratio (y) = 0.18366 0.23732
# Poissons Ratio (z) = 0.24548 0.47150
#
# Static dielectric constant tensor:
#      x y z
#    x 1.677560 0.000000 0.021310 
#    y 0.000000 1.767990 0.000010 
#    z 0.021310 0.000010 1.815560 
# 
# From -- ./inp_files/240499.got.cif
#   From: 2010.05.17/outbox.cif.g08.bks.cpg/sg15_121_cif.got.tgz:240499.got - 2010.06.03 18:47:42.
