data_PCOD9259175
_publ_section_title
;
Structure prediction by ZEFSAII (Michael W. Deem and Ramdas Pophale) SiO2 
 PCOD9259175
Probable space group: C 2/C
;
_chemical_formula_sum "Si O2"
_cell_formula_units_Z 44
_cell_length_a 11.485358
_cell_length_b 14.483931
_cell_length_c 12.670962
_cell_angle_alpha 90.000000
_cell_angle_beta 117.397790
_cell_angle_gamma 90.000000
_cell_volume 1871.422824
_symmetry_space_group_name_H-M "C 2/C"
_symmetry_group_IT_number 15
_symmetry_cell_setting 'monoclinic'
loop_
_space_group_symop_operation_xyz
x,y,z
-x,y,1/2-z
-x,-y,-z
x,-y,1/2+z
1/2+x,1/2+y,z
1/2-x,1/2+y,1/2-z
1/2-x,1/2-y,-z
1/2+x,1/2-y,1/2+z
loop_
_atom_site_type_symbol
_atom_site_label
_atom_site_fract_x
_atom_site_fract_y
_atom_site_fract_z
Si Si1 0.709311 0.891632 0.378401
Si Si2 0.000000 0.248650 0.250000
Si Si3 0.559438 0.423890 0.374943
Si Si4 0.490226 0.383853 0.925045
Si Si5 0.537235 0.928969 0.876365
Si Si6 0.818734 0.563078 0.870726
O O1 0.603845 0.811817 0.354902
O O2 0.852611 0.875917 0.487011
O O3 0.635880 0.986657 0.382181
O O4 0.717556 0.889033 0.253999
O O5 0.060006 0.182838 0.186253
O O6 0.500000 0.371229 0.250000
O O7 0.579658 0.370624 0.491828
O O8 0.472040 0.511252 0.376013
O O9 0.689555 0.465332 0.378721
O O10 0.500000 0.881341 0.750000
O O11 0.408877 0.977958 0.871977
O O12 0.602407 0.880945 0.005249
#
# Coordination Sequence:
#
# PCOD9259175 Si02
#       6
#     8   4   8   8   8   8
#     4  11  20  38  60  83 120 157 192 240 294 351
#     4  12  24  42  56  84 120 162 202 234 290 374
#     4  11  21  38  64  91 119 145 196 258 301 336
#     4  11  24  37  61  91 114 158 197 242 299 352
#     4   9  18  32  57  90 117 151 190 235 289 343
#     4  10  18  34  61  87 116 151 192 243 296 337
#
# _framework density 23.511521999999999
#
# number of rings (size 3 to 8) (size 9 to 14) (size 15 to 20)
#    0.000    1.455    7.273    0.545    0.000    0.000 
#    0.000    0.909    0.000    0.000    0.000    0.000 
#    0.000    0.000    0.000    0.000    0.000    0.000 
#
# Total GULP energy -122675.102017 kJ/mol
# GULP energy per Si atom -5576.141001 kJ/mol
# Density = 2.345801 g / cm^3
# Si number density = 23.511522 Si / 1000 Ang^3
#
#
#
# Elastic Constant Matrix: (Units=GPa)
#
#
# Indices 1 2 3 4 5 6 
#
# 1 82.4505 -17.1926 13.5862 0.0000 -20.8120 0.0000
# 2 -17.1926 33.4556 9.5873 0.0000 -3.5317 0.0000
# 3 13.5862 9.5873 130.0727 0.0000 -21.5025 0.0000
# 4 0.0000 0.0000 0.0000 25.1279 0.0000 -0.2225
# 5 -20.8120 -3.5317 -21.5025 0.0000 47.4641 0.0000
# 6 0.0000 0.0000 0.0000 -0.2225 0.0000 8.0555
#
#
#
# Elastic Compliance Matrix: (Units=1/GPa)
#
#
# Indices 1 2 3 4 5 6 
#
# 1 0.016101 0.009374 -0.001179 0.000000 0.007223 0.000000
# 2 0.009374 0.036074 -0.002718 0.000000 0.005563 0.000000
# 3 -0.001179 -0.002718 0.008532 0.000000 0.003146 0.000000
# 4 0.000000 0.000000 0.000000 0.039806 0.000000 0.001100
# 5 0.007223 0.005563 0.003146 0.000000 0.026075 0.000000
# 6 0.000000 0.000000 0.000000 0.001100 0.000000 0.124169
#
#
# Mechanical properties :
#
#
# Convention : Reuss Voigt Hill
#
# Bulk Modulus (GPa) = 13.95460 28.66006 21.30733
# Shear Modulus (GPa) = 18.96175 32.12936 25.54555
#
# Velocity S-wave (km/s) = 2.84295 3.70068 3.29980
# Velocity P-wave (km/s) = 4.08957 5.52053 4.85803
#
# Compressibility (1/GPa) = 0.07166097
#
# Stress axis : x y z
#
# Youngs Moduli (GPa) = 62.10886 27.72082 117.21211
#
# Poissons Ratio (x) = -0.25986 0.13814
# Poissons Ratio (y) = -0.58223 0.31863
# Poissons Ratio (z) = 0.07320 0.07536
#
# Static dielectric constant tensor:
#      x y z
#    x 1.929840 0.000000 0.047540 
#    y 0.000000 1.890240 0.000000 
#    z 0.047540 0.000000 1.982450 
# 
# From -- ./inp_files/87169.got.cif
#   From: 2010.05.17/outbox.cif.g08.bks.cpg/sg15_44_cif.got.tgz:87169.got - 2010.06.03 18:47:42.
