data_PCOD9259921
_publ_section_title
;
Structure prediction by ZEFSAII (Michael W. Deem and Ramdas Pophale) SiO2 
 PCOD9259921
Probable space group: C 2/C
;
_chemical_formula_sum "Si O2"
_cell_formula_units_Z 56
_cell_length_a 21.215909
_cell_length_b 9.020091
_cell_length_c 19.247296
_cell_angle_alpha 90.000000
_cell_angle_beta 49.209599
_cell_angle_gamma 90.000000
_cell_volume 2788.676420
_symmetry_space_group_name_H-M "C 2/C"
_symmetry_group_IT_number 15
_symmetry_cell_setting 'monoclinic'
loop_
_space_group_symop_operation_xyz
x,y,z
-x,y,1/2-z
-x,-y,-z
x,-y,1/2+z
1/2+x,1/2+y,z
1/2-x,1/2+y,1/2-z
1/2-x,1/2-y,-z
1/2+x,1/2-y,1/2+z
loop_
_atom_site_type_symbol
_atom_site_label
_atom_site_fract_x
_atom_site_fract_y
_atom_site_fract_z
Si Si1 0.419644 0.103967 0.540772
Si Si2 0.352098 0.313603 0.072240
Si Si3 0.588681 0.935157 0.080045
Si Si4 0.706345 0.079175 0.278148
Si Si5 0.681045 0.073067 0.656961
Si Si6 0.547173 0.704044 0.284173
Si Si7 0.406428 0.574369 0.111797
O O1 0.426766 0.271281 0.559510
O O2 0.500000 0.000000 0.500000
O O3 0.413373 0.083887 0.462979
O O4 0.338959 0.041109 0.639512
O O5 0.318142 0.231265 0.165919
O O6 0.279324 0.401803 0.085705
O O7 0.417509 0.432640 0.054246
O O8 0.378446 0.188216 0.998568
O O9 0.642191 0.960328 0.110341
O O10 0.501877 0.857809 0.163169
O O11 0.805983 0.070490 0.200060
O O12 0.668996 0.044183 0.228436
O O13 0.639418 0.232731 0.705204
O O14 0.500000 0.646073 0.250000
O O15 0.549428 0.589030 0.345265
#
# Coordination Sequence:
#
# PCOD9259921 Si02
#       7
#     8   8   8   8   8   8   8
#     4  11  20  37  59  85 113 154 206 243 286 359
#     4  10  21  33  56  84 115 145 186 247 296 341
#     4  10  21  34  56  84 109 149 196 242 288 343
#     4  10  19  35  58  86 108 151 196 244 288 351
#     4  10  18  36  59  79 110 149 200 236 286 358
#     4  10  19  34  58  81 108 149 197 238 285 352
#     4  11  19  36  58  82 116 152 192 241 298 359
#
# _framework density 20.081211
#
# number of rings (size 3 to 8) (size 9 to 14) (size 15 to 20)
#    0.000    1.714    4.286    1.286    0.000    0.571 
#    0.000    2.857    6.286    0.857    0.000    0.000 
#    0.000    0.000    0.000    0.000    0.000    0.000 
#
# Total GULP energy -156101.914866 kJ/mol
# GULP energy per Si atom -5575.068388 kJ/mol
# Density = 2.003551 g / cm^3
# Si number density = 20.081211 Si / 1000 Ang^3
#
#
#
# Elastic Constant Matrix: (Units=GPa)
#
#
# Indices 1 2 3 4 5 6 
#
# 1 135.0305 29.4437 37.8167 0.0000 32.9429 0.0000
# 2 29.4437 55.8102 18.6641 -0.0001 6.9396 0.0001
# 3 37.8167 18.6641 68.6828 0.0000 16.7536 0.0000
# 4 0.0000 -0.0001 0.0000 33.5552 0.0000 3.1854
# 5 32.9429 6.9396 16.7536 0.0000 44.3477 0.0000
# 6 0.0000 0.0001 0.0000 3.1854 0.0000 26.1557
#
#
#
# Elastic Compliance Matrix: (Units=1/GPa)
#
#
# Indices 1 2 3 4 5 6 
#
# 1 0.010638 -0.003734 -0.003368 0.000000 -0.006046 0.000000
# 2 -0.003734 0.021075 -0.003903 0.000000 0.000951 0.000000
# 3 -0.003368 -0.003903 0.018412 0.000000 -0.003843 0.000000
# 4 0.000000 0.000000 0.000000 0.030150 0.000000 -0.003672
# 5 -0.006046 0.000951 -0.003843 0.000000 0.028343 0.000000
# 6 0.000000 0.000000 0.000000 -0.003672 0.000000 0.038680
#
#
# Mechanical properties :
#
#
# Convention : Reuss Voigt Hill
#
# Bulk Modulus (GPa) = 35.56784 47.93031 41.74907
# Shear Modulus (GPa) = 27.98299 32.38498 30.18398
#
# Velocity S-wave (km/s) = 3.73700 4.02020 3.88118
# Velocity P-wave (km/s) = 6.03081 6.74310 6.39688
#
# Compressibility (1/GPa) = 0.02811529
#
# Stress axis : x y z
#
# Youngs Moduli (GPa) = 94.00111 47.44970 54.31232
#
# Poissons Ratio (x) = 0.17719 0.18292
# Poissons Ratio (y) = 0.35103 0.21197
# Poissons Ratio (z) = 0.31658 0.18518
#
# Static dielectric constant tensor:
#      x y z
#    x 1.732090 0.000000 -0.029210 
#    y 0.000000 1.705150 0.000000 
#    z -0.029210 0.000000 1.796030 
# 
# From -- ./inp_files/251493.got.cif
#   From: 2010.05.17/outbox.cif.g08.bks.cpg/sg15_126_cif.got.tgz:251493.got - 2010.06.03 18:47:42.
