data_PCOD9259418
_publ_section_title
;
Structure prediction by ZEFSAII (Michael W. Deem and Ramdas Pophale) SiO2 
 PCOD9259418
Probable space group: C 2/C
;
_chemical_formula_sum "Si O2"
_cell_formula_units_Z 40
_cell_length_a 16.557497
_cell_length_b 13.413802
_cell_length_c 17.724924
_cell_angle_alpha 90.000000
_cell_angle_beta 27.602302
_cell_angle_gamma 90.000000
_cell_volume 1823.991948
_symmetry_space_group_name_H-M "C 2/C"
_symmetry_group_IT_number 15
_symmetry_cell_setting 'monoclinic'
loop_
_space_group_symop_operation_xyz
x,y,z
-x,y,1/2-z
-x,-y,-z
x,-y,1/2+z
1/2+x,1/2+y,z
1/2-x,1/2+y,1/2-z
1/2-x,1/2-y,-z
1/2+x,1/2-y,1/2+z
loop_
_atom_site_type_symbol
_atom_site_label
_atom_site_fract_x
_atom_site_fract_y
_atom_site_fract_z
Si Si1 0.200155 0.800929 0.371219
Si Si2 0.820884 0.813165 0.370250
Si Si3 0.457146 0.378158 0.698597
Si Si4 0.811376 0.995624 0.197295
Si Si5 0.548657 0.170505 0.372663
O O1 0.337233 0.718829 0.283577
O O2 0.123999 0.854173 0.508290
O O3 0.264390 0.888647 0.262451
O O4 0.056825 0.742011 0.439543
O O5 0.750000 0.750000 0.500000
O O6 0.645231 0.865384 0.486607
O O7 0.879730 0.737616 0.255453
O O8 0.000000 0.865028 0.250000
O O9 0.500000 0.389618 0.750000
O O10 0.360112 0.472683 0.741740
O O11 0.680398 0.079881 0.276500
O O12 0.000000 0.000000 0.000000
#
# Coordination Sequence:
#
# PCOD9259418 Si02
#       5
#     8   8   8   8   8
#     4  10  20  37  60  85 117 160 204 250 308 376
#     4   9  18  32  53  80 112 153 199 248 304 366
#     4  10  20  37  60  88 119 156 204 258 306 360
#     4   9  19  35  57  82 115 159 204 247 304 375
#     4  10  18  35  57  81 117 164 208 251 310 379
#
# _framework density 21.929922000000001
#
# number of rings (size 3 to 8) (size 9 to 14) (size 15 to 20)
#    0.000    2.400    0.000    4.200    0.000    0.000 
#    0.000   19.000    0.000    2.400    0.000    0.000 
#    0.000    0.000    0.000    1.400    0.000    0.000 
#
# Total GULP energy -111667.527209 kJ/mol
# GULP energy per Si atom -5583.376360 kJ/mol
# Density = 2.188001 g / cm^3
# Si number density = 21.929922 Si / 1000 Ang^3
#
#
#
# Elastic Constant Matrix: (Units=GPa)
#
#
# Indices 1 2 3 4 5 6 
#
# 1 201.2177 74.2779 64.2545 0.0001 -0.4088 0.0000
# 2 74.2779 99.6493 39.2986 -0.0002 -0.7392 -0.0002
# 3 64.2545 39.2986 94.0475 0.0002 -12.5651 -0.0001
# 4 0.0001 -0.0002 0.0002 30.0730 -0.0002 4.4351
# 5 -0.4088 -0.7392 -12.5651 -0.0002 52.7546 0.0001
# 6 0.0000 -0.0002 -0.0001 4.4351 0.0001 20.8797
#
#
#
# Elastic Compliance Matrix: (Units=1/GPa)
#
#
# Indices 1 2 3 4 5 6 
#
# 1 0.007712 -0.004349 -0.003565 0.000000 -0.000850 0.000000
# 2 -0.004349 0.014525 -0.003177 0.000000 -0.000587 0.000000
# 3 -0.003565 -0.003177 0.014859 0.000000 0.003467 0.000000
# 4 0.000000 0.000000 0.000000 0.034328 0.000000 -0.007292
# 5 -0.000850 -0.000587 0.003467 0.000000 0.019767 0.000000
# 6 0.000000 0.000000 0.000000 -0.007292 0.000000 0.049442
#
#
# Mechanical properties :
#
#
# Convention : Reuss Voigt Hill
#
# Bulk Modulus (GPa) = 67.04706 83.39739 75.22223
# Shear Modulus (GPa) = 29.79988 35.21369 32.50679
#
# Velocity S-wave (km/s) = 3.69028 4.01151 3.85425
# Velocity P-wave (km/s) = 6.98550 7.71803 7.36088
#
# Compressibility (1/GPa) = 0.01491490
#
# Stress axis : x y z
#
# Youngs Moduli (GPa) = 129.67235 68.84651 67.29707
#
# Poissons Ratio (x) = 0.29938 0.23993
# Poissons Ratio (y) = 0.56389 0.21379
# Poissons Ratio (z) = 0.46232 0.21872
#
# Static dielectric constant tensor:
#      x y z
#    x 1.820600 0.000000 0.001790 
#    y 0.000000 1.794560 0.000000 
#    z 0.001790 0.000000 1.822360 
# 
# From -- ./inp_files/205615.got.cif
#   From: 2010.05.17/outbox.cif.g08.bks.cpg/sg15_103_cif.got.tgz:205615.got - 2010.06.03 18:47:42.
