data_PCOD9259649
_publ_section_title
;
Structure prediction by ZEFSAII (Michael W. Deem and Ramdas Pophale) SiO2 
 PCOD9259649
Probable space group: C 2/C
;
_chemical_formula_sum "Si O2"
_cell_formula_units_Z 44
_cell_length_a 9.898557
_cell_length_b 15.817075
_cell_length_c 23.647350
_cell_angle_alpha 90.000000
_cell_angle_beta 148.996176
_cell_angle_gamma 90.000000
_cell_volume 1907.076496
_symmetry_space_group_name_H-M "C 2/C"
_symmetry_group_IT_number 15
_symmetry_cell_setting 'monoclinic'
loop_
_space_group_symop_operation_xyz
x,y,z
-x,y,1/2-z
-x,-y,-z
x,-y,1/2+z
1/2+x,1/2+y,z
1/2-x,1/2+y,1/2-z
1/2-x,1/2-y,-z
1/2+x,1/2-y,1/2+z
loop_
_atom_site_type_symbol
_atom_site_label
_atom_site_fract_x
_atom_site_fract_y
_atom_site_fract_z
Si Si1 0.099044 0.375362 0.722564
Si Si2 0.296927 0.255825 0.450677
Si Si3 0.000000 0.931255 0.250000
Si Si4 0.655371 0.662943 0.995239
Si Si5 0.768843 0.818020 0.260427
Si Si6 0.623777 0.588733 0.352411
O O1 0.126322 0.274138 0.722321
O O2 0.386696 0.411477 0.812446
O O3 0.000000 0.394724 0.750000
O O4 0.892140 0.398664 0.598050
O O5 0.250000 0.250000 0.500000
O O6 0.530761 0.311106 0.510787
O O7 0.332870 0.158725 0.444012
O O8 0.030448 0.297995 0.331764
O O9 0.186195 0.877039 0.277213
O O10 0.176145 0.993563 0.352362
O O11 0.428660 0.639771 0.869490
O O12 0.750000 0.750000 0.000000
O O13 0.500000 0.626133 0.250000
#
# Coordination Sequence:
#
# PCOD9259649 Si02
#       6
#     8   8   4   8   8   8
#     4  10  18  35  62  87 116 151 203 249 298 365
#     4  11  21  36  62  92 120 159 213 260 300 365
#     4  10  22  40  62  86 126 168 192 258 320 374
#     4  10  20  32  61  91 117 153 203 255 300 350
#     4  10  20  37  58  85 122 156 208 248 307 368
#     4   9  20  38  58  87 120 156 201 247 305 365
#
# _framework density 23.071964000000001
#
# number of rings (size 3 to 8) (size 9 to 14) (size 15 to 20)
#    0.545    1.455    0.909    6.000    2.545    0.000 
#    0.000    5.455    0.000    3.273    0.000    0.000 
#    0.000    0.000    0.000    0.000    0.000    0.000 
#
# Total GULP energy -122680.285082 kJ/mol
# GULP energy per Si atom -5576.376595 kJ/mol
# Density = 2.301945 g / cm^3
# Si number density = 23.071964 Si / 1000 Ang^3
#
#
#
# Elastic Constant Matrix: (Units=GPa)
#
#
# Indices 1 2 3 4 5 6 
#
# 1 91.9826 7.1579 -9.4921 -0.0002 -11.0818 -0.0003
# 2 7.1579 62.8981 -0.0500 -0.0004 -1.1049 -0.0002
# 3 -9.4921 -0.0500 62.9180 -0.0011 -4.2841 -0.0017
# 4 -0.0002 -0.0004 -0.0011 10.6729 -0.0003 -9.2919
# 5 -11.0818 -1.1049 -4.2841 -0.0003 34.2034 -0.0002
# 6 -0.0003 -0.0002 -0.0017 -9.2919 -0.0002 31.3720
#
#
#
# Elastic Compliance Matrix: (Units=1/GPa)
#
#
# Indices 1 2 3 4 5 6 
#
# 1 0.011660 -0.001255 0.002030 0.000001 0.003991 0.000001
# 2 -0.001255 0.016043 -0.000170 0.000001 0.000090 0.000000
# 3 0.002030 -0.000170 0.016384 0.000003 0.002704 0.000002
# 4 0.000001 0.000001 0.000003 0.126251 0.000002 0.037394
# 5 0.003991 0.000090 0.002704 0.000002 0.030872 0.000001
# 6 0.000001 0.000000 0.000002 0.037394 0.000001 0.042951
#
#
# Mechanical properties :
#
#
# Convention : Reuss Voigt Hill
#
# Bulk Modulus (GPa) = 22.07751 23.67002 22.87377
# Shear Modulus (GPa) = 19.37609 29.92852 24.65230
#
# Velocity S-wave (km/s) = 2.90109 3.60555 3.27233
# Velocity P-wave (km/s) = 4.56197 5.25498 4.92069
#
# Compressibility (1/GPa) = 0.04529496
#
# Stress axis : x y z
#
# Youngs Moduli (GPa) = 85.76604 62.33238 61.03542
#
# Poissons Ratio (x) = 0.07824 -0.12389
# Poissons Ratio (y) = 0.10765 0.01040
# Poissons Ratio (z) = -0.17409 0.01062
#
# Static dielectric constant tensor:
#      x y z
#    x 1.862960 0.000000 -0.009560 
#    y 0.000000 1.859610 0.000000 
#    z -0.009560 0.000000 2.014400 
# 
# From -- ./inp_files/265639.got.cif
#   From: 2010.05.17/outbox.cif.g08.bks.cpg/sg15_133_cif.got.tgz:265639.got - 2010.06.03 18:47:42.
