data_PCOD9259991
_publ_section_title
;
Structure prediction by ZEFSAII (Michael W. Deem and Ramdas Pophale) SiO2 
 PCOD9259991
Probable space group: C 2/C
;
_chemical_formula_sum "Si O2"
_cell_formula_units_Z 60
_cell_length_a 17.641514
_cell_length_b 28.089785
_cell_length_c 8.767579
_cell_angle_alpha 90.000000
_cell_angle_beta 134.590399
_cell_angle_gamma 90.000000
_cell_volume 3094.080368
_symmetry_space_group_name_H-M "C 2/C"
_symmetry_group_IT_number 15
_symmetry_cell_setting 'monoclinic'
loop_
_space_group_symop_operation_xyz
x,y,z
-x,y,1/2-z
-x,-y,-z
x,-y,1/2+z
1/2+x,1/2+y,z
1/2-x,1/2+y,1/2-z
1/2-x,1/2-y,-z
1/2+x,1/2-y,1/2+z
loop_
_atom_site_type_symbol
_atom_site_label
_atom_site_fract_x
_atom_site_fract_y
_atom_site_fract_z
Si Si1 0.000000 0.158577 0.250000
Si Si2 0.874720 0.883848 0.043871
Si Si3 0.172313 0.801702 0.763297
Si Si4 0.342283 0.191872 0.759970
Si Si5 0.012461 0.617450 0.949652
Si Si6 0.331015 0.044417 0.729527
Si Si7 0.205068 0.556784 0.182864
Si Si8 0.310887 0.617405 0.799049
O O1 0.079873 0.188877 0.257881
O O2 0.074784 0.127526 0.464493
O O3 0.821466 0.883565 0.134234
O O4 0.000000 0.885884 0.250000
O O5 0.846148 0.838216 0.899703
O O6 0.826027 0.929259 0.887982
O O7 0.162187 0.746871 0.701502
O O8 0.284319 0.810570 0.010718
O O9 0.457984 0.166793 0.924648
O O10 0.266917 0.160116 0.759773
O O11 0.938051 0.574939 0.908966
O O12 0.000000 0.617454 0.750000
O O13 0.133251 0.601047 0.142146
O O14 0.309778 0.049538 0.518873
O O15 0.239793 0.070614 0.697717
O O16 0.334021 0.990244 0.786359
#
# Coordination Sequence:
#
# PCOD9259991 Si02
#       8
#     4   8   8   8   8   8   8   8
#     4  10  18  36  60  86 114 166 196 252 294 362
#     4  12  24  41  59  87 124 167 202 256 310 360
#     4  10  20  37  61  90 125 159 211 247 307 362
#     4   9  20  38  62  93 119 163 207 253 300 370
#     4   9  18  35  62  91 125 159 200 250 304 365
#     4  10  21  39  63  93 121 158 204 251 316 371
#     4  11  22  40  62  90 124 160 206 257 307 373
#     4  10  21  39  61  86 123 157 203 248 310 363
#
# _framework density 19.391869
#
# number of rings (size 3 to 8) (size 9 to 14) (size 15 to 20)
#    0.000    1.867    1.333    4.400    0.933    0.533 
#    3.600    8.000    0.000    0.000    0.000    0.000 
#    0.000    0.000    0.000    0.000    0.000    0.000 
#
# Total GULP energy -167410.852148 kJ/mol
# GULP energy per Si atom -5580.361738 kJ/mol
# Density = 1.934773 g / cm^3
# Si number density = 19.391869 Si / 1000 Ang^3
#
#
#
# Elastic Constant Matrix: (Units=GPa)
#
#
# Indices 1 2 3 4 5 6 
#
# 1 68.5786 34.1234 29.5431 0.0000 -10.1395 0.0000
# 2 34.1234 80.7502 17.2253 0.0000 0.5758 0.0000
# 3 29.5431 17.2253 59.1343 0.0000 -5.2477 0.0000
# 4 0.0000 0.0000 0.0000 19.6940 0.0000 -7.2136
# 5 -10.1395 0.5758 -5.2477 0.0000 28.8878 0.0000
# 6 0.0000 0.0000 0.0000 -7.2136 0.0000 17.6900
#
#
#
# Elastic Compliance Matrix: (Units=1/GPa)
#
#
# Indices 1 2 3 4 5 6 
#
# 1 0.023346 -0.008054 -0.008716 0.000000 0.006771 0.000000
# 2 -0.008054 0.016010 -0.000934 0.000000 -0.003316 0.000000
# 3 -0.008716 -0.000934 0.021616 0.000000 0.000886 0.000000
# 4 0.000000 0.000000 0.000000 0.059693 0.000000 0.024341
# 5 0.006771 -0.003316 0.000886 0.000000 0.037220 0.000000
# 6 0.000000 0.000000 0.000000 0.024341 0.000000 0.066455
#
#
# Mechanical properties :
#
#
# Convention : Reuss Voigt Hill
#
# Bulk Modulus (GPa) = 39.11958 41.13851 40.12904
# Shear Modulus (GPa) = 18.63795 21.75911 20.19853
#
# Velocity S-wave (km/s) = 3.10356 3.35337 3.23088
# Velocity P-wave (km/s) = 5.74976 6.02112 5.88700
#
# Compressibility (1/GPa) = 0.02556265
#
# Stress axis : x y z
#
# Youngs Moduli (GPa) = 42.83479 62.45963 46.26222
#
# Poissons Ratio (x) = 0.50307 0.40323
# Poissons Ratio (y) = 0.34500 0.04321
# Poissons Ratio (z) = 0.37336 0.05834
#
# Static dielectric constant tensor:
#      x y z
#    x 1.690330 0.000000 0.029240 
#    y 0.000000 1.677800 0.000000 
#    z 0.029240 0.000000 1.695730 
# 
# From -- ./inp_files/52191.got.cif
#   From: 2010.05.17/outbox.cif.g08.bks.cpg/sg15_27_cif.got.tgz:52191.got - 2010.06.03 18:47:42.
