data_PCOD9259215
_publ_section_title
;
Structure prediction by ZEFSAII (Michael W. Deem and Ramdas Pophale) SiO2 
 PCOD9259215
Probable space group: C 2/C
;
_chemical_formula_sum "Si O2"
_cell_formula_units_Z 52
_cell_length_a 28.357774
_cell_length_b 9.198049
_cell_length_c 13.509857
_cell_angle_alpha 90.000000
_cell_angle_beta 135.525391
_cell_angle_gamma 90.000000
_cell_volume 2468.791834
_symmetry_space_group_name_H-M "C 2/C"
_symmetry_group_IT_number 15
_symmetry_cell_setting 'monoclinic'
loop_
_space_group_symop_operation_xyz
x,y,z
-x,y,1/2-z
-x,-y,-z
x,-y,1/2+z
1/2+x,1/2+y,z
1/2-x,1/2+y,1/2-z
1/2-x,1/2-y,-z
1/2+x,1/2-y,1/2+z
loop_
_atom_site_type_symbol
_atom_site_label
_atom_site_fract_x
_atom_site_fract_y
_atom_site_fract_z
Si Si1 0.000000 0.280699 0.250000
Si Si2 0.751361 0.579300 0.022532
Si Si3 0.251583 0.367473 0.308027
Si Si4 0.882725 0.754565 0.851612
Si Si5 0.650349 0.848769 0.418974
Si Si6 0.652050 0.427570 0.220186
Si Si7 0.515344 0.666909 0.492303
O O1 0.074461 0.358338 0.351813
O O2 0.005774 0.189297 0.360532
O O3 0.750762 0.516470 0.132245
O O4 0.811290 0.497665 0.052943
O O5 0.750000 0.750000 0.000000
O O6 0.680482 0.532279 0.868863
O O7 0.173701 0.329306 0.173435
O O8 0.295847 0.248795 0.437567
O O9 0.288542 0.377415 0.260312
O O10 0.860973 0.725227 0.705318
O O11 0.962602 0.730049 0.970403
O O12 0.873455 0.922658 0.864905
O O13 0.592820 0.311186 0.134833
O O14 0.500000 0.500000 0.500000
#
# Coordination Sequence:
#
# PCOD9259215 Si02
#       7
#     4   8   8   8   8   8   8
#     4  10  18  34  62  88 116 162 212 240 292 366
#     4  11  24  38  57  87 122 153 195 255 305 350
#     4  11  20  36  62  86 114 160 201 245 291 356
#     4   9  18  35  55  81 113 149 194 241 286 347
#     4  10  18  38  62  81 113 161 200 243 294 359
#     4  11  20  33  58  88 120 149 197 238 296 355
#     4   9  19  31  55  88 120 149 191 247 293 342
#
# _framework density 21.062933000000001
#
# number of rings (size 3 to 8) (size 9 to 14) (size 15 to 20)
#    0.000    1.846    4.615    0.923    2.154    0.000 
#    0.000    0.000    3.385    3.692    0.000    0.000 
#    0.000    0.000    0.000    0.000    0.000    0.000 
#
# Total GULP energy -144738.949011 kJ/mol
# GULP energy per Si atom -5566.882654 kJ/mol
# Density = 2.101499 g / cm^3
# Si number density = 21.062933 Si / 1000 Ang^3
#
#
#
# Elastic Constant Matrix: (Units=GPa)
#
#
# Indices 1 2 3 4 5 6 
#
# 1 111.9591 24.9572 46.7334 0.0000 42.8168 0.0000
# 2 24.9572 85.1482 16.1941 0.0000 17.4777 0.0000
# 3 46.7334 16.1941 69.1922 0.0000 31.7042 0.0000
# 4 0.0000 0.0000 0.0000 21.4899 0.0000 6.4906
# 5 42.8168 17.4777 31.7042 0.0000 31.0683 0.0000
# 6 0.0000 0.0000 0.0000 6.4906 0.0000 20.7145
#
#
#
# Elastic Compliance Matrix: (Units=1/GPa)
#
#
# Indices 1 2 3 4 5 6 
#
# 1 0.018980 -0.000254 -0.001578 0.000000 -0.024405 0.000000
# 2 -0.000254 0.013294 0.000613 0.000000 -0.007755 0.000000
# 3 -0.001578 0.000613 0.027303 0.000000 -0.026032 0.000000
# 4 0.000000 0.000000 0.000000 0.051398 0.000000 -0.016105
# 5 -0.024405 -0.007755 -0.026032 0.000000 0.096749 0.000000
# 6 0.000000 0.000000 0.000000 -0.016105 0.000000 0.053322
#
#
# Mechanical properties :
#
#
# Convention : Reuss Voigt Hill
#
# Bulk Modulus (GPa) = 17.50075 49.11875 33.30975
# Shear Modulus (GPa) = 17.69741 26.54884 22.12312
#
# Velocity S-wave (km/s) = 2.90179 3.55414 3.24440
# Velocity P-wave (km/s) = 4.42199 6.34138 5.46659
#
# Compressibility (1/GPa) = 0.05714039
#
# Stress axis : x y z
#
# Youngs Moduli (GPa) = 52.68662 75.22363 36.62641
#
# Poissons Ratio (x) = 0.01908 0.05778
# Poissons Ratio (y) = 0.01337 -0.02246
# Poissons Ratio (z) = 0.08312 -0.04613
#
# Static dielectric constant tensor:
#      x y z
#    x 1.807490 0.000000 0.092010 
#    y 0.000000 1.831440 0.000000 
#    z 0.092010 0.000000 1.830100 
# 
# From -- ./inp_files/181214.got.cif
#   From: 2010.05.17/outbox.cif.g08.bks.cpg/sg15_91_cif.got.tgz:181214.got - 2010.06.03 18:47:42.
