data_PCOD9259823
_publ_section_title
;
Structure prediction by ZEFSAII (Michael W. Deem and Ramdas Pophale) SiO2 
 PCOD9259823
Probable space group: C 2/C
;
_chemical_formula_sum "Si O2"
_cell_formula_units_Z 52
_cell_length_a 25.190579
_cell_length_b 14.074796
_cell_length_c 15.255547
_cell_angle_alpha 90.000000
_cell_angle_beta 152.842168
_cell_angle_gamma 90.000000
_cell_volume 2468.850559
_symmetry_space_group_name_H-M "C 2/C"
_symmetry_group_IT_number 15
_symmetry_cell_setting 'monoclinic'
loop_
_space_group_symop_operation_xyz
x,y,z
-x,y,1/2-z
-x,-y,-z
x,-y,1/2+z
1/2+x,1/2+y,z
1/2-x,1/2+y,1/2-z
1/2-x,1/2-y,-z
1/2+x,1/2-y,1/2+z
loop_
_atom_site_type_symbol
_atom_site_label
_atom_site_fract_x
_atom_site_fract_y
_atom_site_fract_z
Si Si1 0.150252 0.762144 0.627520
Si Si2 0.340700 0.161866 0.042392
Si Si3 0.104050 0.669874 0.056689
Si Si4 0.000000 0.803963 0.750000
Si Si5 0.248872 0.342694 0.437420
Si Si6 0.098667 0.201013 0.717975
Si Si7 0.057378 0.529257 0.742102
O O1 0.133728 0.695082 0.518342
O O2 0.263141 0.827690 0.779791
O O3 0.177890 0.691471 0.747909
O O4 0.035874 0.825076 0.474912
O O5 0.204322 0.133099 0.846536
O O6 0.364771 0.255106 0.135477
O O7 0.412648 0.078778 0.193627
O O8 0.102628 0.717602 0.149462
O O9 0.036224 0.739377 0.887913
O O10 0.042957 0.567547 0.969675
O O11 0.882812 0.860659 0.605267
O O12 0.250000 0.250000 0.500000
O O13 0.175500 0.420941 0.382294
O O14 0.000000 0.562831 0.750000
#
# Coordination Sequence:
#
# PCOD9259823 Si02
#       7
#     8   8   8   4   8   8   8
#     4  10  19  37  62  89 119 164 209 253 311 382
#     4  10  24  37  60  87 124 165 207 261 312 378
#     4  10  19  32  60  91 115 155 209 257 301 371
#     4  10  18  36  56  92 118 160 212 252 318 370
#     4  11  20  35  65  90 123 166 207 267 310 377
#     4  10  19  40  59  82 116 172 210 242 311 381
#     4  12  21  37  57  94 122 154 204 262 316 359
#
# _framework density 21.062432999999999
#
# number of rings (size 3 to 8) (size 9 to 14) (size 15 to 20)
#    0.000    1.538    3.846    2.308    0.000    0.615 
#    2.769    0.000   10.154   15.692    0.000    0.000 
#    0.000    0.000    0.000    0.000    0.000    0.000 
#
# Total GULP energy -144933.170425 kJ/mol
# GULP energy per Si atom -5574.352709 kJ/mol
# Density = 2.101449 g / cm^3
# Si number density = 21.062433 Si / 1000 Ang^3
#
#
#
# Elastic Constant Matrix: (Units=GPa)
#
#
# Indices 1 2 3 4 5 6 
#
# 1 103.3521 2.5485 36.4327 0.0000 6.2032 0.0000
# 2 2.5485 33.2919 7.1408 0.0000 7.6869 0.0000
# 3 36.4327 7.1408 118.0616 0.0000 35.9696 0.0000
# 4 0.0000 0.0000 0.0000 23.4679 0.0000 7.7234
# 5 6.2032 7.6869 35.9696 0.0000 75.3263 0.0000
# 6 0.0000 0.0000 0.0000 7.7234 0.0000 15.9245
#
#
#
# Elastic Compliance Matrix: (Units=1/GPa)
#
#
# Indices 1 2 3 4 5 6 
#
# 1 0.010903 -0.000257 -0.003608 0.000000 0.000851 0.000000
# 2 -0.000257 0.030882 -0.000977 0.000000 -0.002664 0.000000
# 3 -0.003608 -0.000977 0.011143 0.000000 -0.004924 0.000000
# 4 0.000000 0.000000 0.000000 0.050705 0.000000 -0.024592
# 5 0.000851 -0.002664 -0.004924 0.000000 0.015829 0.000000
# 6 0.000000 0.000000 0.000000 -0.024592 0.000000 0.074723
#
#
# Mechanical properties :
#
#
# Convention : Reuss Voigt Hill
#
# Bulk Modulus (GPa) = 23.12545 38.54996 30.83770
# Shear Modulus (GPa) = 22.90603 36.84931 29.87767
#
# Velocity S-wave (km/s) = 3.30135 4.18727 3.77042
# Velocity P-wave (km/s) = 5.05324 6.45911 5.79894
#
# Compressibility (1/GPa) = 0.04324241
#
# Stress axis : x y z
#
# Youngs Moduli (GPa) = 91.71881 32.38174 89.74261
#
# Poissons Ratio (x) = 0.00833 0.32383
# Poissons Ratio (y) = 0.02360 0.08767
# Poissons Ratio (z) = 0.33096 0.03163
#
# Static dielectric constant tensor:
#      x y z
#    x 1.885430 0.000000 0.041160 
#    y 0.000000 1.739010 0.000000 
#    z 0.041160 0.000000 1.822290 
# 
# From -- ./inp_files/174018.got.cif
#   From: 2010.05.17/outbox.cif.g08.bks.cpg/sg15_88_cif.got.tgz:174018.got - 2010.06.03 18:47:42.
