data_PCOD9259146
_publ_section_title
;
Structure prediction by ZEFSAII (Michael W. Deem and Ramdas Pophale) SiO2 
 PCOD9259146
Probable space group: C 2/C
;
_chemical_formula_sum "Si O2"
_cell_formula_units_Z 52
_cell_length_a 16.281463
_cell_length_b 11.363341
_cell_length_c 22.178067
_cell_angle_alpha 90.000000
_cell_angle_beta 149.812556
_cell_angle_gamma 90.000000
_cell_volume 2063.216487
_symmetry_space_group_name_H-M "C 2/C"
_symmetry_group_IT_number 15
_symmetry_cell_setting 'monoclinic'
loop_
_space_group_symop_operation_xyz
x,y,z
-x,y,1/2-z
-x,-y,-z
x,-y,1/2+z
1/2+x,1/2+y,z
1/2-x,1/2+y,1/2-z
1/2-x,1/2-y,-z
1/2+x,1/2-y,1/2+z
loop_
_atom_site_type_symbol
_atom_site_label
_atom_site_fract_x
_atom_site_fract_y
_atom_site_fract_z
Si Si1 0.733782 0.425624 0.995369
Si Si2 0.224691 0.580292 0.665473
Si Si3 0.640914 0.149243 0.046663
Si Si4 0.504246 0.388032 0.959164
Si Si5 0.143045 0.299139 0.736748
Si Si6 0.500000 0.039343 0.250000
Si Si7 0.702669 0.160412 0.522583
O O1 0.887020 0.458416 0.135976
O O2 0.705111 0.544200 0.939330
O O3 0.778263 0.339080 0.968444
O O4 0.585066 0.408417 0.945606
O O5 0.233625 0.448248 0.646008
O O6 0.359703 0.658295 0.784478
O O7 0.237362 0.669180 0.614965
O O8 0.043735 0.596798 0.577904
O O9 0.611622 0.279212 0.053493
O O10 0.320297 0.345787 0.831815
O O11 0.500000 0.500000 0.000000
O O12 0.102914 0.370788 0.773887
O O13 0.991624 0.351011 0.602762
O O14 0.750000 0.250000 0.500000
#
# Coordination Sequence:
#
# PCOD9259146 Si02
#       7
#     8   8   8   8   8   4   8
#     4  10  20  37  59  92 125 174 213 269 331 391
#     4   9  18  38  61  89 127 170 204 267 339 392
#     4   9  20  36  61  84 129 171 206 263 341 387
#     4  11  21  37  61  92 123 169 220 272 319 396
#     4  10  20  36  63  94 124 167 218 274 330 388
#     4  10  18  34  60  90 124 160 224 276 330 388
#     4  10  21  36  64  99 125 164 221 279 328 399
#
# _framework density 25.203365000000002
#
# number of rings (size 3 to 8) (size 9 to 14) (size 15 to 20)
#    0.000    2.154    1.538    2.308    2.154    0.000 
#    0.000   16.923    0.000    7.385    0.000    0.000 
#    0.000    0.000    0.000    0.000    0.000    0.000 
#
# Total GULP energy -145011.385536 kJ/mol
# GULP energy per Si atom -5577.360982 kJ/mol
# Density = 2.514600 g / cm^3
# Si number density = 25.203365 Si / 1000 Ang^3
#
#
#
# Elastic Constant Matrix: (Units=GPa)
#
#
# Indices 1 2 3 4 5 6 
#
# 1 181.0477 54.7812 31.8156 -0.0001 21.0637 -0.0001
# 2 54.7812 148.0856 26.9598 0.0002 14.5516 -0.0004
# 3 31.8156 26.9598 29.3837 0.0010 20.6496 -0.0013
# 4 -0.0001 0.0002 0.0010 12.2130 0.0002 17.7282
# 5 21.0637 14.5516 20.6496 0.0002 32.6675 -0.0003
# 6 -0.0001 -0.0004 -0.0013 17.7282 -0.0003 18.1853
#
#
#
# Elastic Compliance Matrix: (Units=1/GPa)
#
#
# Indices 1 2 3 4 5 6 
#
# 1 0.007078 -0.001463 -0.006427 -0.000003 0.000151 0.000002
# 2 -0.001463 0.008480 -0.007565 -0.000002 0.001948 0.000002
# 3 -0.006427 -0.007565 0.076744 0.000029 -0.040996 -0.000024
# 4 -0.000003 -0.000002 0.000029 -0.197254 -0.000013 0.192296
# 5 0.000151 0.001948 -0.040996 -0.000013 0.055561 0.000010
# 6 0.000002 0.000002 -0.000024 0.192296 0.000010 -0.132474
#
#
# Mechanical properties :
#
#
# Convention : Reuss Voigt Hill
#
# Bulk Modulus (GPa) = 16.28933 65.07002 40.67967
# Shear Modulus (GPa) = -38.31711 28.94384 -4.68663
#
# Velocity S-wave (km/s) = -3.90335 3.39250 -1.36512
# Velocity P-wave (km/s) = 3.71991 6.42024 3.70012
#
# Compressibility (1/GPa) = 0.06138989
#
# Stress axis : x y z
#
# Youngs Moduli (GPa) = 141.28183 117.92506 13.03041
#
# Poissons Ratio (x) = 0.17253 0.08375
# Poissons Ratio (y) = 0.20670 0.09858
# Poissons Ratio (z) = 0.90807 0.89215
#
# Static dielectric constant tensor:
#      x y z
#    x 4.625790 -0.000050 1.165860 
#    y -0.000050 1.585750 -0.000020 
#    z 1.165860 -0.000020 2.777480 
# 
# From -- ./inp_files/273886.got.cif
#   From: 2010.05.17/outbox.cif.g08.bks.cpg/sg15_137_cif.got.tgz:273886.got - 2010.06.03 18:47:42.
