data_PCOD9259166
_publ_section_title
;
Structure prediction by ZEFSAII (Michael W. Deem and Ramdas Pophale) SiO2 
 PCOD9259166
Probable space group: C 2/C
;
_chemical_formula_sum "Si O2"
_cell_formula_units_Z 64
_cell_length_a 20.465919
_cell_length_b 21.935177
_cell_length_c 17.467002
_cell_angle_alpha 90.000000
_cell_angle_beta 156.559823
_cell_angle_gamma 90.000000
_cell_volume 3119.220599
_symmetry_space_group_name_H-M "C 2/C"
_symmetry_group_IT_number 15
_symmetry_cell_setting 'monoclinic'
loop_
_space_group_symop_operation_xyz
x,y,z
-x,y,1/2-z
-x,-y,-z
x,-y,1/2+z
1/2+x,1/2+y,z
1/2-x,1/2+y,1/2-z
1/2-x,1/2-y,-z
1/2+x,1/2-y,1/2+z
loop_
_atom_site_type_symbol
_atom_site_label
_atom_site_fract_x
_atom_site_fract_y
_atom_site_fract_z
Si Si1 0.670127 0.105966 0.388407
Si Si2 0.183237 0.973227 0.915316
Si Si3 0.875618 0.209809 0.558872
Si Si4 0.909774 0.774979 0.344016
Si Si5 0.839369 0.458476 0.928654
Si Si6 0.447603 0.929040 0.892099
Si Si7 0.846926 0.674850 0.819606
Si Si8 0.414360 0.865206 0.231483
O O1 0.500000 0.113769 0.250000
O O2 0.806066 0.157852 0.540347
O O3 0.627886 0.111790 0.253833
O O4 0.739601 0.038744 0.479839
O O5 0.198944 0.970637 0.839517
O O6 0.000000 0.969324 0.750000
O O7 0.290397 0.917780 0.067022
O O8 0.731131 0.248406 0.363858
O O9 0.000000 0.245465 0.750000
O O10 0.973436 0.188166 0.588231
O O11 0.819696 0.811207 0.314500
O O12 0.018995 0.722686 0.502819
O O13 0.811872 0.446451 0.809354
O O14 0.968732 0.514262 0.061186
O O15 0.936688 0.401229 0.067619
O O16 0.590536 0.891917 0.087987
O O17 0.838078 0.675022 0.717744
O O18 0.500000 0.833803 0.250000
#
# Coordination Sequence:
#
# PCOD9259166 Si02
#       8
#     8   8   8   8   8   8   8   8
#     4  12  22  36  57  85 119 152 194 229 280 337
#     4  11  21  36  54  88 125 149 180 235 287 340
#     4  11  24  38  58  82 112 157 196 239 282 334
#     4  10  23  42  56  82 116 148 197 246 295 329
#     4   9  18  35  59  82 112 151 193 221 271 347
#     4  10  18  34  61  81 106 151 197 221 273 339
#     4  10  21  39  63  83 114 150 191 245 291 340
#     4   9  18  38  63  86 110 152 192 226 286 361
#
# _framework density 20.517945999999998
#
# number of rings (size 3 to 8) (size 9 to 14) (size 15 to 20)
#    0.000    1.750    3.750    1.125    1.750    1.500 
#    2.250    2.500    0.000    0.000    0.000    0.000 
#    0.000    0.000    0.000    0.000    0.000    0.000 
#
# Total GULP energy -178304.508510 kJ/mol
# GULP energy per Si atom -5572.015891 kJ/mol
# Density = 2.047125 g / cm^3
# Si number density = 20.517946 Si / 1000 Ang^3
#
#
#
# Elastic Constant Matrix: (Units=GPa)
#
#
# Indices 1 2 3 4 5 6 
#
# 1 211.1083 39.5273 48.3444 0.0000 28.5402 0.0000
# 2 39.5273 34.9319 8.1493 0.0000 4.0499 0.0000
# 3 48.3444 8.1493 40.6441 0.0000 13.8633 0.0000
# 4 0.0000 0.0000 0.0000 65.6043 0.0000 -20.1103
# 5 28.5402 4.0499 13.8633 0.0000 35.1891 0.0000
# 6 0.0000 0.0000 0.0000 -20.1103 0.0000 43.2650
#
#
#
# Elastic Compliance Matrix: (Units=1/GPa)
#
#
# Indices 1 2 3 4 5 6 
#
# 1 0.008133 -0.007175 -0.007240 0.000000 -0.002918 0.000000
# 2 -0.007175 0.036411 0.000784 0.000000 0.001320 0.000000
# 3 -0.007240 0.000784 0.035911 0.000000 -0.008366 0.000000
# 4 0.000000 0.000000 0.000000 0.017776 0.000000 0.008262
# 5 -0.002918 0.001320 -0.008366 0.000000 0.033929 0.000000
# 6 0.000000 0.000000 0.000000 0.008262 0.000000 0.026954
#
#
# Mechanical properties :
#
#
# Convention : Reuss Voigt Hill
#
# Bulk Modulus (GPa) = 18.79950 53.19183 35.99567
# Shear Modulus (GPa) = 24.49708 41.52256 33.00982
#
# Velocity S-wave (km/s) = 3.45908 4.50346 4.01537
# Velocity P-wave (km/s) = 5.01359 7.28164 6.25133
#
# Compressibility (1/GPa) = 0.05319291
#
# Stress axis : x y z
#
# Youngs Moduli (GPa) = 122.95869 27.46456 27.84630
#
# Poissons Ratio (x) = 0.19707 0.20159
# Poissons Ratio (y) = 0.88229 -0.02183
# Poissons Ratio (z) = 0.89017 -0.02153
#
# Static dielectric constant tensor:
#      x y z
#    x 1.791010 0.000000 -0.011480 
#    y 0.000000 1.774770 0.000000 
#    z -0.011480 0.000000 1.796180 
# 
# From -- ./inp_files/217132.got.cif
#   From: 2010.05.17/outbox.cif.g08.bks.cpg/sg15_109_cif.got.tgz:217132.got - 2010.06.03 18:47:42.
