data_PCOD9259882
_publ_section_title
;
Structure prediction by ZEFSAII (Michael W. Deem and Ramdas Pophale) SiO2 
 PCOD9259882
Probable space group: C 2/C
;
_chemical_formula_sum "Si O2"
_cell_formula_units_Z 60
_cell_length_a 17.128856
_cell_length_b 10.645265
_cell_length_c 17.753938
_cell_angle_alpha 90.000000
_cell_angle_beta 94.439893
_cell_angle_gamma 90.000000
_cell_volume 3227.559803
_symmetry_space_group_name_H-M "C 2/C"
_symmetry_group_IT_number 15
_symmetry_cell_setting 'monoclinic'
loop_
_space_group_symop_operation_xyz
x,y,z
-x,y,1/2-z
-x,-y,-z
x,-y,1/2+z
1/2+x,1/2+y,z
1/2-x,1/2+y,1/2-z
1/2-x,1/2-y,-z
1/2+x,1/2-y,1/2+z
loop_
_atom_site_type_symbol
_atom_site_label
_atom_site_fract_x
_atom_site_fract_y
_atom_site_fract_z
Si Si1 0.000000 0.566434 0.750000
Si Si2 0.911048 0.800411 0.749980
Si Si3 0.887132 0.424055 0.516563
Si Si4 0.955869 0.401303 0.893053
Si Si5 0.309495 0.206016 0.880353
Si Si6 0.704323 0.475348 0.279093
Si Si7 0.192777 0.568866 0.344630
Si Si8 0.090469 0.252078 0.736863
O O1 0.069352 0.662193 0.782026
O O2 0.025508 0.491075 0.677547
O O3 0.878169 0.759093 0.830114
O O4 0.000000 0.858811 0.750000
O O5 0.843997 0.893641 0.712559
O O6 0.913158 0.522749 0.455186
O O7 0.840493 0.322135 0.465275
O O8 0.840463 0.487438 0.581339
O O9 0.962411 0.362744 0.562796
O O10 0.907368 0.290173 0.850766
O O11 0.266513 0.080739 0.843756
O O12 0.245261 0.313868 0.874701
O O13 0.753986 0.487864 0.206247
O O14 0.639471 0.369425 0.261085
O O15 0.126345 0.633291 0.287902
O O16 0.000000 0.234743 0.750000
#
# Coordination Sequence:
#
# PCOD9259882 Si02
#       8
#     4   8   8   8   8   8   8   8
#     4  10  18  36  58  84 108 140 196 234 276 322
#     4   9  19  35  61  83 107 148 185 240 276 331
#     4  11  20  34  53  82 113 147 186 226 282 337
#     4  11  21  32  60  85 108 142 195 241 267 324
#     4  10  20  35  56  80 112 149 185 228 280 349
#     4  10  22  37  58  87 115 144 189 237 288 327
#     4  10  21  35  57  80 114 150 180 231 289 335
#     4  11  20  38  63  86 109 145 198 241 269 327
#
# _framework density 18.589894999999999
#
# number of rings (size 3 to 8) (size 9 to 14) (size 15 to 20)
#    0.400    1.333    3.333    1.600    1.867    0.000 
#    0.000    0.667    8.800    1.600    0.000    0.000 
#    0.000    0.000    0.000    0.000    0.000    0.000 
#
# Total GULP energy -167013.709990 kJ/mol
# GULP energy per Si atom -5567.123666 kJ/mol
# Density = 1.854758 g / cm^3
# Si number density = 18.589895 Si / 1000 Ang^3
#
#
#
# Elastic Constant Matrix: (Units=GPa)
#
#
# Indices 1 2 3 4 5 6 
#
# 1 100.9070 15.4590 46.0743 0.0000 -4.7832 0.0000
# 2 15.4590 45.8730 26.3676 0.0000 4.0597 0.0000
# 3 46.0743 26.3676 107.6940 0.0000 5.8284 0.0000
# 4 0.0000 0.0000 0.0000 15.3216 0.0000 3.0356
# 5 -4.7832 4.0597 5.8284 0.0000 31.9952 0.0000
# 6 0.0000 0.0000 0.0000 3.0356 0.0000 21.4115
#
#
#
# Elastic Compliance Matrix: (Units=1/GPa)
#
#
# Indices 1 2 3 4 5 6 
#
# 1 0.012668 -0.001546 -0.005206 0.000000 0.003038 0.000000
# 2 -0.001546 0.025700 -0.005496 0.000000 -0.002491 0.000000
# 3 -0.005206 -0.005496 0.012991 0.000000 -0.002447 0.000000
# 4 0.000000 0.000000 0.000000 0.067154 0.000000 -0.009521
# 5 0.003038 -0.002491 -0.002447 0.000000 0.032471 0.000000
# 6 0.000000 0.000000 0.000000 -0.009521 0.000000 0.048054
#
#
# Mechanical properties :
#
#
# Convention : Reuss Voigt Hill
#
# Bulk Modulus (GPa) = 37.22537 47.80841 42.51689
# Shear Modulus (GPa) = 21.50667 24.85053 23.17860
#
# Velocity S-wave (km/s) = 3.40501 3.66016 3.53489
# Velocity P-wave (km/s) = 5.96044 6.60573 6.29136
#
# Compressibility (1/GPa) = 0.02686340
#
# Stress axis : x y z
#
# Youngs Moduli (GPa) = 78.94013 38.91078 76.97760
#
# Poissons Ratio (x) = 0.06014 0.40071
# Poissons Ratio (y) = 0.12202 0.42309
# Poissons Ratio (z) = 0.41093 0.21386
#
# Static dielectric constant tensor:
#      x y z
#    x 1.721010 0.000000 0.008490 
#    y 0.000000 1.666210 0.000000 
#    z 0.008490 0.000000 1.623840 
# 
# From -- ./inp_files/160960.got.cif
#   From: 2010.05.17/outbox.cif.g08.bks.cpg/sg15_81_cif.got.tgz:160960.got - 2010.06.03 18:47:42.
