data_PCOD9259361
_publ_section_title
;
Structure prediction by ZEFSAII (Michael W. Deem and Ramdas Pophale) SiO2 
 PCOD9259361
Probable space group: C 2/C
;
_chemical_formula_sum "Si O2"
_cell_formula_units_Z 60
_cell_length_a 29.604787
_cell_length_b 8.610036
_cell_length_c 24.172145
_cell_angle_alpha 90.000000
_cell_angle_beta 148.633970
_cell_angle_gamma 90.000000
_cell_volume 3207.050040
_symmetry_space_group_name_H-M "C 2/C"
_symmetry_group_IT_number 15
_symmetry_cell_setting 'monoclinic'
loop_
_space_group_symop_operation_xyz
x,y,z
-x,y,1/2-z
-x,-y,-z
x,-y,1/2+z
1/2+x,1/2+y,z
1/2-x,1/2+y,1/2-z
1/2-x,1/2-y,-z
1/2+x,1/2-y,1/2+z
loop_
_atom_site_type_symbol
_atom_site_label
_atom_site_fract_x
_atom_site_fract_y
_atom_site_fract_z
Si Si1 0.103585 0.903260 0.164675
Si Si2 0.959465 0.295293 0.801191
Si Si3 0.265958 0.059170 0.899264
Si Si4 0.355136 0.624030 0.498551
Si Si5 0.552716 0.884353 0.404354
Si Si6 0.433521 0.382504 0.498642
Si Si7 0.500000 0.333692 0.750000
Si Si8 0.353272 0.576331 0.620675
O O1 0.085590 0.763440 0.189250
O O2 0.191304 0.984226 0.277680
O O3 0.106416 0.857271 0.103655
O O4 0.021089 0.016431 0.084481
O O5 0.899816 0.236867 0.688258
O O6 0.984533 0.474829 0.827931
O O7 0.049703 0.199844 0.892162
O O8 0.295336 0.235276 0.915921
O O9 0.221902 0.051798 0.913587
O O10 0.351879 0.957237 0.990523
O O11 0.369720 0.482660 0.471724
O O12 0.323243 0.576322 0.526083
O O13 0.540845 0.776575 0.445146
O O14 0.543070 0.773303 0.341423
O O15 0.427597 0.444410 0.701990
#
# Coordination Sequence:
#
# PCOD9259361 Si02
#       8
#     8   8   8   8   8   8   4   8
#     4   9  20  41  63  83 109 162 200 245 280 368
#     4   9  19  34  59  81 112 149 199 227 288 345
#     4  10  23  35  55  87 120 147 203 239 296 340
#     4  10  18  35  55  82 107 157 189 236 281 358
#     4  11  23  36  55  93 123 151 189 257 296 347
#     4  10  20  40  64  82 116 154 204 236 304 347
#     4  12  22  36  62  80 122 164 194 240 304 346
#     4  11  19  39  59  79 115 162 197 235 279 371
#
# _framework density 18.708781999999999
#
# number of rings (size 3 to 8) (size 9 to 14) (size 15 to 20)
#    0.000    1.867    2.667    2.000    3.733    2.133 
#    0.000    2.667    0.000    0.000    0.000    0.000 
#    0.000    0.000    0.000    0.000    0.000    0.000 
#
# Total GULP energy -167428.790420 kJ/mol
# GULP energy per Si atom -5580.959681 kJ/mol
# Density = 1.866620 g / cm^3
# Si number density = 18.708782 Si / 1000 Ang^3
#
#
#
# Elastic Constant Matrix: (Units=GPa)
#
#
# Indices 1 2 3 4 5 6 
#
# 1 76.1278 35.1858 32.3188 0.0000 -23.7507 0.0000
# 2 35.1858 91.5042 15.7938 0.0000 -5.0678 0.0000
# 3 32.3188 15.7938 70.1365 0.0000 -13.8310 0.0000
# 4 0.0000 0.0000 0.0000 17.0342 0.0000 -1.2790
# 5 -23.7507 -5.0678 -13.8310 0.0000 28.8997 0.0000
# 6 0.0000 0.0000 0.0000 -1.2790 0.0000 7.7847
#
#
#
# Elastic Compliance Matrix: (Units=1/GPa)
#
#
# Indices 1 2 3 4 5 6 
#
# 1 0.024020 -0.007280 -0.006391 0.000000 0.015405 0.000000
# 2 -0.007280 0.013596 -0.000460 0.000000 -0.003819 0.000000
# 3 -0.006391 -0.000460 0.017949 0.000000 0.003257 0.000000
# 4 0.000000 0.000000 0.000000 0.059439 0.000000 0.009766
# 5 0.015405 -0.003819 0.003257 0.000000 0.048152 0.000000
# 6 0.000000 0.000000 0.000000 0.009766 0.000000 0.130061
#
#
# Mechanical properties :
#
#
# Convention : Reuss Voigt Hill
#
# Bulk Modulus (GPa) = 36.62724 44.92948 40.77836
# Shear Modulus (GPa) = 15.12496 21.04173 18.08334
#
# Velocity S-wave (km/s) = 2.84640 3.35729 3.11234
# Velocity P-wave (km/s) = 5.51568 6.25267 5.89570
#
# Compressibility (1/GPa) = 0.02730209
#
# Stress axis : x y z
#
# Youngs Moduli (GPa) = 41.63193 73.55249 55.71399
#
# Poissons Ratio (x) = 0.53547 0.35608
# Poissons Ratio (y) = 0.30308 0.02563
# Poissons Ratio (z) = 0.26608 0.03384
#
# Static dielectric constant tensor:
#      x y z
#    x 1.646670 0.000000 0.004180 
#    y 0.000000 1.642330 0.000000 
#    z 0.004180 0.000000 1.653580 
# 
# From -- ./inp_files/284318.got.cif
#   From: 2010.05.17/outbox.cif.g08.bks.cpg/sg15_143_cif.got.tgz:284318.got - 2010.06.03 18:47:42.
