data_PCOD9259690
_publ_section_title
;
Structure prediction by ZEFSAII (Michael W. Deem and Ramdas Pophale) SiO2 
 PCOD9259690
Probable space group: C 2/C
;
_chemical_formula_sum "Si O2"
_cell_formula_units_Z 56
_cell_length_a 11.530590
_cell_length_b 12.773939
_cell_length_c 19.422499
_cell_angle_alpha 90.000000
_cell_angle_beta 131.014428
_cell_angle_gamma 90.000000
_cell_volume 2158.570548
_symmetry_space_group_name_H-M "C 2/C"
_symmetry_group_IT_number 15
_symmetry_cell_setting 'monoclinic'
loop_
_space_group_symop_operation_xyz
x,y,z
-x,y,1/2-z
-x,-y,-z
x,-y,1/2+z
1/2+x,1/2+y,z
1/2-x,1/2+y,1/2-z
1/2-x,1/2-y,-z
1/2+x,1/2-y,1/2+z
loop_
_atom_site_type_symbol
_atom_site_label
_atom_site_fract_x
_atom_site_fract_y
_atom_site_fract_z
Si Si1 0.100792 0.754191 0.223554
Si Si2 0.404861 0.513472 0.278194
Si Si3 0.635518 0.122402 0.851497
Si Si4 0.350833 0.031056 0.901670
Si Si5 0.051333 0.253800 0.123075
Si Si6 0.334182 0.512922 0.532876
Si Si7 0.458753 0.691064 0.937825
O O1 0.093217 0.884407 0.220393
O O2 0.275258 0.711655 0.297341
O O3 0.024093 0.730283 0.119548
O O4 0.000000 0.721121 0.250000
O O5 0.500000 0.551450 0.250000
O O6 0.234447 0.541078 0.187213
O O7 0.507512 0.549574 0.383143
O O8 0.500000 0.078077 0.750000
O O9 0.564212 0.227467 0.858388
O O10 0.785005 0.147313 0.863722
O O11 0.709794 0.050041 0.940401
O O12 0.399678 0.127434 0.875229
O O13 0.234002 0.050532 0.920392
O O14 0.500000 0.000000 0.000000
O O15 0.968142 0.227681 0.019324
O O16 0.405292 0.607144 0.517329
#
# Coordination Sequence:
#
# PCOD9259690 Si02
#       7
#     8   8   8   8   8   8   8
#     4   9  18  36  62  90 121 168 210 256 326 398
#     4   7  14  29  54  83 119 155 198 247 317 377
#     4  12  24  43  67  87 127 183 221 261 333 410
#     4  10  18  35  63  95 128 165 212 260 326 400
#     4  11  22  40  66  92 128 177 216 261 333 405
#     4  10  21  38  64  95 122 161 215 276 319 380
#     4  11  23  41  63  95 130 167 219 273 326 387
#
# _framework density 25.943093000000001
#
# number of rings (size 3 to 8) (size 9 to 14) (size 15 to 20)
#    0.000    2.000    2.857    3.429    0.000    2.286 
#    0.000    3.571    0.000    0.000    0.000    0.000 
#    0.000    0.000    0.000    0.000    0.000    0.000 
#
# Total GULP energy -156194.313661 kJ/mol
# GULP energy per Si atom -5578.368345 kJ/mol
# Density = 2.588405 g / cm^3
# Si number density = 25.943093 Si / 1000 Ang^3
#
#
#
# Elastic Constant Matrix: (Units=GPa)
#
#
# Indices 1 2 3 4 5 6 
#
# 1 133.4249 19.5481 25.1161 0.0000 5.9863 0.0000
# 2 19.5481 21.5452 26.1178 0.0000 5.1250 0.0000
# 3 25.1161 26.1178 193.5220 0.0000 30.6458 0.0000
# 4 0.0000 0.0000 0.0000 36.4082 0.0000 -23.7269
# 5 5.9863 5.1250 30.6458 0.0000 57.7410 0.0000
# 6 0.0000 0.0000 0.0000 -23.7269 0.0000 43.7561
#
#
#
# Elastic Compliance Matrix: (Units=1/GPa)
#
#
# Indices 1 2 3 4 5 6 
#
# 1 0.008647 -0.007743 -0.000048 0.000000 -0.000184 0.000000
# 2 -0.007743 0.062484 -0.007289 0.000000 -0.000874 0.000000
# 3 -0.000048 -0.007289 0.006610 0.000000 -0.002856 0.000000
# 4 0.000000 0.000000 0.000000 0.042477 0.000000 0.023033
# 5 -0.000184 -0.000874 -0.002856 0.000000 0.018931 0.000000
# 6 0.000000 0.000000 0.000000 0.023033 0.000000 0.035344
#
#
# Mechanical properties :
#
#
# Convention : Reuss Voigt Hill
#
# Bulk Modulus (GPa) = 21.01770 54.45066 37.73418
# Shear Modulus (GPa) = 22.67434 46.09507 34.38471
#
# Velocity S-wave (km/s) = 2.95956 4.21976 3.64454
# Velocity P-wave (km/s) = 4.44946 6.69148 5.68215
#
# Compressibility (1/GPa) = 0.04757894
#
# Stress axis : x y z
#
# Youngs Moduli (GPa) = 115.65251 16.00407 151.29296
#
# Poissons Ratio (x) = 0.12392 0.00728
# Poissons Ratio (y) = 0.89551 1.10285
# Poissons Ratio (z) = 0.00556 0.11666
#
# Static dielectric constant tensor:
#      x y z
#    x 2.038150 0.000000 0.061240 
#    y 0.000000 2.205830 0.000000 
#    z 0.061240 0.000000 2.108820 
# 
# From -- ./inp_files/199576.got.cif
#   From: 2010.05.17/outbox.cif.g08.bks.cpg/sg15_100_cif.got.tgz:199576.got - 2010.06.03 18:47:42.
