data_PCOD9259041
_publ_section_title
;
Structure prediction by ZEFSAII (Michael W. Deem and Ramdas Pophale) SiO2 
 PCOD9259041
Probable space group: C 2/C
;
_chemical_formula_sum "Si O2"
_cell_formula_units_Z 52
_cell_length_a 14.828431
_cell_length_b 11.471226
_cell_length_c 14.560546
_cell_angle_alpha 90.000000
_cell_angle_beta 62.306778
_cell_angle_gamma 90.000000
_cell_volume 2193.037499
_symmetry_space_group_name_H-M "C 2/C"
_symmetry_group_IT_number 15
_symmetry_cell_setting 'monoclinic'
loop_
_space_group_symop_operation_xyz
x,y,z
-x,y,1/2-z
-x,-y,-z
x,-y,1/2+z
1/2+x,1/2+y,z
1/2-x,1/2+y,1/2-z
1/2-x,1/2-y,-z
1/2+x,1/2-y,1/2+z
loop_
_atom_site_type_symbol
_atom_site_label
_atom_site_fract_x
_atom_site_fract_y
_atom_site_fract_z
Si Si1 0.897586 0.223045 0.120493
Si Si2 0.132999 0.074717 0.526980
Si Si3 0.703412 0.348288 0.413524
Si Si4 0.000000 0.950200 0.250000
Si Si5 0.905618 0.334137 0.431330
Si Si6 0.167518 0.432722 0.476252
Si Si7 0.803499 0.968219 0.750051
O O1 0.875833 0.325456 0.058720
O O2 0.799684 0.165376 0.216666
O O3 0.921374 0.117655 0.038892
O O4 0.987053 0.274359 0.139954
O O5 0.068401 0.116984 0.644080
O O6 0.251323 0.109748 0.485411
O O7 0.147449 0.935683 0.513016
O O8 0.816118 0.321339 0.398713
O O9 0.635887 0.232943 0.457414
O O10 0.711000 0.429651 0.319503
O O11 0.919625 0.022989 0.229806
O O12 0.910864 0.472922 0.446723
O O13 0.233353 0.501946 0.368716
#
# Coordination Sequence:
#
# PCOD9259041 Si02
#       7
#     8   8   8   4   8   8   8
#     4  11  21  38  60  85 115 159 198 240 294 356
#     4   9  19  36  59  85 114 155 196 242 292 350
#     4   9  19  37  59  85 119 154 189 240 303 346
#     4  10  18  34  58  90 112 140 202 250 280 342
#     4  10  20  35  61  85 114 154 196 238 292 355
#     4  10  22  37  56  84 120 157 195 238 297 353
#     4  10  22  37  58  85 118 152 195 244 295 343
#
# _framework density 23.711404000000002
#
# number of rings (size 3 to 8) (size 9 to 14) (size 15 to 20)
#    0.000    2.154    0.000    2.769    2.154    3.692 
#    0.000    0.000    0.000    0.000    0.000    0.000 
#    0.000    0.000    0.000    0.000    0.000    0.000 
#
# Total GULP energy -145025.130162 kJ/mol
# GULP energy per Si atom -5577.889622 kJ/mol
# Density = 2.365744 g / cm^3
# Si number density = 23.711404 Si / 1000 Ang^3
#
#
#
# Elastic Constant Matrix: (Units=GPa)
#
#
# Indices 1 2 3 4 5 6 
#
# 1 86.8549 23.4902 5.0108 0.0000 12.2410 0.0000
# 2 23.4902 94.8983 -5.9035 0.0000 0.7084 0.0000
# 3 5.0108 -5.9035 67.2900 0.0000 9.5818 0.0000
# 4 0.0000 0.0000 0.0000 18.4115 0.0000 -1.5223
# 5 12.2410 0.7084 9.5818 0.0000 26.3431 0.0000
# 6 0.0000 0.0000 0.0000 -1.5223 0.0000 28.1547
#
#
#
# Elastic Compliance Matrix: (Units=1/GPa)
#
#
# Indices 1 2 3 4 5 6 
#
# 1 0.013255 -0.003264 -0.000431 0.000000 -0.005914 0.000000
# 2 -0.003264 0.011410 0.001130 0.000000 0.000799 0.000000
# 3 -0.000431 0.001130 0.015786 0.000000 -0.005572 0.000000
# 4 0.000000 0.000000 0.000000 0.054558 0.000000 0.002950
# 5 -0.005914 0.000799 -0.005572 0.000000 0.042714 0.000000
# 6 0.000000 0.000000 0.000000 0.002950 0.000000 0.035678
#
#
# Mechanical properties :
#
#
# Convention : Reuss Voigt Hill
#
# Bulk Modulus (GPa) = 28.31155 32.69315 30.50235
# Shear Modulus (GPa) = 26.27401 29.67823 27.97612
#
# Velocity S-wave (km/s) = 3.33239 3.54170 3.43863
# Velocity P-wave (km/s) = 5.17420 5.52654 5.35327
#
# Compressibility (1/GPa) = 0.03532128
#
# Stress axis : x y z
#
# Youngs Moduli (GPa) = 75.44582 87.64410 63.34835
#
# Poissons Ratio (x) = 0.28603 0.02731
# Poissons Ratio (y) = 0.24622 -0.07160
# Poissons Ratio (z) = 0.03253 -0.09907
#
# Static dielectric constant tensor:
#      x y z
#    x 1.921970 0.000000 -0.013440 
#    y 0.000000 1.947400 0.000000 
#    z -0.013440 0.000000 1.993670 
# 
# From -- ./inp_files/152533.got.cif
#   From: 2010.05.17/outbox.cif.g08.bks.cpg/sg15_77_cif.got.tgz:152533.got - 2010.06.03 18:47:42.
