data_PCOD9259446
_publ_section_title
;
Structure prediction by ZEFSAII (Michael W. Deem and Ramdas Pophale) SiO2 
 PCOD9259446
Probable space group: C 2/C
;
_chemical_formula_sum "Si O2"
_cell_formula_units_Z 48
_cell_length_a 16.182244
_cell_length_b 9.765582
_cell_length_c 18.480957
_cell_angle_alpha 90.000000
_cell_angle_beta 114.690557
_cell_angle_gamma 90.000000
_cell_volume 2653.524416
_symmetry_space_group_name_H-M "C 2/C"
_symmetry_group_IT_number 15
_symmetry_cell_setting 'monoclinic'
loop_
_space_group_symop_operation_xyz
x,y,z
-x,y,1/2-z
-x,-y,-z
x,-y,1/2+z
1/2+x,1/2+y,z
1/2-x,1/2+y,1/2-z
1/2-x,1/2-y,-z
1/2+x,1/2-y,1/2+z
loop_
_atom_site_type_symbol
_atom_site_label
_atom_site_fract_x
_atom_site_fract_y
_atom_site_fract_z
Si Si1 0.057732 0.799685 0.706105
Si Si2 0.781891 0.011101 0.749560
Si Si3 0.851003 0.543220 0.680528
Si Si4 0.409993 0.256016 0.255057
Si Si5 0.939247 0.372950 0.067075
Si Si6 0.902129 0.600438 0.391130
O O1 0.092821 0.655659 0.752824
O O2 0.000000 0.865215 0.750000
O O3 0.991634 0.760484 0.616260
O O4 0.143205 0.892375 0.718427
O O5 0.747341 0.048874 0.817570
O O6 0.826715 0.139244 0.725257
O O7 0.693253 0.959169 0.673575
O O8 0.886923 0.389772 0.709049
O O9 0.868483 0.581383 0.603705
O O10 0.500000 0.310490 0.250000
O O11 0.427356 0.221821 0.345547
O O12 0.017981 0.488295 0.088378
O O13 0.896347 0.357739 0.972485
#
# Coordination Sequence:
#
# PCOD9259446 Si02
#       6
#     8   8   8   8   8   8
#     4  10  19  37  57  80 108 151 185 219 267 332
#     4  11  22  33  56  87 114 136 182 234 275 316
#     4  10  18  35  58  78 103 148 192 215 258 331
#     4  11  19  36  56  83 109 145 181 225 275 327
#     4  10  19  37  58  81 106 148 187 224 262 327
#     4  10  21  35  57  84 109 141 186 230 267 314
#
# _framework density 18.089148999999999
#
# number of rings (size 3 to 8) (size 9 to 14) (size 15 to 20)
#    0.000    1.667    5.000    3.000    0.000    0.000 
#    0.000   10.833    0.000    0.000    0.000    0.000 
#    0.000    0.000    0.000    0.000    0.000    0.000 
#
# Total GULP energy -133809.771550 kJ/mol
# GULP energy per Si atom -5575.407148 kJ/mol
# Density = 1.804798 g / cm^3
# Si number density = 18.089149 Si / 1000 Ang^3
#
#
#
# Elastic Constant Matrix: (Units=GPa)
#
#
# Indices 1 2 3 4 5 6 
#
# 1 154.3515 39.1390 53.8873 0.0000 -19.4747 0.0000
# 2 39.1390 65.6055 19.8043 0.0000 -4.3137 0.0000
# 3 53.8873 19.8043 123.7747 0.0000 -29.8899 0.0000
# 4 0.0000 0.0000 0.0000 9.6319 0.0000 5.4344
# 5 -19.4747 -4.3137 -29.8899 0.0000 26.6757 0.0000
# 6 0.0000 0.0000 0.0000 5.4344 0.0000 39.0767
#
#
#
# Elastic Compliance Matrix: (Units=1/GPa)
#
#
# Indices 1 2 3 4 5 6 
#
# 1 0.008797 -0.004322 -0.002408 0.000000 0.003026 0.000000
# 2 -0.004322 0.018143 -0.001473 0.000000 -0.001872 0.000000
# 3 -0.002408 -0.001473 0.012176 0.000000 0.011647 0.000000
# 4 0.000000 0.000000 0.000000 0.112661 0.000000 -0.015668
# 5 0.003026 -0.001872 0.011647 0.000000 0.052444 0.000000
# 6 0.000000 0.000000 0.000000 -0.015668 0.000000 0.027770
#
#
# Mechanical properties :
#
#
# Convention : Reuss Voigt Hill
#
# Bulk Modulus (GPa) = 44.03561 63.26587 53.65074
# Shear Modulus (GPa) = 19.53379 30.47026 25.00203
#
# Velocity S-wave (km/s) = 3.28969 4.10866 3.72177
# Velocity P-wave (km/s) = 6.23105 7.58673 6.94206
#
# Compressibility (1/GPa) = 0.02270889
#
# Stress axis : x y z
#
# Youngs Moduli (GPa) = 113.67406 55.11790 82.13081
#
# Poissons Ratio (x) = 0.23824 0.19775
# Poissons Ratio (y) = 0.49135 0.12100
# Poissons Ratio (z) = 0.27370 0.08120
#
# Static dielectric constant tensor:
#      x y z
#    x 1.718210 0.000000 0.157120 
#    y 0.000000 1.642590 0.000000 
#    z 0.157120 0.000000 2.118950 
# 
# From -- ./inp_files/242585.got.cif
#   From: 2010.05.17/outbox.cif.g08.bks.cpg/sg15_122_cif.got.tgz:242585.got - 2010.06.03 18:47:42.
