data_PCOD9259502
_publ_section_title
;
Structure prediction by ZEFSAII (Michael W. Deem and Ramdas Pophale) SiO2 
 PCOD9259502
Probable space group: C 2/C
;
_chemical_formula_sum "Si O2"
_cell_formula_units_Z 48
_cell_length_a 15.466278
_cell_length_b 11.911518
_cell_length_c 17.207124
_cell_angle_alpha 90.000000
_cell_angle_beta 36.538604
_cell_angle_gamma 90.000000
_cell_volume 1887.313189
_symmetry_space_group_name_H-M "C 2/C"
_symmetry_group_IT_number 15
_symmetry_cell_setting 'monoclinic'
loop_
_space_group_symop_operation_xyz
x,y,z
-x,y,1/2-z
-x,-y,-z
x,-y,1/2+z
1/2+x,1/2+y,z
1/2-x,1/2+y,1/2-z
1/2-x,1/2-y,-z
1/2+x,1/2-y,1/2+z
loop_
_atom_site_type_symbol
_atom_site_label
_atom_site_fract_x
_atom_site_fract_y
_atom_site_fract_z
Si Si1 0.702990 0.771881 0.653423
Si Si2 0.019897 0.251142 0.993181
Si Si3 0.363979 0.465771 0.154297
Si Si4 0.244603 0.938622 0.027990
Si Si5 0.447883 0.940376 0.637404
Si Si6 0.479977 0.629480 0.350201
O O1 0.850447 0.771313 0.597438
O O2 0.736983 0.854759 0.557556
O O3 0.679627 0.645697 0.640247
O O4 0.572467 0.832304 0.790968
O O5 0.050234 0.218002 0.059904
O O6 0.113245 0.167852 0.869873
O O7 0.044404 0.379555 0.951687
O O8 0.199061 0.489633 0.247814
O O9 0.392719 0.547541 0.207328
O O10 0.500000 0.500000 0.000000
O O11 0.147285 0.040256 0.070954
O O12 0.398016 0.984897 0.947123
O O13 0.500000 0.680273 0.250000
#
# Coordination Sequence:
#
# PCOD9259502 Si02
#       6
#     8   8   8   8   8   8
#     4  10  18  35  58  95 139 168 208 281 349 397
#     4  10  21  39  64  93 135 184 222 266 351 416
#     4  10  19  40  66  93 130 184 225 264 347 412
#     4  10  22  32  58 105 134 160 228 286 334 394
#     4  11  21  37  68  99 136 172 223 285 340 408
#     4  11  22  39  63  90 129 185 232 275 332 411
#
# _framework density 25.432980000000001
#
# number of rings (size 3 to 8) (size 9 to 14) (size 15 to 20)
#    0.000    1.667    5.000    1.500    2.333    0.000 
#    0.000    1.667    0.000    2.000    0.000    1.167 
#    0.000    0.000    0.000    0.000    0.000    0.000 
#
# Total GULP energy -134279.902383 kJ/mol
# GULP energy per Si atom -5594.995933 kJ/mol
# Density = 2.537509 g / cm^3
# Si number density = 25.432980 Si / 1000 Ang^3
#
#
#
# Elastic Constant Matrix: (Units=GPa)
#
#
# Indices 1 2 3 4 5 6 
#
# 1 140.0056 34.5928 50.5948 0.0000 -13.5812 0.0000
# 2 34.5928 70.0538 7.3948 0.0000 -10.4145 0.0000
# 3 50.5948 7.3948 46.3353 0.0000 -19.7294 0.0000
# 4 0.0000 0.0000 0.0000 27.9981 0.0000 12.4708
# 5 -13.5812 -10.4145 -19.7294 0.0000 62.5292 0.0000
# 6 0.0000 0.0000 0.0000 12.4708 0.0000 36.2954
#
#
#
# Elastic Compliance Matrix: (Units=1/GPa)
#
#
# Indices 1 2 3 4 5 6 
#
# 1 0.013816 -0.005613 -0.015376 0.000000 -0.002786 0.000000
# 2 -0.005613 0.017009 0.004739 0.000000 0.003109 0.000000
# 3 -0.015376 0.004739 0.042199 0.000000 0.010764 0.000000
# 4 0.000000 0.000000 0.000000 0.042170 0.000000 -0.014489
# 5 -0.002786 0.003109 0.010764 0.000000 0.019302 0.000000
# 6 0.000000 0.000000 0.000000 -0.014489 0.000000 0.032530
#
#
# Mechanical properties :
#
#
# Convention : Reuss Voigt Hill
#
# Bulk Modulus (GPa) = 24.67843 49.06218 36.87031
# Shear Modulus (GPa) = 23.47036 36.28537 29.87787
#
# Velocity S-wave (km/s) = 3.04111 3.78127 3.43121
# Velocity P-wave (km/s) = 4.69633 6.19651 5.49783
#
# Compressibility (1/GPa) = 0.04052122
#
# Stress axis : x y z
#
# Youngs Moduli (GPa) = 72.38009 58.79379 23.69737
#
# Poissons Ratio (x) = 0.33003 0.36438
# Poissons Ratio (y) = 0.40630 -0.11229
# Poissons Ratio (z) = 1.11294 -0.27860
#
# Static dielectric constant tensor:
#      x y z
#    x 2.018720 0.000000 0.110550 
#    y 0.000000 2.050010 0.000000 
#    z 0.110550 0.000000 2.069480 
# 
# From -- ./inp_files/205288.got.cif
#   From: 2010.05.17/outbox.cif.g08.bks.cpg/sg15_103_cif.got.tgz:205288.got - 2010.06.03 18:47:42.
