data_PCOD9259281
_publ_section_title
;
Structure prediction by ZEFSAII (Michael W. Deem and Ramdas Pophale) SiO2 
 PCOD9259281
Probable space group: C 2/C
;
_chemical_formula_sum "Si O2"
_cell_formula_units_Z 60
_cell_length_a 17.044523
_cell_length_b 9.396039
_cell_length_c 23.294312
_cell_angle_alpha 90.000000
_cell_angle_beta 127.932281
_cell_angle_gamma 90.000000
_cell_volume 2942.471339
_symmetry_space_group_name_H-M "C 2/C"
_symmetry_group_IT_number 15
_symmetry_cell_setting 'monoclinic'
loop_
_space_group_symop_operation_xyz
x,y,z
-x,y,1/2-z
-x,-y,-z
x,-y,1/2+z
1/2+x,1/2+y,z
1/2-x,1/2+y,1/2-z
1/2-x,1/2-y,-z
1/2+x,1/2-y,1/2+z
loop_
_atom_site_type_symbol
_atom_site_label
_atom_site_fract_x
_atom_site_fract_y
_atom_site_fract_z
Si Si1 0.798568 0.803461 0.596719
Si Si2 0.890260 0.603501 0.546531
Si Si3 0.379378 0.180596 0.096378
Si Si4 0.500000 0.033620 0.250000
Si Si5 0.592625 0.724929 0.137862
Si Si6 0.308430 0.575190 0.418750
Si Si7 0.432871 0.493399 0.081150
Si Si8 0.178866 0.648217 0.785866
O O1 0.837043 0.659978 0.581729
O O2 0.683386 0.833756 0.533970
O O3 0.820326 0.785309 0.672633
O O4 0.859965 0.922360 0.591185
O O5 0.889586 0.434907 0.550356
O O6 0.999064 0.668521 0.591410
O O7 0.446493 0.128776 0.179226
O O8 0.269162 0.156603 0.073654
O O9 0.420642 0.330824 0.094348
O O10 0.423696 0.934023 0.249348
O O11 0.641534 0.691694 0.099264
O O12 0.538224 0.575641 0.132125
O O13 0.672011 0.792316 0.218224
O O14 0.387841 0.499291 0.496439
O O15 0.258792 0.460144 0.351648
#
# Coordination Sequence:
#
# PCOD9259281 Si02
#       8
#     8   8   8   4   8   8   8   8
#     4  10  18  34  64  96 117 164 225 262 291 377
#     4  10  18  36  65  92 119 169 218 253 307 389
#     4  11  21  39  68  92 129 165 214 263 330 372
#     4  10  18  36  64  88 118 168 212 258 314 378
#     4  11  24  41  65  93 127 169 215 257 320 393
#     4  11  23  43  64  92 134 171 200 266 336 374
#     4  11  23  39  68 100 127 160 222 271 313 371
#     4  11  20  40  64  89 127 172 214 258 320 388
#
# _framework density 20.391023000000001
#
# number of rings (size 3 to 8) (size 9 to 14) (size 15 to 20)
#    0.000    1.333    5.333    3.200    0.000    1.067 
#    7.200    0.667    0.000    0.000    0.000    0.000 
#    0.000    0.000    0.000    0.000    0.000    0.000 
#
# Total GULP energy -167363.982960 kJ/mol
# GULP energy per Si atom -5578.799432 kJ/mol
# Density = 2.034461 g / cm^3
# Si number density = 20.391023 Si / 1000 Ang^3
#
#
#
# Elastic Constant Matrix: (Units=GPa)
#
#
# Indices 1 2 3 4 5 6 
#
# 1 49.2351 25.7298 16.7370 0.0000 -8.8440 0.0000
# 2 25.7298 112.1132 10.1550 0.0000 -8.7834 0.0000
# 3 16.7370 10.1550 46.9828 0.0000 2.1168 0.0000
# 4 0.0000 0.0000 0.0000 12.6449 0.0000 -8.0982
# 5 -8.8440 -8.7834 2.1168 0.0000 15.0567 0.0000
# 6 0.0000 0.0000 0.0000 -8.0982 0.0000 14.7140
#
#
#
# Elastic Compliance Matrix: (Units=1/GPa)
#
#
# Indices 1 2 3 4 5 6 
#
# 1 0.028900 -0.004488 -0.010036 0.000000 0.015768 0.000000
# 2 -0.004488 0.010293 -0.000783 0.000000 0.003478 0.000000
# 3 -0.010036 -0.000783 0.025476 0.000000 -0.009933 0.000000
# 4 0.000000 0.000000 0.000000 0.122131 0.000000 0.067217
# 5 0.015768 0.003478 -0.009933 0.000000 0.079103 0.000000
# 6 0.000000 0.000000 0.000000 0.067217 0.000000 0.104957
#
#
# Mechanical properties :
#
#
# Convention : Reuss Voigt Hill
#
# Bulk Modulus (GPa) = 29.36309 34.84163 32.10236
# Shear Modulus (GPa) = 12.11169 18.86376 15.48772
#
# Velocity S-wave (km/s) = 2.43980 3.04485 2.75896
# Velocity P-wave (km/s) = 4.72949 5.43004 5.09183
#
# Compressibility (1/GPa) = 0.03405637
#
# Stress axis : x y z
#
# Youngs Moduli (GPa) = 34.60200 97.15363 39.25247
#
# Poissons Ratio (x) = 0.43604 0.39392
# Poissons Ratio (y) = 0.15530 0.03072
# Poissons Ratio (z) = 0.34725 0.07603
#
# Static dielectric constant tensor:
#      x y z
#    x 1.763690 0.000000 0.035470 
#    y 0.000000 1.759840 0.000000 
#    z 0.035470 0.000000 1.743970 
# 
# From -- ./inp_files/247847.got.cif
#   From: 2010.05.17/outbox.cif.g08.bks.cpg/sg15_124_cif.got.tgz:247847.got - 2010.06.03 18:47:42.
