data_PCOD9259351
_publ_section_title
;
Structure prediction by ZEFSAII (Michael W. Deem and Ramdas Pophale) SiO2 
 PCOD9259351
Probable space group: C 2/C
;
_chemical_formula_sum "Si O2"
_cell_formula_units_Z 56
_cell_length_a 21.097763
_cell_length_b 7.094452
_cell_length_c 20.868385
_cell_angle_alpha 90.000000
_cell_angle_beta 104.761360
_cell_angle_gamma 90.000000
_cell_volume 3020.428299
_symmetry_space_group_name_H-M "C 2/C"
_symmetry_group_IT_number 15
_symmetry_cell_setting 'monoclinic'
loop_
_space_group_symop_operation_xyz
x,y,z
-x,y,1/2-z
-x,-y,-z
x,-y,1/2+z
1/2+x,1/2+y,z
1/2-x,1/2+y,1/2-z
1/2-x,1/2-y,-z
1/2+x,1/2-y,1/2+z
loop_
_atom_site_type_symbol
_atom_site_label
_atom_site_fract_x
_atom_site_fract_y
_atom_site_fract_z
Si Si1 0.191129 0.406726 0.234338
Si Si2 0.167606 0.862504 0.419320
Si Si3 0.085373 0.713603 0.210265
Si Si4 0.349268 0.224534 0.633468
Si Si5 0.441913 0.108207 0.148870
Si Si6 0.762937 0.971179 0.931256
Si Si7 0.329257 0.515212 0.318447
O O1 0.148274 0.588842 0.208490
O O2 0.171186 0.331870 0.299794
O O3 0.267634 0.455117 0.257748
O O4 0.171011 0.239973 0.182731
O O5 0.102299 0.736810 0.408500
O O6 0.197483 0.924845 0.494826
O O7 0.221017 0.718257 0.402188
O O8 0.151102 0.052644 0.376579
O O9 0.075421 0.686794 0.283967
O O10 0.019012 0.637104 0.161417
O O11 0.105601 0.921036 0.192588
O O12 0.415991 0.106714 0.638296
O O13 0.292894 0.129943 0.574963
O O14 0.809782 0.036918 0.885801
#
# Coordination Sequence:
#
# PCOD9259351 Si02
#       7
#     8   8   8   8   8   8   8
#     4  10  20  30  51  78 104 133 169 213 270 321
#     4  10  18  35  55  74 106 143 179 222 257 306
#     4  10  20  36  51  77 110 133 171 224 265 320
#     4   9  18  32  54  77 101 136 178 218 261 310
#     4   9  20  35  54  76 103 139 178 216 264 317
#     4   9  21  32  50  82 108 135 179 220 263 313
#     4  11  20  32  52  78 106 138 167 216 276 318
#
# _framework density 18.540417999999999
#
# number of rings (size 3 to 8) (size 9 to 14) (size 15 to 20)
#    0.000    2.286    1.429    2.143    2.000    1.143 
#    0.000    3.571    0.000    1.714    0.000    0.000 
#    0.000    0.000    0.000    0.000    0.000    0.000 
#
# Total GULP energy -156095.761385 kJ/mol
# GULP energy per Si atom -5574.848621 kJ/mol
# Density = 1.849822 g / cm^3
# Si number density = 18.540418 Si / 1000 Ang^3
#
#
#
# Elastic Constant Matrix: (Units=GPa)
#
#
# Indices 1 2 3 4 5 6 
#
# 1 65.2548 7.3820 13.2592 0.0000 14.5503 0.0000
# 2 7.3820 69.4229 -4.2136 0.0000 1.0023 0.0000
# 3 13.2592 -4.2136 29.9984 0.0000 13.0094 0.0000
# 4 0.0000 0.0000 0.0000 23.4855 0.0000 4.0250
# 5 14.5503 1.0023 13.0094 0.0000 18.5660 0.0000
# 6 0.0000 0.0000 0.0000 4.0250 0.0000 21.8711
#
#
#
# Elastic Compliance Matrix: (Units=1/GPa)
#
#
# Indices 1 2 3 4 5 6 
#
# 1 0.019005 -0.002039 -0.003268 0.000000 -0.012494 0.000000
# 2 -0.002039 0.014879 0.003802 0.000000 -0.001869 0.000000
# 3 -0.003268 0.003802 0.049261 0.000000 -0.032162 0.000000
# 4 0.000000 0.000000 0.000000 0.043966 0.000000 -0.008091
# 5 -0.012494 -0.001869 -0.032162 0.000000 0.086291 0.000000
# 6 0.000000 0.000000 0.000000 -0.008091 0.000000 0.047211
#
#
# Mechanical properties :
#
#
# Convention : Reuss Voigt Hill
#
# Bulk Modulus (GPa) = 12.47894 21.94793 17.21343
# Shear Modulus (GPa) = 17.22139 22.66776 19.94458
#
# Velocity S-wave (km/s) = 3.05102 3.50038 3.28340
# Velocity P-wave (km/s) = 4.37686 5.31041 4.86608
#
# Compressibility (1/GPa) = 0.08013504
#
# Stress axis : x y z
#
# Youngs Moduli (GPa) = 52.61709 67.20881 20.29985
#
# Poissons Ratio (x) = 0.13703 0.06634
# Poissons Ratio (y) = 0.10728 -0.07718
# Poissons Ratio (z) = 0.17196 -0.25551
#
# Static dielectric constant tensor:
#      x y z
#    x 1.632560 0.000000 0.004840 
#    y 0.000000 1.671490 0.000000 
#    z 0.004840 0.000000 1.645210 
# 
# From -- ./inp_files/278981.got.cif
#   From: 2010.05.17/outbox.cif.g08.bks.cpg/sg15_140_cif.got.tgz:278981.got - 2010.06.03 18:47:42.
