data_PCOD9259532
_publ_section_title
;
Structure prediction by ZEFSAII (Michael W. Deem and Ramdas Pophale) SiO2 
 PCOD9259532
Probable space group: C 2/C
;
_chemical_formula_sum "Si O2"
_cell_formula_units_Z 40
_cell_length_a 21.822165
_cell_length_b 16.060185
_cell_length_c 8.991832
_cell_angle_alpha 90.000000
_cell_angle_beta 140.372322
_cell_angle_gamma 90.000000
_cell_volume 2009.918474
_symmetry_space_group_name_H-M "C 2/C"
_symmetry_group_IT_number 15
_symmetry_cell_setting 'monoclinic'
loop_
_space_group_symop_operation_xyz
x,y,z
-x,y,1/2-z
-x,-y,-z
x,-y,1/2+z
1/2+x,1/2+y,z
1/2-x,1/2+y,1/2-z
1/2-x,1/2-y,-z
1/2+x,1/2-y,1/2+z
loop_
_atom_site_type_symbol
_atom_site_label
_atom_site_fract_x
_atom_site_fract_y
_atom_site_fract_z
Si Si1 0.209015 0.012255 0.539282
Si Si2 0.916587 0.282119 0.999025
Si Si3 0.338987 0.069108 0.529602
Si Si4 0.191799 0.120145 0.773260
Si Si5 0.577323 0.899353 0.766803
O O1 0.259081 0.068904 0.508114
O O2 0.156933 0.069837 0.561648
O O3 0.162452 0.936442 0.360181
O O4 0.291826 0.969013 0.792621
O O5 0.848789 0.212283 0.803602
O O6 0.947166 0.346274 0.925662
O O7 0.870387 0.340867 0.038401
O O8 0.000000 0.238952 0.250000
O O9 0.416881 0.000669 0.728837
O O10 0.309277 0.121918 0.989114
O O11 0.500000 0.878688 0.750000
#
# Coordination Sequence:
#
# PCOD9259532 Si02
#       5
#     8   8   8   8   8
#     4   8  18  36  63  82 111 155 197 229 291 346
#     4  12  25  36  58  89 123 153 198 239 280 347
#     4  10  18  35  59  88 119 154 182 229 299 356
#     4  10  21  42  60  87 116 154 196 242 292 337
#     4  10  22  39  59  86 123 155 187 232 301 354
#
# _framework density 19.901306000000002
#
# number of rings (size 3 to 8) (size 9 to 14) (size 15 to 20)
#    0.000    2.400    4.000    1.200    5.600    2.400 
#    0.000    1.000    0.000    0.000    0.000    0.000 
#    0.000    0.000    0.000    0.000    0.000    0.000 
#
# Total GULP energy -111359.327879 kJ/mol
# GULP energy per Si atom -5567.966394 kJ/mol
# Density = 1.985601 g / cm^3
# Si number density = 19.901306 Si / 1000 Ang^3
#
#
#
# Elastic Constant Matrix: (Units=GPa)
#
#
# Indices 1 2 3 4 5 6 
#
# 1 25.2086 30.6924 16.8664 0.0000 -26.8799 0.0000
# 2 30.6924 114.8322 44.3666 0.0000 -10.0445 0.0000
# 3 16.8664 44.3666 51.0296 0.0000 -23.6196 0.0000
# 4 0.0000 0.0000 0.0000 35.1834 0.0000 -5.0618
# 5 -26.8799 -10.0445 -23.6196 0.0000 26.4774 0.0000
# 6 0.0000 0.0000 0.0000 -5.0618 0.0000 17.7950
#
#
#
# Elastic Compliance Matrix: (Units=1/GPa)
#
#
# Indices 1 2 3 4 5 6 
#
# 1 -0.063122 0.026371 -0.046150 0.000000 -0.095247 0.000000
# 2 0.026371 0.003439 0.002197 0.000000 0.030035 0.000000
# 3 -0.046150 0.002197 0.019827 0.000000 -0.028332 0.000000
# 4 0.000000 0.000000 0.000000 0.029635 0.000000 0.008430
# 5 -0.095247 0.030035 -0.028332 0.000000 -0.072807 0.000000
# 6 0.000000 0.000000 0.000000 0.008430 0.000000 0.058593
#
#
# Mechanical properties :
#
#
# Convention : Reuss Voigt Hill
#
# Bulk Modulus (GPa) = -13.32925 41.65789 14.16432
# Shear Modulus (GPa) = -350.21966 22.50085 -163.85941
#
# Velocity S-wave (km/s) = -13.28007 3.36612 -9.08376
# Velocity P-wave (km/s) = 15.55182 6.00711 10.14332
#
# Compressibility (1/GPa) = -0.07502300
#
# Stress axis : x y z
#
# Youngs Moduli (GPa) = -15.84229 290.81915 50.43750
#
# Poissons Ratio (x) = -7.66907 2.32770
# Poissons Ratio (y) = 0.41777 -0.11079
# Poissons Ratio (z) = -0.73112 -0.63882
#
# Static dielectric constant tensor:
#      x y z
#    x 1.731680 0.000000 -0.003770 
#    y 0.000000 1.714790 0.000000 
#    z -0.003770 0.000000 1.754990 
# 
# From -- ./inp_files/38611.got.cif
#   From: 2010.05.17/outbox.cif.g08.bks.cpg/sg15_20_cif.got.tgz:38611.got - 2010.06.03 18:47:42.
