data_PCOD9259478
_publ_section_title
;
Structure prediction by ZEFSAII (Michael W. Deem and Ramdas Pophale) SiO2 
 PCOD9259478
Probable space group: C 2/C
;
_chemical_formula_sum "Si O2"
_cell_formula_units_Z 44
_cell_length_a 27.222366
_cell_length_b 12.554637
_cell_length_c 8.522170
_cell_angle_alpha 90.000000
_cell_angle_beta 137.842114
_cell_angle_gamma 90.000000
_cell_volume 1954.864110
_symmetry_space_group_name_H-M "C 2/C"
_symmetry_group_IT_number 15
_symmetry_cell_setting 'monoclinic'
loop_
_space_group_symop_operation_xyz
x,y,z
-x,y,1/2-z
-x,-y,-z
x,-y,1/2+z
1/2+x,1/2+y,z
1/2-x,1/2+y,1/2-z
1/2-x,1/2-y,-z
1/2+x,1/2-y,1/2+z
loop_
_atom_site_type_symbol
_atom_site_label
_atom_site_fract_x
_atom_site_fract_y
_atom_site_fract_z
Si Si1 0.647198 0.594719 0.193874
Si Si2 0.267051 0.778103 0.802562
Si Si3 0.000000 0.474893 0.750000
Si Si4 0.893364 0.418024 0.240207
Si Si5 0.052286 0.056222 0.247279
Si Si6 0.733240 0.085324 0.515690
O O1 0.694640 0.686929 0.226199
O O2 0.605120 0.619690 0.255534
O O3 0.705436 0.502492 0.370012
O O4 0.594516 0.536325 0.943028
O O5 0.270557 0.842889 0.647420
O O6 0.256795 0.656864 0.720857
O O7 0.336827 0.825506 0.059992
O O8 0.943523 0.405248 0.513065
O O9 0.950827 0.551182 0.741776
O O10 0.842104 0.522718 0.138531
O O11 0.000000 0.114955 0.250000
O O12 0.000000 0.000000 0.000000
#
# Coordination Sequence:
#
# PCOD9259478 Si02
#       6
#     8   8   4   8   8   8
#     4  10  18  35  58  86 116 162 201 262 311 361
#     4  10  20  35  61  90 122 158 214 261 314 376
#     4  10  20  36  64  82 132 160 212 250 326 390
#     4  10  20  38  62  93 117 173 201 271 318 378
#     4   9  18  32  56  79 113 158 202 238 304 380
#     4  10  20  35  61  90 122 155 214 264 316 376
#
# _framework density 22.507957999999999
#
# number of rings (size 3 to 8) (size 9 to 14) (size 15 to 20)
#    0.000    2.182    3.636    0.000    0.000    0.000 
#    0.000    3.636   20.000    0.000    0.000    0.000 
#    0.000    0.000    0.000    0.000    0.000    0.000 
#
# Total GULP energy -122897.904526 kJ/mol
# GULP energy per Si atom -5586.268388 kJ/mol
# Density = 2.245673 g / cm^3
# Si number density = 22.507958 Si / 1000 Ang^3
#
#
#
# Elastic Constant Matrix: (Units=GPa)
#
#
# Indices 1 2 3 4 5 6 
#
# 1 196.0256 49.4117 45.8538 0.0000 5.5144 0.0000
# 2 49.4117 62.4509 26.8987 0.0000 -10.0285 0.0000
# 3 45.8538 26.8987 174.0109 0.0000 -9.1138 0.0000
# 4 0.0000 0.0000 0.0000 23.8382 0.0000 -13.3097
# 5 5.5144 -10.0285 -9.1138 0.0000 30.9973 0.0000
# 6 0.0000 0.0000 0.0000 -13.3097 0.0000 9.1828
#
#
#
# Elastic Compliance Matrix: (Units=1/GPa)
#
#
# Indices 1 2 3 4 5 6 
#
# 1 0.006833 -0.005451 -0.001131 0.000000 -0.003312 0.000000
# 2 -0.005451 0.022251 -0.001600 0.000000 0.007698 0.000000
# 3 -0.001131 -0.001600 0.006374 0.000000 0.001558 0.000000
# 4 0.000000 0.000000 0.000000 0.219927 0.000000 0.318765
# 5 -0.003312 0.007698 0.001558 0.000000 0.035799 0.000000
# 6 0.000000 0.000000 0.000000 0.318765 0.000000 0.570921
#
#
# Mechanical properties :
#
#
# Convention : Reuss Voigt Hill
#
# Bulk Modulus (GPa) = 52.37529 75.20177 63.78853
# Shear Modulus (GPa) = 5.65078 33.49187 19.57133
#
# Velocity S-wave (km/s) = 1.58620 3.86165 2.95198
# Velocity P-wave (km/s) = 5.16477 7.30526 6.32620
#
# Compressibility (1/GPa) = 0.01909297
#
# Stress axis : x y z
#
# Youngs Moduli (GPa) = 146.34376 44.94231 156.89161
#
# Poissons Ratio (x) = 0.24498 0.17752
# Poissons Ratio (y) = 0.79772 0.25102
# Poissons Ratio (z) = 0.16558 0.07191
#
# Static dielectric constant tensor:
#      x y z
#    x 1.873270 0.000000 0.004630 
#    y 0.000000 1.860570 0.000000 
#    z 0.004630 0.000000 1.862460 
# 
# From -- ./inp_files/47138.got.cif
#   From: 2010.05.17/outbox.cif.g08.bks.cpg/sg15_24_cif.got.tgz:47138.got - 2010.06.03 18:47:42.
