data_PCOD9259440
_publ_section_title
;
Structure prediction by ZEFSAII (Michael W. Deem and Ramdas Pophale) SiO2 
 PCOD9259440
Probable space group: C 2/C
;
_chemical_formula_sum "Si O2"
_cell_formula_units_Z 64
_cell_length_a 20.326446
_cell_length_b 27.589959
_cell_length_c 10.428440
_cell_angle_alpha 90.000000
_cell_angle_beta 151.459569
_cell_angle_gamma 90.000000
_cell_volume 2794.207871
_symmetry_space_group_name_H-M "C 2/C"
_symmetry_group_IT_number 15
_symmetry_cell_setting 'monoclinic'
loop_
_space_group_symop_operation_xyz
x,y,z
-x,y,1/2-z
-x,-y,-z
x,-y,1/2+z
1/2+x,1/2+y,z
1/2-x,1/2+y,1/2-z
1/2-x,1/2-y,-z
1/2+x,1/2-y,1/2+z
loop_
_atom_site_type_symbol
_atom_site_label
_atom_site_fract_x
_atom_site_fract_y
_atom_site_fract_z
Si Si1 0.207282 0.595719 0.505133
Si Si2 0.616821 0.812808 0.306984
Si Si3 0.850599 0.317128 0.433803
Si Si4 0.284434 0.549940 0.309871
Si Si5 0.680988 0.773439 0.678025
Si Si6 0.997041 0.417539 0.416884
Si Si7 0.631670 0.353310 0.411284
Si Si8 0.247956 0.009831 0.498975
O O1 0.174836 0.627081 0.572413
O O2 0.347659 0.618777 0.687220
O O3 0.215696 0.538162 0.522370
O O4 0.085494 0.601612 0.190776
O O5 0.665758 0.811580 0.245956
O O6 0.709325 0.793144 0.581191
O O7 0.574333 0.868887 0.258426
O O8 0.480605 0.779569 0.078436
O O9 0.740736 0.279352 0.301625
O O10 0.000000 0.304764 0.750000
O O11 0.342132 0.601943 0.447588
O O12 0.314536 0.510987 0.475454
O O13 0.333546 0.538672 0.250595
O O14 0.117751 0.557602 0.037473
O O15 0.752863 0.812536 0.891018
O O16 0.882209 0.457239 0.256618
O O17 0.500000 0.328853 0.250000
#
# Coordination Sequence:
#
# PCOD9259440 Si02
#       8
#     8   8   8   8   8   8   8   8
#     4  10  22  39  55  96 125 156 210 260 309 375
#     4  11  23  41  62  90 127 159 205 267 320 373
#     4  12  24  39  62  88 127 166 205 257 320 366
#     4  10  20  35  54  92 120 162 203 254 315 383
#     4  11  23  40  61  89 121 160 215 263 309 378
#     4  10  18  35  57  86 124 155 190 251 320 376
#     4  10  20  40  63  86 118 164 216 256 304 373
#     4  10  21  33  59  90 128 160 201 251 326 383
#
# _framework density 22.904523000000001
#
# number of rings (size 3 to 8) (size 9 to 14) (size 15 to 20)
#    0.000    1.750    3.750    3.375    3.500    4.000 
#    0.000    2.500    0.000    0.000    3.250    0.000 
#    0.000    0.000    0.000    0.000    0.000    0.000 
#
# Total GULP energy -178519.113247 kJ/mol
# GULP energy per Si atom -5578.722289 kJ/mol
# Density = 2.285239 g / cm^3
# Si number density = 22.904523 Si / 1000 Ang^3
#
#
#
# Elastic Constant Matrix: (Units=GPa)
#
#
# Indices 1 2 3 4 5 6 
#
# 1 74.4191 12.7238 7.0544 0.0000 -19.3108 0.0000
# 2 12.7238 84.5322 4.3392 0.0000 1.2111 0.0000
# 3 7.0544 4.3392 9.5820 0.0000 -3.1894 0.0000
# 4 0.0000 0.0000 0.0000 6.8868 0.0000 4.8171
# 5 -19.3108 1.2111 -3.1894 0.0000 28.6342 0.0000
# 6 0.0000 0.0000 0.0000 4.8171 0.0000 26.6646
#
#
#
# Elastic Compliance Matrix: (Units=1/GPa)
#
#
# Indices 1 2 3 4 5 6 
#
# 1 0.017459 -0.002368 -0.008130 0.000000 0.010969 0.000000
# 2 -0.002368 0.012470 -0.004789 0.000000 -0.002658 0.000000
# 3 -0.008130 -0.004789 0.115024 0.000000 0.007531 0.000000
# 4 0.000000 0.000000 0.000000 0.166207 0.000000 -0.030026
# 5 0.010969 -0.002658 0.007531 0.000000 0.043272 0.000000
# 6 0.000000 0.000000 0.000000 -0.030026 0.000000 0.042927
#
#
# Mechanical properties :
#
#
# Convention : Reuss Voigt Hill
#
# Bulk Modulus (GPa) = 8.74281 24.08535 16.41408
# Shear Modulus (GPa) = 10.72824 22.06485 16.39654
#
# Velocity S-wave (km/s) = 2.16658 3.10714 2.67847
# Velocity P-wave (km/s) = 3.17555 4.83847 4.09236
#
# Compressibility (1/GPa) = 0.11437969
#
# Stress axis : x y z
#
# Youngs Moduli (GPa) = 57.27609 80.19186 8.69385
#
# Poissons Ratio (x) = 0.18988 0.07068
# Poissons Ratio (y) = 0.13562 0.04163
# Poissons Ratio (z) = 0.46568 0.38400
#
# Static dielectric constant tensor:
#      x y z
#    x 2.017560 0.000000 0.006750 
#    y 0.000000 1.833710 0.000000 
#    z 0.006750 0.000000 1.930690 
# 
# From -- ./inp_files/115014.got.cif
#   From: 2010.05.17/outbox.cif.g08.bks.cpg/sg15_58_cif.got.tgz:115014.got - 2010.06.03 18:47:42.
