data_PCOD9259624
_publ_section_title
;
Structure prediction by ZEFSAII (Michael W. Deem and Ramdas Pophale) SiO2 
 PCOD9259624
Probable space group: C 2/C
;
_chemical_formula_sum "Si O2"
_cell_formula_units_Z 52
_cell_length_a 15.995312
_cell_length_b 11.210332
_cell_length_c 23.268887
_cell_angle_alpha 90.000000
_cell_angle_beta 136.880144
_cell_angle_gamma 90.000000
_cell_volume 2851.952780
_symmetry_space_group_name_H-M "C 2/C"
_symmetry_group_IT_number 15
_symmetry_cell_setting 'monoclinic'
loop_
_space_group_symop_operation_xyz
x,y,z
-x,y,1/2-z
-x,-y,-z
x,-y,1/2+z
1/2+x,1/2+y,z
1/2-x,1/2+y,1/2-z
1/2-x,1/2-y,-z
1/2+x,1/2-y,1/2+z
loop_
_atom_site_type_symbol
_atom_site_label
_atom_site_fract_x
_atom_site_fract_y
_atom_site_fract_z
Si Si1 0.203223 0.811826 0.418480
Si Si2 0.880915 0.543919 0.724636
Si Si3 0.179609 0.815129 0.055153
Si Si4 0.516848 0.981217 0.103556
Si Si5 0.241595 0.081002 0.467436
Si Si6 0.044318 0.688500 0.508360
Si Si7 0.500000 0.811484 0.750000
O O1 0.250000 0.750000 0.500000
O O2 0.315277 0.780236 0.432226
O O3 0.072314 0.764202 0.332980
O O4 0.196797 0.955051 0.420958
O O5 0.764430 0.604730 0.638119
O O6 0.894727 0.551554 0.800001
O O7 0.000000 0.595055 0.750000
O O8 0.897448 0.402666 0.721951
O O9 0.243717 0.687032 0.071807
O O10 0.168597 0.875064 0.986635
O O11 0.050992 0.789503 0.021210
O O12 0.544002 0.901960 0.061785
O O13 0.380878 0.947163 0.057235
O O14 0.505961 0.115277 0.072716
#
# Coordination Sequence:
#
# PCOD9259624 Si02
#       7
#     8   8   8   8   8   8   4
#     4  11  21  41  62  82 119 164 203 245 297 367
#     4  10  19  35  59  85 114 155 198 243 291 367
#     4  10  18  35  61  93 116 148 198 249 306 354
#     4   9  16  36  57  83 117 158 191 230 305 371
#     4   9  18  34  62  88 115 154 196 237 299 370
#     4   9  20  34  61  84 114 154 197 245 300 355
#     4  10  22  38  60  80 110 162 208 228 294 374
#
# _framework density 18.23312
#
# number of rings (size 3 to 8) (size 9 to 14) (size 15 to 20)
#    0.462    1.846    1.538    3.692    0.000    0.000 
#    6.923    3.077    0.000    0.000    0.000    0.000 
#    0.000    0.000    0.000    0.000    0.000    0.000 
#
# Total GULP energy -144744.892721 kJ/mol
# GULP energy per Si atom -5567.111258 kJ/mol
# Density = 1.819162 g / cm^3
# Si number density = 18.233120 Si / 1000 Ang^3
#
#
#
# Elastic Constant Matrix: (Units=GPa)
#
#
# Indices 1 2 3 4 5 6 
#
# 1 77.6784 32.1694 12.5345 0.0000 -1.8905 0.0000
# 2 32.1694 93.3594 55.2687 0.0000 11.2312 0.0000
# 3 12.5345 55.2687 97.8218 0.0000 -8.0164 0.0000
# 4 0.0000 0.0000 0.0000 26.7282 0.0000 8.3964
# 5 -1.8905 11.2312 -8.0164 0.0000 21.2469 0.0000
# 6 0.0000 0.0000 0.0000 8.3964 0.0000 20.2022
#
#
#
# Elastic Compliance Matrix: (Units=1/GPa)
#
#
# Indices 1 2 3 4 5 6 
#
# 1 0.015925 -0.008189 0.003155 0.000000 0.006936 0.000000
# 2 -0.008189 0.024184 -0.014159 0.000000 -0.018855 0.000000
# 3 0.003155 -0.014159 0.019044 0.000000 0.014951 0.000000
# 4 0.000000 0.000000 0.000000 0.043032 0.000000 -0.017885
# 5 0.006936 -0.018855 0.014951 0.000000 0.063290 0.000000
# 6 0.000000 0.000000 0.000000 -0.017885 0.000000 0.056933
#
#
# Mechanical properties :
#
#
# Convention : Reuss Voigt Hill
#
# Bulk Modulus (GPa) = 48.15983 52.08944 50.12464
# Shear Modulus (GPa) = 18.67644 24.89459 21.78551
#
# Velocity S-wave (km/s) = 3.20396 3.69907 3.46038
# Velocity P-wave (km/s) = 6.33703 6.84652 6.59669
#
# Compressibility (1/GPa) = 0.02076419
#
# Stress axis : x y z
#
# Youngs Moduli (GPa) = 62.79494 41.35004 52.51101
#
# Poissons Ratio (x) = 0.33863 -0.16566
# Poissons Ratio (y) = 0.51425 0.74353
# Poissons Ratio (z) = -0.19811 0.58549
#
# Static dielectric constant tensor:
#      x y z
#    x 1.654800 0.000000 -0.019730 
#    y 0.000000 1.665770 0.000000 
#    z -0.019730 0.000000 1.623100 
# 
# From -- ./inp_files/243823.got.cif
#   From: 2010.05.17/outbox.cif.g08.bks.cpg/sg15_122_cif.got.tgz:243823.got - 2010.06.03 18:47:42.
