data_PCOD9259018
_publ_section_title
;
Structure prediction by ZEFSAII (Michael W. Deem and Ramdas Pophale) SiO2 
 PCOD9259018
Probable space group: C 2/C
;
_chemical_formula_sum "Si O2"
_cell_formula_units_Z 64
_cell_length_a 7.877885
_cell_length_b 31.239765
_cell_length_c 15.024359
_cell_angle_alpha 90.000000
_cell_angle_beta 124.046168
_cell_angle_gamma 90.000000
_cell_volume 3063.735813
_symmetry_space_group_name_H-M "C 2/C"
_symmetry_group_IT_number 15
_symmetry_cell_setting 'monoclinic'
loop_
_space_group_symop_operation_xyz
x,y,z
-x,y,1/2-z
-x,-y,-z
x,-y,1/2+z
1/2+x,1/2+y,z
1/2-x,1/2+y,1/2-z
1/2-x,1/2-y,-z
1/2+x,1/2-y,1/2+z
loop_
_atom_site_type_symbol
_atom_site_label
_atom_site_fract_x
_atom_site_fract_y
_atom_site_fract_z
Si Si1 0.788798 0.579314 0.299286
Si Si2 0.233013 0.978503 0.288980
Si Si3 0.776497 0.699665 0.515539
Si Si4 0.854596 0.826508 0.334667
Si Si5 0.179595 0.574188 0.525072
Si Si6 0.057378 0.115948 0.402143
Si Si7 0.632123 0.576493 0.607494
Si Si8 0.211640 0.328583 0.095492
O O1 0.740324 0.529080 0.279905
O O2 0.678800 0.600450 0.351872
O O3 0.679934 0.603610 0.185157
O O4 0.023804 0.580130 0.397972
O O5 0.368714 0.959585 0.409850
O O6 0.000000 0.966637 0.250000
O O7 0.266302 0.956307 0.203281
O O8 0.750000 0.750000 0.500000
O O9 0.777305 0.690235 0.621842
O O10 0.601497 0.666101 0.431641
O O11 0.980850 0.687914 0.520376
O O12 0.774434 0.815329 0.213869
O O13 0.846752 0.877942 0.337348
O O14 0.097132 0.814234 0.410264
O O15 0.397292 0.561611 0.547324
O O16 0.200800 0.620204 0.579473
O O17 0.156766 0.089042 0.512283
#
# Coordination Sequence:
#
# PCOD9259018 Si02
#       8
#     8   8   8   8   8   8   8   8
#     4  11  21  38  56  79 123 167 198 241 317 380
#     4  10  18  34  58  85 113 155 205 253 300 365
#     4  11  23  40  63  94 119 164 215 259 314 388
#     4   9  19  37  62  92 122 152 194 263 321 363
#     4  10  19  34  59  85 115 158 200 246 305 375
#     4  10  22  40  57  80 122 163 196 254 312 368
#     4   9  19  35  61  84 115 152 208 256 304 359
#     4  10  18  37  63  89 123 158 193 261 320 363
#
# _framework density 20.889529
#
# number of rings (size 3 to 8) (size 9 to 14) (size 15 to 20)
#    0.000    2.000    3.750    0.750    0.000    1.500 
#    4.500    0.625    2.750    0.000    0.000    0.000 
#    0.000    0.000    0.000    0.000    0.000    0.000 
#
# Total GULP energy -178286.900820 kJ/mol
# GULP energy per Si atom -5571.465651 kJ/mol
# Density = 2.084198 g / cm^3
# Si number density = 20.889529 Si / 1000 Ang^3
#
#
#
# Elastic Constant Matrix: (Units=GPa)
#
#
# Indices 1 2 3 4 5 6 
#
# 1 52.6110 16.3046 20.8703 0.0000 7.1917 0.0000
# 2 16.3046 103.4718 32.7511 0.0000 -3.1417 0.0000
# 3 20.8703 32.7511 55.4659 0.0000 5.4453 0.0000
# 4 0.0000 0.0000 0.0000 7.0490 0.0000 -6.2835
# 5 7.1917 -3.1417 5.4453 0.0000 28.6576 0.0000
# 6 0.0000 0.0000 0.0000 -6.2835 0.0000 -6.0142
#
#
#
# Elastic Compliance Matrix: (Units=1/GPa)
#
#
# Indices 1 2 3 4 5 6 
#
# 1 0.022990 -0.001430 -0.007362 0.000000 -0.004527 0.000000
# 2 -0.001430 0.012181 -0.006951 0.000000 0.003015 0.000000
# 3 -0.007362 -0.006951 0.025268 0.000000 -0.003716 0.000000
# 4 0.000000 0.000000 0.000000 0.073455 0.000000 -0.076744
# 5 -0.004527 0.003015 -0.003716 0.000000 0.037067 0.000000
# 6 0.000000 0.000000 0.000000 -0.076744 0.000000 -0.086093
#
#
# Mechanical properties :
#
#
# Convention : Reuss Voigt Hill
#
# Bulk Modulus (GPa) = 34.53676 39.04452 36.79064
# Shear Modulus (GPa) = 39.68111 15.37999 27.53055
#
# Velocity S-wave (km/s) = 4.36313 2.71634 3.63424
# Velocity P-wave (km/s) = 6.47700 5.34505 5.93806
#
# Compressibility (1/GPa) = 0.02895465
#
# Stress axis : x y z
#
# Youngs Moduli (GPa) = 43.49765 82.09248 39.57566
#
# Poissons Ratio (x) = 0.11739 0.29134
# Poissons Ratio (y) = 0.06220 0.27508
# Poissons Ratio (z) = 0.32021 0.57060
#
# Static dielectric constant tensor:
#      x y z
#    x 1.828660 0.000000 0.040100 
#    y 0.000000 1.709550 0.000000 
#    z 0.040100 0.000000 1.839800 
# 
# From -- ./inp_files/139870.got.cif
#   From: 2010.05.17/outbox.cif.g08.bks.cpg/sg15_70_cif.got.tgz:139870.got - 2010.06.03 18:47:42.
