data_PCOD9259206
_publ_section_title
;
Structure prediction by ZEFSAII (Michael W. Deem and Ramdas Pophale) SiO2 
 PCOD9259206
Probable space group: C 2/C
;
_chemical_formula_sum "Si O2"
_cell_formula_units_Z 60
_cell_length_a 28.957355
_cell_length_b 12.130566
_cell_length_c 17.705478
_cell_angle_alpha 90.000000
_cell_angle_beta 146.713598
_cell_angle_gamma 90.000000
_cell_volume 3413.351826
_symmetry_space_group_name_H-M "C 2/C"
_symmetry_group_IT_number 15
_symmetry_cell_setting 'monoclinic'
loop_
_space_group_symop_operation_xyz
x,y,z
-x,y,1/2-z
-x,-y,-z
x,-y,1/2+z
1/2+x,1/2+y,z
1/2-x,1/2+y,1/2-z
1/2-x,1/2-y,-z
1/2+x,1/2-y,1/2+z
loop_
_atom_site_type_symbol
_atom_site_label
_atom_site_fract_x
_atom_site_fract_y
_atom_site_fract_z
Si Si1 0.500000 0.658533 0.750000
Si Si2 0.240462 0.426366 0.972732
Si Si3 0.416822 0.706931 0.083442
Si Si4 0.882853 0.767374 0.214526
Si Si5 0.339925 0.467642 0.966689
Si Si6 0.450638 0.330168 0.456937
Si Si7 0.869173 0.075508 0.338397
Si Si8 0.723928 0.156305 0.025720
O O1 0.537001 0.723514 0.729845
O O2 0.575505 0.585653 0.884449
O O3 0.172770 0.331974 0.891360
O O4 0.326341 0.378758 0.128114
O O5 0.263667 0.436902 0.916578
O O6 0.209573 0.542274 0.961729
O O7 0.500000 0.692773 0.250000
O O8 0.358646 0.597326 0.000272
O O9 0.445196 0.716323 0.034467
O O10 0.356564 0.800149 0.037124
O O11 0.908944 0.754085 0.336564
O O12 0.331965 0.420138 0.871995
O O13 0.401521 0.447785 0.381672
O O14 0.546060 0.355937 0.562400
O O15 0.800108 0.121262 0.185856
O O16 0.750000 0.250000 0.000000
#
# Coordination Sequence:
#
# PCOD9259206 Si02
#       8
#     4   8   8   8   8   8   8   8
#     4  10  18  34  62  86 114 152 196 256 298 352
#     4  10  22  37  59  84 124 158 202 246 303 369
#     4  11  23  37  61  88 121 163 203 247 309 365
#     4  10  20  38  60  89 117 155 198 254 306 357
#     4  10  19  35  61  89 115 153 202 256 296 355
#     4  10  20  36  62  92 120 153 196 265 302 359
#     4  10  21  35  60  92 122 148 200 255 310 351
#     4  12  23  40  60  89 126 167 202 252 308 375
#
# _framework density 17.578030999999999
#
# number of rings (size 3 to 8) (size 9 to 14) (size 15 to 20)
#    0.000    1.600    4.667    0.800    1.867    0.000 
#    1.200    0.000    0.000    3.200    0.000    0.000 
#    0.000    0.000    0.000    0.000    0.000    0.000 
#
# Total GULP energy -167120.849536 kJ/mol
# GULP energy per Si atom -5570.694985 kJ/mol
# Density = 1.753802 g / cm^3
# Si number density = 17.578031 Si / 1000 Ang^3
#
#
#
# Elastic Constant Matrix: (Units=GPa)
#
#
# Indices 1 2 3 4 5 6 
#
# 1 119.2521 46.1407 29.8746 0.0000 -12.7667 0.0000
# 2 46.1407 71.6940 15.4193 0.0000 0.8837 0.0000
# 3 29.8746 15.4193 60.5352 0.0000 -16.9920 0.0000
# 4 0.0000 0.0000 0.0000 14.5356 0.0000 2.5257
# 5 -12.7667 0.8837 -16.9920 0.0000 33.0753 0.0000
# 6 0.0000 0.0000 0.0000 2.5257 0.0000 21.5600
#
#
#
# Elastic Compliance Matrix: (Units=1/GPa)
#
#
# Indices 1 2 3 4 5 6 
#
# 1 0.012397 -0.007299 -0.003343 0.000000 0.003263 0.000000
# 2 -0.007299 0.019267 -0.002618 0.000000 -0.004677 0.000000
# 3 -0.003343 -0.002618 0.021609 0.000000 0.009881 0.000000
# 4 0.000000 0.000000 0.000000 0.070226 0.000000 -0.008227
# 5 0.003263 -0.004677 0.009881 0.000000 0.036695 0.000000
# 6 0.000000 0.000000 0.000000 -0.008227 0.000000 0.047346
#
#
# Mechanical properties :
#
#
# Convention : Reuss Voigt Hill
#
# Bulk Modulus (GPa) = 37.38008 48.26118 42.82063
# Shear Modulus (GPa) = 20.57807 24.50398 22.54102
#
# Velocity S-wave (km/s) = 3.42522 3.73770 3.58486
# Velocity P-wave (km/s) = 6.07900 6.79280 6.44579
#
# Compressibility (1/GPa) = 0.02675222
#
# Stress axis : x y z
#
# Youngs Moduli (GPa) = 80.66746 51.90307 46.27604
#
# Poissons Ratio (x) = 0.37887 0.15469
# Poissons Ratio (y) = 0.58883 0.12116
# Poissons Ratio (z) = 0.26964 0.13589
#
# Static dielectric constant tensor:
#      x y z
#    x 1.620090 0.000000 -0.019040 
#    y 0.000000 1.590400 0.000000 
#    z -0.019040 0.000000 1.597820 
# 
# From -- ./inp_files/167694.got.cif
#   From: 2010.05.17/outbox.cif.g08.bks.cpg/sg15_84_cif.got.tgz:167694.got - 2010.06.03 18:47:42.
