data_PCOD9259771
_publ_section_title
;
Structure prediction by ZEFSAII (Michael W. Deem and Ramdas Pophale) SiO2 
 PCOD9259771
Probable space group: C 2/C
;
_chemical_formula_sum "Si O2"
_cell_formula_units_Z 52
_cell_length_a 8.725729
_cell_length_b 24.760652
_cell_length_c 17.413564
_cell_angle_alpha 90.000000
_cell_angle_beta 136.510879
_cell_angle_gamma 90.000000
_cell_volume 2589.266512
_symmetry_space_group_name_H-M "C 2/C"
_symmetry_group_IT_number 15
_symmetry_cell_setting 'monoclinic'
loop_
_space_group_symop_operation_xyz
x,y,z
-x,y,1/2-z
-x,-y,-z
x,-y,1/2+z
1/2+x,1/2+y,z
1/2-x,1/2+y,1/2-z
1/2-x,1/2-y,-z
1/2+x,1/2-y,1/2+z
loop_
_atom_site_type_symbol
_atom_site_label
_atom_site_fract_x
_atom_site_fract_y
_atom_site_fract_z
Si Si1 0.391553 0.670672 0.562143
Si Si2 0.414480 0.082721 0.581070
Si Si3 0.602641 0.195632 0.708517
Si Si4 0.251807 0.237475 0.127782
Si Si5 0.679552 0.565154 0.880425
Si Si6 0.482086 0.529333 0.410624
Si Si7 0.500000 0.997979 0.750000
O O1 0.647487 0.677390 0.679205
O O2 0.266108 0.711033 0.575256
O O3 0.344045 0.689850 0.458922
O O4 0.319443 0.610150 0.553252
O O5 0.481874 0.141971 0.633876
O O6 0.579667 0.064994 0.572285
O O7 0.457105 0.038757 0.663549
O O8 0.151423 0.079092 0.469401
O O9 0.500000 0.215567 0.750000
O O10 0.609208 0.241945 0.647321
O O11 0.500000 0.226056 0.250000
O O12 0.500000 0.582385 0.750000
O O13 0.582263 0.511174 0.882885
O O14 0.500000 0.500000 0.500000
O O15 0.217784 0.536345 0.306876
#
# Coordination Sequence:
#
# PCOD9259771 Si02
#       7
#     8   8   8   8   8   8   4
#     4  10  19  34  62  89 120 160 202 255 312 371
#     4  11  20  34  58  91 120 157 216 255 303 366
#     4  11  20  33  59  92 124 158 207 262 302 367
#     4   9  19  37  58  89 122 158 204 251 315 380
#     4  12  19  36  62  89 122 160 216 258 307 371
#     4  10  23  35  57  87 122 167 202 256 312 364
#     4  10  18  36  54  84 124 162 200 254 310 368
#
# _framework density 20.082906999999999
#
# number of rings (size 3 to 8) (size 9 to 14) (size 15 to 20)
#    0.000    1.538    5.385    0.923    2.154    0.615 
#    0.000    0.000    6.769    0.000    0.000    0.000 
#    0.000    0.000    0.000    0.000    0.000    0.154 
#
# Total GULP energy -145169.230749 kJ/mol
# GULP energy per Si atom -5583.431952 kJ/mol
# Density = 2.003720 g / cm^3
# Si number density = 20.082907 Si / 1000 Ang^3
#
#
#
# Elastic Constant Matrix: (Units=GPa)
#
#
# Indices 1 2 3 4 5 6 
#
# 1 144.3965 54.0336 39.2605 0.0000 -15.2645 0.0000
# 2 54.0336 42.7081 53.3714 0.0000 10.3034 0.0000
# 3 39.2605 53.3714 78.7658 0.0000 -4.0389 0.0000
# 4 0.0000 0.0000 0.0000 22.5408 0.0000 -9.0051
# 5 -15.2645 10.3034 -4.0389 0.0000 20.2276 0.0000
# 6 0.0000 0.0000 0.0000 -9.0051 0.0000 15.4203
#
#
#
# Elastic Compliance Matrix: (Units=1/GPa)
#
#
# Indices 1 2 3 4 5 6 
#
# 1 0.001277 0.023620 -0.017387 0.000000 -0.014540 0.000000
# 2 0.023620 -0.076016 0.043075 0.000000 0.065146 0.000000
# 3 -0.017387 0.043075 -0.009723 0.000000 -0.037004 0.000000
# 4 0.000000 0.000000 0.000000 0.057864 0.000000 0.033791
# 5 -0.014540 0.065146 -0.037004 0.000000 -0.002107 0.000000
# 6 0.000000 0.000000 0.000000 0.033791 0.000000 0.084583
#
#
# Mechanical properties :
#
#
# Convention : Reuss Voigt Hill
#
# Bulk Modulus (GPa) = 70.64547 62.13348 66.38948
# Shear Modulus (GPa) = -131.50526 19.58474 -55.96026
#
# Velocity S-wave (km/s) = -8.10082 3.12620 -5.28442
# Velocity P-wave (km/s) = 7.22804 6.63600 2.02584
#
# Compressibility (1/GPa) = 0.01415519
#
# Stress axis : x y z
#
# Youngs Moduli (GPa) = 783.08214 -13.15510 -102.85252
#
# Poissons Ratio (x) = 0.31073 -1.78831
# Poissons Ratio (y) = -18.49666 4.43040
# Poissons Ratio (z) = 13.61553 0.56666
#
# Static dielectric constant tensor:
#      x y z
#    x 1.740940 0.000000 0.017710 
#    y 0.000000 1.692700 0.000000 
#    z 0.017710 0.000000 1.746830 
# 
# From -- ./inp_files/194015.got.cif
#   From: 2010.05.17/outbox.cif.g08.bks.cpg/sg15_98_cif.got.tgz:194015.got - 2010.06.03 18:47:42.
