data_PCOD9259274
_publ_section_title
;
Structure prediction by ZEFSAII (Michael W. Deem and Ramdas Pophale) SiO2 
 PCOD9259274
Probable space group: C 2/C
;
_chemical_formula_sum "Si O2"
_cell_formula_units_Z 64
_cell_length_a 31.524711
_cell_length_b 8.159646
_cell_length_c 18.995371
_cell_angle_alpha 90.000000
_cell_angle_beta 140.521501
_cell_angle_gamma 90.000000
_cell_volume 3106.582971
_symmetry_space_group_name_H-M "C 2/C"
_symmetry_group_IT_number 15
_symmetry_cell_setting 'monoclinic'
loop_
_space_group_symop_operation_xyz
x,y,z
-x,y,1/2-z
-x,-y,-z
x,-y,1/2+z
1/2+x,1/2+y,z
1/2-x,1/2+y,1/2-z
1/2-x,1/2-y,-z
1/2+x,1/2-y,1/2+z
loop_
_atom_site_type_symbol
_atom_site_label
_atom_site_fract_x
_atom_site_fract_y
_atom_site_fract_z
Si Si1 0.856404 0.959702 0.665916
Si Si2 0.281550 0.589242 0.695653
Si Si3 0.145226 0.089054 0.567424
Si Si4 0.642955 0.034144 0.019480
Si Si5 0.997256 0.057365 0.162954
Si Si6 0.144552 0.424432 0.357684
Si Si7 0.000653 0.452743 0.167093
Si Si8 0.734738 0.578624 0.068925
O O1 0.858775 0.773309 0.640263
O O2 0.933162 0.007319 0.779157
O O3 0.810687 0.961687 0.676408
O O4 0.823474 0.075668 0.564666
O O5 0.334332 0.603449 0.825540
O O6 0.209686 0.542628 0.636063
O O7 0.268050 0.751602 0.633193
O O8 0.144662 0.272362 0.535670
O O9 0.073048 0.007203 0.460705
O O10 0.200919 0.992517 0.595258
O O11 0.649709 0.008895 0.943861
O O12 0.569480 0.976125 0.950219
O O13 0.997265 0.255393 0.155200
O O14 0.000000 0.021046 0.250000
O O15 0.207434 0.469752 0.391584
O O16 0.074949 0.493582 0.236676
O O17 0.000000 0.486130 0.250000
#
# Coordination Sequence:
#
# PCOD9259274 Si02
#       8
#     8   8   8   8   8   8   8   8
#     4  11  20  37  61  87 112 153 199 247 284 346
#     4  12  26  35  53  88 130 157 179 240 314 354
#     4  11  22  40  61  83 113 158 202 240 293 353
#     4  10  18  37  60  81 113 150 199 240 284 343
#     4   9  16  34  63  85 104 141 208 255 274 329
#     4  10  18  34  64  89 103 146 207 247 273 336
#     4   7  14  28  55  87 103 129 187 248 277 316
#     4  12  22  37  58  87 123 152 196 242 286 356
#
# _framework density 20.601413000000001
#
# number of rings (size 3 to 8) (size 9 to 14) (size 15 to 20)
#    0.000    1.750    3.750    3.750    0.000    0.500 
#    0.000    1.250    2.750   13.500    0.000    0.000 
#    0.000    0.000    0.000    0.000    0.000    0.000 
#
# Total GULP energy -178468.883259 kJ/mol
# GULP energy per Si atom -5577.152602 kJ/mol
# Density = 2.055452 g / cm^3
# Si number density = 20.601413 Si / 1000 Ang^3
#
#
#
# Elastic Constant Matrix: (Units=GPa)
#
#
# Indices 1 2 3 4 5 6 
#
# 1 54.6522 3.6484 52.6150 0.0000 17.2525 0.0000
# 2 3.6484 15.0909 20.9473 0.0000 -2.3378 0.0000
# 3 52.6150 20.9473 128.5552 0.0000 29.2617 0.0000
# 4 0.0000 0.0000 0.0000 23.2481 0.0000 8.5741
# 5 17.2525 -2.3378 29.2617 0.0000 28.7470 0.0000
# 6 0.0000 0.0000 0.0000 8.5741 0.0000 -1.9957
#
#
#
# Elastic Compliance Matrix: (Units=1/GPa)
#
#
# Indices 1 2 3 4 5 6 
#
# 1 0.032522 0.011176 -0.014182 0.000000 -0.004174 0.000000
# 2 0.011176 0.110319 -0.030021 0.000000 0.032823 0.000000
# 3 -0.014182 -0.030021 0.022248 0.000000 -0.016577 0.000000
# 4 0.000000 0.000000 0.000000 0.016643 0.000000 0.071503
# 5 -0.004174 0.032823 -0.016577 0.000000 0.056834 0.000000
# 6 0.000000 0.000000 0.000000 0.071503 0.000000 -0.193876
#
#
# Mechanical properties :
#
#
# Convention : Reuss Voigt Hill
#
# Bulk Modulus (GPa) = 10.09737 39.19109 24.64423
# Shear Modulus (GPa) = 34.78119 18.07239 26.42679
#
# Velocity S-wave (km/s) = 4.11334 2.96504 3.58546
# Velocity P-wave (km/s) = 5.24131 5.54858 5.39713
#
# Compressibility (1/GPa) = 0.09903571
#
# Stress axis : x y z
#
# Youngs Moduli (GPa) = 30.74844 9.06459 44.94800
#
# Poissons Ratio (x) = -0.10131 0.63743
# Poissons Ratio (y) = -0.34364 1.34939
# Poissons Ratio (z) = 0.43606 0.27213
#
# Static dielectric constant tensor:
#      x y z
#    x 1.721690 0.000000 0.061500 
#    y 0.000000 1.737720 0.000000 
#    z 0.061500 0.000000 1.791930 
# 
# From -- ./inp_files/224654.got.cif
#   From: 2010.05.17/outbox.cif.g08.bks.cpg/sg15_113_cif.got.tgz:224654.got - 2010.06.03 18:47:42.
