data_PCOD9259082
_publ_section_title
;
Structure prediction by ZEFSAII (Michael W. Deem and Ramdas Pophale) SiO2 
 PCOD9259082
Probable space group: C 2/C
;
_chemical_formula_sum "Si O2"
_cell_formula_units_Z 48
_cell_length_a 14.152551
_cell_length_b 11.690815
_cell_length_c 16.103883
_cell_angle_alpha 90.000000
_cell_angle_beta 102.943017
_cell_angle_gamma 90.000000
_cell_volume 2596.770372
_symmetry_space_group_name_H-M "C 2/C"
_symmetry_group_IT_number 15
_symmetry_cell_setting 'monoclinic'
loop_
_space_group_symop_operation_xyz
x,y,z
-x,y,1/2-z
-x,-y,-z
x,-y,1/2+z
1/2+x,1/2+y,z
1/2-x,1/2+y,1/2-z
1/2-x,1/2-y,-z
1/2+x,1/2-y,1/2+z
loop_
_atom_site_type_symbol
_atom_site_label
_atom_site_fract_x
_atom_site_fract_y
_atom_site_fract_z
Si Si1 0.327330 0.334432 0.554384
Si Si2 0.386374 0.366097 0.748843
Si Si3 0.285843 0.598406 0.507235
Si Si4 0.005315 0.865943 0.024034
Si Si5 0.741602 0.255817 0.644775
Si Si6 0.099765 0.868687 0.218723
O O1 0.250000 0.250000 0.500000
O O2 0.330947 0.331353 0.654225
O O3 0.300790 0.464186 0.522090
O O4 0.435003 0.309704 0.539023
O O5 0.500000 0.357850 0.750000
O O6 0.350887 0.290827 0.818931
O O7 0.365806 0.499637 0.764979
O O8 0.393179 0.658171 0.522706
O O9 0.236254 0.636475 0.411525
O O10 0.234024 0.652155 0.577268
O O11 0.071129 0.848182 0.118066
O O12 0.000000 0.000000 0.000000
O O13 0.824389 0.217513 0.725338
O O14 0.000000 0.861142 0.250000
#
# Coordination Sequence:
#
# PCOD9259082 Si02
#       6
#     8   8   8   8   8   8
#     4  11  21  36  58  89 119 149 191 243 293 354
#     4  11  21  36  57  86 115 152 198 242 289 340
#     4  10  20  38  59  88 114 156 194 239 307 339
#     4  10  18  34  59  87 115 145 193 249 291 338
#     4  11  21  35  62  86 120 153 193 247 292 357
#     4  11  19  36  58  89 115 147 201 248 290 342
#
# _framework density 18.484499
#
# number of rings (size 3 to 8) (size 9 to 14) (size 15 to 20)
#    0.000    1.333    3.333    7.000    0.000    0.000 
#    0.000    0.000    0.000   17.000    0.000    0.000 
#    0.000    0.000    0.000    0.000    0.000    0.000 
#
# Total GULP energy -133854.700815 kJ/mol
# GULP energy per Si atom -5577.279201 kJ/mol
# Density = 1.844243 g / cm^3
# Si number density = 18.484499 Si / 1000 Ang^3
#
#
#
# Elastic Constant Matrix: (Units=GPa)
#
#
# Indices 1 2 3 4 5 6 
#
# 1 73.7624 42.2791 35.7111 0.0000 -6.6981 0.0000
# 2 42.2791 64.0914 43.1823 0.0000 0.7105 0.0000
# 3 35.7111 43.1823 122.7162 0.0000 -2.1092 0.0000
# 4 0.0000 0.0000 0.0000 32.2365 0.0000 7.7426
# 5 -6.6981 0.7105 -2.1092 0.0000 37.9739 0.0000
# 6 0.0000 0.0000 0.0000 7.7426 0.0000 28.7561
#
#
#
# Elastic Compliance Matrix: (Units=1/GPa)
#
#
# Indices 1 2 3 4 5 6 
#
# 1 0.022710 -0.013924 -0.001637 0.000000 0.004175 0.000000
# 2 -0.013924 0.029012 -0.006215 0.000000 -0.003344 0.000000
# 3 -0.001637 -0.006215 0.010819 0.000000 0.000428 0.000000
# 4 0.000000 0.000000 0.000000 0.033166 0.000000 -0.008930
# 5 0.004175 -0.003344 0.000428 0.000000 0.027157 0.000000
# 6 0.000000 0.000000 0.000000 -0.008930 0.000000 0.037180
#
#
# Mechanical properties :
#
#
# Convention : Reuss Voigt Hill
#
# Bulk Modulus (GPa) = 52.65979 55.87945 54.26962
# Shear Modulus (GPa) = 23.81798 29.08646 26.45222
#
# Velocity S-wave (km/s) = 3.59352 3.97112 3.78702
# Velocity P-wave (km/s) = 6.76523 7.16397 6.96745
#
# Compressibility (1/GPa) = 0.01898982
#
# Stress axis : x y z
#
# Youngs Moduli (GPa) = 44.03364 34.46814 92.42582
#
# Poissons Ratio (x) = 0.47994 0.15132
# Poissons Ratio (y) = 0.61314 0.57438
# Poissons Ratio (z) = 0.07209 0.21420
#
# Static dielectric constant tensor:
#      x y z
#    x 1.660160 0.000000 -0.018520 
#    y 0.000000 1.627070 0.000000 
#    z -0.018520 0.000000 1.654820 
# 
# From -- ./inp_files/152101.got.cif
#   From: 2010.05.17/outbox.cif.g08.bks.cpg/sg15_77_cif.got.tgz:152101.got - 2010.06.03 18:47:42.
