data_PCOD9259745
_publ_section_title
;
Structure prediction by ZEFSAII (Michael W. Deem and Ramdas Pophale) SiO2 
 PCOD9259745
Probable space group: C 2/C
;
_chemical_formula_sum "Si O2"
_cell_formula_units_Z 36
_cell_length_a 26.051307
_cell_length_b 15.442585
_cell_length_c 8.738673
_cell_angle_alpha 90.000000
_cell_angle_beta 31.197262
_cell_angle_gamma 90.000000
_cell_volume 1821.013391
_symmetry_space_group_name_H-M "C 2/C"
_symmetry_group_IT_number 15
_symmetry_cell_setting 'monoclinic'
loop_
_space_group_symop_operation_xyz
x,y,z
-x,y,1/2-z
-x,-y,-z
x,-y,1/2+z
1/2+x,1/2+y,z
1/2-x,1/2+y,1/2-z
1/2-x,1/2-y,-z
1/2+x,1/2-y,1/2+z
loop_
_atom_site_type_symbol
_atom_site_label
_atom_site_fract_x
_atom_site_fract_y
_atom_site_fract_z
Si Si1 0.017909 0.594490 0.386228
Si Si2 0.892506 0.755681 0.737594
Si Si3 0.000000 0.005348 0.250000
Si Si4 0.080605 0.879595 0.288103
Si Si5 0.312585 0.774932 0.095991
O O1 0.000000 0.588997 0.250000
O O2 0.000000 0.500000 0.500000
O O3 0.937339 0.661429 0.660791
O O4 0.124727 0.643497 0.127541
O O5 0.859354 0.749233 0.644284
O O6 0.981771 0.821942 0.525433
O O7 0.802271 0.785720 0.073365
O O8 0.930686 0.064414 0.531933
O O9 0.071245 0.946252 0.172008
O O10 0.168384 0.810580 0.053688
#
# Coordination Sequence:
#
# PCOD9259745 Si02
#       5
#     8   8   4   8   8
#     4   9  18  35  53  74 101 136 171 208 249 305
#     4   9  17  34  56  74 101 138 173 205 259 307
#     4  10  20  32  54  74 106 130 172 210 266 292
#     4  10  18  36  51  77 103 136 165 218 254 308
#     4   9  17  34  56  74 101 138 173 205 259 307
#
# _framework density 19.769213000000001
#
# number of rings (size 3 to 8) (size 9 to 14) (size 15 to 20)
#    0.000    2.667    2.222    1.333    0.000    0.000 
#   16.000    1.111    0.000    0.000    0.000    0.000 
#    0.000    0.000    0.000    0.000    0.000    0.000 
#
# Total GULP energy -100391.875754 kJ/mol
# GULP energy per Si atom -5577.326431 kJ/mol
# Density = 1.972422 g / cm^3
# Si number density = 19.769213 Si / 1000 Ang^3
#
#
#
# Elastic Constant Matrix: (Units=GPa)
#
#
# Indices 1 2 3 4 5 6 
#
# 1 11.8220 18.3657 5.8174 0.0000 8.5178 0.0000
# 2 18.3657 128.2993 34.5976 0.0000 14.9480 0.0000
# 3 5.8174 34.5976 85.0731 0.0000 -0.1219 0.0000
# 4 0.0000 0.0000 0.0000 75.1917 0.0000 58.4226
# 5 8.5178 14.9480 -0.1219 0.0000 19.2982 0.0000
# 6 0.0000 0.0000 0.0000 58.4226 0.0000 53.7520
#
#
#
# Elastic Compliance Matrix: (Units=1/GPa)
#
#
# Indices 1 2 3 4 5 6 
#
# 1 0.147045 -0.013438 -0.004668 0.000000 -0.054523 0.000000
# 2 -0.013438 0.010977 -0.003549 0.000000 -0.002594 0.000000
# 3 -0.004668 -0.003549 0.013524 0.000000 0.004895 0.000000
# 4 0.000000 0.000000 0.000000 0.085523 0.000000 -0.092954
# 5 -0.054523 -0.002594 0.004895 0.000000 0.077924 0.000000
# 6 0.000000 0.000000 0.000000 -0.092954 0.000000 0.119635
#
#
# Mechanical properties :
#
#
# Convention : Reuss Voigt Hill
#
# Bulk Modulus (GPa) = 7.79811 38.08397 22.94104
# Shear Modulus (GPa) = 9.24754 40.74262 24.99508
#
# Velocity S-wave (km/s) = 2.16516 4.54465 3.55962
# Velocity P-wave (km/s) = 3.19432 6.84431 5.34080
#
# Compressibility (1/GPa) = 0.12823626
#
# Stress axis : x y z
#
# Youngs Moduli (GPa) = 6.80062 91.09863 73.94172
#
# Poissons Ratio (x) = 1.22416 0.34519
# Poissons Ratio (y) = 0.09139 0.26242
# Poissons Ratio (z) = 0.03175 0.32331
#
# Static dielectric constant tensor:
#      x y z
#    x 1.703110 0.000000 0.010970 
#    y 0.000000 1.708450 0.000000 
#    z 0.010970 0.000000 1.685890 
# 
# From -- ./inp_files/37615.got.cif
#   From: 2010.05.17/outbox.cif.g08.bks.cpg/sg15_19_cif.got.tgz:37615.got - 2010.06.03 18:47:42.
