data_PCOD9259852
_publ_section_title
;
Structure prediction by ZEFSAII (Michael W. Deem and Ramdas Pophale) SiO2 
 PCOD9259852
Probable space group: C 2/C
;
_chemical_formula_sum "Si O2"
_cell_formula_units_Z 56
_cell_length_a 15.831544
_cell_length_b 9.054795
_cell_length_c 21.485077
_cell_angle_alpha 90.000000
_cell_angle_beta 78.596783
_cell_angle_gamma 90.000000
_cell_volume 3019.118253
_symmetry_space_group_name_H-M "C 2/C"
_symmetry_group_IT_number 15
_symmetry_cell_setting 'monoclinic'
loop_
_space_group_symop_operation_xyz
x,y,z
-x,y,1/2-z
-x,-y,-z
x,-y,1/2+z
1/2+x,1/2+y,z
1/2-x,1/2+y,1/2-z
1/2-x,1/2-y,-z
1/2+x,1/2-y,1/2+z
loop_
_atom_site_type_symbol
_atom_site_label
_atom_site_fract_x
_atom_site_fract_y
_atom_site_fract_z
Si Si1 0.333784 0.352492 0.482926
Si Si2 0.360018 0.236985 0.155979
Si Si3 0.124408 0.922699 0.882239
Si Si4 0.717086 0.450160 0.620097
Si Si5 0.966751 0.093176 0.322154
Si Si6 0.550103 0.248490 0.143358
Si Si7 0.789326 0.259447 0.804613
O O1 0.250000 0.250000 0.500000
O O2 0.367041 0.388230 0.546382
O O3 0.302981 0.491947 0.446212
O O4 0.407762 0.276273 0.430331
O O5 0.371825 0.401859 0.128505
O O6 0.303153 0.140688 0.117695
O O7 0.456603 0.176521 0.153555
O O8 0.309718 0.245677 0.228891
O O9 0.205091 0.851460 0.834299
O O10 0.035559 0.865276 0.864821
O O11 0.631595 0.360906 0.652652
O O12 0.722547 0.596608 0.663154
O O13 0.963683 0.912800 0.325303
O O14 0.000000 0.138843 0.250000
O O15 0.625098 0.176460 0.173812
#
# Coordination Sequence:
#
# PCOD9259852 Si02
#       7
#     8   8   8   8   8   8   8
#     4  10  19  39  58  76 105 147 197 210 267 341
#     4  11  21  33  53  91 111 132 184 234 286 300
#     4  11  20  34  63  79 105 150 182 222 267 328
#     4  10  21  35  55  79 114 144 174 238 266 319
#     4   9  17  32  52  82 108 136 180 223 268 318
#     4   9  18  32  57  78 107 145 183 225 256 327
#     4  10  18  36  58  78 109 153 180 215 270 343
#
# _framework density 18.548461
#
# number of rings (size 3 to 8) (size 9 to 14) (size 15 to 20)
#    0.000    2.286    2.857    5.571    0.000    5.714 
#    0.000    2.143    0.000    0.000    0.000    0.000 
#    0.000    0.000    0.000    0.000    0.000    0.000 
#
# Total GULP energy -156145.905038 kJ/mol
# GULP energy per Si atom -5576.639466 kJ/mol
# Density = 1.850624 g / cm^3
# Si number density = 18.548461 Si / 1000 Ang^3
#
#
#
# Elastic Constant Matrix: (Units=GPa)
#
#
# Indices 1 2 3 4 5 6 
#
# 1 91.8085 14.8984 -21.8859 0.0000 -3.9786 0.0000
# 2 14.8984 13.8988 -2.5708 0.0000 -0.7892 0.0000
# 3 -21.8859 -2.5708 75.1050 0.0000 4.1769 0.0000
# 4 0.0000 0.0000 0.0000 -1.2619 0.0000 18.7226
# 5 -3.9786 -0.7892 4.1769 0.0000 25.7511 0.0000
# 6 0.0000 0.0000 0.0000 18.7226 0.0000 -22.8997
#
#
#
# Elastic Compliance Matrix: (Units=1/GPa)
#
#
# Indices 1 2 3 4 5 6 
#
# 1 0.014132 -0.014424 0.003560 0.000000 0.001164 0.000000
# 2 -0.014424 0.087215 -0.001254 0.000000 0.000648 0.000000
# 3 0.003560 -0.001254 0.014411 0.000000 -0.001826 0.000000
# 4 0.000000 0.000000 0.000000 0.071197 0.000000 0.058210
# 5 0.001164 0.000648 -0.001826 0.000000 0.039329 0.000000
# 6 0.000000 0.000000 0.000000 0.058210 0.000000 0.003923
#
#
# Mechanical properties :
#
#
# Convention : Reuss Voigt Hill
#
# Bulk Modulus (GPa) = 10.92642 17.96620 14.44631
# Shear Modulus (GPa) = 17.54694 13.00927 15.27811
#
# Velocity S-wave (km/s) = 3.07906 2.65121 2.87311
# Velocity P-wave (km/s) = 4.30631 4.36795 4.33724
#
# Compressibility (1/GPa) = 0.09152129
#
# Stress axis : x y z
#
# Youngs Moduli (GPa) = 70.76192 11.46595 69.39331
#
# Poissons Ratio (x) = 0.16538 -0.24701
# Poissons Ratio (y) = 1.02066 0.08701
# Poissons Ratio (z) = -0.25189 0.01438
#
# Static dielectric constant tensor:
#      x y z
#    x 1.673680 0.000000 -0.007040 
#    y 0.000000 1.639400 0.000000 
#    z -0.007040 0.000000 1.640020 
# 
# From -- ./inp_files/243342.got.cif
#   From: 2010.05.17/outbox.cif.g08.bks.cpg/sg15_122_cif.got.tgz:243342.got - 2010.06.03 18:47:42.
