data_PCOD9259101
_publ_section_title
;
Structure prediction by ZEFSAII (Michael W. Deem and Ramdas Pophale) SiO2 
 PCOD9259101
Probable space group: C 2/C
;
_chemical_formula_sum "Si O2"
_cell_formula_units_Z 44
_cell_length_a 17.767229
_cell_length_b 16.980877
_cell_length_c 9.767613
_cell_angle_alpha 90.000000
_cell_angle_beta 36.746716
_cell_angle_gamma 90.000000
_cell_volume 1763.079043
_symmetry_space_group_name_H-M "C 2/C"
_symmetry_group_IT_number 15
_symmetry_cell_setting 'monoclinic'
loop_
_space_group_symop_operation_xyz
x,y,z
-x,y,1/2-z
-x,-y,-z
x,-y,1/2+z
1/2+x,1/2+y,z
1/2-x,1/2+y,1/2-z
1/2-x,1/2-y,-z
1/2+x,1/2-y,1/2+z
loop_
_atom_site_type_symbol
_atom_site_label
_atom_site_fract_x
_atom_site_fract_y
_atom_site_fract_z
Si Si1 0.254388 0.446926 0.654429
Si Si2 0.500000 0.459706 0.750000
Si Si3 0.235517 0.171269 0.610017
Si Si4 0.815486 0.861241 0.833606
Si Si5 0.115147 0.393513 0.360037
Si Si6 0.011075 0.737434 0.570873
O O1 0.386765 0.492644 0.483141
O O2 0.277975 0.399563 0.479343
O O3 0.250806 0.391503 0.791062
O O4 0.143611 0.512620 0.816461
O O5 0.427698 0.412157 0.737262
O O6 0.250000 0.250000 0.500000
O O7 0.343308 0.140864 0.554503
O O8 0.120983 0.201454 0.872506
O O9 0.884253 0.779887 0.702589
O O10 0.710855 0.864796 0.102495
O O11 0.986792 0.348297 0.505280
O O12 0.000000 0.729674 0.750000
#
# Coordination Sequence:
#
# PCOD9259101 Si02
#       6
#     8   4   8   8   8   8
#     4  11  23  40  69 102 147 187 242 311 374 424
#     4  10  18  34  60 104 138 174 240 302 372 424
#     4  12  27  47  71 107 145 194 253 308 366 436
#     4  11  20  38  68 100 138 183 239 298 363 435
#     4  11  24  43  69 105 146 191 238 300 375 444
#     4  12  24  44  74 105 142 194 250 301 368 447
#
# _framework density 24.956340000000001
#
# number of rings (size 3 to 8) (size 9 to 14) (size 15 to 20)
#    0.000    0.727    2.727    6.545    2.545    2.182 
#    0.000    0.909    0.000    0.000    0.000    0.000 
#    0.000    0.000    0.000    0.000    0.000    0.000 
#
# Total GULP energy -123055.910262 kJ/mol
# GULP energy per Si atom -5593.450466 kJ/mol
# Density = 2.489954 g / cm^3
# Si number density = 24.956340 Si / 1000 Ang^3
#
#
#
# Elastic Constant Matrix: (Units=GPa)
#
#
# Indices 1 2 3 4 5 6 
#
# 1 161.6742 75.1056 51.2268 0.0002 19.5295 0.0003
# 2 75.1056 146.1667 17.1196 0.0001 12.6705 0.0001
# 3 51.2268 17.1196 58.5371 0.0001 25.3611 0.0001
# 4 0.0002 0.0001 0.0001 780.4509 -0.0001 826.5632
# 5 19.5295 12.6705 25.3611 -0.0001 36.7796 -0.0001
# 6 0.0003 0.0001 0.0001 826.5632 -0.0001 958.9373
#
#
#
# Elastic Compliance Matrix: (Units=1/GPa)
#
#
# Indices 1 2 3 4 5 6 
#
# 1 0.011074 -0.004796 -0.009208 0.000000 0.002121 0.000000
# 2 -0.004796 0.009215 0.002530 0.000000 -0.002372 0.000000
# 3 -0.009208 0.002530 0.032314 0.000000 -0.018264 0.000000
# 4 0.000000 0.000000 0.000000 0.014708 0.000000 -0.012678
# 5 0.002121 -0.002372 -0.018264 0.000000 0.039474 0.000000
# 6 0.000000 0.000000 0.000000 -0.012678 0.000000 0.011971
#
#
# Mechanical properties :
#
#
# Convention : Reuss Voigt Hill
#
# Bulk Modulus (GPa) = 33.71989 72.58690 53.15339
# Shear Modulus (GPa) = 32.98365 370.09528 201.53947
#
# Velocity S-wave (km/s) = 3.63940 12.19094 8.99623
# Velocity P-wave (km/s) = 5.58580 15.07672 11.36901
#
# Compressibility (1/GPa) = 0.02965609
#
# Stress axis : x y z
#
# Youngs Moduli (GPa) = 90.29755 108.51701 30.94614
#
# Poissons Ratio (x) = 0.52043 0.28494
# Poissons Ratio (y) = 0.43305 -0.07829
# Poissons Ratio (z) = 0.83144 -0.27452
#
# Static dielectric constant tensor:
#      x y z
#    x 1.919920 0.000000 -0.070370 
#    y 0.000000 2.081830 0.000000 
#    z -0.070370 0.000000 2.035790 
# 
# From -- ./inp_files/48907.got.cif
#   From: 2010.05.17/outbox.cif.g08.bks.cpg/sg15_25_cif.got.tgz:48907.got - 2010.06.03 18:47:42.
