data_PCOD9259889
_publ_section_title
;
Structure prediction by ZEFSAII (Michael W. Deem and Ramdas Pophale) SiO2 
 PCOD9259889
Probable space group: C 2/C
;
_chemical_formula_sum "Si O2"
_cell_formula_units_Z 60
_cell_length_a 14.691028
_cell_length_b 11.624153
_cell_length_c 17.083880
_cell_angle_alpha 90.000000
_cell_angle_beta 112.707158
_cell_angle_gamma 90.000000
_cell_volume 2691.296970
_symmetry_space_group_name_H-M "C 2/C"
_symmetry_group_IT_number 15
_symmetry_cell_setting 'monoclinic'
loop_
_space_group_symop_operation_xyz
x,y,z
-x,y,1/2-z
-x,-y,-z
x,-y,1/2+z
1/2+x,1/2+y,z
1/2-x,1/2+y,1/2-z
1/2-x,1/2-y,-z
1/2+x,1/2-y,1/2+z
loop_
_atom_site_type_symbol
_atom_site_label
_atom_site_fract_x
_atom_site_fract_y
_atom_site_fract_z
Si Si1 0.938890 0.385250 0.992657
Si Si2 0.963984 0.892909 0.335333
Si Si3 0.462805 0.342722 0.966512
Si Si4 0.607654 0.138949 0.195735
Si Si5 0.791657 0.979974 0.844713
Si Si6 0.074397 0.900439 0.843337
Si Si7 0.500000 0.958929 0.250000
Si Si8 0.327704 0.171570 0.615672
O O1 0.879281 0.361479 0.892980
O O2 0.866767 0.366802 0.042897
O O3 0.000000 0.500000 0.000000
O O4 0.026860 0.293123 0.031110
O O5 0.930671 0.766720 0.295982
O O6 0.990737 0.880286 0.436305
O O7 0.866940 0.974430 0.303257
O O8 0.060977 0.959739 0.333830
O O9 0.354692 0.393323 0.918688
O O10 0.527370 0.379222 0.913172
O O11 0.701085 0.089832 0.275363
O O12 0.522714 0.045754 0.186933
O O13 0.763354 0.093252 0.886486
O O14 0.165476 0.810289 0.873422
O O15 0.000000 0.860909 0.750000
O O16 0.590819 0.878400 0.298000
#
# Coordination Sequence:
#
# PCOD9259889 Si02
#       8
#     8   8   8   8   8   8   4   8
#     4  10  19  37  62  86 115 158 204 245 298 372
#     4  10  22  42  60  84 124 167 197 240 315 370
#     4   9  21  41  60  80 124 170 195 240 321 365
#     4  10  22  36  61  87 118 157 195 247 303 351
#     4  10  21  38  60  87 123 159 200 255 301 360
#     4  10  19  33  59  91 112 153 206 246 289 362
#     4  10  18  36  58  84 122 154 190 246 304 360
#     4  10  20  35  60  91 115 154 205 249 298 349
#
# _framework density 22.294084000000002
#
# number of rings (size 3 to 8) (size 9 to 14) (size 15 to 20)
#    0.000    2.133    2.000    1.600    0.933    3.200 
#    0.000   16.667    0.000    0.000    0.000    0.000 
#    0.000    0.000    0.000    0.000    0.000    0.000 
#
# Total GULP energy -167131.163541 kJ/mol
# GULP energy per Si atom -5571.038785 kJ/mol
# Density = 2.224334 g / cm^3
# Si number density = 22.294084 Si / 1000 Ang^3
#
#
#
# Elastic Constant Matrix: (Units=GPa)
#
#
# Indices 1 2 3 4 5 6 
#
# 1 93.8908 55.7530 30.6592 0.0000 -0.8958 0.0000
# 2 55.7530 174.4515 23.6011 0.0000 6.9185 0.0000
# 3 30.6592 23.6011 71.7674 0.0000 -7.7032 0.0000
# 4 0.0000 0.0000 0.0000 25.3719 0.0000 1.9836
# 5 -0.8958 6.9185 -7.7032 0.0000 34.9407 0.0000
# 6 0.0000 0.0000 0.0000 1.9836 0.0000 17.1824
#
#
#
# Elastic Compliance Matrix: (Units=1/GPa)
#
#
# Indices 1 2 3 4 5 6 
#
# 1 0.014646 -0.004018 -0.004926 0.000000 0.000085 0.000000
# 2 -0.004018 0.007197 -0.000834 0.000000 -0.001712 0.000000
# 3 -0.004926 -0.000834 0.016712 0.000000 0.003723 0.000000
# 4 0.000000 0.000000 0.000000 0.039773 0.000000 -0.004592
# 5 0.000085 -0.001712 0.003723 0.000000 0.029782 0.000000
# 6 0.000000 0.000000 0.000000 -0.004592 0.000000 0.058729
#
#
# Mechanical properties :
#
#
# Convention : Reuss Voigt Hill
#
# Bulk Modulus (GPa) = 52.63465 62.23738 57.43602
# Shear Modulus (GPa) = 25.94323 30.83874 28.39099
#
# Velocity S-wave (km/s) = 3.41498 3.72327 3.57245
# Velocity P-wave (km/s) = 6.26178 6.81622 6.54487
#
# Compressibility (1/GPa) = 0.01899889
#
# Stress axis : x y z
#
# Youngs Moduli (GPa) = 68.27895 138.94734 59.83552
#
# Poissons Ratio (x) = 0.55823 0.29478
# Poissons Ratio (y) = 0.27431 0.04992
# Poissons Ratio (z) = 0.33637 0.11591
#
# Static dielectric constant tensor:
#      x y z
#    x 1.861530 0.000000 -0.043500 
#    y 0.000000 1.893640 0.000000 
#    z -0.043500 0.000000 1.876710 
# 
# From -- ./inp_files/204501.got.cif
#   From: 2010.05.17/outbox.cif.g08.bks.cpg/sg15_103_cif.got.tgz:204501.got - 2010.06.03 18:47:42.
