data_PCOD9259188
_publ_section_title
;
Structure prediction by ZEFSAII (Michael W. Deem and Ramdas Pophale) SiO2 
 PCOD9259188
Probable space group: C 2/C
;
_chemical_formula_sum "Si O2"
_cell_formula_units_Z 56
_cell_length_a 18.863549
_cell_length_b 12.155556
_cell_length_c 14.899778
_cell_angle_alpha 90.000000
_cell_angle_beta 70.683770
_cell_angle_gamma 90.000000
_cell_volume 3224.150756
_symmetry_space_group_name_H-M "C 2/C"
_symmetry_group_IT_number 15
_symmetry_cell_setting 'monoclinic'
loop_
_space_group_symop_operation_xyz
x,y,z
-x,y,1/2-z
-x,-y,-z
x,-y,1/2+z
1/2+x,1/2+y,z
1/2-x,1/2+y,1/2-z
1/2-x,1/2-y,-z
1/2+x,1/2-y,1/2+z
loop_
_atom_site_type_symbol
_atom_site_label
_atom_site_fract_x
_atom_site_fract_y
_atom_site_fract_z
Si Si1 0.992687 0.706402 0.149096
Si Si2 0.037651 0.292924 0.330135
Si Si3 0.699985 0.299074 0.439322
Si Si4 0.973118 0.126541 0.498693
Si Si5 0.674803 0.920805 0.211201
Si Si6 0.575871 0.010194 0.581434
Si Si7 0.650159 0.911043 0.865618
O O1 0.054717 0.617657 0.092539
O O2 0.000000 0.735108 0.250000
O O3 0.987224 0.810303 0.086583
O O4 0.918275 0.634603 0.164695
O O5 0.123960 0.323491 0.275320
O O6 0.000000 0.267294 0.250000
O O7 0.021368 0.194020 0.404855
O O8 0.994865 0.404213 0.383817
O O9 0.750000 0.250000 0.500000
O O10 0.615083 0.345908 0.490857
O O11 0.749151 0.388733 0.368943
O O12 0.694794 0.195922 0.375196
O O13 0.000000 0.000000 0.500000
O O14 0.622474 0.966123 0.152293
O O15 0.690629 0.002775 0.285837
O O16 0.619086 0.039320 0.472004
#
# Coordination Sequence:
#
# PCOD9259188 Si02
#       7
#     8   8   8   8   8   8   8
#     4  11  19  34  61  92 120 146 202 262 312 356
#     4  10  18  34  61  92 114 152 210 259 298 369
#     4  11  22  42  61  84 124 171 208 254 313 374
#     4  11  25  41  60  86 127 173 209 248 310 391
#     4  11  21  33  61  95 120 150 207 261 312 359
#     4  11  17  34  63  94 118 144 200 266 315 357
#     4  11  20  34  59  88 121 158 196 256 308 363
#
# _framework density 17.368915999999999
#
# number of rings (size 3 to 8) (size 9 to 14) (size 15 to 20)
#    0.000    1.143    7.143    2.571    0.000    1.714 
#    0.000    2.857    0.000    1.714    0.000    0.000 
#    0.000    0.000    0.000    0.000    0.000    0.000 
#
# Total GULP energy -156055.649902 kJ/mol
# GULP energy per Si atom -5573.416068 kJ/mol
# Density = 1.732938 g / cm^3
# Si number density = 17.368916 Si / 1000 Ang^3
#
#
#
# Elastic Constant Matrix: (Units=GPa)
#
#
# Indices 1 2 3 4 5 6 
#
# 1 56.5794 28.0175 12.2121 0.0000 2.6214 0.0000
# 2 28.0175 101.7586 34.8280 0.0000 5.2207 0.0000
# 3 12.2121 34.8280 77.0903 0.0000 13.2952 0.0000
# 4 0.0000 0.0000 0.0000 31.0183 0.0000 -0.2971
# 5 2.6214 5.2207 13.2952 0.0000 23.8233 0.0000
# 6 0.0000 0.0000 0.0000 -0.2971 0.0000 7.4847
#
#
#
# Elastic Compliance Matrix: (Units=1/GPa)
#
#
# Indices 1 2 3 4 5 6 
#
# 1 0.020519 -0.005373 -0.000704 0.000000 -0.000687 0.000000
# 2 -0.005373 0.013036 -0.005142 0.000000 0.000604 0.000000
# 3 -0.000704 -0.005142 0.016818 0.000000 -0.008181 0.000000
# 4 0.000000 0.000000 0.000000 0.032251 0.000000 0.001280
# 5 -0.000687 0.000604 -0.008181 0.000000 0.046485 0.000000
# 6 0.000000 0.000000 0.000000 0.001280 0.000000 0.133657
#
#
# Mechanical properties :
#
#
# Convention : Reuss Voigt Hill
#
# Bulk Modulus (GPa) = 35.80099 42.83816 39.31958
# Shear Modulus (GPa) = 16.97704 23.15664 20.06684
#
# Velocity S-wave (km/s) = 3.12979 3.65529 3.40270
# Velocity P-wave (km/s) = 5.80669 6.52167 6.17454
#
# Compressibility (1/GPa) = 0.02793219
#
# Stress axis : x y z
#
# Youngs Moduli (GPa) = 48.73562 76.71308 59.46185
#
# Poissons Ratio (x) = 0.41219 0.04189
# Poissons Ratio (y) = 0.26186 0.30577
# Poissons Ratio (z) = 0.03433 0.39448
#
# Static dielectric constant tensor:
#      x y z
#    x 1.629070 0.000000 -0.000630 
#    y 0.000000 1.613740 0.000000 
#    z -0.000630 0.000000 1.590910 
# 
# From -- ./inp_files/160818.got.cif
#   From: 2010.05.17/outbox.cif.g08.bks.cpg/sg15_81_cif.got.tgz:160818.got - 2010.06.03 18:47:42.
