data_PCOD9259110
_publ_section_title
;
Structure prediction by ZEFSAII (Michael W. Deem and Ramdas Pophale) SiO2 
 PCOD9259110
Probable space group: C 2/C
;
_chemical_formula_sum "Si O2"
_cell_formula_units_Z 40
_cell_length_a 17.290252
_cell_length_b 7.570455
_cell_length_c 13.615249
_cell_angle_alpha 90.000000
_cell_angle_beta 89.670944
_cell_angle_gamma 90.000000
_cell_volume 1782.139644
_symmetry_space_group_name_H-M "C 2/C"
_symmetry_group_IT_number 15
_symmetry_cell_setting 'monoclinic'
loop_
_space_group_symop_operation_xyz
x,y,z
-x,y,1/2-z
-x,-y,-z
x,-y,1/2+z
1/2+x,1/2+y,z
1/2-x,1/2+y,1/2-z
1/2-x,1/2-y,-z
1/2+x,1/2-y,1/2+z
loop_
_atom_site_type_symbol
_atom_site_label
_atom_site_fract_x
_atom_site_fract_y
_atom_site_fract_z
Si Si1 0.247575 0.565461 0.607392
Si Si2 0.861456 0.091001 0.950731
Si Si3 0.834741 0.272705 0.764785
Si Si4 0.470581 0.124947 0.379455
Si Si5 0.911100 0.711907 0.968509
O O1 0.300485 0.445668 0.536449
O O2 0.208416 0.441294 0.689729
O O3 0.300348 0.705898 0.664054
O O4 0.178067 0.656910 0.548133
O O5 0.821553 0.116867 0.845463
O O6 0.912371 0.269036 0.956825
O O7 0.915646 0.919042 0.946588
O O8 0.926249 0.315913 0.780162
O O9 0.552598 0.173990 0.425220
O O10 0.457612 0.916998 0.394653
#
# Coordination Sequence:
#
# PCOD9259110 Si02
#       5
#     8   8   8   8   8
#     4  11  20  36  58  89 112 154 194 243 282 345
#     4  10  20  36  60  83 111 155 194 234 288 346
#     4   9  21  35  55  83 119 143 193 240 285 336
#     4   8  20  36  56  84 114 153 186 240 289 347
#     4  10  18  34  60  83 112 151 192 231 300 339
#
# _framework density 22.444929999999999
#
# number of rings (size 3 to 8) (size 9 to 14) (size 15 to 20)
#    1.200    1.200    0.000    3.000    0.000    0.000 
#    0.000    1.000    0.000    2.400    0.000    0.000 
#    0.000    0.000    0.000    0.000    0.000    0.000 
#
# Total GULP energy -111423.142971 kJ/mol
# GULP energy per Si atom -5571.157149 kJ/mol
# Density = 2.239384 g / cm^3
# Si number density = 22.444930 Si / 1000 Ang^3
#
#
#
# Elastic Constant Matrix: (Units=GPa)
#
#
# Indices 1 2 3 4 5 6 
#
# 1 113.1949 13.3595 49.9097 0.0000 42.2433 0.0000
# 2 13.3595 60.7574 6.6020 0.0000 12.5238 0.0000
# 3 49.9097 6.6020 133.0266 0.0000 51.3545 0.0000
# 4 0.0000 0.0000 0.0000 -7.1647 0.0000 52.9355
# 5 42.2433 12.5238 51.3545 0.0000 36.7304 0.0000
# 6 0.0000 0.0000 0.0000 52.9355 0.0000 -6.7779
#
#
#
# Elastic Compliance Matrix: (Units=1/GPa)
#
#
# Indices 1 2 3 4 5 6 
#
# 1 0.015845 0.000777 0.002507 0.000000 -0.021993 0.000000
# 2 0.000777 0.018372 0.003389 0.000000 -0.011897 0.000000
# 3 0.002507 0.003389 0.017312 0.000000 -0.028243 0.000000
# 4 0.000000 0.000000 0.000000 0.002461 0.000000 0.019224
# 5 -0.021993 -0.011897 -0.028243 0.000000 0.096064 0.000000
# 6 0.000000 0.000000 0.000000 0.019224 0.000000 0.002602
#
#
# Mechanical properties :
#
#
# Convention : Reuss Voigt Hill
#
# Bulk Modulus (GPa) = 15.41414 49.63571 32.52492
# Shear Modulus (GPa) = 31.06851 20.36472 25.71662
#
# Velocity S-wave (km/s) = 3.72453 3.01544 3.38859
# Velocity P-wave (km/s) = 5.03772 5.85545 5.46191
#
# Compressibility (1/GPa) = 0.06487550
#
# Stress axis : x y z
#
# Youngs Moduli (GPa) = 63.11177 54.43068 57.76446
#
# Poissons Ratio (x) = -0.04229 -0.14482
# Poissons Ratio (y) = -0.04904 -0.19578
# Poissons Ratio (z) = -0.15823 -0.18449
#
# Static dielectric constant tensor:
#      x y z
#    x 1.900690 0.000000 -0.031680 
#    y 0.000000 1.809620 0.000000 
#    z -0.031680 0.000000 1.866260 
# 
# From -- ./inp_files/159113.got.cif
#   From: 2010.05.17/outbox.cif.g08.bks.cpg/sg15_80_cif.got.tgz:159113.got - 2010.06.03 18:47:42.
