data_PCOD9259069
_publ_section_title
;
Structure prediction by ZEFSAII (Michael W. Deem and Ramdas Pophale) SiO2 
 PCOD9259069
Probable space group: C 2/C
;
_chemical_formula_sum "Si O2"
_cell_formula_units_Z 40
_cell_length_a 14.044651
_cell_length_b 7.591289
_cell_length_c 15.543093
_cell_angle_alpha 90.000000
_cell_angle_beta 78.125876
_cell_angle_gamma 90.000000
_cell_volume 1621.698170
_symmetry_space_group_name_H-M "C 2/C"
_symmetry_group_IT_number 15
_symmetry_cell_setting 'monoclinic'
loop_
_space_group_symop_operation_xyz
x,y,z
-x,y,1/2-z
-x,-y,-z
x,-y,1/2+z
1/2+x,1/2+y,z
1/2-x,1/2+y,1/2-z
1/2-x,1/2-y,-z
1/2+x,1/2-y,1/2+z
loop_
_atom_site_type_symbol
_atom_site_label
_atom_site_fract_x
_atom_site_fract_y
_atom_site_fract_z
Si Si1 0.386047 0.496068 0.270665
Si Si2 0.873769 0.855554 0.091626
Si Si3 0.783199 0.488721 0.588696
Si Si4 0.075902 0.624492 0.802085
Si Si5 0.426729 0.266474 0.515870
O O1 0.500000 0.454698 0.250000
O O2 0.346127 0.400970 0.193783
O O3 0.325325 0.455413 0.367064
O O4 0.380997 0.706346 0.255316
O O5 0.802406 0.713071 0.065228
O O6 0.881575 0.041626 0.041121
O O7 0.982976 0.774975 0.064559
O O8 0.840396 0.508849 0.670772
O O9 0.843297 0.621347 0.517019
O O10 0.028685 0.707969 0.898276
O O11 0.000000 0.539859 0.750000
#
# Coordination Sequence:
#
# PCOD9259069 Si02
#       5
#     8   8   8   8   8
#     4  10  20  35  53  79 113 148 184 232 272 317
#     4  10  18  34  59  81 110 147 178 231 279 322
#     4  10  19  33  59  79 106 147 190 216 276 333
#     4   8  17  33  54  78 110 138 180 229 269 332
#     4   8  19  34  56  85 112 142 180 227 283 326
#
# _framework density 24.665503000000001
#
# number of rings (size 3 to 8) (size 9 to 14) (size 15 to 20)
#    1.200    1.600    0.000    1.800    0.000    0.800 
#    0.000    1.000    0.000   32.400    0.000    0.000 
#    0.000    0.000    0.000    0.000    0.000    0.000 
#
# Total GULP energy -111656.674127 kJ/mol
# GULP energy per Si atom -5582.833706 kJ/mol
# Density = 2.460936 g / cm^3
# Si number density = 24.665503 Si / 1000 Ang^3
#
#
#
# Elastic Constant Matrix: (Units=GPa)
#
#
# Indices 1 2 3 4 5 6 
#
# 1 88.2549 32.6983 34.6638 0.0000 2.6016 0.0000
# 2 32.6983 67.7024 11.3045 0.0000 -4.8847 0.0000
# 3 34.6638 11.3045 72.6571 0.0000 -17.8115 0.0000
# 4 0.0000 0.0000 0.0000 14.2569 0.0000 -8.6115
# 5 2.6016 -4.8847 -17.8115 0.0000 45.0565 0.0000
# 6 0.0000 0.0000 0.0000 -8.6115 0.0000 1.6825
#
#
#
# Elastic Compliance Matrix: (Units=1/GPa)
#
#
# Indices 1 2 3 4 5 6 
#
# 1 0.017580 -0.007446 -0.008499 0.000000 -0.005182 0.000000
# 2 -0.007446 0.018343 0.001430 0.000000 0.002984 0.000000
# 3 -0.008499 0.001430 0.019659 0.000000 0.008417 0.000000
# 4 0.000000 0.000000 0.000000 -0.033536 0.000000 -0.171644
# 5 -0.005182 0.002984 0.008417 0.000000 0.026145 0.000000
# 6 0.000000 0.000000 0.000000 -0.171644 0.000000 -0.284168
#
#
# Mechanical properties :
#
#
# Convention : Reuss Voigt Hill
#
# Bulk Modulus (GPa) = 37.66155 42.88306 40.27230
# Shear Modulus (GPa) = -25.24044 22.19568 -1.52238
#
# Velocity S-wave (km/s) = -3.20239 3.00303 -0.78648
# Velocity P-wave (km/s) = 1.27606 5.42659 3.94184
#
# Compressibility (1/GPa) = 0.02655228
#
# Stress axis : x y z
#
# Youngs Moduli (GPa) = 56.88126 54.51640 50.86654
#
# Poissons Ratio (x) = 0.40591 0.43234
# Poissons Ratio (y) = 0.42352 -0.07272
# Poissons Ratio (z) = 0.48346 -0.07794
#
# Static dielectric constant tensor:
#      x y z
#    x 2.020690 0.000000 0.011930 
#    y 0.000000 1.967400 0.000000 
#    z 0.011930 0.000000 1.898070 
# 
# From -- ./inp_files/241739.got.cif
#   From: 2010.05.17/outbox.cif.g08.bks.cpg/sg15_121_cif.got.tgz:241739.got - 2010.06.03 18:47:42.
