data_PCOD9259453
_publ_section_title
;
Structure prediction by ZEFSAII (Michael W. Deem and Ramdas Pophale) SiO2 
 PCOD9259453
Probable space group: C 2/C
;
_chemical_formula_sum "Si O2"
_cell_formula_units_Z 48
_cell_length_a 9.383201
_cell_length_b 15.840537
_cell_length_c 18.472014
_cell_angle_alpha 90.000000
_cell_angle_beta 118.624249
_cell_angle_gamma 90.000000
_cell_volume 2410.021960
_symmetry_space_group_name_H-M "C 2/C"
_symmetry_group_IT_number 15
_symmetry_cell_setting 'monoclinic'
loop_
_space_group_symop_operation_xyz
x,y,z
-x,y,1/2-z
-x,-y,-z
x,-y,1/2+z
1/2+x,1/2+y,z
1/2-x,1/2+y,1/2-z
1/2-x,1/2-y,-z
1/2+x,1/2-y,1/2+z
loop_
_atom_site_type_symbol
_atom_site_label
_atom_site_fract_x
_atom_site_fract_y
_atom_site_fract_z
Si Si1 0.082357 0.883516 0.884186
Si Si2 0.056192 0.959285 0.089992
Si Si3 0.310553 0.130859 0.576314
Si Si4 0.879225 0.215834 0.589007
Si Si5 0.279716 0.774947 0.841668
Si Si6 0.635060 0.219103 0.658864
O O1 0.175632 0.857631 0.833790
O O2 0.958811 0.808223 0.876525
O O3 0.984248 0.970369 0.860938
O O4 0.223115 0.889143 0.979677
O O5 0.957042 0.873814 0.083760
O O6 0.242567 0.934679 0.119248
O O7 0.000000 0.000000 0.000000
O O8 0.241104 0.219585 0.590529
O O9 0.501203 0.146134 0.616413
O O10 0.750000 0.250000 0.500000
O O11 0.784378 0.208715 0.641200
O O12 0.030959 0.280279 0.628951
O O13 0.196243 0.725181 0.755846
#
# Coordination Sequence:
#
# PCOD9259453 Si02
#       6
#     8   8   8   8   8   8
#     4  10  18  35  58  80 107 147 183 221 280 338
#     4   9  19  35  56  83 111 141 184 234 281 333
#     4   9  17  33  56  78 104 143 185 219 262 333
#     4  11  21  37  59  80 107 147 192 237 275 329
#     4  10  20  34  54  81 111 145 186 227 273 336
#     4  11  20  34  56  82 108 143 187 232 274 327
#
# _framework density 19.916830000000001
#
# number of rings (size 3 to 8) (size 9 to 14) (size 15 to 20)
#    0.000    2.000    0.000    8.500    0.000    0.000 
#    0.000   15.833    0.000   10.000    0.000    0.000 
#    0.000    0.000    0.000    0.000    0.000    0.000 
#
# Total GULP energy -133811.379876 kJ/mol
# GULP energy per Si atom -5575.474162 kJ/mol
# Density = 1.987150 g / cm^3
# Si number density = 19.916830 Si / 1000 Ang^3
#
#
#
# Elastic Constant Matrix: (Units=GPa)
#
#
# Indices 1 2 3 4 5 6 
#
# 1 153.0909 35.1725 8.2062 0.0000 -8.3321 0.0000
# 2 35.1725 72.1319 -5.3306 0.0000 -7.9192 0.0000
# 3 8.2062 -5.3306 48.7302 0.0000 -1.5501 0.0000
# 4 0.0000 0.0000 0.0000 9.7337 0.0000 -7.6650
# 5 -8.3321 -7.9192 -1.5501 0.0000 28.2648 0.0000
# 6 0.0000 0.0000 0.0000 -7.6650 0.0000 35.4977
#
#
#
# Elastic Compliance Matrix: (Units=1/GPa)
#
#
# Indices 1 2 3 4 5 6 
#
# 1 0.007522 -0.003668 -0.001633 0.000000 0.001100 0.000000
# 2 -0.003668 0.016233 0.002508 0.000000 0.003604 0.000000
# 3 -0.001633 0.002508 0.021114 0.000000 0.001379 0.000000
# 4 0.000000 0.000000 0.000000 0.123783 0.000000 0.026728
# 5 0.001100 0.003604 0.001379 0.000000 0.036790 0.000000
# 6 0.000000 0.000000 0.000000 0.026728 0.000000 0.033942
#
#
# Mechanical properties :
#
#
# Convention : Reuss Voigt Hill
#
# Bulk Modulus (GPa) = 25.45557 38.89436 32.17496
# Shear Modulus (GPa) = 19.37501 30.42624 24.90062
#
# Velocity S-wave (km/s) = 3.12235 3.91278 3.53970
# Velocity P-wave (km/s) = 5.08010 6.32328 5.73547
#
# Compressibility (1/GPa) = 0.03928413
#
# Stress axis : x y z
#
# Youngs Moduli (GPa) = 132.94064 61.60282 47.36114
#
# Poissons Ratio (x) = 0.22595 0.07734
# Poissons Ratio (y) = 0.48760 -0.11878
# Poissons Ratio (z) = 0.21709 -0.15450
#
# Static dielectric constant tensor:
#      x y z
#    x 1.732470 0.000000 -0.009850 
#    y 0.000000 1.748580 0.000000 
#    z -0.009850 0.000000 1.719340 
# 
# From -- ./inp_files/190634.got.cif
#   From: 2010.05.17/outbox.cif.g08.bks.cpg/sg15_96_cif.got.tgz:190634.got - 2010.06.03 18:47:42.
