data_PCOD9259934
_publ_section_title
;
Structure prediction by ZEFSAII (Michael W. Deem and Ramdas Pophale) SiO2 
 PCOD9259934
Probable space group: C 2/C
;
_chemical_formula_sum "Si O2"
_cell_formula_units_Z 64
_cell_length_a 15.219876
_cell_length_b 9.015455
_cell_length_c 23.255682
_cell_angle_alpha 90.000000
_cell_angle_beta 95.387829
_cell_angle_gamma 90.000000
_cell_volume 3176.909557
_symmetry_space_group_name_H-M "C 2/C"
_symmetry_group_IT_number 15
_symmetry_cell_setting 'monoclinic'
loop_
_space_group_symop_operation_xyz
x,y,z
-x,y,1/2-z
-x,-y,-z
x,-y,1/2+z
1/2+x,1/2+y,z
1/2-x,1/2+y,1/2-z
1/2-x,1/2-y,-z
1/2+x,1/2-y,1/2+z
loop_
_atom_site_type_symbol
_atom_site_label
_atom_site_fract_x
_atom_site_fract_y
_atom_site_fract_z
Si Si1 0.815775 0.812229 0.376360
Si Si2 0.762506 0.742488 0.112114
Si Si3 0.077032 0.639393 0.027523
Si Si4 0.855616 0.075757 0.302124
Si Si5 0.980403 0.231307 0.149799
Si Si6 0.914349 0.694301 0.952616
Si Si7 0.194919 0.054750 0.330805
Si Si8 0.634678 0.034449 0.903772
O O1 0.868787 0.760153 0.435176
O O2 0.777046 0.666870 0.342917
O O3 0.869429 0.924485 0.339148
O O4 0.728257 0.896770 0.391506
O O5 0.714800 0.670364 0.165181
O O6 0.685999 0.751680 0.058296
O O7 0.844045 0.639225 0.099088
O O8 0.788726 0.906523 0.132460
O O9 0.083351 0.482596 0.061271
O O10 0.113157 0.596164 0.966235
O O11 0.977237 0.696029 0.011947
O O12 0.820129 0.031611 0.237729
O O13 0.943182 0.177549 0.302489
O O14 0.894247 0.130974 0.150933
O O15 0.939475 0.397673 0.143569
O O16 0.031870 0.216264 0.092414
#
# Coordination Sequence:
#
# PCOD9259934 Si02
#       8
#     8   8   8   8   8   8   8   8
#     4  10  20  36  58  90 112 151 196 241 286 347
#     4  10  20  38  58  90 115 149 199 239 287 357
#     4  10  18  36  59  83 120 157 193 232 291 351
#     4  10  21  38  60  81 115 149 193 246 292 348
#     4   9  20  39  57  79 115 152 189 238 291 342
#     4   9  19  36  57  82 115 154 188 230 290 341
#     4  11  20  37  61  84 114 150 192 243 298 336
#     4   9  20  36  59  84 119 152 190 238 291 351
#
# _framework density 20.145365000000002
#
# number of rings (size 3 to 8) (size 9 to 14) (size 15 to 20)
#    0.000    2.250    1.250    1.500    0.000    0.500 
#    6.750   11.250    0.000    0.000    0.000    0.000 
#    0.000    0.000    0.000    0.000    0.000    0.000 
#
# Total GULP energy -178285.450530 kJ/mol
# GULP energy per Si atom -5571.420329 kJ/mol
# Density = 2.009951 g / cm^3
# Si number density = 20.145365 Si / 1000 Ang^3
#
#
#
# Elastic Constant Matrix: (Units=GPa)
#
#
# Indices 1 2 3 4 5 6 
#
# 1 73.1847 17.6374 25.6667 0.0000 3.0637 0.0000
# 2 17.6374 76.3440 20.5520 0.0000 -0.4722 0.0000
# 3 25.6667 20.5520 60.8151 0.0000 4.5257 0.0000
# 4 0.0000 0.0000 0.0000 16.6255 0.0000 -2.5690
# 5 3.0637 -0.4722 4.5257 0.0000 27.0032 0.0000
# 6 0.0000 0.0000 0.0000 -2.5690 0.0000 17.8898
#
#
#
# Elastic Compliance Matrix: (Units=1/GPa)
#
#
# Indices 1 2 3 4 5 6 
#
# 1 0.016361 -0.002138 -0.006118 0.000000 -0.000868 0.000000
# 2 -0.002138 0.014720 -0.004161 0.000000 0.001197 0.000000
# 3 -0.006118 -0.004161 0.020643 0.000000 -0.002838 0.000000
# 4 0.000000 0.000000 0.000000 0.061514 0.000000 0.008833
# 5 -0.000868 0.001197 -0.002838 0.000000 0.037628 0.000000
# 6 0.000000 0.000000 0.000000 0.008833 0.000000 0.057166
#
#
# Mechanical properties :
#
#
# Convention : Reuss Voigt Hill
#
# Bulk Modulus (GPa) = 37.18940 37.56177 37.37558
# Shear Modulus (GPa) = 20.67567 22.06956 21.37262
#
# Velocity S-wave (km/s) = 3.20710 3.31345 3.26071
# Velocity P-wave (km/s) = 5.67579 5.77273 5.72447
#
# Compressibility (1/GPa) = 0.02688939
#
# Stress axis : x y z
#
# Youngs Moduli (GPa) = 61.11949 67.93374 48.44293
#
# Poissons Ratio (x) = 0.14526 0.29637
# Poissons Ratio (y) = 0.13069 0.20158
# Poissons Ratio (z) = 0.37393 0.28269
#
# Static dielectric constant tensor:
#      x y z
#    x 1.736700 0.000000 0.003670 
#    y 0.000000 1.743320 0.000000 
#    z 0.003670 0.000000 1.722490 
# 
# From -- ./inp_files/295222.got.cif
#   From: 2010.05.17/outbox.cif.g08.bks.cpg/sg15_148_cif.got.tgz:295222.got - 2010.06.03 18:47:42.
