data_PCOD9259876
_publ_section_title
;
Structure prediction by ZEFSAII (Michael W. Deem and Ramdas Pophale) SiO2 
 PCOD9259876
Probable space group: C 2/C
;
_chemical_formula_sum "Si O2"
_cell_formula_units_Z 56
_cell_length_a 22.151315
_cell_length_b 13.677816
_cell_length_c 22.568363
_cell_angle_alpha 90.000000
_cell_angle_beta 21.909970
_cell_angle_gamma 90.000000
_cell_volume 2551.519416
_symmetry_space_group_name_H-M "C 2/C"
_symmetry_group_IT_number 15
_symmetry_cell_setting 'monoclinic'
loop_
_space_group_symop_operation_xyz
x,y,z
-x,y,1/2-z
-x,-y,-z
x,-y,1/2+z
1/2+x,1/2+y,z
1/2-x,1/2+y,1/2-z
1/2-x,1/2-y,-z
1/2+x,1/2-y,1/2+z
loop_
_atom_site_type_symbol
_atom_site_label
_atom_site_fract_x
_atom_site_fract_y
_atom_site_fract_z
Si Si1 0.368672 0.199505 0.707040
Si Si2 0.375816 0.682252 0.466794
Si Si3 0.925104 0.799484 0.434284
Si Si4 0.568054 0.990039 0.040193
Si Si5 0.329264 0.110919 0.942644
Si Si6 0.255885 0.155907 0.682729
Si Si7 0.594830 0.878956 0.720404
O O1 0.452754 0.296737 0.657585
O O2 0.246789 0.164510 0.868292
O O3 0.279122 0.202521 0.726131
O O4 0.501585 0.113609 0.578768
O O5 0.335824 0.785571 0.471301
O O6 0.322663 0.607680 0.463677
O O7 0.836247 0.732043 0.563928
O O8 0.782843 0.863446 0.536324
O O9 0.069236 0.856160 0.335224
O O10 0.008301 0.724183 0.313468
O O11 0.429370 0.054902 0.198965
O O12 0.679260 0.966629 0.996323
O O13 0.653022 0.054026 0.912732
O O14 0.500000 0.112329 0.750000
O O15 0.500000 0.918420 0.750000
#
# Coordination Sequence:
#
# PCOD9259876 Si02
#       7
#     8   8   8   8   8   8   8
#     4  11  21  37  58  87 116 160 204 245 304 351
#     4  10  20  33  59  84 115 151 203 249 297 359
#     4   9  20  37  58  87 109 149 205 238 296 348
#     4  10  21  35  56  83 117 166 190 240 316 353
#     4  10  18  36  58  82 122 152 200 250 303 363
#     4  10  20  38  60  83 121 156 201 253 287 364
#     4  10  19  34  61  82 113 148 186 249 298 358
#
# _framework density 21.947706
#
# number of rings (size 3 to 8) (size 9 to 14) (size 15 to 20)
#    0.000    2.000    2.857    2.143    0.000    0.000 
#    0.000    3.571    9.429    0.000    0.000    0.000 
#    0.000    0.000    0.000    0.000    0.000    0.000 
#
# Total GULP energy -156155.575837 kJ/mol
# GULP energy per Si atom -5576.984851 kJ/mol
# Density = 2.189775 g / cm^3
# Si number density = 21.947706 Si / 1000 Ang^3
#
#
#
# Elastic Constant Matrix: (Units=GPa)
#
#
# Indices 1 2 3 4 5 6 
#
# 1 107.5506 1.7593 27.4120 -0.0105 -2.0495 0.0027
# 2 1.7593 36.7515 5.5521 -0.0142 -5.2913 0.0056
# 3 27.4120 5.5521 64.6556 -0.0213 -15.6707 0.0102
# 4 -0.0105 -0.0142 -0.0213 7.5858 0.0093 7.6940
# 5 -2.0495 -5.2913 -15.6707 0.0093 28.7249 -0.0028
# 6 0.0027 0.0056 0.0102 7.6940 -0.0028 21.5568
#
#
#
# Elastic Compliance Matrix: (Units=1/GPa)
#
#
# Indices 1 2 3 4 5 6 
#
# 1 0.010517 -0.000039 -0.004927 0.000004 -0.001945 -0.000001
# 2 -0.000039 0.028051 -0.001314 0.000077 0.004447 -0.000034
# 3 -0.004927 -0.001314 0.020195 0.000066 0.010423 -0.000031
# 4 0.000004 0.000077 0.000066 0.206624 -0.000024 -0.073748
# 5 -0.001945 0.004447 0.010423 -0.000024 0.041180 0.000008
# 6 -0.000001 -0.000034 -0.000031 -0.073748 0.000008 0.072711
#
#
# Mechanical properties :
#
#
# Convention : Reuss Voigt Hill
#
# Bulk Modulus (GPa) = 21.64418 30.93384 26.28901
# Shear Modulus (GPa) = 12.27780 23.18912 17.73346
#
# Velocity S-wave (km/s) = 2.36775 3.25401 2.84559
# Velocity P-wave (km/s) = 4.16631 5.31442 4.77499
#
# Compressibility (1/GPa) = 0.04620181
#
# Stress axis : x y z
#
# Youngs Moduli (GPa) = 95.08141 35.64993 49.51801
#
# Poissons Ratio (x) = 0.00139 0.24398
# Poissons Ratio (y) = 0.00372 0.06508
# Poissons Ratio (z) = 0.46847 0.04685
#
# Static dielectric constant tensor:
#      x y z
#    x 1.827530 0.000000 -0.047050 
#    y 0.000000 1.867680 0.000000 
#    z -0.047050 0.000000 1.810770 
# 
# From -- ./inp_files/282068.got.cif
#   From: 2010.05.17/outbox.cif.g08.bks.cpg/sg15_142_cif.got.tgz:282068.got - 2010.06.03 18:47:42.
