data_PCOD9259074
_publ_section_title
;
Structure prediction by ZEFSAII (Michael W. Deem and Ramdas Pophale) SiO2 
 PCOD9259074
Probable space group: C 2/C
;
_chemical_formula_sum "Si O2"
_cell_formula_units_Z 28
_cell_length_a 10.650474
_cell_length_b 9.699156
_cell_length_c 10.969376
_cell_angle_alpha 90.000000
_cell_angle_beta 64.997248
_cell_angle_gamma 90.000000
_cell_volume 1026.953520
_symmetry_space_group_name_H-M "C 2/C"
_symmetry_group_IT_number 15
_symmetry_cell_setting 'monoclinic'
loop_
_space_group_symop_operation_xyz
x,y,z
-x,y,1/2-z
-x,-y,-z
x,-y,1/2+z
1/2+x,1/2+y,z
1/2-x,1/2+y,1/2-z
1/2-x,1/2-y,-z
1/2+x,1/2-y,1/2+z
loop_
_atom_site_type_symbol
_atom_site_label
_atom_site_fract_x
_atom_site_fract_y
_atom_site_fract_z
Si Si1 0.500000 0.178287 0.250000
Si Si2 0.383918 0.210305 0.621993
Si Si3 0.335975 0.268806 0.094998
Si Si4 0.248757 0.950008 0.983460
O O1 0.420843 0.271401 0.186203
O O2 0.610126 0.077748 0.145694
O O3 0.548069 0.184963 0.533516
O O4 0.317089 0.254227 0.778850
O O5 0.294426 0.081571 0.603783
O O6 0.347035 0.333339 0.540948
O O7 0.315426 0.404205 0.022155
#
# Coordination Sequence:
#
# PCOD9259074 Si02
#       4
#     4   8   8   8
#     4   8  18  34  54  86 112 146 200 228 278 362
#     4   9  19  33  56  90 114 149 206 233 281 368
#     4  10  18  34  59  85 119 155 189 244 296 336
#     4   9  17  33  58  83 119 157 189 242 293 336
#
# _framework density 27.265105999999999
#
# number of rings (size 3 to 8) (size 9 to 14) (size 15 to 20)
#    0.000    2.857    0.000    2.571    0.000    0.000 
#    0.000   12.857    0.000   29.143    0.000    0.000 
#    0.000    0.000    0.000    0.000    0.000    0.000 
#
# Total GULP energy -78027.782413 kJ/mol
# GULP energy per Si atom -5573.413029 kJ/mol
# Density = 2.720305 g / cm^3
# Si number density = 27.265106 Si / 1000 Ang^3
#
#
#
# Elastic Constant Matrix: (Units=GPa)
#
#
# Indices 1 2 3 4 5 6 
#
# 1 125.0056 50.1218 70.9592 0.0000 20.0062 0.0000
# 2 50.1218 93.8493 55.9475 0.0000 -12.3647 0.0000
# 3 70.9592 55.9475 181.8054 0.0000 -28.3338 0.0000
# 4 0.0000 0.0000 0.0000 28.9984 0.0000 14.7279
# 5 20.0062 -12.3647 -28.3338 0.0000 57.7782 0.0000
# 6 0.0000 0.0000 0.0000 14.7279 0.0000 40.6523
#
#
#
# Elastic Compliance Matrix: (Units=1/GPa)
#
#
# Indices 1 2 3 4 5 6 
#
# 1 0.014899 -0.005931 -0.005405 0.000000 -0.009078 0.000000
# 2 -0.005931 0.015453 -0.001738 0.000000 0.004508 0.000000
# 3 -0.005405 -0.001738 0.009072 0.000000 0.005948 0.000000
# 4 0.000000 0.000000 0.000000 0.042261 0.000000 -0.015311
# 5 -0.009078 0.004508 0.005948 0.000000 0.024333 0.000000
# 6 0.000000 0.000000 0.000000 -0.015311 0.000000 0.030146
#
#
# Mechanical properties :
#
#
# Convention : Reuss Voigt Hill
#
# Bulk Modulus (GPa) = 75.32314 83.85749 79.59032
# Shear Modulus (GPa) = 29.98776 40.39457 35.19116
#
# Velocity S-wave (km/s) = 3.32001 3.85326 3.59653
# Velocity P-wave (km/s) = 6.51021 7.11477 6.81919
#
# Compressibility (1/GPa) = 0.01327613
#
# Stress axis : x y z
#
# Youngs Moduli (GPa) = 67.12054 64.71270 110.23379
#
# Poissons Ratio (x) = 0.38381 0.59577
# Poissons Ratio (y) = 0.39809 0.19157
# Poissons Ratio (z) = 0.36276 0.11246
#
# Static dielectric constant tensor:
#      x y z
#    x 2.166660 0.000000 0.015200 
#    y 0.000000 2.187070 0.000000 
#    z 0.015200 0.000000 2.169160 
# 
# From -- ./inp_files/140446.got.cif
#   From: 2010.05.17/outbox.cif.g08.bks.cpg/sg15_71_cif.got.tgz:140446.got - 2010.06.03 18:47:42.
