data_PCOD9259971
_publ_section_title
;
Structure prediction by ZEFSAII (Michael W. Deem and Ramdas Pophale) SiO2 
 PCOD9259971
Probable space group: C 2/C
;
_chemical_formula_sum "Si O2"
_cell_formula_units_Z 48
_cell_length_a 21.042602
_cell_length_b 8.847395
_cell_length_c 18.875157
_cell_angle_alpha 90.000000
_cell_angle_beta 38.405002
_cell_angle_gamma 90.000000
_cell_volume 2182.972177
_symmetry_space_group_name_H-M "C 2/C"
_symmetry_group_IT_number 15
_symmetry_cell_setting 'monoclinic'
loop_
_space_group_symop_operation_xyz
x,y,z
-x,y,1/2-z
-x,-y,-z
x,-y,1/2+z
1/2+x,1/2+y,z
1/2-x,1/2+y,1/2-z
1/2-x,1/2-y,-z
1/2+x,1/2-y,1/2+z
loop_
_atom_site_type_symbol
_atom_site_label
_atom_site_fract_x
_atom_site_fract_y
_atom_site_fract_z
Si Si1 0.634312 0.445255 0.444083
Si Si2 0.001283 0.626770 0.163569
Si Si3 0.653651 0.422003 0.636610
Si Si4 0.887107 0.668610 0.931147
Si Si5 0.913990 0.906081 0.168225
Si Si6 0.823234 0.165671 0.989917
O O1 0.623026 0.289951 0.496957
O O2 0.650758 0.414011 0.347318
O O3 0.527714 0.537001 0.547239
O O4 0.714583 0.554391 0.414952
O O5 0.020963 0.448741 0.135994
O O6 0.105180 0.703317 0.043912
O O7 0.000000 0.646111 0.250000
O O8 0.919234 0.738122 0.198428
O O9 0.776702 0.413509 0.522975
O O10 0.610586 0.265484 0.643649
O O11 0.624332 0.475923 0.739633
O O12 0.615978 0.549114 0.614178
O O13 0.750000 0.250000 0.000000
#
# Coordination Sequence:
#
# PCOD9259971 Si02
#       6
#     8   8   8   8   8   8
#     4   9  22  39  58  84 120 159 196 248 313 361
#     4  11  21  33  59  90 110 149 205 249 295 360
#     4  10  20  38  59  82 119 155 195 251 309 359
#     4  10  22  36  59  91 117 148 203 261 302 357
#     4  10  21  41  58  81 121 164 198 241 314 376
#     4  10  18  36  60  81 113 152 197 242 291 357
#
# _framework density 21.988371000000001
#
# number of rings (size 3 to 8) (size 9 to 14) (size 15 to 20)
#    0.000    2.000    3.333    0.000    2.333    0.667 
#    3.000    0.000    0.000    0.000    0.000    0.000 
#    0.000    0.000    0.000    0.000    0.000    0.000 
#
# Total GULP energy -133766.012860 kJ/mol
# GULP energy per Si atom -5573.583869 kJ/mol
# Density = 2.193832 g / cm^3
# Si number density = 21.988371 Si / 1000 Ang^3
#
#
#
# Elastic Constant Matrix: (Units=GPa)
#
#
# Indices 1 2 3 4 5 6 
#
# 1 92.1542 48.5954 37.9831 0.0000 43.5174 0.0000
# 2 48.5954 152.6534 46.4517 0.0000 26.8848 0.0001
# 3 37.9831 46.4517 70.4135 0.0000 28.6427 0.0000
# 4 0.0000 0.0000 0.0000 21.8099 0.0000 -6.5823
# 5 43.5174 26.8848 28.6427 0.0000 48.0508 0.0000
# 6 0.0000 0.0001 0.0000 -6.5823 0.0000 27.6264
#
#
#
# Elastic Compliance Matrix: (Units=1/GPa)
#
#
# Indices 1 2 3 4 5 6 
#
# 1 0.021047 -0.003041 -0.003017 0.000000 -0.015561 0.000000
# 2 -0.003041 0.008755 -0.004307 0.000000 0.000424 0.000000
# 3 -0.003017 -0.004307 0.021886 0.000000 -0.007904 0.000000
# 4 0.000000 0.000000 0.000000 0.049403 0.000000 0.011771
# 5 -0.015561 0.000424 -0.007904 0.000000 0.039379 0.000000
# 6 0.000000 0.000000 0.000000 0.011771 0.000000 0.039002
#
#
# Mechanical properties :
#
#
# Convention : Reuss Voigt Hill
#
# Bulk Modulus (GPa) = 32.30343 64.58683 48.44513
# Shear Modulus (GPa) = 23.75044 31.64347 27.69695
#
# Velocity S-wave (km/s) = 3.29011 3.79766 3.55296
# Velocity P-wave (km/s) = 5.39964 6.97615 6.23790
#
# Compressibility (1/GPa) = 0.03095646
#
# Stress axis : x y z
#
# Youngs Moduli (GPa) = 47.51246 114.21896 45.69158
#
# Poissons Ratio (x) = 0.34739 0.13785
# Poissons Ratio (y) = 0.14451 0.19681
# Poissons Ratio (z) = 0.14335 0.49198
#
# Static dielectric constant tensor:
#      x y z
#    x 1.936900 0.000000 -0.063940 
#    y 0.000000 1.844680 0.000000 
#    z -0.063940 0.000000 1.857910 
# 
# From -- ./inp_files/213754.got.cif
#   From: 2010.05.17/outbox.cif.g08.bks.cpg/sg15_107_cif.got.tgz:213754.got - 2010.06.03 18:47:42.
