data_PCOD9259264
_publ_section_title
;
Structure prediction by ZEFSAII (Michael W. Deem and Ramdas Pophale) SiO2 
 PCOD9259264
Probable space group: C 2/C
;
_chemical_formula_sum "Si O2"
_cell_formula_units_Z 40
_cell_length_a 5.056592
_cell_length_b 13.267766
_cell_length_c 26.606653
_cell_angle_alpha 90.000000
_cell_angle_beta 83.968297
_cell_angle_gamma 90.000000
_cell_volume 1775.149715
_symmetry_space_group_name_H-M "C 2/C"
_symmetry_group_IT_number 15
_symmetry_cell_setting 'monoclinic'
loop_
_space_group_symop_operation_xyz
x,y,z
-x,y,1/2-z
-x,-y,-z
x,-y,1/2+z
1/2+x,1/2+y,z
1/2-x,1/2+y,1/2-z
1/2-x,1/2-y,-z
1/2+x,1/2-y,1/2+z
loop_
_atom_site_type_symbol
_atom_site_label
_atom_site_fract_x
_atom_site_fract_y
_atom_site_fract_z
Si Si1 0.245360 0.097221 0.782909
Si Si2 0.007521 0.897629 0.392308
Si Si3 0.385208 0.329712 0.804184
Si Si4 0.460260 0.010258 0.941699
Si Si5 0.131522 0.333720 0.629690
O O1 0.500000 0.050132 0.750000
O O2 0.139399 0.058068 0.838482
O O3 0.331276 0.211831 0.794027
O O4 0.000000 0.102847 0.750000
O O5 0.229089 0.911674 0.430705
O O6 0.738076 0.954582 0.411910
O O7 0.936219 0.781025 0.384330
O O8 0.500000 0.374492 0.750000
O O9 0.598939 0.333329 0.844163
O O10 0.105697 0.370937 0.829010
O O11 0.368262 0.905559 0.918347
O O12 0.500000 0.000000 0.000000
#
# Coordination Sequence:
#
# PCOD9259264 Si02
#       5
#     8   8   8   8   8
#     4  10  18  34  63  97 130 166 204 247 308 381
#     4  11  23  43  67  93 128 166 207 259 318 378
#     4  10  18  35  63  94 129 166 201 246 309 379
#     4  12  27  45  65  92 125 164 220 277 317 364
#     4  11  23  41  66  93 126 167 208 256 315 377
#
# _framework density 22.533311000000001
#
# number of rings (size 3 to 8) (size 9 to 14) (size 15 to 20)
#    0.000    1.200    0.000   10.800    0.000    1.600 
#    0.000   10.000    0.000    0.000    0.000    0.000 
#    0.000    0.000    0.000    0.000    0.000    0.000 
#
# Total GULP energy -112028.008168 kJ/mol
# GULP energy per Si atom -5601.400408 kJ/mol
# Density = 2.248202 g / cm^3
# Si number density = 22.533311 Si / 1000 Ang^3
#
#
#
# Elastic Constant Matrix: (Units=GPa)
#
#
# Indices 1 2 3 4 5 6 
#
# 1 154.3080 34.1757 34.7612 0.0000 20.8977 0.0000
# 2 34.1757 96.8646 60.8889 0.0000 3.5037 0.0000
# 3 34.7612 60.8889 113.5562 0.0000 31.2312 0.0000
# 4 0.0000 0.0000 0.0000 25.6344 0.0000 -6.1078
# 5 20.8977 3.5037 31.2312 0.0000 41.7478 0.0000
# 6 0.0000 0.0000 0.0000 -6.1078 0.0000 3.4405
#
#
#
# Elastic Compliance Matrix: (Units=1/GPa)
#
#
# Indices 1 2 3 4 5 6 
#
# 1 0.007521 -0.002561 0.000059 0.000000 -0.003594 0.000000
# 2 -0.002561 0.017842 -0.010984 0.000000 0.008001 0.000000
# 3 0.000059 -0.010984 0.018171 0.000000 -0.012701 0.000000
# 4 0.000000 0.000000 0.000000 0.067605 0.000000 0.120015
# 5 -0.003594 0.008001 -0.012701 0.000000 0.034583 0.000000
# 6 0.000000 0.000000 0.000000 0.120015 0.000000 0.503707
#
#
# Mechanical properties :
#
#
# Convention : Reuss Voigt Hill
#
# Bulk Modulus (GPa) = 60.37323 69.37561 64.87442
# Shear Modulus (GPa) = 7.33223 29.82475 18.57849
#
# Velocity S-wave (km/s) = 1.80583 3.64206 2.87451
# Velocity P-wave (km/s) = 5.58561 6.96713 6.31427
#
# Compressibility (1/GPa) = 0.01656363
#
# Stress axis : x y z
#
# Youngs Moduli (GPa) = 132.95877 56.04737 55.03390
#
# Poissons Ratio (x) = 0.14353 -0.00327
# Poissons Ratio (y) = 0.34050 0.60447
# Poissons Ratio (z) = -0.00790 0.61560
#
# Static dielectric constant tensor:
#      x y z
#    x 1.815520 0.000000 -0.037000 
#    y 0.000000 1.890230 0.000000 
#    z -0.037000 0.000000 1.834310 
# 
# From -- ./inp_files/260169.got.cif
#   From: 2010.05.17/outbox.cif.g08.bks.cpg/sg15_131_cif.got.tgz:260169.got - 2010.06.03 18:47:42.
