data_PCOD9259471
_publ_section_title
;
Structure prediction by ZEFSAII (Michael W. Deem and Ramdas Pophale) SiO2 
 PCOD9259471
Probable space group: C 2/C
;
_chemical_formula_sum "Si O2"
_cell_formula_units_Z 52
_cell_length_a 14.155058
_cell_length_b 15.376436
_cell_length_c 14.111562
_cell_angle_alpha 90.000000
_cell_angle_beta 111.444519
_cell_angle_gamma 90.000000
_cell_volume 2858.812997
_symmetry_space_group_name_H-M "C 2/C"
_symmetry_group_IT_number 15
_symmetry_cell_setting 'monoclinic'
loop_
_space_group_symop_operation_xyz
x,y,z
-x,y,1/2-z
-x,-y,-z
x,-y,1/2+z
1/2+x,1/2+y,z
1/2-x,1/2+y,1/2-z
1/2-x,1/2-y,-z
1/2+x,1/2-y,1/2+z
loop_
_atom_site_type_symbol
_atom_site_label
_atom_site_fract_x
_atom_site_fract_y
_atom_site_fract_z
Si Si1 0.658982 0.748366 0.285473
Si Si2 0.972357 0.258899 0.074669
Si Si3 0.225843 0.566304 0.867084
Si Si4 0.444783 0.581302 0.026042
Si Si5 0.000000 0.030409 0.250000
Si Si6 0.405372 0.944520 0.001767
Si Si7 0.722127 0.453206 0.791454
O O1 0.574416 0.767228 0.174030
O O2 0.612764 0.743588 0.375053
O O3 0.721556 0.838335 0.316134
O O4 0.702563 0.651720 0.281002
O O5 0.975844 0.177187 0.005112
O O6 0.940045 0.344492 0.007553
O O7 0.239254 0.492631 0.793053
O O8 0.326077 0.568482 0.968720
O O9 0.130496 0.548264 0.901333
O O10 0.481419 0.582330 0.147503
O O11 0.500000 0.500000 0.000000
O O12 0.115143 0.996074 0.275096
O O13 0.308403 0.966199 0.901566
O O14 0.500000 0.000000 0.000000
#
# Coordination Sequence:
#
# PCOD9259471 Si02
#       7
#     8   8   8   8   4   8   8
#     4  10  18  35  58  85 112 148 192 240 282 337
#     4  10  18  35  58  84 113 148 193 238 283 339
#     4  11  23  35  62  88 111 157 196 232 291 348
#     4  12  20  35  60  89 114 144 190 242 297 340
#     4  12  20  36  60  88 118 148 186 246 298 330
#     4  11  24  39  59  84 120 158 197 237 282 342
#     4  12  21  38  61  87 122 146 193 249 287 337
#
# _framework density 18.189367000000001
#
# number of rings (size 3 to 8) (size 9 to 14) (size 15 to 20)
#    0.000    0.923    6.154    1.846    0.000    4.308 
#    0.000    0.000    3.385    2.769    0.000    0.000 
#    0.000    0.000    0.000    0.000    0.000    0.000 
#
# Total GULP energy -144735.849261 kJ/mol
# GULP energy per Si atom -5566.763433 kJ/mol
# Density = 1.814797 g / cm^3
# Si number density = 18.189367 Si / 1000 Ang^3
#
#
#
# Elastic Constant Matrix: (Units=GPa)
#
#
# Indices 1 2 3 4 5 6 
#
# 1 94.9059 58.4685 29.3400 0.0000 1.2279 0.0000
# 2 58.4685 114.5570 41.9212 0.0000 -3.3192 0.0000
# 3 29.3400 41.9212 72.0421 0.0000 4.4513 0.0000
# 4 0.0000 0.0000 0.0000 29.1771 0.0000 -0.4713
# 5 1.2279 -3.3192 4.4513 0.0000 17.9256 0.0000
# 6 0.0000 0.0000 0.0000 -0.4713 0.0000 32.4147
#
#
#
# Elastic Compliance Matrix: (Units=1/GPa)
#
#
# Indices 1 2 3 4 5 6 
#
# 1 0.015701 -0.007336 -0.002006 0.000000 -0.001936 0.000000
# 2 -0.007336 0.014767 -0.005896 0.000000 0.004701 0.000000
# 3 -0.002006 -0.005896 0.018471 0.000000 -0.005541 0.000000
# 4 0.000000 0.000000 0.000000 0.034282 0.000000 0.000498
# 5 -0.001936 0.004701 -0.005541 0.000000 0.058165 0.000000
# 6 0.000000 0.000000 0.000000 0.000498 0.000000 0.030857
#
#
# Mechanical properties :
#
#
# Convention : Reuss Voigt Hill
#
# Bulk Modulus (GPa) = 54.16030 60.10716 57.13373
# Shear Modulus (GPa) = 23.93791 26.02183 24.97987
#
# Velocity S-wave (km/s) = 3.63166 3.78644 3.70986
# Velocity P-wave (km/s) = 6.88663 7.22725 7.05900
#
# Compressibility (1/GPa) = 0.01846371
#
# Stress axis : x y z
#
# Youngs Moduli (GPa) = 63.68901 67.71843 54.13883
#
# Poissons Ratio (x) = 0.49676 0.10862
# Poissons Ratio (y) = 0.46720 0.31919
# Poissons Ratio (z) = 0.12778 0.39926
#
# Static dielectric constant tensor:
#      x y z
#    x 1.224200 0.000000 -0.300970 
#    y 0.000000 1.691270 0.000000 
#    z -0.300970 0.000000 1.393620 
# 
# From -- ./inp_files/153546.got.cif
#   From: 2010.05.17/outbox.cif.g08.bks.cpg/sg15_77_cif.got.tgz:153546.got - 2010.06.03 18:47:42.
