data_PCOD9259030
_publ_section_title
;
Structure prediction by ZEFSAII (Michael W. Deem and Ramdas Pophale) SiO2 
 PCOD9259030
Probable space group: C 2/C
;
_chemical_formula_sum "Si O2"
_cell_formula_units_Z 60
_cell_length_a 23.889074
_cell_length_b 15.658641
_cell_length_c 28.470907
_cell_angle_alpha 90.000000
_cell_angle_beta 163.154779
_cell_angle_gamma 90.000000
_cell_volume 3086.270579
_symmetry_space_group_name_H-M "C 2/C"
_symmetry_group_IT_number 15
_symmetry_cell_setting 'monoclinic'
loop_
_space_group_symop_operation_xyz
x,y,z
-x,y,1/2-z
-x,-y,-z
x,-y,1/2+z
1/2+x,1/2+y,z
1/2-x,1/2+y,1/2-z
1/2-x,1/2-y,-z
1/2+x,1/2-y,1/2+z
loop_
_atom_site_type_symbol
_atom_site_label
_atom_site_fract_x
_atom_site_fract_y
_atom_site_fract_z
Si Si1 0.857015 0.346401 0.997463
Si Si2 0.065326 0.510239 0.499353
Si Si3 0.000000 0.950568 0.750000
Si Si4 0.620326 0.185445 0.797954
Si Si5 0.010333 0.066888 0.843948
Si Si6 0.375987 0.737054 0.694229
Si Si7 0.853146 0.490814 0.674786
Si Si8 0.984690 0.366341 0.856272
O O1 0.954137 0.417793 0.042112
O O2 0.668094 0.393758 0.864770
O O3 0.777533 0.257666 0.913261
O O4 0.978633 0.319784 0.140235
O O5 0.292286 0.537041 0.680127
O O6 0.956666 0.587881 0.384454
O O7 0.000000 0.500000 0.500000
O O8 0.922389 0.008164 0.645311
O O9 0.500000 0.201600 0.750000
O O10 0.704090 0.089960 0.867896
O O11 0.005024 0.161519 0.819587
O O12 0.157471 0.058403 0.004652
O O13 0.500000 0.774725 0.750000
O O14 0.183762 0.687716 0.521888
O O15 0.350953 0.802196 0.717862
O O16 0.000000 0.484017 0.750000
O O17 0.969844 0.450867 0.811836
#
# Coordination Sequence:
#
# PCOD9259030 Si02
#       8
#     8   8   4   8   8   8   8   8
#     4  11  22  37  58  91 125 162 203 250 309 374
#     4  10  24  46  64  79 121 169 217 265 306 351
#     4  10  18  34  58  86 130 170 198 242 314 384
#     4  11  22  33  58  94 134 158 189 245 315 384
#     4  10  21  35  63  91 124 165 209 245 314 375
#     4  11  20  34  59  93 129 158 197 252 316 384
#     4  11  21  34  58  97 136 164 194 243 319 393
#     4  11  22  39  60  88 124 165 205 254 312 370
#
# _framework density 19.440940000000001
#
# number of rings (size 3 to 8) (size 9 to 14) (size 15 to 20)
#    0.000    1.333    2.667    4.400    5.600    0.000 
#    0.000    3.333    0.000    0.000    0.000    0.000 
#    0.000    0.000    0.000    0.000    0.000    0.000 
#
# Total GULP energy -167223.999306 kJ/mol
# GULP energy per Si atom -5574.133310 kJ/mol
# Density = 1.939669 g / cm^3
# Si number density = 19.440940 Si / 1000 Ang^3
#
#
#
# Elastic Constant Matrix: (Units=GPa)
#
#
# Indices 1 2 3 4 5 6 
#
# 1 80.3633 28.2767 20.5177 0.0317 -26.5265 0.0064
# 2 28.2767 113.2318 33.5529 0.0040 -19.6000 0.0160
# 3 20.5177 33.5529 75.4556 0.0437 -27.2895 0.0280
# 4 0.0317 0.0040 0.0437 40.8146 0.0322 -19.6700
# 5 -26.5265 -19.6000 -27.2895 0.0322 21.1616 0.0148
# 6 0.0064 0.0160 0.0280 -19.6700 0.0148 19.1672
#
#
#
# Elastic Compliance Matrix: (Units=1/GPa)
#
#
# Indices 1 2 3 4 5 6 
#
# 1 0.023809 -0.001663 0.008438 -0.000162 0.039187 -0.000216
# 2 -0.001663 0.010825 -0.002791 -0.000008 0.004343 -0.000016
# 3 0.008438 -0.002791 0.028280 -0.000214 0.044461 -0.000296
# 4 -0.000162 -0.000008 -0.000214 0.048479 -0.000596 0.049752
# 5 0.039187 0.004343 0.044461 -0.000596 0.157737 -0.000815
# 6 -0.000216 -0.000016 -0.000296 0.049752 -0.000815 0.103230
#
#
# Mechanical properties :
#
#
# Convention : Reuss Voigt Hill
#
# Bulk Modulus (GPa) = 14.10785 48.19392 31.15089
# Shear Modulus (GPa) = 12.88595 28.67558 20.78077
#
# Velocity S-wave (km/s) = 2.57733 3.84475 3.27298
# Velocity P-wave (km/s) = 4.01614 6.67482 5.50829
#
# Compressibility (1/GPa) = 0.07088250
#
# Stress axis : x y z
#
# Youngs Moduli (GPa) = 42.00056 92.37468 35.36106
#
# Poissons Ratio (x) = 0.15361 -0.29837
# Poissons Ratio (y) = 0.06984 0.09869
# Poissons Ratio (z) = -0.35439 0.25780
#
# Static dielectric constant tensor:
#      x y z
#    x 1.664670 0.000060 -0.029200 
#    y 0.000060 1.858990 -0.000020 
#    z -0.029200 -0.000020 1.714120 
# 
# From -- ./inp_files/302370.got.cif
#   From: 2010.05.17/outbox.cif.g08.bks.cpg/sg15_152_cif.got.tgz:302370.got - 2010.06.03 18:47:42.
