data_PCOD9259752
_publ_section_title
;
Structure prediction by ZEFSAII (Michael W. Deem and Ramdas Pophale) SiO2 
 PCOD9259752
Probable space group: C 2/C
;
_chemical_formula_sum "Si O2"
_cell_formula_units_Z 52
_cell_length_a 22.209449
_cell_length_b 4.981474
_cell_length_c 18.660010
_cell_angle_alpha 90.000000
_cell_angle_beta 114.128695
_cell_angle_gamma 90.000000
_cell_volume 1884.091787
_symmetry_space_group_name_H-M "C 2/C"
_symmetry_group_IT_number 15
_symmetry_cell_setting 'monoclinic'
loop_
_space_group_symop_operation_xyz
x,y,z
-x,y,1/2-z
-x,-y,-z
x,-y,1/2+z
1/2+x,1/2+y,z
1/2-x,1/2+y,1/2-z
1/2-x,1/2-y,-z
1/2+x,1/2-y,1/2+z
loop_
_atom_site_type_symbol
_atom_site_label
_atom_site_fract_x
_atom_site_fract_y
_atom_site_fract_z
Si Si1 0.438934 0.145102 0.510665
Si Si2 0.000000 0.467559 0.750000
Si Si3 0.865480 0.657868 0.337856
Si Si4 0.718192 0.078978 0.336766
Si Si5 0.052975 0.151950 0.156362
Si Si6 0.227394 0.910815 0.919399
Si Si7 0.889576 0.272530 0.609289
O O1 0.386344 0.257636 0.428258
O O2 0.482923 0.352914 0.579272
O O3 0.500000 0.000000 0.500000
O O4 0.392282 0.850976 0.353612
O O5 0.039513 0.675322 0.719984
O O6 0.040096 0.272350 0.820770
O O7 0.802528 0.652933 0.253439
O O8 0.847447 0.553491 0.146023
O O9 0.912660 0.867369 0.317782
O O10 0.755751 0.306063 0.401855
O O11 0.599752 0.065337 0.458233
O O12 0.743415 0.781431 0.360249
O O13 0.153699 0.005416 0.907350
O O14 0.250000 0.750000 0.000000
#
# Coordination Sequence:
#
# PCOD9259752 Si02
#       7
#     8   4   8   8   8   8   8
#     4   9  20  39  53  85 128 179 221 252 316 399
#     4  10  18  36  52  86 128 176 226 270 328 398
#     4  11  20  36  54  82 122 164 220 261 319 392
#     4  10  21  37  61  94 121 162 216 280 344 384
#     4  10  20  34  50  77 119 175 215 265 305 379
#     4  10  21  41  66  95 122 158 221 286 346 392
#     4   9  21  37  61  91 129 176 216 277 329 391
#
# _framework density 27.599504
#
# number of rings (size 3 to 8) (size 9 to 14) (size 15 to 20)
#    0.923    1.231    1.538    1.846    0.000    0.615 
#   24.923    0.000    0.000    0.000    4.000    0.000 
#    0.000    0.000    0.000    0.000    0.000    0.000 
#
# Total GULP energy -145098.818177 kJ/mol
# GULP energy per Si atom -5580.723776 kJ/mol
# Density = 2.753669 g / cm^3
# Si number density = 27.599504 Si / 1000 Ang^3
#
#
#
# Elastic Constant Matrix: (Units=GPa)
#
#
# Indices 1 2 3 4 5 6 
#
# 1 58.9338 31.4142 42.3278 0.0000 1.0994 0.0000
# 2 31.4142 146.2378 41.1791 -0.0004 1.2101 0.0001
# 3 42.3278 41.1791 176.2650 -0.0001 -7.3116 0.0001
# 4 0.0000 -0.0004 -0.0001 42.4702 0.0000 6.1472
# 5 1.0994 1.2101 -7.3116 0.0000 41.6304 0.0000
# 6 0.0000 0.0001 0.0001 6.1472 0.0000 21.9457
#
#
#
# Elastic Compliance Matrix: (Units=1/GPa)
#
#
# Indices 1 2 3 4 5 6 
#
# 1 0.022105 -0.003455 -0.004554 0.000000 -0.001283 0.000000
# 2 -0.003455 0.007871 -0.001022 0.000000 -0.000317 0.000000
# 3 -0.004554 -0.001022 0.007063 0.000000 0.001391 0.000000
# 4 0.000000 0.000000 0.000000 0.024541 0.000000 -0.006874
# 5 -0.001283 -0.000317 0.001391 0.000000 0.024308 0.000000
# 6 0.000000 0.000000 0.000000 -0.006874 0.000000 0.047493
#
#
# Mechanical properties :
#
#
# Convention : Reuss Voigt Hill
#
# Bulk Modulus (GPa) = 52.69918 67.91986 60.30952
# Shear Modulus (GPa) = 31.69175 38.97696 35.33436
#
# Velocity S-wave (km/s) = 3.39229 3.76205 3.58194
# Velocity P-wave (km/s) = 5.87190 6.59797 6.24549
#
# Compressibility (1/GPa) = 0.01897563
#
# Stress axis : x y z
#
# Youngs Moduli (GPa) = 45.23870 127.04990 141.57515
#
# Poissons Ratio (x) = 0.43902 0.64476
# Poissons Ratio (y) = 0.15632 0.14471
# Poissons Ratio (z) = 0.20603 0.12987
#
# Static dielectric constant tensor:
#      x y z
#    x 2.445410 0.000000 0.059300 
#    y 0.000000 2.226130 0.000000 
#    z 0.059300 0.000000 2.198120 
# 
# From -- ./inp_files/220972.got.cif
#   From: 2010.05.17/outbox.cif.g08.bks.cpg/sg15_111_cif.got.tgz:220972.got - 2010.06.03 18:47:42.
