data_PCOD9259402
_publ_section_title
;
Structure prediction by ZEFSAII (Michael W. Deem and Ramdas Pophale) SiO2 
 PCOD9259402
Probable space group: C 2/C
;
_chemical_formula_sum "Si O2"
_cell_formula_units_Z 60
_cell_length_a 15.576049
_cell_length_b 20.736488
_cell_length_c 11.064753
_cell_angle_alpha 90.000000
_cell_angle_beta 62.915087
_cell_angle_gamma 90.000000
_cell_volume 3181.900321
_symmetry_space_group_name_H-M "C 2/C"
_symmetry_group_IT_number 15
_symmetry_cell_setting 'monoclinic'
loop_
_space_group_symop_operation_xyz
x,y,z
-x,y,1/2-z
-x,-y,-z
x,-y,1/2+z
1/2+x,1/2+y,z
1/2-x,1/2+y,1/2-z
1/2-x,1/2-y,-z
1/2+x,1/2-y,1/2+z
loop_
_atom_site_type_symbol
_atom_site_label
_atom_site_fract_x
_atom_site_fract_y
_atom_site_fract_z
Si Si1 0.143676 0.304183 0.770580
Si Si2 0.659377 0.669998 0.824778
Si Si3 0.000000 0.133639 0.750000
Si Si4 0.555416 0.852466 0.604071
Si Si5 0.408092 0.605748 0.393043
Si Si6 0.238124 0.925777 0.717294
Si Si7 0.213925 0.436642 0.384333
Si Si8 0.622147 0.538858 0.518720
O O1 0.198056 0.242732 0.790538
O O2 0.126772 0.306164 0.635777
O O3 0.200162 0.368955 0.765794
O O4 0.033916 0.312328 0.893491
O O5 0.581160 0.672667 0.766707
O O6 0.730366 0.611588 0.742897
O O7 0.611316 0.653432 0.983348
O O8 0.044095 0.087978 0.619263
O O9 0.500000 0.889165 0.750000
O O10 0.616995 0.900168 0.484627
O O11 0.500000 0.621010 0.250000
O O12 0.313323 0.600069 0.369895
O O13 0.416830 0.533199 0.440254
O O14 0.153700 0.946579 0.863315
O O15 0.298131 0.991447 0.658968
O O16 0.284791 0.448252 0.454216
#
# Coordination Sequence:
#
# PCOD9259402 Si02
#       8
#     8   8   4   8   8   8   8   8
#     4   9  21  39  59  80 120 148 191 239 291 341
#     4  11  22  38  56  89 115 154 195 236 286 353
#     4  10  20  32  60  82 118 148 192 244 288 338
#     4   8  18  39  59  86 110 143 193 244 291 330
#     4  11  23  36  57  85 123 158 189 233 290 354
#     4  11  21  37  60  84 115 158 191 240 291 346
#     4  10  20  34  62  86 114 143 196 249 283 338
#     4  10  18  35  56  89 114 150 192 238 296 338
#
# _framework density 18.856655
#
# number of rings (size 3 to 8) (size 9 to 14) (size 15 to 20)
#    0.800    1.067    3.333    1.600    0.000    2.667 
#    4.800    0.000    0.000    0.000    0.000    0.000 
#    0.000    0.000    0.000    0.000    0.000    0.000 
#
# Total GULP energy -167128.191111 kJ/mol
# GULP energy per Si atom -5570.939704 kJ/mol
# Density = 1.881374 g / cm^3
# Si number density = 18.856655 Si / 1000 Ang^3
#
#
#
# Elastic Constant Matrix: (Units=GPa)
#
#
# Indices 1 2 3 4 5 6 
#
# 1 26.5233 2.2236 -4.3078 0.0000 3.5572 0.0000
# 2 2.2236 74.5224 16.7051 0.0000 3.6563 0.0000
# 3 -4.3078 16.7051 82.4325 0.0000 0.9862 0.0000
# 4 0.0000 0.0000 0.0000 12.7884 0.0000 -4.9644
# 5 3.5572 3.6563 0.9862 0.0000 17.9743 0.0000
# 6 0.0000 0.0000 0.0000 -4.9644 0.0000 18.5599
#
#
#
# Elastic Compliance Matrix: (Units=1/GPa)
#
#
# Indices 1 2 3 4 5 6 
#
# 1 0.039229 -0.001337 0.002412 0.000000 -0.007624 0.000000
# 2 -0.001337 0.014236 -0.002925 0.000000 -0.002471 0.000000
# 3 0.002412 -0.002925 0.012857 0.000000 -0.000588 0.000000
# 4 0.000000 0.000000 0.000000 0.087256 0.000000 0.023339
# 5 -0.007624 -0.002471 -0.000588 0.000000 0.057679 0.000000
# 6 0.000000 0.000000 0.000000 0.023339 0.000000 0.060122
#
#
# Mechanical properties :
#
#
# Convention : Reuss Voigt Hill
#
# Bulk Modulus (GPa) = 15.96900 23.63559 19.80229
# Shear Modulus (GPa) = 16.89462 21.12168 19.00815
#
# Velocity S-wave (km/s) = 2.99649 3.35045 3.17840
# Velocity P-wave (km/s) = 4.52316 5.24680 4.89836
#
# Compressibility (1/GPa) = 0.06262135
#
# Stress axis : x y z
#
# Youngs Moduli (GPa) = 25.49131 70.24634 77.77852
#
# Poissons Ratio (x) = 0.09393 -0.18762
# Poissons Ratio (y) = 0.03409 0.22752
# Poissons Ratio (z) = -0.06149 0.20548
#
# Static dielectric constant tensor:
#      x y z
#    x 1.692110 0.000000 -0.001120 
#    y 0.000000 1.670050 0.000000 
#    z -0.001120 0.000000 1.648460 
# 
# From -- ./inp_files/106689.got.cif
#   From: 2010.05.17/outbox.cif.g08.bks.cpg/sg15_54_cif.got.tgz:106689.got - 2010.06.03 18:47:42.
