data_PCOD9259765
_publ_section_title
;
Structure prediction by ZEFSAII (Michael W. Deem and Ramdas Pophale) SiO2 
 PCOD9259765
Probable space group: C 2/C
;
_chemical_formula_sum "Si O2"
_cell_formula_units_Z 52
_cell_length_a 14.380362
_cell_length_b 7.013084
_cell_length_c 21.539333
_cell_angle_alpha 90.000000
_cell_angle_beta 85.211471
_cell_angle_gamma 90.000000
_cell_volume 2164.674462
_symmetry_space_group_name_H-M "C 2/C"
_symmetry_group_IT_number 15
_symmetry_cell_setting 'monoclinic'
loop_
_space_group_symop_operation_xyz
x,y,z
-x,y,1/2-z
-x,-y,-z
x,-y,1/2+z
1/2+x,1/2+y,z
1/2-x,1/2+y,1/2-z
1/2-x,1/2-y,-z
1/2+x,1/2-y,1/2+z
loop_
_atom_site_type_symbol
_atom_site_label
_atom_site_fract_x
_atom_site_fract_y
_atom_site_fract_z
Si Si1 0.340969 0.639289 0.827846
Si Si2 0.500000 0.176979 0.750000
Si Si3 0.483697 0.662796 0.918615
Si Si4 0.874205 0.338883 0.151610
Si Si5 0.651371 0.818710 0.149018
Si Si6 0.032098 0.736466 0.544886
Si Si7 0.642839 0.289746 0.317528
O O1 0.403730 0.734369 0.877254
O O2 0.234771 0.704341 0.844766
O O3 0.354287 0.411254 0.837802
O O4 0.367268 0.676840 0.755089
O O5 0.571730 0.267846 0.795333
O O6 0.425780 0.086111 0.801750
O O7 0.449998 0.464422 0.950222
O O8 0.568841 0.619521 0.868103
O O9 0.517065 0.797505 0.972829
O O10 0.936665 0.307397 0.087497
O O11 0.872116 0.563341 0.169967
O O12 0.617631 0.849282 0.080184
O O13 0.755477 0.859008 0.165442
#
# Coordination Sequence:
#
# PCOD9259765 Si02
#       7
#     8   4   8   8   8   8   8
#     4  10  21  36  56  88 115 145 184 237 284 334
#     4  10  18  36  54  80 110 154 174 226 274 352
#     4  10  22  38  62  81 116 148 198 232 273 341
#     4  10  22  36  57  81 121 143 187 232 286 336
#     4   9  20  36  59  80 115 147 188 227 279 339
#     4   9  21  42  59  83 106 162 193 224 281 341
#     4  11  22  35  56  90 115 146 182 243 286 327
#
# _framework density 24.022088
#
# number of rings (size 3 to 8) (size 9 to 14) (size 15 to 20)
#    0.000    2.154    1.538    0.462    8.615    1.846 
#    0.000    0.000    0.000    0.000    0.000    0.000 
#    0.000    0.000    0.000    0.000    0.000    0.000 
#
# Total GULP energy -145225.861674 kJ/mol
# GULP energy per Si atom -5585.610064 kJ/mol
# Density = 2.396741 g / cm^3
# Si number density = 24.022088 Si / 1000 Ang^3
#
#
#
# Elastic Constant Matrix: (Units=GPa)
#
#
# Indices 1 2 3 4 5 6 
#
# 1 160.6247 -4.3952 86.3214 0.0000 37.8775 0.0000
# 2 -4.3952 96.8981 13.8707 0.0000 6.7430 0.0000
# 3 86.3214 13.8707 199.8945 0.0000 46.0947 0.0000
# 4 0.0000 0.0000 0.0000 121.1469 0.0000 6.1075
# 5 37.8775 6.7430 46.0947 0.0000 31.2652 0.0000
# 6 0.0000 0.0000 0.0000 6.1075 0.0000 11.6534
#
#
#
# Elastic Compliance Matrix: (Units=1/GPa)
#
#
# Indices 1 2 3 4 5 6 
#
# 1 0.009453 0.001336 -0.002223 0.000000 -0.008462 0.000000
# 2 0.001336 0.010679 -0.000627 0.000000 -0.002998 0.000000
# 3 -0.002223 -0.000627 0.008112 0.000000 -0.009130 0.000000
# 4 0.000000 0.000000 0.000000 0.008478 0.000000 -0.004444
# 5 -0.008462 -0.002998 -0.009130 0.000000 0.056344 0.000000
# 6 0.000000 0.000000 0.000000 -0.004444 0.000000 0.088141
#
#
# Mechanical properties :
#
#
# Convention : Reuss Voigt Hill
#
# Bulk Modulus (GPa) = 39.65901 72.11233 55.88567
# Shear Modulus (GPa) = 25.95521 56.92110 41.43816
#
# Velocity S-wave (km/s) = 3.29062 4.87306 4.15782
# Velocity P-wave (km/s) = 5.56622 7.85791 6.80917
#
# Compressibility (1/GPa) = 0.02521495
#
# Stress axis : x y z
#
# Youngs Moduli (GPa) = 105.79194 93.64150 123.27885
#
# Poissons Ratio (x) = -0.12509 0.27410
# Poissons Ratio (y) = -0.14132 0.07725
# Poissons Ratio (z) = 0.23522 0.05868
#
# Static dielectric constant tensor:
#      x y z
#    x 2.053210 0.000000 0.012390 
#    y 0.000000 2.130520 0.000000 
#    z 0.012390 0.000000 1.879380 
# 
# From -- ./inp_files/242402.got.cif
#   From: 2010.05.17/outbox.cif.g08.bks.cpg/sg15_122_cif.got.tgz:242402.got - 2010.06.03 18:47:42.
