data_PCOD9259741
_publ_section_title
;
Structure prediction by ZEFSAII (Michael W. Deem and Ramdas Pophale) SiO2 
 PCOD9259741
Probable space group: C 2/C
;
_chemical_formula_sum "Si O2"
_cell_formula_units_Z 44
_cell_length_a 26.577895
_cell_length_b 13.778455
_cell_length_c 16.175120
_cell_angle_alpha 90.000000
_cell_angle_beta 160.102139
_cell_angle_gamma 90.000000
_cell_volume 2015.984940
_symmetry_space_group_name_H-M "C 2/C"
_symmetry_group_IT_number 15
_symmetry_cell_setting 'monoclinic'
loop_
_space_group_symop_operation_xyz
x,y,z
-x,y,1/2-z
-x,-y,-z
x,-y,1/2+z
1/2+x,1/2+y,z
1/2-x,1/2+y,1/2-z
1/2-x,1/2-y,-z
1/2+x,1/2-y,1/2+z
loop_
_atom_site_type_symbol
_atom_site_label
_atom_site_fract_x
_atom_site_fract_y
_atom_site_fract_z
Si Si1 0.080090 0.730805 0.717125
Si Si2 0.874814 0.855591 0.122410
Si Si3 0.322161 0.042041 0.058964
Si Si4 0.000000 0.380621 0.250000
Si Si5 0.046996 0.681076 0.484435
Si Si6 0.297057 0.298551 0.247485
O O1 0.070744 0.670124 0.618479
O O2 0.987329 0.684508 0.648975
O O3 0.970848 0.818686 0.524929
O O4 0.250000 0.750000 0.000000
O O5 0.000000 0.884365 0.250000
O O6 0.947341 0.772840 0.295570
O O7 0.802007 0.942987 0.061926
O O8 0.748537 0.799358 0.873850
O O9 0.471021 0.085142 0.330136
O O10 0.363656 0.946337 0.072098
O O11 0.274828 0.118156 0.917395
O O12 0.206132 0.700741 0.691144
#
# Coordination Sequence:
#
# PCOD9259741 Si02
#       6
#     8   8   8   4   8   8
#     4  12  25  43  62  88 136 193 223 249 326 427
#     4   9  17  32  68 108 129 159 219 283 327 385
#     4  11  18  40  67 105 128 156 218 302 333 362
#     4  12  28  42  66 102 140 166 222 292 338 374
#     4  10  18  35  69  96 127 170 225 270 330 395
#     4  10  18  37  68  99 126 171 228 270 321 405
#
# _framework density 21.825561
#
# number of rings (size 3 to 8) (size 9 to 14) (size 15 to 20)
#    0.000    1.455    5.455    3.273    0.000    0.727 
#    0.000    0.909    6.000    0.000    0.000    0.000 
#    0.000    0.000    0.000    0.000    0.000    0.000 
#
# Total GULP energy -122531.065632 kJ/mol
# GULP energy per Si atom -5569.593892 kJ/mol
# Density = 2.177589 g / cm^3
# Si number density = 21.825561 Si / 1000 Ang^3
#
#
#
# Elastic Constant Matrix: (Units=GPa)
#
#
# Indices 1 2 3 4 5 6 
#
# 1 182.3194 18.7730 37.9138 0.0000 -1.1175 0.0000
# 2 18.7730 21.0052 4.9255 0.0000 -3.1781 0.0000
# 3 37.9138 4.9255 134.7866 0.0000 8.4185 0.0000
# 4 0.0000 0.0000 0.0000 -1.8652 0.0000 -4.1245
# 5 -1.1175 -3.1781 8.4185 0.0000 42.6251 0.0000
# 6 0.0000 0.0000 0.0000 -4.1245 0.0000 -118.0969
#
#
#
# Elastic Compliance Matrix: (Units=1/GPa)
#
#
# Indices 1 2 3 4 5 6 
#
# 1 0.006364 -0.005299 -0.001602 0.000000 0.000088 0.000000
# 2 -0.005299 0.053105 -0.000697 0.000000 0.003958 0.000000
# 3 -0.001602 -0.000697 0.008000 0.000000 -0.001674 0.000000
# 4 0.000000 0.000000 0.000000 -0.581006 0.000000 0.020291
# 5 0.000088 0.003958 -0.001674 0.000000 0.024088 0.000000
# 6 0.000000 0.000000 0.000000 0.020291 0.000000 -0.009176
#
#
# Mechanical properties :
#
#
# Convention : Reuss Voigt Hill
#
# Bulk Modulus (GPa) = 19.13034 51.25952 35.19493
# Shear Modulus (GPa) = -10.72953 2.96585 -3.88184
#
# Velocity S-wave (km/s) = -2.21962 1.16698 -1.33508
# Velocity P-wave (km/s) = 1.48835 5.03515 3.71268
#
# Compressibility (1/GPa) = 0.05227298
#
# Stress axis : x y z
#
# Youngs Moduli (GPa) = 157.12943 18.83044 125.00304
#
# Poissons Ratio (x) = 0.09978 0.20026
# Poissons Ratio (y) = 0.83261 0.08717
# Poissons Ratio (z) = 0.25173 0.01313
#
# Static dielectric constant tensor:
#      x y z
#    x 1.873010 0.000000 0.026290 
#    y 0.000000 1.877460 0.000000 
#    z 0.026290 0.000000 1.797310 
# 
# From -- ./inp_files/178814.got.cif
#   From: 2010.05.17/outbox.cif.g08.bks.cpg/sg15_90_cif.got.tgz:178814.got - 2010.06.03 18:47:42.
