data_PCOD9259194
_publ_section_title
;
Structure prediction by ZEFSAII (Michael W. Deem and Ramdas Pophale) SiO2 
 PCOD9259194
Probable space group: C 2/C
;
_chemical_formula_sum "Si O2"
_cell_formula_units_Z 48
_cell_length_a 26.974730
_cell_length_b 15.223539
_cell_length_c 8.464047
_cell_angle_alpha 90.000000
_cell_angle_beta 146.024221
_cell_angle_gamma 90.000000
_cell_volume 1942.406567
_symmetry_space_group_name_H-M "C 2/C"
_symmetry_group_IT_number 15
_symmetry_cell_setting 'monoclinic'
loop_
_space_group_symop_operation_xyz
x,y,z
-x,y,1/2-z
-x,-y,-z
x,-y,1/2+z
1/2+x,1/2+y,z
1/2-x,1/2+y,1/2-z
1/2-x,1/2-y,-z
1/2+x,1/2-y,1/2+z
loop_
_atom_site_type_symbol
_atom_site_label
_atom_site_fract_x
_atom_site_fract_y
_atom_site_fract_z
Si Si1 0.144157 0.921282 0.685004
Si Si2 0.915438 0.490160 0.622375
Si Si3 0.786424 0.557907 0.015306
Si Si4 0.657860 0.669865 0.535796
Si Si5 0.500000 0.721097 0.750000
Si Si6 0.953818 0.319860 0.302314
Si Si7 0.500000 0.561020 0.250000
O O1 0.220860 0.975822 0.799023
O O2 0.187908 0.877676 0.954746
O O3 0.085984 0.842954 0.456895
O O4 0.069584 0.996880 0.522918
O O5 0.863663 0.422988 0.594224
O O6 0.944785 0.576310 0.797024
O O7 0.000000 0.459464 0.750000
O O8 0.840396 0.528998 0.308829
O O9 0.721754 0.640711 0.844786
O O10 0.640960 0.771691 0.469635
O O11 0.561540 0.624558 0.309347
O O12 0.489764 0.774718 0.558501
O O13 0.000000 0.308412 0.250000
#
# Coordination Sequence:
#
# PCOD9259194 Si02
#       7
#     8   8   8   8   4   8   4
#     4   9  18  33  59  97 137 162 211 259 325 401
#     4  11  25  46  65  88 125 174 229 273 315 381
#     4  11  22  41  66  94 128 170 221 273 323 377
#     4  10  18  34  61  97 135 163 208 265 327 399
#     4   9  20  40  66 100 137 176 204 258 341 402
#     4  10  22  42  65  99 135 173 216 261 331 397
#     4   9  16  26  56  92 133 174 196 252 325 400
#
# _framework density 24.711614000000001
#
# number of rings (size 3 to 8) (size 9 to 14) (size 15 to 20)
#    0.000    2.000    2.500    1.000    0.000    3.333 
#    7.500    5.000    0.000    0.000    0.000    0.000 
#    0.000    0.000    0.000    0.000    0.000    0.000 
#
# Total GULP energy -133990.381989 kJ/mol
# GULP energy per Si atom -5582.932583 kJ/mol
# Density = 2.465537 g / cm^3
# Si number density = 24.711614 Si / 1000 Ang^3
#
#
#
# Elastic Constant Matrix: (Units=GPa)
#
#
# Indices 1 2 3 4 5 6 
#
# 1 91.7822 27.1685 33.7264 0.0000 9.4688 0.0000
# 2 27.1685 82.2560 9.2391 0.0000 5.9939 0.0000
# 3 33.7264 9.2391 108.7095 0.0000 -0.5929 0.0000
# 4 0.0000 0.0000 0.0000 24.0812 0.0000 -5.9619
# 5 9.4688 5.9939 -0.5929 0.0000 37.8798 0.0000
# 6 0.0000 0.0000 0.0000 -5.9619 0.0000 24.5077
#
#
#
# Elastic Compliance Matrix: (Units=1/GPa)
#
#
# Indices 1 2 3 4 5 6 
#
# 1 0.013808 -0.003904 -0.003968 0.000000 -0.002896 0.000000
# 2 -0.003904 0.013525 0.000055 0.000000 -0.001163 0.000000
# 3 -0.003968 0.000055 0.010431 0.000000 0.001146 0.000000
# 4 0.000000 0.000000 0.000000 0.044187 0.000000 0.010749
# 5 -0.002896 -0.001163 0.001146 0.000000 0.027325 0.000000
# 6 0.000000 0.000000 0.000000 0.010749 0.000000 0.043418
#
#
# Mechanical properties :
#
#
# Convention : Reuss Voigt Hill
#
# Bulk Modulus (GPa) = 45.18436 47.00176 46.09306
# Shear Modulus (GPa) = 28.45677 31.46797 29.96237
#
# Velocity S-wave (km/s) = 3.39714 3.57236 3.48585
# Velocity P-wave (km/s) = 5.80618 6.00642 5.90715
#
# Compressibility (1/GPa) = 0.02213155
#
# Stress axis : x y z
#
# Youngs Moduli (GPa) = 72.42329 73.93629 95.86494
#
# Poissons Ratio (x) = 0.28864 0.38037
# Poissons Ratio (y) = 0.28273 -0.00530
# Poissons Ratio (z) = 0.28736 -0.00409
#
# Static dielectric constant tensor:
#      x y z
#    x 1.995980 0.000000 -0.013340 
#    y 0.000000 1.956830 0.000000 
#    z -0.013340 0.000000 2.046650 
# 
# From -- ./inp_files/40707.got.cif
#   From: 2010.05.17/outbox.cif.g08.bks.cpg/sg15_21_cif.got.tgz:40707.got - 2010.06.03 18:47:42.
