data_PCOD9259073
_publ_section_title
;
Structure prediction by ZEFSAII (Michael W. Deem and Ramdas Pophale) SiO2 
 PCOD9259073
Probable space group: C 2/C
;
_chemical_formula_sum "Si O2"
_cell_formula_units_Z 48
_cell_length_a 17.102191
_cell_length_b 7.454954
_cell_length_c 18.841838
_cell_angle_alpha 90.000000
_cell_angle_beta 122.187640
_cell_angle_gamma 90.000000
_cell_volume 2033.051984
_symmetry_space_group_name_H-M "C 2/C"
_symmetry_group_IT_number 15
_symmetry_cell_setting 'monoclinic'
loop_
_space_group_symop_operation_xyz
x,y,z
-x,y,1/2-z
-x,-y,-z
x,-y,1/2+z
1/2+x,1/2+y,z
1/2-x,1/2+y,1/2-z
1/2-x,1/2-y,-z
1/2+x,1/2-y,1/2+z
loop_
_atom_site_type_symbol
_atom_site_label
_atom_site_fract_x
_atom_site_fract_y
_atom_site_fract_z
Si Si1 0.221558 0.385333 0.923947
Si Si2 0.231563 0.888762 0.836564
Si Si3 0.438004 0.525556 0.154666
Si Si4 0.019936 0.612766 0.342319
Si Si5 0.325949 0.997054 0.246276
Si Si6 0.658997 0.290386 0.003415
O O1 0.193724 0.360610 0.827215
O O2 0.311047 0.510141 0.957238
O O3 0.122771 0.460517 0.906914
O O4 0.250000 0.250000 0.000000
O O5 0.163312 0.988206 0.857945
O O6 0.251968 0.985783 0.773121
O O7 0.183942 0.697835 0.794395
O O8 0.326893 0.841266 0.923997
O O9 0.500000 0.587094 0.250000
O O10 0.471391 0.329284 0.146245
O O11 0.429301 0.668988 0.087474
O O12 0.926351 0.534896 0.329024
O O13 0.000000 0.575456 0.250000
O O14 0.750000 0.250000 0.000000
#
# Coordination Sequence:
#
# PCOD9259073 Si02
#       6
#     8   8   8   8   8   8
#     4  10  18  34  59  84 114 154 205 248 296 361
#     4  10  23  39  61  87 127 159 199 251 312 360
#     4  10  20  36  64  89 115 157 207 246 298 363
#     4   9  19  34  59  87 115 154 205 243 293 360
#     4  10  23  37  58  89 121 159 199 249 309 357
#     4   9  19  35  56  89 115 156 202 248 297 362
#
# _framework density 23.609824
#
# number of rings (size 3 to 8) (size 9 to 14) (size 15 to 20)
#    0.000    2.333    1.667    0.000    7.000    4.667 
#    0.000    2.500    0.000    6.000    0.000    0.000 
#    0.000    0.000    0.000    0.000    0.000    0.000 
#
# Total GULP energy -133660.462225 kJ/mol
# GULP energy per Si atom -5569.185926 kJ/mol
# Density = 2.355609 g / cm^3
# Si number density = 23.609824 Si / 1000 Ang^3
#
#
#
# Elastic Constant Matrix: (Units=GPa)
#
#
# Indices 1 2 3 4 5 6 
#
# 1 49.3933 6.7880 10.2344 0.0000 -5.4276 0.0000
# 2 6.7880 62.7637 16.7671 0.0000 2.2342 0.0000
# 3 10.2344 16.7671 121.1513 0.0000 22.2762 0.0000
# 4 0.0000 0.0000 0.0000 20.9626 0.0000 -7.6859
# 5 -5.4276 2.2342 22.2762 0.0000 34.2975 0.0000
# 6 0.0000 0.0000 0.0000 -7.6859 0.0000 15.8085
#
#
#
# Elastic Compliance Matrix: (Units=1/GPa)
#
#
# Indices 1 2 3 4 5 6 
#
# 1 0.021590 -0.001846 -0.002520 0.000000 0.005173 0.000000
# 2 -0.001846 0.016709 -0.002161 0.000000 0.000023 0.000000
# 3 -0.002520 -0.002161 0.010009 0.000000 -0.006759 0.000000
# 4 0.000000 0.000000 0.000000 0.058052 0.000000 0.028224
# 5 0.005173 0.000023 -0.006759 0.000000 0.034364 0.000000
# 6 0.000000 0.000000 0.000000 0.028224 0.000000 0.076979
#
#
# Mechanical properties :
#
#
# Convention : Reuss Voigt Hill
#
# Bulk Modulus (GPa) = 28.36493 33.43194 30.89843
# Shear Modulus (GPa) = 20.61795 27.51498 24.06646
#
# Velocity S-wave (km/s) = 2.95833 3.41750 3.19618
# Velocity P-wave (km/s) = 4.86920 5.45558 5.17071
#
# Compressibility (1/GPa) = 0.03525481
#
# Stress axis : x y z
#
# Youngs Moduli (GPa) = 46.31795 59.84856 99.91261
#
# Poissons Ratio (x) = 0.11048 0.25174
# Poissons Ratio (y) = 0.08551 0.21588
# Poissons Ratio (z) = 0.11670 0.12932
#
# Static dielectric constant tensor:
#      x y z
#    x 1.905550 0.000000 0.054590 
#    y 0.000000 2.126330 0.000000 
#    z 0.054590 0.000000 1.989480 
# 
# From -- ./inp_files/247629.got.cif
#   From: 2010.05.17/outbox.cif.g08.bks.cpg/sg15_124_cif.got.tgz:247629.got - 2010.06.03 18:47:42.
