data_PCOD9259694
_publ_section_title
;
Structure prediction by ZEFSAII (Michael W. Deem and Ramdas Pophale) SiO2 
 PCOD9259694
Probable space group: C 2/C
;
_chemical_formula_sum "Si O2"
_cell_formula_units_Z 44
_cell_length_a 10.327084
_cell_length_b 11.815783
_cell_length_c 17.619354
_cell_angle_alpha 90.000000
_cell_angle_beta 132.760692
_cell_angle_gamma 90.000000
_cell_volume 1578.490993
_symmetry_space_group_name_H-M "C 2/C"
_symmetry_group_IT_number 15
_symmetry_cell_setting 'monoclinic'
loop_
_space_group_symop_operation_xyz
x,y,z
-x,y,1/2-z
-x,-y,-z
x,-y,1/2+z
1/2+x,1/2+y,z
1/2-x,1/2+y,1/2-z
1/2-x,1/2-y,-z
1/2+x,1/2-y,1/2+z
loop_
_atom_site_type_symbol
_atom_site_label
_atom_site_fract_x
_atom_site_fract_y
_atom_site_fract_z
Si Si1 0.326179 0.995623 0.651166
Si Si2 0.355160 0.644622 0.293441
Si Si3 0.489133 0.207286 0.116300
Si Si4 0.615939 0.137825 0.586292
Si Si5 0.500000 0.395284 0.250000
Si Si6 0.731009 0.619051 0.471823
O O1 0.500000 0.063323 0.750000
O O2 0.206156 0.058853 0.543148
O O3 0.217911 0.950586 0.678675
O O4 0.410921 0.889126 0.640303
O O5 0.191999 0.677170 0.175280
O O6 0.375323 0.759495 0.350581
O O7 0.552881 0.607406 0.351994
O O8 0.492978 0.318410 0.169874
O O9 0.387165 0.198884 0.996994
O O10 0.425911 0.079097 0.523505
O O11 0.794023 0.065583 0.669270
O O12 0.750000 0.750000 0.500000
#
# Coordination Sequence:
#
# PCOD9259694 Si02
#       6
#     8   8   8   8   4   8
#     4  10  19  38  62  85 112 164 212 241 285 367
#     4   9  19  38  59  89 120 162 206 238 293 376
#     4  10  18  35  64  84 116 159 206 251 292 351
#     4  10  20  35  57  92 121 158 196 261 301 346
#     4  10  18  36  58  88 122 154 220 244 292 372
#     4  10  22  39  53  87 127 151 197 253 309 362
#
# _framework density 27.874722999999999
#
# number of rings (size 3 to 8) (size 9 to 14) (size 15 to 20)
#    0.000    2.182    4.545    1.091    0.000    1.455 
#   19.636    3.636    0.000    0.000    0.000    0.000 
#    0.000    0.000    0.000    0.000    0.000    0.000 
#
# Total GULP energy -123173.959158 kJ/mol
# GULP energy per Si atom -5598.816325 kJ/mol
# Density = 2.781128 g / cm^3
# Si number density = 27.874723 Si / 1000 Ang^3
#
#
#
# Elastic Constant Matrix: (Units=GPa)
#
#
# Indices 1 2 3 4 5 6 
#
# 1 133.7436 30.2053 51.1548 0.0000 50.8683 0.0000
# 2 30.2053 37.6881 -1.9912 0.0000 9.7662 0.0000
# 3 51.1548 -1.9912 210.3918 0.0000 55.5176 0.0000
# 4 0.0000 0.0000 0.0000 17.4571 0.0000 10.6711
# 5 50.8683 9.7662 55.5176 0.0000 70.0867 0.0000
# 6 0.0000 0.0000 0.0000 10.6711 0.0000 46.0493
#
#
#
# Elastic Compliance Matrix: (Units=1/GPa)
#
#
# Indices 1 2 3 4 5 6 
#
# 1 0.012447 -0.008268 -0.001296 0.000000 -0.006856 0.000000
# 2 -0.008268 0.033457 0.002495 0.000000 -0.000638 0.000000
# 3 -0.001296 0.002495 0.006239 0.000000 -0.004350 0.000000
# 4 0.000000 0.000000 0.000000 0.066737 0.000000 -0.015465
# 5 -0.006856 -0.000638 -0.004350 0.000000 0.022778 0.000000
# 6 0.000000 0.000000 0.000000 -0.015465 0.000000 0.025300
#
#
# Mechanical properties :
#
#
# Convention : Reuss Voigt Hill
#
# Bulk Modulus (GPa) = 26.31074 60.06236 43.18655
# Shear Modulus (GPa) = 25.80453 46.88225 36.34339
#
# Velocity S-wave (km/s) = 3.04589 4.10554 3.61475
# Velocity P-wave (km/s) = 4.67218 6.63837 5.74009
#
# Compressibility (1/GPa) = 0.03800730
#
# Stress axis : x y z
#
# Youngs Moduli (GPa) = 80.33832 29.88905 160.26953
#
# Poissons Ratio (x) = 0.24712 0.20765
# Poissons Ratio (y) = 0.66423 -0.39991
# Poissons Ratio (z) = 0.10409 -0.07458
#
# Static dielectric constant tensor:
#      x y z
#    x 2.260580 0.000000 0.097420 
#    y 0.000000 2.159560 0.000000 
#    z 0.097420 0.000000 2.165670 
# 
# From -- ./inp_files/238882.got.cif
#   From: 2010.05.17/outbox.cif.g08.bks.cpg/sg15_120_cif.got.tgz:238882.got - 2010.06.03 18:47:42.
