data_PCOD9259698
_publ_section_title
;
Structure prediction by ZEFSAII (Michael W. Deem and Ramdas Pophale) SiO2 
 PCOD9259698
Probable space group: C 2/C
;
_chemical_formula_sum "Si O2"
_cell_formula_units_Z 64
_cell_length_a 14.185710
_cell_length_b 13.008289
_cell_length_c 20.618042
_cell_angle_alpha 90.000000
_cell_angle_beta 125.756614
_cell_angle_gamma 90.000000
_cell_volume 3087.526506
_symmetry_space_group_name_H-M "C 2/C"
_symmetry_group_IT_number 15
_symmetry_cell_setting 'monoclinic'
loop_
_space_group_symop_operation_xyz
x,y,z
-x,y,1/2-z
-x,-y,-z
x,-y,1/2+z
1/2+x,1/2+y,z
1/2-x,1/2+y,1/2-z
1/2-x,1/2-y,-z
1/2+x,1/2-y,1/2+z
loop_
_atom_site_type_symbol
_atom_site_label
_atom_site_fract_x
_atom_site_fract_y
_atom_site_fract_z
Si Si1 0.810011 0.356361 0.542270
Si Si2 0.332797 0.772694 0.310107
Si Si3 0.527780 0.088856 0.191145
Si Si4 0.078401 0.637288 0.874871
Si Si5 0.708003 0.667670 0.634622
Si Si6 0.402814 0.146314 0.471200
Si Si7 0.725941 0.432200 0.650427
Si Si8 0.666329 0.936358 0.084349
O O1 0.750000 0.250000 0.500000
O O2 0.762318 0.402032 0.591019
O O3 0.785360 0.423593 0.468540
O O4 0.950764 0.347695 0.608996
O O5 0.459436 0.799056 0.332213
O O6 0.241218 0.778491 0.215329
O O7 0.344616 0.664710 0.351428
O O8 0.287484 0.860442 0.342193
O O9 0.500000 0.137413 0.250000
O O10 0.663382 0.066922 0.255504
O O11 0.468239 0.976931 0.159620
O O12 0.173662 0.667319 0.860689
O O13 0.135253 0.641967 0.968902
O O14 0.615796 0.740325 0.562516
O O15 0.676096 0.547563 0.630008
O O16 0.534486 0.106593 0.527166
O O17 0.337655 0.057795 0.403606
#
# Coordination Sequence:
#
# PCOD9259698 Si02
#       8
#     8   8   8   8   8   8   8   8
#     4  11  20  37  63  91 128 163 213 264 320 379
#     4  11  24  35  61  90 131 156 211 266 320 375
#     4  10  18  35  64  89 116 166 216 256 298 383
#     4  11  19  41  61  93 117 168 212 263 311 388
#     4  12  23  38  65  93 125 165 217 265 329 382
#     4  10  23  36  66  92 120 154 217 277 310 376
#     4  11  23  39  63  97 125 168 214 263 323 393
#     4  10  21  40  58  92 122 162 208 264 319 375
#
# _framework density 20.728567000000002
#
# number of rings (size 3 to 8) (size 9 to 14) (size 15 to 20)
#    0.000    1.250    6.250    0.750    3.500    0.000 
#    0.000    2.500    2.750    0.000    0.000    0.000 
#    0.000    0.000    0.000    0.000    0.000    0.000 
#
# Total GULP energy -178392.906712 kJ/mol
# GULP energy per Si atom -5574.778335 kJ/mol
# Density = 2.068139 g / cm^3
# Si number density = 20.728567 Si / 1000 Ang^3
#
#
#
# Elastic Constant Matrix: (Units=GPa)
#
#
# Indices 1 2 3 4 5 6 
#
# 1 29.1296 12.6949 5.4732 0.0000 -14.3196 0.0000
# 2 12.6949 125.7999 28.9906 0.0000 -1.8005 0.0000
# 3 5.4732 28.9906 87.1293 0.0000 -21.1832 0.0000
# 4 0.0000 0.0000 0.0000 34.0780 0.0000 3.1373
# 5 -14.3196 -1.8005 -21.1832 0.0000 31.6077 0.0000
# 6 0.0000 0.0000 0.0000 3.1373 0.0000 28.7498
#
#
#
# Elastic Compliance Matrix: (Units=1/GPa)
#
#
# Indices 1 2 3 4 5 6 
#
# 1 0.047990 -0.005607 0.004850 0.000000 0.024672 0.000000
# 2 -0.005607 0.009342 -0.003876 0.000000 -0.004606 0.000000
# 3 0.004850 -0.003876 0.015462 0.000000 0.012339 0.000000
# 4 0.000000 0.000000 0.000000 0.029642 0.000000 -0.003235
# 5 0.024672 -0.004606 0.012339 0.000000 0.050822 0.000000
# 6 0.000000 0.000000 0.000000 -0.003235 0.000000 0.035136
#
#
# Mechanical properties :
#
#
# Convention : Reuss Voigt Hill
#
# Bulk Modulus (GPa) = 15.74130 37.37513 26.55821
# Shear Modulus (GPa) = 22.84788 31.88044 27.36416
#
# Velocity S-wave (km/s) = 3.32360 3.92598 3.63729
# Velocity P-wave (km/s) = 4.72641 6.21458 5.52087
#
# Compressibility (1/GPa) = 0.06352717
#
# Stress axis : x y z
#
# Youngs Moduli (GPa) = 20.83749 107.04000 64.67434
#
# Poissons Ratio (x) = 0.60021 -0.31364
# Poissons Ratio (y) = 0.11684 0.25068
# Poissons Ratio (z) = -0.10105 0.41489
#
# Static dielectric constant tensor:
#      x y z
#    x 1.806640 0.000000 -0.026200 
#    y 0.000000 1.762340 0.000000 
#    z -0.026200 0.000000 1.803020 
# 
# From -- ./inp_files/248653.got.cif
#   From: 2010.05.17/outbox.cif.g08.bks.cpg/sg15_125_cif.got.tgz:248653.got - 2010.06.03 18:47:42.
