data_PCOD9259255
_publ_section_title
;
Structure prediction by ZEFSAII (Michael W. Deem and Ramdas Pophale) SiO2 
 PCOD9259255
Probable space group: C 2/C
;
_chemical_formula_sum "Si O2"
_cell_formula_units_Z 60
_cell_length_a 9.014155
_cell_length_b 16.068550
_cell_length_c 22.229225
_cell_angle_alpha 90.000000
_cell_angle_beta 113.949015
_cell_angle_gamma 90.000000
_cell_volume 2942.578458
_symmetry_space_group_name_H-M "C 2/C"
_symmetry_group_IT_number 15
_symmetry_cell_setting 'monoclinic'
loop_
_space_group_symop_operation_xyz
x,y,z
-x,y,1/2-z
-x,-y,-z
x,-y,1/2+z
1/2+x,1/2+y,z
1/2-x,1/2+y,1/2-z
1/2-x,1/2-y,-z
1/2+x,1/2-y,1/2+z
loop_
_atom_site_type_symbol
_atom_site_label
_atom_site_fract_x
_atom_site_fract_y
_atom_site_fract_z
Si Si1 0.719221 0.876289 0.045926
Si Si2 0.917214 0.970040 0.548858
Si Si3 0.511397 0.762012 0.933358
Si Si4 0.598690 0.797037 0.138509
Si Si5 0.887326 0.331643 0.673508
Si Si6 0.242687 0.658614 0.952270
Si Si7 0.500000 0.126283 0.750000
Si Si8 0.743001 0.013964 0.855832
O O1 0.861823 0.815303 0.045101
O O2 0.697113 0.863710 0.113673
O O3 0.769838 0.969122 0.039851
O O4 0.570288 0.839468 0.983255
O O5 0.843873 0.878573 0.525227
O O6 0.000000 0.000000 0.500000
O O7 0.066692 0.989231 0.618844
O O8 0.515899 0.791457 0.865773
O O9 0.350221 0.721524 0.931472
O O10 0.716073 0.717077 0.154280
O O11 0.430401 0.796800 0.073475
O O12 0.549954 0.821526 0.198583
O O13 0.847489 0.426806 0.651828
O O14 0.000000 0.325850 0.750000
O O15 0.217754 0.574735 0.908632
O O16 0.654661 0.067137 0.789589
#
# Coordination Sequence:
#
# PCOD9259255 Si02
#       8
#     8   8   8   8   8   8   4   8
#     4  10  20  37  60  98 124 163 212 262 313 380
#     4  10  18  34  63  89 125 160 208 254 317 380
#     4  10  20  36  63  92 130 163 212 260 314 386
#     4  10  25  39  66  92 130 164 217 266 327 382
#     4  11  24  40  65  94 120 168 223 266 311 392
#     4  10  21  38  66  93 126 174 198 260 336 372
#     4  10  22  44  66  84 130 170 214 258 330 386
#     4  10  20  39  64  90 117 169 214 258 314 389
#
# _framework density 20.390281000000002
#
# number of rings (size 3 to 8) (size 9 to 14) (size 15 to 20)
#    0.000    1.867    3.333    1.600    7.467    1.067 
#    0.000    0.000    2.933    0.000    0.000    0.000 
#    0.000    0.000    0.000    0.000    0.000    0.000 
#
# Total GULP energy -167204.263885 kJ/mol
# GULP energy per Si atom -5573.475463 kJ/mol
# Density = 2.034387 g / cm^3
# Si number density = 20.390281 Si / 1000 Ang^3
#
#
#
# Elastic Constant Matrix: (Units=GPa)
#
#
# Indices 1 2 3 4 5 6 
#
# 1 92.7657 34.7912 32.9039 0.0000 -1.1523 0.0000
# 2 34.7912 110.8435 40.0273 0.0000 -8.4227 0.0000
# 3 32.9039 40.0273 86.9434 0.0000 0.7087 0.0000
# 4 0.0000 0.0000 0.0000 17.6139 0.0000 -1.1286
# 5 -1.1523 -8.4227 0.7087 0.0000 29.5480 0.0000
# 6 0.0000 0.0000 0.0000 -1.1286 0.0000 17.5572
#
#
#
# Elastic Compliance Matrix: (Units=1/GPa)
#
#
# Indices 1 2 3 4 5 6 
#
# 1 0.013135 -0.002811 -0.003675 0.000000 -0.000201 0.000000
# 2 -0.002811 0.011734 -0.004366 0.000000 0.003340 0.000000
# 3 -0.003675 -0.004366 0.014917 0.000000 -0.001746 0.000000
# 4 0.000000 0.000000 0.000000 0.057008 0.000000 0.003665
# 5 -0.000201 0.003340 -0.001746 0.000000 0.034829 0.000000
# 6 0.000000 0.000000 0.000000 0.003665 0.000000 0.057192
#
#
# Mechanical properties :
#
#
# Convention : Reuss Voigt Hill
#
# Bulk Modulus (GPa) = 55.30220 56.22193 55.76207
# Shear Modulus (GPa) = 23.08961 25.13249 24.11105
#
# Velocity S-wave (km/s) = 3.36874 3.51461 3.44245
# Velocity P-wave (km/s) = 6.50476 6.64099 6.57323
#
# Compressibility (1/GPa) = 0.01808246
#
# Stress axis : x y z
#
# Youngs Moduli (GPa) = 76.13136 85.22005 67.03841
#
# Poissons Ratio (x) = 0.23954 0.24639
# Poissons Ratio (y) = 0.21400 0.29267
# Poissons Ratio (z) = 0.27981 0.37205
#
# Static dielectric constant tensor:
#      x y z
#    x 2.035060 0.000000 0.025630 
#    y 0.000000 1.728830 0.000000 
#    z 0.025630 0.000000 1.778040 
# 
# From -- ./inp_files/264776.got.cif
#   From: 2010.05.17/outbox.cif.g08.bks.cpg/sg15_133_cif.got.tgz:264776.got - 2010.06.03 18:47:42.
