data_PCOD9259862
_publ_section_title
;
Structure prediction by ZEFSAII (Michael W. Deem and Ramdas Pophale) SiO2 
 PCOD9259862
Probable space group: C 2/C
;
_chemical_formula_sum "Si O2"
_cell_formula_units_Z 48
_cell_length_a 14.684323
_cell_length_b 15.820472
_cell_length_c 13.950866
_cell_angle_alpha 90.000000
_cell_angle_beta 134.966037
_cell_angle_gamma 90.000000
_cell_volume 2293.067385
_symmetry_space_group_name_H-M "C 2/C"
_symmetry_group_IT_number 15
_symmetry_cell_setting 'monoclinic'
loop_
_space_group_symop_operation_xyz
x,y,z
-x,y,1/2-z
-x,-y,-z
x,-y,1/2+z
1/2+x,1/2+y,z
1/2-x,1/2+y,1/2-z
1/2-x,1/2-y,-z
1/2+x,1/2-y,1/2+z
loop_
_atom_site_type_symbol
_atom_site_label
_atom_site_fract_x
_atom_site_fract_y
_atom_site_fract_z
Si Si1 0.222459 0.618804 0.059411
Si Si2 0.573735 0.919745 0.112721
Si Si3 0.142891 0.289768 0.312003
Si Si4 0.756482 0.937830 0.084734
Si Si5 0.864421 0.423105 0.706349
Si Si6 0.350574 0.259060 0.164859
O O1 0.209508 0.646871 0.938114
O O2 0.077451 0.597309 0.984972
O O3 0.284076 0.702563 0.147490
O O4 0.300848 0.533283 0.138481
O O5 0.635049 0.838437 0.207457
O O6 0.620052 0.925113 0.038406
O O7 0.627021 0.001779 0.210169
O O8 0.000000 0.274845 0.250000
O O9 0.833239 0.857075 0.180352
O O10 0.736313 0.937711 0.955419
O O11 0.834792 0.326434 0.716903
O O12 0.000000 0.426889 0.750000
O O13 0.500000 0.253035 0.250000
O O14 0.250000 0.250000 0.000000
#
# Coordination Sequence:
#
# PCOD9259862 Si02
#       6
#     8   8   8   8   8   8
#     4  10  19  34  57  83 113 154 195 236 291 354
#     4  11  20  35  58  89 115 147 203 244 287 361
#     4   9  19  36  55  80 115 155 188 238 297 346
#     4  11  21  34  57  89 111 152 197 243 298 351
#     4  10  18  36  58  80 115 152 192 248 289 347
#     4   9  21  39  61  85 117 159 202 249 305 360
#
# _framework density 20.932659999999998
#
# number of rings (size 3 to 8) (size 9 to 14) (size 15 to 20)
#    0.000    2.000    3.333    1.000    0.000    2.000 
#    6.000    0.000    0.000    4.000    0.000    0.000 
#    0.000    0.000    0.000    0.000    0.000    0.000 
#
# Total GULP energy -133607.350103 kJ/mol
# GULP energy per Si atom -5566.972921 kJ/mol
# Density = 2.088502 g / cm^3
# Si number density = 20.932660 Si / 1000 Ang^3
#
#
#
# Elastic Constant Matrix: (Units=GPa)
#
#
# Indices 1 2 3 4 5 6 
#
# 1 46.2582 32.0831 17.8766 0.0000 -9.3440 0.0000
# 2 32.0831 185.9616 33.8843 0.0000 6.8039 0.0000
# 3 17.8766 33.8843 56.4850 0.0000 -1.1281 0.0000
# 4 0.0000 0.0000 0.0000 38.5263 0.0000 4.4943
# 5 -9.3440 6.8039 -1.1281 0.0000 18.5511 0.0000
# 6 0.0000 0.0000 0.0000 4.4943 0.0000 20.4793
#
#
#
# Elastic Compliance Matrix: (Units=1/GPa)
#
#
# Indices 1 2 3 4 5 6 
#
# 1 0.030862 -0.004742 -0.006585 0.000000 0.016884 0.000000
# 2 -0.004742 0.006878 -0.002727 0.000000 -0.005077 0.000000
# 3 -0.006585 -0.002727 0.021403 0.000000 -0.001015 0.000000
# 4 0.000000 0.000000 0.000000 0.026638 0.000000 -0.005846
# 5 0.016884 -0.005077 -0.001015 0.000000 0.064210 0.000000
# 6 0.000000 0.000000 0.000000 -0.005846 0.000000 0.050113
#
#
# Mechanical properties :
#
#
# Convention : Reuss Voigt Hill
#
# Bulk Modulus (GPa) = 32.22145 50.71030 41.46588
# Shear Modulus (GPa) = 20.95921 29.16874 25.06398
#
# Velocity S-wave (km/s) = 3.16772 3.73695 3.46405
# Velocity P-wave (km/s) = 5.36708 6.54964 5.98763
#
# Compressibility (1/GPa) = 0.03103522
#
# Stress axis : x y z
#
# Youngs Moduli (GPa) = 32.40188 145.38644 46.72167
#
# Poissons Ratio (x) = 0.68948 0.30768
# Poissons Ratio (y) = 0.15366 0.12739
# Poissons Ratio (z) = 0.21338 0.39642
#
# Static dielectric constant tensor:
#      x y z
#    x 1.742030 0.000000 -0.007400 
#    y 0.000000 1.830810 0.000000 
#    z -0.007400 0.000000 1.774860 
# 
# From -- ./inp_files/153797.got.cif
#   From: 2010.05.17/outbox.cif.g08.bks.cpg/sg15_77_cif.got.tgz:153797.got - 2010.06.03 18:47:42.
