data_PCOD9259403
_publ_section_title
;
Structure prediction by ZEFSAII (Michael W. Deem and Ramdas Pophale) SiO2 
 PCOD9259403
Probable space group: C 2/C
;
_chemical_formula_sum "Si O2"
_cell_formula_units_Z 64
_cell_length_a 17.260609
_cell_length_b 9.188739
_cell_length_c 20.368649
_cell_angle_alpha 90.000000
_cell_angle_beta 87.502880
_cell_angle_gamma 90.000000
_cell_volume 3227.465871
_symmetry_space_group_name_H-M "C 2/C"
_symmetry_group_IT_number 15
_symmetry_cell_setting 'monoclinic'
loop_
_space_group_symop_operation_xyz
x,y,z
-x,y,1/2-z
-x,-y,-z
x,-y,1/2+z
1/2+x,1/2+y,z
1/2-x,1/2+y,1/2-z
1/2-x,1/2-y,-z
1/2+x,1/2-y,1/2+z
loop_
_atom_site_type_symbol
_atom_site_label
_atom_site_fract_x
_atom_site_fract_y
_atom_site_fract_z
Si Si1 0.792319 0.338043 0.185142
Si Si2 0.489548 0.758064 0.500295
Si Si3 0.690078 0.831610 0.785237
Si Si4 0.444793 0.662057 0.641784
Si Si5 0.946033 0.589834 0.306481
Si Si6 0.756906 0.841346 0.565763
Si Si7 0.083105 0.145635 0.378438
Si Si8 0.603221 0.003548 0.054610
O O1 0.759296 0.264739 0.252597
O O2 0.786460 0.511348 0.187438
O O3 0.743155 0.270119 0.126618
O O4 0.878948 0.278322 0.164481
O O5 0.465882 0.663634 0.563761
O O6 0.515956 0.686374 0.431547
O O7 0.562300 0.859277 0.520062
O O8 0.418636 0.865570 0.487249
O O9 0.636064 0.741529 0.837323
O O10 0.633657 0.872505 0.726337
O O11 0.509988 0.761480 0.673939
O O12 0.439415 0.494576 0.663035
O O13 0.935716 0.497596 0.372312
O O14 0.000000 0.516563 0.250000
O O15 0.750000 0.750000 0.500000
O O16 0.842540 0.899071 0.578816
O O17 0.692643 0.964756 0.563243
#
# Coordination Sequence:
#
# PCOD9259403 Si02
#       8
#     8   8   8   8   8   8   8   8
#     4  10  23  36  67  86 118 161 204 251 302 372
#     4  10  21  32  62  88 124 155 203 253 305 365
#     4  11  21  40  61  87 115 158 207 243 307 366
#     4  10  22  37  61  86 122 159 197 249 310 364
#     4   9  19  33  60  77 112 154 195 237 296 360
#     4  10  20  36  62  86 120 157 205 251 308 366
#     4  10  21  38  60  88 120 159 202 252 309 362
#     4  10  18  35  56  90 115 155 206 245 303 365
#
# _framework density 19.829799000000001
#
# number of rings (size 3 to 8) (size 9 to 14) (size 15 to 20)
#    0.750    1.250    2.500    1.125    8.750    0.000 
#    0.000    0.625   16.500    0.000    0.000    0.000 
#    0.000    0.000    0.000    0.000    0.000    0.000 
#
# Total GULP energy -178307.041702 kJ/mol
# GULP energy per Si atom -5572.095053 kJ/mol
# Density = 1.978467 g / cm^3
# Si number density = 19.829799 Si / 1000 Ang^3
#
#
#
# Elastic Constant Matrix: (Units=GPa)
#
#
# Indices 1 2 3 4 5 6 
#
# 1 36.7646 5.9674 9.4279 0.0000 -1.2431 0.0000
# 2 5.9674 48.8232 1.3143 0.0000 -10.7332 0.0000
# 3 9.4279 1.3143 37.8489 0.0000 -17.2196 0.0000
# 4 0.0000 0.0000 0.0000 18.0242 0.0000 -5.0018
# 5 -1.2431 -10.7332 -17.2196 0.0000 22.7571 0.0000
# 6 0.0000 0.0000 0.0000 -5.0018 0.0000 19.9705
#
#
#
# Elastic Compliance Matrix: (Units=1/GPa)
#
#
# Indices 1 2 3 4 5 6 
#
# 1 0.030887 -0.005683 -0.012121 0.000000 -0.010165 0.000000
# 2 -0.005683 0.024916 0.008777 0.000000 0.018082 0.000000
# 3 -0.012121 0.008777 0.046843 0.000000 0.038922 0.000000
# 4 0.000000 0.000000 0.000000 0.059625 0.000000 0.014934
# 5 -0.010165 0.018082 0.038922 0.000000 0.081367 0.000000
# 6 0.000000 0.000000 0.000000 0.014934 0.000000 0.053814
#
#
# Mechanical properties :
#
#
# Convention : Reuss Voigt Hill
#
# Bulk Modulus (GPa) = 11.82155 17.42843 14.62499
# Shear Modulus (GPa) = 14.54740 19.26550 16.90645
#
# Velocity S-wave (km/s) = 2.71147 3.12034 2.92306
# Velocity P-wave (km/s) = 3.97205 4.66799 4.33401
#
# Compressibility (1/GPa) = 0.08459126
#
# Stress axis : x y z
#
# Youngs Moduli (GPa) = 32.37589 40.13553 21.34779
#
# Poissons Ratio (x) = 0.22811 0.25876
# Poissons Ratio (y) = 0.18401 -0.18737
# Poissons Ratio (z) = 0.39243 -0.35227
#
# Static dielectric constant tensor:
#      x y z
#    x 1.712310 0.000000 -0.023340 
#    y 0.000000 1.709100 0.000000 
#    z -0.023340 0.000000 1.706130 
# 
# From -- ./inp_files/276289.got.cif
#   From: 2010.05.17/outbox.cif.g08.bks.cpg/sg15_139_cif.got.tgz:276289.got - 2010.06.03 18:47:42.
