data_PCOD9259075
_publ_section_title
;
Structure prediction by ZEFSAII (Michael W. Deem and Ramdas Pophale) SiO2 
 PCOD9259075
Probable space group: C 2/C
;
_chemical_formula_sum "Si O2"
_cell_formula_units_Z 60
_cell_length_a 12.038006
_cell_length_b 28.744628
_cell_length_c 20.757800
_cell_angle_alpha 90.000000
_cell_angle_beta 27.409958
_cell_angle_gamma 90.000000
_cell_volume 3306.622129
_symmetry_space_group_name_H-M "C 2/C"
_symmetry_group_IT_number 15
_symmetry_cell_setting 'monoclinic'
loop_
_space_group_symop_operation_xyz
x,y,z
-x,y,1/2-z
-x,-y,-z
x,-y,1/2+z
1/2+x,1/2+y,z
1/2-x,1/2+y,1/2-z
1/2-x,1/2-y,-z
1/2+x,1/2-y,1/2+z
loop_
_atom_site_type_symbol
_atom_site_label
_atom_site_fract_x
_atom_site_fract_y
_atom_site_fract_z
Si Si1 0.741643 0.005830 0.419802
Si Si2 0.599650 0.106359 0.513260
Si Si3 0.500000 0.326521 0.750000
Si Si4 0.449619 0.754911 0.708456
Si Si5 0.157947 0.172841 0.514879
Si Si6 0.469994 0.747351 0.160466
Si Si7 0.155487 0.350309 0.231572
Si Si8 0.234623 0.096666 0.584045
O O1 0.699947 0.054748 0.476550
O O2 0.000000 0.009963 0.250000
O O3 0.500000 0.000000 0.500000
O O4 0.755906 0.956121 0.448136
O O5 0.813279 0.141892 0.385833
O O6 0.433381 0.123631 0.657663
O O7 0.450794 0.103868 0.523195
O O8 0.607651 0.292152 0.748752
O O9 0.500000 0.730538 0.750000
O O10 0.598304 0.802869 0.635174
O O11 0.538205 0.718451 0.609495
O O12 0.173298 0.761556 0.832045
O O13 0.223757 0.134798 0.534418
O O14 0.948720 0.150522 0.577619
O O15 0.412481 0.796734 0.221582
O O16 0.750000 0.750000 0.000000
O O17 0.000000 0.366783 0.250000
O O18 0.000000 0.100010 0.750000
#
# Coordination Sequence:
#
# PCOD9259075 Si02
#       8
#     8   8   4   8   8   8   8   8
#     4   9  19  34  57  90 118 140 176 239 301 342
#     4  11  21  35  57  86 115 146 184 238 287 344
#     4  12  22  34  56  78 118 148 190 232 286 332
#     4  10  23  35  55  79 113 147 191 237 276 333
#     4  10  21  37  56  81 109 147 191 236 280 334
#     4  11  23  35  51  79 112 154 186 232 283 336
#     4  11  23  37  55  78 112 155 196 227 274 351
#     4  10  18  34  59  86 109 137 182 234 292 332
#
# _framework density 18.145406000000001
#
# number of rings (size 3 to 8) (size 9 to 14) (size 15 to 20)
#    0.000    1.600    4.000    1.200    3.733    1.067 
#    0.000    0.000    0.000    1.600    0.000    0.000 
#    0.000    0.000    0.000    0.000    0.000    0.000 
#
# Total GULP energy -167061.033597 kJ/mol
# GULP energy per Si atom -5568.701120 kJ/mol
# Density = 1.810411 g / cm^3
# Si number density = 18.145406 Si / 1000 Ang^3
#
#
#
# Elastic Constant Matrix: (Units=GPa)
#
#
# Indices 1 2 3 4 5 6 
#
# 1 92.8750 9.0577 21.3242 -0.0078 -18.0127 0.0088
# 2 9.0577 107.7955 18.6354 0.0058 -0.3062 -0.0002
# 3 21.3242 18.6354 60.7349 -0.0470 -19.4264 0.0489
# 4 -0.0078 0.0058 -0.0470 32.6857 0.0185 -14.1286
# 5 -18.0127 -0.3062 -19.4264 0.0185 22.9302 -0.0191
# 6 0.0088 -0.0002 0.0489 -14.1286 -0.0191 32.9132
#
#
#
# Elastic Compliance Matrix: (Units=1/GPa)
#
#
# Indices 1 2 3 4 5 6 
#
# 1 0.012903 -0.000812 -0.001430 -0.000003 0.008914 0.000003
# 2 -0.000812 0.010035 -0.004053 -0.000005 -0.003938 0.000002
# 3 -0.001430 -0.004053 0.024463 0.000017 0.019547 -0.000017
# 4 -0.000003 -0.000005 0.000017 0.037565 -0.000005 0.016125
# 5 0.008914 -0.003938 0.019547 -0.000005 0.067121 0.000005
# 6 0.000003 0.000002 -0.000017 0.016125 0.000005 0.037305
#
#
# Mechanical properties :
#
#
# Convention : Reuss Voigt Hill
#
# Bulk Modulus (GPa) = 28.72696 39.93777 34.33236
# Shear Modulus (GPa) = 23.40976 31.86503 27.63739
#
# Velocity S-wave (km/s) = 3.59572 4.19512 3.90693
# Velocity P-wave (km/s) = 5.75368 6.74708 6.27008
#
# Compressibility (1/GPa) = 0.03481051
#
# Stress axis : x y z
#
# Youngs Moduli (GPa) = 77.49841 99.65528 40.87757
#
# Poissons Ratio (x) = 0.08088 0.05847
# Poissons Ratio (y) = 0.06290 0.16569
# Poissons Ratio (z) = 0.11085 0.40395
#
# Static dielectric constant tensor:
#      x y z
#    x 1.609900 0.000040 -0.021870 
#    y 0.000040 1.627760 0.000000 
#    z -0.021870 0.000000 1.683920 
# 
# From -- ./inp_files/241091.got.cif
#   From: 2010.05.17/outbox.cif.g08.bks.cpg/sg15_121_cif.got.tgz:241091.got - 2010.06.03 18:47:42.
