data_PCOD9259678
_publ_section_title
;
Structure prediction by ZEFSAII (Michael W. Deem and Ramdas Pophale) SiO2 
 PCOD9259678
Probable space group: C 2/C
;
_chemical_formula_sum "Si O2"
_cell_formula_units_Z 64
_cell_length_a 13.065302
_cell_length_b 15.437821
_cell_length_c 18.454251
_cell_angle_alpha 90.000000
_cell_angle_beta 50.554379
_cell_angle_gamma 90.000000
_cell_volume 2874.401189
_symmetry_space_group_name_H-M "C 2/C"
_symmetry_group_IT_number 15
_symmetry_cell_setting 'monoclinic'
loop_
_space_group_symop_operation_xyz
x,y,z
-x,y,1/2-z
-x,-y,-z
x,-y,1/2+z
1/2+x,1/2+y,z
1/2-x,1/2+y,1/2-z
1/2-x,1/2-y,-z
1/2+x,1/2-y,1/2+z
loop_
_atom_site_type_symbol
_atom_site_label
_atom_site_fract_x
_atom_site_fract_y
_atom_site_fract_z
Si Si1 0.115363 0.763217 0.254167
Si Si2 0.365308 0.502862 0.607676
Si Si3 0.586330 0.754265 0.410955
Si Si4 0.885279 0.438439 0.024848
Si Si5 0.370486 0.473589 0.268665
Si Si6 0.886177 0.516350 0.362495
Si Si7 0.404083 0.812655 0.361567
Si Si8 0.356234 0.700191 0.599029
O O1 0.261555 0.730737 0.168109
O O2 0.112873 0.869033 0.250389
O O3 0.113294 0.746636 0.341644
O O4 0.000000 0.733580 0.250000
O O5 0.500000 0.500000 0.500000
O O6 0.366490 0.479436 0.692235
O O7 0.250208 0.458340 0.614390
O O8 0.314087 0.602762 0.636600
O O9 0.593946 0.845128 0.449418
O O10 0.494418 0.769598 0.382303
O O11 0.497216 0.690608 0.497325
O O12 0.752121 0.478197 0.120803
O O13 0.893745 0.432882 0.934383
O O14 0.000000 0.500000 0.000000
O O15 0.500000 0.507218 0.250000
O O16 0.882580 0.414635 0.388781
O O17 0.000000 0.525220 0.250000
O O18 0.500000 0.811201 0.250000
O O19 0.263366 0.769760 0.400336
#
# Coordination Sequence:
#
# PCOD9259678 Si02
#       8
#     8   8   8   8   8   8   8   8
#     4   9  19  36  55  79 108 151 198 229 271 347
#     4  10  20  36  58  82 113 149 189 237 287 341
#     4  11  21  36  59  85 114 151 189 238 290 341
#     4  11  20  34  55  82 113 144 187 234 281 339
#     4   9  18  33  56  78 106 148 192 234 278 338
#     4  10  20  34  58  87 112 148 193 235 283 339
#     4  10  18  35  63  85 111 148 194 237 282 347
#     4  10  21  36  59  85 113 147 192 238 287 342
#
# _framework density 22.265506999999999
#
# number of rings (size 3 to 8) (size 9 to 14) (size 15 to 20)
#    0.000    2.000    2.500    1.875    3.500    1.500 
#    0.000    3.125    0.000    0.000    0.000    0.000 
#    0.000    0.000    0.000    0.000    0.000    0.000 
#
# Total GULP energy -178444.666339 kJ/mol
# GULP energy per Si atom -5576.395823 kJ/mol
# Density = 2.221483 g / cm^3
# Si number density = 22.265507 Si / 1000 Ang^3
#
#
#
# Elastic Constant Matrix: (Units=GPa)
#
#
# Indices 1 2 3 4 5 6 
#
# 1 210.6019 16.0476 77.4701 0.0000 0.7584 0.0000
# 2 16.0476 30.3301 2.1899 0.0000 3.4289 0.0000
# 3 77.4701 2.1899 113.1536 0.0000 1.4063 0.0000
# 4 0.0000 0.0000 0.0000 20.1526 0.0000 -10.1831
# 5 0.7584 3.4289 1.4063 0.0000 42.2935 0.0000
# 6 0.0000 0.0000 0.0000 -10.1831 0.0000 2.3725
#
#
#
# Elastic Compliance Matrix: (Units=1/GPa)
#
#
# Indices 1 2 3 4 5 6 
#
# 1 0.006645 -0.003224 -0.004491 0.000000 0.000292 0.000000
# 2 -0.003224 0.034882 0.001568 0.000000 -0.002822 0.000000
# 3 -0.004491 0.001568 0.011887 0.000000 -0.000442 0.000000
# 4 0.000000 0.000000 0.000000 -0.042453 0.000000 -0.182217
# 5 0.000292 -0.002822 -0.000442 0.000000 0.023883 0.000000
# 6 0.000000 0.000000 0.000000 -0.182217 0.000000 -0.360611
#
#
# Mechanical properties :
#
#
# Convention : Reuss Voigt Hill
#
# Bulk Modulus (GPa) = 24.31933 60.61120 42.46526
# Shear Modulus (GPa) = -16.67970 30.18894 6.75462
#
# Velocity S-wave (km/s) = -2.73999 3.68620 1.74363
# Velocity P-wave (km/s) = 0.96752 6.73784 4.81324
#
# Compressibility (1/GPa) = 0.04111955
#
# Stress axis : x y z
#
# Youngs Moduli (GPa) = 150.49368 28.66771 84.12460
#
# Poissons Ratio (x) = 0.09244 0.37777
# Poissons Ratio (y) = 0.48526 -0.13187
# Poissons Ratio (z) = 0.67580 -0.04494
#
# Static dielectric constant tensor:
#      x y z
#    x 1.797380 0.000000 -0.060190 
#    y 0.000000 1.871740 0.000000 
#    z -0.060190 0.000000 1.584270 
# 
# From -- ./inp_files/200346.got.cif
#   From: 2010.05.17/outbox.cif.g08.bks.cpg/sg15_101_cif.got.tgz:200346.got - 2010.06.03 18:47:42.
