data_PCOD9259486
_publ_section_title
;
Structure prediction by ZEFSAII (Michael W. Deem and Ramdas Pophale) SiO2 
 PCOD9259486
Probable space group: C 2/C
;
_chemical_formula_sum "Si O2"
_cell_formula_units_Z 56
_cell_length_a 20.906121
_cell_length_b 9.295827
_cell_length_c 13.617198
_cell_angle_alpha 90.000000
_cell_angle_beta 114.779131
_cell_angle_gamma 90.000000
_cell_volume 2402.711932
_symmetry_space_group_name_H-M "C 2/C"
_symmetry_group_IT_number 15
_symmetry_cell_setting 'monoclinic'
loop_
_space_group_symop_operation_xyz
x,y,z
-x,y,1/2-z
-x,-y,-z
x,-y,1/2+z
1/2+x,1/2+y,z
1/2-x,1/2+y,1/2-z
1/2-x,1/2-y,-z
1/2+x,1/2-y,1/2+z
loop_
_atom_site_type_symbol
_atom_site_label
_atom_site_fract_x
_atom_site_fract_y
_atom_site_fract_z
Si Si1 0.713434 0.577378 0.439190
Si Si2 0.847571 0.415266 0.891905
Si Si3 0.157888 0.754493 0.395275
Si Si4 0.066666 0.806411 0.165200
Si Si5 0.118818 0.875599 0.710960
Si Si6 0.571652 0.824265 0.020381
Si Si7 0.749732 0.474624 0.660943
O O1 0.789583 0.597613 0.439086
O O2 0.687343 0.414262 0.402614
O O3 0.652725 0.660755 0.339087
O O4 0.722941 0.587260 0.562347
O O5 0.871393 0.263587 0.861896
O O6 0.808878 0.508652 0.780712
O O7 0.916575 0.504906 0.967017
O O8 0.086806 0.746890 0.285143
O O9 0.137243 0.722178 0.492919
O O10 0.212689 0.645688 0.382412
O O11 0.995726 0.744939 0.074577
O O12 0.071500 0.979073 0.176769
O O13 0.078461 0.747957 0.631255
O O14 0.185825 0.916395 0.685523
#
# Coordination Sequence:
#
# PCOD9259486 Si02
#       7
#     8   8   8   8   8   8   8
#     4  10  18  35  58  87 115 140 188 245 281 332
#     4  10  22  35  60  88 113 151 187 235 292 330
#     4  10  19  34  63  88 106 146 204 239 279 321
#     4  10  23  39  54  85 121 152 188 229 285 344
#     4  10  22  35  60  88 113 151 187 235 292 330
#     4  12  20  38  62  82 114 154 195 236 268 340
#     4  10  18  35  58  87 115 140 188 245 281 332
#
# _framework density 23.306996000000002
#
# number of rings (size 3 to 8) (size 9 to 14) (size 15 to 20)
#    0.000    1.714    2.857    2.571    0.000    3.429 
#    0.000    2.857    0.000    1.714    0.000    0.000 
#    0.000    0.000    0.000    0.000    0.000    0.000 
#
# Total GULP energy -156395.260174 kJ/mol
# GULP energy per Si atom -5585.545006 kJ/mol
# Density = 2.325395 g / cm^3
# Si number density = 23.306996 Si / 1000 Ang^3
#
#
#
# Elastic Constant Matrix: (Units=GPa)
#
#
# Indices 1 2 3 4 5 6 
#
# 1 40.8006 -8.7654 9.3481 0.0000 3.6503 0.0000
# 2 -8.7654 63.1207 -1.0108 0.0000 5.3118 0.0000
# 3 9.3481 -1.0108 57.7246 0.0000 18.9131 0.0000
# 4 0.0000 0.0000 0.0000 26.7266 0.0000 0.8831
# 5 3.6503 5.3118 18.9131 0.0000 42.4766 0.0000
# 6 0.0000 0.0000 0.0000 0.8831 0.0000 15.8992
#
#
#
# Elastic Compliance Matrix: (Units=1/GPa)
#
#
# Indices 1 2 3 4 5 6 
#
# 1 0.026272 0.003670 -0.003864 0.000000 -0.000996 0.000000
# 2 0.003670 0.016583 0.000561 0.000000 -0.002639 0.000000
# 3 -0.003864 0.000561 0.020926 0.000000 -0.009056 0.000000
# 4 0.000000 0.000000 0.000000 0.037485 0.000000 -0.002082
# 5 -0.000996 -0.002639 -0.009056 0.000000 0.027990 0.000000
# 6 0.000000 0.000000 0.000000 -0.002082 0.000000 0.063012
#
#
# Mechanical properties :
#
#
# Convention : Reuss Voigt Hill
#
# Bulk Modulus (GPa) = 15.50005 17.86553 16.68279
# Shear Modulus (GPa) = 23.46977 27.82541 25.64759
#
# Velocity S-wave (km/s) = 3.17674 3.45898 3.32086
# Velocity P-wave (km/s) = 4.48558 4.86155 4.67735
#
# Compressibility (1/GPa) = 0.06451593
#
# Stress axis : x y z
#
# Youngs Moduli (GPa) = 38.06282 60.30133 47.78694
#
# Poissons Ratio (x) = -0.22133 0.18465
# Poissons Ratio (y) = -0.13970 -0.02679
# Poissons Ratio (z) = 0.14707 -0.03380
#
# Static dielectric constant tensor:
#      x y z
#    x 1.855390 0.000000 0.039790 
#    y 0.000000 1.897590 0.000000 
#    z 0.039790 0.000000 1.940110 
# 
# From -- ./inp_files/172496.got.cif
#   From: 2010.05.17/outbox.cif.g08.bks.cpg/sg15_87_cif.got.tgz:172496.got - 2010.06.03 18:47:42.
