data_PCOD9259457
_publ_section_title
;
Structure prediction by ZEFSAII (Michael W. Deem and Ramdas Pophale) SiO2 
 PCOD9259457
Probable space group: C 2/C
;
_chemical_formula_sum "Si O2"
_cell_formula_units_Z 56
_cell_length_a 12.983803
_cell_length_b 21.003561
_cell_length_c 11.180406
_cell_angle_alpha 90.000000
_cell_angle_beta 70.762436
_cell_angle_gamma 90.000000
_cell_volume 2878.712397
_symmetry_space_group_name_H-M "C 2/C"
_symmetry_group_IT_number 15
_symmetry_cell_setting 'monoclinic'
loop_
_space_group_symop_operation_xyz
x,y,z
-x,y,1/2-z
-x,-y,-z
x,-y,1/2+z
1/2+x,1/2+y,z
1/2-x,1/2+y,1/2-z
1/2-x,1/2-y,-z
1/2+x,1/2-y,1/2+z
loop_
_atom_site_type_symbol
_atom_site_label
_atom_site_fract_x
_atom_site_fract_y
_atom_site_fract_z
Si Si1 0.384783 0.521467 0.647147
Si Si2 0.803925 0.733323 0.282529
Si Si3 0.578348 0.791152 0.107484
Si Si4 0.710975 0.336519 0.593904
Si Si5 0.039747 0.158399 0.866620
Si Si6 0.597221 0.232809 0.007310
Si Si7 0.367810 0.520682 0.403972
O O1 0.410712 0.594482 0.602392
O O2 0.325273 0.496586 0.550371
O O3 0.501512 0.487405 0.625119
O O4 0.332104 0.517677 0.798717
O O5 0.760519 0.682603 0.204369
O O6 0.872781 0.785926 0.185160
O O7 0.702651 0.768670 0.384026
O O8 0.875740 0.710770 0.368668
O O9 0.500000 0.805564 0.250000
O O10 0.619351 0.717530 0.103195
O O11 0.691091 0.828348 0.040386
O O12 0.501746 0.800718 0.021524
O O13 0.664696 0.407040 0.611276
O O14 0.000000 0.139763 0.750000
O O15 0.938963 0.192669 0.969357
#
# Coordination Sequence:
#
# PCOD9259457 Si02
#       7
#     8   8   8   8   8   8   8
#     4  10  21  38  56  88 115 169 197 248 317 357
#     4  10  21  34  56  91 118 164 208 244 315 365
#     4  11  22  35  55  85 125 165 198 243 319 371
#     4  11  23  37  57  90 125 164 205 255 306 379
#     4  10  18  35  58  81 129 159 194 251 302 376
#     4  10  20  34  54  86 126 159 200 248 303 375
#     4  10  22  36  56  83 123 151 209 244 301 376
#
# _framework density 19.453143000000001
#
# number of rings (size 3 to 8) (size 9 to 14) (size 15 to 20)
#    0.000    1.714    4.286    0.857    4.000    3.429 
#    2.571    0.000    0.000    0.000    0.000    4.000 
#    0.000    0.000    0.000    0.000    0.000    0.000 
#
# Total GULP energy -156053.112496 kJ/mol
# GULP energy per Si atom -5573.325446 kJ/mol
# Density = 1.940887 g / cm^3
# Si number density = 19.453143 Si / 1000 Ang^3
#
#
#
# Elastic Constant Matrix: (Units=GPa)
#
#
# Indices 1 2 3 4 5 6 
#
# 1 81.1359 12.3715 36.4919 0.0000 21.9582 0.0000
# 2 12.3715 50.6258 10.8917 0.0000 5.9473 0.0000
# 3 36.4919 10.8917 114.7223 0.0000 24.2673 0.0000
# 4 0.0000 0.0000 0.0000 13.7571 0.0000 3.5342
# 5 21.9582 5.9473 24.2673 0.0000 48.1342 0.0000
# 6 0.0000 0.0000 0.0000 3.5342 0.0000 28.7122
#
#
#
# Elastic Compliance Matrix: (Units=1/GPa)
#
#
# Indices 1 2 3 4 5 6 
#
# 1 0.015721 -0.002456 -0.003710 0.000000 -0.004998 0.000000
# 2 -0.002456 0.020675 -0.000983 0.000000 -0.000938 0.000000
# 3 -0.003710 -0.000983 0.010753 0.000000 -0.003607 0.000000
# 4 0.000000 0.000000 0.000000 0.075064 0.000000 -0.009240
# 5 -0.004998 -0.000938 -0.003607 0.000000 0.024990 0.000000
# 6 0.000000 0.000000 0.000000 -0.009240 0.000000 0.035966
#
#
# Mechanical properties :
#
#
# Convention : Reuss Voigt Hill
#
# Bulk Modulus (GPa) = 30.44184 40.66601 35.55392
# Shear Modulus (GPa) = 23.99036 30.56930 27.27983
#
# Velocity S-wave (km/s) = 3.51556 3.96843 3.74884
# Velocity P-wave (km/s) = 5.67112 6.47672 6.08726
#
# Compressibility (1/GPa) = 0.03284953
#
# Stress axis : x y z
#
# Youngs Moduli (GPa) = 63.61005 48.36811 92.99489
#
# Poissons Ratio (x) = 0.11881 0.34504
# Poissons Ratio (y) = 0.15625 0.09142
# Poissons Ratio (z) = 0.23601 0.04755
#
# Static dielectric constant tensor:
#      x y z
#    x 1.715830 0.000000 0.041320 
#    y 0.000000 1.664060 0.000000 
#    z 0.041320 0.000000 1.835870 
# 
# From -- ./inp_files/89543.got.cif
#   From: 2010.05.17/outbox.cif.g08.bks.cpg/sg15_45_cif.got.tgz:89543.got - 2010.06.03 18:47:42.
