data_PCOD9259949
_publ_section_title
;
Structure prediction by ZEFSAII (Michael W. Deem and Ramdas Pophale) SiO2 
 PCOD9259949
Probable space group: C 2/C
;
_chemical_formula_sum "Si O2"
_cell_formula_units_Z 48
_cell_length_a 15.271390
_cell_length_b 11.970289
_cell_length_c 23.665436
_cell_angle_alpha 90.000000
_cell_angle_beta 31.793452
_cell_angle_gamma 90.000000
_cell_volume 2279.249349
_symmetry_space_group_name_H-M "C 2/C"
_symmetry_group_IT_number 15
_symmetry_cell_setting 'monoclinic'
loop_
_space_group_symop_operation_xyz
x,y,z
-x,y,1/2-z
-x,-y,-z
x,-y,1/2+z
1/2+x,1/2+y,z
1/2-x,1/2+y,1/2-z
1/2-x,1/2-y,-z
1/2+x,1/2-y,1/2+z
loop_
_atom_site_type_symbol
_atom_site_label
_atom_site_fract_x
_atom_site_fract_y
_atom_site_fract_z
Si Si1 0.269518 0.217078 0.584786
Si Si2 0.240352 0.460540 0.747208
Si Si3 0.680656 0.664660 0.177596
Si Si4 0.945545 0.749250 0.199538
Si Si5 0.423236 0.985601 0.480268
Si Si6 0.420763 0.648302 0.591719
O O1 0.164194 0.178455 0.696880
O O2 0.411032 0.302572 0.527544
O O3 0.126276 0.273350 0.626045
O O4 0.344343 0.108259 0.512819
O O5 0.312998 0.410183 0.767128
O O6 0.155495 0.360632 0.759738
O O7 0.363386 0.523032 0.636409
O O8 0.079499 0.536362 0.853715
O O9 0.500000 0.680492 0.250000
O O10 0.785857 0.606725 0.068898
O O11 0.773265 0.778840 0.145147
O O12 0.958560 0.814176 0.134888
O O13 0.500000 0.000000 0.500000
#
# Coordination Sequence:
#
# PCOD9259949 Si02
#       6
#     8   8   8   8   8   8
#     4  11  21  36  64  92 120 159 200 261 309 363
#     4  10  22  38  59  86 124 161 204 259 303 366
#     4  10  22  38  60  92 119 162 215 249 304 367
#     4  10  22  37  59  95 121 150 213 255 309 365
#     4  10  18  36  59  90 115 153 206 257 297 355
#     4  11  22  39  61  86 129 161 195 259 312 359
#
# _framework density 21.059564999999999
#
# number of rings (size 3 to 8) (size 9 to 14) (size 15 to 20)
#    0.000    1.667    5.000    2.500    4.667    0.667 
#    3.000    0.833    0.000    0.000    0.000    0.000 
#    0.000    0.000    0.000    0.000    0.000    0.000 
#
# Total GULP energy -133656.143234 kJ/mol
# GULP energy per Si atom -5569.005968 kJ/mol
# Density = 2.101163 g / cm^3
# Si number density = 21.059565 Si / 1000 Ang^3
#
#
#
# Elastic Constant Matrix: (Units=GPa)
#
#
# Indices 1 2 3 4 5 6 
#
# 1 77.7936 21.1653 36.3298 0.0000 -34.1720 0.0000
# 2 21.1653 55.7802 -10.2709 -0.0002 -17.5252 0.0000
# 3 36.3298 -10.2709 70.0458 -0.0011 -21.9423 0.0002
# 4 0.0000 -0.0002 -0.0011 22.5760 -0.0001 13.4279
# 5 -34.1720 -17.5252 -21.9423 -0.0001 43.5295 0.0000
# 6 0.0000 0.0000 0.0002 13.4279 0.0000 6.3284
#
#
#
# Elastic Compliance Matrix: (Units=1/GPa)
#
#
# Indices 1 2 3 4 5 6 
#
# 1 0.024731 -0.007904 -0.010570 0.000003 0.010904 -0.000006
# 2 -0.007904 0.026036 0.010993 -0.000004 0.009818 0.000008
# 3 -0.010570 0.010993 0.023938 -0.000007 0.008194 0.000013
# 4 0.000003 -0.000004 -0.000007 -0.169036 -0.000003 0.358668
# 5 0.010904 0.009818 0.008194 -0.000003 0.039616 0.000006
# 6 -0.000006 0.000008 0.000013 0.358668 0.000006 -0.603021
#
#
# Mechanical properties :
#
#
# Convention : Reuss Voigt Hill
#
# Bulk Modulus (GPa) = 16.73903 33.11867 24.92885
# Shear Modulus (GPa) = -8.02750 24.91314 8.44282
#
# Velocity S-wave (km/s) = -1.95450 3.44319 2.00443
# Velocity P-wave (km/s) = 1.69477 5.61851 4.14970
#
# Compressibility (1/GPa) = 0.05974061
#
# Stress axis : x y z
#
# Youngs Moduli (GPa) = 40.43463 38.40894 41.77542
#
# Poissons Ratio (x) = 0.30360 0.44158
# Poissons Ratio (y) = 0.31961 -0.45923
# Poissons Ratio (z) = 0.42741 -0.42223
#
# Static dielectric constant tensor:
#      x y z
#    x 1.660100 0.000000 -0.206840 
#    y 0.000000 1.890390 0.000000 
#    z -0.206840 0.000000 1.180860 
# 
# From -- ./inp_files/296048.got.cif
#   From: 2010.05.17/outbox.cif.g08.bks.cpg/sg15_149_cif.got.tgz:296048.got - 2010.06.03 18:47:42.
