data_PCOD9259259
_publ_section_title
;
Structure prediction by ZEFSAII (Michael W. Deem and Ramdas Pophale) SiO2 
 PCOD9259259
Probable space group: C 2/C
;
_chemical_formula_sum "Si O2"
_cell_formula_units_Z 44
_cell_length_a 7.969583
_cell_length_b 28.607776
_cell_length_c 9.766146
_cell_angle_alpha 90.000000
_cell_angle_beta 116.539884
_cell_angle_gamma 90.000000
_cell_volume 1991.972003
_symmetry_space_group_name_H-M "C 2/C"
_symmetry_group_IT_number 15
_symmetry_cell_setting 'monoclinic'
loop_
_space_group_symop_operation_xyz
x,y,z
-x,y,1/2-z
-x,-y,-z
x,-y,1/2+z
1/2+x,1/2+y,z
1/2-x,1/2+y,1/2-z
1/2-x,1/2-y,-z
1/2+x,1/2-y,1/2+z
loop_
_atom_site_type_symbol
_atom_site_label
_atom_site_fract_x
_atom_site_fract_y
_atom_site_fract_z
Si Si1 0.776723 0.644177 0.374610
Si Si2 0.453469 0.775624 0.076294
Si Si3 0.237752 0.456911 0.203148
Si Si4 0.432326 0.321743 0.942159
Si Si5 0.000000 0.127789 0.750000
Si Si6 0.789600 0.541370 0.495247
O O1 0.947107 0.676871 0.487604
O O2 0.737537 0.654299 0.201568
O O3 0.607440 0.663578 0.408710
O O4 0.774045 0.589900 0.408532
O O5 0.500000 0.786857 0.250000
O O6 0.587496 0.734282 0.072367
O O7 0.250000 0.750000 0.000000
O O8 0.323028 0.407551 0.188715
O O9 0.294823 0.460371 0.383134
O O10 0.013145 0.460459 0.105740
O O11 0.293752 0.499676 0.125678
O O12 0.478606 0.340733 0.107954
#
# Coordination Sequence:
#
# PCOD9259259 Si02
#       6
#     8   8   8   8   4   8
#     4  10  20  38  66  87 120 171 216 254 315 378
#     4  10  18  34  63  90 118 160 218 256 305 369
#     4  10  24  40  62  91 125 169 206 265 314 378
#     4  10  21  38  58  96 127 157 213 270 301 385
#     4  12  24  40  64  94 134 166 202 264 340 366
#     4  10  22  43  62  89 124 164 217 258 309 384
#
# _framework density 22.088663
#
# number of rings (size 3 to 8) (size 9 to 14) (size 15 to 20)
#    0.000    1.818    5.455    0.000    5.091    2.182 
#    0.000    0.909    0.000    0.000    0.000    0.000 
#    0.000    0.000    0.000    0.000    0.000    0.000 
#
# Total GULP energy -122759.143569 kJ/mol
# GULP energy per Si atom -5579.961071 kJ/mol
# Density = 2.203839 g / cm^3
# Si number density = 22.088663 Si / 1000 Ang^3
#
#
#
# Elastic Constant Matrix: (Units=GPa)
#
#
# Indices 1 2 3 4 5 6 
#
# 1 21.2217 -10.9196 9.3857 0.0000 -7.4903 0.0000
# 2 -10.9196 120.6082 82.7779 0.0000 -20.3986 0.0000
# 3 9.3857 82.7779 179.5888 0.0000 -19.3741 0.0000
# 4 0.0000 0.0000 0.0000 14.7311 0.0000 13.7011
# 5 -7.4903 -20.3986 -19.3741 0.0000 25.6196 0.0000
# 6 0.0000 0.0000 0.0000 13.7011 0.0000 11.2060
#
#
#
# Elastic Compliance Matrix: (Units=1/GPa)
#
#
# Indices 1 2 3 4 5 6 
#
# 1 0.068768 0.016465 -0.008275 0.000000 0.026957 0.000000
# 2 0.016465 0.016952 -0.007294 0.000000 0.012795 0.000000
# 3 -0.008275 -0.007294 0.009228 0.000000 -0.001248 0.000000
# 4 0.000000 0.000000 0.000000 -0.494886 0.000000 0.605077
# 5 0.026957 0.012795 -0.001248 0.000000 0.056158 0.000000
# 6 0.000000 0.000000 0.000000 0.605077 0.000000 -0.650564
#
#
# Mechanical properties :
#
#
# Convention : Reuss Voigt Hill
#
# Bulk Modulus (GPa) = 10.33704 53.76743 32.05224
# Shear Modulus (GPa) = -5.18731 26.32299 10.56784
#
# Velocity S-wave (km/s) = -1.53411 3.45584 2.18967
# Velocity P-wave (km/s) = 1.24577 6.34967 4.57549
#
# Compressibility (1/GPa) = 0.09673947
#
# Stress axis : x y z
#
# Youngs Moduli (GPa) = 14.54174 58.98968 108.36532
#
# Poissons Ratio (x) = -0.97125 0.89671
# Poissons Ratio (y) = -0.23942 0.79040
# Poissons Ratio (z) = 0.12033 0.43026
#
# Static dielectric constant tensor:
#      x y z
#    x 1.928440 0.000000 0.052030 
#    y 0.000000 1.817770 0.000000 
#    z 0.052030 0.000000 1.795570 
# 
# From -- ./inp_files/26013.got.cif
#   From: 2010.05.17/outbox.cif.g08.bks.cpg/sg15_14_cif.got.tgz:26013.got - 2010.06.03 18:47:42.
