data_PCOD9259173
_publ_section_title
;
Structure prediction by ZEFSAII (Michael W. Deem and Ramdas Pophale) SiO2 
 PCOD9259173
Probable space group: C 2/C
;
_chemical_formula_sum "Si O2"
_cell_formula_units_Z 52
_cell_length_a 15.792308
_cell_length_b 15.965842
_cell_length_c 17.951961
_cell_angle_alpha 90.000000
_cell_angle_beta 27.824775
_cell_angle_gamma 90.000000
_cell_volume 2112.766108
_symmetry_space_group_name_H-M "C 2/C"
_symmetry_group_IT_number 15
_symmetry_cell_setting 'monoclinic'
loop_
_space_group_symop_operation_xyz
x,y,z
-x,y,1/2-z
-x,-y,-z
x,-y,1/2+z
1/2+x,1/2+y,z
1/2-x,1/2+y,1/2-z
1/2-x,1/2-y,-z
1/2+x,1/2-y,1/2+z
loop_
_atom_site_type_symbol
_atom_site_label
_atom_site_fract_x
_atom_site_fract_y
_atom_site_fract_z
Si Si1 0.191054 0.071373 0.819242
Si Si2 0.738947 0.885253 0.711181
Si Si3 0.213092 0.659657 0.065008
Si Si4 0.691238 0.065189 0.937810
Si Si5 0.792920 0.251569 0.640476
Si Si6 0.000000 0.700425 0.750000
Si Si7 0.585078 0.108892 0.553277
O O1 0.222719 0.092270 0.707044
O O2 0.126343 0.159958 0.905198
O O3 0.385041 0.070418 0.712021
O O4 0.151699 0.970519 0.852686
O O5 0.790523 0.864192 0.585415
O O6 0.521635 0.906300 0.892543
O O7 0.759547 0.803167 0.745450
O O8 0.269664 0.597871 0.954622
O O9 0.000000 0.654371 0.250000
O O10 0.250000 0.750000 0.000000
O O11 0.705276 0.964824 0.928380
O O12 0.624712 0.247123 0.712497
O O13 0.925777 0.314436 0.494347
O O14 0.867316 0.642825 0.902812
#
# Coordination Sequence:
#
# PCOD9259173 Si02
#       7
#     8   8   8   8   8   4   8
#     4  10  19  33  59  88 109 148 197 245 298 346
#     4  10  19  36  58  89 114 151 198 252 296 354
#     4  10  22  36  61  91 122 158 203 254 310 363
#     4  10  18  34  61  86 112 147 197 255 298 347
#     4  11  20  35  58  80 119 147 190 243 298 356
#     4  10  24  32  54  86 112 152 188 236 304 358
#     4  10  19  35  56  83 112 143 193 247 294 341
#
# _framework density 24.612283000000001
#
# number of rings (size 3 to 8) (size 9 to 14) (size 15 to 20)
#    0.000    1.846    3.077    2.308    7.538    0.000 
#    0.000    0.000    1.692    3.692    0.000    0.000 
#    0.000    0.000    0.000    0.000    0.000    0.000 
#
# Total GULP energy -144995.232697 kJ/mol
# GULP energy per Si atom -5576.739719 kJ/mol
# Density = 2.455626 g / cm^3
# Si number density = 24.612283 Si / 1000 Ang^3
#
#
#
# Elastic Constant Matrix: (Units=GPa)
#
#
# Indices 1 2 3 4 5 6 
#
# 1 111.5199 49.0104 26.2696 -0.0043 38.0268 0.0040
# 2 49.0104 198.7649 37.7019 0.0074 31.5036 -0.0022
# 3 26.2696 37.7019 30.8475 0.0081 33.3041 -0.0035
# 4 -0.0043 0.0074 0.0081 16.2958 0.0013 6.1879
# 5 38.0268 31.5036 33.3041 0.0013 50.5027 0.0004
# 6 0.0040 -0.0022 -0.0035 6.1879 0.0004 38.0906
#
#
#
# Elastic Compliance Matrix: (Units=1/GPa)
#
#
# Indices 1 2 3 4 5 6 
#
# 1 0.012639 -0.001981 0.002077 0.000005 -0.009651 -0.000002
# 2 -0.001981 0.007119 -0.013297 0.000003 0.005819 -0.000001
# 3 0.002077 -0.013297 0.137602 -0.000063 -0.084011 0.000023
# 4 0.000005 0.000003 -0.000063 0.065400 0.000035 -0.010624
# 5 -0.009651 0.005819 -0.084011 0.000035 0.078839 -0.000013
# 6 -0.000002 -0.000001 0.000023 -0.010624 -0.000013 0.027979
#
#
# Mechanical properties :
#
#
# Convention : Reuss Voigt Hill
#
# Bulk Modulus (GPa) = 7.63603 63.01069 35.32336
# Shear Modulus (GPa) = 12.51150 36.18787 24.34969
#
# Velocity S-wave (km/s) = 2.25709 3.83863 3.14877
# Velocity P-wave (km/s) = 3.14673 6.73080 5.25384
#
# Compressibility (1/GPa) = 0.13095815
#
# Stress axis : x y z
#
# Youngs Moduli (GPa) = 79.11967 140.46183 7.26735
#
# Poissons Ratio (x) = 0.27823 -0.01509
# Poissons Ratio (y) = 0.15672 0.09663
# Poissons Ratio (z) = -0.16433 1.86774
#
# Static dielectric constant tensor:
#      x y z
#    x 2.011860 0.000010 -0.119860 
#    y 0.000010 2.601620 -0.000130 
#    z -0.119860 -0.000130 2.091180 
# 
# From -- ./inp_files/211047.got.cif
#   From: 2010.05.17/outbox.cif.g08.bks.cpg/sg15_106_cif.got.tgz:211047.got - 2010.06.03 18:47:42.
