data_PCOD9259343
_publ_section_title
;
Structure prediction by ZEFSAII (Michael W. Deem and Ramdas Pophale) SiO2 
 PCOD9259343
Probable space group: C 2/C
;
_chemical_formula_sum "Si O2"
_cell_formula_units_Z 52
_cell_length_a 16.282451
_cell_length_b 8.864265
_cell_length_c 29.120460
_cell_angle_alpha 90.000000
_cell_angle_beta 136.002844
_cell_angle_gamma 90.000000
_cell_volume 2919.508143
_symmetry_space_group_name_H-M "C 2/C"
_symmetry_group_IT_number 15
_symmetry_cell_setting 'monoclinic'
loop_
_space_group_symop_operation_xyz
x,y,z
-x,y,1/2-z
-x,-y,-z
x,-y,1/2+z
1/2+x,1/2+y,z
1/2-x,1/2+y,1/2-z
1/2-x,1/2-y,-z
1/2+x,1/2-y,1/2+z
loop_
_atom_site_type_symbol
_atom_site_label
_atom_site_fract_x
_atom_site_fract_y
_atom_site_fract_z
Si Si1 0.102700 0.977354 0.383867
Si Si2 0.945085 0.418847 0.275340
Si Si3 0.149119 0.368333 0.898272
Si Si4 0.540332 0.732644 0.126278
Si Si5 0.500000 0.387701 0.250000
Si Si6 0.278876 0.160785 0.170184
Si Si7 0.816828 0.602559 0.508724
O O1 0.113735 0.799637 0.399065
O O2 0.036933 0.982990 0.308862
O O3 0.235872 0.044735 0.434510
O O4 0.029307 0.076838 0.390708
O O5 0.934696 0.305838 0.313587
O O6 0.827640 0.507867 0.213166
O O7 0.000000 0.355146 0.250000
O O8 0.037207 0.545447 0.330816
O O9 0.239259 0.359690 0.891801
O O10 0.191622 0.469866 0.957138
O O11 0.661295 0.710622 0.148194
O O12 0.452390 0.843613 0.062438
O O13 0.386567 0.282092 0.215984
O O14 0.750000 0.750000 0.500000
#
# Coordination Sequence:
#
# PCOD9259343 Si02
#       7
#     8   8   8   8   4   8   8
#     4  10  19  35  56  80 110 144 188 224 281 334
#     4   9  17  33  50  74 108 143 178 221 286 333
#     4   9  17  35  59  74 103 152 182 215 282 338
#     4  10  22  31  55  83 112 139 191 236 274 325
#     4  10  20  36  54  80 110 150 182 230 282 340
#     4  10  18  35  54  78 113 144 187 228 282 335
#     4   9  19  37  56  83 110 147 188 234 274 333
#
# _framework density 17.811219000000001
#
# number of rings (size 3 to 8) (size 9 to 14) (size 15 to 20)
#    0.000    2.462    3.846    0.462    3.231    0.000 
#    0.000    6.154    0.000    1.846    0.000    0.000 
#    0.000    0.000    0.000    0.000    0.000    0.000 
#
# Total GULP energy -144756.836018 kJ/mol
# GULP energy per Si atom -5567.570616 kJ/mol
# Density = 1.777068 g / cm^3
# Si number density = 17.811219 Si / 1000 Ang^3
#
#
#
# Elastic Constant Matrix: (Units=GPa)
#
#
# Indices 1 2 3 4 5 6 
#
# 1 125.1028 42.6185 28.4623 0.0000 22.5032 0.0000
# 2 42.6185 91.5909 20.8169 0.0000 0.2925 0.0000
# 3 28.4623 20.8169 70.0746 0.0000 11.1891 0.0000
# 4 0.0000 0.0000 0.0000 21.3749 0.0000 -4.1938
# 5 22.5032 0.2925 11.1891 0.0000 14.9283 0.0000
# 6 0.0000 0.0000 0.0000 -4.1938 0.0000 19.0341
#
#
#
# Elastic Compliance Matrix: (Units=1/GPa)
#
#
# Indices 1 2 3 4 5 6 
#
# 1 0.013951 -0.006309 -0.000516 0.000000 -0.020520 0.000000
# 2 -0.006309 0.014658 -0.003709 0.000000 0.012003 0.000000
# 3 -0.000516 -0.003709 0.017546 0.000000 -0.012301 0.000000
# 4 0.000000 0.000000 0.000000 0.048898 0.000000 0.010774
# 5 -0.020520 0.012003 -0.012301 0.000000 0.106904 0.000000
# 6 0.000000 0.000000 0.000000 0.010774 0.000000 0.054911
#
#
# Mechanical properties :
#
#
# Convention : Reuss Voigt Hill
#
# Bulk Modulus (GPa) = 39.85864 52.28487 46.07176
# Shear Modulus (GPa) = 17.46439 24.05884 20.76161
#
# Velocity S-wave (km/s) = 3.13473 3.67927 3.41786
# Velocity P-wave (km/s) = 5.96063 6.88971 6.44194
#
# Compressibility (1/GPa) = 0.02508866
#
# Stress axis : x y z
#
# Youngs Moduli (GPa) = 71.67905 68.22090 56.99364
#
# Poissons Ratio (x) = 0.43040 0.02940
# Poissons Ratio (y) = 0.45221 0.21136
# Poissons Ratio (z) = 0.03698 0.25300
#
# Static dielectric constant tensor:
#      x y z
#    x 1.580230 0.000000 -0.003340 
#    y 0.000000 1.635190 0.000000 
#    z -0.003340 0.000000 1.656760 
# 
# From -- ./inp_files/242526.got.cif
#   From: 2010.05.17/outbox.cif.g08.bks.cpg/sg15_122_cif.got.tgz:242526.got - 2010.06.03 18:47:42.
