data_PCOD9259557
_publ_section_title
;
Structure prediction by ZEFSAII (Michael W. Deem and Ramdas Pophale) SiO2 
 PCOD9259557
Probable space group: C 2/C
;
_chemical_formula_sum "Si O2"
_cell_formula_units_Z 48
_cell_length_a 10.765155
_cell_length_b 14.525504
_cell_length_c 27.735932
_cell_angle_alpha 90.000000
_cell_angle_beta 149.675807
_cell_angle_gamma 90.000000
_cell_volume 2189.741635
_symmetry_space_group_name_H-M "C 2/C"
_symmetry_group_IT_number 15
_symmetry_cell_setting 'monoclinic'
loop_
_space_group_symop_operation_xyz
x,y,z
-x,y,1/2-z
-x,-y,-z
x,-y,1/2+z
1/2+x,1/2+y,z
1/2-x,1/2+y,1/2-z
1/2-x,1/2-y,-z
1/2+x,1/2-y,1/2+z
loop_
_atom_site_type_symbol
_atom_site_label
_atom_site_fract_x
_atom_site_fract_y
_atom_site_fract_z
Si Si1 0.891077 0.130735 0.259171
Si Si2 0.227614 0.434753 0.175091
Si Si3 0.456240 0.938327 0.180684
Si Si4 0.245022 0.129869 0.458413
Si Si5 0.940110 0.171078 0.002657
Si Si6 0.023154 0.338837 0.812857
O O1 0.706326 0.186395 0.230945
O O2 0.000000 0.183844 0.250000
O O3 0.097951 0.088021 0.364268
O O4 0.748514 0.045273 0.187137
O O5 0.500000 0.403261 0.250000
O O6 0.140221 0.404847 0.199583
O O7 0.007746 0.407792 0.064839
O O8 0.500000 0.909297 0.250000
O O9 0.466102 0.049433 0.183350
O O10 0.192473 0.900339 0.076200
O O11 0.069083 0.128522 0.446376
O O12 0.287303 0.235134 0.456290
O O13 0.215618 0.193877 0.080216
O O14 0.000000 0.308176 0.750000
#
# Coordination Sequence:
#
# PCOD9259557 Si02
#       6
#     8   8   8   8   8   8
#     4  10  21  38  58  85 117 149 188 247 292 330
#     4   9  20  38  58  82 111 156 198 231 281 354
#     4   9  19  35  57  87 116 146 191 252 289 323
#     4  10  21  38  57  84 119 156 189 237 292 345
#     4  10  20  36  58  84 117 155 192 234 292 353
#     4  10  18  35  60  85 109 153 202 234 278 354
#
# _framework density 21.920394000000002
#
# number of rings (size 3 to 8) (size 9 to 14) (size 15 to 20)
#    0.000    2.333    1.667    0.500    0.000    4.000 
#    6.000    0.833    0.000    0.000    0.000    0.000 
#    0.000    0.000    0.000    0.000    0.000    0.000 
#
# Total GULP energy -133952.903892 kJ/mol
# GULP energy per Si atom -5581.370995 kJ/mol
# Density = 2.187050 g / cm^3
# Si number density = 21.920394 Si / 1000 Ang^3
#
#
#
# Elastic Constant Matrix: (Units=GPa)
#
#
# Indices 1 2 3 4 5 6 
#
# 1 144.3008 -7.5195 55.2334 0.0001 7.7632 0.0000
# 2 -7.5195 46.3707 -14.2039 -0.0001 -5.1775 0.0000
# 3 55.2334 -14.2039 72.4507 -0.0004 5.6094 -0.0002
# 4 0.0001 -0.0001 -0.0004 -7.3778 0.0000 -7.6808
# 5 7.7632 -5.1775 5.6094 0.0000 40.5125 0.0000
# 6 0.0000 0.0000 -0.0002 -7.6808 0.0000 -3.1822
#
#
#
# Elastic Compliance Matrix: (Units=1/GPa)
#
#
# Indices 1 2 3 4 5 6 
#
# 1 0.009845 -0.000835 -0.007596 0.000000 -0.000941 0.000001
# 2 -0.000835 0.023235 0.005003 0.000000 0.002437 0.000000
# 3 -0.007596 0.005003 0.020633 0.000000 -0.000762 -0.000001
# 4 0.000000 0.000000 0.000000 0.089597 0.000000 -0.216257
# 5 -0.000941 0.002437 -0.000762 0.000000 0.025281 0.000000
# 6 0.000001 0.000000 -0.000001 -0.216257 0.000000 0.207725
#
#
# Mechanical properties :
#
#
# Convention : Reuss Voigt Hill
#
# Bulk Modulus (GPa) = 21.34188 36.68246 29.01217
# Shear Modulus (GPa) = 12.53792 21.29798 16.91795
#
# Velocity S-wave (km/s) = 2.39419 3.12044 2.78113
# Velocity P-wave (km/s) = 4.17134 5.45469 4.85560
#
# Compressibility (1/GPa) = 0.04685622
#
# Stress axis : x y z
#
# Youngs Moduli (GPa) = 101.57892 43.03935 48.46544
#
# Poissons Ratio (x) = 0.03596 0.36814
# Poissons Ratio (y) = 0.08487 -0.24249
# Poissons Ratio (z) = 0.77159 -0.21534
#
# Static dielectric constant tensor:
#      x y z
#    x 1.856420 0.000000 0.020960 
#    y 0.000000 1.775030 0.000000 
#    z 0.020960 0.000000 1.807990 
# 
# From -- ./inp_files/311253.got.cif
#   From: 2010.05.17/outbox.cif.g08.bks.cpg/sg15_156_cif.got.tgz:311253.got - 2010.06.03 18:47:42.
