data_PCOD9259621
_publ_section_title
;
Structure prediction by ZEFSAII (Michael W. Deem and Ramdas Pophale) SiO2 
 PCOD9259621
Probable space group: C 2/C
;
_chemical_formula_sum "Si O2"
_cell_formula_units_Z 64
_cell_length_a 14.380338
_cell_length_b 13.443168
_cell_length_c 27.332228
_cell_angle_alpha 90.000000
_cell_angle_beta 36.757892
_cell_angle_gamma 90.000000
_cell_volume 3162.006163
_symmetry_space_group_name_H-M "C 2/C"
_symmetry_group_IT_number 15
_symmetry_cell_setting 'monoclinic'
loop_
_space_group_symop_operation_xyz
x,y,z
-x,y,1/2-z
-x,-y,-z
x,-y,1/2+z
1/2+x,1/2+y,z
1/2-x,1/2+y,1/2-z
1/2-x,1/2-y,-z
1/2+x,1/2-y,1/2+z
loop_
_atom_site_type_symbol
_atom_site_label
_atom_site_fract_x
_atom_site_fract_y
_atom_site_fract_z
Si Si1 0.815362 0.246371 0.091109
Si Si2 0.058359 0.398678 0.589438
Si Si3 0.795515 0.893047 0.196159
Si Si4 0.669378 0.563505 0.157936
Si Si5 0.874929 0.578535 0.636895
Si Si6 0.884763 0.740571 0.084189
Si Si7 0.357013 0.388615 0.410459
Si Si8 0.628428 0.913170 0.733101
O O1 0.886763 0.339044 0.090972
O O2 0.699998 0.297544 0.100159
O O3 0.716722 0.175342 0.167857
O O4 0.974934 0.201879 0.002175
O O5 0.241642 0.386709 0.505607
O O6 0.021433 0.510954 0.587500
O O7 0.979207 0.326012 0.583688
O O8 0.970986 0.382558 0.677259
O O9 0.683657 0.871464 0.288827
O O10 0.780495 0.817783 0.157806
O O11 0.968518 0.883120 0.144513
O O12 0.750864 0.003740 0.198037
O O13 0.500000 0.590769 0.250000
O O14 0.749397 0.499716 0.168070
O O15 0.775298 0.660249 0.103236
O O16 0.660274 0.487629 0.115934
O O17 0.500000 0.956016 0.750000
#
# Coordination Sequence:
#
# PCOD9259621 Si02
#       8
#     8   8   8   8   8   8   8   8
#     4  10  22  37  63  91 118 150 198 245 298 341
#     4   9  20  39  61  88 118 151 195 245 294 344
#     4  11  23  39  58  86 118 156 197 237 292 348
#     4  10  18  35  61  92 120 153 194 241 296 345
#     4   9  18  36  60  89 117 153 193 241 289 349
#     4  10  22  36  60  90 121 153 193 246 292 349
#     4  10  21  37  65  91 114 147 197 249 290 344
#     4  11  26  41  59  82 121 162 196 239 298 356
#
# _framework density 20.240314999999999
#
# number of rings (size 3 to 8) (size 9 to 14) (size 15 to 20)
#    0.000    2.000    1.250    1.500    5.250    5.000 
#    0.000    0.000    0.000    1.500    0.000    0.000 
#    0.000    0.000    0.000    0.000    0.000    0.000 
#
# Total GULP energy -178585.606285 kJ/mol
# GULP energy per Si atom -5580.800196 kJ/mol
# Density = 2.019425 g / cm^3
# Si number density = 20.240315 Si / 1000 Ang^3
#
#
#
# Elastic Constant Matrix: (Units=GPa)
#
#
# Indices 1 2 3 4 5 6 
#
# 1 32.1269 13.8134 6.6909 0.0000 0.5853 0.0000
# 2 13.8134 57.9857 29.0236 0.0000 0.6938 0.0000
# 3 6.6909 29.0236 79.6366 -0.0001 -1.2314 0.0001
# 4 0.0000 0.0000 -0.0001 17.3546 0.0000 12.3183
# 5 0.5853 0.6938 -1.2314 0.0000 17.7394 0.0000
# 6 0.0000 0.0000 0.0001 12.3183 0.0000 21.0513
#
#
#
# Elastic Compliance Matrix: (Units=1/GPa)
#
#
# Indices 1 2 3 4 5 6 
#
# 1 0.034691 -0.008304 0.000099 0.000000 -0.000813 0.000000
# 2 -0.008304 0.023114 -0.007744 0.000000 -0.001168 0.000000
# 3 0.000099 -0.007744 0.015392 0.000000 0.001368 0.000000
# 4 0.000000 0.000000 0.000000 0.098556 0.000000 -0.057670
# 5 -0.000813 -0.001168 0.001368 0.000000 0.056539 0.000000
# 6 0.000000 0.000000 0.000000 -0.057670 0.000000 0.081249
#
#
# Mechanical properties :
#
#
# Convention : Reuss Voigt Hill
#
# Bulk Modulus (GPa) = 24.21361 29.86722 27.04042
# Shear Modulus (GPa) = 14.07635 19.24383 16.66009
#
# Velocity S-wave (km/s) = 2.64002 3.08680 2.87211
# Velocity P-wave (km/s) = 4.61324 5.24335 4.93836
#
# Compressibility (1/GPa) = 0.04129909
#
# Stress axis : x y z
#
# Youngs Moduli (GPa) = 28.82582 43.26376 64.96767
#
# Poissons Ratio (x) = 0.35926 -0.00644
# Poissons Ratio (y) = 0.23937 0.50313
# Poissons Ratio (z) = -0.00286 0.33505
#
# Static dielectric constant tensor:
#      x y z
#    x 1.714960 0.000000 0.022720 
#    y 0.000000 1.725840 0.000000 
#    z 0.022720 0.000000 1.746310 
# 
# From -- ./inp_files/296395.got.cif
#   From: 2010.05.17/outbox.cif.g08.bks.cpg/sg15_149_cif.got.tgz:296395.got - 2010.06.03 18:47:42.
