data_PCOD9259127
_publ_section_title
;
Structure prediction by ZEFSAII (Michael W. Deem and Ramdas Pophale) SiO2 
 PCOD9259127
Probable space group: C 2/C
;
_chemical_formula_sum "Si O2"
_cell_formula_units_Z 64
_cell_length_a 12.035969
_cell_length_b 18.328414
_cell_length_c 21.898261
_cell_angle_alpha 90.000000
_cell_angle_beta 144.380469
_cell_angle_gamma 90.000000
_cell_volume 2813.435868
_symmetry_space_group_name_H-M "C 2/C"
_symmetry_group_IT_number 15
_symmetry_cell_setting 'monoclinic'
loop_
_space_group_symop_operation_xyz
x,y,z
-x,y,1/2-z
-x,-y,-z
x,-y,1/2+z
1/2+x,1/2+y,z
1/2-x,1/2+y,1/2-z
1/2-x,1/2-y,-z
1/2+x,1/2-y,1/2+z
loop_
_atom_site_type_symbol
_atom_site_label
_atom_site_fract_x
_atom_site_fract_y
_atom_site_fract_z
Si Si1 0.701405 0.160569 0.085920
Si Si2 0.394327 0.022988 0.088659
Si Si3 0.700735 0.532759 0.275902
Si Si4 0.034676 0.212719 0.582084
Si Si5 0.605828 0.744175 0.855011
Si Si6 0.888016 0.900859 0.558702
Si Si7 0.072761 0.918186 0.521557
Si Si8 0.791959 0.407306 0.411439
O O1 0.779839 0.104625 0.172457
O O2 0.671918 0.239724 0.101603
O O3 0.824713 0.158482 0.079757
O O4 0.490987 0.128098 0.977564
O O5 0.621166 0.027346 0.190871
O O6 0.284364 0.071164 0.089564
O O7 0.344004 0.053659 0.998494
O O8 0.299745 0.942874 0.049342
O O9 0.509154 0.540319 0.152011
O O10 0.717399 0.464598 0.328862
O O11 0.813653 0.223383 0.461917
O O12 0.030779 0.246050 0.647588
O O13 0.053690 0.126163 0.584389
O O14 0.500000 0.776615 0.750000
O O15 0.652604 0.659153 0.863480
O O16 0.023763 0.878257 0.563539
O O17 0.000000 0.000000 0.500000
#
# Coordination Sequence:
#
# PCOD9259127 Si02
#       8
#     8   8   8   8   8   8   8   8
#     4  10  20  36  58  86 123 164 206 252 321 377
#     4  10  19  38  57  87 126 158 208 264 317 365
#     4  11  21  33  61  95 124 162 212 271 315 368
#     4  10  22  42  58  89 129 166 203 265 333 372
#     4  10  22  35  63  92 121 163 212 266 322 380
#     4  11  22  36  59  94 125 170 215 250 319 386
#     4  10  23  40  63  86 120 168 210 255 321 388
#     4  10  18  34  60  87 120 156 202 273 309 355
#
# _framework density 22.747986000000001
#
# number of rings (size 3 to 8) (size 9 to 14) (size 15 to 20)
#    0.000    1.750    3.750    1.125    3.500    2.000 
#    0.000    0.000    0.000    0.000    6.500    0.000 
#    0.000    0.000    0.000    0.000    0.000    0.000 
#
# Total GULP energy -178814.467397 kJ/mol
# GULP energy per Si atom -5587.952106 kJ/mol
# Density = 2.269621 g / cm^3
# Si number density = 22.747986 Si / 1000 Ang^3
#
#
#
# Elastic Constant Matrix: (Units=GPa)
#
#
# Indices 1 2 3 4 5 6 
#
# 1 187.1077 12.5778 6.2910 0.0000 -3.5021 0.0001
# 2 12.5778 68.7727 -12.1535 0.0000 2.9072 0.0000
# 3 6.2910 -12.1535 44.2518 0.0001 -1.6731 0.0001
# 4 0.0000 0.0000 0.0001 8.9169 0.0001 1.3222
# 5 -3.5021 2.9072 -1.6731 0.0001 27.4624 0.0001
# 6 0.0001 0.0000 0.0001 1.3222 0.0001 34.4677
#
#
#
# Elastic Compliance Matrix: (Units=1/GPa)
#
#
# Indices 1 2 3 4 5 6 
#
# 1 0.005478 -0.001226 -0.001087 0.000000 0.000762 0.000000
# 2 -0.001226 0.015608 0.004403 0.000000 -0.001540 0.000000
# 3 -0.001087 0.004403 0.023994 0.000000 0.000857 0.000000
# 4 0.000000 0.000000 0.000000 0.112788 -0.000001 -0.004327
# 5 0.000762 -0.001540 0.000857 -0.000001 0.036726 0.000000
# 6 0.000000 0.000000 0.000000 -0.004327 0.000000 0.029179
#
#
# Mechanical properties :
#
#
# Convention : Reuss Voigt Hill
#
# Bulk Modulus (GPa) = 20.30052 34.84030 27.57041
# Shear Modulus (GPa) = 21.18532 33.73051 27.45792
#
# Velocity S-wave (km/s) = 3.05504 3.85488 3.47803
# Velocity P-wave (km/s) = 4.62470 5.92980 5.31744
#
# Compressibility (1/GPa) = 0.04925982
#
# Stress axis : x y z
#
# Youngs Moduli (GPa) = 182.55719 64.06947 41.67704
#
# Poissons Ratio (x) = 0.07855 0.04529
# Poissons Ratio (y) = 0.22383 -0.18349
# Poissons Ratio (z) = 0.19838 -0.28208
#
# Static dielectric constant tensor:
#      x y z
#    x 1.890850 0.000000 -0.016930 
#    y 0.000000 1.896060 0.000000 
#    z -0.016930 0.000000 1.833480 
# 
# From -- ./inp_files/240429.got.cif
#   From: 2010.05.17/outbox.cif.g08.bks.cpg/sg15_121_cif.got.tgz:240429.got - 2010.06.03 18:47:42.
