data_PCOD9259323
_publ_section_title
;
Structure prediction by ZEFSAII (Michael W. Deem and Ramdas Pophale) SiO2 
 PCOD9259323
Probable space group: C 2/C
;
_chemical_formula_sum "Si O2"
_cell_formula_units_Z 52
_cell_length_a 26.411108
_cell_length_b 24.506269
_cell_length_c 9.751931
_cell_angle_alpha 90.000000
_cell_angle_beta 28.625609
_cell_angle_gamma 90.000000
_cell_volume 3023.892284
_symmetry_space_group_name_H-M "C 2/C"
_symmetry_group_IT_number 15
_symmetry_cell_setting 'monoclinic'
loop_
_space_group_symop_operation_xyz
x,y,z
-x,y,1/2-z
-x,-y,-z
x,-y,1/2+z
1/2+x,1/2+y,z
1/2-x,1/2+y,1/2-z
1/2-x,1/2-y,-z
1/2+x,1/2-y,1/2+z
loop_
_atom_site_type_symbol
_atom_site_label
_atom_site_fract_x
_atom_site_fract_y
_atom_site_fract_z
Si Si1 0.871798 0.566587 0.062893
Si Si2 0.104119 0.754940 0.210106
Si Si3 0.377048 0.268369 0.852958
Si Si4 0.387826 0.977279 0.815883
Si Si5 0.674552 0.190876 0.284855
Si Si6 0.334918 0.193529 0.704919
Si Si7 0.500000 0.894392 0.750000
O O1 0.836581 0.544979 0.297400
O O2 0.842954 0.630141 0.119489
O O3 0.833855 0.525434 0.033120
O O4 0.000000 0.564402 0.750000
O O5 0.123747 0.700803 0.256397
O O6 0.992821 0.780396 0.519497
O O7 0.201456 0.794716 0.011943
O O8 0.115938 0.734772 0.025985
O O9 0.333689 0.221312 0.855203
O O10 0.376641 0.238726 0.000198
O O11 0.286065 0.314426 0.058431
O O12 0.425579 0.930056 0.828990
O O13 0.500000 0.000000 0.500000
O O14 0.414866 0.143595 0.527642
#
# Coordination Sequence:
#
# PCOD9259323 Si02
#       7
#     8   8   8   8   8   8   4
#     4  10  19  32  45  70  98 127 158 207 246 300
#     4  10  18  35  46  72 106 132 165 205 228 305
#     4  10  19  33  46  75 101 134 165 201 226 307
#     4  10  20  31  46  67  99 120 161 205 252 288
#     4  10  21  29  52  73  98 139 167 191 255 286
#     4  10  21  29  51  71 100 136 166 190 255 282
#     4  12  18  32  50  70 102 132 154 210 246 296
#
# _framework density 17.196379
#
# number of rings (size 3 to 8) (size 9 to 14) (size 15 to 20)
#    0.000    1.846    3.846    2.308    4.308    0.000 
#    0.000    0.000    0.000    0.000    0.000    1.077 
#    4.615    0.000    0.000    0.000    0.000    0.000 
#
# Total GULP energy -144773.026985 kJ/mol
# GULP energy per Si atom -5568.193346 kJ/mol
# Density = 1.715724 g / cm^3
# Si number density = 17.196379 Si / 1000 Ang^3
#
#
#
# Elastic Constant Matrix: (Units=GPa)
#
#
# Indices 1 2 3 4 5 6 
#
# 1 39.8538 2.1051 10.2257 0.0000 6.1499 0.0000
# 2 2.1051 50.1993 4.4852 0.0000 0.1618 0.0000
# 3 10.2257 4.4852 75.1223 0.0000 -14.4417 0.0000
# 4 0.0000 0.0000 0.0000 23.8380 0.0000 1.1077
# 5 6.1499 0.1618 -14.4417 0.0000 33.8097 0.0000
# 6 0.0000 0.0000 0.0000 1.1077 0.0000 -3.4243
#
#
#
# Elastic Compliance Matrix: (Units=1/GPa)
#
#
# Indices 1 2 3 4 5 6 
#
# 1 0.027541 -0.000677 -0.005089 0.000000 -0.007180 0.000000
# 2 -0.000677 0.020058 -0.001199 0.000000 -0.000485 0.000000
# 3 -0.005089 -0.001199 0.015530 0.000000 0.007565 0.000000
# 4 0.000000 0.000000 0.000000 0.041329 0.000000 0.013368
# 5 -0.007180 -0.000485 0.007565 0.000000 0.034117 0.000000
# 6 0.000000 0.000000 0.000000 0.013368 0.000000 -0.287705
#
#
# Mechanical properties :
#
#
# Convention : Reuss Voigt Hill
#
# Bulk Modulus (GPa) = 20.32521 22.08971 21.20746
# Shear Modulus (GPa) = -42.08695 20.73532 -10.67582
#
# Velocity S-wave (km/s) = -4.95252 3.47622 -2.49432
# Velocity P-wave (km/s) = 4.56707 5.38383 2.01587
#
# Compressibility (1/GPa) = 0.04919999
#
# Stress axis : x y z
#
# Youngs Moduli (GPa) = 36.30933 49.85635 64.39069
#
# Poissons Ratio (x) = 0.03376 0.32767
# Poissons Ratio (y) = 0.02459 0.07718
# Poissons Ratio (z) = 0.18477 0.05976
#
# Static dielectric constant tensor:
#      x y z
#    x 1.629240 0.000000 -0.000470 
#    y 0.000000 1.449290 0.000000 
#    z -0.000470 0.000000 1.607790 
# 
# From -- ./inp_files/43246.got.cif
#   From: 2010.05.17/outbox.cif.g08.bks.cpg/sg15_22_cif.got.tgz:43246.got - 2010.06.03 18:47:42.
