data_PCOD9259512
_publ_section_title
;
Structure prediction by ZEFSAII (Michael W. Deem and Ramdas Pophale) SiO2 
 PCOD9259512
Probable space group: C 2/C
;
_chemical_formula_sum "Si O2"
_cell_formula_units_Z 44
_cell_length_a 11.899773
_cell_length_b 18.032879
_cell_length_c 11.140577
_cell_angle_alpha 90.000000
_cell_angle_beta 108.443324
_cell_angle_gamma 90.000000
_cell_volume 2267.835341
_symmetry_space_group_name_H-M "C 2/C"
_symmetry_group_IT_number 15
_symmetry_cell_setting 'monoclinic'
loop_
_space_group_symop_operation_xyz
x,y,z
-x,y,1/2-z
-x,-y,-z
x,-y,1/2+z
1/2+x,1/2+y,z
1/2-x,1/2+y,1/2-z
1/2-x,1/2-y,-z
1/2+x,1/2-y,1/2+z
loop_
_atom_site_type_symbol
_atom_site_label
_atom_site_fract_x
_atom_site_fract_y
_atom_site_fract_z
Si Si1 0.368591 0.260955 0.266674
Si Si2 0.167833 0.522425 0.206521
Si Si3 0.500000 0.895368 0.250000
Si Si4 0.292066 0.859238 0.569007
Si Si5 0.957388 0.647408 0.481829
Si Si6 0.138577 0.915492 0.307847
O O1 0.500000 0.262133 0.250000
O O2 0.285609 0.215911 0.145418
O O3 0.386384 0.212752 0.391351
O O4 0.331863 0.345773 0.269331
O O5 0.094337 0.451337 0.223497
O O6 0.182885 0.576605 0.325045
O O7 0.099767 0.570274 0.083433
O O8 0.288654 0.488795 0.196889
O O9 0.546651 0.848223 0.377089
O O10 0.407934 0.852656 0.523262
O O11 0.181176 0.882894 0.450763
O O12 0.000000 0.929681 0.250000
#
# Coordination Sequence:
#
# PCOD9259512 Si02
#       6
#     8   8   4   8   8   8
#     4   8  18  35  56  81 109 142 186 233 266 318
#     4  11  20  33  57  87 112 137 181 235 279 322
#     4  12  18  30  56  90 112 132 172 238 292 314
#     4  10  18  35  59  82 109 140 188 237 273 309
#     4  10  19  34  58  89 108 135 186 239 281 309
#     4  11  22  35  52  83 115 151 183 214 272 339
#
# _framework density 19.401761
#
# number of rings (size 3 to 8) (size 9 to 14) (size 15 to 20)
#    0.000    1.818    3.636    3.273    0.000    0.727 
#    0.000    0.909    0.000    0.000   11.818    0.000 
#    0.000    0.000    0.000    0.000    0.000    0.000 
#
# Total GULP energy -122824.579061 kJ/mol
# GULP energy per Si atom -5582.935412 kJ/mol
# Density = 1.935760 g / cm^3
# Si number density = 19.401761 Si / 1000 Ang^3
#
#
#
# Elastic Constant Matrix: (Units=GPa)
#
#
# Indices 1 2 3 4 5 6 
#
# 1 48.4483 5.8078 22.1113 0.0000 18.2596 0.0000
# 2 5.8078 52.9324 14.8130 0.0000 -6.4467 0.0000
# 3 22.1113 14.8130 134.2139 0.0000 0.8898 0.0000
# 4 0.0000 0.0000 0.0000 11.4863 0.0000 -3.7580
# 5 18.2596 -6.4467 0.8898 0.0000 26.0015 0.0000
# 6 0.0000 0.0000 0.0000 -3.7580 0.0000 5.1849
#
#
#
# Elastic Compliance Matrix: (Units=1/GPa)
#
#
# Indices 1 2 3 4 5 6 
#
# 1 0.032343 -0.005164 -0.004600 0.000000 -0.023836 0.000000
# 2 -0.005164 0.020966 -0.001522 0.000000 0.008877 0.000000
# 3 -0.004600 -0.001522 0.008360 0.000000 0.002567 0.000000
# 4 0.000000 0.000000 0.000000 0.114123 0.000000 0.082717
# 5 -0.023836 0.008877 0.002567 0.000000 0.057311 0.000000
# 6 0.000000 0.000000 0.000000 0.082717 0.000000 0.252822
#
#
# Mechanical properties :
#
#
# Convention : Reuss Voigt Hill
#
# Bulk Modulus (GPa) = 25.57894 35.67322 30.62608
# Shear Modulus (GPa) = 9.58720 21.39203 15.48962
#
# Velocity S-wave (km/s) = 2.22534 3.32412 2.82859
# Velocity P-wave (km/s) = 4.45144 5.75843 5.14659
#
# Compressibility (1/GPa) = 0.03909466
#
# Stress axis : x y z
#
# Youngs Moduli (GPa) = 30.91907 47.69695 119.62221
#
# Poissons Ratio (x) = 0.24632 0.55030
# Poissons Ratio (y) = 0.15967 0.18207
# Poissons Ratio (z) = 0.14224 0.07260
#
# Static dielectric constant tensor:
#      x y z
#    x 1.684650 0.000000 0.006500 
#    y 0.000000 1.694090 0.000000 
#    z 0.006500 0.000000 1.708000 
# 
# From -- ./inp_files/87149.got.cif
#   From: 2010.05.17/outbox.cif.g08.bks.cpg/sg15_44_cif.got.tgz:87149.got - 2010.06.03 18:47:42.
