data_PCOD9259180
_publ_section_title
;
Structure prediction by ZEFSAII (Michael W. Deem and Ramdas Pophale) SiO2 
 PCOD9259180
Probable space group: C 2/C
;
_chemical_formula_sum "Si O2"
_cell_formula_units_Z 56
_cell_length_a 22.380604
_cell_length_b 7.160407
_cell_length_c 14.674487
_cell_angle_alpha 90.000000
_cell_angle_beta 108.702334
_cell_angle_gamma 90.000000
_cell_volume 2227.475071
_symmetry_space_group_name_H-M "C 2/C"
_symmetry_group_IT_number 15
_symmetry_cell_setting 'monoclinic'
loop_
_space_group_symop_operation_xyz
x,y,z
-x,y,1/2-z
-x,-y,-z
x,-y,1/2+z
1/2+x,1/2+y,z
1/2-x,1/2+y,1/2-z
1/2-x,1/2-y,-z
1/2+x,1/2-y,1/2+z
loop_
_atom_site_type_symbol
_atom_site_label
_atom_site_fract_x
_atom_site_fract_y
_atom_site_fract_z
Si Si1 0.926988 0.241282 0.728892
Si Si2 0.092716 0.795119 0.755092
Si Si3 0.164146 0.687740 0.162030
Si Si4 0.294323 0.381713 0.813755
Si Si5 0.018993 0.702296 0.545595
Si Si6 0.639096 0.314023 0.484010
Si Si7 0.887616 0.230695 0.036873
O O1 0.896155 0.331489 0.802970
O O2 0.879204 0.277518 0.621027
O O3 0.000000 0.293559 0.750000
O O4 0.925906 0.014275 0.741505
O O5 0.160367 0.787953 0.738795
O O6 0.043812 0.709548 0.660689
O O7 0.096567 0.699613 0.855029
O O8 0.224738 0.605140 0.240458
O O9 0.178715 0.909299 0.163508
O O10 0.149616 0.635053 0.050396
O O11 0.304304 0.279950 0.916153
O O12 0.075472 0.781319 0.512194
O O13 0.000000 0.500000 0.500000
O O14 0.953092 0.812259 0.516535
O O15 0.646637 0.534047 0.464249
#
# Coordination Sequence:
#
# PCOD9259180 Si02
#       7
#     8   8   8   8   8   8   8
#     4  10  18  34  61  89 111 145 199 249 287 334
#     4   9  19  36  59  80 111 152 192 236 283 351
#     4  10  21  35  57  83 114 151 195 248 291 345
#     4   9  20  37  54  81 113 151 197 239 292 342
#     4  11  21  34  55  88 124 151 183 241 313 359
#     4   9  19  36  58  81 113 156 202 243 279 348
#     4  10  19  36  60  82 106 155 206 238 282 344
#
# _framework density 25.140571999999999
#
# number of rings (size 3 to 8) (size 9 to 14) (size 15 to 20)
#    0.000    2.286    0.000    4.286    0.000    3.429 
#    0.000    5.714    0.000    0.000    0.000    0.000 
#    0.000    0.000    0.000    0.000    0.000    0.000 
#
# Total GULP energy -156613.901814 kJ/mol
# GULP energy per Si atom -5593.353636 kJ/mol
# Density = 2.508335 g / cm^3
# Si number density = 25.140572 Si / 1000 Ang^3
#
#
#
# Elastic Constant Matrix: (Units=GPa)
#
#
# Indices 1 2 3 4 5 6 
#
# 1 59.8614 -0.4245 24.3418 0.0000 16.4803 0.0000
# 2 -0.4245 65.7380 -2.7742 0.0000 4.9132 0.0000
# 3 24.3418 -2.7742 147.0727 0.0000 -8.3162 0.0000
# 4 0.0000 0.0000 0.0000 21.2875 0.0000 10.4015
# 5 16.4803 4.9132 -8.3162 0.0000 34.7147 0.0000
# 6 0.0000 0.0000 0.0000 10.4015 0.0000 11.7665
#
#
#
# Elastic Compliance Matrix: (Units=1/GPa)
#
#
# Indices 1 2 3 4 5 6 
#
# 1 0.021538 0.000810 -0.004191 0.000000 -0.011344 0.000000
# 2 0.000810 0.015409 0.000012 0.000000 -0.002563 0.000000
# 3 -0.004191 0.000012 0.007710 0.000000 0.003835 0.000000
# 4 0.000000 0.000000 0.000000 0.082695 0.000000 -0.073102
# 5 -0.011344 -0.002563 0.003835 0.000000 0.035473 0.000000
# 6 0.000000 0.000000 0.000000 -0.073102 0.000000 0.149610
#
#
# Mechanical properties :
#
#
# Convention : Reuss Voigt Hill
#
# Bulk Modulus (GPa) = 26.37203 34.99538 30.68370
# Shear Modulus (GPa) = 15.06872 30.32233 22.69552
#
# Velocity S-wave (km/s) = 2.45088 3.47668 3.00783
# Velocity P-wave (km/s) = 4.30368 5.48329 4.92890
#
# Compressibility (1/GPa) = 0.03791896
#
# Stress axis : x y z
#
# Youngs Moduli (GPa) = 46.42930 64.89651 129.70076
#
# Poissons Ratio (x) = -0.05257 0.54356
# Poissons Ratio (y) = -0.03761 -0.00152
# Poissons Ratio (z) = 0.19458 -0.00076
#
# Static dielectric constant tensor:
#      x y z
#    x 1.939060 0.000000 0.002290 
#    y 0.000000 2.025840 0.000000 
#    z 0.002290 0.000000 2.030590 
# 
# From -- ./inp_files/172487.got.cif
#   From: 2010.05.17/outbox.cif.g08.bks.cpg/sg15_87_cif.got.tgz:172487.got - 2010.06.03 18:47:42.
