data_PCOD9259397
_publ_section_title
;
Structure prediction by ZEFSAII (Michael W. Deem and Ramdas Pophale) SiO2 
 PCOD9259397
Probable space group: C 2/C
;
_chemical_formula_sum "Si O2"
_cell_formula_units_Z 52
_cell_length_a 8.378525
_cell_length_b 15.024025
_cell_length_c 25.507021
_cell_angle_alpha 90.000000
_cell_angle_beta 128.098869
_cell_angle_gamma 90.000000
_cell_volume 2526.732129
_symmetry_space_group_name_H-M "C 2/C"
_symmetry_group_IT_number 15
_symmetry_cell_setting 'monoclinic'
loop_
_space_group_symop_operation_xyz
x,y,z
-x,y,1/2-z
-x,-y,-z
x,-y,1/2+z
1/2+x,1/2+y,z
1/2-x,1/2+y,1/2-z
1/2-x,1/2-y,-z
1/2+x,1/2-y,1/2+z
loop_
_atom_site_type_symbol
_atom_site_label
_atom_site_fract_x
_atom_site_fract_y
_atom_site_fract_z
Si Si1 0.000000 0.285449 0.250000
Si Si2 0.363470 0.954196 0.537325
Si Si3 0.051433 0.186561 0.646252
Si Si4 0.041925 0.733919 0.031855
Si Si5 0.710872 0.480281 0.396969
Si Si6 0.967453 0.835193 0.641342
Si Si7 0.255424 0.836653 0.606042
O O1 0.784354 0.334355 0.205678
O O2 0.002531 0.225605 0.198506
O O3 0.441506 0.859230 0.529776
O O4 0.218892 0.990842 0.462385
O O5 0.280928 0.926977 0.577291
O O6 0.558733 0.018204 0.577089
O O7 0.032885 0.199453 0.579648
O O8 0.907380 0.109431 0.637923
O O9 0.965751 0.281163 0.649846
O O10 0.277089 0.709249 0.071236
O O11 0.905601 0.776087 0.959191
O O12 0.605491 0.568278 0.354451
O O13 0.159596 0.847279 0.643260
#
# Coordination Sequence:
#
# PCOD9259397 Si02
#       7
#     4   8   8   8   8   8   8
#     4  10  24  46  54  74 106 170 210 246 268 344
#     4   9  17  30  57  89 126 140 176 221 305 371
#     4  10  19  37  63  77 114 153 204 228 282 346
#     4   9  16  34  56  88 119 152 176 230 289 364
#     4  10  18  35  56  87 113 153 174 235 297 353
#     4  10  23  35  57  81 120 148 193 240 296 331
#     4  11  18  34  58  92 113 151 183 238 293 360
#
# _framework density 20.579941999999999
#
# number of rings (size 3 to 8) (size 9 to 14) (size 15 to 20)
#    0.000    2.154    3.077    2.308    0.000    1.231 
#    0.000    4.615    0.000    0.000    0.000    0.000 
#    0.000    0.000    0.000    0.000    0.000    0.000 
#
# Total GULP energy -145083.185720 kJ/mol
# GULP energy per Si atom -5580.122528 kJ/mol
# Density = 2.053310 g / cm^3
# Si number density = 20.579942 Si / 1000 Ang^3
#
#
#
# Elastic Constant Matrix: (Units=GPa)
#
#
# Indices 1 2 3 4 5 6 
#
# 1 87.0082 -3.7415 10.3358 0.0000 -0.9161 0.0000
# 2 -3.7415 41.8877 7.3022 0.0000 6.4606 0.0000
# 3 10.3358 7.3022 46.7181 0.0000 16.4413 0.0000
# 4 0.0000 0.0000 0.0000 11.9551 0.0000 3.1925
# 5 -0.9161 6.4606 16.4413 0.0000 23.1779 0.0000
# 6 0.0000 0.0000 0.0000 3.1925 0.0000 33.9311
#
#
#
# Elastic Compliance Matrix: (Units=1/GPa)
#
#
# Indices 1 2 3 4 5 6 
#
# 1 0.012040 0.001310 -0.003875 0.000000 0.002859 0.000000
# 2 0.001310 0.025220 -0.002367 0.000000 -0.005299 0.000000
# 3 -0.003875 -0.002367 0.029924 0.000000 -0.020720 0.000000
# 4 0.000000 0.000000 0.000000 0.085802 0.000000 -0.008073
# 5 0.002859 -0.005299 -0.020720 0.000000 0.059433 0.000000
# 6 0.000000 0.000000 0.000000 -0.008073 0.000000 0.030231
#
#
# Mechanical properties :
#
#
# Convention : Reuss Voigt Hill
#
# Bulk Modulus (GPa) = 17.44563 22.60079 20.02321
# Shear Modulus (GPa) = 18.40801 24.59397 21.50099
#
# Velocity S-wave (km/s) = 2.99400 3.46069 3.23577
# Velocity P-wave (km/s) = 4.52189 5.19368 4.86938
#
# Compressibility (1/GPa) = 0.05732095
#
# Stress axis : x y z
#
# Youngs Moduli (GPa) = 83.05734 39.65062 33.41777
#
# Poissons Ratio (x) = -0.05194 0.12948
# Poissons Ratio (y) = -0.10880 0.07910
# Poissons Ratio (z) = 0.32182 0.09385
#
# Static dielectric constant tensor:
#      x y z
#    x 1.768100 0.000000 0.025510 
#    y 0.000000 1.730540 0.000000 
#    z 0.025510 0.000000 1.760060 
# 
# From -- ./inp_files/264184.got.cif
#   From: 2010.05.17/outbox.cif.g08.bks.cpg/sg15_133_cif.got.tgz:264184.got - 2010.06.03 18:47:42.
