data_PCOD9259640
_publ_section_title
;
Structure prediction by ZEFSAII (Michael W. Deem and Ramdas Pophale) SiO2 
 PCOD9259640
Probable space group: C 2/C
;
_chemical_formula_sum "Si O2"
_cell_formula_units_Z 52
_cell_length_a 15.991933
_cell_length_b 10.314561
_cell_length_c 29.695269
_cell_angle_alpha 90.000000
_cell_angle_beta 36.118269
_cell_angle_gamma 90.000000
_cell_volume 2887.279733
_symmetry_space_group_name_H-M "C 2/C"
_symmetry_group_IT_number 15
_symmetry_cell_setting 'monoclinic'
loop_
_space_group_symop_operation_xyz
x,y,z
-x,y,1/2-z
-x,-y,-z
x,-y,1/2+z
1/2+x,1/2+y,z
1/2-x,1/2+y,1/2-z
1/2-x,1/2-y,-z
1/2+x,1/2-y,1/2+z
loop_
_atom_site_type_symbol
_atom_site_label
_atom_site_fract_x
_atom_site_fract_y
_atom_site_fract_z
Si Si1 0.531006 0.979847 0.641424
Si Si2 0.940140 0.356172 0.022632
Si Si3 0.000000 0.375000 0.250000
Si Si4 0.057577 0.818129 0.331748
Si Si5 0.758037 0.106172 0.977368
Si Si6 0.294723 0.770153 0.641424
Si Si7 0.197179 0.568129 0.831748
O O1 0.493270 0.826588 0.659738
O O2 0.677244 0.984327 0.548539
O O3 0.525732 0.041037 0.693272
O O4 0.415187 0.048343 0.659709
O O5 0.828729 0.375000 0.030847
O O6 0.864759 0.336512 0.103057
O O7 0.000000 0.500000 0.000000
O O8 0.072860 0.265673 0.951461
O O9 0.144453 0.291037 0.193272
O O10 0.144312 0.798343 0.340291
O O11 0.159848 0.875000 0.250000
O O12 0.923930 0.913488 0.396943
O O13 0.750000 0.250000 0.000000
O O14 0.277517 0.923412 0.659738
#
# Coordination Sequence:
#
# PCOD9259640 Si02
#       7
#     8   8   4   8   8   8   8
#     4  10  21  39  58  89 122 165 187 249 315 345
#     4  10  18  35  62  84 116 152 195 243 298 344
#     4  12  24  40  62  84 134 160 196 242 316 368
#     4  10  20  38  65  88 118 154 207 249 292 359
#     4  10  18  35  62  84 116 152 195 243 298 344
#     4  10  21  39  58  89 122 165 187 249 315 345
#     4  10  20  38  65  88 118 154 207 249 292 359
#
# _framework density 18.010031999999999
#
# number of rings (size 3 to 8) (size 9 to 14) (size 15 to 20)
#    0.000    1.846    7.692    0.000    0.000    5.538 
#    0.000    4.615    0.000    0.000    0.000    0.000 
#    0.000    0.000    0.000    0.000    0.000    0.000 
#
# Total GULP energy -144760.017362 kJ/mol
# GULP energy per Si atom -5567.692975 kJ/mol
# Density = 1.796904 g / cm^3
# Si number density = 18.010032 Si / 1000 Ang^3
#
#
#
# Elastic Constant Matrix: (Units=GPa)
#
#
# Indices 1 2 3 4 5 6 
#
# 1 131.4496 44.7283 72.7987 0.0000 -0.0861 0.0000
# 2 44.7283 30.1659 42.7133 0.0000 0.1087 0.0000
# 3 72.7987 42.7133 212.6390 0.0000 -4.2940 0.0000
# 4 0.0000 0.0000 0.0000 22.2422 0.0000 0.1380
# 5 -0.0861 0.1087 -4.2940 0.0000 30.3506 0.0000
# 6 0.0000 0.0000 0.0000 0.1380 0.0000 24.8008
#
#
#
# Elastic Compliance Matrix: (Units=1/GPa)
#
#
# Indices 1 2 3 4 5 6 
#
# 1 0.015494 -0.021608 -0.000964 0.000000 -0.000015 0.000000
# 2 -0.021608 0.076529 -0.008004 0.000000 -0.001468 0.000000
# 3 -0.000964 -0.008004 0.006660 0.000000 0.000968 0.000000
# 4 0.000000 0.000000 0.000000 0.044961 0.000000 -0.000250
# 5 -0.000015 -0.001468 0.000968 0.000000 0.033090 0.000000
# 6 0.000000 0.000000 0.000000 -0.000250 0.000000 0.040323
#
#
# Mechanical properties :
#
#
# Convention : Reuss Voigt Hill
#
# Bulk Modulus (GPa) = 26.64598 77.19280 51.91939
# Shear Modulus (GPa) = 17.19859 29.74635 23.47247
#
# Velocity S-wave (km/s) = 3.09357 4.06846 3.61404
# Velocity P-wave (km/s) = 5.25237 8.06374 6.80483
#
# Compressibility (1/GPa) = 0.03752911
#
# Stress axis : x y z
#
# Youngs Moduli (GPa) = 64.54008 13.06698 150.14217
#
# Poissons Ratio (x) = 0.28236 0.14479
# Poissons Ratio (y) = 1.39461 1.20179
# Poissons Ratio (z) = 0.06224 0.10459
#
# Static dielectric constant tensor:
#      x y z
#    x 1.599000 0.000000 -0.012220 
#    y 0.000000 1.595710 0.000000 
#    z -0.012220 0.000000 1.825470 
# 
# From -- ./inp_files/204195.got.cif
#   From: 2010.05.17/outbox.cif.g08.bks.cpg/sg15_103_cif.got.tgz:204195.got - 2010.06.03 18:47:42.
