data_PCOD9259279
_publ_section_title
;
Structure prediction by ZEFSAII (Michael W. Deem and Ramdas Pophale) SiO2 
 PCOD9259279
Probable space group: C 2/C
;
_chemical_formula_sum "Si O2"
_cell_formula_units_Z 44
_cell_length_a 9.829996
_cell_length_b 13.600254
_cell_length_c 16.897936
_cell_angle_alpha 90.000000
_cell_angle_beta 126.957316
_cell_angle_gamma 90.000000
_cell_volume 1805.203859
_symmetry_space_group_name_H-M "C 2/C"
_symmetry_group_IT_number 15
_symmetry_cell_setting 'monoclinic'
loop_
_space_group_symop_operation_xyz
x,y,z
-x,y,1/2-z
-x,-y,-z
x,-y,1/2+z
1/2+x,1/2+y,z
1/2-x,1/2+y,1/2-z
1/2-x,1/2-y,-z
1/2+x,1/2-y,1/2+z
loop_
_atom_site_type_symbol
_atom_site_label
_atom_site_fract_x
_atom_site_fract_y
_atom_site_fract_z
Si Si1 0.668622 0.722800 0.055944
Si Si2 0.301083 0.667897 0.162222
Si Si3 0.052680 0.407102 0.465241
Si Si4 0.500000 0.278433 0.250000
Si Si5 0.371961 0.022920 0.270927
Si Si6 0.389230 0.371406 0.375162
O O1 0.554086 0.812971 0.044964
O O2 0.824903 0.721463 0.170292
O O3 0.750000 0.750000 0.000000
O O4 0.542942 0.633162 0.992043
O O5 0.500000 0.661409 0.250000
O O6 0.196721 0.602003 0.189684
O O7 0.235088 0.779790 0.146338
O O8 0.244661 0.622835 0.056984
O O9 0.985826 0.440356 0.356917
O O10 0.000000 0.500000 0.500000
O O11 0.464695 0.344378 0.314933
O O12 0.500000 0.059551 0.250000
O O13 0.214888 0.969693 0.173837
#
# Coordination Sequence:
#
# PCOD9259279 Si02
#       6
#     8   8   8   4   8   8
#     4   9  18  33  58  95 118 162 210 258 301 386
#     4  10  23  42  64  90 126 169 216 260 323 385
#     4   9  19  39  60  86 124 165 205 261 320 368
#     4  10  18  34  64  92 122 162 208 254 312 370
#     4  11  23  41  65  94 129 168 214 268 319 378
#     4  10  21  37  62  92 128 163 214 256 324 373
#
# _framework density 24.373977
#
# number of rings (size 3 to 8) (size 9 to 14) (size 15 to 20)
#    0.000    2.182    1.818    0.545    2.545    1.455 
#    3.273    3.636    0.000    0.000    0.000    0.000 
#    0.000    0.000    0.000    0.000    0.000    0.000 
#
# Total GULP energy -123003.405967 kJ/mol
# GULP energy per Si atom -5591.063908 kJ/mol
# Density = 2.431850 g / cm^3
# Si number density = 24.373977 Si / 1000 Ang^3
#
#
#
# Elastic Constant Matrix: (Units=GPa)
#
#
# Indices 1 2 3 4 5 6 
#
# 1 78.2906 4.3387 43.3709 0.0000 15.4558 0.0000
# 2 4.3387 62.8375 37.3467 0.0000 9.0340 0.0000
# 3 43.3709 37.3467 137.0325 0.0000 45.3522 0.0000
# 4 0.0000 0.0000 0.0000 31.7996 0.0000 10.2650
# 5 15.4558 9.0340 45.3522 0.0000 42.4404 0.0000
# 6 0.0000 0.0000 0.0000 10.2650 0.0000 13.5973
#
#
#
# Elastic Compliance Matrix: (Units=1/GPa)
#
#
# Indices 1 2 3 4 5 6 
#
# 1 0.015751 0.002215 -0.005469 0.000000 -0.000364 0.000000
# 2 0.002215 0.019448 -0.006752 0.000000 0.002269 0.000000
# 3 -0.005469 -0.006752 0.015060 0.000000 -0.012664 0.000000
# 4 0.000000 0.000000 0.000000 0.041580 0.000000 -0.031390
# 5 -0.000364 0.002269 -0.012664 0.000000 0.036745 0.000000
# 6 0.000000 0.000000 0.000000 -0.031390 0.000000 0.097241
#
#
# Mechanical properties :
#
#
# Convention : Reuss Voigt Hill
#
# Bulk Modulus (GPa) = 33.06055 49.80815 41.43435
# Shear Modulus (GPa) = 19.53731 30.44107 24.98919
#
# Velocity S-wave (km/s) = 2.83426 3.53784 3.20541
# Velocity P-wave (km/s) = 4.92991 6.09653 5.54399
#
# Compressibility (1/GPa) = 0.03024753
#
# Stress axis : x y z
#
# Youngs Moduli (GPa) = 63.48620 51.41886 66.40080
#
# Poissons Ratio (x) = -0.11389 0.36311
# Poissons Ratio (y) = -0.14062 0.44837
# Poissons Ratio (z) = 0.34717 0.34720
#
# Static dielectric constant tensor:
#      x y z
#    x 1.925230 0.000000 -0.001960 
#    y 0.000000 1.959380 0.000000 
#    z -0.001960 0.000000 1.999980 
# 
# From -- ./inp_files/198088.got.cif
#   From: 2010.05.17/outbox.cif.g08.bks.cpg/sg15_100_cif.got.tgz:198088.got - 2010.06.03 18:47:42.
