data_PCOD9259868
_publ_section_title
;
Structure prediction by ZEFSAII (Michael W. Deem and Ramdas Pophale) SiO2 
 PCOD9259868
Probable space group: C 2/C
;
_chemical_formula_sum "Si O2"
_cell_formula_units_Z 52
_cell_length_a 8.123376
_cell_length_b 20.247854
_cell_length_c 16.213431
_cell_angle_alpha 90.000000
_cell_angle_beta 90.409749
_cell_angle_gamma 90.000000
_cell_volume 2666.732035
_symmetry_space_group_name_H-M "C 2/C"
_symmetry_group_IT_number 15
_symmetry_cell_setting 'monoclinic'
loop_
_space_group_symop_operation_xyz
x,y,z
-x,y,1/2-z
-x,-y,-z
x,-y,1/2+z
1/2+x,1/2+y,z
1/2-x,1/2+y,1/2-z
1/2-x,1/2-y,-z
1/2+x,1/2-y,1/2+z
loop_
_atom_site_type_symbol
_atom_site_label
_atom_site_fract_x
_atom_site_fract_y
_atom_site_fract_z
Si Si1 0.661098 0.175431 0.865054
Si Si2 0.276699 0.234428 0.213696
Si Si3 0.461269 0.340031 0.109740
Si Si4 0.015773 0.787414 0.566835
Si Si5 0.000000 0.579802 0.750000
Si Si6 0.840917 0.121074 0.188070
Si Si7 0.338056 0.529480 0.692125
O O1 0.841900 0.148723 0.885963
O O2 0.584004 0.218850 0.937444
O O3 0.530379 0.122944 0.832055
O O4 0.670378 0.042435 0.740512
O O5 0.416006 0.281206 0.173861
O O6 0.294896 0.163598 0.260687
O O7 0.156335 0.222571 0.135809
O O8 0.189677 0.277913 0.284667
O O9 0.369082 0.407914 0.132404
O O10 0.419418 0.313389 0.019187
O O11 0.889760 0.839315 0.606644
O O12 0.000000 0.121686 0.250000
O O13 0.815164 0.045492 0.162101
O O14 0.500000 0.530683 0.750000
#
# Coordination Sequence:
#
# PCOD9259868 Si02
#       7
#     8   8   8   8   4   8   8
#     4  11  19  36  56  84 116 153 193 248 286 341
#     4  10  18  36  58  81 113 153 200 236 285 350
#     4  12  21  32  59  91 118 149 197 245 298 348
#     4  10  20  35  56  86 121 155 187 244 304 343
#     4  12  20  36  62  82 114 148 200 252 280 332
#     4   8  19  37  58  80 116 156 198 239 289 348
#     4  11  21  38  59  87 114 154 205 241 285 347
#
# _framework density 19.499521999999999
#
# number of rings (size 3 to 8) (size 9 to 14) (size 15 to 20)
#    0.000    1.538    4.615    2.308    0.000    0.615 
#    5.538    0.000    0.000    0.923    0.000    0.000 
#    0.000    0.000    0.000    0.000    0.000    0.000 
#
# Total GULP energy -144879.956832 kJ/mol
# GULP energy per Si atom -5572.306032 kJ/mol
# Density = 1.945514 g / cm^3
# Si number density = 19.499522 Si / 1000 Ang^3
#
#
#
# Elastic Constant Matrix: (Units=GPa)
#
#
# Indices 1 2 3 4 5 6 
#
# 1 70.4321 17.0114 -2.8999 0.0000 -6.6343 0.0000
# 2 17.0114 100.3827 19.7370 0.0000 -18.4658 0.0000
# 3 -2.8999 19.7370 71.8095 0.0000 -4.4653 0.0000
# 4 0.0000 0.0000 0.0000 10.1486 0.0000 8.4863
# 5 -6.6343 -18.4658 -4.4653 0.0000 23.6856 0.0000
# 6 0.0000 0.0000 0.0000 8.4863 0.0000 -9.1226
#
#
#
# Elastic Compliance Matrix: (Units=1/GPa)
#
#
# Indices 1 2 3 4 5 6 
#
# 1 0.015073 -0.002344 0.001418 0.000000 0.002662 0.000000
# 2 -0.002344 0.012521 -0.003005 0.000000 0.008538 0.000000
# 3 0.001418 -0.003005 0.014862 0.000000 0.000856 0.000000
# 4 0.000000 0.000000 0.000000 0.055423 0.000000 0.051557
# 5 0.002662 0.008538 0.000856 0.000000 0.049784 0.000000
# 6 0.000000 0.000000 0.000000 0.051557 0.000000 -0.061657
#
#
# Mechanical properties :
#
#
# Convention : Reuss Voigt Hill
#
# Bulk Modulus (GPa) = 28.90533 34.48016 31.69274
# Shear Modulus (GPa) = 47.43916 18.86072 33.14994
#
# Velocity S-wave (km/s) = 4.93773 3.11342 4.12763
# Velocity P-wave (km/s) = 6.88215 5.53584 6.24538
#
# Compressibility (1/GPa) = 0.03459570
#
# Stress axis : x y z
#
# Youngs Moduli (GPa) = 66.34260 79.86886 67.28483
#
# Poissons Ratio (x) = 0.18718 -0.09544
# Poissons Ratio (y) = 0.15548 0.20219
# Poissons Ratio (z) = -0.09410 0.24000
#
# Static dielectric constant tensor:
#      x y z
#    x 1.749720 0.000000 -0.016460 
#    y 0.000000 1.744330 0.000000 
#    z -0.016460 0.000000 1.678360 
# 
# From -- ./inp_files/191535.got.cif
#   From: 2010.05.17/outbox.cif.g08.bks.cpg/sg15_96_cif.got.tgz:191535.got - 2010.06.03 18:47:42.
