data_PCOD9259400
_publ_section_title
;
Structure prediction by ZEFSAII (Michael W. Deem and Ramdas Pophale) SiO2 
 PCOD9259400
Probable space group: C 2/C
;
_chemical_formula_sum "Si O2"
_cell_formula_units_Z 64
_cell_length_a 9.213397
_cell_length_b 20.427759
_cell_length_c 25.483720
_cell_angle_alpha 90.000000
_cell_angle_beta 136.922866
_cell_angle_gamma 90.000000
_cell_volume 3275.765445
_symmetry_space_group_name_H-M "C 2/C"
_symmetry_group_IT_number 15
_symmetry_cell_setting 'monoclinic'
loop_
_space_group_symop_operation_xyz
x,y,z
-x,y,1/2-z
-x,-y,-z
x,-y,1/2+z
1/2+x,1/2+y,z
1/2-x,1/2+y,1/2-z
1/2-x,1/2-y,-z
1/2+x,1/2-y,1/2+z
loop_
_atom_site_type_symbol
_atom_site_label
_atom_site_fract_x
_atom_site_fract_y
_atom_site_fract_z
Si Si1 0.812006 0.309556 0.776186
Si Si2 0.256342 0.571994 0.310764
Si Si3 0.398874 0.657227 0.562222
Si Si4 0.523410 0.205078 0.536855
Si Si5 0.699400 0.651278 0.080519
Si Si6 0.774740 0.264243 0.878971
Si Si7 0.895908 0.316237 0.323078
Si Si8 0.734520 0.925526 0.285446
O O1 0.696805 0.368404 0.715920
O O2 0.733743 0.303334 0.815215
O O3 0.770318 0.242389 0.733374
O O4 0.061338 0.325351 0.843903
O O5 0.350569 0.593253 0.391987
O O6 0.309260 0.500657 0.302766
O O7 0.000000 0.570858 0.250000
O O8 0.216206 0.671236 0.556062
O O9 0.316333 0.631296 0.484486
O O10 0.506537 0.726960 0.577388
O O11 0.586846 0.612933 0.634648
O O12 0.558341 0.283696 0.551303
O O13 0.319869 0.197631 0.444933
O O14 0.528310 0.179388 0.597173
O O15 0.596989 0.209736 0.842560
O O16 0.801328 0.383764 0.276798
O O17 0.500000 0.924947 0.250000
#
# Coordination Sequence:
#
# PCOD9259400 Si02
#       8
#     8   8   8   8   8   8   8   8
#     4  11  18  35  59  85 112 147 194 239 290 335
#     4   9  21  34  59  88 116 151 194 248 284 345
#     4  11  20  35  61  81 121 154 189 242 289 349
#     4  11  21  35  58  90 118 151 194 241 291 349
#     4  10  18  35  56  88 115 147 193 239 287 341
#     4  11  20  36  57  87 120 151 189 244 294 344
#     4  12  22  34  61  87 120 153 193 241 295 343
#     4  11  21  39  56  87 120 151 195 240 299 344
#
# _framework density 19.537417999999999
#
# number of rings (size 3 to 8) (size 9 to 14) (size 15 to 20)
#    0.000    1.250    6.250    1.500    0.000    2.000 
#    0.000    0.000    5.500    0.750    0.000    0.000 
#    0.000    0.000    0.000    0.000    0.000    0.000 
#
# Total GULP energy -178562.152300 kJ/mol
# GULP energy per Si atom -5580.067259 kJ/mol
# Density = 1.949295 g / cm^3
# Si number density = 19.537418 Si / 1000 Ang^3
#
#
#
# Elastic Constant Matrix: (Units=GPa)
#
#
# Indices 1 2 3 4 5 6 
#
# 1 48.4907 25.4905 21.9741 -0.0003 -17.6374 -0.0002
# 2 25.4905 106.2743 38.8604 -0.0001 -30.2847 -0.0001
# 3 21.9741 38.8604 82.2280 -0.0005 -30.0788 -0.0004
# 4 -0.0003 -0.0001 -0.0005 17.6187 -0.0003 -4.7943
# 5 -17.6374 -30.2847 -30.0788 -0.0003 42.1435 -0.0002
# 6 -0.0002 -0.0001 -0.0004 -4.7943 -0.0002 19.2774
#
#
#
# Elastic Compliance Matrix: (Units=1/GPa)
#
#
# Indices 1 2 3 4 5 6 
#
# 1 0.026066 -0.003324 -0.003083 0.000001 0.006320 0.000000
# 2 -0.003324 0.012984 -0.003172 0.000000 0.005676 0.000000
# 3 -0.003083 -0.003172 0.017835 0.000001 0.009159 0.000001
# 4 0.000001 0.000000 0.000001 0.060878 0.000001 0.015140
# 5 0.006320 0.005676 0.009159 0.000001 0.036989 0.000001
# 6 0.000000 0.000000 0.000001 0.015140 0.000001 0.055640
#
#
# Mechanical properties :
#
#
# Convention : Reuss Voigt Hill
#
# Bulk Modulus (GPa) = 26.50620 45.51589 36.01104
# Shear Modulus (GPa) = 20.65061 25.85246 23.25153
#
# Velocity S-wave (km/s) = 3.25465 3.64157 3.45353
# Velocity P-wave (km/s) = 5.26498 6.40536 5.86296
#
# Compressibility (1/GPa) = 0.03772703
#
# Stress axis : x y z
#
# Youngs Moduli (GPa) = 38.36484 77.01798 56.07042
#
# Poissons Ratio (x) = 0.25598 0.17287
# Poissons Ratio (y) = 0.12751 0.17785
# Poissons Ratio (z) = 0.11828 0.24429
#
# Static dielectric constant tensor:
#      x y z
#    x 1.730330 0.000000 -0.002140 
#    y 0.000000 1.681530 0.000000 
#    z -0.002140 0.000000 1.745370 
# 
# From -- ./inp_files/266118.got.cif
#   From: 2010.05.17/outbox.cif.g08.bks.cpg/sg15_134_cif.got.tgz:266118.got - 2010.06.03 18:47:42.
