data_PCOD9259461
_publ_section_title
;
Structure prediction by ZEFSAII (Michael W. Deem and Ramdas Pophale) SiO2 
 PCOD9259461
Probable space group: C 2/C
;
_chemical_formula_sum "Si O2"
_cell_formula_units_Z 44
_cell_length_a 27.486041
_cell_length_b 13.015355
_cell_length_c 8.745089
_cell_angle_alpha 90.000000
_cell_angle_beta 141.830602
_cell_angle_gamma 90.000000
_cell_volume 1933.360713
_symmetry_space_group_name_H-M "C 2/C"
_symmetry_group_IT_number 15
_symmetry_cell_setting 'monoclinic'
loop_
_space_group_symop_operation_xyz
x,y,z
-x,y,1/2-z
-x,-y,-z
x,-y,1/2+z
1/2+x,1/2+y,z
1/2-x,1/2+y,1/2-z
1/2-x,1/2-y,-z
1/2+x,1/2-y,1/2+z
loop_
_atom_site_type_symbol
_atom_site_label
_atom_site_fract_x
_atom_site_fract_y
_atom_site_fract_z
Si Si1 0.000000 0.995047 0.250000
Si Si2 0.844708 0.437757 0.484620
Si Si3 0.887858 0.062419 0.721811
Si Si4 0.308738 0.656807 0.027529
Si Si5 0.052909 0.443076 0.503696
Si Si6 0.246436 0.647827 0.206975
O O1 0.063907 0.062277 0.501572
O O2 0.047570 0.923177 0.250245
O O3 0.777777 0.369631 0.248438
O O4 0.884366 0.388261 0.732289
O O5 0.903663 0.473117 0.496161
O O6 0.800556 0.541651 0.427854
O O7 0.808772 0.129146 0.499204
O O8 0.861500 0.942938 0.633203
O O9 0.320279 0.763644 0.966957
O O10 0.299676 0.665572 0.187624
O O11 0.000000 0.500000 0.500000
O O12 0.000000 0.383050 0.250000
#
# Coordination Sequence:
#
# PCOD9259461 Si02
#       6
#     4   8   8   8   8   8
#     4  10  20  36  64  78 128 150 202 224 302 360
#     4  10  18  35  58  83 107 152 184 241 281 327
#     4  10  20  38  62  89 110 166 183 251 293 344
#     4  10  20  35  61  87 114 143 201 241 288 345
#     4   9  18  32  56  75 108 149 186 214 282 343
#     4  10  20  35  61  87 113 145 200 242 285 345
#
# _framework density 22.758299000000001
#
# number of rings (size 3 to 8) (size 9 to 14) (size 15 to 20)
#    0.000    2.182    3.636    0.000    0.000    0.000 
#    0.000    3.636   40.000    0.000    0.000    0.000 
#    0.000    0.000    0.000    0.000    0.000    0.000 
#
# Total GULP energy -122550.342678 kJ/mol
# GULP energy per Si atom -5570.470122 kJ/mol
# Density = 2.270650 g / cm^3
# Si number density = 22.758299 Si / 1000 Ang^3
#
#
#
# Elastic Constant Matrix: (Units=GPa)
#
#
# Indices 1 2 3 4 5 6 
#
# 1 61.1544 -0.3457 14.8089 0.0000 -10.8255 0.0000
# 2 -0.3457 68.3379 8.9108 0.0000 -0.8669 0.0000
# 3 14.8089 8.9108 193.8682 0.0000 -33.3319 0.0000
# 4 0.0000 0.0000 0.0000 13.9426 0.0000 -2.7029
# 5 -10.8255 -0.8669 -33.3319 0.0000 30.5471 0.0000
# 6 0.0000 0.0000 0.0000 -2.7029 0.0000 13.3898
#
#
#
# Elastic Compliance Matrix: (Units=1/GPa)
#
#
# Indices 1 2 3 4 5 6 
#
# 1 0.017467 0.000207 -0.000343 0.000000 0.005822 0.000000
# 2 0.000207 0.014728 -0.000749 0.000000 -0.000326 0.000000
# 3 -0.000343 -0.000749 0.006394 0.000000 0.006834 0.000000
# 4 0.000000 0.000000 0.000000 0.074643 0.000000 0.015068
# 5 0.005822 -0.000326 0.006834 0.000000 0.042247 0.000000
# 6 0.000000 0.000000 0.000000 0.015068 0.000000 0.077725
#
#
# Mechanical properties :
#
#
# Convention : Reuss Voigt Hill
#
# Bulk Modulus (GPa) = 27.15986 41.12316 34.14151
# Shear Modulus (GPa) = 20.22275 31.57500 25.89887
#
# Velocity S-wave (km/s) = 2.98415 3.72883 3.37708
# Velocity P-wave (km/s) = 4.88196 6.05373 5.49914
#
# Compressibility (1/GPa) = 0.03681903
#
# Stress axis : x y z
#
# Youngs Moduli (GPa) = 57.25137 67.89924 156.40434
#
# Poissons Ratio (x) = -0.01405 0.05361
# Poissons Ratio (y) = -0.01185 0.11710
# Poissons Ratio (z) = 0.01962 0.05084
#
# Static dielectric constant tensor:
#      x y z
#    x 1.862360 0.000000 0.012790 
#    y 0.000000 1.786020 0.000000 
#    z 0.012790 0.000000 1.928520 
# 
# From -- ./inp_files/47180.got.cif
#   From: 2010.05.17/outbox.cif.g08.bks.cpg/sg15_24_cif.got.tgz:47180.got - 2010.06.03 18:47:42.
