data_PCOD9259594
_publ_section_title
;
Structure prediction by ZEFSAII (Michael W. Deem and Ramdas Pophale) SiO2 
 PCOD9259594
Probable space group: C 2/C
;
_chemical_formula_sum "Si O2"
_cell_formula_units_Z 48
_cell_length_a 24.506064
_cell_length_b 16.995497
_cell_length_c 13.799256
_cell_angle_alpha 90.000000
_cell_angle_beta 24.479881
_cell_angle_gamma 90.000000
_cell_volume 2381.525729
_symmetry_space_group_name_H-M "C 2/C"
_symmetry_group_IT_number 15
_symmetry_cell_setting 'monoclinic'
loop_
_space_group_symop_operation_xyz
x,y,z
-x,y,1/2-z
-x,-y,-z
x,-y,1/2+z
1/2+x,1/2+y,z
1/2-x,1/2+y,1/2-z
1/2-x,1/2-y,-z
1/2+x,1/2-y,1/2+z
loop_
_atom_site_type_symbol
_atom_site_label
_atom_site_fract_x
_atom_site_fract_y
_atom_site_fract_z
Si Si1 0.231980 0.410040 0.796404
Si Si2 0.533253 0.881308 0.968745
Si Si3 0.103726 0.203107 0.819335
Si Si4 0.591237 0.569076 0.311311
Si Si5 0.642573 0.276399 0.037634
Si Si6 0.279978 0.979737 0.345885
O O1 0.282066 0.415766 0.823900
O O2 0.320492 0.343707 0.599249
O O3 0.255033 0.493735 0.706205
O O4 0.083903 0.388140 0.999374
O O5 0.388681 0.912091 0.180630
O O6 0.551464 0.792753 0.905732
O O7 0.638142 0.942260 0.750385
O O8 0.244114 0.211305 0.644816
O O9 0.133252 0.184123 0.659333
O O10 0.000365 0.145804 0.035737
O O11 0.500000 0.500000 0.500000
O O12 0.651850 0.542494 0.112109
O O13 0.500000 0.241849 0.250000
#
# Coordination Sequence:
#
# PCOD9259594 Si02
#       6
#     8   8   8   8   8   8
#     4   9  19  38  60  83 120 161 189 245 318 340
#     4   8  19  42  62  82 119 165 196 249 303 359
#     4  10  21  35  59  90 115 156 209 245 301 359
#     4  12  24  35  59  94 120 157 203 248 301 362
#     4  10  18  35  61  80 117 160 193 247 297 360
#     4   9  20  40  62  87 122 159 200 251 302 357
#
# _framework density 20.155145000000001
#
# number of rings (size 3 to 8) (size 9 to 14) (size 15 to 20)
#    1.000    1.333    1.667    1.000    2.333    1.333 
#    3.000    0.000    0.000    2.000    0.000    0.000 
#    0.000    0.000    0.000    0.000    0.000    0.000 
#
# Total GULP energy -133656.603328 kJ/mol
# GULP energy per Si atom -5569.025139 kJ/mol
# Density = 2.010927 g / cm^3
# Si number density = 20.155145 Si / 1000 Ang^3
#
#
#
# Elastic Constant Matrix: (Units=GPa)
#
#
# Indices 1 2 3 4 5 6 
#
# 1 50.5556 -4.6079 -4.1836 -0.0001 -19.6289 0.0001
# 2 -4.6079 74.6946 21.6527 0.0000 -10.5358 0.0000
# 3 -4.1836 21.6527 62.8107 0.0000 -21.0518 0.0000
# 4 -0.0001 0.0000 0.0000 20.7904 0.0000 -8.6692
# 5 -19.6289 -10.5358 -21.0518 0.0000 25.1301 0.0000
# 6 0.0001 0.0000 0.0000 -8.6692 0.0000 19.6222
#
#
#
# Elastic Compliance Matrix: (Units=1/GPa)
#
#
# Indices 1 2 3 4 5 6 
#
# 1 0.039881 0.004178 0.017023 0.000000 0.047163 0.000000
# 2 0.004178 0.015445 -0.002478 0.000000 0.007663 0.000000
# 3 0.017023 -0.002478 0.030612 0.000000 0.037902 0.000000
# 4 0.000000 0.000000 0.000000 0.058961 0.000000 0.026049
# 5 0.047163 0.007663 0.037902 0.000000 0.111595 0.000000
# 6 0.000000 0.000000 0.000000 0.026049 0.000000 0.062471
#
#
# Mechanical properties :
#
#
# Convention : Reuss Voigt Hill
#
# Bulk Modulus (GPa) = 8.10468 23.75371 15.92919
# Shear Modulus (GPa) = 15.49680 24.78852 20.14266
#
# Velocity S-wave (km/s) = 2.77587 3.51078 3.16473
# Velocity P-wave (km/s) = 3.78204 5.31461 4.61242
#
# Compressibility (1/GPa) = 0.12338555
#
# Stress axis : x y z
#
# Youngs Moduli (GPa) = 25.07434 64.74721 32.66676
#
# Poissons Ratio (x) = -0.27051 -0.55610
# Poissons Ratio (y) = -0.10476 0.08094
# Poissons Ratio (z) = -0.42685 0.16042
#
# Static dielectric constant tensor:
#      x y z
#    x 1.813980 0.000000 -0.075470 
#    y 0.000000 1.711840 0.000000 
#    z -0.075470 0.000000 1.809170 
# 
# From -- ./inp_files/119366.got.cif
#   From: 2010.05.17/outbox.cif.g08.bks.cpg/sg15_60_cif.got.tgz:119366.got - 2010.06.03 18:47:42.
