data_PCOD9259602
_publ_section_title
;
Structure prediction by ZEFSAII (Michael W. Deem and Ramdas Pophale) SiO2 
 PCOD9259602
Probable space group: C 2/C
;
_chemical_formula_sum "Si O2"
_cell_formula_units_Z 44
_cell_length_a 7.739438
_cell_length_b 11.776273
_cell_length_c 24.806232
_cell_angle_alpha 90.000000
_cell_angle_beta 56.427126
_cell_angle_gamma 90.000000
_cell_volume 1883.729620
_symmetry_space_group_name_H-M "C 2/C"
_symmetry_group_IT_number 15
_symmetry_cell_setting 'monoclinic'
loop_
_space_group_symop_operation_xyz
x,y,z
-x,y,1/2-z
-x,-y,-z
x,-y,1/2+z
1/2+x,1/2+y,z
1/2-x,1/2+y,1/2-z
1/2-x,1/2-y,-z
1/2+x,1/2-y,1/2+z
loop_
_atom_site_type_symbol
_atom_site_label
_atom_site_fract_x
_atom_site_fract_y
_atom_site_fract_z
Si Si1 0.174093 0.407650 0.383822
Si Si2 0.000000 0.066585 0.750000
Si Si3 0.743265 0.930283 0.197229
Si Si4 0.533326 0.341419 0.065708
Si Si5 0.204339 0.669325 0.178854
Si Si6 0.148527 0.593313 0.067072
O O1 0.309435 0.482848 0.317741
O O2 0.300295 0.383795 0.417184
O O3 0.169225 0.283646 0.355915
O O4 0.965412 0.477242 0.428485
O O5 0.125256 0.126233 0.777757
O O6 0.500000 0.920969 0.250000
O O7 0.816106 0.880746 0.127766
O O8 0.813616 0.062207 0.187847
O O9 0.538550 0.205383 0.060869
O O10 0.619197 0.394611 0.996205
O O11 0.142287 0.617135 0.131620
O O12 0.000000 0.685662 0.250000
#
# Coordination Sequence:
#
# PCOD9259602 Si02
#       6
#     8   4   8   8   8   8
#     4  10  18  35  61  86 120 169 207 259 327 379
#     4  10  20  38  60  88 122 160 214 260 316 374
#     4  10  21  40  63  91 126 166 212 266 322 383
#     4   9  21  38  59  92 125 166 214 263 326 386
#     4  10  20  36  57  86 126 168 204 265 331 371
#     4  10  20  38  62  87 128 169 207 268 327 382
#
# _framework density 23.357915999999999
#
# number of rings (size 3 to 8) (size 9 to 14) (size 15 to 20)
#    0.000    2.182    0.909    2.727    0.000    0.727 
#    1.636    6.364    2.000    0.000    0.000    7.636 
#    0.000    0.000    0.000    0.000    0.000    0.000 
#
# Total GULP energy -122592.681955 kJ/mol
# GULP energy per Si atom -5572.394634 kJ/mol
# Density = 2.330475 g / cm^3
# Si number density = 23.357916 Si / 1000 Ang^3
#
#
#
# Elastic Constant Matrix: (Units=GPa)
#
#
# Indices 1 2 3 4 5 6 
#
# 1 46.5241 21.8797 23.4830 0.0001 -3.1848 0.0001
# 2 21.8797 130.6690 31.2822 0.0001 -13.1951 0.0001
# 3 23.4830 31.2822 148.9250 -0.0001 -8.4269 -0.0001
# 4 0.0001 0.0001 -0.0001 267.6924 0.0000 244.0684
# 5 -3.1848 -13.1951 -8.4269 0.0000 31.6424 0.0000
# 6 0.0001 0.0001 -0.0001 244.0684 0.0000 298.1398
#
#
#
# Elastic Compliance Matrix: (Units=1/GPa)
#
#
# Indices 1 2 3 4 5 6 
#
# 1 0.024689 -0.003349 -0.003176 0.000000 0.000243 0.000000
# 2 -0.003349 0.008794 -0.001148 0.000000 0.003024 0.000000
# 3 -0.003176 -0.001148 0.007525 0.000000 0.001206 0.000000
# 4 0.000000 0.000000 0.000000 0.014730 0.000000 -0.012058
# 5 0.000243 0.003024 0.001206 0.000000 0.033210 0.000000
# 6 0.000000 0.000000 0.000000 -0.012058 0.000000 0.013226
#
#
# Mechanical properties :
#
#
# Convention : Reuss Voigt Hill
#
# Bulk Modulus (GPa) = 38.96837 53.26754 46.11796
# Shear Modulus (GPa) = 39.65956 136.12649 87.89303
#
# Velocity S-wave (km/s) = 4.12504 7.64232 6.14089
# Velocity P-wave (km/s) = 6.27752 10.03632 8.37064
#
# Compressibility (1/GPa) = 0.02566184
#
# Stress axis : x y z
#
# Youngs Moduli (GPa) = 40.50402 113.71454 132.89193
#
# Poissons Ratio (x) = 0.38085 0.42204
# Poissons Ratio (y) = 0.13566 0.15255
# Poissons Ratio (z) = 0.12863 0.13054
#
# Static dielectric constant tensor:
#      x y z
#    x 1.893170 0.000000 0.012090 
#    y 0.000000 2.028040 0.000000 
#    z 0.012090 0.000000 1.988500 
# 
# From -- ./inp_files/287875.got.cif
#   From: 2010.05.17/outbox.cif.g08.bks.cpg/sg15_144_cif.got.tgz:287875.got - 2010.06.03 18:47:42.
