data_PCOD9259939
_publ_section_title
;
Structure prediction by ZEFSAII (Michael W. Deem and Ramdas Pophale) SiO2 
 PCOD9259939
Probable space group: C 2/C
;
_chemical_formula_sum "Si O2"
_cell_formula_units_Z 56
_cell_length_a 31.229700
_cell_length_b 10.846921
_cell_length_c 11.432816
_cell_angle_alpha 90.000000
_cell_angle_beta 134.203022
_cell_angle_gamma 90.000000
_cell_volume 2776.324549
_symmetry_space_group_name_H-M "C 2/C"
_symmetry_group_IT_number 15
_symmetry_cell_setting 'monoclinic'
loop_
_space_group_symop_operation_xyz
x,y,z
-x,y,1/2-z
-x,-y,-z
x,-y,1/2+z
1/2+x,1/2+y,z
1/2-x,1/2+y,1/2-z
1/2-x,1/2-y,-z
1/2+x,1/2-y,1/2+z
loop_
_atom_site_type_symbol
_atom_site_label
_atom_site_fract_x
_atom_site_fract_y
_atom_site_fract_z
Si Si1 0.137485 0.946383 0.956532
Si Si2 0.064283 0.840787 0.616165
Si Si3 0.788922 0.603541 0.135613
Si Si4 0.159748 0.162144 0.873905
Si Si5 0.336257 0.165533 0.715605
Si Si6 0.274844 0.758680 0.858021
Si Si7 0.446810 0.400626 0.502977
O O1 0.118359 0.905131 0.790644
O O2 0.141628 0.094094 0.960005
O O3 0.197587 0.878285 0.108194
O O4 0.084632 0.892378 0.933328
O O5 0.096874 0.717114 0.637269
O O6 0.006283 0.825957 0.587097
O O7 0.042391 0.951349 0.490045
O O8 0.820276 0.697163 0.104168
O O9 0.824850 0.478136 0.217818
O O10 0.781109 0.669586 0.247740
O O11 0.720927 0.587373 0.960060
O O12 0.104078 0.144180 0.683036
O O13 0.314710 0.183725 0.539130
O O14 0.290537 0.241213 0.711512
#
# Coordination Sequence:
#
# PCOD9259939 Si02
#       7
#     8   8   8   8   8   8   8
#     4  10  18  36  59  85 110 153 198 250 297 360
#     4   9  21  35  57  86 112 156 202 248 295 357
#     4  11  22  37  57  89 125 160 193 252 311 370
#     4  10  22  34  56  90 120 151 199 248 304 361
#     4  10  22  38  57  88 121 157 207 243 303 383
#     4  10  21  37  59  83 118 157 194 249 305 368
#     4  10  19  37  58  83 118 152 200 255 295 351
#
# _framework density 20.170551
#
# number of rings (size 3 to 8) (size 9 to 14) (size 15 to 20)
#    0.000    2.000    2.857    0.429    4.000    2.286 
#    0.000    0.714    0.000    0.000    0.000    0.000 
#    0.000    0.000    0.000    0.000    0.000    0.000 
#
# Total GULP energy -155891.019712 kJ/mol
# GULP energy per Si atom -5567.536418 kJ/mol
# Density = 2.012464 g / cm^3
# Si number density = 20.170551 Si / 1000 Ang^3
#
#
#
# Elastic Constant Matrix: (Units=GPa)
#
#
# Indices 1 2 3 4 5 6 
#
# 1 78.9914 39.6467 32.4017 0.0000 19.8197 0.0000
# 2 39.6467 94.8390 35.2538 0.0000 14.0459 0.0000
# 3 32.4017 35.2538 77.2340 0.0000 15.4734 0.0000
# 4 0.0000 0.0000 0.0000 24.8389 0.0000 5.5426
# 5 19.8197 14.0459 15.4734 0.0000 32.2722 0.0000
# 6 0.0000 0.0000 0.0000 5.5426 0.0000 32.2930
#
#
#
# Elastic Compliance Matrix: (Units=1/GPa)
#
#
# Indices 1 2 3 4 5 6 
#
# 1 0.018791 -0.005282 -0.004005 0.000000 -0.007321 0.000000
# 2 -0.005282 0.014459 -0.004174 0.000000 -0.001048 0.000000
# 3 -0.004005 -0.004174 0.017342 0.000000 -0.004038 0.000000
# 4 0.000000 0.000000 0.000000 0.041863 0.000000 -0.007185
# 5 -0.007321 -0.001048 -0.004038 0.000000 0.037875 0.000000
# 6 0.000000 0.000000 0.000000 -0.007185 0.000000 0.032200
#
#
# Mechanical properties :
#
#
# Convention : Reuss Voigt Hill
#
# Bulk Modulus (GPa) = 42.24952 51.74097 46.99525
# Shear Modulus (GPa) = 25.33673 27.46497 26.40085
#
# Velocity S-wave (km/s) = 3.54803 3.69404 3.62177
# Velocity P-wave (km/s) = 6.14624 6.62586 6.39055
#
# Compressibility (1/GPa) = 0.02366891
#
# Stress axis : x y z
#
# Youngs Moduli (GPa) = 53.21813 69.16068 57.66214
#
# Poissons Ratio (x) = 0.36532 0.23096
# Poissons Ratio (y) = 0.28110 0.24068
# Poissons Ratio (z) = 0.21316 0.28868
#
# Static dielectric constant tensor:
#      x y z
#    x 1.791960 0.000000 -0.012750 
#    y 0.000000 1.780890 0.000000 
#    z -0.012750 0.000000 1.761070 
# 
# From -- ./inp_files/181592.got.cif
#   From: 2010.05.17/outbox.cif.g08.bks.cpg/sg15_91_cif.got.tgz:181592.got - 2010.06.03 18:47:42.
