data_PCOD9259261
_publ_section_title
;
Structure prediction by ZEFSAII (Michael W. Deem and Ramdas Pophale) SiO2 
 PCOD9259261
Probable space group: C 2/C
;
_chemical_formula_sum "Si O2"
_cell_formula_units_Z 64
_cell_length_a 24.949656
_cell_length_b 17.366238
_cell_length_c 18.106969
_cell_angle_alpha 90.000000
_cell_angle_beta 158.207952
_cell_angle_gamma 90.000000
_cell_volume 2912.524762
_symmetry_space_group_name_H-M "C 2/C"
_symmetry_group_IT_number 15
_symmetry_cell_setting 'monoclinic'
loop_
_space_group_symop_operation_xyz
x,y,z
-x,y,1/2-z
-x,-y,-z
x,-y,1/2+z
1/2+x,1/2+y,z
1/2-x,1/2+y,1/2-z
1/2-x,1/2-y,-z
1/2+x,1/2-y,1/2+z
loop_
_atom_site_type_symbol
_atom_site_label
_atom_site_fract_x
_atom_site_fract_y
_atom_site_fract_z
Si Si1 0.042983 0.799634 0.151641
Si Si2 0.915312 0.920296 0.794756
Si Si3 0.360190 0.447102 0.898998
Si Si4 0.076928 0.225804 0.519868
Si Si5 0.156817 0.637952 0.454216
Si Si6 0.964916 0.595783 0.508748
Si Si7 0.366775 0.150622 0.914278
Si Si8 0.375973 0.973912 0.151010
O O1 0.064287 0.790807 0.090959
O O2 0.203329 0.813157 0.386295
O O3 0.945232 0.874068 0.041799
O O4 0.959051 0.722599 0.061703
O O5 0.872241 0.935413 0.825513
O O6 0.778869 0.940695 0.570230
O O7 0.960249 0.832214 0.837083
O O8 0.054763 0.976664 0.966034
O O9 0.191851 0.442250 0.701325
O O10 0.233714 0.191417 0.701788
O O11 0.060723 0.317103 0.491422
O O12 0.179768 0.608396 0.569216
O O13 0.143558 0.565386 0.383396
O O14 0.000000 0.675551 0.250000
O O15 0.041580 0.604590 0.527800
O O16 0.065463 0.551973 0.695333
O O17 0.500000 0.951568 0.250000
#
# Coordination Sequence:
#
# PCOD9259261 Si02
#       8
#     8   8   8   8   8   8   8   8
#     4   9  17  35  63  91 122 163 217 266 308 387
#     4  10  20  35  60  89 125 172 220 260 309 387
#     4  10  18  34  63  93 115 168 229 254 305 380
#     4   9  20  36  60  95 128 168 216 261 316 383
#     4  10  22  39  62  92 130 165 212 269 328 387
#     4  11  22  37  65  97 131 167 214 270 321 386
#     4  10  21  39  64  97 129 163 217 275 320 381
#     4  11  22  38  59  93 127 167 216 264 318 381
#
# _framework density 21.974062
#
# number of rings (size 3 to 8) (size 9 to 14) (size 15 to 20)
#    0.000    2.000    3.750    0.000    1.750    1.000 
#    0.000    6.250    0.000    0.000    0.000    0.000 
#    0.000    0.000    0.000    0.000    0.000    0.000 
#
# Total GULP energy -178739.002127 kJ/mol
# GULP energy per Si atom -5585.593816 kJ/mol
# Density = 2.192405 g / cm^3
# Si number density = 21.974062 Si / 1000 Ang^3
#
#
#
# Elastic Constant Matrix: (Units=GPa)
#
#
# Indices 1 2 3 4 5 6 
#
# 1 18.0493 18.8493 -2.8795 -0.0007 -6.3469 0.0008
# 2 18.8493 94.2335 47.7012 -0.0004 -0.4761 0.0010
# 3 -2.8795 47.7012 141.0265 -0.0011 -4.4036 0.0020
# 4 -0.0007 -0.0004 -0.0011 42.5365 -0.0004 -13.9043
# 5 -6.3469 -0.4761 -4.4036 -0.0004 24.3985 0.0007
# 6 0.0008 0.0010 0.0020 -13.9043 0.0007 65.4554
#
#
#
# Elastic Compliance Matrix: (Units=1/GPa)
#
#
# Indices 1 2 3 4 5 6 
#
# 1 0.090002 -0.023167 0.010450 0.000001 0.024847 -0.000001
# 2 -0.023167 0.018775 -0.007040 0.000000 -0.006931 0.000000
# 3 0.010450 -0.007040 0.009821 0.000000 0.004354 0.000000
# 4 0.000001 0.000000 0.000000 0.025263 0.000001 0.005367
# 5 0.024847 -0.006931 0.004354 0.000001 0.048100 -0.000001
# 6 -0.000001 0.000000 0.000000 0.005367 -0.000001 0.016418
#
#
# Mechanical properties :
#
#
# Convention : Reuss Voigt Hill
#
# Bulk Modulus (GPa) = 12.64486 42.29458 27.46972
# Shear Modulus (GPa) = 18.23123 39.12063 28.67593
#
# Velocity S-wave (km/s) = 2.88353 4.22395 3.61638
# Velocity P-wave (km/s) = 4.10527 6.56340 5.47410
#
# Compressibility (1/GPa) = 0.07908353
#
# Stress axis : x y z
#
# Youngs Moduli (GPa) = 11.11086 53.26361 101.81907
#
# Poissons Ratio (x) = 1.23396 -1.06397
# Poissons Ratio (y) = 0.25741 0.71679
# Poissons Ratio (z) = -0.11610 0.37497
#
# Static dielectric constant tensor:
#      x y z
#    x 1.828060 0.000000 0.026650 
#    y 0.000000 1.857610 0.000000 
#    z 0.026650 0.000000 1.823090 
# 
# From -- ./inp_files/258085.got.cif
#   From: 2010.05.17/outbox.cif.g08.bks.cpg/sg15_130_cif.got.tgz:258085.got - 2010.06.03 18:47:42.
