data_PCOD9259562
_publ_section_title
;
Structure prediction by ZEFSAII (Michael W. Deem and Ramdas Pophale) SiO2 
 PCOD9259562
Probable space group: C 2/C
;
_chemical_formula_sum "Si O2"
_cell_formula_units_Z 48
_cell_length_a 10.012203
_cell_length_b 16.455938
_cell_length_c 15.171437
_cell_angle_alpha 90.000000
_cell_angle_beta 89.246411
_cell_angle_gamma 90.000000
_cell_volume 2499.432665
_symmetry_space_group_name_H-M "C 2/C"
_symmetry_group_IT_number 15
_symmetry_cell_setting 'monoclinic'
loop_
_space_group_symop_operation_xyz
x,y,z
-x,y,1/2-z
-x,-y,-z
x,-y,1/2+z
1/2+x,1/2+y,z
1/2-x,1/2+y,1/2-z
1/2-x,1/2-y,-z
1/2+x,1/2-y,1/2+z
loop_
_atom_site_type_symbol
_atom_site_label
_atom_site_fract_x
_atom_site_fract_y
_atom_site_fract_z
Si Si1 0.516146 0.858337 0.646469
Si Si2 0.663364 0.467974 0.242274
Si Si3 0.022860 0.902696 0.988297
Si Si4 0.092758 0.186272 0.663571
Si Si5 0.277812 0.023628 0.425129
Si Si6 0.244275 0.906032 0.591554
O O1 0.500000 0.876833 0.750000
O O2 0.610579 0.779269 0.635531
O O3 0.583069 0.934130 0.597720
O O4 0.366714 0.846227 0.610205
O O5 0.500000 0.475022 0.250000
O O6 0.697430 0.380592 0.197822
O O7 0.724097 0.478526 0.338254
O O8 0.718239 0.537141 0.176771
O O9 0.900503 0.869757 0.931924
O O10 0.169634 0.904822 0.945543
O O11 0.025495 0.859053 0.081850
O O12 0.000000 0.000000 0.000000
O O13 0.000000 0.196027 0.750000
O O14 0.281665 0.963369 0.508051
#
# Coordination Sequence:
#
# PCOD9259562 Si02
#       6
#     8   8   8   8   8   8
#     4  11  24  37  54  86 124 154 179 241 313 338
#     4  11  18  35  65  87 109 151 203 243 265 346
#     4  10  18  35  60  86 104 147 204 236 272 336
#     4  10  20  36  57  88 118 151 191 241 290 345
#     4  11  21  36  61  87 112 152 199 237 283 347
#     4  11  20  37  59  88 110 150 200 238 283 346
#
# _framework density 19.204359
#
# number of rings (size 3 to 8) (size 9 to 14) (size 15 to 20)
#    0.000    1.333    6.667    3.500    0.000    1.333 
#    0.000    0.000    0.000    0.000   13.000    0.000 
#    0.000    0.000    0.000    0.000    0.000    0.000 
#
# Total GULP energy -133665.701658 kJ/mol
# GULP energy per Si atom -5569.404236 kJ/mol
# Density = 1.916065 g / cm^3
# Si number density = 19.204359 Si / 1000 Ang^3
#
#
#
# Elastic Constant Matrix: (Units=GPa)
#
#
# Indices 1 2 3 4 5 6 
#
# 1 58.4306 0.1402 18.1819 0.0000 12.8316 0.0000
# 2 0.1402 43.6055 20.1336 0.0000 -7.2064 0.0000
# 3 18.1819 20.1336 105.7963 0.0000 9.4325 0.0000
# 4 0.0000 0.0000 0.0000 44.2411 0.0000 -5.1449
# 5 12.8316 -7.2064 9.4325 0.0000 21.1587 0.0000
# 6 0.0000 0.0000 0.0000 -5.1449 0.0000 10.0515
#
#
#
# Elastic Compliance Matrix: (Units=1/GPa)
#
#
# Indices 1 2 3 4 5 6 
#
# 1 0.020390 -0.000938 -0.002285 0.000000 -0.011666 0.000000
# 2 -0.000938 0.027987 -0.006316 0.000000 0.012917 0.000000
# 3 -0.002285 -0.006316 0.011575 0.000000 -0.005926 0.000000
# 4 0.000000 0.000000 0.000000 0.024034 0.000000 0.012302
# 5 -0.011666 0.012917 -0.005926 0.000000 0.061378 0.000000
# 6 0.000000 0.000000 0.000000 0.012302 0.000000 0.105784
#
#
# Mechanical properties :
#
#
# Convention : Reuss Voigt Hill
#
# Bulk Modulus (GPa) = 24.46691 31.63821 28.05256
# Shear Modulus (GPa) = 17.61483 26.38204 21.99843
#
# Velocity S-wave (km/s) = 3.03187 3.71044 3.38818
# Velocity P-wave (km/s) = 5.00242 5.90481 5.47225
#
# Compressibility (1/GPa) = 0.04087153
#
# Stress axis : x y z
#
# Youngs Moduli (GPa) = 49.04455 35.73079 86.39116
#
# Poissons Ratio (x) = 0.03353 0.19744
# Poissons Ratio (y) = 0.04602 0.54569
# Poissons Ratio (z) = 0.11209 0.22569
#
# Static dielectric constant tensor:
#      x y z
#    x 1.722430 0.000000 -0.003640 
#    y 0.000000 1.699030 0.000000 
#    z -0.003640 0.000000 1.668020 
# 
# From -- ./inp_files/143624.got.cif
#   From: 2010.05.17/outbox.cif.g08.bks.cpg/sg15_72_cif.got.tgz:143624.got - 2010.06.03 18:47:42.
