data_PCOD9259019
_publ_section_title
;
Structure prediction by ZEFSAII (Michael W. Deem and Ramdas Pophale) SiO2 
 PCOD9259019
Probable space group: C 2/C
;
_chemical_formula_sum "Si O2"
_cell_formula_units_Z 48
_cell_length_a 7.929892
_cell_length_b 26.726304
_cell_length_c 12.719729
_cell_angle_alpha 90.000000
_cell_angle_beta 78.472991
_cell_angle_gamma 90.000000
_cell_volume 2641.405269
_symmetry_space_group_name_H-M "C 2/C"
_symmetry_group_IT_number 15
_symmetry_cell_setting 'monoclinic'
loop_
_space_group_symop_operation_xyz
x,y,z
-x,y,1/2-z
-x,-y,-z
x,-y,1/2+z
1/2+x,1/2+y,z
1/2-x,1/2+y,1/2-z
1/2-x,1/2-y,-z
1/2+x,1/2-y,1/2+z
loop_
_atom_site_type_symbol
_atom_site_label
_atom_site_fract_x
_atom_site_fract_y
_atom_site_fract_z
Si Si1 0.427039 0.691722 0.532316
Si Si2 0.528361 0.782688 0.120515
Si Si3 0.445283 0.417470 0.509331
Si Si4 0.325052 0.117852 0.622736
Si Si5 0.000000 0.544676 0.750000
Si Si6 0.500000 0.662155 0.750000
Si Si7 0.373867 0.504824 0.667359
O O1 0.502332 0.732642 0.443143
O O2 0.225347 0.701990 0.573593
O O3 0.464500 0.635910 0.486494
O O4 0.503192 0.692847 0.641583
O O5 0.500000 0.776591 0.250000
O O6 0.410749 0.828358 0.095915
O O7 0.272170 0.405305 0.464619
O O8 0.401761 0.449848 0.616111
O O9 0.565610 0.453561 0.424300
O O10 0.463934 0.080981 0.655612
O O11 0.170490 0.127931 0.725965
O O12 0.174193 0.513481 0.717000
O O13 0.500000 0.511053 0.750000
#
# Coordination Sequence:
#
# PCOD9259019 Si02
#       7
#     8   8   8   8   4   4   8
#     4  10  22  38  60  86 126 157 201 256 304 361
#     4  11  21  37  61  95 117 160 207 244 307 371
#     4  10  23  40  61  89 123 162 202 255 312 356
#     4  11  19  35  62  91 118 154 208 252 295 360
#     4  12  20  36  68  89 118 159 206 260 292 366
#     4  10  18  34  58  85 116 163 196 246 298 354
#     4  11  23  42  62  90 121 164 207 253 310 364
#
# _framework density 18.172143999999999
#
# number of rings (size 3 to 8) (size 9 to 14) (size 15 to 20)
#    0.000    1.333    4.167    3.000    1.167    4.000 
#    3.000    0.000    0.000    0.000    0.000    0.000 
#    0.000    0.000    0.000    0.000    0.000    0.000 
#
# Total GULP energy -133950.491542 kJ/mol
# GULP energy per Si atom -5581.270481 kJ/mol
# Density = 1.813078 g / cm^3
# Si number density = 18.172144 Si / 1000 Ang^3
#
#
#
# Elastic Constant Matrix: (Units=GPa)
#
#
# Indices 1 2 3 4 5 6 
#
# 1 102.2812 39.2068 36.7504 0.0000 -7.4330 0.0000
# 2 39.2068 137.5650 56.3750 0.0000 -7.4440 0.0000
# 3 36.7504 56.3750 52.2011 0.0000 -6.4370 0.0000
# 4 0.0000 0.0000 0.0000 31.6017 0.0000 7.8027
# 5 -7.4330 -7.4440 -6.4370 0.0000 18.4945 0.0000
# 6 0.0000 0.0000 0.0000 7.8027 0.0000 24.6672
#
#
#
# Elastic Compliance Matrix: (Units=1/GPa)
#
#
# Indices 1 2 3 4 5 6 
#
# 1 0.013170 0.000097 -0.009110 0.000000 0.002161 0.000000
# 2 0.000097 0.013044 -0.014108 0.000000 0.000379 0.000000
# 3 -0.009110 -0.014108 0.041433 0.000000 0.005081 0.000000
# 4 0.000000 0.000000 0.000000 0.034325 0.000000 -0.010858
# 5 0.002161 0.000379 0.005081 0.000000 0.056860 0.000000
# 6 0.000000 0.000000 0.000000 -0.010858 0.000000 0.043974
#
#
# Mechanical properties :
#
#
# Convention : Reuss Voigt Hill
#
# Bulk Modulus (GPa) = 46.71981 61.85685 54.28833
# Shear Modulus (GPa) = 19.51731 25.60036 22.55883
#
# Velocity S-wave (km/s) = 3.28079 3.75743 3.52717
# Velocity P-wave (km/s) = 6.33378 7.27583 6.82109
#
# Compressibility (1/GPa) = 0.02140420
#
# Stress axis : x y z
#
# Youngs Moduli (GPa) = 75.92873 76.66456 24.13539
#
# Poissons Ratio (x) = -0.00741 0.21987
# Poissons Ratio (y) = -0.00734 0.34051
# Poissons Ratio (z) = 0.69171 1.08159
#
# Static dielectric constant tensor:
#      x y z
#    x 1.640390 0.000000 0.001600 
#    y 0.000000 1.628960 0.000000 
#    z 0.001600 0.000000 1.627810 
# 
# From -- ./inp_files/79176.got.cif
#   From: 2010.05.17/outbox.cif.g08.bks.cpg/sg15_40_cif.got.tgz:79176.got - 2010.06.03 18:47:42.
