data_PCOD9259374
_publ_section_title
;
Structure prediction by ZEFSAII (Michael W. Deem and Ramdas Pophale) SiO2 
 PCOD9259374
Probable space group: C 2/C
;
_chemical_formula_sum "Si O2"
_cell_formula_units_Z 56
_cell_length_a 24.186785
_cell_length_b 19.362102
_cell_length_c 8.275787
_cell_angle_alpha 90.000000
_cell_angle_beta 58.458435
_cell_angle_gamma 90.000000
_cell_volume 3303.029970
_symmetry_space_group_name_H-M "C 2/C"
_symmetry_group_IT_number 15
_symmetry_cell_setting 'monoclinic'
loop_
_space_group_symop_operation_xyz
x,y,z
-x,y,1/2-z
-x,-y,-z
x,-y,1/2+z
1/2+x,1/2+y,z
1/2-x,1/2+y,1/2-z
1/2-x,1/2-y,-z
1/2+x,1/2-y,1/2+z
loop_
_atom_site_type_symbol
_atom_site_label
_atom_site_fract_x
_atom_site_fract_y
_atom_site_fract_z
Si Si1 0.334465 0.598756 0.147381
Si Si2 0.066337 0.175463 0.713389
Si Si3 0.321766 0.785574 0.896127
Si Si4 0.175032 0.037319 0.984450
Si Si5 0.712734 0.805920 0.886155
Si Si6 0.037907 0.936713 0.528830
Si Si7 0.726842 0.157861 0.710303
O O1 0.339741 0.561679 0.311712
O O2 0.307062 0.542945 0.061595
O O3 0.283575 0.660520 0.248672
O O4 0.401005 0.628254 0.975827
O O5 0.121680 0.229528 0.676109
O O6 0.000000 0.208098 0.750000
O O7 0.047548 0.125126 0.888564
O O8 0.327668 0.822015 0.713002
O O9 0.250000 0.750000 0.000000
O O10 0.317364 0.830468 0.065517
O O11 0.231536 0.088384 0.839228
O O12 0.109651 0.043616 0.980433
O O13 0.722776 0.723047 0.878652
O O14 0.690740 0.835756 0.092466
O O15 0.000000 0.917175 0.750000
O O16 0.000000 0.000000 0.500000
#
# Coordination Sequence:
#
# PCOD9259374 Si02
#       7
#     8   8   8   8   8   8   8
#     4  11  21  34  50  76 107 138 178 225 259 314
#     4  12  23  36  52  75 104 140 185 216 261 313
#     4  10  18  35  56  72  97 137 173 219 266 309
#     4  11  22  31  51  74 103 142 183 220 259 304
#     4   9  18  32  53  75  97 135 173 214 272 315
#     4  12  23  36  46  65 103 150 187 214 251 302
#     4   9  18  33  51  75  96 131 176 221 265 308
#
# _framework density 16.954129999999999
#
# number of rings (size 3 to 8) (size 9 to 14) (size 15 to 20)
#    0.000    1.429    2.857    6.429    2.000    0.000 
#    2.571    0.000    0.000    0.000    0.000    0.000 
#    0.000    1.143    0.000    0.143    0.000    0.000 
#
# Total GULP energy -156173.681283 kJ/mol
# GULP energy per Si atom -5577.631474 kJ/mol
# Density = 1.691554 g / cm^3
# Si number density = 16.954130 Si / 1000 Ang^3
#
#
#
# Elastic Constant Matrix: (Units=GPa)
#
#
# Indices 1 2 3 4 5 6 
#
# 1 81.7987 27.6316 52.1775 0.0000 11.0820 0.0000
# 2 27.6316 43.3471 30.2683 0.0000 -10.2780 0.0000
# 3 52.1775 30.2683 110.8766 0.0000 21.3607 0.0000
# 4 0.0000 0.0000 0.0000 31.3045 0.0000 -1.0630
# 5 11.0820 -10.2780 21.3607 0.0000 29.0093 0.0000
# 6 0.0000 0.0000 0.0000 -1.0630 0.0000 26.5880
#
#
#
# Elastic Compliance Matrix: (Units=1/GPa)
#
#
# Indices 1 2 3 4 5 6 
#
# 1 0.020328 -0.011586 -0.004797 0.000000 -0.008338 0.000000
# 2 -0.011586 0.047155 -0.013392 0.000000 0.030994 0.000000
# 3 -0.004797 -0.013392 0.018055 0.000000 -0.016206 0.000000
# 4 0.000000 0.000000 0.000000 0.031988 0.000000 0.001279
# 5 -0.008338 0.030994 -0.016206 0.000000 0.060572 0.000000
# 6 0.000000 0.000000 0.000000 0.001279 0.000000 0.037662
#
#
# Mechanical properties :
#
#
# Convention : Reuss Voigt Hill
#
# Bulk Modulus (GPa) = 38.47833 50.68639 44.58236
# Shear Modulus (GPa) = 17.60738 25.77670 21.69204
#
# Velocity S-wave (km/s) = 3.22612 3.90343 3.58083
# Velocity P-wave (km/s) = 6.05161 7.09061 6.59161
#
# Compressibility (1/GPa) = 0.02598865
#
# Stress axis : x y z
#
# Youngs Moduli (GPa) = 49.19208 21.20665 55.38736
#
# Poissons Ratio (x) = 0.24569 0.26571
# Poissons Ratio (y) = 0.56992 0.74174
# Poissons Ratio (z) = 0.23599 0.28400
#
# Static dielectric constant tensor:
#      x y z
#    x 1.602310 0.000000 0.060220 
#    y 0.000000 1.585830 0.000000 
#    z 0.060220 0.000000 1.618840 
# 
# From -- ./inp_files/63222.got.cif
#   From: 2010.05.17/outbox.cif.g08.bks.cpg/sg15_32_cif.got.tgz:63222.got - 2010.06.03 18:47:42.
