data_PCOD9259454
_publ_section_title
;
Structure prediction by ZEFSAII (Michael W. Deem and Ramdas Pophale) SiO2 
 PCOD9259454
Probable space group: C 2/C
;
_chemical_formula_sum "Si O2"
_cell_formula_units_Z 48
_cell_length_a 20.907705
_cell_length_b 10.676427
_cell_length_c 14.125929
_cell_angle_alpha 90.000000
_cell_angle_beta 47.949448
_cell_angle_gamma 90.000000
_cell_volume 2341.409925
_symmetry_space_group_name_H-M "C 2/C"
_symmetry_group_IT_number 15
_symmetry_cell_setting 'monoclinic'
loop_
_space_group_symop_operation_xyz
x,y,z
-x,y,1/2-z
-x,-y,-z
x,-y,1/2+z
1/2+x,1/2+y,z
1/2-x,1/2+y,1/2-z
1/2-x,1/2-y,-z
1/2+x,1/2-y,1/2+z
loop_
_atom_site_type_symbol
_atom_site_label
_atom_site_fract_x
_atom_site_fract_y
_atom_site_fract_z
Si Si1 0.261717 0.409284 0.818167
Si Si2 0.965548 0.409949 0.887458
Si Si3 0.639999 0.023799 0.268529
Si Si4 0.098417 0.700820 0.563306
Si Si5 0.580164 0.745233 0.303537
Si Si6 0.293503 0.126220 0.496533
O O1 0.213598 0.442521 0.768929
O O2 0.356700 0.356084 0.715397
O O3 0.195613 0.306492 0.929393
O O4 0.262085 0.529979 0.886646
O O5 0.049122 0.401028 0.870715
O O6 0.000000 0.373789 0.750000
O O7 0.936362 0.556420 0.910138
O O8 0.874989 0.340178 0.983570
O O9 0.672946 0.051767 0.129921
O O10 0.611122 0.880850 0.308829
O O11 0.096828 0.745404 0.673313
O O12 0.022356 0.774625 0.584914
O O13 0.250000 0.250000 0.500000
#
# Coordination Sequence:
#
# PCOD9259454 Si02
#       6
#     8   8   8   8   8   8
#     4  11  22  33  59  86 113 151 182 235 294 326
#     4   8  13  32  54  74 101 133 183 233 263 316
#     4  10  20  35  55  83 109 141 196 237 271 341
#     4   9  16  33  57  82 101 143 187 234 277 317
#     4  10  18  35  58  81 110 138 192 238 270 337
#     4  10  21  36  54  82 115 149 185 227 293 342
#
# _framework density 20.500468999999999
#
# number of rings (size 3 to 8) (size 9 to 14) (size 15 to 20)
#    0.000    2.333    6.667    0.500    2.333    6.000 
#    0.000    0.000   11.000    1.000    0.000    0.000 
#    0.000    0.000    0.000    0.000    0.000    0.000 
#
# Total GULP energy -133747.780683 kJ/mol
# GULP energy per Si atom -5572.824195 kJ/mol
# Density = 2.045381 g / cm^3
# Si number density = 20.500469 Si / 1000 Ang^3
#
#
#
# Elastic Constant Matrix: (Units=GPa)
#
#
# Indices 1 2 3 4 5 6 
#
# 1 159.6878 53.1209 16.6119 0.0000 -9.0960 0.0000
# 2 53.1209 47.6624 5.1362 0.0000 -14.1836 0.0000
# 3 16.6119 5.1362 24.7536 0.0000 4.9683 0.0000
# 4 0.0000 0.0000 0.0000 8.8292 0.0000 -9.9823
# 5 -9.0960 -14.1836 4.9683 0.0000 36.6036 0.0000
# 6 0.0000 0.0000 0.0000 -9.9823 0.0000 32.5180
#
#
#
# Elastic Compliance Matrix: (Units=1/GPa)
#
#
# Indices 1 2 3 4 5 6 
#
# 1 0.010513 -0.011632 -0.004381 0.000000 -0.001300 0.000000
# 2 -0.011632 0.037811 -0.002467 0.000000 0.012095 0.000000
# 3 -0.004381 -0.002467 0.045500 0.000000 -0.008220 0.000000
# 4 0.000000 0.000000 0.000000 0.173465 0.000000 0.053250
# 5 -0.001300 0.012095 -0.008220 0.000000 0.032799 0.000000
# 6 0.000000 0.000000 0.000000 0.053250 0.000000 0.047099
#
#
# Mechanical properties :
#
#
# Convention : Reuss Voigt Hill
#
# Bulk Modulus (GPa) = 17.58584 42.42689 30.00636
# Shear Modulus (GPa) = 12.40382 26.07247 19.23814
#
# Velocity S-wave (km/s) = 2.46245 3.57010 3.06669
# Velocity P-wave (km/s) = 4.08433 6.14285 5.21615
#
# Compressibility (1/GPa) = 0.05686394
#
# Stress axis : x y z
#
# Youngs Moduli (GPa) = 95.11645 26.44760 21.97811
#
# Poissons Ratio (x) = 0.30765 0.09628
# Poissons Ratio (y) = 1.10642 0.05421
# Poissons Ratio (z) = 0.41669 0.06524
#
# Static dielectric constant tensor:
#      x y z
#    x 1.798270 0.000000 0.006390 
#    y 0.000000 1.728020 0.000000 
#    z 0.006390 0.000000 1.816110 
# 
# From -- ./inp_files/152448.got.cif
#   From: 2010.05.17/outbox.cif.g08.bks.cpg/sg15_77_cif.got.tgz:152448.got - 2010.06.03 18:47:42.
