data_PCOD9259893
_publ_section_title
;
Structure prediction by ZEFSAII (Michael W. Deem and Ramdas Pophale) SiO2 
 PCOD9259893
Probable space group: C 2/C
;
_chemical_formula_sum "Si O2"
_cell_formula_units_Z 44
_cell_length_a 17.988112
_cell_length_b 5.030097
_cell_length_c 18.663147
_cell_angle_alpha 90.000000
_cell_angle_beta 74.843770
_cell_angle_gamma 90.000000
_cell_volume 1629.939785
_symmetry_space_group_name_H-M "C 2/C"
_symmetry_group_IT_number 15
_symmetry_cell_setting 'monoclinic'
loop_
_space_group_symop_operation_xyz
x,y,z
-x,y,1/2-z
-x,-y,-z
x,-y,1/2+z
1/2+x,1/2+y,z
1/2-x,1/2+y,1/2-z
1/2-x,1/2-y,-z
1/2+x,1/2-y,1/2+z
loop_
_atom_site_type_symbol
_atom_site_label
_atom_site_fract_x
_atom_site_fract_y
_atom_site_fract_z
Si Si1 0.644174 0.494724 0.042945
Si Si2 0.000000 0.566036 0.250000
Si Si3 0.022931 0.098759 0.889987
Si Si4 0.710530 0.986080 0.592383
Si Si5 0.878347 0.755417 0.717750
Si Si6 0.318707 0.751512 0.670003
O O1 0.556058 0.426031 0.047895
O O2 0.661332 0.798758 0.059988
O O3 0.667877 0.294634 0.102058
O O4 0.707176 0.428450 0.966986
O O5 0.005658 0.744593 0.319578
O O6 0.923715 0.381162 0.270738
O O7 0.103002 0.224239 0.898550
O O8 0.051105 0.809275 0.856370
O O9 0.741821 0.144057 0.653483
O O10 0.821208 0.551178 0.694503
O O11 0.841382 0.045844 0.727760
#
# Coordination Sequence:
#
# PCOD9259893 Si02
#       6
#     8   4   8   8   8   8
#     4  10  22  36  59  83 114 147 195 217 280 339
#     4  10  18  36  58  86 108 138 186 246 276 314
#     4   9  21  35  59  87 106 145 190 237 271 334
#     4  10  21  39  55  83 117 155 175 230 277 340
#     4   9  19  32  55  86 105 141 183 229 279 326
#     4   9  19  34  56  80 114 145 180 228 281 327
#
# _framework density 26.994861
#
# number of rings (size 3 to 8) (size 9 to 14) (size 15 to 20)
#    1.091    1.455    0.000    1.636    5.091    0.727 
#    0.000    0.909    0.000   13.091    0.000    0.000 
#    0.000    0.000    0.000    0.000    0.000    0.000 
#
# Total GULP energy -122897.363124 kJ/mol
# GULP energy per Si atom -5586.243778 kJ/mol
# Density = 2.693342 g / cm^3
# Si number density = 26.994861 Si / 1000 Ang^3
#
#
#
# Elastic Constant Matrix: (Units=GPa)
#
#
# Indices 1 2 3 4 5 6 
#
# 1 176.8732 11.3546 5.0590 0.0000 -16.7158 0.0000
# 2 11.3546 114.3917 -9.5114 -0.0002 1.1109 -0.0001
# 3 5.0590 -9.5114 30.0299 0.0000 -9.3711 0.0000
# 4 0.0000 -0.0002 0.0000 21.6571 0.0000 9.7341
# 5 -16.7158 1.1109 -9.3711 0.0000 46.7888 0.0000
# 6 0.0000 -0.0001 0.0000 9.7341 0.0000 15.7311
#
#
#
# Elastic Compliance Matrix: (Units=1/GPa)
#
#
# Indices 1 2 3 4 5 6 
#
# 1 0.005902 -0.000653 -0.000574 0.000000 0.002009 0.000000
# 2 -0.000653 0.009057 0.003028 0.000000 0.000158 0.000000
# 3 -0.000574 0.003028 0.036554 0.000000 0.007044 0.000000
# 4 0.000000 0.000000 0.000000 0.063964 0.000000 -0.039580
# 5 0.002009 0.000158 0.007044 0.000000 0.023497 0.000000
# 6 0.000000 0.000000 0.000000 -0.039580 0.000000 0.088060
#
#
# Mechanical properties :
#
#
# Convention : Reuss Voigt Hill
#
# Bulk Modulus (GPa) = 18.14407 37.23327 27.68867
# Shear Modulus (GPa) = 20.67790 37.79490 29.23640
#
# Velocity S-wave (km/s) = 2.77066 3.74582 3.29452
# Velocity P-wave (km/s) = 4.11963 5.70359 4.97505
#
# Compressibility (1/GPa) = 0.05511444
#
# Stress axis : x y z
#
# Youngs Moduli (GPa) = 169.43452 110.41242 27.35668
#
# Poissons Ratio (x) = 0.07211 0.01571
# Poissons Ratio (y) = 0.11066 -0.08284
# Poissons Ratio (z) = 0.09729 -0.33432
#
# Static dielectric constant tensor:
#      x y z
#    x 2.164860 0.000000 -0.092220 
#    y 0.000000 2.029200 0.000000 
#    z -0.092220 0.000000 2.298380 
# 
# From -- ./inp_files/275483.got.cif
#   From: 2010.05.17/outbox.cif.g08.bks.cpg/sg15_138_cif.got.tgz:275483.got - 2010.06.03 18:47:42.
