data_PCOD9259433
_publ_section_title
;
Structure prediction by ZEFSAII (Michael W. Deem and Ramdas Pophale) SiO2 
 PCOD9259433
Probable space group: C 2/C
;
_chemical_formula_sum "Si O2"
_cell_formula_units_Z 64
_cell_length_a 13.160433
_cell_length_b 9.165362
_cell_length_c 29.945185
_cell_angle_alpha 90.000000
_cell_angle_beta 121.165076
_cell_angle_gamma 90.000000
_cell_volume 3090.708961
_symmetry_space_group_name_H-M "C 2/C"
_symmetry_group_IT_number 15
_symmetry_cell_setting 'monoclinic'
loop_
_space_group_symop_operation_xyz
x,y,z
-x,y,1/2-z
-x,-y,-z
x,-y,1/2+z
1/2+x,1/2+y,z
1/2-x,1/2+y,1/2-z
1/2-x,1/2-y,-z
1/2+x,1/2-y,1/2+z
loop_
_atom_site_type_symbol
_atom_site_label
_atom_site_fract_x
_atom_site_fract_y
_atom_site_fract_z
Si Si1 0.665204 0.810329 0.045284
Si Si2 0.118945 0.014543 0.393014
Si Si3 0.922413 0.653957 0.633977
Si Si4 0.361190 0.081566 0.057632
Si Si5 0.515517 0.420054 0.551424
Si Si6 0.407903 0.004055 0.268792
Si Si7 0.949556 0.756210 0.341466
Si Si8 0.726050 0.560594 0.657378
O O1 0.742646 0.667026 0.047516
O O2 0.556812 0.744899 0.049192
O O3 0.758858 0.926125 0.087203
O O4 0.622972 0.887274 0.990567
O O5 0.102250 0.175265 0.370041
O O6 0.095284 0.040153 0.441268
O O7 0.015780 0.909906 0.350402
O O8 0.880829 0.584118 0.577549
O O9 0.831868 0.575323 0.646871
O O10 0.052664 0.605792 0.681974
O O11 0.463540 0.165634 0.107469
O O12 0.500000 0.500000 0.500000
O O13 0.624192 0.475839 0.607319
O O14 0.500000 0.972539 0.250000
O O15 0.428513 0.164695 0.292645
O O16 0.279944 0.997581 0.216158
O O17 0.830013 0.785645 0.341337
#
# Coordination Sequence:
#
# PCOD9259433 Si02
#       8
#     8   8   8   8   8   8   8   8
#     4  10  18  35  57  85 111 160 203 234 285 359
#     4  10  23  36  57  89 122 148 197 253 303 347
#     4  10  20  39  56  84 123 149 187 248 304 346
#     4   9  17  34  59  78 113 155 194 233 284 350
#     4  11  21  38  61  86 117 161 201 245 293 369
#     4   9  20  38  62  79 110 158 192 233 299 361
#     4   9  19  37  58  85 109 146 199 239 279 356
#     4  10  20  36  62  84 111 153 197 235 300 360
#
# _framework density 20.707225000000001
#
# number of rings (size 3 to 8) (size 9 to 14) (size 15 to 20)
#    0.000    2.250    1.250    3.000    1.750    2.500 
#    4.500    3.750    0.000    0.000    0.000    0.000 
#    0.000    0.000    0.000    0.000    0.000    0.000 
#
# Total GULP energy -178193.104607 kJ/mol
# GULP energy per Si atom -5568.534519 kJ/mol
# Density = 2.066009 g / cm^3
# Si number density = 20.707225 Si / 1000 Ang^3
#
#
#
# Elastic Constant Matrix: (Units=GPa)
#
#
# Indices 1 2 3 4 5 6 
#
# 1 19.3313 4.9779 12.4663 0.0000 10.3246 0.0000
# 2 4.9779 101.5916 24.7406 0.0000 5.5207 0.0000
# 3 12.4663 24.7406 82.5591 0.0000 12.9901 0.0000
# 4 0.0000 0.0000 0.0000 16.4946 0.0000 -8.7058
# 5 10.3246 5.5207 12.9901 0.0000 14.3169 0.0000
# 6 0.0000 0.0000 0.0000 -8.7058 0.0000 25.9200
#
#
#
# Elastic Compliance Matrix: (Units=1/GPa)
#
#
# Indices 1 2 3 4 5 6 
#
# 1 0.085108 -0.000120 -0.003693 0.000000 -0.057978 0.000000
# 2 -0.000120 0.010643 -0.002962 0.000000 -0.001330 0.000000
# 3 -0.003693 -0.002962 0.015117 0.000000 -0.009911 0.000000
# 4 0.000000 0.000000 0.000000 0.073689 0.000000 0.024750
# 5 -0.057978 -0.001330 -0.009911 0.000000 0.121164 0.000000
# 6 0.000000 0.000000 0.000000 0.024750 0.000000 0.046893
#
#
# Mechanical properties :
#
#
# Convention : Reuss Voigt Hill
#
# Bulk Modulus (GPa) = 10.27561 31.98352 21.12956
# Shear Modulus (GPa) = 12.54384 22.09946 17.32165
#
# Velocity S-wave (km/s) = 2.46391 3.27040 2.89537
# Velocity P-wave (km/s) = 3.61491 5.45342 4.62641
#
# Compressibility (1/GPa) = 0.09731785
#
# Stress axis : x y z
#
# Youngs Moduli (GPa) = 11.74984 93.96016 66.14985
#
# Poissons Ratio (x) = 0.01130 0.24426
# Poissons Ratio (y) = 0.00141 0.19593
# Poissons Ratio (z) = 0.04339 0.27831
#
# Static dielectric constant tensor:
#      x y z
#    x 1.809410 0.000000 0.015350 
#    y 0.000000 1.770670 0.000000 
#    z 0.015350 0.000000 1.786730 
# 
# From -- ./inp_files/312915.got.cif
#   From: 2010.05.17/outbox.cif.g08.bks.cpg/sg15_157_cif.got.tgz:312915.got - 2010.06.03 18:47:42.
