data_PCOD9259359
_publ_section_title
;
Structure prediction by ZEFSAII (Michael W. Deem and Ramdas Pophale) SiO2 
 PCOD9259359
Probable space group: C 2/C
;
_chemical_formula_sum "Si O2"
_cell_formula_units_Z 52
_cell_length_a 23.200897
_cell_length_b 7.370500
_cell_length_c 14.818549
_cell_angle_alpha 90.000000
_cell_angle_beta 48.065763
_cell_angle_gamma 90.000000
_cell_volume 1885.077355
_symmetry_space_group_name_H-M "C 2/C"
_symmetry_group_IT_number 15
_symmetry_cell_setting 'monoclinic'
loop_
_space_group_symop_operation_xyz
x,y,z
-x,y,1/2-z
-x,-y,-z
x,-y,1/2+z
1/2+x,1/2+y,z
1/2-x,1/2+y,1/2-z
1/2-x,1/2-y,-z
1/2+x,1/2-y,1/2+z
loop_
_atom_site_type_symbol
_atom_site_label
_atom_site_fract_x
_atom_site_fract_y
_atom_site_fract_z
Si Si1 0.525910 0.814526 0.051135
Si Si2 0.334990 0.166073 0.984949
Si Si3 0.108572 0.315990 0.504556
Si Si4 0.000000 0.916841 0.250000
Si Si5 0.101563 0.842351 0.296194
Si Si6 0.252203 0.184665 0.748816
Si Si7 0.639477 0.059210 0.728404
O O1 0.442662 0.975596 0.989932
O O2 0.436454 0.828713 0.165817
O O3 0.577951 0.756368 0.083760
O O4 0.549383 0.692863 0.940888
O O5 0.289567 0.229340 0.120625
O O6 0.338884 0.948192 0.990373
O O7 0.320469 0.172597 0.893930
O O8 0.054858 0.192827 0.621335
O O9 0.172721 0.218526 0.376033
O O10 0.935839 0.971811 0.240174
O O11 0.187120 0.878562 0.246380
O O12 0.108783 0.643204 0.242145
O O13 0.301629 0.029672 0.750434
#
# Coordination Sequence:
#
# PCOD9259359 Si02
#       7
#     8   8   8   4   8   8   8
#     4   9  17  32  56  79 106 144 175 226 276 313
#     4   9  19  33  51  82 109 144 182 215 281 321
#     4  10  18  35  55  81 113 137 179 228 276 320
#     4  12  20  34  58  80 104 146 182 232 272 318
#     4  11  20  33  51  82 114 141 183 216 286 322
#     4  11  22  30  48  82 123 141 167 224 286 335
#     4  12  17  34  56  79 116 142 183 228 265 329
#
# _framework density 27.585076000000001
#
# number of rings (size 3 to 8) (size 9 to 14) (size 15 to 20)
#    0.923    0.615    4.615    2.308    0.000    0.615 
#    0.000    0.000    0.000    0.000    0.000   38.769 
#    0.000    0.000    0.000    0.000    0.000    0.000 
#
# Total GULP energy -144928.138701 kJ/mol
# GULP energy per Si atom -5574.159181 kJ/mol
# Density = 2.752229 g / cm^3
# Si number density = 27.585076 Si / 1000 Ang^3
#
#
#
# Elastic Constant Matrix: (Units=GPa)
#
#
# Indices 1 2 3 4 5 6 
#
# 1 219.2186 33.2336 87.4818 -0.0002 22.1097 0.0003
# 2 33.2336 63.5999 19.2777 0.0044 -6.1004 -0.0011
# 3 87.4818 19.2777 181.3811 0.0027 -16.2854 -0.0014
# 4 -0.0002 0.0044 0.0027 20.0400 -0.0003 -0.6536
# 5 22.1097 -6.1004 -16.2854 -0.0003 50.3322 0.0002
# 6 0.0003 -0.0011 -0.0014 -0.6536 0.0002 36.3818
#
#
#
# Elastic Compliance Matrix: (Units=1/GPa)
#
#
# Indices 1 2 3 4 5 6 
#
# 1 0.006799 -0.002959 -0.003363 0.000001 -0.004434 0.000000
# 2 -0.002959 0.017638 -0.000143 -0.000004 0.003391 0.000000
# 3 -0.003363 -0.000143 0.007499 -0.000001 0.003886 0.000000
# 4 0.000001 -0.000004 -0.000001 0.049930 -0.000001 0.000897
# 5 -0.004434 0.003391 0.003886 -0.000001 0.023484 0.000000
# 6 0.000000 0.000000 0.000000 0.000897 0.000000 0.027502
#
#
# Mechanical properties :
#
#
# Convention : Reuss Voigt Hill
#
# Bulk Modulus (GPa) = 52.61212 82.68731 67.64971
# Shear Modulus (GPa) = 32.86912 42.96458 37.91685
#
# Velocity S-wave (km/s) = 3.45564 3.95084 3.71150
# Velocity P-wave (km/s) = 5.91912 7.13110 6.55319
#
# Compressibility (1/GPa) = 0.01900703
#
# Stress axis : x y z
#
# Youngs Moduli (GPa) = 147.07100 56.69557 133.34359
#
# Poissons Ratio (x) = 0.16776 0.44844
# Poissons Ratio (y) = 0.43517 0.01907
# Poissons Ratio (z) = 0.49460 0.00811
#
# Static dielectric constant tensor:
#      x y z
#    x 2.248310 0.000000 0.052060 
#    y 0.000000 2.253610 0.000000 
#    z 0.052060 0.000000 2.181970 
# 
# From -- ./inp_files/167542.got.cif
#   From: 2010.05.17/outbox.cif.g08.bks.cpg/sg15_84_cif.got.tgz:167542.got - 2010.06.03 18:47:42.
