data_PCOD9259749
_publ_section_title
;
Structure prediction by ZEFSAII (Michael W. Deem and Ramdas Pophale) SiO2 
 PCOD9259749
Probable space group: C 2/C
;
_chemical_formula_sum "Si O2"
_cell_formula_units_Z 60
_cell_length_a 12.560486
_cell_length_b 15.469709
_cell_length_c 19.074785
_cell_angle_alpha 90.000000
_cell_angle_beta 125.795185
_cell_angle_gamma 90.000000
_cell_volume 3006.281110
_symmetry_space_group_name_H-M "C 2/C"
_symmetry_group_IT_number 15
_symmetry_cell_setting 'monoclinic'
loop_
_space_group_symop_operation_xyz
x,y,z
-x,y,1/2-z
-x,-y,-z
x,-y,1/2+z
1/2+x,1/2+y,z
1/2-x,1/2+y,1/2-z
1/2-x,1/2-y,-z
1/2+x,1/2-y,1/2+z
loop_
_atom_site_type_symbol
_atom_site_label
_atom_site_fract_x
_atom_site_fract_y
_atom_site_fract_z
Si Si1 0.440853 0.071246 0.796319
Si Si2 0.943961 0.408303 0.869863
Si Si3 0.000000 0.841878 0.250000
Si Si4 0.327524 0.351325 0.302612
Si Si5 0.209001 0.824756 0.694794
Si Si6 0.820008 0.707641 0.094021
Si Si7 0.845753 0.727365 0.433083
Si Si8 0.559210 0.259601 0.873614
O O1 0.500000 0.027429 0.750000
O O2 0.288207 0.085374 0.722447
O O3 0.508749 0.164472 0.831751
O O4 0.459643 0.010660 0.870674
O O5 0.818768 0.385237 0.772031
O O6 0.908892 0.360618 0.928520
O O7 0.074897 0.363277 0.890634
O O8 0.077386 0.891627 0.218965
O O9 0.093860 0.779881 0.332285
O O10 0.258961 0.271087 0.235771
O O11 0.383666 0.303242 0.392588
O O12 0.220593 0.828700 0.614977
O O13 0.062496 0.826298 0.670017
O O14 0.750000 0.750000 0.000000
O O15 0.686941 0.719196 0.376177
O O16 0.894103 0.750733 0.528358
#
# Coordination Sequence:
#
# PCOD9259749 Si02
#       8
#     8   8   4   8   8   8   8   8
#     4  11  21  35  58  85 117 154 192 244 313 353
#     4  11  21  35  57  84 118 148 193 253 297 353
#     4  10  18  36  52  80 112 136 198 244 286 354
#     4   9  18  33  55  77 110 150 191 238 293 354
#     4   9  18  32  52  80 112 143 199 239 282 351
#     4  11  18  31  55  82 111 149 189 241 295 348
#     4  10  19  37  57  87 115 153 202 253 286 359
#     4  10  21  35  60  87 113 156 206 246 290 361
#
# _framework density 19.958214000000002
#
# number of rings (size 3 to 8) (size 9 to 14) (size 15 to 20)
#    0.000    1.867    5.333    1.600    0.000    0.533 
#    0.000    1.333    0.000    2.400    0.000    0.000 
#    0.000    0.000    0.000    0.000    0.000    0.000 
#
# Total GULP energy -167201.755261 kJ/mol
# GULP energy per Si atom -5573.391842 kJ/mol
# Density = 1.991279 g / cm^3
# Si number density = 19.958214 Si / 1000 Ang^3
#
#
#
# Elastic Constant Matrix: (Units=GPa)
#
#
# Indices 1 2 3 4 5 6 
#
# 1 107.9405 17.7477 17.4509 0.0000 -10.5766 0.0000
# 2 17.7477 37.4430 -3.9248 0.0000 1.3446 0.0000
# 3 17.4509 -3.9248 87.5621 0.0000 -9.6915 0.0000
# 4 0.0000 0.0000 0.0000 10.2893 0.0000 -5.8361
# 5 -10.5766 1.3446 -9.6915 0.0000 32.0745 0.0000
# 6 0.0000 0.0000 0.0000 -5.8361 0.0000 -16.0474
#
#
#
# Elastic Compliance Matrix: (Units=1/GPa)
#
#
# Indices 1 2 3 4 5 6 
#
# 1 0.010802 -0.005448 -0.002046 0.000000 0.003172 0.000000
# 2 -0.005448 0.029601 0.002148 0.000000 -0.002388 0.000000
# 3 -0.002046 0.002148 0.012250 0.000000 0.002937 0.000000
# 4 0.000000 0.000000 0.000000 0.080569 0.000000 -0.029301
# 5 0.003172 -0.002388 0.002937 0.000000 0.033211 0.000000
# 6 0.000000 0.000000 0.000000 -0.029301 0.000000 -0.051659
#
#
# Mechanical properties :
#
#
# Convention : Reuss Voigt Hill
#
# Bulk Modulus (GPa) = 23.83215 32.83259 28.33237
# Shear Modulus (GPa) = 35.85494 18.70807 27.28150
#
# Velocity S-wave (km/s) = 4.24311 3.06496 3.70121
# Velocity P-wave (km/s) = 5.99769 5.38625 5.70017
#
# Compressibility (1/GPa) = 0.04196013
#
# Stress axis : x y z
#
# Youngs Moduli (GPa) = 92.57741 33.78298 81.63586
#
# Poissons Ratio (x) = 0.18406 0.16702
# Poissons Ratio (y) = 0.50439 -0.17538
# Poissons Ratio (z) = 0.18940 -0.07258
#
# Static dielectric constant tensor:
#      x y z
#    x 1.762120 0.000000 -0.002440 
#    y 0.000000 1.699730 0.000000 
#    z -0.002440 0.000000 1.716120 
# 
# From -- ./inp_files/199548.got.cif
#   From: 2010.05.17/outbox.cif.g08.bks.cpg/sg15_100_cif.got.tgz:199548.got - 2010.06.03 18:47:42.
