data_PCOD9259219
_publ_section_title
;
Structure prediction by ZEFSAII (Michael W. Deem and Ramdas Pophale) SiO2 
 PCOD9259219
Probable space group: C 2/C
;
_chemical_formula_sum "Si O2"
_cell_formula_units_Z 52
_cell_length_a 9.633801
_cell_length_b 24.125629
_cell_length_c 13.120946
_cell_angle_alpha 90.000000
_cell_angle_beta 66.844066
_cell_angle_gamma 90.000000
_cell_volume 2803.909134
_symmetry_space_group_name_H-M "C 2/C"
_symmetry_group_IT_number 15
_symmetry_cell_setting 'monoclinic'
loop_
_space_group_symop_operation_xyz
x,y,z
-x,y,1/2-z
-x,-y,-z
x,-y,1/2+z
1/2+x,1/2+y,z
1/2-x,1/2+y,1/2-z
1/2-x,1/2-y,-z
1/2+x,1/2-y,1/2+z
loop_
_atom_site_type_symbol
_atom_site_label
_atom_site_fract_x
_atom_site_fract_y
_atom_site_fract_z
Si Si1 0.916572 0.778350 0.457739
Si Si2 0.765939 0.048284 0.801267
Si Si3 0.500000 0.989275 0.250000
Si Si4 0.000000 0.858364 0.250000
Si Si5 0.868162 0.135581 0.140298
Si Si6 0.500000 0.448509 0.750000
Si Si7 0.128570 0.577887 0.058383
Si Si8 0.416228 0.175850 0.164126
O O1 0.750000 0.750000 0.500000
O O2 0.932052 0.813565 0.556420
O O3 0.933017 0.820136 0.357991
O O4 0.043923 0.731485 0.407335
O O5 0.640038 0.044265 0.751898
O O6 0.875411 0.099221 0.744029
O O7 0.692911 0.060263 0.931895
O O8 0.858210 0.990528 0.784222
O O9 0.554505 0.028072 0.142000
O O10 0.983486 0.092694 0.158398
O O11 0.761260 0.102435 0.091529
O O12 0.754688 0.159866 0.259430
O O13 0.001617 0.625160 0.085601
O O14 0.500000 0.182248 0.250000
#
# Coordination Sequence:
#
# PCOD9259219 Si02
#       8
#     8   8   4   4   8   4   8   8
#     4  12  19  35  63  91 114 152 198 243 294 350
#     4  11  24  37  60  87 122 158 198 245 296 345
#     4  12  22  39  60  88 118 161 198 240 292 358
#     4  11  22  35  54  94 122 145 198 247 288 348
#     4  11  21  37  60  86 119 154 198 242 293 353
#     4  11  24  42  58  84 124 162 194 249 296 340
#     4  11  19  37  60  89 112 153 203 240 283 360
#     4  10  18  34  62  89 113 146 197 245 285 349
#
# _framework density 18.545535999999998
#
# number of rings (size 3 to 8) (size 9 to 14) (size 15 to 20)
#    0.000    0.923    9.231    0.462    0.000    1.846 
#    0.000    0.769    0.000    6.462    0.000    0.000 
#    0.000    0.000    0.000    0.000    0.000    0.000 
#
# Total GULP energy -145181.384595 kJ/mol
# GULP energy per Si atom -5583.899407 kJ/mol
# Density = 1.850333 g / cm^3
# Si number density = 18.545536 Si / 1000 Ang^3
#
#
#
# Elastic Constant Matrix: (Units=GPa)
#
#
# Indices 1 2 3 4 5 6 
#
# 1 82.2740 57.3435 23.8573 0.0000 -3.7747 0.0000
# 2 57.3435 124.8472 58.2689 0.0000 1.0783 0.0000
# 3 23.8573 58.2689 64.7055 0.0000 -4.9006 0.0000
# 4 0.0000 0.0000 0.0000 34.7024 0.0000 -17.9647
# 5 -3.7747 1.0783 -4.9006 0.0000 13.0552 0.0000
# 6 0.0000 0.0000 0.0000 -17.9647 0.0000 -39.7826
#
#
#
# Elastic Compliance Matrix: (Units=1/GPa)
#
#
# Indices 1 2 3 4 5 6 
#
# 1 0.018547 -0.009727 0.002458 0.000000 0.007089 0.000000
# 2 -0.009727 0.019388 -0.014623 0.000000 -0.009903 0.000000
# 3 0.002458 -0.014623 0.028677 0.000000 0.012683 0.000000
# 4 0.000000 0.000000 0.000000 0.023356 0.000000 -0.010547
# 5 0.007089 -0.009903 0.012683 0.000000 0.084226 0.000000
# 6 0.000000 0.000000 0.000000 -0.010547 0.000000 -0.020374
#
#
# Mechanical properties :
#
#
# Convention : Reuss Voigt Hill
#
# Bulk Modulus (GPa) = 43.80596 61.19625 52.50111
# Shear Modulus (GPa) = 24.36487 10.41879 17.39183
#
# Velocity S-wave (km/s) = 3.62855 2.37279 3.06566
# Velocity P-wave (km/s) = 6.42084 6.36996 6.39545
#
# Compressibility (1/GPa) = 0.02282794
#
# Stress axis : x y z
#
# Youngs Moduli (GPa) = 53.91835 51.57865 34.87105
#
# Poissons Ratio (x) = 0.50171 -0.08572
# Poissons Ratio (y) = 0.52447 0.50991
# Poissons Ratio (z) = -0.13254 0.75423
#
# Static dielectric constant tensor:
#      x y z
#    x 1.647810 0.000000 -0.029370 
#    y 0.000000 1.654410 0.000000 
#    z -0.029370 0.000000 1.641890 
# 
# From -- ./inp_files/137229.got.cif
#   From: 2010.05.17/outbox.cif.g08.bks.cpg/sg15_69_cif.got.tgz:137229.got - 2010.06.03 18:47:42.
