data_PCOD9259725
_publ_section_title
;
Structure prediction by ZEFSAII (Michael W. Deem and Ramdas Pophale) SiO2 
 PCOD9259725
Probable space group: C 2/C
;
_chemical_formula_sum "Si O2"
_cell_formula_units_Z 44
_cell_length_a 9.676829
_cell_length_b 16.507762
_cell_length_c 13.706996
_cell_angle_alpha 90.000000
_cell_angle_beta 114.383904
_cell_angle_gamma 90.000000
_cell_volume 1994.281313
_symmetry_space_group_name_H-M "C 2/C"
_symmetry_group_IT_number 15
_symmetry_cell_setting 'monoclinic'
loop_
_space_group_symop_operation_xyz
x,y,z
-x,y,1/2-z
-x,-y,-z
x,-y,1/2+z
1/2+x,1/2+y,z
1/2-x,1/2+y,1/2-z
1/2-x,1/2-y,-z
1/2+x,1/2-y,1/2+z
loop_
_atom_site_type_symbol
_atom_site_label
_atom_site_fract_x
_atom_site_fract_y
_atom_site_fract_z
Si Si1 0.049146 0.630014 0.877496
Si Si2 0.490501 0.810742 0.937125
Si Si3 0.741166 0.499935 0.615126
Si Si4 0.500000 0.905478 0.750000
Si Si5 0.636364 0.689970 0.367684
Si Si6 0.504662 0.376413 0.026792
O O1 0.143653 0.548536 0.921644
O O2 0.139493 0.715136 0.898765
O O3 0.000000 0.622501 0.750000
O O4 0.948759 0.649380 0.943952
O O5 0.546267 0.852436 0.855759
O O6 0.307248 0.826257 0.883241
O O7 0.522003 0.714479 0.943978
O O8 0.851053 0.459457 0.726373
O O9 0.640600 0.432765 0.532308
O O10 0.627203 0.569450 0.620825
O O11 0.500000 0.682396 0.250000
O O12 0.579645 0.637263 0.441952
#
# Coordination Sequence:
#
# PCOD9259725 Si02
#       6
#     8   8   8   4   8   8
#     4  10  19  38  68  93 118 160 213 256 308 361
#     4  11  22  43  61  90 127 172 209 248 305 390
#     4  11  21  40  61  96 125 158 205 269 312 362
#     4  12  28  40  60  92 134 168 206 250 316 376
#     4  10  18  35  66  95 115 164 210 254 300 379
#     4  10  21  40  66  87 126 161 209 260 314 364
#
# _framework density 22.063086999999999
#
# number of rings (size 3 to 8) (size 9 to 14) (size 15 to 20)
#    0.000    1.455    4.545    2.182    0.000    1.455 
#    0.000    1.818    4.000    0.000    0.000    0.000 
#    0.000    0.000    0.000    0.000    0.000    0.000 
#
# Total GULP energy -122581.846390 kJ/mol
# GULP energy per Si atom -5571.902109 kJ/mol
# Density = 2.201287 g / cm^3
# Si number density = 22.063087 Si / 1000 Ang^3
#
#
#
# Elastic Constant Matrix: (Units=GPa)
#
#
# Indices 1 2 3 4 5 6 
#
# 1 34.5614 35.1655 19.3608 0.0000 7.9176 0.0000
# 2 35.1655 145.7286 55.6031 0.0000 1.1469 0.0000
# 3 19.3608 55.6031 108.0628 0.0000 4.5880 0.0000
# 4 0.0000 0.0000 0.0000 33.8406 0.0000 12.7252
# 5 7.9176 1.1469 4.5880 0.0000 31.8263 0.0000
# 6 0.0000 0.0000 0.0000 12.7252 0.0000 23.6354
#
#
#
# Elastic Compliance Matrix: (Units=1/GPa)
#
#
# Indices 1 2 3 4 5 6 
#
# 1 0.041741 -0.009083 -0.002392 0.000000 -0.009712 0.000000
# 2 -0.009083 0.010518 -0.003888 0.000000 0.002441 0.000000
# 3 -0.002392 -0.003888 0.011724 0.000000 -0.000955 0.000000
# 4 0.000000 0.000000 0.000000 0.037052 0.000000 -0.019948
# 5 -0.009712 0.002441 -0.000955 0.000000 0.033886 0.000000
# 6 0.000000 0.000000 0.000000 -0.019948 0.000000 0.053050
#
#
# Mechanical properties :
#
#
# Convention : Reuss Voigt Hill
#
# Bulk Modulus (GPa) = 30.07050 56.51242 43.29146
# Shear Modulus (GPa) = 21.75959 29.74203 25.75081
#
# Velocity S-wave (km/s) = 3.14386 3.67556 3.42006
# Velocity P-wave (km/s) = 5.18048 6.60928 5.93801
#
# Compressibility (1/GPa) = 0.03325519
#
# Stress axis : x y z
#
# Youngs Moduli (GPa) = 23.95720 95.07191 85.29652
#
# Poissons Ratio (x) = 0.86356 0.20406
# Poissons Ratio (y) = 0.21761 0.33167
# Poissons Ratio (z) = 0.05731 0.36968
#
# Static dielectric constant tensor:
#      x y z
#    x 1.857410 0.000000 0.040440 
#    y 0.000000 1.837270 0.000000 
#    z 0.040440 0.000000 1.895790 
# 
# From -- ./inp_files/134555.got.cif
#   From: 2010.05.17/outbox.cif.g08.bks.cpg/sg15_68_cif.got.tgz:134555.got - 2010.06.03 18:47:42.
