data_PCOD9259441
_publ_section_title
;
Structure prediction by ZEFSAII (Michael W. Deem and Ramdas Pophale) SiO2 
 PCOD9259441
Probable space group: C 2/C
;
_chemical_formula_sum "Si O2"
_cell_formula_units_Z 64
_cell_length_a 22.252182
_cell_length_b 9.394322
_cell_length_c 14.851572
_cell_angle_alpha 90.000000
_cell_angle_beta 99.640148
_cell_angle_gamma 90.000000
_cell_volume 3060.793700
_symmetry_space_group_name_H-M "C 2/C"
_symmetry_group_IT_number 15
_symmetry_cell_setting 'monoclinic'
loop_
_space_group_symop_operation_xyz
x,y,z
-x,y,1/2-z
-x,-y,-z
x,-y,1/2+z
1/2+x,1/2+y,z
1/2-x,1/2+y,1/2-z
1/2-x,1/2-y,-z
1/2+x,1/2-y,1/2+z
loop_
_atom_site_type_symbol
_atom_site_label
_atom_site_fract_x
_atom_site_fract_y
_atom_site_fract_z
Si Si1 0.770660 0.656897 0.293973
Si Si2 0.068644 0.445898 0.747288
Si Si3 0.672377 0.135293 0.536785
Si Si4 0.824141 0.632799 0.754941
Si Si5 0.864077 0.178414 0.928773
Si Si6 0.311917 0.558481 0.547168
Si Si7 0.066221 0.433091 0.530668
Si Si8 0.633383 0.664507 0.772880
O O1 0.776020 0.497649 0.259179
O O2 0.707099 0.731346 0.296304
O O3 0.648628 0.450481 0.351275
O O4 0.803294 0.746678 0.222271
O O5 0.119559 0.563010 0.783238
O O6 0.075706 0.434046 0.641152
O O7 0.085162 0.287960 0.786932
O O8 0.000000 0.486914 0.750000
O O9 0.660388 0.172335 0.638606
O O10 0.673672 0.283184 0.485065
O O11 0.738745 0.060835 0.543110
O O12 0.616506 0.033288 0.496557
O O13 0.814304 0.300033 0.888057
O O14 0.919041 0.267913 0.987380
O O15 0.880794 0.116443 0.833288
O O16 0.833568 0.060697 0.982983
O O17 0.000000 0.500000 0.500000
#
# Coordination Sequence:
#
# PCOD9259441 Si02
#       8
#     8   8   8   8   8   8   8   8
#     4   9  18  34  57  83 120 161 190 240 321 357
#     4   9  19  36  61  84 111 157 210 244 283 372
#     4  10  21  36  55  92 121 155 202 252 299 377
#     4  10  18  35  57  87 123 153 197 252 310 358
#     4   9  20  39  60  88 125 163 198 260 311 358
#     4  11  21  34  64  91 122 157 207 247 315 378
#     4  10  21  42  61  81 123 159 204 257 304 363
#     4   8  18  36  56  85 118 155 205 243 300 366
#
# _framework density 20.909611000000002
#
# number of rings (size 3 to 8) (size 9 to 14) (size 15 to 20)
#    0.750    1.750    3.750    0.000    3.500    1.500 
#    0.000    0.625    2.750    0.000    0.000    0.000 
#    0.000    0.000    0.000    0.000    0.000    0.000 
#
# Total GULP energy -178247.543904 kJ/mol
# GULP energy per Si atom -5570.235747 kJ/mol
# Density = 2.086202 g / cm^3
# Si number density = 20.909611 Si / 1000 Ang^3
#
#
#
# Elastic Constant Matrix: (Units=GPa)
#
#
# Indices 1 2 3 4 5 6 
#
# 1 134.9474 60.8250 25.6771 0.0000 -1.5367 0.0000
# 2 60.8250 83.5010 35.5907 0.0000 -2.0346 0.0000
# 3 25.6771 35.5907 58.4215 0.0000 -1.6537 0.0000
# 4 0.0000 0.0000 0.0000 26.8938 0.0000 -4.3293
# 5 -1.5367 -2.0346 -1.6537 0.0000 24.7450 0.0000
# 6 0.0000 0.0000 0.0000 -4.3293 0.0000 25.4688
#
#
#
# Elastic Compliance Matrix: (Units=1/GPa)
#
#
# Indices 1 2 3 4 5 6 
#
# 1 0.011033 -0.008063 0.000064 0.000000 0.000026 0.000000
# 2 -0.008063 0.022080 -0.009889 0.000000 0.000654 0.000000
# 3 0.000064 -0.009889 0.023134 0.000000 0.000737 0.000000
# 4 0.000000 0.000000 0.000000 0.038229 0.000000 0.006498
# 5 0.000026 0.000654 0.000737 0.000000 0.040517 0.000000
# 6 0.000000 0.000000 0.000000 0.006498 0.000000 0.040368
#
#
# Mechanical properties :
#
#
# Convention : Reuss Voigt Hill
#
# Bulk Modulus (GPa) = 48.85076 57.89505 53.37290
# Shear Modulus (GPa) = 22.93974 25.74001 24.33988
#
# Velocity S-wave (km/s) = 3.31583 3.51239 3.41552
# Velocity P-wave (km/s) = 6.17035 6.64812 6.41368
#
# Compressibility (1/GPa) = 0.02047051
#
# Stress axis : x y z
#
# Youngs Moduli (GPa) = 90.63883 45.28903 43.22598
#
# Poissons Ratio (x) = 0.36518 -0.00276
# Poissons Ratio (y) = 0.73084 0.42746
# Poissons Ratio (z) = -0.00579 0.44787
#
# Static dielectric constant tensor:
#      x y z
#    x 1.814330 0.000000 0.021240 
#    y 0.000000 1.784990 0.000000 
#    z 0.021240 0.000000 1.828790 
# 
# From -- ./inp_files/251571.got.cif
#   From: 2010.05.17/outbox.cif.g08.bks.cpg/sg15_126_cif.got.tgz:251571.got - 2010.06.03 18:47:42.
