data_PCOD9259267
_publ_section_title
;
Structure prediction by ZEFSAII (Michael W. Deem and Ramdas Pophale) SiO2 
 PCOD9259267
Probable space group: C 2/C
;
_chemical_formula_sum "Si O2"
_cell_formula_units_Z 44
_cell_length_a 11.870194
_cell_length_b 17.362597
_cell_length_c 8.838287
_cell_angle_alpha 90.000000
_cell_angle_beta 71.224353
_cell_angle_gamma 90.000000
_cell_volume 1724.616347
_symmetry_space_group_name_H-M "C 2/C"
_symmetry_group_IT_number 15
_symmetry_cell_setting 'monoclinic'
loop_
_space_group_symop_operation_xyz
x,y,z
-x,y,1/2-z
-x,-y,-z
x,-y,1/2+z
1/2+x,1/2+y,z
1/2-x,1/2+y,1/2-z
1/2-x,1/2-y,-z
1/2+x,1/2-y,1/2+z
loop_
_atom_site_type_symbol
_atom_site_label
_atom_site_fract_x
_atom_site_fract_y
_atom_site_fract_z
Si Si1 0.317034 0.136689 0.197594
Si Si2 0.416477 0.594589 0.654486
Si Si3 0.504138 0.749749 0.933708
Si Si4 0.265376 0.970497 0.484871
Si Si5 0.284660 0.146174 0.553014
Si Si6 0.500000 0.010343 0.250000
O O1 0.375056 0.205896 0.080515
O O2 0.266218 0.162112 0.381592
O O3 0.422881 0.072536 0.184489
O O4 0.231033 0.089935 0.127220
O O5 0.500000 0.560053 0.750000
O O6 0.491884 0.659274 0.532945
O O7 0.341177 0.534655 0.589488
O O8 0.322038 0.650086 0.783504
O O9 0.500000 0.759549 0.750000
O O10 0.396199 0.800924 0.044047
O O11 0.295544 0.053609 0.541149
O O12 0.394822 0.955195 0.355323
#
# Coordination Sequence:
#
# PCOD9259267 Si02
#       6
#     8   8   8   8   8   4
#     4  10  18  34  64  97 125 160 219 272 318 379
#     4  11  26  42  61  94 135 173 218 263 330 400
#     4   9  19  37  61  89 124 170 212 256 319 399
#     4  11  22  36  66 103 129 162 221 283 320 378
#     4  10  20  41  67  90 126 178 214 264 328 389
#     4  10  18  34  64 102 126 164 210 282 326 382
#
# _framework density 25.512922
#
# number of rings (size 3 to 8) (size 9 to 14) (size 15 to 20)
#    0.000    1.818    4.545    2.727    2.545    8.000 
#    0.000    0.909    0.000    0.000    0.000    0.000 
#    0.000    0.000    0.000    0.000    0.000    0.000 
#
# Total GULP energy -122704.737829 kJ/mol
# GULP energy per Si atom -5577.488083 kJ/mol
# Density = 2.545485 g / cm^3
# Si number density = 25.512922 Si / 1000 Ang^3
#
#
#
# Elastic Constant Matrix: (Units=GPa)
#
#
# Indices 1 2 3 4 5 6 
#
# 1 72.3162 19.4736 19.0498 0.0000 -0.6643 0.0000
# 2 19.4736 83.3142 8.6896 0.0000 -4.5836 0.0000
# 3 19.0498 8.6896 23.0555 0.0000 -9.6011 0.0000
# 4 0.0000 0.0000 0.0000 14.3169 0.0000 -9.9779
# 5 -0.6643 -4.5836 -9.6011 0.0000 33.7394 0.0000
# 6 0.0000 0.0000 0.0000 -9.9779 0.0000 33.9183
#
#
#
# Elastic Compliance Matrix: (Units=1/GPa)
#
#
# Indices 1 2 3 4 5 6 
#
# 1 0.018926 -0.002964 -0.016487 0.000000 -0.004722 0.000000
# 2 -0.002964 0.012963 -0.001960 0.000000 0.001145 0.000000
# 3 -0.016487 -0.001960 0.065217 0.000000 0.017968 0.000000
# 4 0.000000 0.000000 0.000000 0.087861 0.000000 0.025846
# 5 -0.004722 0.001145 0.017968 0.000000 0.034815 0.000000
# 6 0.000000 0.000000 0.000000 0.025846 0.000000 0.037086
#
#
# Mechanical properties :
#
#
# Convention : Reuss Voigt Hill
#
# Bulk Modulus (GPa) = 18.42152 30.34575 24.38363
# Shear Modulus (GPa) = 15.73400 25.15976 20.44688
#
# Velocity S-wave (km/s) = 2.48605 3.14372 2.83403
# Velocity P-wave (km/s) = 3.93405 5.00973 4.50412
#
# Compressibility (1/GPa) = 0.05428435
#
# Stress axis : x y z
#
# Youngs Moduli (GPa) = 52.83757 77.14299 15.33347
#
# Poissons Ratio (x) = 0.22864 0.25280
# Poissons Ratio (y) = 0.15660 0.03005
# Poissons Ratio (z) = 0.87112 0.15120
#
# Static dielectric constant tensor:
#      x y z
#    x 2.074990 0.000000 -0.056230 
#    y 0.000000 2.067360 0.000000 
#    z -0.056230 0.000000 2.186530 
# 
# From -- ./inp_files/87150.got.cif
#   From: 2010.05.17/outbox.cif.g08.bks.cpg/sg15_44_cif.got.tgz:87150.got - 2010.06.03 18:47:42.
