data_PCOD9259278
_publ_section_title
;
Structure prediction by ZEFSAII (Michael W. Deem and Ramdas Pophale) SiO2 
 PCOD9259278
Probable space group: C 2/C
;
_chemical_formula_sum "Si O2"
_cell_formula_units_Z 44
_cell_length_a 25.272287
_cell_length_b 13.575890
_cell_length_c 14.080708
_cell_angle_alpha 90.000000
_cell_angle_beta 154.658597
_cell_angle_gamma 90.000000
_cell_volume 2067.722901
_symmetry_space_group_name_H-M "C 2/C"
_symmetry_group_IT_number 15
_symmetry_cell_setting 'monoclinic'
loop_
_space_group_symop_operation_xyz
x,y,z
-x,y,1/2-z
-x,-y,-z
x,-y,1/2+z
1/2+x,1/2+y,z
1/2-x,1/2+y,1/2-z
1/2-x,1/2-y,-z
1/2+x,1/2-y,1/2+z
loop_
_atom_site_type_symbol
_atom_site_label
_atom_site_fract_x
_atom_site_fract_y
_atom_site_fract_z
Si Si1 0.136758 0.529256 0.684988
Si Si2 0.860744 0.241648 0.345873
Si Si3 0.630326 0.868060 0.512282
Si Si4 0.716658 0.396698 0.465491
Si Si5 0.500000 0.332635 0.250000
Si Si6 0.116415 0.769784 0.161264
O O1 0.158959 0.642341 0.698166
O O2 0.160411 0.459110 0.631754
O O3 0.000000 0.500000 0.500000
O O4 0.224191 0.499580 0.914154
O O5 0.909006 0.226339 0.532491
O O6 0.976668 0.217989 0.467379
O O7 0.748268 0.167213 0.143439
O O8 0.500000 0.887190 0.250000
O O9 0.616749 0.770942 0.556807
O O10 0.592881 0.387341 0.328600
O O11 0.817028 0.316681 0.668087
O O12 0.687782 0.367228 0.310979
#
# Coordination Sequence:
#
# PCOD9259278 Si02
#       6
#     8   8   8   8   4   8
#     4  11  21  40  62  94 118 162 215 263 302 365
#     4  11  21  37  66  88 125 169 204 260 316 364
#     4  11  24  42  57  94 135 164 206 253 321 382
#     4   9  17  34  60  89 123 147 207 260 301 357
#     4  10  18  34  64  92 118 162 204 260 312 354
#     4   9  18  37  60  88 115 163 204 253 309 359
#
# _framework density 21.279447000000001
#
# number of rings (size 3 to 8) (size 9 to 14) (size 15 to 20)
#    0.000    1.818    7.273    0.000    1.273    0.727 
#    1.636    0.000    0.000    2.182    0.000    0.000 
#    0.000    0.000    0.000    0.000    0.000    0.000 
#
# Total GULP energy -122659.542529 kJ/mol
# GULP energy per Si atom -5575.433751 kJ/mol
# Density = 2.123101 g / cm^3
# Si number density = 21.279447 Si / 1000 Ang^3
#
#
#
# Elastic Constant Matrix: (Units=GPa)
#
#
# Indices 1 2 3 4 5 6 
#
# 1 23.4612 -5.2028 1.8750 0.0000 11.3853 0.0000
# 2 -5.2028 72.1334 32.5487 0.0000 -4.4672 0.0000
# 3 1.8750 32.5487 85.3285 0.0000 12.0666 0.0000
# 4 0.0000 0.0000 0.0000 28.8947 0.0000 -2.1374
# 5 11.3853 -4.4672 12.0666 0.0000 42.6922 0.0000
# 6 0.0000 0.0000 0.0000 -2.1374 0.0000 17.2743
#
#
#
# Elastic Compliance Matrix: (Units=1/GPa)
#
#
# Indices 1 2 3 4 5 6 
#
# 1 0.049515 0.002966 -0.000413 0.000000 -0.012778 0.000000
# 2 0.002966 0.017506 -0.007177 0.000000 0.003069 0.000000
# 3 -0.000413 -0.007177 0.015163 0.000000 -0.004927 0.000000
# 4 0.000000 0.000000 0.000000 0.034928 0.000000 0.004322
# 5 -0.012778 0.003069 -0.004927 0.000000 0.028545 0.000000
# 6 0.000000 0.000000 0.000000 0.004322 0.000000 0.058424
#
#
# Mechanical properties :
#
#
# Convention : Reuss Voigt Hill
#
# Bulk Modulus (GPa) = 13.71038 26.59609 20.15324
# Shear Modulus (GPa) = 21.04032 27.88574 24.46303
#
# Velocity S-wave (km/s) = 3.14787 3.62395 3.39427
# Velocity P-wave (km/s) = 4.43499 5.48054 4.98525
#
# Compressibility (1/GPa) = 0.07293744
#
# Stress axis : x y z
#
# Youngs Moduli (GPa) = 20.19582 57.12463 65.95113
#
# Poissons Ratio (x) = -0.16945 0.02721
# Poissons Ratio (y) = -0.05991 0.47331
# Poissons Ratio (z) = 0.00833 0.40997
#
# Static dielectric constant tensor:
#      x y z
#    x 1.834290 0.000000 0.023990 
#    y 0.000000 1.773330 0.000000 
#    z 0.023990 0.000000 1.809030 
# 
# From -- ./inp_files/225368.got.cif
#   From: 2010.05.17/outbox.cif.g08.bks.cpg/sg15_113_cif.got.tgz:225368.got - 2010.06.03 18:47:42.
