data_PCOD9259789
_publ_section_title
;
Structure prediction by ZEFSAII (Michael W. Deem and Ramdas Pophale) SiO2 
 PCOD9259789
Probable space group: C 2/C
;
_chemical_formula_sum "Si O2"
_cell_formula_units_Z 60
_cell_length_a 27.394645
_cell_length_b 18.175811
_cell_length_c 9.648889
_cell_angle_alpha 90.000000
_cell_angle_beta 141.252132
_cell_angle_gamma 90.000000
_cell_volume 3007.030874
_symmetry_space_group_name_H-M "C 2/C"
_symmetry_group_IT_number 15
_symmetry_cell_setting 'monoclinic'
loop_
_space_group_symop_operation_xyz
x,y,z
-x,y,1/2-z
-x,-y,-z
x,-y,1/2+z
1/2+x,1/2+y,z
1/2-x,1/2+y,1/2-z
1/2-x,1/2-y,-z
1/2+x,1/2-y,1/2+z
loop_
_atom_site_type_symbol
_atom_site_label
_atom_site_fract_x
_atom_site_fract_y
_atom_site_fract_z
Si Si1 0.390623 0.875099 0.754048
Si Si2 0.723263 0.832493 0.471877
Si Si3 0.583287 0.027185 0.954517
Si Si4 0.335897 0.656410 0.786690
Si Si5 0.277801 0.922368 0.290514
Si Si6 0.000000 0.798621 0.750000
Si Si7 0.555667 0.832768 0.188831
Si Si8 0.235779 0.689335 0.312406
O O1 0.344146 0.872171 0.510378
O O2 0.334685 0.840587 0.747532
O O3 0.474187 0.839552 0.931725
O O4 0.408204 0.954460 0.862802
O O5 0.750000 0.750000 0.500000
O O6 0.750812 0.891309 0.419658
O O7 0.629777 0.834134 0.256601
O O8 0.742393 0.845373 0.675809
O O9 0.500000 0.984705 0.750000
O O10 0.667753 0.994070 0.104125
O O11 0.567877 0.900396 0.324521
O O12 0.293293 0.584693 0.757600
O O13 0.311436 0.672038 0.573305
O O14 0.290481 0.725413 0.760201
O O15 0.428352 0.658719 0.018615
O O16 0.046360 0.743085 0.751210
#
# Coordination Sequence:
#
# PCOD9259789 Si02
#       8
#     8   8   8   8   8   4   8   8
#     4  10  20  36  56  79 111 158 202 223 276 345
#     4  12  22  35  51  79 119 152 190 246 298 328
#     4  10  21  36  54  83 121 161 194 232 280 352
#     4  10  20  35  58  83 106 150 200 241 279 348
#     4  11  25  34  51  84 118 153 195 238 285 345
#     4  12  16  36  64  88 108 150 206 242 278 342
#     4  11  19  33  56  82 113 160 191 234 285 340
#     4  10  18  36  56  76 110 148 195 237 284 344
#
# _framework density 19.953236
#
# number of rings (size 3 to 8) (size 9 to 14) (size 15 to 20)
#    0.000    1.333    7.333    0.000    3.733    1.067 
#    0.000    0.000    0.000    0.800    0.000    3.733 
#    0.000    0.000    0.000    0.133    0.000    0.000 
#
# Total GULP energy -167061.006297 kJ/mol
# GULP energy per Si atom -5568.700210 kJ/mol
# Density = 1.990782 g / cm^3
# Si number density = 19.953236 Si / 1000 Ang^3
#
#
#
# Elastic Constant Matrix: (Units=GPa)
#
#
# Indices 1 2 3 4 5 6 
#
# 1 58.9934 17.0525 34.3862 0.0000 -3.3881 0.0000
# 2 17.0525 33.8227 18.5882 0.0000 7.0470 0.0000
# 3 34.3862 18.5882 143.9391 0.0000 7.4516 0.0000
# 4 0.0000 0.0000 0.0000 21.5408 0.0000 12.4988
# 5 -3.3881 7.0470 7.4516 0.0000 34.9696 0.0000
# 6 0.0000 0.0000 0.0000 12.4988 0.0000 32.6035
#
#
#
# Elastic Compliance Matrix: (Units=1/GPa)
#
#
# Indices 1 2 3 4 5 6 
#
# 1 0.022736 -0.010129 -0.004392 0.000000 0.005180 0.000000
# 2 -0.010129 0.037459 -0.001998 0.000000 -0.008104 0.000000
# 3 -0.004392 -0.001998 0.008348 0.000000 -0.001802 0.000000
# 4 0.000000 0.000000 0.000000 0.059704 0.000000 -0.022888
# 5 0.005180 -0.008104 -0.001802 0.000000 0.031115 0.000000
# 6 0.000000 0.000000 0.000000 -0.022888 0.000000 0.039446
#
#
# Mechanical properties :
#
#
# Convention : Reuss Voigt Hill
#
# Bulk Modulus (GPa) = 28.16414 41.86767 35.01591
# Shear Modulus (GPa) = 20.51866 28.93800 24.72833
#
# Velocity S-wave (km/s) = 3.21025 3.81240 3.52421
# Velocity P-wave (km/s) = 5.28078 6.35670 5.84356
#
# Compressibility (1/GPa) = 0.03550614
#
# Stress axis : x y z
#
# Youngs Moduli (GPa) = 43.98287 26.69569 119.79141
#
# Poissons Ratio (x) = 0.27039 0.52608
# Poissons Ratio (y) = 0.44549 0.23937
# Poissons Ratio (z) = 0.19316 0.05334
#
# Static dielectric constant tensor:
#      x y z
#    x 1.767690 0.000000 -0.007930 
#    y 0.000000 1.848850 0.000000 
#    z -0.007930 0.000000 1.756710 
# 
# From -- ./inp_files/67532.got.cif
#   From: 2010.05.17/outbox.cif.g08.bks.cpg/sg15_34_cif.got.tgz:67532.got - 2010.06.03 18:47:42.
