data_PCOD9259270
_publ_section_title
;
Structure prediction by ZEFSAII (Michael W. Deem and Ramdas Pophale) SiO2 
 PCOD9259270
Probable space group: C 2/C
;
_chemical_formula_sum "Si O2"
_cell_formula_units_Z 44
_cell_length_a 17.237113
_cell_length_b 8.084295
_cell_length_c 23.957597
_cell_angle_alpha 90.000000
_cell_angle_beta 132.776474
_cell_angle_gamma 90.000000
_cell_volume 2450.480183
_symmetry_space_group_name_H-M "C 2/C"
_symmetry_group_IT_number 15
_symmetry_cell_setting 'monoclinic'
loop_
_space_group_symop_operation_xyz
x,y,z
-x,y,1/2-z
-x,-y,-z
x,-y,1/2+z
1/2+x,1/2+y,z
1/2-x,1/2+y,1/2-z
1/2-x,1/2-y,-z
1/2+x,1/2-y,1/2+z
loop_
_atom_site_type_symbol
_atom_site_label
_atom_site_fract_x
_atom_site_fract_y
_atom_site_fract_z
Si Si1 0.495842 0.576178 0.623421
Si Si2 0.141746 0.405489 0.967771
Si Si3 0.278062 0.197396 0.108398
Si Si4 0.857129 0.764892 0.516087
Si Si5 0.382172 0.547686 0.920639
Si Si6 0.500000 0.671244 0.750000
O O1 0.433249 0.745089 0.575755
O O2 0.427593 0.414176 0.574710
O O3 0.599742 0.581563 0.635560
O O4 0.511390 0.575714 0.697246
O O5 0.203804 0.408238 0.939299
O O6 0.090698 0.582999 0.953255
O O7 0.224046 0.363257 0.057455
O O8 0.392029 0.225862 0.190441
O O9 0.196584 0.103692 0.107667
O O10 0.750000 0.750000 0.500000
O O11 0.843190 0.809117 0.443715
O O12 0.500000 0.500000 0.000000
#
# Coordination Sequence:
#
# PCOD9259270 Si02
#       6
#     8   8   8   8   8   4
#     4  10  22  40  56  88 117 153 193 246 296 332
#     4  10  18  34  64  86 109 150 201 235 279 351
#     4  10  18  37  59  85 116 152 194 237 293 344
#     4  11  18  32  62  91 109 144 191 250 285 332
#     4  10  19  36  60  87 119 141 186 259 289 323
#     4  10  22  38  62  74 118 172 190 226 300 372
#
# _framework density 17.955665
#
# number of rings (size 3 to 8) (size 9 to 14) (size 15 to 20)
#    0.000    1.818    5.455    2.182    0.000    0.727 
#    0.000    7.273    8.000    0.000    0.000    0.000 
#    0.000    0.000    0.000    0.000    0.000    0.000 
#
# Total GULP energy -122495.825121 kJ/mol
# GULP energy per Si atom -5567.992051 kJ/mol
# Density = 1.791480 g / cm^3
# Si number density = 17.955665 Si / 1000 Ang^3
#
#
#
# Elastic Constant Matrix: (Units=GPa)
#
#
# Indices 1 2 3 4 5 6 
#
# 1 156.1018 42.5909 42.7190 0.0000 -12.0454 0.0000
# 2 42.5909 124.9697 36.7871 0.0000 -5.6226 0.0000
# 3 42.7190 36.7871 88.1879 0.0000 -4.7846 0.0000
# 4 0.0000 0.0000 0.0000 11.1709 0.0000 1.7185
# 5 -12.0454 -5.6226 -4.7846 0.0000 27.3927 0.0000
# 6 0.0000 0.0000 0.0000 1.7185 0.0000 23.6550
#
#
#
# Elastic Compliance Matrix: (Units=1/GPa)
#
#
# Indices 1 2 3 4 5 6 
#
# 1 0.007882 -0.001695 -0.002970 0.000000 0.002599 0.000000
# 2 -0.001695 0.009527 -0.003117 0.000000 0.000666 0.000000
# 3 -0.002970 -0.003117 0.014106 0.000000 0.000518 0.000000
# 4 0.000000 0.000000 0.000000 0.090530 0.000000 -0.006577
# 5 0.002599 0.000666 0.000518 0.000000 0.037876 0.000000
# 6 0.000000 0.000000 0.000000 -0.006577 0.000000 0.042752
#
#
# Mechanical properties :
#
#
# Convention : Reuss Voigt Hill
#
# Bulk Modulus (GPa) = 62.68999 68.16149 65.42574
# Shear Modulus (GPa) = 22.36588 28.92120 25.64354
#
# Velocity S-wave (km/s) = 3.53316 4.01771 3.78320
# Velocity P-wave (km/s) = 7.18567 7.71790 7.45654
#
# Compressibility (1/GPa) = 0.01595151
#
# Stress axis : x y z
#
# Youngs Moduli (GPa) = 126.87332 104.96359 70.88954
#
# Poissons Ratio (x) = 0.17791 0.21054
# Poissons Ratio (y) = 0.21505 0.22096
# Poissons Ratio (z) = 0.37681 0.32717
#
# Static dielectric constant tensor:
#      x y z
#    x 1.663330 0.000000 -0.009530 
#    y 0.000000 1.650600 0.000000 
#    z -0.009530 0.000000 1.630340 
# 
# From -- ./inp_files/298225.got.cif
#   From: 2010.05.17/outbox.cif.g08.bks.cpg/sg15_150_cif.got.tgz:298225.got - 2010.06.03 18:47:42.
