data_PCOD9259994
_publ_section_title
;
Structure prediction by ZEFSAII (Michael W. Deem and Ramdas Pophale) SiO2 
 PCOD9259994
Probable space group: C 2/C
;
_chemical_formula_sum "Si O2"
_cell_formula_units_Z 44
_cell_length_a 10.856593
_cell_length_b 13.292154
_cell_length_c 14.897984
_cell_angle_alpha 90.000000
_cell_angle_beta 65.006782
_cell_angle_gamma 90.000000
_cell_volume 1948.570413
_symmetry_space_group_name_H-M "C 2/C"
_symmetry_group_IT_number 15
_symmetry_cell_setting 'monoclinic'
loop_
_space_group_symop_operation_xyz
x,y,z
-x,y,1/2-z
-x,-y,-z
x,-y,1/2+z
1/2+x,1/2+y,z
1/2-x,1/2+y,1/2-z
1/2-x,1/2-y,-z
1/2+x,1/2-y,1/2+z
loop_
_atom_site_type_symbol
_atom_site_label
_atom_site_fract_x
_atom_site_fract_y
_atom_site_fract_z
Si Si1 0.000000 0.070139 0.250000
Si Si2 0.005975 0.089071 0.613474
Si Si3 0.277570 0.477145 0.589933
Si Si4 0.839331 0.269889 0.882786
Si Si5 0.365727 0.239625 0.705161
Si Si6 0.153869 0.326157 0.083171
O O1 0.908106 0.145435 0.218524
O O2 0.927554 0.991389 0.338386
O O3 0.095268 0.078598 0.496163
O O4 0.026637 0.203071 0.640537
O O5 0.856755 0.043867 0.640674
O O6 0.165998 0.389335 0.637081
O O7 0.205837 0.561885 0.551937
O O8 0.758539 0.227278 0.822575
O O9 0.750000 0.250000 0.000000
O O10 0.342777 0.194270 0.810608
O O11 0.495925 0.193836 0.613466
O O12 0.250000 0.250000 0.000000
#
# Coordination Sequence:
#
# PCOD9259994 Si02
#       6
#     4   8   8   8   8   8
#     4  10  18  36  60  86 118 160 212 252 300 386
#     4  10  21  34  64  91 117 162 213 252 322 381
#     4  10  20  40  62  85 123 164 206 260 320 377
#     4  10  22  38  59  88 130 157 203 272 309 368
#     4  10  22  40  62  93 124 161 213 254 314 385
#     4  10  22  38  67  88 119 169 209 255 317 381
#
# _framework density 22.580656999999999
#
# number of rings (size 3 to 8) (size 9 to 14) (size 15 to 20)
#    0.000    2.182    1.818    2.182    7.636    0.000 
#    0.000    5.455    8.000    0.000    0.000    0.000 
#    0.000    0.000    0.000    0.000    0.000    0.000 
#
# Total GULP energy -122517.548963 kJ/mol
# GULP energy per Si atom -5568.979498 kJ/mol
# Density = 2.252926 g / cm^3
# Si number density = 22.580657 Si / 1000 Ang^3
#
#
#
# Elastic Constant Matrix: (Units=GPa)
#
#
# Indices 1 2 3 4 5 6 
#
# 1 85.5063 73.5689 29.3536 0.0000 -1.1610 0.0000
# 2 73.5689 159.5892 -3.1749 0.0000 -12.8260 0.0000
# 3 29.3536 -3.1749 68.7148 0.0000 -10.4690 0.0000
# 4 0.0000 0.0000 0.0000 24.9454 0.0000 -4.6485
# 5 -1.1610 -12.8260 -10.4690 0.0000 23.9883 0.0000
# 6 0.0000 0.0000 0.0000 -4.6485 0.0000 39.1724
#
#
#
# Elastic Compliance Matrix: (Units=1/GPa)
#
#
# Indices 1 2 3 4 5 6 
#
# 1 0.029887 -0.015166 -0.015515 0.000000 -0.013433 0.000000
# 2 -0.015166 0.014295 0.008775 0.000000 0.010739 0.000000
# 3 -0.015515 0.008775 0.023767 0.000000 0.014313 0.000000
# 4 0.000000 0.000000 0.000000 0.040994 0.000000 0.004865
# 5 -0.013433 0.010739 0.014313 0.000000 0.053025 0.000000
# 6 0.000000 0.000000 0.000000 0.004865 0.000000 0.026105
#
#
# Mechanical properties :
#
#
# Convention : Reuss Voigt Hill
#
# Bulk Modulus (GPa) = 41.42811 57.03395 49.23103
# Shear Modulus (GPa) = 20.83932 31.89206 26.36569
#
# Velocity S-wave (km/s) = 3.04120 3.76222 3.42076
# Velocity P-wave (km/s) = 5.54242 6.64719 6.11978
#
# Compressibility (1/GPa) = 0.02413820
#
# Stress axis : x y z
#
# Youngs Moduli (GPa) = 33.45883 69.95388 42.07585
#
# Poissons Ratio (x) = 1.06093 0.65279
# Poissons Ratio (y) = 0.50744 -0.36923
# Poissons Ratio (z) = 0.51910 -0.61386
#
# Static dielectric constant tensor:
#      x y z
#    x 1.844510 0.000000 0.007500 
#    y 0.000000 1.895790 0.000000 
#    z 0.007500 0.000000 1.880610 
# 
# From -- ./inp_files/195952.got.cif
#   From: 2010.05.17/outbox.cif.g08.bks.cpg/sg15_98_cif.got.tgz:195952.got - 2010.06.03 18:47:42.
