data_PCOD9259733
_publ_section_title
;
Structure prediction by ZEFSAII (Michael W. Deem and Ramdas Pophale) SiO2 
 PCOD9259733
Probable space group: C 2/C
;
_chemical_formula_sum "Si O2"
_cell_formula_units_Z 36
_cell_length_a 9.993374
_cell_length_b 15.463780
_cell_length_c 14.080714
_cell_angle_alpha 90.000000
_cell_angle_beta 128.857006
_cell_angle_gamma 90.000000
_cell_volume 1694.456969
_symmetry_space_group_name_H-M "C 2/C"
_symmetry_group_IT_number 15
_symmetry_cell_setting 'monoclinic'
loop_
_space_group_symop_operation_xyz
x,y,z
-x,y,1/2-z
-x,-y,-z
x,-y,1/2+z
1/2+x,1/2+y,z
1/2-x,1/2+y,1/2-z
1/2-x,1/2-y,-z
1/2+x,1/2-y,1/2+z
loop_
_atom_site_type_symbol
_atom_site_label
_atom_site_fract_x
_atom_site_fract_y
_atom_site_fract_z
Si Si1 0.179757 0.181727 0.789666
Si Si2 0.842667 0.152231 0.118140
Si Si3 0.183337 0.649572 0.857221
Si Si4 0.500000 0.147910 0.250000
Si Si5 0.486725 0.094003 0.038866
O O1 0.213964 0.160745 0.694991
O O2 0.000000 0.144434 0.750000
O O3 0.154005 0.284514 0.794522
O O4 0.336681 0.146426 0.920435
O O5 0.872247 0.255823 0.126000
O O6 0.667346 0.138954 0.097025
O O7 0.000000 0.115448 0.250000
O O8 0.802681 0.114504 0.995561
O O9 0.000000 0.605879 0.750000
O O10 0.458264 0.094468 0.138336
O O11 0.500000 0.000000 0.000000
#
# Coordination Sequence:
#
# PCOD9259733 Si02
#       5
#     8   8   8   4   8
#     4  10  22  40  69  95 131 176 235 273 333 411
#     4  10  21  34  59  95 127 163 220 274 330 394
#     4  10  18  35  67  95 126 167 227 280 322 390
#     4  10  24  42  70  94 136 180 228 280 342 408
#     4  12  25  42  64  97 138 178 224 283 351 404
#
# _framework density 21.245743999999998
#
# number of rings (size 3 to 8) (size 9 to 14) (size 15 to 20)
#    0.667    0.889    4.444    0.667    0.000    4.444 
#    0.000    0.000    0.000    5.333    0.000    0.000 
#    0.000    0.000    0.000    0.000    0.000    0.000 
#
# Total GULP energy -100429.816043 kJ/mol
# GULP energy per Si atom -5579.434225 kJ/mol
# Density = 2.119739 g / cm^3
# Si number density = 21.245744 Si / 1000 Ang^3
#
#
#
# Elastic Constant Matrix: (Units=GPa)
#
#
# Indices 1 2 3 4 5 6 
#
# 1 140.1423 9.7108 96.0387 0.0000 -25.3001 0.0000
# 2 9.7108 57.5915 37.8442 0.0000 -5.6861 0.0000
# 3 96.0387 37.8442 240.0993 0.0000 -19.6318 0.0000
# 4 0.0000 0.0000 0.0000 16.4795 0.0000 -5.2338
# 5 -25.3001 -5.6861 -19.6318 0.0000 60.8334 0.0000
# 6 0.0000 0.0000 0.0000 -5.2338 0.0000 10.1582
#
#
#
# Elastic Compliance Matrix: (Units=1/GPa)
#
#
# Indices 1 2 3 4 5 6 
#
# 1 0.010434 0.001254 -0.004115 0.000000 0.003128 0.000000
# 2 0.001254 0.019563 -0.003485 0.000000 0.001225 0.000000
# 3 -0.004115 -0.003485 0.006362 0.000000 0.000016 0.000000
# 4 0.000000 0.000000 0.000000 0.072553 0.000000 0.037381
# 5 0.003128 0.001225 0.000016 0.000000 0.017859 0.000000
# 6 0.000000 0.000000 0.000000 0.037381 0.000000 0.117702
#
#
# Mechanical properties :
#
#
# Convention : Reuss Voigt Hill
#
# Bulk Modulus (GPa) = 42.25497 80.55783 61.40640
# Shear Modulus (GPa) = 18.86407 37.11018 27.98713
#
# Velocity S-wave (km/s) = 2.98300 4.18390 3.63341
# Velocity P-wave (km/s) = 5.63881 7.83196 6.82406
#
# Compressibility (1/GPa) = 0.02366585
#
# Stress axis : x y z
#
# Youngs Moduli (GPa) = 95.84370 51.11634 157.19345
#
# Poissons Ratio (x) = -0.06409 0.64689
# Poissons Ratio (y) = -0.12017 0.54780
# Poissons Ratio (z) = 0.39442 0.17813
#
# Static dielectric constant tensor:
#      x y z
#    x 1.757050 0.000000 -0.021970 
#    y 0.000000 1.807480 0.000000 
#    z -0.021970 0.000000 1.765590 
# 
# From -- ./inp_files/134656.got.cif
#   From: 2010.05.17/outbox.cif.g08.bks.cpg/sg15_68_cif.got.tgz:134656.got - 2010.06.03 18:47:42.
