data_PCOD9259587
_publ_section_title
;
Structure prediction by ZEFSAII (Michael W. Deem and Ramdas Pophale) SiO2 
 PCOD9259587
Probable space group: C 2/C
;
_chemical_formula_sum "Si O2"
_cell_formula_units_Z 56
_cell_length_a 15.435627
_cell_length_b 9.774828
_cell_length_c 17.395571
_cell_angle_alpha 90.000000
_cell_angle_beta 118.980987
_cell_angle_gamma 90.000000
_cell_volume 2295.996389
_symmetry_space_group_name_H-M "C 2/C"
_symmetry_group_IT_number 15
_symmetry_cell_setting 'monoclinic'
loop_
_space_group_symop_operation_xyz
x,y,z
-x,y,1/2-z
-x,-y,-z
x,-y,1/2+z
1/2+x,1/2+y,z
1/2-x,1/2+y,1/2-z
1/2-x,1/2-y,-z
1/2+x,1/2-y,1/2+z
loop_
_atom_site_type_symbol
_atom_site_label
_atom_site_fract_x
_atom_site_fract_y
_atom_site_fract_z
Si Si1 0.877089 0.130516 0.527685
Si Si2 0.441134 0.741385 0.831748
Si Si3 0.628006 0.155854 0.892916
Si Si4 0.325761 0.610935 0.902109
Si Si5 0.825530 0.566455 0.967555
Si Si6 0.500000 0.362017 0.750000
Si Si7 0.500000 0.030724 0.250000
Si Si8 0.310273 0.533137 0.726133
O O1 0.877127 0.283724 0.491115
O O2 0.774365 0.099382 0.526399
O O3 0.967719 0.135387 0.625860
O O4 0.884701 0.004319 0.473395
O O5 0.393986 0.728155 0.895038
O O6 0.480616 0.879371 0.815900
O O7 0.356982 0.685957 0.737997
O O8 0.594597 0.058030 0.808470
O O9 0.742453 0.179569 0.919612
O O10 0.550055 0.277436 0.843901
O O11 0.622955 0.059929 0.965930
O O12 0.290223 0.532163 0.808816
O O13 0.785748 0.522849 0.867263
O O14 0.400347 0.434730 0.739811
#
# Coordination Sequence:
#
# PCOD9259587 Si02
#       8
#     8   8   8   8   8   4   4   8
#     4  10  18  35  60  95 125 152 201 266 298 366
#     4  10  20  35  62  93 121 160 201 259 297 372
#     4  10  23  40  61  91 118 168 205 259 306 361
#     4   9  23  35  61  91 126 155 203 249 320 350
#     4  10  20  35  63  92 120 159 211 252 306 362
#     4  11  23  42  62  80 127 167 210 246 304 385
#     4  11  19  36  66  88 125 157 218 248 302 357
#     4  10  23  37  61  90 121 166 203 251 307 373
#
# _framework density 24.390283
#
# number of rings (size 3 to 8) (size 9 to 14) (size 15 to 20)
#    0.857    1.143    1.429    2.571    4.000    2.857 
#    0.000    0.000    3.143    2.571    0.000    0.000 
#    0.000    0.000    0.000    0.000    0.000    0.000 
#
# Total GULP energy -156124.285850 kJ/mol
# GULP energy per Si atom -5575.867352 kJ/mol
# Density = 2.433477 g / cm^3
# Si number density = 24.390283 Si / 1000 Ang^3
#
#
#
# Elastic Constant Matrix: (Units=GPa)
#
#
# Indices 1 2 3 4 5 6 
#
# 1 58.0358 21.0932 6.2403 0.0000 -4.3255 0.0000
# 2 21.0932 55.1939 12.4115 0.0000 -4.0263 0.0000
# 3 6.2403 12.4115 88.9562 0.0000 -0.5952 0.0000
# 4 0.0000 0.0000 0.0000 34.5232 0.0000 6.3401
# 5 -4.3255 -4.0263 -0.5952 0.0000 28.7983 0.0000
# 6 0.0000 0.0000 0.0000 6.3401 0.0000 -21.9021
#
#
#
# Elastic Compliance Matrix: (Units=1/GPa)
#
#
# Indices 1 2 3 4 5 6 
#
# 1 0.020131 -0.007469 -0.000357 0.000000 0.001972 0.000000
# 2 -0.007469 0.021667 -0.002487 0.000000 0.001856 0.000000
# 3 -0.000357 -0.002487 0.011612 0.000000 -0.000161 0.000000
# 4 0.000000 0.000000 0.000000 0.027504 0.000000 0.007962
# 5 0.001972 0.001856 -0.000161 0.000000 0.035277 0.000000
# 6 0.000000 0.000000 0.000000 0.007962 0.000000 -0.043353
#
#
# Mechanical properties :
#
#
# Convention : Reuss Voigt Hill
#
# Bulk Modulus (GPa) = 30.50201 31.29731 30.89966
# Shear Modulus (GPa) = 47.89677 19.11329 33.50503
#
# Velocity S-wave (km/s) = 4.43625 2.80240 3.71037
# Velocity P-wave (km/s) = 6.22682 4.83022 5.57245
#
# Compressibility (1/GPa) = 0.03278473
#
# Stress axis : x y z
#
# Youngs Moduli (GPa) = 49.67521 46.15321 86.11488
#
# Poissons Ratio (x) = 0.34473 0.03073
# Poissons Ratio (y) = 0.37103 0.21414
# Poissons Ratio (z) = 0.01773 0.11477
#
# Static dielectric constant tensor:
#      x y z
#    x 1.948390 0.000000 0.028800 
#    y 0.000000 1.976590 0.000000 
#    z 0.028800 0.000000 1.980400 
# 
# From -- ./inp_files/210425.got.cif
#   From: 2010.05.17/outbox.cif.g08.bks.cpg/sg15_106_cif.got.tgz:210425.got - 2010.06.03 18:47:42.
