data_PCOD9259313
_publ_section_title
;
Structure prediction by ZEFSAII (Michael W. Deem and Ramdas Pophale) SiO2 
 PCOD9259313
Probable space group: C 2/C
;
_chemical_formula_sum "Si O2"
_cell_formula_units_Z 52
_cell_length_a 7.454086
_cell_length_b 12.483684
_cell_length_c 23.550376
_cell_angle_alpha 90.000000
_cell_angle_beta 89.456361
_cell_angle_gamma 90.000000
_cell_volume 2191.368738
_symmetry_space_group_name_H-M "C 2/C"
_symmetry_group_IT_number 15
_symmetry_cell_setting 'monoclinic'
loop_
_space_group_symop_operation_xyz
x,y,z
-x,y,1/2-z
-x,-y,-z
x,-y,1/2+z
1/2+x,1/2+y,z
1/2-x,1/2+y,1/2-z
1/2-x,1/2-y,-z
1/2+x,1/2-y,1/2+z
loop_
_atom_site_type_symbol
_atom_site_label
_atom_site_fract_x
_atom_site_fract_y
_atom_site_fract_z
Si Si1 0.561226 0.573584 0.051485
Si Si2 0.007736 0.978964 0.166351
Si Si3 0.572820 0.123563 0.502775
Si Si4 0.683842 0.832409 0.589685
Si Si5 0.719223 0.177254 0.809416
Si Si6 0.500000 0.330881 0.750000
Si Si7 0.883232 0.570987 0.870470
O O1 0.603232 0.498730 0.105393
O O2 0.386652 0.639687 0.070517
O O3 0.500000 0.500000 0.000000
O O4 0.737846 0.632537 0.029791
O O5 0.138422 0.912119 0.205330
O O6 0.993500 0.094673 0.195188
O O7 0.817006 0.925043 0.154343
O O8 0.431674 0.191828 0.466402
O O9 0.500000 0.000000 0.500000
O O10 0.601513 0.134752 0.569940
O O11 0.600617 0.943050 0.615963
O O12 0.697010 0.743153 0.637882
O O13 0.671373 0.255797 0.758328
O O14 0.536465 0.118976 0.830149
#
# Coordination Sequence:
#
# PCOD9259313 Si02
#       7
#     8   8   8   8   8   4   8
#     4  11  18  39  71  99 148 189 213 293 356 410
#     4  11  25  49  73 103 143 184 240 299 351 418
#     4  10  18  34  68 104 143 188 219 270 353 424
#     4  10  22  41  64 105 148 181 227 279 345 421
#     4  12  27  47  74 101 139 188 237 299 355 413
#     4  12  28  54  70 102 138 182 252 304 350 420
#     4  10  22  44  70 106 143 178 235 280 345 432
#
# _framework density 23.729462000000002
#
# number of rings (size 3 to 8) (size 9 to 14) (size 15 to 20)
#    0.000    1.231    7.692    1.846    2.154    1.846 
#    2.769    3.077    0.000    0.000    0.000    0.000 
#    0.000    0.000    0.000    0.000    0.000    0.000 
#
# Total GULP energy -145485.915294 kJ/mol
# GULP energy per Si atom -5595.612127 kJ/mol
# Density = 2.367545 g / cm^3
# Si number density = 23.729462 Si / 1000 Ang^3
#
#
#
# Elastic Constant Matrix: (Units=GPa)
#
#
# Indices 1 2 3 4 5 6 
#
# 1 121.8402 26.2728 35.7626 0.0000 14.5181 0.0000
# 2 26.2728 73.1531 17.9743 0.0000 5.0694 0.0000
# 3 35.7626 17.9743 92.4424 0.0000 15.0191 0.0000
# 4 0.0000 0.0000 0.0000 15.9537 0.0000 6.7794
# 5 14.5181 5.0694 15.0191 0.0000 45.0195 0.0000
# 6 0.0000 0.0000 0.0000 6.7794 0.0000 35.4805
#
#
#
# Elastic Compliance Matrix: (Units=1/GPa)
#
#
# Indices 1 2 3 4 5 6 
#
# 1 0.009891 -0.002685 -0.002998 0.000000 -0.001887 0.000000
# 2 -0.002685 0.015107 -0.001864 0.000000 -0.000213 0.000000
# 3 -0.002998 -0.001864 0.012845 0.000000 -0.003109 0.000000
# 4 0.000000 0.000000 0.000000 0.068221 0.000000 -0.013035
# 5 -0.001887 -0.000213 -0.003109 0.000000 0.023882 0.000000
# 6 0.000000 0.000000 0.000000 -0.013035 0.000000 0.030675
#
#
# Mechanical properties :
#
#
# Convention : Reuss Voigt Hill
#
# Bulk Modulus (GPa) = 43.95729 49.71724 46.83726
# Shear Modulus (GPa) = 27.27797 33.11914 30.19856
#
# Velocity S-wave (km/s) = 3.39417 3.73996 3.57125
# Velocity P-wave (km/s) = 5.82452 6.29658 6.06514
#
# Compressibility (1/GPa) = 0.02274935
#
# Stress axis : x y z
#
# Youngs Moduli (GPa) = 101.09916 66.19419 77.85260
#
# Poissons Ratio (x) = 0.17773 0.23339
# Poissons Ratio (y) = 0.27146 0.14512
# Poissons Ratio (z) = 0.30308 0.12338
#
# Static dielectric constant tensor:
#      x y z
#    x 1.873170 0.000000 0.024450 
#    y 0.000000 1.931200 0.000000 
#    z 0.024450 0.000000 1.904320 
# 
# From -- ./inp_files/287670.got.cif
#   From: 2010.05.17/outbox.cif.g08.bks.cpg/sg15_144_cif.got.tgz:287670.got - 2010.06.03 18:47:42.
