data_PCOD9259295
_publ_section_title
;
Structure prediction by ZEFSAII (Michael W. Deem and Ramdas Pophale) SiO2 
 PCOD9259295
Probable space group: C 2/C
;
_chemical_formula_sum "Si O2"
_cell_formula_units_Z 36
_cell_length_a 7.440756
_cell_length_b 19.529823
_cell_length_c 9.106937
_cell_angle_alpha 90.000000
_cell_angle_beta 88.603976
_cell_angle_gamma 90.000000
_cell_volume 1322.996751
_symmetry_space_group_name_H-M "C 2/C"
_symmetry_group_IT_number 15
_symmetry_cell_setting 'monoclinic'
loop_
_space_group_symop_operation_xyz
x,y,z
-x,y,1/2-z
-x,-y,-z
x,-y,1/2+z
1/2+x,1/2+y,z
1/2-x,1/2+y,1/2-z
1/2-x,1/2-y,-z
1/2+x,1/2-y,1/2+z
loop_
_atom_site_type_symbol
_atom_site_label
_atom_site_fract_x
_atom_site_fract_y
_atom_site_fract_z
Si Si1 0.080522 0.330852 0.471253
Si Si2 0.500000 0.239893 0.250000
Si Si3 0.000000 0.968112 0.250000
Si Si4 0.861711 0.471148 0.121596
Si Si5 0.000000 0.786058 0.750000
Si Si6 0.659190 0.645850 0.961852
O O1 0.106799 0.309518 0.638031
O O2 0.099407 0.269407 0.356013
O O3 0.873953 0.354689 0.463821
O O4 0.200075 0.395265 0.426652
O O5 0.397255 0.289395 0.139187
O O6 0.824631 0.006102 0.322305
O O7 0.913947 0.920541 0.122702
O O8 0.000000 0.463454 0.250000
O O9 0.000000 0.500000 0.000000
O O10 0.091527 0.834191 0.625511
#
# Coordination Sequence:
#
# PCOD9259295 Si02
#       6
#     8   4   4   8   4   8
#     4  11  21  42  64  98 149 183 236 299 345 424
#     4   9  20  32  67 106 143 198 228 275 358 430
#     4  11  24  50  77 106 143 186 234 297 364 430
#     4  12  28  51  75 102 139 186 246 308 360 414
#     4  10  18  34  66 102 146 188 222 284 346 426
#     4  10  21  39  66 106 147 188 232 282 358 434
#
# _framework density 27.21095
#
# number of rings (size 3 to 8) (size 9 to 14) (size 15 to 20)
#    0.000    1.333    3.333    2.667    1.556    6.222 
#    0.000   13.333    0.000    0.000    0.000    0.000 
#    0.000    0.000    0.000    0.000    0.000    0.000 
#
# Total GULP energy -100811.817042 kJ/mol
# GULP energy per Si atom -5600.656502 kJ/mol
# Density = 2.714902 g / cm^3
# Si number density = 27.210950 Si / 1000 Ang^3
#
#
#
# Elastic Constant Matrix: (Units=GPa)
#
#
# Indices 1 2 3 4 5 6 
#
# 1 159.7641 24.5003 56.7390 0.0000 -42.6164 0.0000
# 2 24.5003 77.7285 53.4122 0.0000 -4.7952 0.0000
# 3 56.7390 53.4122 257.2497 0.0000 -18.2262 0.0000
# 4 0.0000 0.0000 0.0000 40.8643 0.0000 -9.2201
# 5 -42.6164 -4.7952 -18.2262 0.0000 45.0739 0.0000
# 6 0.0000 0.0000 0.0000 -9.2201 0.0000 32.8002
#
#
#
# Elastic Compliance Matrix: (Units=1/GPa)
#
#
# Indices 1 2 3 4 5 6 
#
# 1 0.008999 -0.001598 -0.001094 0.000000 0.007896 0.000000
# 2 -0.001598 0.015295 -0.002898 0.000000 -0.001055 0.000000
# 3 -0.001094 -0.002898 0.004772 0.000000 0.000587 0.000000
# 4 0.000000 0.000000 0.000000 0.026128 0.000000 0.007345
# 5 0.007896 -0.001055 0.000587 0.000000 0.029777 0.000000
# 6 0.000000 0.000000 0.000000 0.007345 0.000000 0.032552
#
#
# Mechanical properties :
#
#
# Convention : Reuss Voigt Hill
#
# Bulk Modulus (GPa) = 55.90686 84.89391 70.40038
# Shear Modulus (GPa) = 37.12929 47.75374 42.44151
#
# Velocity S-wave (km/s) = 3.69792 4.19375 3.95362
# Velocity P-wave (km/s) = 6.23082 7.39704 6.83884
#
# Compressibility (1/GPa) = 0.01788689
#
# Stress axis : x y z
#
# Youngs Moduli (GPa) = 111.12470 65.37956 209.56428
#
# Poissons Ratio (x) = 0.10447 0.22918
# Poissons Ratio (y) = 0.17756 0.60733
# Poissons Ratio (z) = 0.12153 0.18948
#
# Static dielectric constant tensor:
#      x y z
#    x 2.473460 0.000000 0.052160 
#    y 0.000000 2.185380 0.000000 
#    z 0.052160 0.000000 2.166780 
# 
# From -- ./inp_files/23140.got.cif
#   From: 2010.05.17/outbox.cif.g08.bks.cpg/sg15_12_cif.got.tgz:23140.got - 2010.06.03 18:47:42.
