data_PCOD9259426
_publ_section_title
;
Structure prediction by ZEFSAII (Michael W. Deem and Ramdas Pophale) SiO2 
 PCOD9259426
Probable space group: C 2/C
;
_chemical_formula_sum "Si O2"
_cell_formula_units_Z 60
_cell_length_a 26.240421
_cell_length_b 9.454270
_cell_length_c 16.356018
_cell_angle_alpha 90.000000
_cell_angle_beta 129.782792
_cell_angle_gamma 90.000000
_cell_volume 3118.218469
_symmetry_space_group_name_H-M "C 2/C"
_symmetry_group_IT_number 15
_symmetry_cell_setting 'monoclinic'
loop_
_space_group_symop_operation_xyz
x,y,z
-x,y,1/2-z
-x,-y,-z
x,-y,1/2+z
1/2+x,1/2+y,z
1/2-x,1/2+y,1/2-z
1/2-x,1/2-y,-z
1/2+x,1/2-y,1/2+z
loop_
_atom_site_type_symbol
_atom_site_label
_atom_site_fract_x
_atom_site_fract_y
_atom_site_fract_z
Si Si1 0.802513 0.352730 0.232058
Si Si2 0.969709 0.528993 0.340730
Si Si3 0.500000 0.779713 0.250000
Si Si4 0.807735 0.340496 0.913569
Si Si5 0.145163 0.189699 0.375509
Si Si6 0.406562 0.055952 0.948428
Si Si7 0.727068 0.431554 0.407631
Si Si8 0.172494 0.627824 0.343451
O O1 0.730452 0.285474 0.170436
O O2 0.837611 0.268137 0.192465
O O3 0.847268 0.342634 0.358910
O O4 0.801782 0.513927 0.197304
O O5 0.940873 0.480422 0.397880
O O6 0.907112 0.603186 0.232624
O O7 0.992163 0.389270 0.316458
O O8 0.037908 0.610635 0.431824
O O9 0.567475 0.691523 0.316298
O O10 0.873803 0.410386 0.946842
O O11 0.756542 0.470826 0.866797
O O12 0.820485 0.280772 0.017661
O O13 0.175920 0.034031 0.402376
O O14 0.788882 0.401347 0.532001
O O15 0.692341 0.288134 0.343961
#
# Coordination Sequence:
#
# PCOD9259426 Si02
#       8
#     8   8   4   8   8   8   8   8
#     4  10  19  36  58  85 115 146 197 239 283 347
#     4  10  21  35  53  87 110 150 198 234 285 344
#     4  12  18  34  66  80 106 160 202 240 284 344
#     4  11  19  35  60  85 110 153 195 241 295 344
#     4  11  19  35  59  87 110 149 201 246 281 348
#     4  10  21  33  53  86 118 144 188 244 282 345
#     4  10  20  33  58  87 116 139 187 249 300 327
#     4  10  18  35  57  82 116 144 183 248 288 335
#
# _framework density 19.241755000000001
#
# number of rings (size 3 to 8) (size 9 to 14) (size 15 to 20)
#    0.000    1.600    6.667    0.800    0.000    2.133 
#    0.000    0.667    0.000    3.200    0.000    0.000 
#    0.000    0.000    0.000    0.000    0.000    0.000 
#
# Total GULP energy -167188.608809 kJ/mol
# GULP energy per Si atom -5572.953627 kJ/mol
# Density = 1.919796 g / cm^3
# Si number density = 19.241755 Si / 1000 Ang^3
#
#
#
# Elastic Constant Matrix: (Units=GPa)
#
#
# Indices 1 2 3 4 5 6 
#
# 1 83.7934 30.3151 27.0258 0.0000 14.5789 0.0000
# 2 30.3151 95.3808 35.0841 0.0000 10.4163 0.0000
# 3 27.0258 35.0841 117.7493 0.0000 38.6174 0.0000
# 4 0.0000 0.0000 0.0000 16.3986 0.0000 0.0003
# 5 14.5789 10.4163 38.6174 0.0000 27.8620 0.0000
# 6 0.0000 0.0000 0.0000 0.0003 0.0000 12.4363
#
#
#
# Elastic Compliance Matrix: (Units=1/GPa)
#
#
# Indices 1 2 3 4 5 6 
#
# 1 0.014413 -0.003851 -0.000292 0.000000 -0.005697 0.000000
# 2 -0.003851 0.012815 -0.003711 0.000000 0.002368 0.000000
# 3 -0.000292 -0.003711 0.016794 0.000000 -0.021737 0.000000
# 4 0.000000 0.000000 0.000000 0.060981 0.000000 -0.000002
# 5 -0.005697 0.002368 -0.021737 0.000000 0.068115 0.000000
# 6 0.000000 0.000000 0.000000 -0.000002 0.000000 0.080410
#
#
# Mechanical properties :
#
#
# Convention : Reuss Voigt Hill
#
# Bulk Modulus (GPa) = 35.31891 53.53038 44.42465
# Shear Modulus (GPa) = 17.94214 24.97262 21.45738
#
# Velocity S-wave (km/s) = 3.05693 3.60646 3.34300
# Velocity P-wave (km/s) = 5.55473 6.72476 6.16755
#
# Compressibility (1/GPa) = 0.02831344
#
# Stress axis : x y z
#
# Youngs Moduli (GPa) = 69.38252 78.03525 59.54412
#
# Poissons Ratio (x) = 0.30053 0.01740
# Poissons Ratio (y) = 0.26721 0.22095
# Poissons Ratio (z) = 0.02027 0.28957
#
# Static dielectric constant tensor:
#      x y z
#    x 1.722050 0.000000 0.029080 
#    y 0.000000 1.672670 0.000000 
#    z 0.029080 0.000000 1.762760 
# 
# From -- ./inp_files/221907.got.cif
#   From: 2010.05.17/outbox.cif.g08.bks.cpg/sg15_111_cif.got.tgz:221907.got - 2010.06.03 18:47:42.
