data_PCOD9259065
_publ_section_title
;
Structure prediction by ZEFSAII (Michael W. Deem and Ramdas Pophale) SiO2 
 PCOD9259065
Probable space group: C 2/C
;
_chemical_formula_sum "Si O2"
_cell_formula_units_Z 40
_cell_length_a 17.736950
_cell_length_b 7.739858
_cell_length_c 13.773369
_cell_angle_alpha 90.000000
_cell_angle_beta 81.610305
_cell_angle_gamma 90.000000
_cell_volume 1870.593875
_symmetry_space_group_name_H-M "C 2/C"
_symmetry_group_IT_number 15
_symmetry_cell_setting 'monoclinic'
loop_
_space_group_symop_operation_xyz
x,y,z
-x,y,1/2-z
-x,-y,-z
x,-y,1/2+z
1/2+x,1/2+y,z
1/2-x,1/2+y,1/2-z
1/2-x,1/2-y,-z
1/2+x,1/2-y,1/2+z
loop_
_atom_site_type_symbol
_atom_site_label
_atom_site_fract_x
_atom_site_fract_y
_atom_site_fract_z
Si Si1 0.651274 0.419201 0.997804
Si Si2 0.160599 0.706471 0.517967
Si Si3 0.776237 0.753255 0.335961
Si Si4 0.355116 0.078277 0.765300
Si Si5 0.927099 0.590526 0.558607
O O1 0.624218 0.614270 0.989093
O O2 0.683451 0.389205 0.100242
O O3 0.721115 0.367659 0.913003
O O4 0.588943 0.274178 0.987020
O O5 0.250000 0.750000 0.500000
O O6 0.133747 0.659939 0.631331
O O7 0.141666 0.540136 0.457051
O O8 0.721608 0.839308 0.267157
O O9 0.838645 0.624779 0.280742
O O10 0.421757 0.109304 0.675188
O O11 0.000000 0.500000 0.500000
#
# Coordination Sequence:
#
# PCOD9259065 Si02
#       5
#     8   8   8   8   8
#     4  10  20  38  61  90 130 161 206 272 320 384
#     4  12  21  41  69  97 127 165 215 276 336 382
#     4  10  18  34  58  99 124 150 213 268 321 373
#     4  11  21  35  66  94 126 169 211 265 328 389
#     4  11  26  44  61  90 137 177 218 263 322 398
#
# _framework density 21.383585
#
# number of rings (size 3 to 8) (size 9 to 14) (size 15 to 20)
#    0.000    1.200    4.000    4.800    0.000    1.600 
#    0.000    0.000    4.400    0.000    0.000    0.000 
#    0.000    0.000    0.000    0.000    0.000    0.000 
#
# Total GULP energy -111847.665274 kJ/mol
# GULP energy per Si atom -5592.383264 kJ/mol
# Density = 2.133491 g / cm^3
# Si number density = 21.383585 Si / 1000 Ang^3
#
#
#
# Elastic Constant Matrix: (Units=GPa)
#
#
# Indices 1 2 3 4 5 6 
#
# 1 42.5694 0.7607 1.9020 0.0000 -20.0170 0.0000
# 2 0.7607 113.5713 12.0918 0.0000 3.5026 0.0000
# 3 1.9020 12.0918 88.4593 0.0000 -2.5969 0.0000
# 4 0.0000 0.0000 0.0000 26.2068 0.0000 3.2511
# 5 -20.0170 3.5026 -2.5969 0.0000 23.2518 0.0000
# 6 0.0000 0.0000 0.0000 3.2511 0.0000 22.8268
#
#
#
# Elastic Compliance Matrix: (Units=1/GPa)
#
#
# Indices 1 2 3 4 5 6 
#
# 1 0.039675 -0.001363 0.000343 0.000000 0.034399 0.000000
# 2 -0.001363 0.009033 -0.001284 0.000000 -0.002678 0.000000
# 3 0.000343 -0.001284 0.011525 0.000000 0.001776 0.000000
# 4 0.000000 0.000000 0.000000 0.038844 0.000000 -0.005532
# 5 0.034399 -0.002678 0.001776 0.000000 0.073223 0.000000
# 6 0.000000 0.000000 0.000000 -0.005532 0.000000 0.044596
#
#
# Mechanical properties :
#
#
# Convention : Reuss Voigt Hill
#
# Bulk Modulus (GPa) = 17.97742 30.45657 24.21700
# Shear Modulus (GPa) = 20.82925 29.78013 25.30469
#
# Velocity S-wave (km/s) = 3.12441 3.73589 3.44375
# Velocity P-wave (km/s) = 4.63047 5.73437 5.21173
#
# Compressibility (1/GPa) = 0.05562533
#
# Stress axis : x y z
#
# Youngs Moduli (GPa) = 25.20458 110.69944 86.76845
#
# Poissons Ratio (x) = 0.15090 -0.02977
# Poissons Ratio (y) = 0.03436 0.11142
# Poissons Ratio (z) = -0.00865 0.14215
#
# Static dielectric constant tensor:
#      x y z
#    x 1.813610 0.000000 -0.001420 
#    y 0.000000 1.782640 0.000000 
#    z -0.001420 0.000000 1.777170 
# 
# From -- ./inp_files/109651.got.cif
#   From: 2010.05.17/outbox.cif.g08.bks.cpg/sg15_55_cif.got.tgz:109651.got - 2010.06.03 18:47:42.
