data_PCOD9259436
_publ_section_title
;
Structure prediction by ZEFSAII (Michael W. Deem and Ramdas Pophale) SiO2 
 PCOD9259436
Probable space group: C 2/C
;
_chemical_formula_sum "Si O2"
_cell_formula_units_Z 48
_cell_length_a 12.005602
_cell_length_b 18.286403
_cell_length_c 13.085750
_cell_angle_alpha 90.000000
_cell_angle_beta 113.846554
_cell_angle_gamma 90.000000
_cell_volume 2627.586313
_symmetry_space_group_name_H-M "C 2/C"
_symmetry_group_IT_number 15
_symmetry_cell_setting 'monoclinic'
loop_
_space_group_symop_operation_xyz
x,y,z
-x,y,1/2-z
-x,-y,-z
x,-y,1/2+z
1/2+x,1/2+y,z
1/2-x,1/2+y,1/2-z
1/2-x,1/2-y,-z
1/2+x,1/2-y,1/2+z
loop_
_atom_site_type_symbol
_atom_site_label
_atom_site_fract_x
_atom_site_fract_y
_atom_site_fract_z
Si Si1 0.136448 0.785231 0.756752
Si Si2 0.127413 0.471231 0.736248
Si Si3 0.720195 0.911392 0.571084
Si Si4 0.944814 0.979768 0.127318
Si Si5 0.355020 0.873796 0.188424
Si Si6 0.370587 0.597517 0.404084
O O1 0.215392 0.841639 0.852941
O O2 0.191083 0.704083 0.787856
O O3 0.122808 0.821652 0.640146
O O4 0.000000 0.784891 0.750000
O O5 0.123355 0.440639 0.619065
O O6 0.176076 0.554745 0.757306
O O7 0.231639 0.427152 0.835366
O O8 0.000000 0.467833 0.750000
O O9 0.821418 0.974599 0.598184
O O10 0.677292 0.890165 0.441761
O O11 0.000000 0.947597 0.250000
O O12 0.043316 0.041088 0.127559
O O13 0.917797 0.917813 0.034528
O O14 0.500000 0.868703 0.250000
#
# Coordination Sequence:
#
# PCOD9259436 Si02
#       6
#     8   8   8   8   8   8
#     4  10  18  35  57  86 114 139 186 248 293 327
#     4  10  21  35  54  85 114 154 191 232 280 341
#     4  11  19  36  57  86 113 148 198 244 275 336
#     4  11  18  32  57  90 113 143 192 240 293 320
#     4  10  22  35  53  85 113 150 191 233 291 332
#     4  10  19  33  58  87 116 144 187 246 284 336
#
# _framework density 18.267714999999999
#
# number of rings (size 3 to 8) (size 9 to 14) (size 15 to 20)
#    0.000    1.667    6.667    0.500    0.000    2.667 
#    0.000    0.000    0.000    1.000   21.667    1.167 
#    0.000    0.000    0.000    0.000    0.000    0.000 
#
# Total GULP energy -133740.805836 kJ/mol
# GULP energy per Si atom -5572.533576 kJ/mol
# Density = 1.822614 g / cm^3
# Si number density = 18.267715 Si / 1000 Ang^3
#
#
#
# Elastic Constant Matrix: (Units=GPa)
#
#
# Indices 1 2 3 4 5 6 
#
# 1 76.4077 24.1204 18.4594 0.0000 -4.4705 0.0000
# 2 24.1204 116.1762 60.4847 0.0000 -15.7288 0.0000
# 3 18.4594 60.4847 137.5908 0.0000 0.7272 0.0000
# 4 0.0000 0.0000 0.0000 106.9402 0.0000 -7.0218
# 5 -4.4705 -15.7288 0.7272 0.0000 15.4676 0.0000
# 6 0.0000 0.0000 0.0000 -7.0218 0.0000 10.5211
#
#
#
# Elastic Compliance Matrix: (Units=1/GPa)
#
#
# Indices 1 2 3 4 5 6 
#
# 1 0.014116 -0.002180 -0.000945 0.000000 0.001907 0.000000
# 2 -0.002180 0.014048 -0.005957 0.000000 0.013935 0.000000
# 3 -0.000945 -0.005957 0.010049 0.000000 -0.006803 0.000000
# 4 0.000000 0.000000 0.000000 0.009780 0.000000 0.006527
# 5 0.001907 0.013935 -0.006803 0.000000 0.079693 0.000000
# 6 0.000000 0.000000 0.000000 0.006527 0.000000 0.099403
#
#
# Mechanical properties :
#
#
# Convention : Reuss Voigt Hill
#
# Bulk Modulus (GPa) = 49.87893 59.58929 54.73411
# Shear Modulus (GPa) = 19.84624 41.72648 30.78636
#
# Velocity S-wave (km/s) = 3.29965 4.78448 4.10968
# Velocity P-wave (km/s) = 6.47152 7.95063 7.24890
#
# Compressibility (1/GPa) = 0.02004855
#
# Stress axis : x y z
#
# Youngs Moduli (GPa) = 70.84178 71.18357 99.50973
#
# Poissons Ratio (x) = 0.15520 0.09408
# Poissons Ratio (y) = 0.15446 0.59275
# Poissons Ratio (z) = 0.06698 0.42402
#
# Static dielectric constant tensor:
#      x y z
#    x 1.649480 0.000000 -0.024500 
#    y 0.000000 1.660940 0.000000 
#    z -0.024500 0.000000 1.654860 
# 
# From -- ./inp_files/87896.got.cif
#   From: 2010.05.17/outbox.cif.g08.bks.cpg/sg15_44_cif.got.tgz:87896.got - 2010.06.03 18:47:42.
