data_PCOD9259097
_publ_section_title
;
Structure prediction by ZEFSAII (Michael W. Deem and Ramdas Pophale) SiO2 
 PCOD9259097
Probable space group: C 2/C
;
_chemical_formula_sum "Si O2"
_cell_formula_units_Z 64
_cell_length_a 11.839020
_cell_length_b 15.406520
_cell_length_c 20.144926
_cell_angle_alpha 90.000000
_cell_angle_beta 135.476310
_cell_angle_gamma 90.000000
_cell_volume 2576.501717
_symmetry_space_group_name_H-M "C 2/C"
_symmetry_group_IT_number 15
_symmetry_cell_setting 'monoclinic'
loop_
_space_group_symop_operation_xyz
x,y,z
-x,y,1/2-z
-x,-y,-z
x,-y,1/2+z
1/2+x,1/2+y,z
1/2-x,1/2+y,1/2-z
1/2-x,1/2-y,-z
1/2+x,1/2-y,1/2+z
loop_
_atom_site_type_symbol
_atom_site_label
_atom_site_fract_x
_atom_site_fract_y
_atom_site_fract_z
Si Si1 0.366733 0.929570 0.546268
Si Si2 0.363000 0.833525 0.915437
Si Si3 0.105183 0.132810 0.576197
Si Si4 0.773314 0.884572 0.514883
Si Si5 0.329708 0.315202 0.123546
Si Si6 0.369393 0.668360 0.292911
Si Si7 0.244297 0.880952 0.621651
Si Si8 0.798308 0.153637 0.747225
O O1 0.523848 0.905559 0.570450
O O2 0.250032 0.851326 0.475624
O O3 0.374178 0.927347 0.629386
O O4 0.275876 0.017227 0.489986
O O5 0.418648 0.736064 0.921239
O O6 0.348693 0.833384 0.988711
O O7 0.192576 0.847475 0.807111
O O8 0.224788 0.126564 0.563545
O O9 0.178032 0.097587 0.675936
O O10 0.933910 0.094431 0.481090
O O11 0.949903 0.856720 0.613561
O O12 0.271614 0.220985 0.119917
O O13 0.519601 0.311848 0.189975
O O14 0.269654 0.377844 0.159619
O O15 0.262949 0.614734 0.302123
O O16 0.327227 0.769945 0.288471
#
# Coordination Sequence:
#
# PCOD9259097 Si02
#       8
#     8   8   8   8   8   8   8   8
#     4  12  23  37  65  93 132 163 206 266 330 383
#     4  11  22  42  65  87 118 176 222 260 306 387
#     4  10  19  37  64  89 120 161 213 267 311 375
#     4  11  25  41  58  92 130 172 213 257 325 389
#     4  10  18  34  59  98 128 153 210 270 315 378
#     4   9  21  38  63  89 120 160 210 267 311 377
#     4  10  18  35  62  96 122 153 206 262 328 368
#     4   9  18  34  60  92 120 155 208 267 314 363
#
# _framework density 24.839883
#
# number of rings (size 3 to 8) (size 9 to 14) (size 15 to 20)
#    0.000    1.750    2.500    3.000    0.000    3.500 
#    4.500    0.000    0.000    1.500    0.000    0.000 
#    0.000    0.000    0.000    0.000    0.000    0.000 
#
# Total GULP energy -178614.632678 kJ/mol
# GULP energy per Si atom -5581.707271 kJ/mol
# Density = 2.478335 g / cm^3
# Si number density = 24.839883 Si / 1000 Ang^3
#
#
#
# Elastic Constant Matrix: (Units=GPa)
#
#
# Indices 1 2 3 4 5 6 
#
# 1 127.5368 2.4204 38.3198 0.0000 -40.8636 0.0000
# 2 2.4204 51.8615 2.4938 0.0000 10.1202 0.0000
# 3 38.3198 2.4938 82.6434 0.0000 -18.3473 0.0000
# 4 0.0000 0.0000 0.0000 -0.1970 0.0000 6.2415
# 5 -40.8636 10.1202 -18.3473 0.0000 50.1548 0.0000
# 6 0.0000 0.0000 0.0000 6.2415 0.0000 28.2745
#
#
#
# Elastic Compliance Matrix: (Units=1/GPa)
#
#
# Indices 1 2 3 4 5 6 
#
# 1 0.011697 -0.002077 -0.003431 0.000000 0.008694 0.000000
# 2 -0.002077 0.020647 -0.001045 0.000000 -0.006241 0.000000
# 3 -0.003431 -0.001045 0.014311 0.000000 0.002651 0.000000
# 4 0.000000 0.000000 0.000000 -0.634988 0.000000 0.140172
# 5 0.008694 -0.006241 0.002651 0.000000 0.029251 0.000000
# 6 0.000000 0.000000 0.000000 0.140172 0.000000 0.004425
#
#
# Mechanical properties :
#
#
# Convention : Reuss Voigt Hill
#
# Bulk Modulus (GPa) = 29.80809 38.72331 34.26570
# Shear Modulus (GPa) = -9.42743 30.23363 10.40310
#
# Velocity S-wave (km/s) = -1.95026 3.49254 2.04870
# Velocity P-wave (km/s) = 2.63719 5.64684 4.40690
#
# Compressibility (1/GPa) = 0.03354794
#
# Stress axis : x y z
#
# Youngs Moduli (GPa) = 85.49392 48.43261 69.87645
#
# Poissons Ratio (x) = 0.10062 0.23972
# Poissons Ratio (y) = 0.17761 0.07305
# Poissons Ratio (z) = 0.29330 0.05063
#
# Static dielectric constant tensor:
#      x y z
#    x 2.017610 0.000000 -0.037900 
#    y 0.000000 1.981510 0.000000 
#    z -0.037900 0.000000 2.046260 
# 
# From -- ./inp_files/239845.got.cif
#   From: 2010.05.17/outbox.cif.g08.bks.cpg/sg15_120_cif.got.tgz:239845.got - 2010.06.03 18:47:42.
