data_PCOD9259693
_publ_section_title
;
Structure prediction by ZEFSAII (Michael W. Deem and Ramdas Pophale) SiO2 
 PCOD9259693
Probable space group: C 2/C
;
_chemical_formula_sum "Si O2"
_cell_formula_units_Z 48
_cell_length_a 7.932844
_cell_length_b 26.130422
_cell_length_c 15.698968
_cell_angle_alpha 90.000000
_cell_angle_beta 138.619847
_cell_angle_gamma 90.000000
_cell_volume 2151.206290
_symmetry_space_group_name_H-M "C 2/C"
_symmetry_group_IT_number 15
_symmetry_cell_setting 'monoclinic'
loop_
_space_group_symop_operation_xyz
x,y,z
-x,y,1/2-z
-x,-y,-z
x,-y,1/2+z
1/2+x,1/2+y,z
1/2-x,1/2+y,1/2-z
1/2-x,1/2-y,-z
1/2+x,1/2-y,1/2+z
loop_
_atom_site_type_symbol
_atom_site_label
_atom_site_fract_x
_atom_site_fract_y
_atom_site_fract_z
Si Si1 0.661795 0.373893 0.890689
Si Si2 0.161832 0.154946 0.682935
Si Si3 0.120347 0.961653 0.198391
Si Si4 0.575199 0.709448 0.484502
Si Si5 0.857576 0.690866 0.937684
Si Si6 0.864651 0.520168 0.534139
O O1 0.500000 0.394587 0.750000
O O2 0.505303 0.336720 0.894832
O O3 0.791187 0.420499 0.990457
O O4 0.880523 0.336378 0.936750
O O5 0.172981 0.094271 0.681223
O O6 0.219922 0.183955 0.618236
O O7 0.312303 0.173748 0.822776
O O8 0.869651 0.168410 0.594012
O O9 0.401671 0.986469 0.311656
O O10 0.000000 0.956359 0.250000
O O11 0.903081 0.990336 0.062027
O O12 0.750000 0.750000 0.500000
O O13 0.361220 0.747698 0.439192
O O14 0.000000 0.500000 0.500000
#
# Coordination Sequence:
#
# PCOD9259693 Si02
#       6
#     8   8   8   8   8   8
#     4  11  22  39  58  91 129 166 213 266 321 385
#     4  11  20  41  67  92 128 165 221 266 321 395
#     4  10  18  35  63  97 126 170 219 268 328 388
#     4  10  25  38  61  93 127 171 213 265 326 386
#     4  10  21  39  65  91 123 167 217 262 327 381
#     4  10  19  35  62  95 125 171 220 267 323 392
#
# _framework density 22.313063
#
# number of rings (size 3 to 8) (size 9 to 14) (size 15 to 20)
#    0.000    1.667    3.333    3.000    4.667    2.000 
#    0.000    0.833    0.000    2.000    0.000    0.000 
#    0.000    0.000    0.000    0.000    0.000    0.000 
#
# Total GULP energy -134006.969634 kJ/mol
# GULP energy per Si atom -5583.623735 kJ/mol
# Density = 2.226228 g / cm^3
# Si number density = 22.313063 Si / 1000 Ang^3
#
#
#
# Elastic Constant Matrix: (Units=GPa)
#
#
# Indices 1 2 3 4 5 6 
#
# 1 48.5389 11.2376 37.9394 0.0000 -1.8252 0.0000
# 2 11.2376 114.4174 33.7523 0.0000 10.3393 0.0000
# 3 37.9394 33.7523 115.1340 0.0000 24.4991 0.0000
# 4 0.0000 0.0000 0.0000 37.9650 0.0000 -4.1773
# 5 -1.8252 10.3393 24.4991 0.0000 36.5969 0.0000
# 6 0.0000 0.0000 0.0000 -4.1773 0.0000 4.3163
#
#
#
# Elastic Compliance Matrix: (Units=1/GPa)
#
#
# Indices 1 2 3 4 5 6 
#
# 1 0.030392 -0.000324 -0.011967 0.000000 0.009618 0.000000
# 2 -0.000324 0.009600 -0.002480 0.000000 -0.001068 0.000000
# 3 -0.011967 -0.002480 0.015549 0.000000 -0.010305 0.000000
# 4 0.000000 0.000000 0.000000 0.029479 0.000000 0.028530
# 5 0.009618 -0.001068 -0.010305 0.000000 0.035004 0.000000
# 6 0.000000 0.000000 0.000000 0.028530 0.000000 0.259293
#
#
# Mechanical properties :
#
#
# Convention : Reuss Voigt Hill
#
# Bulk Modulus (GPa) = 38.46306 49.32766 43.89536
# Shear Modulus (GPa) = 11.97532 28.78637 20.38085
#
# Velocity S-wave (km/s) = 2.31918 3.59571 3.02554
# Velocity P-wave (km/s) = 4.94437 6.27646 5.64981
#
# Compressibility (1/GPa) = 0.02599897
#
# Stress axis : x y z
#
# Youngs Moduli (GPa) = 32.90331 104.16751 64.31444
#
# Poissons Ratio (x) = 0.03376 0.76962
# Poissons Ratio (y) = 0.01066 0.15952
# Poissons Ratio (z) = 0.39374 0.25836
#
# Static dielectric constant tensor:
#      x y z
#    x 1.885900 0.000000 0.013730 
#    y 0.000000 1.826590 0.000000 
#    z 0.013730 0.000000 1.849900 
# 
# From -- ./inp_files/139036.got.cif
#   From: 2010.05.17/outbox.cif.g08.bks.cpg/sg15_70_cif.got.tgz:139036.got - 2010.06.03 18:47:42.
