data_PCOD9259917
_publ_section_title
;
Structure prediction by ZEFSAII (Michael W. Deem and Ramdas Pophale) SiO2 
 PCOD9259917
Probable space group: C 2/C
;
_chemical_formula_sum "Si O2"
_cell_formula_units_Z 36
_cell_length_a 8.978005
_cell_length_b 19.228631
_cell_length_c 16.529864
_cell_angle_alpha 90.000000
_cell_angle_beta 38.273147
_cell_angle_gamma 90.000000
_cell_volume 1767.569563
_symmetry_space_group_name_H-M "C 2/C"
_symmetry_group_IT_number 15
_symmetry_cell_setting 'monoclinic'
loop_
_space_group_symop_operation_xyz
x,y,z
-x,y,1/2-z
-x,-y,-z
x,-y,1/2+z
1/2+x,1/2+y,z
1/2-x,1/2+y,1/2-z
1/2-x,1/2-y,-z
1/2+x,1/2-y,1/2+z
loop_
_atom_site_type_symbol
_atom_site_label
_atom_site_fract_x
_atom_site_fract_y
_atom_site_fract_z
Si Si1 0.520545 0.325590 0.023854
Si Si2 0.111557 0.575968 0.451473
Si Si3 0.590896 0.365997 0.818816
Si Si4 0.726689 0.679263 0.601211
Si Si5 0.500000 0.767824 0.250000
O O1 0.620111 0.355323 0.065320
O O2 0.234184 0.315493 0.141077
O O3 0.622336 0.362160 0.900832
O O4 0.615600 0.246435 0.984271
O O5 0.192869 0.603085 0.327276
O O6 0.354480 0.588639 0.398412
O O7 0.000000 0.500000 0.500000
O O8 0.901726 0.626521 0.571509
O O9 0.538838 0.287279 0.807547
O O10 0.500000 0.701537 0.750000
#
# Coordination Sequence:
#
# PCOD9259917 Si02
#       5
#     8   8   8   8   4
#     4  11  22  37  62  97 128 150 204 257 321 372
#     4  10  23  43  62  84 121 172 212 248 303 367
#     4  10  21  39  65  90 121 167 204 250 309 373
#     4  11  24  36  61  94 125 162 196 263 316 366
#     4  10  18  36  58  94 128 158 184 242 322 386
#
# _framework density 20.366948000000001
#
# number of rings (size 3 to 8) (size 9 to 14) (size 15 to 20)
#    0.000    1.778    4.444    2.000    9.333    0.000 
#    0.000    1.111    4.889    0.000    0.000    0.000 
#    0.000    0.000    0.000    0.000    0.000    0.000 
#
# Total GULP energy -100484.903732 kJ/mol
# GULP energy per Si atom -5582.494652 kJ/mol
# Density = 2.032059 g / cm^3
# Si number density = 20.366948 Si / 1000 Ang^3
#
#
#
# Elastic Constant Matrix: (Units=GPa)
#
#
# Indices 1 2 3 4 5 6 
#
# 1 53.5707 -9.8187 32.2179 0.0003 9.1955 0.0000
# 2 -9.8187 36.9668 -12.3297 -0.0001 -16.3657 -0.0001
# 3 32.2179 -12.3297 59.8500 0.0003 -14.4974 -0.0009
# 4 0.0003 -0.0001 0.0003 21.9150 -0.0001 -9.8147
# 5 9.1955 -16.3657 -14.4974 -0.0001 47.3937 0.0002
# 6 0.0000 -0.0001 -0.0009 -9.8147 0.0002 12.4825
#
#
#
# Elastic Compliance Matrix: (Units=1/GPa)
#
#
# Indices 1 2 3 4 5 6 
#
# 1 0.034575 -0.005763 -0.023659 -0.000001 -0.015935 -0.000003
# 2 -0.005763 0.039582 0.016025 0.000001 0.019688 0.000002
# 3 -0.023659 0.016025 0.038015 0.000002 0.021753 0.000004
# 4 -0.000001 0.000001 0.000002 0.070433 0.000001 0.055380
# 5 -0.015935 0.019688 0.021753 0.000001 0.037644 0.000002
# 6 -0.000003 0.000002 0.000004 0.055380 0.000002 0.123656
#
#
# Mechanical properties :
#
#
# Convention : Reuss Voigt Hill
#
# Bulk Modulus (GPa) = 11.71248 18.94741 15.32994
# Shear Modulus (GPa) = 12.52639 25.71277 19.11958
#
# Velocity S-wave (km/s) = 2.48268 3.55699 3.06724
# Velocity P-wave (km/s) = 3.73918 5.11789 4.48187
#
# Compressibility (1/GPa) = 0.08537904
#
# Stress axis : x y z
#
# Youngs Moduli (GPa) = 28.92276 25.26402 26.30550
#
# Poissons Ratio (x) = 0.14559 0.62237
# Poissons Ratio (y) = 0.16667 -0.42156
# Poissons Ratio (z) = 0.68429 -0.40487
#
# Static dielectric constant tensor:
#      x y z
#    x 1.789600 0.000000 0.042050 
#    y 0.000000 1.692180 0.000000 
#    z 0.042050 0.000000 1.732020 
# 
# From -- ./inp_files/77010.got.cif
#   From: 2010.05.17/outbox.cif.g08.bks.cpg/sg15_39_cif.got.tgz:77010.got - 2010.06.03 18:47:42.
