data_PCOD9259791
_publ_section_title
;
Structure prediction by ZEFSAII (Michael W. Deem and Ramdas Pophale) SiO2 
 PCOD9259791
Probable space group: C 2/C
;
_chemical_formula_sum "Si O2"
_cell_formula_units_Z 60
_cell_length_a 11.606138
_cell_length_b 21.654571
_cell_length_c 13.150190
_cell_angle_alpha 90.000000
_cell_angle_beta 78.367869
_cell_angle_gamma 90.000000
_cell_volume 3237.107196
_symmetry_space_group_name_H-M "C 2/C"
_symmetry_group_IT_number 15
_symmetry_cell_setting 'monoclinic'
loop_
_space_group_symop_operation_xyz
x,y,z
-x,y,1/2-z
-x,-y,-z
x,-y,1/2+z
1/2+x,1/2+y,z
1/2-x,1/2+y,1/2-z
1/2-x,1/2-y,-z
1/2+x,1/2-y,1/2+z
loop_
_atom_site_type_symbol
_atom_site_label
_atom_site_fract_x
_atom_site_fract_y
_atom_site_fract_z
Si Si1 0.224079 0.225213 0.674124
Si Si2 0.371101 0.450039 0.115936
Si Si3 0.771574 0.581548 0.677745
Si Si4 0.088200 0.212575 0.485348
Si Si5 0.500000 0.899707 0.250000
Si Si6 0.842953 0.734392 0.102690
Si Si7 0.190860 0.653433 0.566378
Si Si8 0.870532 0.074784 0.989996
O O1 0.241891 0.154018 0.703011
O O2 0.149894 0.226229 0.583192
O O3 0.350970 0.250181 0.616526
O O4 0.159178 0.263233 0.774455
O O5 0.319790 0.455421 0.237371
O O6 0.288736 0.399316 0.072317
O O7 0.506204 0.428978 0.093323
O O8 0.365116 0.515671 0.062179
O O9 0.740700 0.573087 0.565776
O O10 0.900025 0.566909 0.699647
O O11 0.116188 0.140908 0.458929
O O12 0.955080 0.232094 0.531219
O O13 0.423987 0.863784 0.348358
O O14 0.735166 0.780244 0.097886
O O15 0.830548 0.668505 0.048915
#
# Coordination Sequence:
#
# PCOD9259791 Si02
#       8
#     8   8   8   8   4   8   8   8
#     4  10  19  34  56  84 114 150 188 236 293 349
#     4  10  19  37  57  83 112 147 195 234 285 353
#     4  10  19  35  57  80 107 153 190 230 282 345
#     4  10  20  34  57  88 115 147 194 238 297 345
#     4  10  18  36  56  78 110 142 202 228 270 352
#     4  11  19  33  54  82 119 148 185 240 288 345
#     4  10  21  33  54  83 111 151 190 235 282 340
#     4  10  20  35  59  81 115 145 187 244 288 340
#
# _framework density 18.535066
#
# number of rings (size 3 to 8) (size 9 to 14) (size 15 to 20)
#    0.000    1.867    4.000    1.600    0.000    2.133 
#    2.400    2.667    0.000    0.000    0.000    0.000 
#    0.000    0.000    0.000    0.000    0.000    0.000 
#
# Total GULP energy -167057.588718 kJ/mol
# GULP energy per Si atom -5568.586291 kJ/mol
# Density = 1.849288 g / cm^3
# Si number density = 18.535066 Si / 1000 Ang^3
#
#
#
# Elastic Constant Matrix: (Units=GPa)
#
#
# Indices 1 2 3 4 5 6 
#
# 1 69.6356 12.8152 15.1750 0.0000 -7.7935 0.0000
# 2 12.8152 37.7199 24.4699 0.0000 -0.6203 0.0000
# 3 15.1750 24.4699 46.3148 0.0000 -14.9759 0.0000
# 4 0.0000 0.0000 0.0000 20.5605 0.0000 -1.7070
# 5 -7.7935 -0.6203 -14.9759 0.0000 29.3910 0.0000
# 6 0.0000 0.0000 0.0000 -1.7070 0.0000 16.2660
#
#
#
# Elastic Compliance Matrix: (Units=1/GPa)
#
#
# Indices 1 2 3 4 5 6 
#
# 1 0.015896 -0.003973 -0.002123 0.000000 0.003049 0.000000
# 2 -0.003973 0.045191 -0.027066 0.000000 -0.013891 0.000000
# 3 -0.002123 -0.027066 0.043365 0.000000 0.020962 0.000000
# 4 0.000000 0.000000 0.000000 0.049065 0.000000 0.005149
# 5 0.003049 -0.013891 0.020962 0.000000 0.045220 0.000000
# 6 0.000000 0.000000 0.000000 0.005149 0.000000 0.062018
#
#
# Mechanical properties :
#
#
# Convention : Reuss Voigt Hill
#
# Bulk Modulus (GPa) = 26.22784 28.73227 27.48006
# Shear Modulus (GPa) = 14.71507 19.99085 17.35296
#
# Velocity S-wave (km/s) = 2.82069 3.28768 3.06310
# Velocity P-wave (km/s) = 4.97890 5.47239 5.23147
#
# Compressibility (1/GPa) = 0.03812742
#
# Stress axis : x y z
#
# Youngs Moduli (GPa) = 62.91056 22.12836 23.06010
#
# Poissons Ratio (x) = 0.08792 0.04896
# Poissons Ratio (y) = 0.24995 0.62414
# Poissons Ratio (z) = 0.13356 0.59892
#
# Static dielectric constant tensor:
#      x y z
#    x 1.691100 0.000000 0.042360 
#    y 0.000000 1.632740 0.000000 
#    z 0.042360 0.000000 1.692070 
# 
# From -- ./inp_files/90768.got.cif
#   From: 2010.05.17/outbox.cif.g08.bks.cpg/sg15_46_cif.got.tgz:90768.got - 2010.06.03 18:47:42.
