data_PCOD9259179
_publ_section_title
;
Structure prediction by ZEFSAII (Michael W. Deem and Ramdas Pophale) SiO2 
 PCOD9259179
Probable space group: C 2/C
;
_chemical_formula_sum "Si O2"
_cell_formula_units_Z 64
_cell_length_a 9.659517
_cell_length_b 15.457411
_cell_length_c 26.366010
_cell_angle_alpha 90.000000
_cell_angle_beta 46.305467
_cell_angle_gamma 90.000000
_cell_volume 2846.392173
_symmetry_space_group_name_H-M "C 2/C"
_symmetry_group_IT_number 15
_symmetry_cell_setting 'monoclinic'
loop_
_space_group_symop_operation_xyz
x,y,z
-x,y,1/2-z
-x,-y,-z
x,-y,1/2+z
1/2+x,1/2+y,z
1/2-x,1/2+y,1/2-z
1/2-x,1/2-y,-z
1/2+x,1/2-y,1/2+z
loop_
_atom_site_type_symbol
_atom_site_label
_atom_site_fract_x
_atom_site_fract_y
_atom_site_fract_z
Si Si1 0.047715 0.923881 0.152826
Si Si2 0.719267 0.129433 0.053981
Si Si3 0.878841 0.378368 0.332901
Si Si4 0.091874 0.373626 0.383857
Si Si5 0.750790 0.040613 0.483980
Si Si6 0.227081 0.472553 0.699709
Si Si7 0.090626 0.830681 0.894362
Si Si8 0.968846 0.774996 0.092255
O O1 0.190385 0.902493 0.162286
O O2 0.009712 0.833579 0.132084
O O3 0.166725 0.989331 0.085510
O O4 0.843182 0.971203 0.212092
O O5 0.750272 0.142891 0.104946
O O6 0.523027 0.175670 0.087074
O O7 0.887052 0.186346 0.985829
O O8 0.744265 0.032938 0.028650
O O9 0.740581 0.461055 0.356470
O O10 0.744278 0.295278 0.371729
O O11 0.000000 0.368693 0.250000
O O12 0.001966 0.393232 0.351620
O O13 0.075123 0.270646 0.394443
O O14 0.959690 0.417975 0.460683
O O15 0.896373 0.119254 0.458028
O O16 0.328578 0.380265 0.674999
O O17 0.000000 0.459824 0.750000
#
# Coordination Sequence:
#
# PCOD9259179 Si02
#       8
#     8   8   8   8   8   8   8   8
#     4   9  19  38  62  91 128 160 202 255 316 383
#     4  10  18  34  61  88 120 165 210 245 308 375
#     4  10  22  42  65  83 120 167 215 259 316 371
#     4  12  22  38  60  97 129 162 205 262 321 377
#     4  10  21  35  59  96 135 168 195 251 326 389
#     4   9  20  43  64  82 115 164 211 260 306 370
#     4  11  21  36  60  94 127 161 210 255 305 382
#     4   9  18  36  59  88 120 161 205 256 303 372
#
# _framework density 22.484603
#
# number of rings (size 3 to 8) (size 9 to 14) (size 15 to 20)
#    0.000    2.000    1.250    3.375    0.000    0.000 
#    6.750    5.625    0.000    0.000    0.000    0.000 
#    0.000    0.000    0.000    0.000    0.000    0.000 
#
# Total GULP energy -178428.968565 kJ/mol
# GULP energy per Si atom -5575.905268 kJ/mol
# Density = 2.243343 g / cm^3
# Si number density = 22.484603 Si / 1000 Ang^3
#
#
#
# Elastic Constant Matrix: (Units=GPa)
#
#
# Indices 1 2 3 4 5 6 
#
# 1 123.1774 24.6098 19.7940 0.0001 -16.4629 0.0000
# 2 24.6098 96.8113 24.9719 0.0001 -8.4081 -0.0001
# 3 19.7940 24.9719 60.5428 0.0002 -23.6043 -0.0002
# 4 0.0001 0.0001 0.0002 17.5091 -0.0002 -17.3059
# 5 -16.4629 -8.4081 -23.6043 -0.0002 32.7256 0.0001
# 6 0.0000 -0.0001 -0.0002 -17.3059 0.0001 21.8222
#
#
#
# Elastic Compliance Matrix: (Units=1/GPa)
#
#
# Indices 1 2 3 4 5 6 
#
# 1 0.009080 -0.001779 -0.000879 0.000000 0.003476 0.000000
# 2 -0.001779 0.011918 -0.004854 0.000000 -0.001334 0.000000
# 3 -0.000879 -0.004854 0.025248 0.000000 0.016522 0.000000
# 4 0.000000 0.000000 0.000000 0.264215 0.000001 0.209533
# 5 0.003476 -0.001334 0.016522 0.000001 0.043880 0.000001
# 6 0.000000 0.000000 0.000000 0.209533 0.000001 0.211994
#
#
# Mechanical properties :
#
#
# Convention : Reuss Voigt Hill
#
# Bulk Modulus (GPa) = 32.03054 46.58698 39.30876
# Shear Modulus (GPa) = 8.44928 28.48844 18.46886
#
# Velocity S-wave (km/s) = 1.94061 3.56338 2.86912
# Velocity P-wave (km/s) = 4.39292 6.13961 5.33819
#
# Compressibility (1/GPa) = 0.03122021
#
# Stress axis : x y z
#
# Youngs Moduli (GPa) = 110.13470 83.90716 39.60657
#
# Poissons Ratio (x) = 0.14930 0.03483
# Poissons Ratio (y) = 0.19597 0.19226
# Poissons Ratio (z) = 0.09684 0.40730
#
# Static dielectric constant tensor:
#      x y z
#    x 1.870460 0.000000 -0.001410 
#    y 0.000000 1.861010 0.000000 
#    z -0.001410 0.000000 1.922910 
# 
# From -- ./inp_files/308264.got.cif
#   From: 2010.05.17/outbox.cif.g08.bks.cpg/sg15_155_cif.got.tgz:308264.got - 2010.06.03 18:47:42.
