data_PCOD9259432
_publ_section_title
;
Structure prediction by ZEFSAII (Michael W. Deem and Ramdas Pophale) SiO2 
 PCOD9259432
Probable space group: C 2/C
;
_chemical_formula_sum "Si O2"
_cell_formula_units_Z 52
_cell_length_a 21.743842
_cell_length_b 13.244223
_cell_length_c 6.710854
_cell_angle_alpha 90.000000
_cell_angle_beta 78.905374
_cell_angle_gamma 90.000000
_cell_volume 1896.474906
_symmetry_space_group_name_H-M "C 2/C"
_symmetry_group_IT_number 15
_symmetry_cell_setting 'monoclinic'
loop_
_space_group_symop_operation_xyz
x,y,z
-x,y,1/2-z
-x,-y,-z
x,-y,1/2+z
1/2+x,1/2+y,z
1/2-x,1/2+y,1/2-z
1/2-x,1/2-y,-z
1/2+x,1/2-y,1/2+z
loop_
_atom_site_type_symbol
_atom_site_label
_atom_site_fract_x
_atom_site_fract_y
_atom_site_fract_z
Si Si1 0.415636 0.187623 0.974488
Si Si2 0.158528 0.506800 0.996469
Si Si3 0.080885 0.881044 0.021994
Si Si4 0.500000 0.541625 0.250000
Si Si5 0.725334 0.126667 0.730914
Si Si6 0.552119 0.162311 0.016293
Si Si7 0.670184 0.340229 0.634187
O O1 0.476787 0.162902 0.066801
O O2 0.434067 0.171484 0.730439
O O3 0.385117 0.298831 0.976129
O O4 0.359475 0.110787 0.056457
O O5 0.218414 0.592265 0.960841
O O6 0.091820 0.565904 0.055608
O O7 0.174282 0.463936 0.221044
O O8 0.081116 0.765588 0.090651
O O9 0.140554 0.895402 0.842631
O O10 0.060602 0.969703 0.181131
O O11 0.019015 0.888196 0.919275
O O12 0.702893 0.239388 0.704961
O O13 0.781195 0.107819 0.544349
#
# Coordination Sequence:
#
# PCOD9259432 Si02
#       7
#     8   8   8   4   8   8   8
#     4   9  18  32  58  84 115 156 199 236 301 366
#     4  11  18  36  52  90 118 155 198 243 293 361
#     4  10  19  38  57  80 112 144 193 242 302 348
#     4  10  22  34  58  86 108 142 192 252 294 360
#     4  10  21  34  60  81 119 159 204 240 289 354
#     4  10  18  35  57  84 119 157 186 244 311 366
#     4   9  18  38  58  79 109 168 196 236 291 356
#
# _framework density 27.419291000000001
#
# number of rings (size 3 to 8) (size 9 to 14) (size 15 to 20)
#    0.000    2.154    4.615    2.308    0.000    1.231 
#    2.769    0.000    0.000    8.308    0.000    0.000 
#    0.000    0.000    0.000    0.000    0.000    0.000 
#
# Total GULP energy -144974.593350 kJ/mol
# GULP energy per Si atom -5575.945898 kJ/mol
# Density = 2.735688 g / cm^3
# Si number density = 27.419291 Si / 1000 Ang^3
#
#
#
# Elastic Constant Matrix: (Units=GPa)
#
#
# Indices 1 2 3 4 5 6 
#
# 1 69.3330 28.9362 33.2247 0.0000 -29.2470 0.0000
# 2 28.9362 109.2348 24.8620 0.0000 -17.5603 0.0000
# 3 33.2247 24.8620 109.1913 0.0000 -46.8321 0.0000
# 4 0.0000 0.0000 0.0000 47.6541 0.0000 -8.2197
# 5 -29.2470 -17.5603 -46.8321 0.0000 67.0816 0.0000
# 6 0.0000 0.0000 0.0000 -8.2197 0.0000 35.0444
#
#
#
# Elastic Compliance Matrix: (Units=1/GPa)
#
#
# Indices 1 2 3 4 5 6 
#
# 1 0.019664 -0.003675 -0.002686 0.000000 0.005736 0.000000
# 2 -0.003675 0.010437 -0.001104 0.000000 0.000359 0.000000
# 3 -0.002686 -0.001104 0.013704 0.000000 0.008107 0.000000
# 4 0.000000 0.000000 0.000000 0.021869 0.000000 0.005130
# 5 0.005736 0.000359 0.008107 0.000000 0.023162 0.000000
# 6 0.000000 0.000000 0.000000 0.005130 0.000000 0.029738
#
#
# Mechanical properties :
#
#
# Convention : Reuss Voigt Hill
#
# Bulk Modulus (GPa) = 34.63418 51.31165 42.97291
# Shear Modulus (GPa) = 34.93291 43.33841 39.13566
#
# Velocity S-wave (km/s) = 3.57322 3.97997 3.78207
# Velocity P-wave (km/s) = 5.44818 6.31463 5.89734
#
# Compressibility (1/GPa) = 0.02887321
#
# Stress axis : x y z
#
# Youngs Moduli (GPa) = 50.85439 95.81095 72.97022
#
# Poissons Ratio (x) = 0.35215 0.19603
# Poissons Ratio (y) = 0.18691 0.08057
# Poissons Ratio (z) = 0.13662 0.10579
#
# Static dielectric constant tensor:
#      x y z
#    x 2.215480 0.000000 0.089460 
#    y 0.000000 2.061010 0.000000 
#    z 0.089460 0.000000 2.322660 
# 
# From -- ./inp_files/65093.got.cif
#   From: 2010.05.17/outbox.cif.g08.bks.cpg/sg15_33_cif.got.tgz:65093.got - 2010.06.03 18:47:42.
