data_PCOD9259309
_publ_section_title
;
Structure prediction by ZEFSAII (Michael W. Deem and Ramdas Pophale) SiO2 
 PCOD9259309
Probable space group: C 2/C
;
_chemical_formula_sum "Si O2"
_cell_formula_units_Z 48
_cell_length_a 12.787720
_cell_length_b 12.061053
_cell_length_c 13.700019
_cell_angle_alpha 90.000000
_cell_angle_beta 97.793009
_cell_angle_gamma 90.000000
_cell_volume 2093.485242
_symmetry_space_group_name_H-M "C 2/C"
_symmetry_group_IT_number 15
_symmetry_cell_setting 'monoclinic'
loop_
_space_group_symop_operation_xyz
x,y,z
-x,y,1/2-z
-x,-y,-z
x,-y,1/2+z
1/2+x,1/2+y,z
1/2-x,1/2+y,1/2-z
1/2-x,1/2-y,-z
1/2+x,1/2-y,1/2+z
loop_
_atom_site_type_symbol
_atom_site_label
_atom_site_fract_x
_atom_site_fract_y
_atom_site_fract_z
Si Si1 0.930740 0.534507 0.620677
Si Si2 0.900084 0.028384 0.421031
Si Si3 0.954947 0.257358 0.435040
Si Si4 0.784186 0.565826 0.950404
Si Si5 0.570302 0.295940 0.159668
Si Si6 0.344317 0.932732 0.794683
O O1 0.876967 0.503501 0.513732
O O2 0.847706 0.488253 0.689136
O O3 0.968179 0.661100 0.616065
O O4 0.037079 0.466826 0.655744
O O5 0.933066 0.143459 0.375492
O O6 0.810803 0.064215 0.487034
O O7 0.882433 0.917061 0.357407
O O8 0.000000 0.000000 0.500000
O O9 0.842443 0.319663 0.433735
O O10 0.005327 0.237545 0.551019
O O11 0.760624 0.496424 0.850398
O O12 0.500000 0.300012 0.250000
O O13 0.655658 0.199253 0.193233
#
# Coordination Sequence:
#
# PCOD9259309 Si02
#       6
#     8   8   8   8   8   8
#     4  10  18  35  67  96 116 151 207 261 304 351
#     4  10  25  40  57  83 128 170 195 246 316 365
#     4  10  19  40  65  87 122 161 201 253 311 368
#     4  11  19  38  65  91 118 157 212 253 303 359
#     4  11  19  39  62  85 126 166 200 245 314 372
#     4  10  18  34  66  96 118 147 208 259 302 356
#
# _framework density 22.928272
#
# number of rings (size 3 to 8) (size 9 to 14) (size 15 to 20)
#    0.000    1.667    5.000    1.500    0.000    0.667 
#   12.000    0.000    7.333    0.000    0.000    0.000 
#    0.000    0.000    0.000    0.000    0.000    0.000 
#
# Total GULP energy -133803.661634 kJ/mol
# GULP energy per Si atom -5575.152568 kJ/mol
# Density = 2.287609 g / cm^3
# Si number density = 22.928272 Si / 1000 Ang^3
#
#
#
# Elastic Constant Matrix: (Units=GPa)
#
#
# Indices 1 2 3 4 5 6 
#
# 1 35.3255 16.9748 -2.9179 0.0000 11.3496 0.0000
# 2 16.9748 224.1897 40.6360 0.0000 -15.4740 0.0000
# 3 -2.9179 40.6360 93.1666 0.0000 -8.9425 0.0000
# 4 0.0000 0.0000 0.0000 12.5443 0.0000 -5.9811
# 5 11.3496 -15.4740 -8.9425 0.0000 10.2929 0.0000
# 6 0.0000 0.0000 0.0000 -5.9811 0.0000 14.5295
#
#
#
# Elastic Compliance Matrix: (Units=1/GPa)
#
#
# Indices 1 2 3 4 5 6 
#
# 1 0.058900 -0.009750 -0.001684 0.000000 -0.081068 0.000000
# 2 -0.009750 0.006815 -0.001377 0.000000 0.019800 0.000000
# 3 -0.001684 -0.001377 0.012285 0.000000 0.010460 0.000000
# 4 0.000000 0.000000 0.000000 0.099185 0.000000 0.040830
# 5 -0.081068 0.019800 0.010460 0.000000 0.225399 0.000000
# 6 0.000000 0.000000 0.000000 0.040830 0.000000 0.085633
#
#
# Mechanical properties :
#
#
# Convention : Reuss Voigt Hill
#
# Bulk Modulus (GPa) = 19.09189 51.34086 35.21637
# Shear Modulus (GPa) = 9.41088 27.33927 18.37507
#
# Velocity S-wave (km/s) = 2.02815 3.45684 2.83400
# Velocity P-wave (km/s) = 3.71879 6.19463 5.10896
#
# Compressibility (1/GPa) = 0.05237827
#
# Stress axis : x y z
#
# Youngs Moduli (GPa) = 16.97783 146.73480 81.39715
#
# Poissons Ratio (x) = 1.43066 0.13707
# Poissons Ratio (y) = 0.16553 0.11211
# Poissons Ratio (z) = 0.02859 0.20211
#
# Static dielectric constant tensor:
#      x y z
#    x 1.874620 0.000000 -0.036150 
#    y 0.000000 1.912850 0.000000 
#    z -0.036150 0.000000 2.233360 
# 
# From -- ./inp_files/152026.got.cif
#   From: 2010.05.17/outbox.cif.g08.bks.cpg/sg15_77_cif.got.tgz:152026.got - 2010.06.03 18:47:42.
