data_PCOD9259225
_publ_section_title
;
Structure prediction by ZEFSAII (Michael W. Deem and Ramdas Pophale) SiO2 
 PCOD9259225
Probable space group: C 2/C
;
_chemical_formula_sum "Si O2"
_cell_formula_units_Z 60
_cell_length_a 9.221101
_cell_length_b 22.751151
_cell_length_c 19.932837
_cell_angle_alpha 90.000000
_cell_angle_beta 50.843941
_cell_angle_gamma 90.000000
_cell_volume 3242.629216
_symmetry_space_group_name_H-M "C 2/C"
_symmetry_group_IT_number 15
_symmetry_cell_setting 'monoclinic'
loop_
_space_group_symop_operation_xyz
x,y,z
-x,y,1/2-z
-x,-y,-z
x,-y,1/2+z
1/2+x,1/2+y,z
1/2-x,1/2+y,1/2-z
1/2-x,1/2-y,-z
1/2+x,1/2-y,1/2+z
loop_
_atom_site_type_symbol
_atom_site_label
_atom_site_fract_x
_atom_site_fract_y
_atom_site_fract_z
Si Si1 0.531758 0.770557 0.392344
Si Si2 0.000000 0.288547 0.250000
Si Si3 0.821317 0.506032 0.756062
Si Si4 0.841120 0.845270 0.988099
Si Si5 0.850788 0.875523 0.132719
Si Si6 0.478208 0.572582 0.330896
Si Si7 0.846665 0.146423 0.852129
Si Si8 0.340764 0.023386 0.595822
O O1 0.524879 0.756668 0.314322
O O2 0.368655 0.819082 0.451207
O O3 0.473557 0.712063 0.448365
O O4 0.724140 0.798958 0.361866
O O5 0.819359 0.330262 0.307979
O O6 0.710546 0.563662 0.814647
O O7 0.677491 0.451890 0.797203
O O8 0.888720 0.517039 0.660287
O O9 0.000000 0.496448 0.750000
O O10 0.885996 0.883936 0.910536
O O11 0.873744 0.881691 0.046409
O O12 0.032491 0.848671 0.115648
O O13 0.500000 0.598891 0.250000
O O14 0.343580 0.516104 0.361680
O O15 0.711425 0.090848 0.900733
O O16 0.000000 0.132338 0.750000
O O17 0.500000 0.000000 0.500000
#
# Coordination Sequence:
#
# PCOD9259225 Si02
#       8
#     8   4   8   8   8   8   8   8
#     4  10  22  39  62  88 122 154 212 256 302 361
#     4  10  18  34  62  90 106 158 198 248 300 352
#     4  11  22  37  59  88 123 160 198 252 303 377
#     4  10  24  41  58  91 119 162 206 255 302 367
#     4  11  21  35  63  89 120 152 204 251 305 354
#     4  10  22  41  59  85 125 164 198 244 314 376
#     4  12  20  38  61  92 122 160 201 259 302 367
#     4  11  22  36  59  93 121 158 200 246 312 368
#
# _framework density 18.503502999999998
#
# number of rings (size 3 to 8) (size 9 to 14) (size 15 to 20)
#    0.000    1.333    4.667    1.200    4.667    2.133 
#    0.000    0.667    0.000    0.000    0.000    0.000 
#    0.000    0.000    0.000    0.000    0.000    0.000 
#
# Total GULP energy -167517.524463 kJ/mol
# GULP energy per Si atom -5583.917482 kJ/mol
# Density = 1.846139 g / cm^3
# Si number density = 18.503503 Si / 1000 Ang^3
#
#
#
# Elastic Constant Matrix: (Units=GPa)
#
#
# Indices 1 2 3 4 5 6 
#
# 1 129.4389 26.3756 40.2246 0.0000 3.6202 0.0000
# 2 26.3756 37.7008 22.6361 0.0000 7.3604 0.0000
# 3 40.2246 22.6361 109.1247 0.0000 19.1213 0.0000
# 4 0.0000 0.0000 0.0000 12.5018 0.0000 -1.7250
# 5 3.6202 7.3604 19.1213 0.0000 29.3292 0.0000
# 6 0.0000 0.0000 0.0000 -1.7250 0.0000 15.0587
#
#
#
# Elastic Compliance Matrix: (Units=1/GPa)
#
#
# Indices 1 2 3 4 5 6 
#
# 1 0.009646 -0.005474 -0.002768 0.000000 0.001988 0.000000
# 2 -0.005474 0.033818 -0.004096 0.000000 -0.005141 0.000000
# 3 -0.002768 -0.004096 0.012186 0.000000 -0.006575 0.000000
# 4 0.000000 0.000000 0.000000 0.081273 0.000000 0.009310
# 5 0.001988 -0.005141 -0.006575 0.000000 0.039427 0.000000
# 6 0.000000 0.000000 0.000000 0.009310 0.000000 0.067473
#
#
# Mechanical properties :
#
#
# Convention : Reuss Voigt Hill
#
# Bulk Modulus (GPa) = 32.28755 50.52634 41.40694
# Shear Modulus (GPa) = 17.93245 23.84649 20.88947
#
# Velocity S-wave (km/s) = 3.11648 3.59382 3.36363
# Velocity P-wave (km/s) = 5.51699 6.67730 6.12469
#
# Compressibility (1/GPa) = 0.03097169
#
# Stress axis : x y z
#
# Youngs Moduli (GPa) = 103.67173 29.57048 82.06063
#
# Poissons Ratio (x) = 0.16187 0.22718
# Poissons Ratio (y) = 0.56752 0.33614
# Poissons Ratio (z) = 0.28700 0.12113
#
# Static dielectric constant tensor:
#      x y z
#    x 1.643100 0.000000 0.012930 
#    y 0.000000 1.614710 0.000000 
#    z 0.012930 0.000000 1.643390 
# 
# From -- ./inp_files/137386.got.cif
#   From: 2010.05.17/outbox.cif.g08.bks.cpg/sg15_69_cif.got.tgz:137386.got - 2010.06.03 18:47:42.
