data_PCOD9259696
_publ_section_title
;
Structure prediction by ZEFSAII (Michael W. Deem and Ramdas Pophale) SiO2 
 PCOD9259696
Probable space group: C 2/C
;
_chemical_formula_sum "Si O2"
_cell_formula_units_Z 56
_cell_length_a 17.077124
_cell_length_b 10.719073
_cell_length_c 18.265478
_cell_angle_alpha 90.000000
_cell_angle_beta 51.070106
_cell_angle_gamma 90.000000
_cell_volume 2600.970184
_symmetry_space_group_name_H-M "C 2/C"
_symmetry_group_IT_number 15
_symmetry_cell_setting 'monoclinic'
loop_
_space_group_symop_operation_xyz
x,y,z
-x,y,1/2-z
-x,-y,-z
x,-y,1/2+z
1/2+x,1/2+y,z
1/2-x,1/2+y,1/2-z
1/2-x,1/2-y,-z
1/2+x,1/2-y,1/2+z
loop_
_atom_site_type_symbol
_atom_site_label
_atom_site_fract_x
_atom_site_fract_y
_atom_site_fract_z
Si Si1 0.792873 0.110667 0.470703
Si Si2 0.421116 0.762596 0.580726
Si Si3 0.504337 0.591736 0.425869
Si Si4 0.397128 0.779761 0.939476
Si Si5 0.295223 0.466532 0.201769
Si Si6 0.774801 0.603392 0.394463
Si Si7 0.813890 0.489784 0.094524
O O1 0.750000 0.250000 0.500000
O O2 0.907200 0.091774 0.430925
O O3 0.773643 0.053169 0.402463
O O4 0.723803 0.028196 0.564885
O O5 0.496650 0.724930 0.470219
O O6 0.486699 0.751213 0.615714
O O7 0.335056 0.656206 0.635507
O O8 0.379360 0.897302 0.587875
O O9 0.500000 0.500000 0.500000
O O10 0.607524 0.547012 0.329883
O O11 0.325646 0.672024 0.015131
O O12 0.372455 0.898436 0.005734
O O13 0.362821 0.812002 0.877224
O O14 0.236298 0.562795 0.182861
O O15 0.232623 0.422511 0.308039
#
# Coordination Sequence:
#
# PCOD9259696 Si02
#       7
#     8   8   8   8   8   8   8
#     4  11  19  38  63  94 121 165 212 258 305 383
#     4  11  20  40  63  88 122 167 212 256 310 385
#     4  10  18  35  64  88 114 165 210 246 304 381
#     4  10  22  38  63  90 122 169 216 250 304 400
#     4  11  22  38  65  92 125 162 211 267 324 360
#     4  10  19  38  62  89 124 165 209 249 316 379
#     4  11  25  36  62  96 127 157 211 271 323 366
#
# _framework density 21.530428000000001
#
# number of rings (size 3 to 8) (size 9 to 14) (size 15 to 20)
#    0.000    1.429    5.714    1.286    2.000    0.571 
#    0.000    0.714    0.000    0.000    0.000    0.000 
#    0.000    0.000    0.000    0.000    0.000    0.000 
#
# Total GULP energy -156170.035398 kJ/mol
# GULP energy per Si atom -5577.501264 kJ/mol
# Density = 2.148142 g / cm^3
# Si number density = 21.530428 Si / 1000 Ang^3
#
#
#
# Elastic Constant Matrix: (Units=GPa)
#
#
# Indices 1 2 3 4 5 6 
#
# 1 123.0710 7.9672 0.9284 0.0000 24.4367 0.0000
# 2 7.9672 81.9237 -2.1541 0.0000 3.0774 0.0000
# 3 0.9284 -2.1541 41.3687 0.0000 7.9686 0.0000
# 4 0.0000 0.0000 0.0000 13.9778 0.0000 1.9962
# 5 24.4367 3.0774 7.9686 0.0000 17.8994 0.0000
# 6 0.0000 0.0000 0.0000 1.9962 0.0000 33.6225
#
#
#
# Elastic Compliance Matrix: (Units=1/GPa)
#
#
# Indices 1 2 3 4 5 6 
#
# 1 0.011495 -0.000403 0.002987 0.000000 -0.016954 0.000000
# 2 -0.000403 0.012350 0.001045 0.000000 -0.002039 0.000000
# 3 0.002987 0.001045 0.027323 0.000000 -0.016422 0.000000
# 4 0.000000 0.000000 0.000000 0.072154 0.000000 -0.004284
# 5 -0.016954 -0.002039 -0.016422 0.000000 0.086676 0.000000
# 6 0.000000 0.000000 0.000000 -0.004284 0.000000 0.029996
#
#
# Mechanical properties :
#
#
# Convention : Reuss Voigt Hill
#
# Bulk Modulus (GPa) = 17.11543 28.87181 22.99362
# Shear Modulus (GPa) = 19.82462 29.07471 24.44966
#
# Velocity S-wave (km/s) = 3.03771 3.67877 3.37350
# Velocity P-wave (km/s) = 4.50225 5.61100 5.08692
#
# Compressibility (1/GPa) = 0.05842681
#
# Stress axis : x y z
#
# Youngs Moduli (GPa) = 86.99197 80.97368 36.59861
#
# Poissons Ratio (x) = 0.03259 -0.10932
# Poissons Ratio (y) = 0.03502 -0.03824
# Poissons Ratio (z) = -0.25983 -0.08460
#
# Static dielectric constant tensor:
#      x y z
#    x 1.855240 0.000000 0.019880 
#    y 0.000000 1.803530 0.000000 
#    z 0.019880 0.000000 1.840770 
# 
# From -- ./inp_files/203965.got.cif
#   From: 2010.05.17/outbox.cif.g08.bks.cpg/sg15_102_cif.got.tgz:203965.got - 2010.06.03 18:47:42.
