data_PCOD9259864
_publ_section_title
;
Structure prediction by ZEFSAII (Michael W. Deem and Ramdas Pophale) SiO2 
 PCOD9259864
Probable space group: C 2/C
;
_chemical_formula_sum "Si O2"
_cell_formula_units_Z 52
_cell_length_a 24.874171
_cell_length_b 13.710441
_cell_length_c 16.819209
_cell_angle_alpha 90.000000
_cell_angle_beta 26.713113
_cell_angle_gamma 90.000000
_cell_volume 2578.445508
_symmetry_space_group_name_H-M "C 2/C"
_symmetry_group_IT_number 15
_symmetry_cell_setting 'monoclinic'
loop_
_space_group_symop_operation_xyz
x,y,z
-x,y,1/2-z
-x,-y,-z
x,-y,1/2+z
1/2+x,1/2+y,z
1/2-x,1/2+y,1/2-z
1/2-x,1/2-y,-z
1/2+x,1/2-y,1/2+z
loop_
_atom_site_type_symbol
_atom_site_label
_atom_site_fract_x
_atom_site_fract_y
_atom_site_fract_z
Si Si1 0.228254 0.695268 0.274089
Si Si2 0.274959 0.107308 0.630777
Si Si3 0.150307 0.392810 0.149971
Si Si4 0.851493 0.919217 0.749656
Si Si5 0.497508 0.704258 0.347073
Si Si6 0.142394 0.504218 0.818533
Si Si7 0.000000 0.530654 0.250000
O O1 0.256191 0.780310 0.174609
O O2 0.325525 0.648878 0.206793
O O3 0.184510 0.604595 0.279772
O O4 0.124341 0.742566 0.466351
O O5 0.384088 0.091935 0.425555
O O6 0.168292 0.033549 0.745373
O O7 0.319605 0.065164 0.655515
O O8 0.101385 0.284425 0.225752
O O9 0.194985 0.442201 0.171608
O O10 0.037335 0.458031 0.271260
O O11 0.245536 0.398494 0.953572
O O12 0.970875 0.886580 0.637926
O O13 0.500000 0.681191 0.250000
O O14 0.000000 0.500000 0.000000
#
# Coordination Sequence:
#
# PCOD9259864 Si02
#       7
#     8   8   8   8   8   8   4
#     4  11  23  38  60  92 119 159 202 241 307 361
#     4  10  22  39  58  86 122 157 200 252 300 356
#     4  11  18  35  59  89 116 144 200 255 291 342
#     4  10  23  38  57  89 123 156 196 253 301 356
#     4  12  21  33  59  91 122 156 195 246 305 357
#     4  11  20  35  63  90 113 154 205 251 289 349
#     4  10  18  36  58  80 118 154 196 252 294 338
#
# _framework density 20.167190000000002
#
# number of rings (size 3 to 8) (size 9 to 14) (size 15 to 20)
#    0.000    1.231    5.385    2.308    2.154    0.615 
#    0.000    3.077    0.000    0.000    2.000    0.000 
#    0.000    0.000    0.000    0.000    0.000    0.000 
#
# Total GULP energy -145183.305093 kJ/mol
# GULP energy per Si atom -5583.973273 kJ/mol
# Density = 2.012129 g / cm^3
# Si number density = 20.167190 Si / 1000 Ang^3
#
#
#
# Elastic Constant Matrix: (Units=GPa)
#
#
# Indices 1 2 3 4 5 6 
#
# 1 103.7888 59.9878 5.9369 0.0000 9.9170 0.0000
# 2 59.9878 110.7423 14.0562 0.0000 0.2880 0.0000
# 3 5.9369 14.0562 26.5380 0.0000 11.8483 0.0000
# 4 0.0000 0.0000 0.0000 23.3162 0.0000 13.8894
# 5 9.9170 0.2880 11.8483 0.0000 19.8725 0.0000
# 6 0.0000 0.0000 0.0000 13.8894 0.0000 29.0378
#
#
#
# Elastic Compliance Matrix: (Units=1/GPa)
#
#
# Indices 1 2 3 4 5 6 
#
# 1 0.015787 -0.009366 0.006658 0.000000 -0.011712 0.000000
# 2 -0.009366 0.015474 -0.011021 0.000000 0.011020 0.000000
# 3 0.006658 -0.011021 0.059200 0.000000 -0.038459 0.000000
# 4 0.000000 0.000000 0.000000 0.059978 0.000000 -0.028689
# 5 -0.011712 0.011020 -0.038459 0.000000 0.078936 0.000000
# 6 0.000000 0.000000 0.000000 -0.028689 0.000000 0.048160
#
#
# Mechanical properties :
#
#
# Convention : Reuss Voigt Hill
#
# Bulk Modulus (GPa) = 15.87223 44.55898 30.21561
# Shear Modulus (GPa) = 15.33776 25.18451 20.26114
#
# Velocity S-wave (km/s) = 2.76076 3.53765 3.17307
# Velocity P-wave (km/s) = 4.24851 6.23132 5.33288
#
# Compressibility (1/GPa) = 0.06300311
#
# Stress axis : x y z
#
# Youngs Moduli (GPa) = 63.34521 64.62629 16.89185
#
# Poissons Ratio (x) = 0.60529 -0.11247
# Poissons Ratio (y) = 0.59329 0.18616
# Poissons Ratio (z) = -0.42176 0.71223
#
# Static dielectric constant tensor:
#      x y z
#    x 1.744340 0.000000 -0.012230 
#    y 0.000000 1.797750 0.000000 
#    z -0.012230 0.000000 1.758730 
# 
# From -- ./inp_files/118756.got.cif
#   From: 2010.05.17/outbox.cif.g08.bks.cpg/sg15_60_cif.got.tgz:118756.got - 2010.06.03 18:47:42.
