data_PCOD9259451
_publ_section_title
;
Structure prediction by ZEFSAII (Michael W. Deem and Ramdas Pophale) SiO2 
 PCOD9259451
Probable space group: C 2/C
;
_chemical_formula_sum "Si O2"
_cell_formula_units_Z 48
_cell_length_a 15.771409
_cell_length_b 9.331040
_cell_length_c 21.144015
_cell_angle_alpha 90.000000
_cell_angle_beta 49.550955
_cell_angle_gamma 90.000000
_cell_volume 2367.898573
_symmetry_space_group_name_H-M "C 2/C"
_symmetry_group_IT_number 15
_symmetry_cell_setting 'monoclinic'
loop_
_space_group_symop_operation_xyz
x,y,z
-x,y,1/2-z
-x,-y,-z
x,-y,1/2+z
1/2+x,1/2+y,z
1/2-x,1/2+y,1/2-z
1/2-x,1/2-y,-z
1/2+x,1/2-y,1/2+z
loop_
_atom_site_type_symbol
_atom_site_label
_atom_site_fract_x
_atom_site_fract_y
_atom_site_fract_z
Si Si1 0.564140 0.753533 0.574260
Si Si2 0.139397 0.303337 0.089259
Si Si3 0.084786 0.991544 0.153961
Si Si4 0.372092 0.078930 0.334402
Si Si5 0.539327 0.022662 0.908783
Si Si6 0.779933 0.685995 0.618149
O O1 0.549830 0.595382 0.608168
O O2 0.633050 0.834181 0.596511
O O3 0.631315 0.756815 0.476573
O O4 0.459464 0.860615 0.618157
O O5 0.166508 0.419076 0.130821
O O6 0.053002 0.386427 0.084940
O O7 0.085046 0.159885 0.142729
O O8 0.250000 0.250000 0.000000
O O9 0.204821 0.934508 0.119515
O O10 0.000000 0.949126 0.250000
O O11 0.500000 0.074756 0.250000
O O12 0.296811 0.178982 0.326826
O O13 0.653214 0.110071 0.857998
O O14 0.500000 0.000000 0.000000
#
# Coordination Sequence:
#
# PCOD9259451 Si02
#       6
#     8   8   8   8   8   8
#     4   9  17  33  56  78 104 145 181 212 266 331
#     4  11  21  37  57  79 107 144 187 232 275 327
#     4  11  21  35  55  83 112 142 183 230 272 326
#     4  10  19  33  55  80 107 146 185 222 273 332
#     4   9  19  35  56  82 109 140 183 230 274 325
#     4  10  18  35  58  80 106 143 186 224 267 329
#
# _framework density 20.271139000000002
#
# number of rings (size 3 to 8) (size 9 to 14) (size 15 to 20)
#    0.000    2.000    0.000    8.500    0.000    0.000 
#    0.000   14.167    0.000    8.000    0.000    0.000 
#    0.000    0.000    0.000    0.000    0.000    0.000 
#
# Total GULP energy -133812.257992 kJ/mol
# GULP energy per Si atom -5575.510750 kJ/mol
# Density = 2.022500 g / cm^3
# Si number density = 20.271139 Si / 1000 Ang^3
#
#
#
# Elastic Constant Matrix: (Units=GPa)
#
#
# Indices 1 2 3 4 5 6 
#
# 1 61.7079 25.5522 1.7064 0.0000 -19.4916 0.0000
# 2 25.5522 133.4554 10.3833 0.0000 -19.4149 0.0000
# 3 1.7064 10.3833 73.1106 0.0000 -11.5553 0.0000
# 4 0.0000 0.0000 0.0000 22.3817 0.0000 -9.0365
# 5 -19.4916 -19.4149 -11.5553 0.0000 19.1936 0.0000
# 6 0.0000 0.0000 0.0000 -9.0365 0.0000 22.5556
#
#
#
# Elastic Compliance Matrix: (Units=1/GPa)
#
#
# Indices 1 2 3 4 5 6 
#
# 1 0.024929 -0.001235 0.003755 0.000000 0.026327 0.000000
# 2 -0.001235 0.008849 -0.000013 0.000000 0.007689 0.000000
# 3 0.003755 -0.000013 0.015685 0.000000 0.013243 0.000000
# 4 0.000000 0.000000 0.000000 0.053301 0.000000 0.021354
# 5 0.026327 0.007689 0.013243 0.000000 0.094587 0.000000
# 6 0.000000 0.000000 0.000000 0.021354 0.000000 0.052890
#
#
# Mechanical properties :
#
#
# Convention : Reuss Voigt Hill
#
# Bulk Modulus (GPa) = 18.35640 38.17307 28.26474
# Shear Modulus (GPa) = 18.98350 28.20166 23.59258
#
# Velocity S-wave (km/s) = 3.06352 3.73396 3.41523
# Velocity P-wave (km/s) = 4.64635 6.12062 5.43372
#
# Compressibility (1/GPa) = 0.05447692
#
# Stress axis : x y z
#
# Youngs Moduli (GPa) = 40.11417 113.00406 63.75440
#
# Poissons Ratio (x) = 0.13958 -0.23937
# Poissons Ratio (y) = 0.04955 0.00081
# Poissons Ratio (z) = -0.15061 0.00143
#
# Static dielectric constant tensor:
#      x y z
#    x 1.771090 0.000000 -0.012470 
#    y 0.000000 1.752210 0.000000 
#    z -0.012470 0.000000 1.758860 
# 
# From -- ./inp_files/295415.got.cif
#   From: 2010.05.17/outbox.cif.g08.bks.cpg/sg15_148_cif.got.tgz:295415.got - 2010.06.03 18:47:42.
