data_PCOD9259811
_publ_section_title
;
Structure prediction by ZEFSAII (Michael W. Deem and Ramdas Pophale) SiO2 
 PCOD9259811
Probable space group: C 2/C
;
_chemical_formula_sum "Si O2"
_cell_formula_units_Z 56
_cell_length_a 11.520240
_cell_length_b 26.492544
_cell_length_c 10.717784
_cell_angle_alpha 90.000000
_cell_angle_beta 96.572787
_cell_angle_gamma 90.000000
_cell_volume 3249.572698
_symmetry_space_group_name_H-M "C 2/C"
_symmetry_group_IT_number 15
_symmetry_cell_setting 'monoclinic'
loop_
_space_group_symop_operation_xyz
x,y,z
-x,y,1/2-z
-x,-y,-z
x,-y,1/2+z
1/2+x,1/2+y,z
1/2-x,1/2+y,1/2-z
1/2-x,1/2-y,-z
1/2+x,1/2-y,1/2+z
loop_
_atom_site_type_symbol
_atom_site_label
_atom_site_fract_x
_atom_site_fract_y
_atom_site_fract_z
Si Si1 0.818122 0.571445 0.794344
Si Si2 0.930033 0.525396 0.372850
Si Si3 0.219566 0.253415 0.697514
Si Si4 0.569203 0.773958 0.455107
Si Si5 0.870407 0.153141 0.677721
Si Si6 0.665708 0.286996 0.565972
Si Si7 0.559017 0.893442 0.439547
O O1 0.822793 0.512337 0.830020
O O2 0.701834 0.602298 0.807331
O O3 0.860755 0.581248 0.657799
O O4 0.924426 0.594881 0.888576
O O5 0.907611 0.580873 0.425088
O O6 0.000000 0.526627 0.250000
O O7 0.000000 0.500000 0.500000
O O8 0.328482 0.247952 0.618040
O O9 0.105425 0.265304 0.603112
O O10 0.195533 0.199693 0.761025
O O11 0.258325 0.295912 0.801028
O O12 0.448847 0.745432 0.413591
O O13 0.567898 0.833573 0.434185
O O14 0.869159 0.168112 0.531058
O O15 0.000000 0.150282 0.750000
O O16 0.750000 0.250000 0.500000
#
# Coordination Sequence:
#
# PCOD9259811 Si02
#       7
#     8   8   8   8   8   8   8
#     4  10  19  34  58  79 107 144 184 220 289 340
#     4  10  18  36  56  86 113 132 170 240 298 338
#     4  10  21  34  53  76 110 153 188 228 272 318
#     4  11  20  35  53  78 112 152 190 220 274 344
#     4  11  20  37  53  77 112 150 190 230 265 336
#     4  10  21  33  50  75 115 146 181 235 267 318
#     4  10  19  33  57  84 109 139 180 228 286 345
#
# _framework density 17.233035000000001
#
# number of rings (size 3 to 8) (size 9 to 14) (size 15 to 20)
#    0.000    1.714    5.714    2.143    2.000    0.000 
#   10.286    0.000    0.000    0.857    0.000    2.000 
#    0.000    0.000    0.000    0.000    0.000    0.000 
#
# Total GULP energy -155948.709288 kJ/mol
# GULP energy per Si atom -5569.596760 kJ/mol
# Density = 1.719381 g / cm^3
# Si number density = 17.233035 Si / 1000 Ang^3
#
#
#
# Elastic Constant Matrix: (Units=GPa)
#
#
# Indices 1 2 3 4 5 6 
#
# 1 63.0640 7.0455 12.6368 0.0000 2.8050 0.0000
# 2 7.0455 19.8551 11.6323 0.0000 -1.2321 0.0000
# 3 12.6368 11.6323 91.8028 0.0000 6.6037 0.0000
# 4 0.0000 0.0000 0.0000 13.9647 0.0000 6.8650
# 5 2.8050 -1.2321 6.6037 0.0000 19.2284 0.0000
# 6 0.0000 0.0000 0.0000 6.8650 0.0000 20.0642
#
#
#
# Elastic Compliance Matrix: (Units=1/GPa)
#
#
# Indices 1 2 3 4 5 6 
#
# 1 0.016843 -0.005245 -0.001490 0.000000 -0.002281 0.000000
# 2 -0.005245 0.056721 -0.006953 0.000000 0.006788 0.000000
# 3 -0.001490 -0.006953 0.012299 0.000000 -0.004452 0.000000
# 4 0.000000 0.000000 0.000000 0.086090 0.000000 -0.029456
# 5 -0.002281 0.006788 -0.004452 0.000000 0.054303 0.000000
# 6 0.000000 0.000000 0.000000 -0.029456 0.000000 0.059918
#
#
# Mechanical properties :
#
#
# Convention : Reuss Voigt Hill
#
# Bulk Modulus (GPa) = 17.09801 26.37235 21.73518
# Shear Modulus (GPa) = 15.01291 20.21193 17.61242
#
# Velocity S-wave (km/s) = 2.95476 3.42842 3.20037
# Velocity P-wave (km/s) = 4.64586 5.56854 5.12800
#
# Compressibility (1/GPa) = 0.05848633
#
# Stress axis : x y z
#
# Youngs Moduli (GPa) = 59.37212 17.63015 81.30554
#
# Poissons Ratio (x) = 0.09248 0.12112
# Poissons Ratio (y) = 0.31143 0.56534
# Poissons Ratio (z) = 0.08845 0.12259
#
# Static dielectric constant tensor:
#      x y z
#    x 1.561320 0.000000 -0.000220 
#    y 0.000000 1.601830 0.000000 
#    z -0.000220 0.000000 1.659320 
# 
# From -- ./inp_files/91563.got.cif
#   From: 2010.05.17/outbox.cif.g08.bks.cpg/sg15_46_cif.got.tgz:91563.got - 2010.06.03 18:47:42.
