data_PCOD9259740
_publ_section_title
;
Structure prediction by ZEFSAII (Michael W. Deem and Ramdas Pophale) SiO2 
 PCOD9259740
Probable space group: C 2/C
;
_chemical_formula_sum "Si O2"
_cell_formula_units_Z 64
_cell_length_a 30.065839
_cell_length_b 23.452986
_cell_length_c 15.059998
_cell_angle_alpha 90.000000
_cell_angle_beta 18.272926
_cell_angle_gamma 90.000000
_cell_volume 3329.619356
_symmetry_space_group_name_H-M "C 2/C"
_symmetry_group_IT_number 15
_symmetry_cell_setting 'monoclinic'
loop_
_space_group_symop_operation_xyz
x,y,z
-x,y,1/2-z
-x,-y,-z
x,-y,1/2+z
1/2+x,1/2+y,z
1/2-x,1/2+y,1/2-z
1/2-x,1/2-y,-z
1/2+x,1/2-y,1/2+z
loop_
_atom_site_type_symbol
_atom_site_label
_atom_site_fract_x
_atom_site_fract_y
_atom_site_fract_z
Si Si1 0.080641 0.874715 0.176614
Si Si2 0.625614 0.266656 0.359484
Si Si3 0.560321 0.062289 0.376439
Si Si4 0.377309 0.385032 0.042579
Si Si5 0.412619 0.861619 0.005810
Si Si6 0.890599 0.946790 0.206268
Si Si7 0.913235 0.639476 0.004818
Si Si8 0.454944 0.747765 0.689954
O O1 0.057132 0.903689 0.316168
O O2 0.021719 0.810738 0.302471
O O3 0.000000 0.905257 0.250000
O O4 0.243635 0.871757 0.834497
O O5 0.587786 0.321099 0.489443
O O6 0.578782 0.207099 0.491226
O O7 0.559156 0.266791 0.387184
O O8 0.797111 0.268916 0.019081
O O9 0.488010 0.096362 0.432515
O O10 0.532115 0.101412 0.516492
O O11 0.500000 0.000000 0.500000
O O12 0.726502 0.049089 0.047127
O O13 0.241758 0.380075 0.234922
O O14 0.372962 0.421086 0.141200
O O15 0.500000 0.409807 0.750000
O O16 0.500000 0.862181 0.750000
O O17 0.431606 0.797258 0.007096
O O18 0.000000 0.000000 0.000000
O O19 0.000000 0.626469 0.750000
#
# Coordination Sequence:
#
# PCOD9259740 Si02
#       8
#     8   8   8   8   8   8   8   8
#     4  10  22  40  65  94 126 170 218 258 320 398
#     4  10  18  37  65  94 133 166 204 261 333 385
#     4  11  25  45  69  95 125 171 228 276 318 384
#     4  12  26  43  67 101 137 172 214 273 337 393
#     4  12  22  42  71 100 128 171 227 268 322 402
#     4  11  25  47  67  91 130 177 221 271 328 386
#     4  10  22  41  63  95 132 166 208 268 332 381
#     4  10  18  35  69  95 124 168 212 262 318 393
#
# _framework density 19.221415
#
# number of rings (size 3 to 8) (size 9 to 14) (size 15 to 20)
#    0.000    1.250    5.000    0.750    3.500    2.000 
#    2.250    0.625    0.000    0.000    0.000    0.000 
#    0.000    0.000    0.000    0.000    0.000    0.000 
#
# Total GULP energy -178396.709725 kJ/mol
# GULP energy per Si atom -5574.897179 kJ/mol
# Density = 1.917767 g / cm^3
# Si number density = 19.221415 Si / 1000 Ang^3
#
#
#
# Elastic Constant Matrix: (Units=GPa)
#
#
# Indices 1 2 3 4 5 6 
#
# 1 101.7592 39.9704 15.7888 -0.2681 -14.0786 0.1908
# 2 39.9704 100.6590 21.3039 -0.1844 -12.5762 0.1330
# 3 15.7888 21.3039 42.4029 -0.2305 -2.8783 0.1661
# 4 -0.2681 -0.1844 -0.2305 1663.7209 -0.1135-1229.5915
# 5 -14.0786 -12.5762 -2.8783 -0.1135 30.1782 0.0842
# 6 0.1908 0.1330 0.1661-1229.5915 0.0842 909.3635
#
#
#
# Elastic Compliance Matrix: (Units=1/GPa)
#
#
# Indices 1 2 3 4 5 6 
#
# 1 0.012253 -0.003885 -0.002348 0.000080 0.003874 0.000107
# 2 -0.003885 0.012883 -0.004816 -0.000010 0.003097 -0.000014
# 3 -0.002348 -0.004816 0.026840 0.000101 -0.000542 0.000133
# 4 0.000080 -0.000010 0.000101 0.881331 0.000034 1.191688
# 5 0.003874 0.003097 -0.000542 0.000034 0.036183 0.000042
# 6 0.000107 -0.000014 0.000133 1.191688 0.000042 1.612434
#
#
# Mechanical properties :
#
#
# Convention : Reuss Voigt Hill
#
# Bulk Modulus (GPa) = 33.46749 44.32749 38.89749
# Shear Modulus (GPa) = 1.91279 531.83637 266.87458
#
# Velocity S-wave (km/s) = 0.99865 16.65203 11.79592
# Velocity P-wave (km/s) = 4.33348 19.81998 14.34592
#
# Compressibility (1/GPa) = 0.02987974
#
# Stress axis : x y z
#
# Youngs Moduli (GPa) = 81.61113 77.61938 37.25726
#
# Poissons Ratio (x) = 0.30153 0.08747
# Poissons Ratio (y) = 0.31704 0.17943
# Poissons Ratio (z) = 0.19161 0.37382
#
# Static dielectric constant tensor:
#      x y z
#    x 1.475350 0.000010 0.084300 
#    y 0.000010 1.622870 -0.000010 
#    z 0.084300 -0.000010 1.615300 
# 
# From -- ./inp_files/183132.got.cif
#   From: 2010.05.17/outbox.cif.g08.bks.cpg/sg15_92_cif.got.tgz:183132.got - 2010.06.03 18:47:42.
