data_PCOD9259490
_publ_section_title
;
Structure prediction by ZEFSAII (Michael W. Deem and Ramdas Pophale) SiO2 
 PCOD9259490
Probable space group: C 2/C
;
_chemical_formula_sum "Si O2"
_cell_formula_units_Z 48
_cell_length_a 13.274050
_cell_length_b 23.783550
_cell_length_c 7.491243
_cell_angle_alpha 90.000000
_cell_angle_beta 114.637474
_cell_angle_gamma 90.000000
_cell_volume 2149.713225
_symmetry_space_group_name_H-M "C 2/C"
_symmetry_group_IT_number 15
_symmetry_cell_setting 'monoclinic'
loop_
_space_group_symop_operation_xyz
x,y,z
-x,y,1/2-z
-x,-y,-z
x,-y,1/2+z
1/2+x,1/2+y,z
1/2-x,1/2+y,1/2-z
1/2-x,1/2-y,-z
1/2+x,1/2-y,1/2+z
loop_
_atom_site_type_symbol
_atom_site_label
_atom_site_fract_x
_atom_site_fract_y
_atom_site_fract_z
Si Si1 0.107751 0.694182 0.458989
Si Si2 0.601672 0.924908 0.098285
Si Si3 0.678388 0.465038 0.429376
Si Si4 0.330192 0.315247 0.885962
Si Si5 0.626521 0.415509 0.783202
Si Si6 0.000000 0.495928 0.750000
Si Si7 0.500000 0.614436 0.750000
O O1 0.094017 0.641414 0.581367
O O2 0.215670 0.682312 0.413368
O O3 0.134869 0.750249 0.591173
O O4 0.000000 0.699903 0.250000
O O5 0.704484 0.945160 0.056452
O O6 0.596993 0.959035 0.278553
O O7 0.499771 0.952263 0.913356
O O8 0.649807 0.442201 0.604354
O O9 0.667615 0.531670 0.426779
O O10 0.590167 0.430049 0.242772
O O11 0.320906 0.353210 0.700096
O O12 0.431278 0.344880 0.069361
O O13 0.500000 0.407196 0.750000
#
# Coordination Sequence:
#
# PCOD9259490 Si02
#       7
#     8   8   8   8   8   4   4
#     4  11  21  40  67  85 118 166 212 249 299 372
#     4  11  21  40  61  90 121 160 210 251 311 363
#     4  11  22  35  62  92 124 160 198 252 319 370
#     4  10  23  38  60  91 115 163 208 247 299 363
#     4  11  22  38  59  94 127 162 198 256 311 374
#     4  10  24  37  60  89 122 160 204 262 304 368
#     4  10  18  35  58  89 116 152 204 252 300 358
#
# _framework density 22.328558999999998
#
# number of rings (size 3 to 8) (size 9 to 14) (size 15 to 20)
#    0.000    1.333    5.833    1.500    2.333    0.000 
#    1.500    0.000    0.000    1.000    0.000    0.000 
#    0.000    0.000    0.000    0.000    0.000    0.000 
#
# Total GULP energy -133638.501134 kJ/mol
# GULP energy per Si atom -5568.270881 kJ/mol
# Density = 2.227774 g / cm^3
# Si number density = 22.328559 Si / 1000 Ang^3
#
#
#
# Elastic Constant Matrix: (Units=GPa)
#
#
# Indices 1 2 3 4 5 6 
#
# 1 85.1661 40.3355 20.7285 0.0000 -18.7446 0.0000
# 2 40.3355 220.4139 20.7772 0.0000 -12.5065 0.0000
# 3 20.7285 20.7772 23.0512 0.0000 -10.8525 0.0000
# 4 0.0000 0.0000 0.0000 19.1734 0.0000 -9.3709
# 5 -18.7446 -12.5065 -10.8525 0.0000 29.2624 0.0000
# 6 0.0000 0.0000 0.0000 -9.3709 0.0000 36.5179
#
#
#
# Elastic Compliance Matrix: (Units=1/GPa)
#
#
# Indices 1 2 3 4 5 6 
#
# 1 0.016375 -0.001678 -0.010433 0.000000 0.005903 0.000000
# 2 -0.001678 0.005138 -0.003143 0.000000 -0.000045 0.000000
# 3 -0.010433 -0.003143 0.062779 0.000000 0.015256 0.000000
# 4 0.000000 0.000000 0.000000 0.059635 0.000000 0.015303
# 5 0.005903 -0.000045 0.015256 0.000000 0.043593 0.000000
# 6 0.000000 0.000000 0.000000 0.015303 0.000000 0.031311
#
#
# Mechanical properties :
#
#
# Convention : Reuss Voigt Hill
#
# Bulk Modulus (GPa) = 18.59325 54.70153 36.64739
# Shear Modulus (GPa) = 18.70780 33.44339 26.07559
#
# Velocity S-wave (km/s) = 2.89769 3.87432 3.42104
# Velocity P-wave (km/s) = 4.42048 6.67574 5.66154
#
# Compressibility (1/GPa) = 0.05378297
#
# Stress axis : x y z
#
# Youngs Moduli (GPa) = 61.06821 194.63762 15.92883
#
# Poissons Ratio (x) = 0.32664 0.16619
# Poissons Ratio (y) = 0.10248 0.05006
# Poissons Ratio (z) = 0.63715 0.61173
#
# Static dielectric constant tensor:
#      x y z
#    x 1.899040 0.000000 0.048920 
#    y 0.000000 1.853910 0.000000 
#    z 0.048920 0.000000 2.112740 
# 
# From -- ./inp_files/32189.got.cif
#   From: 2010.05.17/outbox.cif.g08.bks.cpg/sg15_17_cif.got.tgz:32189.got - 2010.06.03 18:47:42.
