data_PCOD9259299
_publ_section_title
;
Structure prediction by ZEFSAII (Michael W. Deem and Ramdas Pophale) SiO2 
 PCOD9259299
Probable space group: C 2/C
;
_chemical_formula_sum "Si O2"
_cell_formula_units_Z 52
_cell_length_a 16.574656
_cell_length_b 16.327661
_cell_length_c 31.182878
_cell_angle_alpha 90.000000
_cell_angle_beta 160.967375
_cell_angle_gamma 90.000000
_cell_volume 2751.972817
_symmetry_space_group_name_H-M "C 2/C"
_symmetry_group_IT_number 15
_symmetry_cell_setting 'monoclinic'
loop_
_space_group_symop_operation_xyz
x,y,z
-x,y,1/2-z
-x,-y,-z
x,-y,1/2+z
1/2+x,1/2+y,z
1/2-x,1/2+y,1/2-z
1/2-x,1/2-y,-z
1/2+x,1/2-y,1/2+z
loop_
_atom_site_type_symbol
_atom_site_label
_atom_site_fract_x
_atom_site_fract_y
_atom_site_fract_z
Si Si1 0.766618 0.175187 0.394254
Si Si2 0.465780 0.437046 0.407773
Si Si3 0.905558 0.141445 0.611764
Si Si4 0.863955 0.296689 0.820182
Si Si5 0.556071 0.821737 0.227412
Si Si6 0.466394 0.373079 0.556835
Si Si7 0.000000 0.836482 0.250000
O O1 0.500000 0.138170 0.250000
O O2 0.720059 0.272168 0.371607
O O3 0.855153 0.130697 0.481025
O O4 0.940814 0.159651 0.442148
O O5 0.490300 0.422589 0.369888
O O6 0.204688 0.407457 0.295889
O O7 0.539807 0.529462 0.453250
O O8 0.608027 0.153098 0.457744
O O9 0.008797 0.116901 0.710148
O O10 0.029237 0.228051 0.659346
O O11 0.725629 0.247906 0.789520
O O12 0.661801 0.348662 0.691932
O O13 0.500000 0.807640 0.250000
O O14 0.303210 0.833298 0.073767
#
# Coordination Sequence:
#
# PCOD9259299 Si02
#       7
#     8   8   8   8   8   8   4
#     4  10  20  33  58  89 117 153 193 233 296 350
#     4  11  24  37  56  89 125 161 187 241 299 361
#     4  10  20  38  63  85 114 150 209 242 286 344
#     4  10  21  40  59  85 117 159 197 246 284 351
#     4  11  24  36  57  89 119 159 198 239 300 350
#     4  12  23  36  58  84 130 156 193 238 302 356
#     4  10  18  34  66  88 104 146 206 254 274 336
#
# _framework density 18.895536
#
# number of rings (size 3 to 8) (size 9 to 14) (size 15 to 20)
#    0.462    0.923    3.077    4.615    4.308    0.000 
#    0.000    0.000    1.692    0.923    0.000    0.000 
#    0.000    0.000    0.000    0.000    0.000    0.000 
#
# Total GULP energy -144866.664827 kJ/mol
# GULP energy per Si atom -5571.794801 kJ/mol
# Density = 1.885253 g / cm^3
# Si number density = 18.895536 Si / 1000 Ang^3
#
#
#
# Elastic Constant Matrix: (Units=GPa)
#
#
# Indices 1 2 3 4 5 6 
#
# 1 117.2563 3.8377 24.0017 0.0063 -5.7812 -0.0073
# 2 3.8377 16.8360 0.5197 0.0080 6.8323 -0.0094
# 3 24.0017 0.5197 96.0086 0.0293 -2.6355 -0.0508
# 4 0.0063 0.0080 0.0293 12.8903 -0.0031 -3.2173
# 5 -5.7812 6.8323 -2.6355 -0.0031 31.5227 0.0074
# 6 -0.0073 -0.0094 -0.0508 -3.2173 0.0074 35.4380
#
#
#
# Elastic Compliance Matrix: (Units=1/GPa)
#
#
# Indices 1 2 3 4 5 6 
#
# 1 0.009182 -0.002886 -0.002222 0.000002 0.002124 -0.000002
# 2 -0.002886 0.066085 -0.000044 -0.000039 -0.014856 0.000016
# 3 -0.002222 -0.000044 0.010986 -0.000020 0.000521 0.000013
# 4 0.000002 -0.000039 -0.000020 0.079377 0.000013 0.007206
# 5 0.002124 -0.014856 0.000521 0.000013 0.035376 -0.000009
# 6 -0.000002 0.000016 0.000013 0.007206 -0.000009 0.028873
#
#
# Mechanical properties :
#
#
# Convention : Reuss Voigt Hill
#
# Bulk Modulus (GPa) = 13.16676 31.86881 22.51779
# Shear Modulus (GPa) = 18.83252 29.41965 24.12608
#
# Velocity S-wave (km/s) = 3.16043 3.95012 3.57713
# Velocity P-wave (km/s) = 4.50567 6.14060 5.38554
#
# Compressibility (1/GPa) = 0.07594880
#
# Stress axis : x y z
#
# Youngs Moduli (GPa) = 108.90570 15.13208 91.02775
#
# Poissons Ratio (x) = 0.04368 0.20223
# Poissons Ratio (y) = 0.31434 0.00400
# Poissons Ratio (z) = 0.24194 0.00067
#
# Static dielectric constant tensor:
#      x y z
#    x 1.695610 0.000000 0.014640 
#    y 0.000000 1.650310 0.000000 
#    z 0.014640 0.000000 1.739880 
# 
# From -- ./inp_files/314338.got.cif
#   From: 2010.05.17/outbox.cif.g08.bks.cpg/sg15_158_cif.got.tgz:314338.got - 2010.06.03 18:47:42.
