data_PCOD9259272
_publ_section_title
;
Structure prediction by ZEFSAII (Michael W. Deem and Ramdas Pophale) SiO2 
 PCOD9259272
Probable space group: C 2/C
;
_chemical_formula_sum "Si O2"
_cell_formula_units_Z 44
_cell_length_a 11.110928
_cell_length_b 13.635962
_cell_length_c 15.001129
_cell_angle_alpha 90.000000
_cell_angle_beta 76.239162
_cell_angle_gamma 90.000000
_cell_volume 2207.558138
_symmetry_space_group_name_H-M "C 2/C"
_symmetry_group_IT_number 15
_symmetry_cell_setting 'monoclinic'
loop_
_space_group_symop_operation_xyz
x,y,z
-x,y,1/2-z
-x,-y,-z
x,-y,1/2+z
1/2+x,1/2+y,z
1/2-x,1/2+y,1/2-z
1/2-x,1/2-y,-z
1/2+x,1/2-y,1/2+z
loop_
_atom_site_type_symbol
_atom_site_label
_atom_site_fract_x
_atom_site_fract_y
_atom_site_fract_z
Si Si1 0.088878 0.215251 0.320273
Si Si2 0.830255 0.471521 0.444939
Si Si3 0.744987 0.481132 0.764332
Si Si4 0.609629 0.913388 0.402690
Si Si5 0.000000 0.974649 0.250000
Si Si6 0.069279 0.075640 0.053619
O O1 0.183424 0.127147 0.279928
O O2 0.147837 0.314874 0.345159
O O3 0.000000 0.233318 0.250000
O O4 0.007347 0.174264 0.417435
O O5 0.810023 0.499311 0.346441
O O6 0.836726 0.566360 0.508882
O O7 0.709253 0.412390 0.497654
O O8 0.960910 0.417692 0.433071
O O9 0.840183 0.498211 0.667857
O O10 0.629044 0.558279 0.772466
O O11 0.938974 0.029745 0.345706
O O12 0.000000 0.000000 0.000000
#
# Coordination Sequence:
#
# PCOD9259272 Si02
#       6
#     8   8   8   8   4   8
#     4  11  21  39  66  93 119 166 210 258 301 371
#     4  11  22  39  63  90 130 168 196 258 317 366
#     4  11  20  40  64  87 126 165 205 258 308 359
#     4  11  25  40  62  94 131 162 205 256 315 366
#     4  10  18  34  64  88 112 166 206 254 292 358
#     4  11  19  38  65  91 121 165 210 251 307 362
#
# _framework density 19.931525000000001
#
# number of rings (size 3 to 8) (size 9 to 14) (size 15 to 20)
#    0.000    1.091    9.091    1.636    0.000    1.455 
#    0.000    3.636    4.000    0.000    0.000    0.000 
#    0.000    0.000    0.000    0.000    0.000    0.000 
#
# Total GULP energy -122480.879907 kJ/mol
# GULP energy per Si atom -5567.312723 kJ/mol
# Density = 1.988616 g / cm^3
# Si number density = 19.931525 Si / 1000 Ang^3
#
#
#
# Elastic Constant Matrix: (Units=GPa)
#
#
# Indices 1 2 3 4 5 6 
#
# 1 81.8044 14.6950 20.8160 0.0000 -11.3941 0.0000
# 2 14.6950 60.3407 3.0945 0.0000 0.1833 0.0000
# 3 20.8160 3.0945 89.2717 0.0000 12.8243 0.0000
# 4 0.0000 0.0000 0.0000 23.4689 0.0000 -2.6652
# 5 -11.3941 0.1833 12.8243 0.0000 54.4545 0.0000
# 6 0.0000 0.0000 0.0000 -2.6652 0.0000 15.0611
#
#
#
# Elastic Compliance Matrix: (Units=1/GPa)
#
#
# Indices 1 2 3 4 5 6 
#
# 1 0.014325 -0.003306 -0.003786 0.000000 0.003900 0.000000
# 2 -0.003306 0.017366 0.000286 0.000000 -0.000818 0.000000
# 3 -0.003786 0.000286 0.012615 0.000000 -0.003764 0.000000
# 4 0.000000 0.000000 0.000000 0.043484 0.000000 0.007695
# 5 0.003900 -0.000818 -0.003764 0.000000 0.020069 0.000000
# 6 0.000000 0.000000 0.000000 0.007695 0.000000 0.067758
#
#
# Mechanical properties :
#
#
# Convention : Reuss Voigt Hill
#
# Bulk Modulus (GPa) = 32.57932 34.29199 33.43566
# Shear Modulus (GPa) = 25.06779 31.45098 28.25939
#
# Velocity S-wave (km/s) = 3.55025 3.97665 3.76948
# Velocity P-wave (km/s) = 5.76080 6.19090 5.97972
#
# Compressibility (1/GPa) = 0.03069432
#
# Stress axis : x y z
#
# Youngs Moduli (GPa) = 69.80918 57.58533 79.26867
#
# Poissons Ratio (x) = 0.19039 0.30010
# Poissons Ratio (y) = 0.23081 -0.02271
# Poissons Ratio (z) = 0.26429 -0.01650
#
# Static dielectric constant tensor:
#      x y z
#    x 1.764350 0.000000 0.003660 
#    y 0.000000 1.717400 0.000000 
#    z 0.003660 0.000000 1.709910 
# 
# From -- ./inp_files/142903.got.cif
#   From: 2010.05.17/outbox.cif.g08.bks.cpg/sg15_72_cif.got.tgz:142903.got - 2010.06.03 18:47:42.
