data_PCOD9259705
_publ_section_title
;
Structure prediction by ZEFSAII (Michael W. Deem and Ramdas Pophale) SiO2 
 PCOD9259705
Probable space group: C 2/C
;
_chemical_formula_sum "Si O2"
_cell_formula_units_Z 56
_cell_length_a 27.801106
_cell_length_b 15.734104
_cell_length_c 5.785831
_cell_angle_alpha 90.000000
_cell_angle_beta 64.184668
_cell_angle_gamma 90.000000
_cell_volume 2278.294910
_symmetry_space_group_name_H-M "C 2/C"
_symmetry_group_IT_number 15
_symmetry_cell_setting 'monoclinic'
loop_
_space_group_symop_operation_xyz
x,y,z
-x,y,1/2-z
-x,-y,-z
x,-y,1/2+z
1/2+x,1/2+y,z
1/2-x,1/2+y,1/2-z
1/2-x,1/2-y,-z
1/2+x,1/2-y,1/2+z
loop_
_atom_site_type_symbol
_atom_site_label
_atom_site_fract_x
_atom_site_fract_y
_atom_site_fract_z
Si Si1 0.810347 0.104747 0.769899
Si Si2 0.696771 0.042777 0.126551
Si Si3 0.086390 0.017413 0.470151
Si Si4 0.349848 0.778887 0.904956
Si Si5 0.061734 0.470926 0.149816
Si Si6 0.144387 0.182206 0.211596
Si Si7 0.940729 0.726714 0.918977
O O1 0.760720 0.057039 0.979547
O O2 0.820663 0.193629 0.878077
O O3 0.806017 0.135980 0.512972
O O4 0.862325 0.045173 0.654537
O O5 0.684080 0.997715 0.904361
O O6 0.672466 0.137511 0.163268
O O7 0.111490 0.112007 0.424582
O O8 0.059407 0.996294 0.773693
O O9 0.414154 0.777442 0.728469
O O10 0.339891 0.768745 0.195412
O O11 0.084047 0.506471 0.346646
O O12 0.060712 0.369240 0.172906
O O13 0.000000 0.502280 0.250000
O O14 0.101234 0.213010 0.116660
O O15 0.000000 0.758891 0.750000
#
# Coordination Sequence:
#
# PCOD9259705 Si02
#       7
#     8   8   8   8   8   8   8
#     4  10  22  43  70 102 138 185 234 280 346 426
#     4  12  29  46  71 106 152 190 231 286 353 422
#     4  10  18  35  64  96 127 170 222 271 330 404
#     4  11  25  44  69 102 140 187 237 295 349 417
#     4   9  19  36  59  87 116 159 223 282 331 397
#     4  10  22  39  68  99 138 175 234 290 348 419
#     4  10  24  43  66  97 135 187 239 296 364 421
#
# _framework density 24.579785000000001
#
# number of rings (size 3 to 8) (size 9 to 14) (size 15 to 20)
#    0.000    1.714    1.429    2.143    8.000    2.286 
#    0.000    0.000    0.000    7.714    0.000    0.000 
#    0.000    0.000    0.000    0.000    0.000    0.000 
#
# Total GULP energy -156247.828865 kJ/mol
# GULP energy per Si atom -5580.279602 kJ/mol
# Density = 2.452384 g / cm^3
# Si number density = 24.579785 Si / 1000 Ang^3
#
#
#
# Elastic Constant Matrix: (Units=GPa)
#
#
# Indices 1 2 3 4 5 6 
#
# 1 55.3935 20.0966 51.7173 0.0000 5.4999 0.0000
# 2 20.0966 84.2732 23.2032 0.0000 12.7178 0.0000
# 3 51.7173 23.2032 151.1093 0.0000 7.5611 0.0000
# 4 0.0000 0.0000 0.0000 39.3130 0.0000 15.7320
# 5 5.4999 12.7178 7.5611 0.0000 36.7331 0.0000
# 6 0.0000 0.0000 0.0000 15.7320 0.0000 9.6568
#
#
#
# Elastic Compliance Matrix: (Units=1/GPa)
#
#
# Indices 1 2 3 4 5 6 
#
# 1 0.027915 -0.004069 -0.008882 0.000000 -0.000943 0.000000
# 2 -0.004069 0.013574 -0.000492 0.000000 -0.003989 0.000000
# 3 -0.008882 -0.000492 0.009759 0.000000 -0.000508 0.000000
# 4 0.000000 0.000000 0.000000 0.073078 0.000000 -0.119052
# 5 -0.000943 -0.003989 -0.000508 0.000000 0.028850 0.000000
# 6 0.000000 0.000000 0.000000 -0.119052 0.000000 0.297502
#
#
# Mechanical properties :
#
#
# Convention : Reuss Voigt Hill
#
# Bulk Modulus (GPa) = 41.04872 53.42337 47.23604
# Shear Modulus (GPa) = 10.29474 30.19119 20.24296
#
# Velocity S-wave (km/s) = 2.04875 3.50850 2.87289
# Velocity P-wave (km/s) = 4.72578 6.18018 5.50126
#
# Compressibility (1/GPa) = 0.02436130
#
# Stress axis : x y z
#
# Youngs Moduli (GPa) = 35.82306 73.67020 102.47401
#
# Poissons Ratio (x) = 0.29977 0.91017
# Poissons Ratio (y) = 0.14577 0.05042
# Poissons Ratio (z) = 0.31818 0.03625
#
# Static dielectric constant tensor:
#      x y z
#    x 2.007510 0.000000 0.079980 
#    y 0.000000 1.905330 0.000000 
#    z 0.079980 0.000000 2.198790 
# 
# From -- ./inp_files/18413.got.cif
#   From: 2010.05.17/outbox.cif.g08.bks.cpg/sg15_10_cif.got.tgz:18413.got - 2010.06.03 18:47:42.
