data_PCOD9259918
_publ_section_title
;
Structure prediction by ZEFSAII (Michael W. Deem and Ramdas Pophale) SiO2 
 PCOD9259918
Probable space group: C 2/C
;
_chemical_formula_sum "Si O2"
_cell_formula_units_Z 60
_cell_length_a 20.274769
_cell_length_b 21.919864
_cell_length_c 9.355340
_cell_angle_alpha 90.000000
_cell_angle_beta 45.450168
_cell_angle_gamma 90.000000
_cell_volume 2962.947061
_symmetry_space_group_name_H-M "C 2/C"
_symmetry_group_IT_number 15
_symmetry_cell_setting 'monoclinic'
loop_
_space_group_symop_operation_xyz
x,y,z
-x,y,1/2-z
-x,-y,-z
x,-y,1/2+z
1/2+x,1/2+y,z
1/2-x,1/2+y,1/2-z
1/2-x,1/2-y,-z
1/2+x,1/2-y,1/2+z
loop_
_atom_site_type_symbol
_atom_site_label
_atom_site_fract_x
_atom_site_fract_y
_atom_site_fract_z
Si Si1 0.777979 0.785139 0.761412
Si Si2 0.201096 0.153429 0.970862
Si Si3 0.470547 0.232184 0.516816
Si Si4 0.481680 0.098436 0.607390
Si Si5 0.000000 0.184969 0.250000
Si Si6 0.816342 0.535094 0.718767
Si Si7 0.675455 0.198339 0.146685
Si Si8 0.658889 0.932992 0.637674
O O1 0.733719 0.718508 0.857118
O O2 0.705877 0.815636 0.762847
O O3 0.885220 0.765615 0.566933
O O4 0.784096 0.830977 0.884894
O O5 0.251365 0.092768 0.844846
O O6 0.093278 0.147041 0.099728
O O7 0.443426 0.164664 0.614381
O O8 0.490221 0.272303 0.626709
O O9 0.570230 0.221120 0.292337
O O10 0.500000 0.099207 0.750000
O O11 0.406298 0.048917 0.678449
O O12 0.568634 0.083870 0.371233
O O13 0.779772 0.472708 0.845662
O O14 0.846485 0.533060 0.507226
O O15 0.691757 0.134952 0.042549
O O16 0.750000 0.250000 0.000000
#
# Coordination Sequence:
#
# PCOD9259918 Si02
#       8
#     8   8   8   8   4   8   8   8
#     4  10  20  36  59  97 120 165 210 259 314 379
#     4  10  21  34  67  87 128 157 214 260 313 372
#     4  10  20  33  61  93 129 165 208 255 320 374
#     4  11  22  37  64  93 132 170 210 255 308 382
#     4  10  18  36  58  96 118 162 204 260 314 370
#     4  12  24  44  61  88 127 169 216 257 315 384
#     4  11  24  40  61  91 136 164 211 263 327 373
#     4  11  27  40  64  90 126 174 210 260 316 379
#
# _framework density 20.250108999999998
#
# number of rings (size 3 to 8) (size 9 to 14) (size 15 to 20)
#    0.000    1.333    3.333    2.400    5.600    0.533 
#    0.000    0.000    0.000    2.400    0.000    0.000 
#    0.000    0.000    0.000    0.000    0.000    0.000 
#
# Total GULP energy -167286.532415 kJ/mol
# GULP energy per Si atom -5576.217747 kJ/mol
# Density = 2.020402 g / cm^3
# Si number density = 20.250109 Si / 1000 Ang^3
#
#
#
# Elastic Constant Matrix: (Units=GPa)
#
#
# Indices 1 2 3 4 5 6 
#
# 1 68.4531 -2.8991 38.4416 0.0000 -10.8339 0.0000
# 2 -2.8991 68.1911 40.2199 0.0000 -6.5014 0.0000
# 3 38.4416 40.2199 87.6643 0.0000 5.6215 0.0000
# 4 0.0000 0.0000 0.0000 16.3163 0.0000 -3.6605
# 5 -10.8339 -6.5014 5.6215 0.0000 34.0037 0.0000
# 6 0.0000 0.0000 0.0000 -3.6605 0.0000 22.0803
#
#
#
# Elastic Compliance Matrix: (Units=1/GPa)
#
#
# Indices 1 2 3 4 5 6 
#
# 1 0.029385 0.014992 -0.020768 0.000000 0.015662 0.000000
# 2 0.014992 0.028796 -0.020664 0.000000 0.013698 0.000000
# 3 -0.020768 -0.020664 0.031001 0.000000 -0.015693 0.000000
# 4 0.000000 0.000000 0.000000 0.063656 0.000000 0.010553
# 5 0.015662 0.013698 -0.015693 0.000000 0.039612 0.000000
# 6 0.000000 0.000000 0.000000 0.010553 0.000000 0.047039
#
#
# Mechanical properties :
#
#
# Convention : Reuss Voigt Hill
#
# Bulk Modulus (GPa) = 27.54701 41.75926 34.65313
# Shear Modulus (GPa) = 16.42201 24.38315 20.40258
#
# Velocity S-wave (km/s) = 2.85082 3.47378 3.17760
# Velocity P-wave (km/s) = 4.94663 6.06267 5.53287
#
# Compressibility (1/GPa) = 0.03630159
#
# Stress axis : x y z
#
# Youngs Moduli (GPa) = 34.03077 34.72728 32.25706
#
# Poissons Ratio (x) = -0.52063 0.66992
# Poissons Ratio (y) = -0.51018 0.66655
# Poissons Ratio (z) = 0.70676 0.71760
#
# Static dielectric constant tensor:
#      x y z
#    x 1.786360 0.000000 0.005430 
#    y 0.000000 1.810700 0.000000 
#    z 0.005430 0.000000 1.954450 
# 
# From -- ./inp_files/58071.got.cif
#   From: 2010.05.17/outbox.cif.g08.bks.cpg/sg15_30_cif.got.tgz:58071.got - 2010.06.03 18:47:42.
