data_PCOD9259051
_publ_section_title
;
Structure prediction by ZEFSAII (Michael W. Deem and Ramdas Pophale) SiO2 
 PCOD9259051
Probable space group: C 2/C
;
_chemical_formula_sum "Si O2"
_cell_formula_units_Z 48
_cell_length_a 23.538821
_cell_length_b 11.625513
_cell_length_c 11.944501
_cell_angle_alpha 90.000000
_cell_angle_beta 129.692210
_cell_angle_gamma 90.000000
_cell_volume 2515.160996
_symmetry_space_group_name_H-M "C 2/C"
_symmetry_group_IT_number 15
_symmetry_cell_setting 'monoclinic'
loop_
_space_group_symop_operation_xyz
x,y,z
-x,y,1/2-z
-x,-y,-z
x,-y,1/2+z
1/2+x,1/2+y,z
1/2-x,1/2+y,1/2-z
1/2-x,1/2-y,-z
1/2+x,1/2-y,1/2+z
loop_
_atom_site_type_symbol
_atom_site_label
_atom_site_fract_x
_atom_site_fract_y
_atom_site_fract_z
Si Si1 0.403852 0.811957 0.444997
Si Si2 0.424133 0.058459 0.582854
Si Si3 0.669708 0.802165 0.378740
Si Si4 0.590159 0.340484 0.346750
Si Si5 0.914811 0.095072 0.112300
Si Si6 0.935495 0.234797 0.926651
O O1 0.347584 0.826196 0.272365
O O2 0.375901 0.733296 0.510757
O O3 0.477016 0.749664 0.487288
O O4 0.425092 0.933231 0.528354
O O5 0.500000 0.075113 0.750000
O O6 0.356581 0.087727 0.581618
O O7 0.417780 0.150819 0.474744
O O8 0.750000 0.750000 0.500000
O O9 0.618358 0.699182 0.359335
O O10 0.500000 0.338510 0.250000
O O11 0.616507 0.471404 0.393557
O O12 0.601954 0.284951 0.240254
O O13 0.000000 0.090369 0.250000
O O14 0.913566 0.129275 0.980020
#
# Coordination Sequence:
#
# PCOD9259051 Si02
#       6
#     8   8   8   8   8   8
#     4  11  21  36  61  89 121 148 197 250 297 356
#     4  11  21  38  67  90 117 157 201 254 309 346
#     4  11  24  42  58  83 122 162 198 241 305 365
#     4   9  21  30  56  94 117 145 192 247 299 346
#     4  10  19  37  61  83 114 158 197 241 297 343
#     4  10  18  34  58  92 121 143 192 256 299 350
#
# _framework density 19.084264999999998
#
# number of rings (size 3 to 8) (size 9 to 14) (size 15 to 20)
#    0.000    1.667    3.333    3.000    4.667    2.000 
#    3.000    0.000    0.000    5.000    0.000    0.000 
#    0.000    0.000    0.000    0.000    0.000    0.000 
#
# Total GULP energy -133825.920261 kJ/mol
# GULP energy per Si atom -5576.080011 kJ/mol
# Density = 1.904083 g / cm^3
# Si number density = 19.084265 Si / 1000 Ang^3
#
#
#
# Elastic Constant Matrix: (Units=GPa)
#
#
# Indices 1 2 3 4 5 6 
#
# 1 40.8750 20.4503 43.0761 0.0000 -16.8290 0.0000
# 2 20.4503 86.3773 31.3763 0.0000 -20.5978 0.0000
# 3 43.0761 31.3763 85.5234 0.0000 -33.5454 0.0000
# 4 0.0000 0.0000 0.0000 22.2258 0.0000 -9.6283
# 5 -16.8290 -20.5978 -33.5454 0.0000 36.0433 0.0000
# 6 0.0000 0.0000 0.0000 -9.6283 0.0000 6.6987
#
#
#
# Elastic Compliance Matrix: (Units=1/GPa)
#
#
# Indices 1 2 3 4 5 6 
#
# 1 0.052981 -0.003444 -0.025972 0.000000 -0.001403 0.000000
# 2 -0.003444 0.014139 -0.001440 0.000000 0.005132 0.000000
# 3 -0.025972 -0.001440 0.031850 0.000000 0.016694 0.000000
# 4 0.000000 0.000000 0.000000 0.119238 0.000000 0.171386
# 5 -0.001403 0.005132 0.016694 0.000000 0.045559 0.000000
# 6 0.000000 0.000000 0.000000 0.171386 0.000000 0.395623
#
#
# Mechanical properties :
#
#
# Convention : Reuss Voigt Hill
#
# Bulk Modulus (GPa) = 26.83880 44.73122 35.78501
# Shear Modulus (GPa) = 6.81643 20.85176 13.83410
#
# Velocity S-wave (km/s) = 1.89196 3.30906 2.69531
# Velocity P-wave (km/s) = 4.34356 6.17167 5.33648
#
# Compressibility (1/GPa) = 0.03725949
#
# Stress axis : x y z
#
# Youngs Moduli (GPa) = 18.87470 70.72489 31.39695
#
# Poissons Ratio (x) = 0.24356 0.81544
# Poissons Ratio (y) = 0.06500 0.04520
# Poissons Ratio (z) = 0.49022 0.10182
#
# Static dielectric constant tensor:
#      x y z
#    x 1.659960 0.000000 -0.014700 
#    y 0.000000 1.687210 0.000000 
#    z -0.014700 0.000000 1.655730 
# 
# From -- ./inp_files/110540.got.cif
#   From: 2010.05.17/outbox.cif.g08.bks.cpg/sg15_56_cif.got.tgz:110540.got - 2010.06.03 18:47:42.
