data_PCOD9259807
_publ_section_title
;
Structure prediction by ZEFSAII (Michael W. Deem and Ramdas Pophale) SiO2 
 PCOD9259807
Probable space group: C 2/C
;
_chemical_formula_sum "Si O2"
_cell_formula_units_Z 44
_cell_length_a 11.746156
_cell_length_b 20.402139
_cell_length_c 10.678912
_cell_angle_alpha 90.000000
_cell_angle_beta 74.876002
_cell_angle_gamma 90.000000
_cell_volume 2470.525378
_symmetry_space_group_name_H-M "C 2/C"
_symmetry_group_IT_number 15
_symmetry_cell_setting 'monoclinic'
loop_
_space_group_symop_operation_xyz
x,y,z
-x,y,1/2-z
-x,-y,-z
x,-y,1/2+z
1/2+x,1/2+y,z
1/2-x,1/2+y,1/2-z
1/2-x,1/2-y,-z
1/2+x,1/2-y,1/2+z
loop_
_atom_site_type_symbol
_atom_site_label
_atom_site_fract_x
_atom_site_fract_y
_atom_site_fract_z
Si Si1 0.375517 0.035950 0.012511
Si Si2 0.000000 0.349579 0.750000
Si Si3 0.625622 0.814395 0.947512
Si Si4 0.483224 0.556345 0.107865
Si Si5 0.286053 0.050386 0.314217
Si Si6 0.104390 0.186320 0.120672
O O1 0.396280 0.113675 0.987451
O O2 0.305434 0.028031 0.164278
O O3 0.500000 0.000000 0.000000
O O4 0.310605 0.005015 0.911625
O O5 0.962520 0.308257 0.642371
O O6 0.888098 0.396171 0.808092
O O7 0.762528 0.817959 0.865980
O O8 0.607106 0.751886 0.038597
O O9 0.500000 0.535825 0.250000
O O10 0.346203 0.576601 0.135397
O O11 0.570827 0.617927 0.061917
O O12 0.500000 0.500000 0.000000
O O13 0.000000 0.192545 0.250000
#
# Coordination Sequence:
#
# PCOD9259807 Si02
#       6
#     8   4   8   8   8   8
#     4  11  19  35  57  89 117 147 184 240 283 336
#     4  10  18  36  56  84 116 146 178 240 290 322
#     4  10  21  37  58  83 114 146 191 234 278 336
#     4  11  22  40  60  83 116 153 193 231 280 344
#     4  11  20  34  58  86 116 150 190 230 291 333
#     4  10  21  40  59  80 111 155 188 225 284 341
#
# _framework density 17.809975999999999
#
# number of rings (size 3 to 8) (size 9 to 14) (size 15 to 20)
#    0.000    1.455    3.636    6.545    0.000    1.455 
#    1.636    3.636    0.000    0.000    0.000    0.000 
#    0.000    0.000    0.000    0.000    0.000    0.000 
#
# Total GULP energy -122642.809342 kJ/mol
# GULP energy per Si atom -5574.673152 kJ/mol
# Density = 1.776944 g / cm^3
# Si number density = 17.809976 Si / 1000 Ang^3
#
#
#
# Elastic Constant Matrix: (Units=GPa)
#
#
# Indices 1 2 3 4 5 6 
#
# 1 105.9262 30.8079 24.7347 0.0000 -2.7044 0.0000
# 2 30.8079 96.5088 53.0732 0.0000 11.6050 0.0000
# 3 24.7347 53.0732 67.4818 0.0000 9.3691 0.0000
# 4 0.0000 0.0000 0.0000 32.9561 0.0000 4.9698
# 5 -2.7044 11.6050 9.3691 0.0000 39.4945 0.0000
# 6 0.0000 0.0000 0.0000 4.9698 0.0000 25.5653
#
#
#
# Elastic Compliance Matrix: (Units=1/GPa)
#
#
# Indices 1 2 3 4 5 6 
#
# 1 0.010729 -0.002378 -0.002338 0.000000 0.001988 0.000000
# 2 -0.002378 0.018944 -0.013683 0.000000 -0.002483 0.000000
# 3 -0.002338 -0.013683 0.026783 0.000000 -0.002493 0.000000
# 4 0.000000 0.000000 0.000000 0.031260 0.000000 -0.006077
# 5 0.001988 -0.002483 -0.002493 0.000000 0.026777 0.000000
# 6 0.000000 0.000000 0.000000 -0.006077 0.000000 0.040297
#
#
# Mechanical properties :
#
#
# Convention : Reuss Voigt Hill
#
# Bulk Modulus (GPa) = 50.86962 54.12761 52.49862
# Shear Modulus (GPa) = 25.23455 30.35659 27.79557
#
# Velocity S-wave (km/s) = 3.76823 4.13300 3.95482
# Velocity P-wave (km/s) = 6.89617 7.29612 7.09896
#
# Compressibility (1/GPa) = 0.01965810
#
# Stress axis : x y z
#
# Youngs Moduli (GPa) = 93.20562 52.78690 37.33673
#
# Poissons Ratio (x) = 0.12553 0.08730
# Poissons Ratio (y) = 0.22165 0.51087
# Poissons Ratio (z) = 0.21794 0.72227
#
# Static dielectric constant tensor:
#      x y z
#    x 1.581500 0.000000 -0.068560 
#    y 0.000000 1.614770 0.000000 
#    z -0.068560 0.000000 1.511560 
# 
# From -- ./inp_files/87202.got.cif
#   From: 2010.05.17/outbox.cif.g08.bks.cpg/sg15_44_cif.got.tgz:87202.got - 2010.06.03 18:47:42.
