data_PCOD9259527
_publ_section_title
;
Structure prediction by ZEFSAII (Michael W. Deem and Ramdas Pophale) SiO2 
 PCOD9259527
Probable space group: C 2/C
;
_chemical_formula_sum "Si O2"
_cell_formula_units_Z 56
_cell_length_a 11.366568
_cell_length_b 17.606326
_cell_length_c 19.495253
_cell_angle_alpha 90.000000
_cell_angle_beta 47.298333
_cell_angle_gamma 90.000000
_cell_volume 2867.161665
_symmetry_space_group_name_H-M "C 2/C"
_symmetry_group_IT_number 15
_symmetry_cell_setting 'monoclinic'
loop_
_space_group_symop_operation_xyz
x,y,z
-x,y,1/2-z
-x,-y,-z
x,-y,1/2+z
1/2+x,1/2+y,z
1/2-x,1/2+y,1/2-z
1/2-x,1/2-y,-z
1/2+x,1/2-y,1/2+z
loop_
_atom_site_type_symbol
_atom_site_label
_atom_site_fract_x
_atom_site_fract_y
_atom_site_fract_z
Si Si1 0.888115 0.847951 0.433070
Si Si2 0.598176 0.547782 0.776981
Si Si3 0.697787 0.247667 0.279482
Si Si4 0.675591 0.381847 0.687472
Si Si5 0.849602 0.319661 0.492327
Si Si6 0.079538 0.620206 0.787841
Si Si7 0.169684 0.254887 0.424798
O O1 0.831023 0.822467 0.530775
O O2 0.747169 0.823381 0.437738
O O3 0.970267 0.929637 0.387283
O O4 0.030628 0.788713 0.358379
O O5 0.500000 0.582296 0.750000
O O6 0.639499 0.463315 0.735548
O O7 0.770125 0.579098 0.734151
O O8 0.712099 0.165486 0.306452
O O9 0.834639 0.299144 0.261611
O O10 0.738688 0.246417 0.183037
O O11 0.500000 0.345684 0.750000
O O12 0.752097 0.374687 0.581780
O O13 0.750000 0.250000 0.500000
O O14 0.938484 0.366116 0.397733
O O15 0.989678 0.278731 0.479495
O O16 0.000000 0.588205 0.750000
#
# Coordination Sequence:
#
# PCOD9259527 Si02
#       7
#     8   8   8   8   8   8   8
#     4  10  19  36  60  88 119 154 203 252 303 372
#     4  10  22  40  62  80 122 165 201 238 304 376
#     4  10  18  35  59  87 120 150 198 257 307 360
#     4  11  22  38  57  85 120 162 201 246 304 369
#     4  11  21  35  62  93 120 148 203 260 308 358
#     4  10  21  37  63  90 117 154 201 258 307 359
#     4  10  20  33  60  95 113 152 201 257 309 356
#
# _framework density 19.531510000000001
#
# number of rings (size 3 to 8) (size 9 to 14) (size 15 to 20)
#    0.000    1.714    1.429    6.000    2.000    0.571 
#    0.000    2.143    3.143    0.000    0.000    0.000 
#    0.000    0.000    0.000    0.000    0.000    0.000 
#
# Total GULP energy -155965.167462 kJ/mol
# GULP energy per Si atom -5570.184552 kJ/mol
# Density = 1.948706 g / cm^3
# Si number density = 19.531510 Si / 1000 Ang^3
#
#
#
# Elastic Constant Matrix: (Units=GPa)
#
#
# Indices 1 2 3 4 5 6 
#
# 1 125.6858 28.4084 28.9916 0.0000 0.3958 0.0000
# 2 28.4084 78.9915 8.2128 -0.0001 1.9601 0.0000
# 3 28.9916 8.2128 43.4940 -0.0003 -4.0098 0.0002
# 4 0.0000 -0.0001 -0.0003 22.9151 0.0001 -0.6476
# 5 0.3958 1.9601 -4.0098 0.0001 23.7688 -0.0001
# 6 0.0000 0.0000 0.0002 -0.6476 -0.0001 14.2718
#
#
#
# Elastic Compliance Matrix: (Units=1/GPa)
#
#
# Indices 1 2 3 4 5 6 
#
# 1 0.010066 -0.002947 -0.006243 0.000000 -0.000978 0.000000
# 2 -0.002947 0.013829 -0.000760 0.000000 -0.001219 0.000000
# 3 -0.006243 -0.000760 0.027743 0.000000 0.004847 0.000000
# 4 0.000000 0.000000 0.000000 0.043695 0.000000 0.001983
# 5 -0.000978 -0.001219 0.004847 0.000000 0.043007 0.000000
# 6 0.000000 0.000000 0.000000 0.001983 0.000000 0.070158
#
#
# Mechanical properties :
#
#
# Convention : Reuss Voigt Hill
#
# Bulk Modulus (GPa) = 31.50693 42.15521 36.83107
# Shear Modulus (GPa) = 20.92264 24.36170 22.64217
#
# Velocity S-wave (km/s) = 3.27651 3.53555 3.40849
# Velocity P-wave (km/s) = 5.52090 6.18844 5.86418
#
# Compressibility (1/GPa) = 0.03173905
#
# Stress axis : x y z
#
# Youngs Moduli (GPa) = 99.34917 72.31429 36.04463
#
# Poissons Ratio (x) = 0.21308 0.22503
# Poissons Ratio (y) = 0.29274 0.02738
# Poissons Ratio (z) = 0.62024 0.05492
#
# Static dielectric constant tensor:
#      x y z
#    x 1.712240 0.000000 0.024230 
#    y 0.000000 1.722180 0.000000 
#    z 0.024230 0.000000 1.723770 
# 
# From -- ./inp_files/192039.got.cif
#   From: 2010.05.17/outbox.cif.g08.bks.cpg/sg15_97_cif.got.tgz:192039.got - 2010.06.03 18:47:42.
