data_PCOD9259382
_publ_section_title
;
Structure prediction by ZEFSAII (Michael W. Deem and Ramdas Pophale) SiO2 
 PCOD9259382
Probable space group: C 2/C
;
_chemical_formula_sum "Si O2"
_cell_formula_units_Z 56
_cell_length_a 14.197267
_cell_length_b 8.531245
_cell_length_c 22.739295
_cell_angle_alpha 90.000000
_cell_angle_beta 106.695544
_cell_angle_gamma 90.000000
_cell_volume 2638.088278
_symmetry_space_group_name_H-M "C 2/C"
_symmetry_group_IT_number 15
_symmetry_cell_setting 'monoclinic'
loop_
_space_group_symop_operation_xyz
x,y,z
-x,y,1/2-z
-x,-y,-z
x,-y,1/2+z
1/2+x,1/2+y,z
1/2-x,1/2+y,1/2-z
1/2-x,1/2-y,-z
1/2+x,1/2-y,1/2+z
loop_
_atom_site_type_symbol
_atom_site_label
_atom_site_fract_x
_atom_site_fract_y
_atom_site_fract_z
Si Si1 0.479663 0.704053 0.843471
Si Si2 0.691453 0.541830 0.872866
Si Si3 0.998683 0.517043 0.906597
Si Si4 0.901858 0.935323 0.451291
Si Si5 0.147693 0.211364 0.132637
Si Si6 0.846246 0.607645 0.479481
Si Si7 0.394585 0.445604 0.753348
O O1 0.586017 0.619942 0.864581
O O2 0.491309 0.891097 0.852511
O O3 0.429236 0.644175 0.894059
O O4 0.419090 0.625768 0.778860
O O5 0.764496 0.670701 0.860871
O O6 0.744501 0.463012 0.937655
O O7 0.675713 0.426898 0.814896
O O8 0.953451 0.688250 0.887126
O O9 0.926881 0.448767 0.944875
O O10 0.107901 0.538333 0.952498
O O11 0.849964 0.796481 0.478054
O O12 0.845357 0.089419 0.419878
O O13 0.000000 0.000000 0.500000
O O14 0.147555 0.132712 0.196178
O O15 0.500000 0.382297 0.750000
#
# Coordination Sequence:
#
# PCOD9259382 Si02
#       7
#     8   8   8   8   8   8   8
#     4   9  20  36  57  76 108 150 183 221 280 333
#     4  10  21  37  55  83 111 143 187 231 280 324
#     4   9  17  33  53  81 106 143 182 217 275 333
#     4  10  18  35  56  78 110 151 183 214 279 339
#     4  10  20  34  59  82 106 141 188 232 271 329
#     4   9  18  32  54  78 113 144 176 223 271 332
#     4   9  20  40  57  73 107 149 180 220 278 331
#
# _framework density 21.227492999999999
#
# number of rings (size 3 to 8) (size 9 to 14) (size 15 to 20)
#    0.000    2.571    1.429    0.000    2.000    5.143 
#    0.000    8.571    0.000    0.000    0.000    0.000 
#    0.000    0.000    0.000    0.000    0.000    0.000 
#
# Total GULP energy -156095.778666 kJ/mol
# GULP energy per Si atom -5574.849238 kJ/mol
# Density = 2.117918 g / cm^3
# Si number density = 21.227493 Si / 1000 Ang^3
#
#
#
# Elastic Constant Matrix: (Units=GPa)
#
#
# Indices 1 2 3 4 5 6 
#
# 1 31.2416 10.5712 13.6453 0.0000 3.3765 0.0000
# 2 10.5712 72.8554 8.4459 0.0000 4.1364 0.0000
# 3 13.6453 8.4459 45.7278 0.0000 12.9286 0.0000
# 4 0.0000 0.0000 0.0000 17.8900 0.0000 -11.8039
# 5 3.3765 4.1364 12.9286 0.0000 31.1102 0.0000
# 6 0.0000 0.0000 0.0000 -11.8039 0.0000 8.3512
#
#
#
# Elastic Compliance Matrix: (Units=1/GPa)
#
#
# Indices 1 2 3 4 5 6 
#
# 1 0.038104 -0.004326 -0.010838 0.000000 0.000944 0.000000
# 2 -0.004326 0.014539 -0.001111 0.000000 -0.001002 0.000000
# 3 -0.010838 -0.001111 0.028253 0.000000 -0.010417 0.000000
# 4 0.000000 0.000000 0.000000 0.829395 0.000000 1.172308
# 5 0.000944 -0.001002 -0.010417 0.000000 0.036504 0.000000
# 6 0.000000 0.000000 0.000000 1.172308 0.000000 1.776743
#
#
# Mechanical properties :
#
#
# Convention : Reuss Voigt Hill
#
# Bulk Modulus (GPa) = 20.68436 23.90550 22.29493
# Shear Modulus (GPa) = 1.80362 19.28110 10.54236
#
# Velocity S-wave (km/s) = 0.92277 3.01708 2.23095
# Velocity P-wave (km/s) = 3.30161 4.83974 4.14269
#
# Compressibility (1/GPa) = 0.04834570
#
# Stress axis : x y z
#
# Youngs Moduli (GPa) = 26.24392 68.77947 35.39429
#
# Poissons Ratio (x) = 0.29754 0.38361
# Poissons Ratio (y) = 0.11353 0.03933
# Poissons Ratio (z) = 0.28443 0.07643
#
# Static dielectric constant tensor:
#      x y z
#    x 1.770430 0.000000 -0.006500 
#    y 0.000000 1.830370 0.000000 
#    z -0.006500 0.000000 1.798800 
# 
# From -- ./inp_files/247036.got.cif
#   From: 2010.05.17/outbox.cif.g08.bks.cpg/sg15_124_cif.got.tgz:247036.got - 2010.06.03 18:47:42.
