data_PCOD9259007
_publ_section_title
;
Structure prediction by ZEFSAII (Michael W. Deem and Ramdas Pophale) SiO2 
 PCOD9259007
Probable space group: C 2/C
;
_chemical_formula_sum "Si O2"
_cell_formula_units_Z 52
_cell_length_a 16.998133
_cell_length_b 8.642922
_cell_length_c 18.827687
_cell_angle_alpha 90.000000
_cell_angle_beta 101.647507
_cell_angle_gamma 90.000000
_cell_volume 2709.084285
_symmetry_space_group_name_H-M "C 2/C"
_symmetry_group_IT_number 15
_symmetry_cell_setting 'monoclinic'
loop_
_space_group_symop_operation_xyz
x,y,z
-x,y,1/2-z
-x,-y,-z
x,-y,1/2+z
1/2+x,1/2+y,z
1/2-x,1/2+y,1/2-z
1/2-x,1/2-y,-z
1/2+x,1/2-y,1/2+z
loop_
_atom_site_type_symbol
_atom_site_label
_atom_site_fract_x
_atom_site_fract_y
_atom_site_fract_z
Si Si1 0.103278 0.748991 0.106165
Si Si2 0.339222 0.027465 0.780058
Si Si3 0.259955 0.668064 0.613076
Si Si4 0.838718 0.457447 0.007877
Si Si5 0.500000 0.016693 0.750000
Si Si6 0.070369 0.705573 0.384192
Si Si7 0.760200 0.987713 0.381761
O O1 0.136101 0.626579 0.171315
O O2 0.158739 0.898263 0.117423
O O3 0.010860 0.785288 0.104857
O O4 0.114935 0.664329 0.032382
O O5 0.281047 0.127110 0.819474
O O6 0.290440 0.995277 0.699520
O O7 0.425641 0.102433 0.774659
O O8 0.227211 0.538964 0.554043
O O9 0.356156 0.686438 0.627172
O O10 0.228541 0.839102 0.586834
O O11 0.896882 0.591776 0.048277
O O12 0.792943 0.396419 0.069452
O O13 0.456724 0.906300 0.684900
#
# Coordination Sequence:
#
# PCOD9259007 Si02
#       7
#     8   8   8   8   4   8   8
#     4  10  22  34  59  86 108 146 194 233 269 324
#     4  10  20  35  58  82 110 144 189 228 280 330
#     4  10  21  37  59  80 115 152 182 224 288 339
#     4  10  20  38  57  82 113 152 187 226 280 332
#     4  10  18  34  58  84 102 142 190 232 264 322
#     4  10  19  35  58  85 110 143 190 228 273 331
#     4  11  19  35  57  82 113 147 183 231 280 330
#
# _framework density 19.194678
#
# number of rings (size 3 to 8) (size 9 to 14) (size 15 to 20)
#    0.000    1.846    3.077    3.692    2.154    0.000 
#    0.000    3.077   10.154    0.000    0.000    0.000 
#    0.000    0.000    0.000    0.000    0.000    0.000 
#
# Total GULP energy -144993.582012 kJ/mol
# GULP energy per Si atom -5576.676231 kJ/mol
# Density = 1.915099 g / cm^3
# Si number density = 19.194678 Si / 1000 Ang^3
#
#
#
# Elastic Constant Matrix: (Units=GPa)
#
#
# Indices 1 2 3 4 5 6 
#
# 1 190.2141 41.2327 21.7384 0.0000 -13.9500 0.0000
# 2 41.2327 26.2836 -7.2900 0.0000 -7.2299 0.0000
# 3 21.7384 -7.2900 68.3842 0.0000 -6.7434 0.0000
# 4 0.0000 0.0000 0.0000 14.3628 0.0000 -9.1312
# 5 -13.9500 -7.2299 -6.7434 0.0000 29.7545 0.0000
# 6 0.0000 0.0000 0.0000 -9.1312 0.0000 18.2119
#
#
#
# Elastic Compliance Matrix: (Units=1/GPa)
#
#
# Indices 1 2 3 4 5 6 
#
# 1 0.009189 -0.015879 -0.004674 0.000000 -0.000610 0.000000
# 2 -0.015879 0.070295 0.013800 0.000000 0.012764 0.000000
# 3 -0.004674 0.013800 0.018099 0.000000 0.005264 0.000000
# 4 0.000000 0.000000 0.000000 0.102203 0.000000 0.051243
# 5 -0.000610 0.012764 0.005264 0.000000 0.037617 0.000000
# 6 0.000000 0.000000 0.000000 0.051243 0.000000 0.080602
#
#
# Mechanical properties :
#
#
# Convention : Reuss Voigt Hill
#
# Bulk Modulus (GPa) = 11.89377 44.02713 27.96045
# Shear Modulus (GPa) = 13.90680 27.74588 20.82634
#
# Velocity S-wave (km/s) = 2.69460 3.80610 3.29752
# Velocity P-wave (km/s) = 3.98635 6.50401 5.39412
#
# Compressibility (1/GPa) = 0.08407765
#
# Stress axis : x y z
#
# Youngs Moduli (GPa) = 108.82878 14.22572 55.25107
#
# Poissons Ratio (x) = 0.22589 0.25823
# Poissons Ratio (y) = 1.72809 -0.76247
# Poissons Ratio (z) = 0.50865 -0.19632
#
# Static dielectric constant tensor:
#      x y z
#    x 1.698740 0.000000 -0.040730 
#    y 0.000000 1.662930 0.000000 
#    z -0.040730 0.000000 1.713190 
# 
# From -- ./inp_files/209200.got.cif
#   From: 2010.05.17/outbox.cif.g08.bks.cpg/sg15_105_cif.got.tgz:209200.got - 2010.06.03 18:47:42.
