data_PCOD9259480
_publ_section_title
;
Structure prediction by ZEFSAII (Michael W. Deem and Ramdas Pophale) SiO2 
 PCOD9259480
Probable space group: C 2/C
;
_chemical_formula_sum "Si O2"
_cell_formula_units_Z 52
_cell_length_a 9.331295
_cell_length_b 21.188746
_cell_length_c 14.443528
_cell_angle_alpha 90.000000
_cell_angle_beta 92.826557
_cell_angle_gamma 90.000000
_cell_volume 2852.277476
_symmetry_space_group_name_H-M "C 2/C"
_symmetry_group_IT_number 15
_symmetry_cell_setting 'monoclinic'
loop_
_space_group_symop_operation_xyz
x,y,z
-x,y,1/2-z
-x,-y,-z
x,-y,1/2+z
1/2+x,1/2+y,z
1/2-x,1/2+y,1/2-z
1/2-x,1/2-y,-z
1/2+x,1/2-y,1/2+z
loop_
_atom_site_type_symbol
_atom_site_label
_atom_site_fract_x
_atom_site_fract_y
_atom_site_fract_z
Si Si1 0.908470 0.188284 0.937217
Si Si2 0.063594 0.306161 0.445500
Si Si3 0.500000 0.042808 0.250000
Si Si4 0.069253 0.562490 0.048417
Si Si5 0.379026 0.446680 0.488294
Si Si6 0.260781 0.939703 0.219974
Si Si7 0.000000 0.870642 0.250000
Si Si8 0.500000 0.834124 0.250000
O O1 0.735765 0.196774 0.934307
O O2 0.941360 0.124381 0.995769
O O3 0.956900 0.172343 0.835025
O O4 0.973214 0.250871 0.984053
O O5 0.036116 0.375977 0.485188
O O6 0.985022 0.296809 0.344954
O O7 0.510306 0.075094 0.149987
O O8 0.358795 0.998716 0.246254
O O9 0.241391 0.550630 0.051624
O O10 0.000000 0.500000 0.000000
O O11 0.500000 0.500000 0.500000
O O12 0.307495 0.449721 0.383480
O O13 0.130044 0.917760 0.279865
O O14 0.367508 0.880452 0.226478
#
# Coordination Sequence:
#
# PCOD9259480 Si02
#       8
#     8   8   4   8   8   8   4   4
#     4   9  20  38  60  89 114 161 195 241 308 351
#     4  10  20  38  64  83 121 155 200 248 296 357
#     4  11  22  33  58  90 122 154 200 252 308 342
#     4  11  20  37  58  89 120 156 201 247 297 357
#     4  10  20  38  61  84 119 160 196 248 300 352
#     4  10  20  35  56  90 115 156 202 240 293 355
#     4  10  18  35  58  86 118 155 206 234 288 377
#     4  11  16  38  64  88 108 155 210 240 288 361
#
# _framework density 18.231045000000002
#
# number of rings (size 3 to 8) (size 9 to 14) (size 15 to 20)
#    0.000    1.846    6.154    0.923    4.308    0.615 
#    0.000    0.769   10.154    0.000    0.000    0.000 
#    0.000    0.000    0.000    0.000    0.000    0.000 
#
# Total GULP energy -144821.851257 kJ/mol
# GULP energy per Si atom -5570.071202 kJ/mol
# Density = 1.818955 g / cm^3
# Si number density = 18.231045 Si / 1000 Ang^3
#
#
#
# Elastic Constant Matrix: (Units=GPa)
#
#
# Indices 1 2 3 4 5 6 
#
# 1 65.1119 36.7065 28.4225 0.0000 -9.8345 0.0000
# 2 36.7065 103.0079 48.2238 0.0000 -0.3082 0.0000
# 3 28.4225 48.2238 117.1699 0.0000 -13.3012 0.0000
# 4 0.0000 0.0000 0.0000 19.8390 0.0000 -1.9743
# 5 -9.8345 -0.3082 -13.3012 0.0000 36.6023 0.0000
# 6 0.0000 0.0000 0.0000 -1.9743 0.0000 22.3909
#
#
#
# Elastic Compliance Matrix: (Units=1/GPa)
#
#
# Indices 1 2 3 4 5 6 
#
# 1 0.020500 -0.006464 -0.001766 0.000000 0.004812 0.000000
# 2 -0.006464 0.014174 -0.004641 0.000000 -0.003304 0.000000
# 3 -0.001766 -0.004641 0.011280 0.000000 0.003586 0.000000
# 4 0.000000 0.000000 0.000000 0.050852 0.000000 0.004484
# 5 0.004812 -0.003304 0.003586 0.000000 0.029889 0.000000
# 6 0.000000 0.000000 0.000000 0.004484 0.000000 0.045056
#
#
# Mechanical properties :
#
#
# Convention : Reuss Voigt Hill
#
# Bulk Modulus (GPa) = 49.47429 56.88836 53.18132
# Shear Modulus (GPa) = 24.48222 27.22891 25.85557
#
# Velocity S-wave (km/s) = 3.66852 3.86884 3.77001
# Velocity P-wave (km/s) = 6.71865 7.15745 6.94152
#
# Compressibility (1/GPa) = 0.02021252
#
# Stress axis : x y z
#
# Youngs Moduli (GPa) = 48.78085 70.55150 88.65184
#
# Poissons Ratio (x) = 0.45603 0.15658
# Poissons Ratio (y) = 0.31531 0.41141
# Poissons Ratio (z) = 0.08616 0.32741
#
# Static dielectric constant tensor:
#      x y z
#    x 1.666200 0.000000 -0.024840 
#    y 0.000000 1.629760 0.000000 
#    z -0.024840 0.000000 1.679330 
# 
# From -- ./inp_files/136930.got.cif
#   From: 2010.05.17/outbox.cif.g08.bks.cpg/sg15_69_cif.got.tgz:136930.got - 2010.06.03 18:47:42.
