data_PCOD9259057
_publ_section_title
;
Structure prediction by ZEFSAII (Michael W. Deem and Ramdas Pophale) SiO2 
 PCOD9259057
Probable space group: C 2/C
;
_chemical_formula_sum "Si O2"
_cell_formula_units_Z 44
_cell_length_a 28.182753
_cell_length_b 13.736152
_cell_length_c 18.187119
_cell_angle_alpha 90.000000
_cell_angle_beta 161.881570
_cell_angle_gamma 90.000000
_cell_volume 2189.514810
_symmetry_space_group_name_H-M "C 2/C"
_symmetry_group_IT_number 15
_symmetry_cell_setting 'monoclinic'
loop_
_space_group_symop_operation_xyz
x,y,z
-x,y,1/2-z
-x,-y,-z
x,-y,1/2+z
1/2+x,1/2+y,z
1/2-x,1/2+y,1/2-z
1/2-x,1/2-y,-z
1/2+x,1/2-y,1/2+z
loop_
_atom_site_type_symbol
_atom_site_label
_atom_site_fract_x
_atom_site_fract_y
_atom_site_fract_z
Si Si1 0.315322 0.276426 0.772048
Si Si2 0.720815 0.428692 0.996761
Si Si3 0.524243 0.908209 0.369091
Si Si4 0.994504 0.958527 0.073588
Si Si5 0.250000 0.750000 0.000000
Si Si6 0.707775 0.054112 0.732737
O O1 0.158289 0.330463 0.563517
O O2 0.321742 0.272388 0.693165
O O3 0.319298 0.168874 0.811128
O O4 0.448421 0.346059 0.999512
O O5 0.622849 0.330885 0.852738
O O6 0.771866 0.465287 0.150433
O O7 0.860953 0.370573 0.159682
O O8 0.649305 0.512883 0.843258
O O9 0.500000 0.942819 0.250000
O O10 0.573111 0.993925 0.495648
O O11 0.859644 0.014773 0.917439
O O12 0.000000 0.000000 0.000000
#
# Coordination Sequence:
#
# PCOD9259057 Si02
#       6
#     8   8   8   8   4   8
#     4  10  22  38  62  92 125 158 215 252 314 364
#     4  11  21  36  59  88 123 156 204 251 313 367
#     4  11  21  40  60  86 123 164 200 259 312 369
#     4  11  21  40  60  91 126 166 198 262 315 372
#     4  10  18  34  58  94 114 156 200 260 296 356
#     4  10  24  38  59  91 119 160 209 256 306 378
#
# _framework density 20.095776999999998
#
# number of rings (size 3 to 8) (size 9 to 14) (size 15 to 20)
#    0.000    1.455    3.636    2.182    2.545    0.000 
#    0.000    4.545    0.000    0.000    0.000    0.000 
#    0.000    0.000    0.000    0.000    0.000    0.000 
#
# Total GULP energy -122467.992412 kJ/mol
# GULP energy per Si atom -5566.726928 kJ/mol
# Density = 2.005004 g / cm^3
# Si number density = 20.095777 Si / 1000 Ang^3
#
#
#
# Elastic Constant Matrix: (Units=GPa)
#
#
# Indices 1 2 3 4 5 6 
#
# 1 133.9633 51.7198 50.2230 0.0000 -16.9814 0.0000
# 2 51.7198 146.3913 75.1669 0.0000 -32.3638 0.0000
# 3 50.2230 75.1669 91.6249 0.0000 -24.1551 0.0000
# 4 0.0000 0.0000 0.0000 46.3998 0.0000 -12.1211
# 5 -16.9814 -32.3638 -24.1551 0.0000 35.2612 0.0000
# 6 0.0000 0.0000 0.0000 -12.1211 0.0000 35.2494
#
#
#
# Elastic Compliance Matrix: (Units=1/GPa)
#
#
# Indices 1 2 3 4 5 6 
#
# 1 0.009528 -0.001069 -0.004143 0.000000 0.000770 0.000000
# 2 -0.001069 0.012734 -0.008439 0.000000 0.005392 0.000000
# 3 -0.004143 -0.008439 0.021406 0.000000 0.004923 0.000000
# 4 0.000000 0.000000 0.000000 0.023679 0.000000 0.008142
# 5 0.000770 0.005392 0.004923 0.000000 0.037051 0.000000
# 6 0.000000 0.000000 0.000000 0.008142 0.000000 0.031169
#
#
# Mechanical properties :
#
#
# Convention : Reuss Voigt Hill
#
# Bulk Modulus (GPa) = 61.10251 80.68879 70.89565
# Shear Modulus (GPa) = 29.70437 36.37339 33.03888
#
# Velocity S-wave (km/s) = 3.84883 4.25903 4.05911
# Velocity P-wave (km/s) = 7.08682 8.02652 7.57126
#
# Compressibility (1/GPa) = 0.01636594
#
# Stress axis : x y z
#
# Youngs Moduli (GPa) = 104.95204 78.53058 46.71528
#
# Poissons Ratio (x) = 0.08394 0.19354
# Poissons Ratio (y) = 0.11218 0.39425
# Poissons Ratio (z) = 0.43482 0.66274
#
# Static dielectric constant tensor:
#      x y z
#    x 1.741050 0.000000 0.054370 
#    y 0.000000 1.870470 0.000000 
#    z 0.054370 0.000000 1.795650 
# 
# From -- ./inp_files/95684.got.cif
#   From: 2010.05.17/outbox.cif.g08.bks.cpg/sg15_48_cif.got.tgz:95684.got - 2010.06.03 18:47:42.
