data_PCOD9259208
_publ_section_title
;
Structure prediction by ZEFSAII (Michael W. Deem and Ramdas Pophale) SiO2 
 PCOD9259208
Probable space group: C 2/C
;
_chemical_formula_sum "Si O2"
_cell_formula_units_Z 40
_cell_length_a 10.871939
_cell_length_b 16.261344
_cell_length_c 9.980163
_cell_angle_alpha 90.000000
_cell_angle_beta 123.494329
_cell_angle_gamma 90.000000
_cell_volume 1471.418177
_symmetry_space_group_name_H-M "C 2/C"
_symmetry_group_IT_number 15
_symmetry_cell_setting 'monoclinic'
loop_
_space_group_symop_operation_xyz
x,y,z
-x,y,1/2-z
-x,-y,-z
x,-y,1/2+z
1/2+x,1/2+y,z
1/2-x,1/2+y,1/2-z
1/2-x,1/2-y,-z
1/2+x,1/2-y,1/2+z
loop_
_atom_site_type_symbol
_atom_site_label
_atom_site_fract_x
_atom_site_fract_y
_atom_site_fract_z
Si Si1 0.894937 0.269112 0.933678
Si Si2 0.674904 0.137948 0.861678
Si Si3 0.653399 0.452406 0.224098
Si Si4 0.323258 0.839896 0.538760
Si Si5 0.095177 0.877979 0.599251
O O1 0.761178 0.205671 0.821085
O O2 0.810250 0.332724 0.977888
O O3 0.011664 0.315278 0.908107
O O4 0.003517 0.204247 0.079857
O O5 0.500000 0.132131 0.750000
O O6 0.751122 0.055865 0.856445
O O7 0.755565 0.407927 0.395708
O O8 0.605838 0.546571 0.207076
O O9 0.501982 0.405977 0.091208
O O10 0.250000 0.750000 0.500000
O O11 0.260642 0.867118 0.645522
#
# Coordination Sequence:
#
# PCOD9259208 Si02
#       5
#     8   8   8   8   8
#     4   9  19  35  59  96 122 162 225 273 322 406
#     4  10  18  34  62  86 125 164 216 275 331 389
#     4  10  19  36  62  92 128 171 211 272 339 396
#     4  10  19  36  64  92 129 167 223 276 324 402
#     4   9  20  36  60  93 130 167 214 270 339 404
#
# _framework density 27.184657999999999
#
# number of rings (size 3 to 8) (size 9 to 14) (size 15 to 20)
#    0.000    2.400    2.000    0.600    0.000    0.000 
#    0.000    9.000    4.400    0.000    0.000    0.000 
#    0.000    0.000    0.000    0.000    0.000    0.000 
#
# Total GULP energy -111421.018708 kJ/mol
# GULP energy per Si atom -5571.050935 kJ/mol
# Density = 2.712278 g / cm^3
# Si number density = 27.184658 Si / 1000 Ang^3
#
#
#
# Elastic Constant Matrix: (Units=GPa)
#
#
# Indices 1 2 3 4 5 6 
#
# 1 251.4684 48.4689 40.6646 0.0000 35.4582 0.0000
# 2 48.4689 91.2257 43.1070 0.0000 15.8031 0.0000
# 3 40.6646 43.1070 92.1610 0.0000 42.8653 0.0000
# 4 0.0000 0.0000 0.0000 30.8381 0.0000 3.3075
# 5 35.4582 15.8031 42.8653 0.0000 59.7224 0.0000
# 6 0.0000 0.0000 0.0000 3.3075 0.0000 22.7549
#
#
#
# Elastic Compliance Matrix: (Units=1/GPa)
#
#
# Indices 1 2 3 4 5 6 
#
# 1 0.004698 -0.002077 -0.000090 0.000000 -0.002175 0.000000
# 2 -0.002077 0.015081 -0.007288 0.000000 0.002473 0.000000
# 3 -0.000090 -0.007288 0.020081 0.000000 -0.012431 0.000000
# 4 0.000000 0.000000 0.000000 0.032941 0.000000 -0.004788
# 5 -0.002175 0.002473 -0.012431 0.000000 0.026304 0.000000
# 6 0.000000 0.000000 0.000000 -0.004788 0.000000 0.044642
#
#
# Mechanical properties :
#
#
# Convention : Reuss Voigt Hill
#
# Bulk Modulus (GPa) = 47.73082 77.70400 62.71741
# Shear Modulus (GPa) = 29.47438 42.83737 36.15587
#
# Velocity S-wave (km/s) = 3.29633 3.97393 3.65089
# Velocity P-wave (km/s) = 5.66426 7.04996 6.39476
#
# Compressibility (1/GPa) = 0.02095083
#
# Stress axis : x y z
#
# Youngs Moduli (GPa) = 212.84667 66.31077 49.79893
#
# Poissons Ratio (x) = 0.13772 0.00447
# Poissons Ratio (y) = 0.44207 0.36292
# Poissons Ratio (z) = 0.01910 0.48325
#
# Static dielectric constant tensor:
#      x y z
#    x 2.109250 0.000000 -0.024920 
#    y 0.000000 2.187120 0.000000 
#    z -0.024920 0.000000 2.349070 
# 
# From -- ./inp_files/145269.got.cif
#   From: 2010.05.17/outbox.cif.g08.bks.cpg/sg15_73_cif.got.tgz:145269.got - 2010.06.03 18:47:42.
