data_PCOD9259959
_publ_section_title
;
Structure prediction by ZEFSAII (Michael W. Deem and Ramdas Pophale) SiO2 
 PCOD9259959
Probable space group: C 2/C
;
_chemical_formula_sum "Si O2"
_cell_formula_units_Z 64
_cell_length_a 24.956413
_cell_length_b 19.401220
_cell_length_c 14.863906
_cell_angle_alpha 90.000000
_cell_angle_beta 153.411166
_cell_angle_gamma 90.000000
_cell_volume 3221.213473
_symmetry_space_group_name_H-M "C 2/C"
_symmetry_group_IT_number 15
_symmetry_cell_setting 'monoclinic'
loop_
_space_group_symop_operation_xyz
x,y,z
-x,y,1/2-z
-x,-y,-z
x,-y,1/2+z
1/2+x,1/2+y,z
1/2-x,1/2+y,1/2-z
1/2-x,1/2-y,-z
1/2+x,1/2-y,1/2+z
loop_
_atom_site_type_symbol
_atom_site_label
_atom_site_fract_x
_atom_site_fract_y
_atom_site_fract_z
Si Si1 0.135902 0.048804 0.449934
Si Si2 0.738913 0.825425 0.026528
Si Si3 0.289671 0.647154 0.085176
Si Si4 0.503221 0.856710 0.594730
Si Si5 0.781244 0.585435 0.165816
Si Si6 0.736680 0.341150 0.233114
Si Si7 0.811207 0.684201 0.376734
Si Si8 0.557490 0.779511 0.167446
O O1 0.167372 0.078426 0.398498
O O2 0.152850 0.111483 0.546016
O O3 0.000000 0.024310 0.250000
O O4 0.226403 0.987302 0.606891
O O5 0.595082 0.837867 0.811556
O O6 0.781604 0.880957 0.016582
O O7 0.750000 0.750000 0.000000
O O8 0.793724 0.835368 0.206839
O O9 0.235970 0.647399 0.104677
O O10 0.397860 0.702474 0.246696
O O11 0.177801 0.675725 0.859050
O O12 0.578093 0.914493 0.651847
O O13 0.370034 0.872185 0.424166
O O14 0.493934 0.793666 0.509115
O O15 0.769967 0.639593 0.229703
O O16 0.737469 0.262301 0.199779
O O17 0.954050 0.695048 0.579516
#
# Coordination Sequence:
#
# PCOD9259959 Si02
#       8
#     8   8   8   8   8   8   8   8
#     4  12  27  46  64  94 136 181 216 267 338 407
#     4  10  20  40  66  97 129 166 218 271 319 383
#     4  11  21  36  65  92 130 173 219 258 329 394
#     4   9  19  38  65  94 125 166 215 274 327 373
#     4   9  24  44  60  93 137 166 224 269 328 385
#     4  12  20  40  70 100 126 172 225 272 330 389
#     4  11  21  39  64  99 131 166 220 277 328 377
#     4  10  18  36  59  99 130 164 210 279 319 385
#
# _framework density 19.868289000000001
#
# number of rings (size 3 to 8) (size 9 to 14) (size 15 to 20)
#    0.750    0.750    3.750    2.250    0.000    1.500 
#    2.250    1.250    2.750    0.000    0.000    0.000 
#    0.000    0.000    0.000    0.000    0.000    0.000 
#
# Total GULP energy -178395.633903 kJ/mol
# GULP energy per Si atom -5574.863559 kJ/mol
# Density = 1.982307 g / cm^3
# Si number density = 19.868289 Si / 1000 Ang^3
#
#
#
# Elastic Constant Matrix: (Units=GPa)
#
#
# Indices 1 2 3 4 5 6 
#
# 1 111.6155 28.6931 22.5687 0.0000 -8.6672 0.0000
# 2 28.6931 78.4845 15.1440 0.0000 9.3130 0.0000
# 3 22.5687 15.1440 54.4596 0.0000 6.9642 0.0000
# 4 0.0000 0.0000 0.0000 23.9425 0.0000 -8.2066
# 5 -8.6672 9.3130 6.9642 0.0000 36.4974 0.0000
# 6 0.0000 0.0000 0.0000 -8.2066 0.0000 6.3159
#
#
#
# Elastic Compliance Matrix: (Units=1/GPa)
#
#
# Indices 1 2 3 4 5 6 
#
# 1 0.011105 -0.003787 -0.004110 0.000000 0.004388 0.000000
# 2 -0.003787 0.015038 -0.002057 0.000000 -0.004344 0.000000
# 3 -0.004110 -0.002057 0.021213 0.000000 -0.004499 0.000000
# 4 0.000000 0.000000 0.000000 0.075305 0.000000 0.097848
# 5 0.004388 -0.004344 -0.004499 0.000000 0.030408 0.000000
# 6 0.000000 0.000000 0.000000 0.097848 0.000000 0.285470
#
#
# Mechanical properties :
#
#
# Convention : Reuss Voigt Hill
#
# Bulk Modulus (GPa) = 36.43289 41.93015 39.18152
# Shear Modulus (GPa) = 10.69298 25.22807 17.96052
#
# Velocity S-wave (km/s) = 2.32242 3.56724 3.00989
# Velocity P-wave (km/s) = 5.05653 6.17388 5.64293
#
# Compressibility (1/GPa) = 0.02744773
#
# Stress axis : x y z
#
# Youngs Moduli (GPa) = 90.05208 66.49661 47.14172
#
# Poissons Ratio (x) = 0.25185 0.19374
# Poissons Ratio (y) = 0.34106 0.09696
# Poissons Ratio (z) = 0.37010 0.13677
#
# Static dielectric constant tensor:
#      x y z
#    x 1.751740 0.000000 0.002150 
#    y 0.000000 1.672560 0.000000 
#    z 0.002150 0.000000 1.713240 
# 
# From -- ./inp_files/174267.got.cif
#   From: 2010.05.17/outbox.cif.g08.bks.cpg/sg15_88_cif.got.tgz:174267.got - 2010.06.03 18:47:42.
