data_PCOD9259842
_publ_section_title
;
Structure prediction by ZEFSAII (Michael W. Deem and Ramdas Pophale) SiO2 
 PCOD9259842
Probable space group: C 2/C
;
_chemical_formula_sum "Si O2"
_cell_formula_units_Z 64
_cell_length_a 14.711791
_cell_length_b 11.131328
_cell_length_c 27.138725
_cell_angle_alpha 90.000000
_cell_angle_beta 138.466502
_cell_angle_gamma 90.000000
_cell_volume 2946.818334
_symmetry_space_group_name_H-M "C 2/C"
_symmetry_group_IT_number 15
_symmetry_cell_setting 'monoclinic'
loop_
_space_group_symop_operation_xyz
x,y,z
-x,y,1/2-z
-x,-y,-z
x,-y,1/2+z
1/2+x,1/2+y,z
1/2-x,1/2+y,1/2-z
1/2-x,1/2-y,-z
1/2+x,1/2-y,1/2+z
loop_
_atom_site_type_symbol
_atom_site_label
_atom_site_fract_x
_atom_site_fract_y
_atom_site_fract_z
Si Si1 0.872453 0.268063 0.166943
Si Si2 0.480876 0.994438 0.323327
Si Si3 0.362841 0.144575 0.043246
Si Si4 0.241484 0.163757 0.208659
Si Si5 0.695606 0.912907 0.155827
Si Si6 0.948599 0.991353 0.323811
Si Si7 0.624773 0.718995 0.639767
Si Si8 0.757230 0.969834 0.582191
O O1 0.941307 0.385652 0.171334
O O2 0.748253 0.300282 0.152848
O O3 0.798751 0.170307 0.101751
O O4 0.000000 0.210759 0.250000
O O5 0.417022 0.940712 0.348113
O O6 0.585535 0.098927 0.382418
O O7 0.351363 0.056877 0.242276
O O8 0.498820 0.198202 0.072219
O O9 0.250000 0.250000 0.000000
O O10 0.310890 0.027375 0.993256
O O11 0.218229 0.269729 0.160268
O O12 0.308806 0.222943 0.284462
O O13 0.095631 0.116100 0.169093
O O14 0.832073 0.964518 0.236790
O O15 0.677347 0.983536 0.097778
O O16 0.939855 0.902260 0.366338
O O17 0.091711 0.972947 0.356053
#
# Coordination Sequence:
#
# PCOD9259842 Si02
#       8
#     8   8   8   8   8   8   8   8
#     4  12  23  41  66 102 130 161 210 273 337 394
#     4  10  23  42  65  93 135 174 211 269 329 386
#     4  11  24  47  62  87 131 183 228 266 315 380
#     4   9  18  37  64  90 131 164 205 270 335 394
#     4  10  20  36  61  99 122 161 219 270 328 385
#     4  10  18  36  57  88 125 162 198 264 337 377
#     4  10  21  39  62  85 129 171 208 265 322 379
#     4  12  23  37  67  91 125 169 217 269 310 387
#
# _framework density 21.718340000000001
#
# number of rings (size 3 to 8) (size 9 to 14) (size 15 to 20)
#    0.000    1.500    1.250    7.125    0.000    2.500 
#    4.500    3.125    0.000    0.000    0.000    0.000 
#    0.000    0.000    0.000    0.000    0.000    0.000 
#
# Total GULP energy -178576.465831 kJ/mol
# GULP energy per Si atom -5580.514557 kJ/mol
# Density = 2.166891 g / cm^3
# Si number density = 21.718340 Si / 1000 Ang^3
#
#
#
# Elastic Constant Matrix: (Units=GPa)
#
#
# Indices 1 2 3 4 5 6 
#
# 1 100.9229 29.5005 9.7169 0.0000 21.5910 0.0000
# 2 29.5005 103.0658 14.9770 0.0000 7.9677 0.0000
# 3 9.7169 14.9770 45.2981 0.0000 11.6811 0.0000
# 4 0.0000 0.0000 0.0000 33.4834 0.0000 7.0486
# 5 21.5910 7.9677 11.6811 0.0000 14.3489 0.0000
# 6 0.0000 0.0000 0.0000 7.0486 0.0000 35.3763
#
#
#
# Elastic Compliance Matrix: (Units=1/GPa)
#
#
# Indices 1 2 3 4 5 6 
#
# 1 0.015918 -0.003192 0.004253 0.000000 -0.025641 0.000000
# 2 -0.003192 0.010989 -0.003308 0.000000 0.001394 0.000000
# 3 0.004253 -0.003308 0.029661 0.000000 -0.028709 0.000000
# 4 0.000000 0.000000 0.000000 0.031173 0.000000 -0.006211
# 5 -0.025641 0.001394 -0.028709 0.000000 0.130872 0.000000
# 6 0.000000 0.000000 0.000000 -0.006211 0.000000 0.029505
#
#
# Mechanical properties :
#
#
# Convention : Reuss Voigt Hill
#
# Bulk Modulus (GPa) = 19.20361 39.74174 29.47267
# Shear Modulus (GPa) = 18.52067 29.64791 24.08429
#
# Velocity S-wave (km/s) = 2.92338 3.69875 3.33368
# Velocity P-wave (km/s) = 4.50069 6.04809 5.33084
#
# Compressibility (1/GPa) = 0.05207355
#
# Stress axis : x y z
#
# Youngs Moduli (GPa) = 62.82324 90.99916 33.71476
#
# Poissons Ratio (x) = 0.29046 -0.14339
# Poissons Ratio (y) = 0.20052 0.11153
# Poissons Ratio (z) = -0.26719 0.30103
#
# Static dielectric constant tensor:
#      x y z
#    x 1.808530 0.000000 0.002350 
#    y 0.000000 1.917720 0.000000 
#    z 0.002350 0.000000 1.798290 
# 
# From -- ./inp_files/296163.got.cif
#   From: 2010.05.17/outbox.cif.g08.bks.cpg/sg15_149_cif.got.tgz:296163.got - 2010.06.03 18:47:42.
