data_PCOD9259147
_publ_section_title
;
Structure prediction by ZEFSAII (Michael W. Deem and Ramdas Pophale) SiO2 
 PCOD9259147
Probable space group: C 2/C
;
_chemical_formula_sum "Si O2"
_cell_formula_units_Z 36
_cell_length_a 18.148269
_cell_length_b 6.529390
_cell_length_c 20.944721
_cell_angle_alpha 90.000000
_cell_angle_beta 139.314834
_cell_angle_gamma 90.000000
_cell_volume 1617.948810
_symmetry_space_group_name_H-M "C 2/C"
_symmetry_group_IT_number 15
_symmetry_cell_setting 'monoclinic'
loop_
_space_group_symop_operation_xyz
x,y,z
-x,y,1/2-z
-x,-y,-z
x,-y,1/2+z
1/2+x,1/2+y,z
1/2-x,1/2+y,1/2-z
1/2-x,1/2-y,-z
1/2+x,1/2-y,1/2+z
loop_
_atom_site_type_symbol
_atom_site_label
_atom_site_fract_x
_atom_site_fract_y
_atom_site_fract_z
Si Si1 0.537765 0.510622 0.097390
Si Si2 0.648511 0.721384 0.768865
Si Si3 0.669738 0.760617 0.008992
Si Si4 0.500000 0.600900 0.250000
Si Si5 0.009435 0.599864 0.864630
O O1 0.641650 0.375844 0.193167
O O2 0.551773 0.743450 0.128175
O O3 0.428903 0.407622 0.060920
O O4 0.500000 0.500000 0.000000
O O5 0.589131 0.546842 0.773862
O O6 0.574496 0.927726 0.718081
O O7 0.763969 0.766134 0.881265
O O8 0.607623 0.978913 0.965065
O O9 0.750000 0.750000 0.000000
O O10 0.446796 0.756621 0.163693
#
# Coordination Sequence:
#
# PCOD9259147 Si02
#       5
#     8   8   8   4   8
#     4  10  24  44  59  88 127 167 211 260 324 382
#     4  10  21  37  58  92 121 161 211 254 311 385
#     4  11  22  38  63  97 125 161 218 262 313 389
#     4  10  18  34  60  90 126 160 202 252 320 364
#     4  10  21  38  63  85 132 166 195 270 313 357
#
# _framework density 22.250395999999999
#
# number of rings (size 3 to 8) (size 9 to 14) (size 15 to 20)
#    0.000    1.778    0.000    6.000    0.000   10.667 
#    8.000    0.000    0.000    0.000    0.000    0.000 
#    0.000    0.000    0.000    0.000    0.000    0.000 
#
# Total GULP energy -100514.807623 kJ/mol
# GULP energy per Si atom -5584.155979 kJ/mol
# Density = 2.219975 g / cm^3
# Si number density = 22.250396 Si / 1000 Ang^3
#
#
#
# Elastic Constant Matrix: (Units=GPa)
#
#
# Indices 1 2 3 4 5 6 
#
# 1 27.4145 13.7811 7.7123 0.0000 -10.0062 0.0001
# 2 13.7811 145.0783 50.6438 -0.0001 -6.8307 0.0002
# 3 7.7123 50.6438 167.6413 0.0000 -10.5910 0.0001
# 4 0.0000 -0.0001 0.0000 31.1286 0.0000 -4.7814
# 5 -10.0062 -6.8307 -10.5910 0.0000 36.2831 0.0000
# 6 0.0001 0.0002 0.0001 -4.7814 0.0000 5.1209
#
#
#
# Elastic Compliance Matrix: (Units=1/GPa)
#
#
# Indices 1 2 3 4 5 6 
#
# 1 0.042254 -0.003422 -0.000219 0.000000 0.010945 -0.000001
# 2 -0.003422 0.008005 -0.002267 0.000000 -0.000098 0.000000
# 3 -0.000219 -0.002267 0.006754 0.000000 0.001484 0.000000
# 4 0.000000 0.000000 0.000000 0.037504 0.000000 0.035018
# 5 0.010945 -0.000098 0.001484 0.000000 0.030994 0.000000
# 6 -0.000001 0.000000 0.000000 0.035018 0.000000 0.227976
#
#
# Mechanical properties :
#
#
# Convention : Reuss Voigt Hill
#
# Bulk Modulus (GPa) = 22.12551 53.82316 37.97433
# Shear Modulus (GPa) = 13.14521 32.37298 22.75909
#
# Velocity S-wave (km/s) = 2.43324 3.81851 3.20169
# Velocity P-wave (km/s) = 4.22607 6.60936 5.54722
#
# Compressibility (1/GPa) = 0.04519671
#
# Stress axis : x y z
#
# Youngs Moduli (GPa) = 23.66663 124.92817 148.06511
#
# Poissons Ratio (x) = 0.42751 0.03237
# Poissons Ratio (y) = 0.08099 0.33566
# Poissons Ratio (z) = 0.00517 0.28321
#
# Static dielectric constant tensor:
#      x y z
#    x 1.874310 0.000000 -0.034340 
#    y 0.000000 1.796140 0.000000 
#    z -0.034340 0.000000 1.834310 
# 
# From -- ./inp_files/280869.got.cif
#   From: 2010.05.17/outbox.cif.g08.bks.cpg/sg15_141_cif.got.tgz:280869.got - 2010.06.03 18:47:42.
