data_PCOD9259773
_publ_section_title
;
Structure prediction by ZEFSAII (Michael W. Deem and Ramdas Pophale) SiO2 
 PCOD9259773
Probable space group: C 2/C
;
_chemical_formula_sum "Si O2"
_cell_formula_units_Z 40
_cell_length_a 15.225305
_cell_length_b 30.974550
_cell_length_c 9.392552
_cell_angle_alpha 90.000000
_cell_angle_beta 22.838664
_cell_angle_gamma 90.000000
_cell_volume 1719.255070
_symmetry_space_group_name_H-M "C 2/C"
_symmetry_group_IT_number 15
_symmetry_cell_setting 'monoclinic'
loop_
_space_group_symop_operation_xyz
x,y,z
-x,y,1/2-z
-x,-y,-z
x,-y,1/2+z
1/2+x,1/2+y,z
1/2-x,1/2+y,1/2-z
1/2-x,1/2-y,-z
1/2+x,1/2-y,1/2+z
loop_
_atom_site_type_symbol
_atom_site_label
_atom_site_fract_x
_atom_site_fract_y
_atom_site_fract_z
Si Si1 0.665649 0.980566 0.633359
Si Si2 0.177471 0.926728 0.610854
Si Si3 0.804328 0.598124 0.233294
Si Si4 0.982453 0.223656 0.124417
Si Si5 0.799380 0.311144 0.669583
O O1 0.500000 0.971179 0.750000
O O2 0.767975 0.936794 0.542120
O O3 0.828601 0.021080 0.360448
O O4 0.500000 0.000000 0.000000
O O5 0.176375 0.907952 0.772988
O O6 0.429297 0.912724 0.186299
O O7 0.000000 0.915547 0.750000
O O8 0.794783 0.648835 0.281326
O O9 0.750000 0.250000 0.500000
O O10 0.934110 0.192659 0.067745
O O11 0.000000 0.200066 0.250000
O O12 0.155113 0.262831 0.840034
O O13 0.000000 0.319481 0.250000
#
# Coordination Sequence:
#
# PCOD9259773 Si02
#       5
#     8   8   8   8   8
#     4  10  18  36  55  69 101 136 169 206 254 292
#     4  10  19  32  49  70  99 137 168 199 253 288
#     4  10  19  33  48  74 101 133 168 212 236 307
#     4   7  13  22  38  59  87 125 148 191 242 292
#     4   9  14  27  41  63  97 125 158 199 249 289
#
# _framework density 23.265889999999999
#
# number of rings (size 3 to 8) (size 9 to 14) (size 15 to 20)
#    0.000    3.200    6.000    0.000    0.000    1.600 
#    3.600    0.000    0.000    0.000    0.000    1.400 
#    0.000    0.000    0.000    0.000    0.000    0.000 
#
# Total GULP energy -111399.435793 kJ/mol
# GULP energy per Si atom -5569.971790 kJ/mol
# Density = 2.321294 g / cm^3
# Si number density = 23.265890 Si / 1000 Ang^3
#
#
#
# Elastic Constant Matrix: (Units=GPa)
#
#
# Indices 1 2 3 4 5 6 
#
# 1 119.3190 43.0341 37.9712 0.0000 -48.0784 0.0000
# 2 43.0341 153.6076 9.6756 0.0000 -13.3012 0.0000
# 3 37.9712 9.6756 67.0007 0.0001 -11.6954 0.0000
# 4 0.0000 0.0000 0.0001 -10.9297 0.0000 -3.5094
# 5 -48.0784 -13.3012 -11.6954 0.0000 36.0382 0.0000
# 6 0.0000 0.0000 0.0000 -3.5094 0.0000 39.4551
#
#
#
# Elastic Compliance Matrix: (Units=1/GPa)
#
#
# Indices 1 2 3 4 5 6 
#
# 1 0.022951 -0.003622 -0.007815 0.000000 0.026746 0.000000
# 2 -0.003622 0.007317 0.000661 0.000000 -0.001916 0.000000
# 3 -0.007815 0.000661 0.018531 0.000000 -0.004169 0.000000
# 4 0.000000 0.000000 0.000000 -0.088953 0.000000 -0.007912
# 5 0.026746 -0.001916 -0.004169 0.000000 0.061370 0.000000
# 6 0.000000 0.000000 0.000000 -0.007912 0.000000 0.024641
#
#
# Mechanical properties :
#
#
# Convention : Reuss Voigt Hill
#
# Bulk Modulus (GPa) = 36.69969 57.92102 47.31035
# Shear Modulus (GPa) = 65.36567 29.52916 47.44742
#
# Velocity S-wave (km/s) = 5.30623 3.56645 4.52082
# Velocity P-wave (km/s) = 7.30409 6.47370 6.90139
#
# Compressibility (1/GPa) = 0.02724819
#
# Stress axis : x y z
#
# Youngs Moduli (GPa) = 43.57028 136.66564 53.96276
#
# Poissons Ratio (x) = 0.49496 0.42174
# Poissons Ratio (y) = 0.15780 -0.03569
# Poissons Ratio (z) = 0.34052 -0.09038
#
# Static dielectric constant tensor:
#      x y z
#    x 1.994620 0.000000 0.011300 
#    y 0.000000 1.938250 0.000000 
#    z 0.011300 0.000000 1.943760 
# 
# From -- ./inp_files/101467.got.cif
#   From: 2010.05.17/outbox.cif.g08.bks.cpg/sg15_51_cif.got.tgz:101467.got - 2010.06.03 18:47:42.
