data_PCOD9259162
_publ_section_title
;
Structure prediction by ZEFSAII (Michael W. Deem and Ramdas Pophale) SiO2 
 PCOD9259162
Probable space group: C 2/C
;
_chemical_formula_sum "Si O2"
_cell_formula_units_Z 60
_cell_length_a 14.657409
_cell_length_b 11.898338
_cell_length_c 15.682902
_cell_angle_alpha 90.000000
_cell_angle_beta 76.958960
_cell_angle_gamma 90.000000
_cell_volume 2664.538100
_symmetry_space_group_name_H-M "C 2/C"
_symmetry_group_IT_number 15
_symmetry_cell_setting 'monoclinic'
loop_
_space_group_symop_operation_xyz
x,y,z
-x,y,1/2-z
-x,-y,-z
x,-y,1/2+z
1/2+x,1/2+y,z
1/2-x,1/2+y,1/2-z
1/2-x,1/2-y,-z
1/2+x,1/2-y,1/2+z
loop_
_atom_site_type_symbol
_atom_site_label
_atom_site_fract_x
_atom_site_fract_y
_atom_site_fract_z
Si Si1 0.096901 0.546037 0.520679
Si Si2 0.116757 0.842169 0.036694
Si Si3 0.898880 0.670626 0.227995
Si Si4 0.500000 0.601080 0.250000
Si Si5 0.650550 0.056254 0.853167
Si Si6 0.197932 0.385688 0.591302
Si Si7 0.498623 0.255547 0.916082
Si Si8 0.360472 0.407385 0.270011
O O1 0.173103 0.488825 0.443565
O O2 0.128111 0.491634 0.602609
O O3 0.000000 0.500000 0.500000
O O4 0.085279 0.676998 0.532947
O O5 0.197791 0.900652 0.963667
O O6 0.031207 0.830477 0.989271
O O7 0.150379 0.713239 0.045336
O O8 0.110966 0.886106 0.135182
O O9 0.893929 0.559122 0.173042
O O10 0.811347 0.659285 0.311229
O O11 0.891461 0.801936 0.204738
O O12 0.000000 0.665692 0.250000
O O13 0.525919 0.675995 0.162906
O O14 0.415071 0.520944 0.238023
O O15 0.581136 0.163879 0.872457
O O16 0.748729 0.082733 0.789129
#
# Coordination Sequence:
#
# PCOD9259162 Si02
#       8
#     8   8   8   4   8   8   8   8
#     4  10  18  36  61  97 125 156 210 273 316 377
#     4  10  19  39  68  89 120 176 218 256 323 392
#     4  11  23  37  65  98 132 171 220 273 330 382
#     4  12  30  46  60  96 146 172 210 272 342 400
#     4  11  23  40  68 101 129 169 221 279 323 389
#     4  10  18  34  60  98 124 156 217 267 312 381
#     4  11  24  41  68  96 130 171 211 271 338 382
#     4  11  25  46  63  94 133 177 225 268 321 407
#
# _framework density 22.517973999999999
#
# number of rings (size 3 to 8) (size 9 to 14) (size 15 to 20)
#    0.000    1.333    4.667    3.200    8.400    0.533 
#    0.000    0.667    0.000    0.000    0.000    0.000 
#    0.000    0.000    0.000    0.000    0.000    0.000 
#
# Total GULP energy -167203.381398 kJ/mol
# GULP energy per Si atom -5573.446047 kJ/mol
# Density = 2.246672 g / cm^3
# Si number density = 22.517974 Si / 1000 Ang^3
#
#
#
# Elastic Constant Matrix: (Units=GPa)
#
#
# Indices 1 2 3 4 5 6 
#
# 1 37.9536 23.1964 -13.8902 0.0000 -9.3117 0.0000
# 2 23.1964 87.4232 11.8880 0.0000 7.6310 0.0000
# 3 -13.8902 11.8880 31.1007 0.0000 -0.9697 0.0000
# 4 0.0000 0.0000 0.0000 30.2360 0.0000 0.2458
# 5 -9.3117 7.6310 -0.9697 0.0000 25.4798 0.0000
# 6 0.0000 0.0000 0.0000 0.2458 0.0000 30.4481
#
#
#
# Elastic Compliance Matrix: (Units=1/GPa)
#
#
# Indices 1 2 3 4 5 6 
#
# 1 0.064033 -0.025155 0.039225 0.000000 0.032427 0.000000
# 2 -0.025155 0.022325 -0.020287 0.000000 -0.016651 0.000000
# 3 0.039225 -0.020287 0.058132 0.000000 0.022623 0.000000
# 4 0.000000 0.000000 0.000000 0.033075 0.000000 -0.000267
# 5 0.032427 -0.016651 0.022623 0.000000 0.056945 0.000000
# 6 0.000000 0.000000 0.000000 -0.000267 0.000000 0.032845
#
#
# Mechanical properties :
#
#
# Convention : Reuss Voigt Hill
#
# Bulk Modulus (GPa) = 7.57255 22.09622 14.83439
# Shear Modulus (GPa) = 15.44119 26.25166 20.84643
#
# Velocity S-wave (km/s) = 2.62148 3.41810 3.04594
# Velocity P-wave (km/s) = 3.54021 5.04102 4.35574
#
# Compressibility (1/GPa) = 0.13205596
#
# Stress axis : x y z
#
# Youngs Moduli (GPa) = 15.61690 44.79251 17.20219
#
# Poissons Ratio (x) = 1.12674 -0.67475
# Poissons Ratio (y) = 0.39284 0.34899
# Poissons Ratio (z) = -0.61257 0.90872
#
# Static dielectric constant tensor:
#      x y z
#    x 1.836660 0.000000 -0.012570 
#    y 0.000000 1.914680 0.000000 
#    z -0.012570 0.000000 1.997060 
# 
# From -- ./inp_files/203993.got.cif
#   From: 2010.05.17/outbox.cif.g08.bks.cpg/sg15_102_cif.got.tgz:203993.got - 2010.06.03 18:47:42.
