data_PCOD9259226
_publ_section_title
;
Structure prediction by ZEFSAII (Michael W. Deem and Ramdas Pophale) SiO2 
 PCOD9259226
Probable space group: C 2/C
;
_chemical_formula_sum "Si O2"
_cell_formula_units_Z 52
_cell_length_a 13.840838
_cell_length_b 19.478614
_cell_length_c 18.572439
_cell_angle_alpha 90.000000
_cell_angle_beta 33.220451
_cell_angle_gamma 90.000000
_cell_volume 2743.218784
_symmetry_space_group_name_H-M "C 2/C"
_symmetry_group_IT_number 15
_symmetry_cell_setting 'monoclinic'
loop_
_space_group_symop_operation_xyz
x,y,z
-x,y,1/2-z
-x,-y,-z
x,-y,1/2+z
1/2+x,1/2+y,z
1/2-x,1/2+y,1/2-z
1/2-x,1/2-y,-z
1/2+x,1/2-y,1/2+z
loop_
_atom_site_type_symbol
_atom_site_label
_atom_site_fract_x
_atom_site_fract_y
_atom_site_fract_z
Si Si1 0.088273 0.967272 0.873986
Si Si2 0.250372 0.817528 0.156615
Si Si3 0.000000 0.573132 0.250000
Si Si4 0.565810 0.950090 0.395890
Si Si5 0.843420 0.855237 0.432148
Si Si6 0.749405 0.338361 0.840829
Si Si7 0.747085 0.494441 0.500698
O O1 0.136871 0.889895 0.863830
O O2 0.940791 0.964558 0.903678
O O3 0.259492 0.012749 0.745974
O O4 0.000000 0.000000 0.000000
O O5 0.379811 0.874670 0.109141
O O6 0.257303 0.811136 0.065130
O O7 0.264254 0.739502 0.175229
O O8 0.051465 0.842213 0.296339
O O9 0.940749 0.623923 0.222971
O O10 0.843512 0.522675 0.368693
O O11 0.396711 0.951082 0.447715
O O12 0.500000 0.000000 0.500000
O O13 0.799397 0.844479 0.543589
O O14 0.799424 0.932807 0.433487
#
# Coordination Sequence:
#
# PCOD9259226 Si02
#       7
#     8   8   4   8   8   8   8
#     4  12  22  41  62  87 118 159 202 252 288 354
#     4  11  22  37  56  89 126 157 189 247 313 358
#     4  10  18  34  62  90 114 146 194 256 296 348
#     4  12  24  38  61  86 123 162 198 242 298 364
#     4  10  20  36  60  86 123 149 192 257 304 352
#     4  11  22  36  60  89 121 154 199 246 305 358
#     4  11  20  37  60  88 116 150 207 240 289 349
#
# _framework density 18.955832999999998
#
# number of rings (size 3 to 8) (size 9 to 14) (size 15 to 20)
#    0.000    0.923    7.692    1.385    0.000    3.077 
#    0.000    0.769    0.000    0.000    0.000    4.308 
#    0.000    0.000    0.000    0.000    0.000    0.000 
#
# Total GULP energy -144900.854496 kJ/mol
# GULP energy per Si atom -5573.109788 kJ/mol
# Density = 1.891269 g / cm^3
# Si number density = 18.955833 Si / 1000 Ang^3
#
#
#
# Elastic Constant Matrix: (Units=GPa)
#
#
# Indices 1 2 3 4 5 6 
#
# 1 104.5407 57.4137 23.9392 -0.0002 -36.6651 -0.0003
# 2 57.4137 134.2866 5.5910 0.0001 -30.0129 -0.0012
# 3 23.9392 5.5910 63.6665 0.0008 -7.4712 -0.0037
# 4 -0.0002 0.0001 0.0008 12.1449 0.0002 -1.8850
# 5 -36.6651 -30.0129 -7.4712 0.0002 35.1920 0.0015
# 6 -0.0003 -0.0012 -0.0037 -1.8850 0.0015 32.1472
#
#
#
# Elastic Compliance Matrix: (Units=1/GPa)
#
#
# Indices 1 2 3 4 5 6 
#
# 1 0.017937 -0.004349 -0.004723 0.000000 0.013977 -0.000001
# 2 -0.004349 0.010255 0.001261 0.000000 0.004483 0.000000
# 3 -0.004723 0.001261 0.017353 -0.000001 -0.000161 0.000002
# 4 0.000000 0.000000 -0.000001 0.083095 -0.000001 0.004873
# 5 0.013977 0.004483 -0.000161 -0.000001 0.046767 -0.000002
# 6 -0.000001 0.000000 0.000002 0.004873 -0.000002 0.031393
#
#
# Mechanical properties :
#
#
# Convention : Reuss Voigt Hill
#
# Bulk Modulus (GPa) = 33.41717 52.93131 43.17424
# Shear Modulus (GPa) = 21.51491 30.26681 25.89086
#
# Velocity S-wave (km/s) = 3.37263 4.00021 3.69975
# Velocity P-wave (km/s) = 5.73005 7.02280 6.40910
#
# Compressibility (1/GPa) = 0.02992474
#
# Stress axis : x y z
#
# Youngs Moduli (GPa) = 55.74917 97.50870 57.62705
#
# Poissons Ratio (x) = 0.42403 0.27215
# Poissons Ratio (y) = 0.24243 -0.07265
# Poissons Ratio (z) = 0.26328 -0.12292
#
# Static dielectric constant tensor:
#      x y z
#    x 1.716070 0.000000 -0.004960 
#    y 0.000000 1.660040 0.000000 
#    z -0.004960 0.000000 1.765090 
# 
# From -- ./inp_files/245021.got.cif
#   From: 2010.05.17/outbox.cif.g08.bks.cpg/sg15_123_cif.got.tgz:245021.got - 2010.06.03 18:47:42.
