data_PCOD9259609
_publ_section_title
;
Structure prediction by ZEFSAII (Michael W. Deem and Ramdas Pophale) SiO2 
 PCOD9259609
Probable space group: C 2/C
;
_chemical_formula_sum "Si O2"
_cell_formula_units_Z 64
_cell_length_a 26.847488
_cell_length_b 9.046375
_cell_length_c 23.273857
_cell_angle_alpha 90.000000
_cell_angle_beta 33.696808
_cell_angle_gamma 90.000000
_cell_volume 3136.039706
_symmetry_space_group_name_H-M "C 2/C"
_symmetry_group_IT_number 15
_symmetry_cell_setting 'monoclinic'
loop_
_space_group_symop_operation_xyz
x,y,z
-x,y,1/2-z
-x,-y,-z
x,-y,1/2+z
1/2+x,1/2+y,z
1/2-x,1/2+y,1/2-z
1/2-x,1/2-y,-z
1/2+x,1/2-y,1/2+z
loop_
_atom_site_type_symbol
_atom_site_label
_atom_site_fract_x
_atom_site_fract_y
_atom_site_fract_z
Si Si1 0.031828 0.272323 0.052020
Si Si2 0.726851 0.043409 0.962743
Si Si3 0.029402 0.220891 0.810710
Si Si4 0.968177 0.545432 0.845025
Si Si5 0.215455 0.448713 0.846796
Si Si6 0.852925 0.261672 0.147836
Si Si7 0.535744 0.445854 0.027485
Si Si8 0.140756 0.160431 0.593507
O O1 0.998042 0.328448 0.145950
O O2 0.947508 0.290789 0.089811
O O3 0.119094 0.367171 0.949453
O O4 0.060331 0.102254 0.030942
O O5 0.799985 0.023530 0.942564
O O6 0.751945 0.010550 0.872999
O O7 0.638782 0.947147 0.056129
O O8 0.693798 0.212429 0.007629
O O9 0.107242 0.220745 0.688353
O O10 0.996370 0.389540 0.847137
O O11 0.947372 0.133143 0.858998
O O12 0.037671 0.141874 0.864020
O O13 0.000000 0.544275 0.750000
O O14 0.194601 0.588465 0.826211
O O15 0.286902 0.337985 0.749756
O O16 0.883098 0.165926 0.063103
O O17 0.500000 0.500000 0.000000
#
# Coordination Sequence:
#
# PCOD9259609 Si02
#       8
#     8   8   8   8   8   8   8   8
#     4  10  23  41  63  89 129 168 210 263 325 383
#     4   9  18  33  57  88 118 152 199 265 309 362
#     4  10  18  35  61  89 119 162 214 262 306 384
#     4  10  18  39  60  90 121 162 210 258 322 383
#     4  11  23  41  66  90 131 167 218 270 316 389
#     4  11  23  43  63  93 125 173 217 260 322 381
#     4  10  22  38  60  90 127 166 212 260 312 378
#     4   9  17  32  57  90 117 153 211 254 315 365
#
# _framework density 20.407903999999998
#
# number of rings (size 3 to 8) (size 9 to 14) (size 15 to 20)
#    0.000    2.000    2.500    3.375    3.500    1.000 
#    4.500    2.500    0.000    3.000    0.000    0.000 
#    0.000    0.000    0.000    0.000    0.000    0.000 
#
# Total GULP energy -178295.329518 kJ/mol
# GULP energy per Si atom -5571.729047 kJ/mol
# Density = 2.036146 g / cm^3
# Si number density = 20.407904 Si / 1000 Ang^3
#
#
#
# Elastic Constant Matrix: (Units=GPa)
#
#
# Indices 1 2 3 4 5 6 
#
# 1 64.7969 40.8305 25.4564 0.0000 8.7524 0.0001
# 2 40.8305 92.3909 37.3091 0.0009 20.5226 -0.0008
# 3 25.4564 37.3091 94.1428 -0.0003 16.0990 0.0001
# 4 0.0000 0.0009 -0.0003 26.1210 0.0001 6.5272
# 5 8.7524 20.5226 16.0990 0.0001 33.2573 -0.0001
# 6 0.0001 -0.0008 0.0001 6.5272 -0.0001 26.4552
#
#
#
# Elastic Compliance Matrix: (Units=1/GPa)
#
#
# Indices 1 2 3 4 5 6 
#
# 1 0.021890 -0.008843 -0.002576 0.000000 0.000943 0.000000
# 2 -0.008843 0.017647 -0.003421 -0.000001 -0.006906 0.000001
# 3 -0.002576 -0.003421 0.013298 0.000000 -0.003648 0.000000
# 4 0.000000 -0.000001 0.000000 0.040799 0.000000 -0.010066
# 5 0.000943 -0.006906 -0.003648 0.000000 0.035848 0.000000
# 6 0.000000 0.000001 0.000000 -0.010066 0.000000 0.040283
#
#
# Mechanical properties :
#
#
# Convention : Reuss Voigt Hill
#
# Bulk Modulus (GPa) = 43.18737 50.94695 47.06716
# Shear Modulus (GPa) = 24.13536 27.01566 25.57551
#
# Velocity S-wave (km/s) = 3.44270 3.64233 3.54392
# Velocity P-wave (km/s) = 6.08366 6.53508 6.31341
#
# Compressibility (1/GPa) = 0.02315492
#
# Stress axis : x y z
#
# Youngs Moduli (GPa) = 45.68365 56.66558 75.19667
#
# Poissons Ratio (x) = 0.50110 0.19369
# Poissons Ratio (y) = 0.40398 0.25729
# Poissons Ratio (z) = 0.11767 0.19388
#
# Static dielectric constant tensor:
#      x y z
#    x 1.806960 0.000000 -0.013900 
#    y 0.000000 1.730270 0.000000 
#    z -0.013900 0.000000 1.788810 
# 
# From -- ./inp_files/284421.got.cif
#   From: 2010.05.17/outbox.cif.g08.bks.cpg/sg15_143_cif.got.tgz:284421.got - 2010.06.03 18:47:42.
