data_PCOD9259202
_publ_section_title
;
Structure prediction by ZEFSAII (Michael W. Deem and Ramdas Pophale) SiO2 
 PCOD9259202
Probable space group: C 2/C
;
_chemical_formula_sum "Si O2"
_cell_formula_units_Z 64
_cell_length_a 18.928014
_cell_length_b 19.765182
_cell_length_c 18.876363
_cell_angle_alpha 90.000000
_cell_angle_beta 150.504603
_cell_angle_gamma 90.000000
_cell_volume 3476.973146
_symmetry_space_group_name_H-M "C 2/C"
_symmetry_group_IT_number 15
_symmetry_cell_setting 'monoclinic'
loop_
_space_group_symop_operation_xyz
x,y,z
-x,y,1/2-z
-x,-y,-z
x,-y,1/2+z
1/2+x,1/2+y,z
1/2-x,1/2+y,1/2-z
1/2-x,1/2-y,-z
1/2+x,1/2-y,1/2+z
loop_
_atom_site_type_symbol
_atom_site_label
_atom_site_fract_x
_atom_site_fract_y
_atom_site_fract_z
Si Si1 0.454446 0.269905 0.888553
Si Si2 0.932514 0.650574 0.764739
Si Si3 0.151590 0.278742 0.686115
Si Si4 0.121518 0.454749 0.513626
Si Si5 0.939990 0.006527 0.776852
Si Si6 0.824120 0.875051 0.268609
Si Si7 0.998925 0.409121 0.943737
Si Si8 0.625342 0.400068 0.021022
O O1 0.401216 0.215324 0.785899
O O2 0.317705 0.292987 0.814892
O O3 0.567281 0.232665 0.038485
O O4 0.530882 0.333914 0.920580
O O5 0.784331 0.609919 0.629251
O O6 0.000000 0.672364 0.750000
O O7 0.048317 0.603011 0.903988
O O8 0.143960 0.204410 0.713946
O O9 0.076310 0.343522 0.655470
O O10 0.287353 0.467431 0.642383
O O11 0.034953 0.525393 0.428326
O O12 0.099372 0.434389 0.576722
O O13 0.905751 0.077906 0.784296
O O14 0.000000 0.012864 0.750000
O O15 0.048425 0.964742 0.921241
O O16 0.862341 0.897535 0.382340
O O17 0.653662 0.886876 0.110033
#
# Coordination Sequence:
#
# PCOD9259202 Si02
#       8
#     8   8   8   8   8   8   8   8
#     4  11  21  35  54  81 115 146 183 228 275 329
#     4  12  23  38  55  78 120 153 181 227 278 335
#     4  11  17  36  58  84 110 138 187 235 277 323
#     4  10  20  37  58  81 109 152 184 227 279 338
#     4  11  24  39  57  83 116 150 188 232 290 342
#     4  10  20  37  60  84 116 145 186 240 281 325
#     4  10  18  34  62  85 108 142 191 231 282 327
#     4  11  22  38  57  86 112 147 196 233 270 335
#
# _framework density 18.406815000000002
#
# number of rings (size 3 to 8) (size 9 to 14) (size 15 to 20)
#    0.000    1.250    6.250    1.875    0.000    1.000 
#    4.500    0.000    0.000    3.750    0.000    0.000 
#    0.000    0.000    0.000    0.000    0.000    0.000 
#
# Total GULP energy -178662.910704 kJ/mol
# GULP energy per Si atom -5583.215959 kJ/mol
# Density = 1.836492 g / cm^3
# Si number density = 18.406815 Si / 1000 Ang^3
#
#
#
# Elastic Constant Matrix: (Units=GPa)
#
#
# Indices 1 2 3 4 5 6 
#
# 1 63.9264 21.4851 24.4750 0.0000 16.4260 0.0006
# 2 21.4851 76.7016 17.6404 0.0002 3.3230 0.0003
# 3 24.4750 17.6404 54.8290 0.0003 21.1942 0.0004
# 4 0.0000 0.0002 0.0003 31.2370 0.0001 10.7170
# 5 16.4260 3.3230 21.1942 0.0001 20.3910 0.0007
# 6 0.0006 0.0003 0.0004 10.7170 0.0007 13.4013
#
#
#
# Elastic Compliance Matrix: (Units=1/GPa)
#
#
# Indices 1 2 3 4 5 6 
#
# 1 0.021956 -0.004893 -0.002838 0.000000 -0.013939 0.000000
# 2 -0.004893 0.015371 -0.005544 0.000000 0.007199 0.000000
# 3 -0.002838 -0.005544 0.033526 -0.000001 -0.031657 0.000001
# 4 0.000000 0.000000 -0.000001 0.044118 0.000001 -0.035281
# 5 -0.013939 0.007199 -0.031657 0.000001 0.092000 -0.000004
# 6 0.000000 0.000000 0.000001 -0.035281 -0.000004 0.102834
#
#
# Mechanical properties :
#
#
# Convention : Reuss Voigt Hill
#
# Bulk Modulus (GPa) = 22.57241 35.85089 29.21165
# Shear Modulus (GPa) = 14.23995 21.79631 18.01813
#
# Velocity S-wave (km/s) = 2.78443 3.44487 3.13211
# Velocity P-wave (km/s) = 4.75679 5.94492 5.38373
#
# Compressibility (1/GPa) = 0.04430186
#
# Stress axis : x y z
#
# Youngs Moduli (GPa) = 45.54567 65.05579 29.82739
#
# Poissons Ratio (x) = 0.31835 0.08466
# Poissons Ratio (y) = 0.22288 0.16537
# Poissons Ratio (z) = 0.12927 0.36067
#
# Static dielectric constant tensor:
#      x y z
#    x 1.612200 0.000000 0.002580 
#    y 0.000000 1.665360 0.000000 
#    z 0.002580 0.000000 1.630610 
# 
# From -- ./inp_files/63425.got.cif
#   From: 2010.05.17/outbox.cif.g08.bks.cpg/sg15_32_cif.got.tgz:63425.got - 2010.06.03 18:47:42.
