data_PCOD9259988
_publ_section_title
;
Structure prediction by ZEFSAII (Michael W. Deem and Ramdas Pophale) SiO2 
 PCOD9259988
Probable space group: C 2/C
;
_chemical_formula_sum "Si O2"
_cell_formula_units_Z 48
_cell_length_a 11.992253
_cell_length_b 15.324061
_cell_length_c 14.363651
_cell_angle_alpha 90.000000
_cell_angle_beta 64.324848
_cell_angle_gamma 90.000000
_cell_volume 2378.986663
_symmetry_space_group_name_H-M "C 2/C"
_symmetry_group_IT_number 15
_symmetry_cell_setting 'monoclinic'
loop_
_space_group_symop_operation_xyz
x,y,z
-x,y,1/2-z
-x,-y,-z
x,-y,1/2+z
1/2+x,1/2+y,z
1/2-x,1/2+y,1/2-z
1/2-x,1/2-y,-z
1/2+x,1/2-y,1/2+z
loop_
_atom_site_type_symbol
_atom_site_label
_atom_site_fract_x
_atom_site_fract_y
_atom_site_fract_z
Si Si1 0.927989 0.869725 0.065493
Si Si2 0.865543 0.454834 0.558889
Si Si3 0.324493 0.544597 0.003619
Si Si4 0.862701 0.548482 0.274913
Si Si5 0.054733 0.711761 0.581808
Si Si6 0.327709 0.841578 0.275101
O O1 0.820214 0.840372 0.175466
O O2 0.878806 0.956038 0.030083
O O3 0.942803 0.796651 0.981661
O O4 0.059572 0.894647 0.061649
O O5 0.762593 0.516311 0.549743
O O6 0.835933 0.435636 0.676727
O O7 0.878239 0.365982 0.497198
O O8 0.000000 0.500000 0.500000
O O9 0.237235 0.583939 0.116308
O O10 0.861844 0.442554 0.285580
O O11 0.000000 0.579417 0.250000
O O12 0.127219 0.716431 0.653647
O O13 0.913577 0.685583 0.658300
#
# Coordination Sequence:
#
# PCOD9259988 Si02
#       6
#     8   8   8   8   8   8
#     4  10  22  39  59  88 130 160 195 269 327 362
#     4  12  20  35  68  89 115 168 216 245 304 378
#     4  10  22  41  58  91 132 161 198 266 319 375
#     4  11  18  36  63  89 117 160 217 254 296 372
#     4  11  20  36  64  93 116 166 218 256 299 382
#     4  10  18  36  60  85 127 159 205 265 308 359
#
# _framework density 20.176659000000001
#
# number of rings (size 3 to 8) (size 9 to 14) (size 15 to 20)
#    0.000    1.333    8.333    0.500    0.000    1.333 
#    3.000    7.500    0.000    0.000    0.000    0.000 
#    0.000    0.000    0.000    0.000    0.000    0.000 
#
# Total GULP energy -134017.398023 kJ/mol
# GULP energy per Si atom -5584.058251 kJ/mol
# Density = 2.013074 g / cm^3
# Si number density = 20.176659 Si / 1000 Ang^3
#
#
#
# Elastic Constant Matrix: (Units=GPa)
#
#
# Indices 1 2 3 4 5 6 
#
# 1 136.2011 13.4854 72.0179 0.0000 -26.9968 0.0000
# 2 13.4854 31.2378 13.3514 0.0000 -15.2835 0.0000
# 3 72.0179 13.3514 123.4986 0.0000 -19.5147 0.0000
# 4 0.0000 0.0000 0.0000 17.8187 0.0000 1.1509
# 5 -26.9968 -15.2835 -19.5147 0.0000 46.2382 0.0000
# 6 0.0000 0.0000 0.0000 1.1509 0.0000 17.2810
#
#
#
# Elastic Compliance Matrix: (Units=1/GPa)
#
#
# Indices 1 2 3 4 5 6 
#
# 1 0.011297 -0.000409 -0.005917 0.000000 0.003963 0.000000
# 2 -0.000409 0.038815 -0.002109 0.000000 0.011701 0.000000
# 3 -0.005917 -0.002109 0.011914 0.000000 0.000876 0.000000
# 4 0.000000 0.000000 0.000000 0.056363 0.000000 -0.003754
# 5 0.003963 0.011701 0.000876 0.000000 0.028179 0.000000
# 6 0.000000 0.000000 0.000000 -0.003754 0.000000 0.058117
#
#
# Mechanical properties :
#
#
# Convention : Reuss Voigt Hill
#
# Bulk Modulus (GPa) = 22.14509 54.29409 38.21959
# Shear Modulus (GPa) = 21.13195 29.07309 25.10252
#
# Velocity S-wave (km/s) = 3.23978 3.80007 3.53106
# Velocity P-wave (km/s) = 4.99944 6.79866 5.96725
#
# Compressibility (1/GPa) = 0.04515674
#
# Stress axis : x y z
#
# Youngs Moduli (GPa) = 88.51882 25.76302 83.93164
#
# Poissons Ratio (x) = 0.01053 0.49666
# Poissons Ratio (y) = 0.03617 0.17701
# Poissons Ratio (z) = 0.52380 0.05434
#
# Static dielectric constant tensor:
#      x y z
#    x 1.739370 0.000000 -0.031820 
#    y 0.000000 1.703430 0.000000 
#    z -0.031820 0.000000 1.732340 
# 
# From -- ./inp_files/143431.got.cif
#   From: 2010.05.17/outbox.cif.g08.bks.cpg/sg15_72_cif.got.tgz:143431.got - 2010.06.03 18:47:42.
