data_PCOD9259717
_publ_section_title
;
Structure prediction by ZEFSAII (Michael W. Deem and Ramdas Pophale) SiO2 
 PCOD9259717
Probable space group: C 2/C
;
_chemical_formula_sum "Si O2"
_cell_formula_units_Z 60
_cell_length_a 11.330989
_cell_length_b 15.073891
_cell_length_c 20.157133
_cell_angle_alpha 90.000000
_cell_angle_beta 61.460090
_cell_angle_gamma 90.000000
_cell_volume 3024.517262
_symmetry_space_group_name_H-M "C 2/C"
_symmetry_group_IT_number 15
_symmetry_cell_setting 'monoclinic'
loop_
_space_group_symop_operation_xyz
x,y,z
-x,y,1/2-z
-x,-y,-z
x,-y,1/2+z
1/2+x,1/2+y,z
1/2-x,1/2+y,1/2-z
1/2-x,1/2-y,-z
1/2+x,1/2-y,1/2+z
loop_
_atom_site_type_symbol
_atom_site_label
_atom_site_fract_x
_atom_site_fract_y
_atom_site_fract_z
Si Si1 0.553556 0.588822 0.349955
Si Si2 0.935820 0.595596 0.030603
Si Si3 0.748933 0.001253 0.094626
Si Si4 0.286485 0.922723 0.703533
Si Si5 0.307014 0.651972 0.489459
Si Si6 0.500000 0.019360 0.250000
Si Si7 0.215979 0.651605 0.985863
Si Si8 0.617862 0.565170 0.676016
O O1 0.649958 0.543875 0.378672
O O2 0.655801 0.626525 0.267406
O O3 0.448169 0.651776 0.413786
O O4 0.460069 0.515680 0.339337
O O5 0.860832 0.612975 0.119718
O O6 0.815196 0.600468 0.012282
O O7 0.000000 0.500000 0.000000
O O8 0.065739 0.656694 0.996165
O O9 0.607088 0.976565 0.169056
O O10 0.725498 0.077202 0.043186
O O11 0.819077 0.910243 0.050753
O O12 0.398342 0.928342 0.729942
O O13 0.227660 0.019015 0.695280
O O14 0.250000 0.750000 0.500000
O O15 0.311960 0.620746 0.900143
O O16 0.250000 0.750000 0.000000
O O17 0.500000 0.611852 0.750000
#
# Coordination Sequence:
#
# PCOD9259717 Si02
#       8
#     8   8   8   8   8   4   8   8
#     4  10  21  37  64  88 123 169 206 260 322 378
#     4  12  20  41  67  90 125 168 211 260 313 380
#     4  11  22  41  61  88 131 163 213 263 322 373
#     4  10  18  35  65  92 119 166 214 256 324 376
#     4  12  25  39  64  95 126 166 214 262 317 387
#     4  10  20  36  64  92 120 170 208 274 318 372
#     4  12  25  39  65  95 127 167 214 261 314 385
#     4  10  20  39  63  92 122 164 211 260 316 379
#
# _framework density 19.837878
#
# number of rings (size 3 to 8) (size 9 to 14) (size 15 to 20)
#    0.000    1.067    6.667    0.400    1.867    0.000 
#    1.200    1.333    0.000    0.000    0.000    0.000 
#    0.000    0.000    0.000    0.000    0.000    0.000 
#
# Total GULP energy -167037.433118 kJ/mol
# GULP energy per Si atom -5567.914437 kJ/mol
# Density = 1.979273 g / cm^3
# Si number density = 19.837878 Si / 1000 Ang^3
#
#
#
# Elastic Constant Matrix: (Units=GPa)
#
#
# Indices 1 2 3 4 5 6 
#
# 1 96.5336 11.6051 12.9786 0.0000 -14.8241 0.0000
# 2 11.6051 49.0488 39.3533 0.0000 -10.6256 0.0000
# 3 12.9786 39.3533 135.0814 0.0000 -42.1050 0.0000
# 4 0.0000 0.0000 0.0000 9.0353 0.0000 -3.7050
# 5 -14.8241 -10.6256 -42.1050 0.0000 45.7567 0.0000
# 6 0.0000 0.0000 0.0000 -3.7050 0.0000 23.2535
#
#
#
# Elastic Compliance Matrix: (Units=1/GPa)
#
#
# Indices 1 2 3 4 5 6 
#
# 1 0.011128 -0.002483 0.000839 0.000000 0.003801 0.000000
# 2 -0.002483 0.027219 -0.008374 0.000000 -0.002189 0.000000
# 3 0.000839 -0.008374 0.012957 0.000000 0.010250 0.000000
# 4 0.000000 0.000000 0.000000 0.118414 0.000000 0.018867
# 5 0.003801 -0.002189 0.010250 0.000000 0.032010 0.000000
# 6 0.000000 0.000000 0.000000 0.018867 0.000000 0.046010
#
#
# Mechanical properties :
#
#
# Convention : Reuss Voigt Hill
#
# Bulk Modulus (GPa) = 31.97982 45.39307 38.68645
# Shear Modulus (GPa) = 17.97288 30.05755 24.01521
#
# Velocity S-wave (km/s) = 3.01323 3.89673 3.48310
# Velocity P-wave (km/s) = 5.31617 6.57097 5.97659
#
# Compressibility (1/GPa) = 0.03126972
#
# Stress axis : x y z
#
# Youngs Moduli (GPa) = 89.86009 36.73852 77.18003
#
# Poissons Ratio (x) = 0.09121 -0.06473
# Poissons Ratio (y) = 0.22308 0.64627
# Poissons Ratio (z) = -0.07536 0.30763
#
# Static dielectric constant tensor:
#      x y z
#    x 1.721300 0.000000 0.029640 
#    y 0.000000 1.812590 0.000000 
#    z 0.029640 0.000000 1.803870 
# 
# From -- ./inp_files/238692.got.cif
#   From: 2010.05.17/outbox.cif.g08.bks.cpg/sg15_120_cif.got.tgz:238692.got - 2010.06.03 18:47:42.
