data_PCOD9259298
_publ_section_title
;
Structure prediction by ZEFSAII (Michael W. Deem and Ramdas Pophale) SiO2 
 PCOD9259298
Probable space group: C 2/C
;
_chemical_formula_sum "Si O2"
_cell_formula_units_Z 52
_cell_length_a 12.780569
_cell_length_b 10.293931
_cell_length_c 19.647165
_cell_angle_alpha 90.000000
_cell_angle_beta 49.840270
_cell_angle_gamma 90.000000
_cell_volume 1975.452064
_symmetry_space_group_name_H-M "C 2/C"
_symmetry_group_IT_number 15
_symmetry_cell_setting 'monoclinic'
loop_
_space_group_symop_operation_xyz
x,y,z
-x,y,1/2-z
-x,-y,-z
x,-y,1/2+z
1/2+x,1/2+y,z
1/2-x,1/2+y,1/2-z
1/2-x,1/2-y,-z
1/2+x,1/2-y,1/2+z
loop_
_atom_site_type_symbol
_atom_site_label
_atom_site_fract_x
_atom_site_fract_y
_atom_site_fract_z
Si Si1 0.950945 0.229312 0.927923
Si Si2 0.345333 0.119213 0.347362
Si Si3 0.789787 0.167307 0.777016
Si Si4 0.365171 0.811372 0.537152
Si Si5 0.154561 0.346461 0.203573
Si Si6 0.361930 0.560093 0.444383
Si Si7 0.000000 0.019913 0.250000
O O1 0.088354 0.201716 0.826432
O O2 0.999392 0.313951 0.972687
O O3 0.860603 0.311336 0.913109
O O4 0.895615 0.081849 0.962124
O O5 0.500000 0.120622 0.250000
O O6 0.254647 0.207543 0.335851
O O7 0.300176 0.971700 0.358807
O O8 0.671580 0.121364 0.776234
O O9 0.863330 0.067796 0.796531
O O10 0.243870 0.773808 0.641158
O O11 0.384310 0.684915 0.482096
O O12 0.293148 0.921658 0.521339
O O13 0.000000 0.322197 0.250000
O O14 0.470412 0.577277 0.336543
#
# Coordination Sequence:
#
# PCOD9259298 Si02
#       7
#     8   8   8   8   8   8   4
#     4   9  17  36  61  80 111 160 200 244 308 361
#     4   9  16  34  55  80 114 151 199 239 295 365
#     4   9  16  33  55  85 110 146 201 245 283 357
#     4  10  22  37  56  88 123 154 197 265 307 355
#     4  10  22  35  53  85 123 160 190 243 310 367
#     4  10  20  36  61  87 118 151 208 255 307 368
#     4  10  18  34  66  88 102 148 208 252 286 370
#
# _framework density 26.323087999999998
#
# number of rings (size 3 to 8) (size 9 to 14) (size 15 to 20)
#    0.000    2.462    3.846    0.462    1.077    4.923 
#    5.538    0.769    0.000    4.615    0.000    0.000 
#    0.000    0.000    0.000    0.000    0.000    0.000 
#
# Total GULP energy -145341.208882 kJ/mol
# GULP energy per Si atom -5590.046495 kJ/mol
# Density = 2.626318 g / cm^3
# Si number density = 26.323088 Si / 1000 Ang^3
#
#
#
# Elastic Constant Matrix: (Units=GPa)
#
#
# Indices 1 2 3 4 5 6 
#
# 1 138.5881 39.9318 18.8007 0.0000 37.1487 0.0000
# 2 39.9318 79.2985 -6.4264 0.0000 9.6988 0.0000
# 3 18.8007 -6.4264 41.7239 0.0000 -2.8162 0.0000
# 4 0.0000 0.0000 0.0000 25.7675 0.0000 2.9357
# 5 37.1487 9.6988 -2.8162 0.0000 42.0073 0.0000
# 6 0.0000 0.0000 0.0000 2.9357 0.0000 14.2772
#
#
#
# Elastic Compliance Matrix: (Units=1/GPa)
#
#
# Indices 1 2 3 4 5 6 
#
# 1 0.012598 -0.005669 -0.007246 0.000000 -0.010318 0.000000
# 2 -0.005669 0.015665 0.005084 0.000000 0.001737 0.000000
# 3 -0.007246 0.005084 0.028498 0.000000 0.007145 0.000000
# 4 0.000000 0.000000 0.000000 0.039740 0.000000 -0.008171
# 5 -0.010318 0.001737 0.007145 0.000000 0.033007 0.000000
# 6 0.000000 0.000000 0.000000 -0.008171 0.000000 0.071722
#
#
# Mechanical properties :
#
#
# Convention : Reuss Voigt Hill
#
# Bulk Modulus (GPa) = 24.33163 40.46918 32.40041
# Shear Modulus (GPa) = 21.68351 30.23068 25.95709
#
# Velocity S-wave (km/s) = 2.87321 3.39255 3.14362
# Velocity P-wave (km/s) = 4.50229 5.54556 5.05094
#
# Compressibility (1/GPa) = 0.04109877
#
# Stress axis : x y z
#
# Youngs Moduli (GPa) = 79.37969 63.83721 35.09078
#
# Poissons Ratio (x) = 0.36190 0.25427
# Poissons Ratio (y) = 0.45001 -0.17842
# Poissons Ratio (z) = 0.57519 -0.32458
#
# Static dielectric constant tensor:
#      x y z
#    x 2.153330 0.000000 -0.038580 
#    y 0.000000 2.056570 0.000000 
#    z -0.038580 0.000000 2.107640 
# 
# From -- ./inp_files/236897.got.cif
#   From: 2010.05.17/outbox.cif.g08.bks.cpg/sg15_119_cif.got.tgz:236897.got - 2010.06.03 18:47:42.
