data_PCOD9259253
_publ_section_title
;
Structure prediction by ZEFSAII (Michael W. Deem and Ramdas Pophale) SiO2 
 PCOD9259253
Probable space group: C 2/C
;
_chemical_formula_sum "Si O2"
_cell_formula_units_Z 48
_cell_length_a 19.918204
_cell_length_b 7.626148
_cell_length_c 26.615849
_cell_angle_alpha 90.000000
_cell_angle_beta 147.966732
_cell_angle_gamma 90.000000
_cell_volume 2144.414466
_symmetry_space_group_name_H-M "C 2/C"
_symmetry_group_IT_number 15
_symmetry_cell_setting 'monoclinic'
loop_
_space_group_symop_operation_xyz
x,y,z
-x,y,1/2-z
-x,-y,-z
x,-y,1/2+z
1/2+x,1/2+y,z
1/2-x,1/2+y,1/2-z
1/2-x,1/2-y,-z
1/2+x,1/2-y,1/2+z
loop_
_atom_site_type_symbol
_atom_site_label
_atom_site_fract_x
_atom_site_fract_y
_atom_site_fract_z
Si Si1 0.506262 0.733735 0.460836
Si Si2 0.560477 0.676046 0.603415
Si Si3 0.781696 0.406055 0.125094
Si Si4 0.951735 0.856729 0.670203
Si Si5 0.157070 0.870482 0.469800
Si Si6 0.650561 0.824956 0.227737
O O1 0.496809 0.765932 0.514189
O O2 0.452289 0.535956 0.415171
O O3 0.658087 0.721083 0.549308
O O4 0.434865 0.856886 0.375606
O O5 0.478249 0.707510 0.600691
O O6 0.708130 0.723242 0.700318
O O7 0.881926 0.310144 0.151950
O O8 0.826430 0.452091 0.209868
O O9 0.726417 0.576648 0.064673
O O10 0.000000 0.960325 0.750000
O O11 0.070692 0.816405 0.709622
O O12 0.859856 0.959274 0.575523
O O13 0.250000 0.750000 0.500000
#
# Coordination Sequence:
#
# PCOD9259253 Si02
#       6
#     8   8   8   8   8   8
#     4   9  17  35  60  83 121 153 195 261 292 351
#     4   9  19  36  56  86 118 159 198 239 320 357
#     4   9  19  36  64  89 112 159 217 242 298 361
#     4  10  20  38  64  87 117 161 211 254 294 360
#     4  11  22  41  60  84 131 164 189 255 316 366
#     4  10  18  34  63  89 113 156 205 259 293 355
#
# _framework density 22.383731000000001
#
# number of rings (size 3 to 8) (size 9 to 14) (size 15 to 20)
#    0.000    2.333    3.333    1.500    0.000    0.000 
#    6.000    2.500    0.000    5.000    0.000    0.000 
#    0.000    0.000    0.000    0.000    0.000    0.000 
#
# Total GULP energy -133681.906477 kJ/mol
# GULP energy per Si atom -5570.079437 kJ/mol
# Density = 2.233278 g / cm^3
# Si number density = 22.383731 Si / 1000 Ang^3
#
#
#
# Elastic Constant Matrix: (Units=GPa)
#
#
# Indices 1 2 3 4 5 6 
#
# 1 138.9282 18.8907 31.4015 0.0000 24.9703 0.0000
# 2 18.8907 10.6415 12.7560 0.0001 9.5551 -0.0001
# 3 31.4015 12.7560 104.0119 0.0000 -4.2732 0.0000
# 4 0.0000 0.0001 0.0000 3.1274 0.0000 1.2416
# 5 24.9703 9.5551 -4.2732 0.0000 50.5893 0.0000
# 6 0.0000 -0.0001 0.0000 1.2416 0.0000 19.5087
#
#
#
# Elastic Compliance Matrix: (Units=1/GPa)
#
#
# Indices 1 2 3 4 5 6 
#
# 1 0.009785 -0.013564 -0.001389 0.000000 -0.002385 0.000000
# 2 -0.013564 0.160407 -0.016605 -0.000003 -0.025005 0.000001
# 3 -0.001389 -0.016605 0.012269 0.000000 0.004858 0.000000
# 4 0.000000 -0.000003 0.000000 0.328046 0.000000 -0.020878
# 5 -0.002385 -0.025005 0.004858 0.000000 0.026077 0.000000
# 6 0.000000 0.000001 0.000000 -0.020878 0.000000 0.052588
#
#
# Mechanical properties :
#
#
# Convention : Reuss Voigt Hill
#
# Bulk Modulus (GPa) = 8.37891 42.18644 25.28268
# Shear Modulus (GPa) = 7.22470 27.34729 17.28599
#
# Velocity S-wave (km/s) = 1.79852 3.49914 2.78197
# Velocity P-wave (km/s) = 2.83977 5.93407 4.65175
#
# Compressibility (1/GPa) = 0.11934722
#
# Stress axis : x y z
#
# Youngs Moduli (GPa) = 102.19863 6.23413 81.50302
#
# Poissons Ratio (x) = 0.08456 0.11317
# Poissons Ratio (y) = 1.38623 1.35333
# Poissons Ratio (z) = 0.14191 0.10352
#
# Static dielectric constant tensor:
#      x y z
#    x 1.709910 0.000000 -0.095270 
#    y 0.000000 2.046400 0.000000 
#    z -0.095270 0.000000 1.877430 
# 
# From -- ./inp_files/300569.got.cif
#   From: 2010.05.17/outbox.cif.g08.bks.cpg/sg15_151_cif.got.tgz:300569.got - 2010.06.03 18:47:42.
