data_PCOD9259748
_publ_section_title
;
Structure prediction by ZEFSAII (Michael W. Deem and Ramdas Pophale) SiO2 
 PCOD9259748
Probable space group: C 2/C
;
_chemical_formula_sum "Si O2"
_cell_formula_units_Z 56
_cell_length_a 30.006530
_cell_length_b 12.045008
_cell_length_c 9.023802
_cell_angle_alpha 90.000000
_cell_angle_beta 126.390820
_cell_angle_gamma 90.000000
_cell_volume 2625.441219
_symmetry_space_group_name_H-M "C 2/C"
_symmetry_group_IT_number 15
_symmetry_cell_setting 'monoclinic'
loop_
_space_group_symop_operation_xyz
x,y,z
-x,y,1/2-z
-x,-y,-z
x,-y,1/2+z
1/2+x,1/2+y,z
1/2-x,1/2+y,1/2-z
1/2-x,1/2-y,-z
1/2+x,1/2-y,1/2+z
loop_
_atom_site_type_symbol
_atom_site_label
_atom_site_fract_x
_atom_site_fract_y
_atom_site_fract_z
Si Si1 0.777545 0.142072 0.362642
Si Si2 0.153101 0.598128 0.107479
Si Si3 0.214978 0.916679 0.961992
Si Si4 0.669997 0.157892 0.658049
Si Si5 0.555089 0.873598 0.578940
Si Si6 0.000000 0.204277 0.250000
Si Si7 0.000000 0.447779 0.750000
Si Si8 0.389757 0.728630 0.197676
O O1 0.711842 0.156261 0.233959
O O2 0.810102 0.257036 0.428674
O O3 0.789058 0.044975 0.500857
O O4 0.789510 0.093667 0.222698
O O5 0.157616 0.467525 0.086677
O O6 0.120161 0.616244 0.192960
O O7 0.117200 0.659722 0.912585
O O8 0.273911 0.863220 0.129732
O O9 0.163220 0.850580 0.928092
O O10 0.621616 0.218988 0.659440
O O11 0.530130 0.769947 0.442627
O O12 0.537162 0.877614 0.712481
O O13 0.532708 0.975220 0.431748
O O14 0.944945 0.167477 0.240871
#
# Coordination Sequence:
#
# PCOD9259748 Si02
#       8
#     8   8   8   8   8   4   4   8
#     4  10  19  35  53  79 102 144 177 216 265 310
#     4  10  19  29  50  78 108 133 175 213 258 311
#     4  10  19  35  59  74 107 141 178 223 260 314
#     4  10  19  32  53  77 107 147 169 215 263 329
#     4   9  19  29  46  71 103 142 168 208 250 318
#     4   9  20  32  54  76  99 134 183 216 256 315
#     4   9  18  30  42  66 105 136 175 196 252 307
#     4  10  18  36  52  79 106 141 179 212 266 319
#
# _framework density 21.329746
#
# number of rings (size 3 to 8) (size 9 to 14) (size 15 to 20)
#    0.000    2.286    2.857    0.857    8.000    0.000 
#    0.000    4.286    0.000    3.429    0.000    5.000 
#    0.000    0.000    0.000    0.000    0.000    0.000 
#
# Total GULP energy -155972.393234 kJ/mol
# GULP energy per Si atom -5570.442616 kJ/mol
# Density = 2.128120 g / cm^3
# Si number density = 21.329746 Si / 1000 Ang^3
#
#
#
# Elastic Constant Matrix: (Units=GPa)
#
#
# Indices 1 2 3 4 5 6 
#
# 1 174.4662 15.8011 21.7900 0.0000 -8.0839 0.0000
# 2 15.8011 33.2612 10.4677 0.0000 0.2601 0.0000
# 3 21.7900 10.4677 51.3310 0.0000 -7.9934 0.0000
# 4 0.0000 0.0000 0.0000 15.6233 0.0000 -1.0891
# 5 -8.0839 0.2601 -7.9934 0.0000 21.8903 0.0000
# 6 0.0000 0.0000 0.0000 -1.0891 0.0000 22.2655
#
#
#
# Elastic Compliance Matrix: (Units=1/GPa)
#
#
# Indices 1 2 3 4 5 6 
#
# 1 0.006263 -0.002385 -0.001917 0.000000 0.001641 0.000000
# 2 -0.002385 0.033215 -0.006319 0.000000 -0.003583 0.000000
# 3 -0.001917 -0.006319 0.022780 0.000000 0.007686 0.000000
# 4 0.000000 0.000000 0.000000 0.064226 0.000000 0.003141
# 5 0.001641 -0.003583 0.007686 0.000000 0.049138 0.000000
# 6 0.000000 0.000000 0.000000 0.003141 0.000000 0.045066
#
#
# Mechanical properties :
#
#
# Convention : Reuss Voigt Hill
#
# Bulk Modulus (GPa) = 24.38002 39.46401 31.92201
# Shear Modulus (GPa) = 19.56170 26.02246 22.79208
#
# Velocity S-wave (km/s) = 3.03167 3.49665 3.27243
# Velocity P-wave (km/s) = 4.86924 5.90289 5.41081
#
# Compressibility (1/GPa) = 0.04101720
#
# Stress axis : x y z
#
# Youngs Moduli (GPa) = 159.66214 30.10719 43.89729
#
# Poissons Ratio (x) = 0.07181 0.08414
# Poissons Ratio (y) = 0.38080 0.27738
# Poissons Ratio (z) = 0.30604 0.19024
#
# Static dielectric constant tensor:
#      x y z
#    x 1.888780 0.000000 0.011290 
#    y 0.000000 1.792230 0.000000 
#    z 0.011290 0.000000 1.809640 
# 
# From -- ./inp_files/69477.got.cif
#   From: 2010.05.17/outbox.cif.g08.bks.cpg/sg15_35_cif.got.tgz:69477.got - 2010.06.03 18:47:42.
