data_PCOD9259699
_publ_section_title
;
Structure prediction by ZEFSAII (Michael W. Deem and Ramdas Pophale) SiO2 
 PCOD9259699
Probable space group: C 2/C
;
_chemical_formula_sum "Si O2"
_cell_formula_units_Z 64
_cell_length_a 12.314035
_cell_length_b 14.429059
_cell_length_c 16.304340
_cell_angle_alpha 90.000000
_cell_angle_beta 123.852262
_cell_angle_gamma 90.000000
_cell_volume 2405.852897
_symmetry_space_group_name_H-M "C 2/C"
_symmetry_group_IT_number 15
_symmetry_cell_setting 'monoclinic'
loop_
_space_group_symop_operation_xyz
x,y,z
-x,y,1/2-z
-x,-y,-z
x,-y,1/2+z
1/2+x,1/2+y,z
1/2-x,1/2+y,1/2-z
1/2-x,1/2-y,-z
1/2+x,1/2-y,1/2+z
loop_
_atom_site_type_symbol
_atom_site_label
_atom_site_fract_x
_atom_site_fract_y
_atom_site_fract_z
Si Si1 0.186122 0.891480 0.260699
Si Si2 0.019241 0.079889 0.938721
Si Si3 0.146100 0.179120 0.340276
Si Si4 0.183878 0.415357 0.914386
Si Si5 0.350122 0.098775 0.670329
Si Si6 0.529010 0.286572 0.951265
Si Si7 0.730208 0.823717 0.768163
Si Si8 0.566576 0.098714 0.525701
O O1 0.953813 0.935628 0.322695
O O2 0.268389 0.925214 0.216498
O O3 0.174509 0.779859 0.253913
O O4 0.285306 0.910789 0.376561
O O5 0.169201 0.108722 0.997045
O O6 0.948980 0.166797 0.952441
O O7 0.000000 0.000000 0.000000
O O8 0.156861 0.290852 0.339551
O O9 0.253219 0.143354 0.319842
O O10 0.000000 0.151697 0.250000
O O11 0.134912 0.170880 0.433510
O O12 0.184170 0.526886 0.914939
O O13 0.165629 0.383634 0.812812
O O14 0.083795 0.373659 0.937519
O O15 0.500000 0.078232 0.750000
O O16 0.384334 0.315194 0.858983
O O17 0.512005 0.176436 0.955788
O O18 0.500000 0.000000 0.500000
#
# Coordination Sequence:
#
# PCOD9259699 Si02
#       8
#     8   8   8   8   8   8   8   8
#     4  10  21  41  64  89 135 178 230 279 344 420
#     4  11  23  43  64  89 139 194 231 272 349 433
#     4   8  14  32  62  90 120 164 220 280 336 398
#     4  11  22  39  67  94 139 179 228 290 350 423
#     4  10  18  35  64  91 125 177 223 280 345 388
#     4   9  19  37  65  93 130 174 223 290 342 408
#     4   8  18  35  61  93 123 172 223 277 343 408
#     4  11  23  43  70 105 137 173 239 302 355 409
#
# _framework density 26.601793000000001
#
# number of rings (size 3 to 8) (size 9 to 14) (size 15 to 20)
#    0.000    2.250    1.250    3.750    0.000    5.000 
#    4.500    3.750    5.500    0.000    0.000    0.000 
#    0.000    0.000    0.000    0.000    0.000    0.000 
#
# Total GULP energy -178885.529015 kJ/mol
# GULP energy per Si atom -5590.172782 kJ/mol
# Density = 2.654125 g / cm^3
# Si number density = 26.601793 Si / 1000 Ang^3
#
#
#
# Elastic Constant Matrix: (Units=GPa)
#
#
# Indices 1 2 3 4 5 6 
#
# 1 76.5890 16.3389 39.8682 0.0000 -18.3301 0.0000
# 2 16.3389 93.0621 34.8812 0.0000 -3.5189 0.0000
# 3 39.8682 34.8812 116.2370 0.0000 -8.3413 0.0000
# 4 0.0000 0.0000 0.0000 31.3513 0.0000 9.2773
# 5 -18.3301 -3.5189 -8.3413 0.0000 41.9760 0.0000
# 6 0.0000 0.0000 0.0000 9.2773 0.0000 -6.8954
#
#
#
# Elastic Compliance Matrix: (Units=1/GPa)
#
#
# Indices 1 2 3 4 5 6 
#
# 1 0.017563 -0.000850 -0.005299 0.000000 0.006545 0.000000
# 2 -0.000850 0.012152 -0.003357 0.000000 -0.000019 0.000000
# 3 -0.005299 -0.003357 0.011404 0.000000 -0.000329 0.000000
# 4 0.000000 0.000000 0.000000 0.022814 0.000000 0.030694
# 5 0.006545 -0.000019 -0.000329 0.000000 0.026614 0.000000
# 6 0.000000 0.000000 0.000000 0.030694 0.000000 -0.103727
#
#
# Mechanical properties :
#
#
# Convention : Reuss Voigt Hill
#
# Bulk Modulus (GPa) = 45.23229 52.00721 48.61975
# Shear Modulus (GPa) = 378.77217 26.27304 202.52261
#
# Velocity S-wave (km/s) = 11.94550 3.14609 8.73478
# Velocity P-wave (km/s) = 14.39793 5.72624 10.95651
#
# Compressibility (1/GPa) = 0.02210810
#
# Stress axis : x y z
#
# Youngs Moduli (GPa) = 56.93814 82.29036 87.68593
#
# Poissons Ratio (x) = 0.06993 0.46467
# Poissons Ratio (y) = 0.04839 0.29433
# Poissons Ratio (z) = 0.30173 0.27622
#
# Static dielectric constant tensor:
#      x y z
#    x 2.092020 0.000000 0.020600 
#    y 0.000000 2.067210 0.000000 
#    z 0.020600 0.000000 2.160380 
# 
# From -- ./inp_files/199194.got.cif
#   From: 2010.05.17/outbox.cif.g08.bks.cpg/sg15_100_cif.got.tgz:199194.got - 2010.06.03 18:47:42.
