data_PCOD9259999
_publ_section_title
;
Structure prediction by ZEFSAII (Michael W. Deem and Ramdas Pophale) SiO2 
 PCOD9259999
Probable space group: C 2/C
;
_chemical_formula_sum "Si O2"
_cell_formula_units_Z 48
_cell_length_a 13.235725
_cell_length_b 13.349872
_cell_length_c 14.177015
_cell_angle_alpha 90.000000
_cell_angle_beta 136.015464
_cell_angle_gamma 90.000000
_cell_volume 1739.640446
_symmetry_space_group_name_H-M "C 2/C"
_symmetry_group_IT_number 15
_symmetry_cell_setting 'monoclinic'
loop_
_space_group_symop_operation_xyz
x,y,z
-x,y,1/2-z
-x,-y,-z
x,-y,1/2+z
1/2+x,1/2+y,z
1/2-x,1/2+y,1/2-z
1/2-x,1/2-y,-z
1/2+x,1/2-y,1/2+z
loop_
_atom_site_type_symbol
_atom_site_label
_atom_site_fract_x
_atom_site_fract_y
_atom_site_fract_z
Si Si1 0.010183 0.713639 0.414071
Si Si2 0.029366 0.484052 0.162506
Si Si3 0.169302 0.025325 0.111915
Si Si4 0.500000 0.705067 0.250000
Si Si5 0.311835 0.748218 0.291537
Si Si6 0.218659 0.971193 0.928963
Si Si7 0.000000 0.871552 0.250000
O O1 0.981951 0.605516 0.350463
O O2 0.856656 0.757915 0.348713
O O3 0.054624 0.795790 0.366734
O O4 0.130138 0.701800 0.574405
O O5 0.197691 0.460851 0.254302
O O6 0.000000 0.454256 0.250000
O O7 0.884496 0.451155 0.009164
O O8 0.175107 0.130932 0.169242
O O9 0.212322 0.020269 0.029529
O O10 0.000000 0.000000 0.000000
O O11 0.426432 0.764721 0.285285
O O12 0.371331 0.631596 0.127910
O O13 0.126138 0.050426 0.805694
#
# Coordination Sequence:
#
# PCOD9259999 Si02
#       7
#     8   8   8   4   8   8   4
#     4  11  22  38  61  93 125 156 200 247 313 372
#     4   9  19  33  59  94 125 149 186 251 313 371
#     4  10  18  36  60  87 120 156 198 249 305 362
#     4  11  24  42  62  78 122 171 214 250 288 351
#     4  11  24  40  61  87 121 165 209 251 295 360
#     4  10  20  36  59  92 121 154 196 247 315 359
#     4  11  20  32  64  94 126 155 186 254 324 383
#
# _framework density 27.591909999999999
#
# number of rings (size 3 to 8) (size 9 to 14) (size 15 to 20)
#    0.000    1.667    4.167    1.000    0.000    2.000 
#    0.000    5.000    0.000    0.000    0.000    0.000 
#    0.000    0.000    0.000    0.000    0.000    0.000 
#
# Total GULP energy -134467.359155 kJ/mol
# GULP energy per Si atom -5602.806631 kJ/mol
# Density = 2.752911 g / cm^3
# Si number density = 27.591910 Si / 1000 Ang^3
#
#
#
# Elastic Constant Matrix: (Units=GPa)
#
#
# Indices 1 2 3 4 5 6 
#
# 1 130.8905 29.6311 48.6585 0.0000 26.5070 0.0000
# 2 29.6311 77.2881 25.1133 0.0000 8.3153 0.0000
# 3 48.6585 25.1133 134.0782 0.0000 33.8173 0.0000
# 4 0.0000 0.0000 0.0000 34.1895 0.0000 3.6054
# 5 26.5070 8.3153 33.8173 0.0000 76.3793 0.0000
# 6 0.0000 0.0000 0.0000 3.6054 0.0000 40.5074
#
#
#
# Elastic Compliance Matrix: (Units=1/GPa)
#
#
# Indices 1 2 3 4 5 6 
#
# 1 0.009553 -0.002648 -0.002485 0.000000 -0.001927 0.000000
# 2 -0.002648 0.014522 -0.001792 0.000000 0.000131 0.000000
# 3 -0.002485 -0.001792 0.009489 0.000000 -0.003144 0.000000
# 4 0.000000 0.000000 0.000000 0.029526 0.000000 -0.002628
# 5 -0.001927 0.000131 -0.003144 0.000000 0.015139 0.000000
# 6 0.000000 0.000000 0.000000 -0.002628 0.000000 0.024921
#
#
# Mechanical properties :
#
#
# Convention : Reuss Voigt Hill
#
# Bulk Modulus (GPa) = 50.72580 61.00695 55.86637
# Shear Modulus (GPa) = 40.46248 46.13885 43.30066
#
# Velocity S-wave (km/s) = 3.83360 4.09368 3.96577
# Velocity P-wave (km/s) = 6.16599 6.67103 6.42348
#
# Compressibility (1/GPa) = 0.01971384
#
# Stress axis : x y z
#
# Youngs Moduli (GPa) = 104.67412 68.86127 105.38758
#
# Poissons Ratio (x) = 0.18233 0.26190
# Poissons Ratio (y) = 0.27716 0.18888
# Poissons Ratio (z) = 0.26013 0.12342
#
# Static dielectric constant tensor:
#      x y z
#    x 2.137390 0.000000 -0.008140 
#    y 0.000000 2.152670 0.000000 
#    z -0.008140 0.000000 2.186710 
# 
# From -- ./inp_files/155305.got.cif
#   From: 2010.05.17/outbox.cif.g08.bks.cpg/sg15_78_cif.got.tgz:155305.got - 2010.06.03 18:47:42.
