data_PCOD9259015
_publ_section_title
;
Structure prediction by ZEFSAII (Michael W. Deem and Ramdas Pophale) SiO2 
 PCOD9259015
Probable space group: C 2/C
;
_chemical_formula_sum "Si O2"
_cell_formula_units_Z 60
_cell_length_a 16.950952
_cell_length_b 23.572207
_cell_length_c 5.836088
_cell_angle_alpha 90.000000
_cell_angle_beta 80.066262
_cell_angle_gamma 90.000000
_cell_volume 2296.973015
_symmetry_space_group_name_H-M "C 2/C"
_symmetry_group_IT_number 15
_symmetry_cell_setting 'monoclinic'
loop_
_space_group_symop_operation_xyz
x,y,z
-x,y,1/2-z
-x,-y,-z
x,-y,1/2+z
1/2+x,1/2+y,z
1/2-x,1/2+y,1/2-z
1/2-x,1/2-y,-z
1/2+x,1/2-y,1/2+z
loop_
_atom_site_type_symbol
_atom_site_label
_atom_site_fract_x
_atom_site_fract_y
_atom_site_fract_z
Si Si1 0.684035 0.741886 0.334349
Si Si2 0.903357 0.357140 0.281209
Si Si3 0.428246 0.974130 0.704463
Si Si4 0.711163 0.067053 0.963861
Si Si5 0.926487 0.145366 0.913554
Si Si6 0.500000 0.439733 0.750000
Si Si7 0.737089 0.139244 0.340836
Si Si8 0.348725 0.559736 0.593460
O O1 0.750000 0.750000 0.500000
O O2 0.635196 0.798801 0.298837
O O3 0.620799 0.696257 0.454840
O O4 0.728722 0.701458 0.125350
O O5 0.856594 0.361757 0.546785
O O6 0.000000 0.357644 0.250000
O O7 0.860512 0.408608 0.159656
O O8 0.500000 0.931926 0.750000
O O9 0.336224 0.961881 0.803963
O O10 0.439169 0.984272 0.427367
O O11 0.747233 0.121831 0.072042
O O12 0.783355 0.033710 0.805119
O O13 0.889099 0.107368 0.731745
O O14 0.000000 0.174208 0.750000
O O15 0.954615 0.101045 0.093845
O O16 0.574899 0.469367 0.574620
O O17 0.789951 0.094143 0.453689
#
# Coordination Sequence:
#
# PCOD9259015 Si02
#       8
#     8   8   8   8   8   4   8   8
#     4  12  21  40  53  77 120 171 220 273 328 382
#     4  11  27  37  57  88 121 175 230 274 334 391
#     4  10  25  46  74 107 138 174 218 276 348 420
#     4  11  23  42  64  92 131 165 217 277 335 409
#     4  10  21  34  54  79 113 158 217 273 317 371
#     4  10  18  34  58  84 122 154 218 268 318 368
#     4  11  22  40  60  79 123 170 219 274 331 383
#     4  10  19  36  59  91 116 167 213 270 330 385
#
# _framework density 26.121337
#
# number of rings (size 3 to 8) (size 9 to 14) (size 15 to 20)
#    0.000    1.333    4.000    1.200    6.533    1.600 
#    0.000    0.000    0.000    0.000    0.000    0.933 
#    0.000    0.000    0.000    0.000    0.000    0.000 
#
# Total GULP energy -167285.266265 kJ/mol
# GULP energy per Si atom -5576.175542 kJ/mol
# Density = 2.606188 g / cm^3
# Si number density = 26.121337 Si / 1000 Ang^3
#
#
#
# Elastic Constant Matrix: (Units=GPa)
#
#
# Indices 1 2 3 4 5 6 
#
# 1 201.5961 52.2696 75.2899 0.0000 -28.5870 0.0000
# 2 52.2696 81.9669 35.9946 0.0000 6.3947 0.0000
# 3 75.2899 35.9946 129.6957 0.0000 -39.7587 0.0000
# 4 0.0000 0.0000 0.0000 9.9057 0.0000 -2.9610
# 5 -28.5870 6.3947 -39.7587 0.0000 72.9935 0.0000
# 6 0.0000 0.0000 0.0000 -2.9610 0.0000 43.2137
#
#
#
# Elastic Compliance Matrix: (Units=1/GPa)
#
#
# Indices 1 2 3 4 5 6 
#
# 1 0.007083 -0.003485 -0.002642 0.000000 0.001640 0.000000
# 2 -0.003485 0.016644 -0.004156 0.000000 -0.005086 0.000000
# 3 -0.002642 -0.004156 0.012235 0.000000 0.005993 0.000000
# 4 0.000000 0.000000 0.000000 0.103063 0.000000 0.007062
# 5 0.001640 -0.005086 0.005993 0.000000 0.018052 0.000000
# 6 0.000000 0.000000 0.000000 0.007062 0.000000 0.023625
#
#
# Mechanical properties :
#
#
# Convention : Reuss Voigt Hill
#
# Bulk Modulus (GPa) = 64.94601 82.26300 73.60451
# Shear Modulus (GPa) = 24.22498 41.86954 33.04726
#
# Velocity S-wave (km/s) = 3.04863 4.00795 3.56075
# Velocity P-wave (km/s) = 6.10814 7.27868 6.71895
#
# Compressibility (1/GPa) = 0.01539740
#
# Stress axis : x y z
#
# Youngs Moduli (GPa) = 141.17901 60.08220 81.73529
#
# Poissons Ratio (x) = 0.20937 0.21594
# Poissons Ratio (y) = 0.49197 0.33965
# Poissons Ratio (z) = 0.37299 0.24967
#
# Static dielectric constant tensor:
#      x y z
#    x 2.313550 0.000000 -0.142500 
#    y 0.000000 2.097300 0.000000 
#    z -0.142500 0.000000 2.200550 
# 
# From -- ./inp_files/12007.got.cif
#   From: 2010.05.17/outbox.cif.g08.bks.cpg/sg15_7_cif.got.tgz:12007.got - 2010.06.03 18:47:42.
