data_PCOD9259653
_publ_section_title
;
Structure prediction by ZEFSAII (Michael W. Deem and Ramdas Pophale) SiO2 
 PCOD9259653
Probable space group: C 2/C
;
_chemical_formula_sum "Si O2"
_cell_formula_units_Z 48
_cell_length_a 8.281945
_cell_length_b 28.967634
_cell_length_c 19.460326
_cell_angle_alpha 90.000000
_cell_angle_beta 32.170733
_cell_angle_gamma 90.000000
_cell_volume 2485.818341
_symmetry_space_group_name_H-M "C 2/C"
_symmetry_group_IT_number 15
_symmetry_cell_setting 'monoclinic'
loop_
_space_group_symop_operation_xyz
x,y,z
-x,y,1/2-z
-x,-y,-z
x,-y,1/2+z
1/2+x,1/2+y,z
1/2-x,1/2+y,1/2-z
1/2-x,1/2-y,-z
1/2+x,1/2-y,1/2+z
loop_
_atom_site_type_symbol
_atom_site_label
_atom_site_fract_x
_atom_site_fract_y
_atom_site_fract_z
Si Si1 0.075916 0.726056 0.144387
Si Si2 0.640161 0.493848 0.123451
Si Si3 0.147561 0.070651 0.370001
Si Si4 0.852487 0.805933 0.136556
Si Si5 0.241336 0.636661 0.287158
Si Si6 0.591881 0.407619 0.044120
O O1 0.000000 0.719241 0.250000
O O2 0.979519 0.776736 0.154946
O O3 0.877537 0.688858 0.173654
O O4 0.425103 0.713494 0.003218
O O5 0.500000 0.495902 0.250000
O O6 0.518418 0.534618 0.118827
O O7 0.554907 0.446559 0.114714
O O8 0.000000 0.500000 0.000000
O O9 0.500000 0.056461 0.250000
O O10 0.152082 0.118865 0.326201
O O11 0.016159 0.075123 0.493994
O O12 0.500000 0.797218 0.250000
O O13 0.912789 0.860373 0.122684
O O14 0.500000 0.630735 0.250000
O O15 0.947855 0.606160 0.412085
#
# Coordination Sequence:
#
# PCOD9259653 Si02
#       6
#     8   8   8   8   8   8
#     4  10  21  39  61  86 118 157 202 247 291 356
#     4  12  25  41  61  89 123 158 202 251 304 361
#     4  10  20  38  62  87 116 157 208 249 291 357
#     4  10  22  39  58  87 121 153 195 246 302 360
#     4  10  18  35  62  88 115 154 204 250 292 348
#     4  10  22  38  58  86 123 157 194 248 307 363
#
# _framework density 19.309536000000001
#
# number of rings (size 3 to 8) (size 9 to 14) (size 15 to 20)
#    0.000    1.667    0.000    7.000    0.000    3.333 
#    0.000    6.667    0.000    0.000    0.000    0.000 
#    0.000    0.000    0.000    0.000    0.000    0.000 
#
# Total GULP energy -134051.257525 kJ/mol
# GULP energy per Si atom -5585.469064 kJ/mol
# Density = 1.926559 g / cm^3
# Si number density = 19.309536 Si / 1000 Ang^3
#
#
#
# Elastic Constant Matrix: (Units=GPa)
#
#
# Indices 1 2 3 4 5 6 
#
# 1 125.4612 51.6182 72.6704 0.0000 1.7474 0.0001
# 2 51.6182 119.8704 39.6619 0.0000 4.5107 0.0001
# 3 72.6704 39.6619 83.9660 0.0010 -14.2816 0.0005
# 4 0.0000 0.0000 0.0010 13.4371 0.0001 1.8067
# 5 1.7474 4.5107 -14.2816 0.0001 23.9011 0.0000
# 6 0.0001 0.0001 0.0005 1.8067 0.0000 -13.5386
#
#
#
# Elastic Compliance Matrix: (Units=1/GPa)
#
#
# Indices 1 2 3 4 5 6 
#
# 1 0.019132 -0.001988 -0.017580 0.000002 -0.011528 0.000000
# 2 -0.001988 0.010707 -0.004070 0.000000 -0.004307 0.000000
# 3 -0.017580 -0.004070 0.032721 -0.000003 0.021605 0.000001
# 4 0.000002 0.000000 -0.000003 0.073109 -0.000002 0.009757
# 5 -0.011528 -0.004307 0.021605 -0.000002 0.056404 0.000000
# 6 0.000000 0.000000 0.000001 0.009757 0.000000 -0.072561
#
#
# Mechanical properties :
#
#
# Convention : Reuss Voigt Hill
#
# Bulk Modulus (GPa) = 65.42080 73.02209 69.22145
# Shear Modulus (GPa) = 29.08964 15.78305 22.43635
#
# Velocity S-wave (km/s) = 3.88556 2.86207 3.41241
# Velocity P-wave (km/s) = 7.35417 6.98718 7.17302
#
# Compressibility (1/GPa) = 0.01528566
#
# Stress axis : x y z
#
# Youngs Moduli (GPa) = 52.26929 93.39704 30.56099
#
# Poissons Ratio (x) = 0.18567 0.53725
# Poissons Ratio (y) = 0.10391 0.12437
# Poissons Ratio (z) = 0.91888 0.38008
#
# Static dielectric constant tensor:
#      x y z
#    x 1.640740 0.000000 0.008620 
#    y 0.000000 1.686710 0.000000 
#    z 0.008620 0.000000 1.670150 
# 
# From -- ./inp_files/234749.got.cif
#   From: 2010.05.17/outbox.cif.g08.bks.cpg/sg15_118_cif.got.tgz:234749.got - 2010.06.03 18:47:42.
