data_PCOD9259277
_publ_section_title
;
Structure prediction by ZEFSAII (Michael W. Deem and Ramdas Pophale) SiO2 
 PCOD9259277
Probable space group: C 2/C
;
_chemical_formula_sum "Si O2"
_cell_formula_units_Z 60
_cell_length_a 19.642457
_cell_length_b 17.467123
_cell_length_c 10.505310
_cell_angle_alpha 90.000000
_cell_angle_beta 136.591330
_cell_angle_gamma 90.000000
_cell_volume 2476.895021
_symmetry_space_group_name_H-M "C 2/C"
_symmetry_group_IT_number 15
_symmetry_cell_setting 'monoclinic'
loop_
_space_group_symop_operation_xyz
x,y,z
-x,y,1/2-z
-x,-y,-z
x,-y,1/2+z
1/2+x,1/2+y,z
1/2-x,1/2+y,1/2-z
1/2-x,1/2-y,-z
1/2+x,1/2-y,1/2+z
loop_
_atom_site_type_symbol
_atom_site_label
_atom_site_fract_x
_atom_site_fract_y
_atom_site_fract_z
Si Si1 0.500000 0.343217 0.250000
Si Si2 0.574673 0.926559 0.730567
Si Si3 0.560576 0.913047 0.205500
Si Si4 0.769434 0.848006 0.246647
Si Si5 0.389676 0.632882 0.161989
Si Si6 0.597737 0.469915 0.204979
Si Si7 0.906973 0.269896 0.367268
Si Si8 0.622853 0.236658 0.292718
O O1 0.546968 0.401157 0.213546
O O2 0.592966 0.284095 0.378903
O O3 0.500000 0.920879 0.750000
O O4 0.511263 0.919047 0.514780
O O5 0.644739 0.853013 0.834827
O O6 0.626228 0.009725 0.791606
O O7 0.500000 0.924500 0.250000
O O8 0.596886 0.826580 0.260342
O O9 0.821401 0.839273 0.454402
O O10 0.813372 0.928868 0.253404
O O11 0.657414 0.826639 0.129826
O O12 0.802233 0.782869 0.191841
O O13 0.500000 0.636674 0.250000
O O14 0.368997 0.544438 0.170985
O O15 0.378167 0.686947 0.271344
O O16 0.500000 0.500000 0.000000
O O17 0.018349 0.260559 0.571941
#
# Coordination Sequence:
#
# PCOD9259277 Si02
#       8
#     4   8   8   8   8   8   8   8
#     4  10  18  34  64  92 114 164 212 258 322 384
#     4   9  17  34  59  86 113 162 211 250 315 391
#     4   9  19  35  59  85 118 164 213 261 317 383
#     4  11  24  40  60  96 126 163 215 264 329 388
#     4  12  20  39  66  91 122 167 212 264 327 384
#     4  11  20  38  64  91 123 162 213 262 324 390
#     4  11  23  39  59  92 126 163 211 271 320 389
#     4  10  20  37  63  84 125 167 205 264 324 391
#
# _framework density 24.223877000000002
#
# number of rings (size 3 to 8) (size 9 to 14) (size 15 to 20)
#    0.000    1.600    4.000    1.600    1.867    0.000 
#    2.400    8.000    0.000    0.000    0.000    0.000 
#    0.000    0.000    0.000    0.000    0.000    0.000 
#
# Total GULP energy -167164.030752 kJ/mol
# GULP energy per Si atom -5572.134358 kJ/mol
# Density = 2.416874 g / cm^3
# Si number density = 24.223877 Si / 1000 Ang^3
#
#
#
# Elastic Constant Matrix: (Units=GPa)
#
#
# Indices 1 2 3 4 5 6 
#
# 1 89.6002 18.8559 20.0619 0.0000 5.1928 0.0000
# 2 18.8559 166.4505 14.5603 0.0000 9.9898 0.0000
# 3 20.0619 14.5603 68.9895 0.0000 1.0076 0.0000
# 4 0.0000 0.0000 0.0000 28.6560 0.0000 -6.2047
# 5 5.1928 9.9898 1.0076 0.0000 32.7612 0.0000
# 6 0.0000 0.0000 0.0000 -6.2047 0.0000 47.0657
#
#
#
# Elastic Compliance Matrix: (Units=1/GPa)
#
#
# Indices 1 2 3 4 5 6 
#
# 1 0.012202 -0.001001 -0.003315 0.000000 -0.001527 0.000000
# 2 -0.001001 0.006314 -0.001016 0.000000 -0.001736 0.000000
# 3 -0.003315 -0.001016 0.015668 0.000000 0.000353 0.000000
# 4 0.000000 0.000000 0.000000 0.035922 0.000000 0.004736
# 5 -0.001527 -0.001736 0.000353 0.000000 0.031284 0.000000
# 6 0.000000 0.000000 0.000000 0.004736 0.000000 0.021871
#
#
# Mechanical properties :
#
#
# Convention : Reuss Voigt Hill
#
# Bulk Modulus (GPa) = 42.51534 47.99958 45.25746
# Shear Modulus (GPa) = 35.26945 39.80072 37.53509
#
# Velocity S-wave (km/s) = 3.81987 4.05784 3.94065
# Velocity P-wave (km/s) = 6.08640 6.46628 6.27921
#
# Compressibility (1/GPa) = 0.02352092
#
# Stress axis : x y z
#
# Youngs Moduli (GPa) = 81.95405 158.37296 63.82347
#
# Poissons Ratio (x) = 0.15848 0.21156
# Poissons Ratio (y) = 0.08201 0.06486
# Poissons Ratio (z) = 0.27166 0.16095
#
# Static dielectric constant tensor:
#      x y z
#    x 1.995990 0.000000 -0.041350 
#    y 0.000000 2.011860 0.000000 
#    z -0.041350 0.000000 1.952790 
# 
# From -- ./inp_files/106705.got.cif
#   From: 2010.05.17/outbox.cif.g08.bks.cpg/sg15_54_cif.got.tgz:106705.got - 2010.06.03 18:47:42.
