data_PCOD9259410
_publ_section_title
;
Structure prediction by ZEFSAII (Michael W. Deem and Ramdas Pophale) SiO2 
 PCOD9259410
Probable space group: C 2/C
;
_chemical_formula_sum "Si O2"
_cell_formula_units_Z 48
_cell_length_a 20.257698
_cell_length_b 14.589547
_cell_length_c 6.866497
_cell_angle_alpha 90.000000
_cell_angle_beta 94.584822
_cell_angle_gamma 90.000000
_cell_volume 2022.903671
_symmetry_space_group_name_H-M "C 2/C"
_symmetry_group_IT_number 15
_symmetry_cell_setting 'monoclinic'
loop_
_space_group_symop_operation_xyz
x,y,z
-x,y,1/2-z
-x,-y,-z
x,-y,1/2+z
1/2+x,1/2+y,z
1/2-x,1/2+y,1/2-z
1/2-x,1/2-y,-z
1/2+x,1/2-y,1/2+z
loop_
_atom_site_type_symbol
_atom_site_label
_atom_site_fract_x
_atom_site_fract_y
_atom_site_fract_z
Si Si1 0.419468 0.821047 0.408041
Si Si2 0.856268 0.485858 0.903333
Si Si3 0.827031 0.169210 0.872997
Si Si4 0.562088 0.797946 0.549603
Si Si5 0.749287 0.009454 0.370451
Si Si6 0.291698 0.712697 0.311430
O O1 0.405784 0.928298 0.427720
O O2 0.482955 0.799473 0.553433
O O3 0.432836 0.799352 0.185368
O O4 0.351496 0.766360 0.428492
O O5 0.835232 0.509437 0.651568
O O6 0.893867 0.388277 0.888151
O O7 0.770798 0.486017 0.887398
O O8 0.809161 0.062792 0.857689
O O9 0.771746 0.222654 0.734601
O O10 0.899668 0.209845 0.856748
O O11 0.813451 0.195093 0.094347
O O12 0.771854 0.114865 0.392797
#
# Coordination Sequence:
#
# PCOD9259410 Si02
#       6
#     8   8   8   8   8   8
#     4  10  21  36  55  83 111 147 185 221 273 334
#     4  12  20  35  56  86 116 140 177 235 279 323
#     4  10  18  35  57  78 110 147 183 222 267 327
#     4  10  20  36  58  79 111 150 184 219 273 334
#     4  12  21  34  59  86 111 142 184 229 275 317
#     4  10  19  35  56  80 111 145 185 223 268 327
#
# _framework density 23.728266999999999
#
# number of rings (size 3 to 8) (size 9 to 14) (size 15 to 20)
#    0.000    1.333    6.667    1.500    0.000    0.667 
#    0.000    0.833    0.000    0.000    0.000    0.000 
#    0.000    0.000    0.000    0.000    0.000    0.000 
#
# Total GULP energy -134033.039834 kJ/mol
# GULP energy per Si atom -5584.709993 kJ/mol
# Density = 2.367426 g / cm^3
# Si number density = 23.728267 Si / 1000 Ang^3
#
#
#
# Elastic Constant Matrix: (Units=GPa)
#
#
# Indices 1 2 3 4 5 6 
#
# 1 136.5669 48.3093 28.6586 0.0000 36.9589 0.0000
# 2 48.3093 103.6863 5.5993 0.0000 26.6727 0.0000
# 3 28.6586 5.5993 123.7296 0.0000 22.9698 0.0000
# 4 0.0000 0.0000 0.0000 25.8884 0.0000 -18.1358
# 5 36.9589 26.6727 22.9698 0.0000 40.2446 0.0000
# 6 0.0000 0.0000 0.0000 -18.1358 0.0000 8.4306
#
#
#
# Elastic Compliance Matrix: (Units=1/GPa)
#
#
# Indices 1 2 3 4 5 6 
#
# 1 0.010518 -0.003022 -0.000982 0.000000 -0.007096 0.000000
# 2 -0.003022 0.012609 0.001304 0.000000 -0.006326 0.000000
# 3 -0.000982 0.001304 0.009221 0.000000 -0.005225 0.000000
# 4 0.000000 0.000000 0.000000 -0.076189 0.000000 -0.163898
# 5 -0.007096 -0.006326 -0.005225 0.000000 0.038539 0.000000
# 6 0.000000 0.000000 0.000000 -0.163898 0.000000 -0.233960
#
#
# Mechanical properties :
#
#
# Convention : Reuss Voigt Hill
#
# Bulk Modulus (GPa) = 37.11015 58.79079 47.95047
# Shear Modulus (GPa) = -22.23414 33.67374 5.71980
#
# Velocity S-wave (km/s) = -3.06442 3.77123 1.55428
# Velocity P-wave (km/s) = 1.77559 6.61766 4.84490
#
# Compressibility (1/GPa) = 0.02694680
#
# Stress axis : x y z
#
# Youngs Moduli (GPa) = 95.07655 79.30585 108.45294
#
# Poissons Ratio (x) = 0.23967 0.10652
# Poissons Ratio (y) = 0.28733 -0.14139
# Poissons Ratio (z) = 0.09338 -0.10339
#
# Static dielectric constant tensor:
#      x y z
#    x 1.874930 0.000000 -0.058680 
#    y 0.000000 1.761250 0.000000 
#    z -0.058680 0.000000 2.270800 
# 
# From -- ./inp_files/47457.got.cif
#   From: 2010.05.17/outbox.cif.g08.bks.cpg/sg15_24_cif.got.tgz:47457.got - 2010.06.03 18:47:42.
