data_PCOD9259268
_publ_section_title
;
Structure prediction by ZEFSAII (Michael W. Deem and Ramdas Pophale) SiO2 
 PCOD9259268
Probable space group: C 2/C
;
_chemical_formula_sum "Si O2"
_cell_formula_units_Z 60
_cell_length_a 20.329789
_cell_length_b 13.727144
_cell_length_c 15.137450
_cell_angle_alpha 90.000000
_cell_angle_beta 136.054219
_cell_angle_gamma 90.000000
_cell_volume 2931.642962
_symmetry_space_group_name_H-M "C 2/C"
_symmetry_group_IT_number 15
_symmetry_cell_setting 'monoclinic'
loop_
_space_group_symop_operation_xyz
x,y,z
-x,y,1/2-z
-x,-y,-z
x,-y,1/2+z
1/2+x,1/2+y,z
1/2-x,1/2+y,1/2-z
1/2-x,1/2-y,-z
1/2+x,1/2-y,1/2+z
loop_
_atom_site_type_symbol
_atom_site_label
_atom_site_fract_x
_atom_site_fract_y
_atom_site_fract_z
Si Si1 0.530275 0.766116 0.554780
Si Si2 0.500000 0.197112 0.750000
Si Si3 0.558272 0.081937 0.215940
Si Si4 0.138544 0.254725 0.235563
Si Si5 0.600795 0.549779 0.612739
Si Si6 0.287189 0.552557 0.134233
Si Si7 0.755117 0.543860 0.610955
Si Si8 0.085431 0.431796 0.476160
O O1 0.543099 0.810389 0.663898
O O2 0.422087 0.757602 0.413618
O O3 0.582822 0.664822 0.593251
O O4 0.579432 0.849411 0.543396
O O5 0.443166 0.255293 0.768222
O O6 0.427667 0.127572 0.628135
O O7 0.500000 0.074855 0.250000
O O8 0.664965 0.040703 0.320669
O O9 0.501286 0.005102 0.100018
O O10 0.202647 0.160650 0.313661
O O11 0.192776 0.355638 0.307799
O O12 0.500000 0.500000 0.500000
O O13 0.637412 0.513980 0.743293
O O14 0.676298 0.522199 0.609225
O O15 0.289630 0.557164 0.030334
O O16 0.184335 0.514440 0.065342
#
# Coordination Sequence:
#
# PCOD9259268 Si02
#       8
#     8   4   8   8   8   8   8   8
#     4  11  25  43  68  97 141 191 217 286 351 406
#     4  10  18  34  64 102 138 150 210 284 352 384
#     4  12  22  45  71 108 143 172 231 291 354 417
#     4  11  22  37  67 104 132 169 223 283 348 403
#     4  12  29  51  62  96 146 191 240 275 339 427
#     4  12  24  42  70  98 138 182 229 281 347 417
#     4  12  25  42  75 105 132 181 230 293 354 405
#     4  11  19  40  68 103 136 163 221 288 344 402
#
# _framework density 20.466338
#
# number of rings (size 3 to 8) (size 9 to 14) (size 15 to 20)
#    0.000    0.533    7.333    2.400    5.600    0.533 
#    2.400    0.667    0.000    0.000    0.000    0.000 
#    0.000    0.000    0.000    0.000    0.000    0.000 
#
# Total GULP energy -167586.825808 kJ/mol
# GULP energy per Si atom -5586.227527 kJ/mol
# Density = 2.041976 g / cm^3
# Si number density = 20.466338 Si / 1000 Ang^3
#
#
#
# Elastic Constant Matrix: (Units=GPa)
#
#
# Indices 1 2 3 4 5 6 
#
# 1 100.7937 37.0289 40.1548 0.0000 4.7184 0.0000
# 2 37.0289 62.6960 32.6485 0.0000 -3.8691 0.0000
# 3 40.1548 32.6485 126.9389 0.0000 -1.3096 0.0000
# 4 0.0000 0.0000 0.0000 30.8432 0.0000 0.8621
# 5 4.7184 -3.8691 -1.3096 0.0000 29.6196 0.0000
# 6 0.0000 0.0000 0.0000 0.8621 0.0000 19.7463
#
#
#
# Elastic Compliance Matrix: (Units=1/GPa)
#
#
# Indices 1 2 3 4 5 6 
#
# 1 0.013632 -0.006911 -0.002568 0.000000 -0.003188 0.000000
# 2 -0.006911 0.022064 -0.003449 0.000000 0.003831 0.000000
# 3 -0.002568 -0.003449 0.009581 0.000000 0.000382 0.000000
# 4 0.000000 0.000000 0.000000 0.032462 0.000000 -0.001417
# 5 -0.003188 0.003831 0.000382 0.000000 0.034787 0.000000
# 6 0.000000 0.000000 0.000000 -0.001417 0.000000 0.050704
#
#
# Mechanical properties :
#
#
# Convention : Reuss Voigt Hill
#
# Bulk Modulus (GPa) = 51.48846 56.67702 54.08274
# Shear Modulus (GPa) = 25.56760 28.08158 26.82459
#
# Velocity S-wave (km/s) = 3.53831 3.70819 3.62424
# Velocity P-wave (km/s) = 6.47341 6.78875 6.63296
#
# Compressibility (1/GPa) = 0.01942183
#
# Stress axis : x y z
#
# Youngs Moduli (GPa) = 73.35485 45.32223 104.37177
#
# Poissons Ratio (x) = 0.31322 0.26800
# Poissons Ratio (y) = 0.50696 0.36000
# Poissons Ratio (z) = 0.18836 0.15633
#
# Static dielectric constant tensor:
#      x y z
#    x 1.779220 0.000000 -0.034360 
#    y 0.000000 1.721670 0.000000 
#    z -0.034360 0.000000 1.805500 
# 
# From -- ./inp_files/168646.got.cif
#   From: 2010.05.17/outbox.cif.g08.bks.cpg/sg15_85_cif.got.tgz:168646.got - 2010.06.03 18:47:42.
