data_PCOD9259642
_publ_section_title
;
Structure prediction by ZEFSAII (Michael W. Deem and Ramdas Pophale) SiO2 
 PCOD9259642
Probable space group: C 2/C
;
_chemical_formula_sum "Si O2"
_cell_formula_units_Z 40
_cell_length_a 10.632659
_cell_length_b 16.187156
_cell_length_c 12.029753
_cell_angle_alpha 90.000000
_cell_angle_beta 101.213204
_cell_angle_gamma 90.000000
_cell_volume 2030.946452
_symmetry_space_group_name_H-M "C 2/C"
_symmetry_group_IT_number 15
_symmetry_cell_setting 'monoclinic'
loop_
_space_group_symop_operation_xyz
x,y,z
-x,y,1/2-z
-x,-y,-z
x,-y,1/2+z
1/2+x,1/2+y,z
1/2-x,1/2+y,1/2-z
1/2-x,1/2-y,-z
1/2+x,1/2-y,1/2+z
loop_
_atom_site_type_symbol
_atom_site_label
_atom_site_fract_x
_atom_site_fract_y
_atom_site_fract_z
Si Si1 0.089923 0.916390 0.874318
Si Si2 0.532152 0.723527 0.987634
Si Si3 0.723356 0.784044 0.619176
Si Si4 0.127954 0.097815 0.848106
Si Si5 0.377958 0.160112 0.799767
O O1 0.227904 0.877184 0.868661
O O2 0.000000 0.914400 0.750000
O O3 0.108655 0.011541 0.909331
O O4 0.028981 0.853587 0.953157
O O5 0.424571 0.763923 0.889854
O O6 0.634725 0.677486 0.928794
O O7 0.573620 0.794059 0.080623
O O8 0.750000 0.750000 0.500000
O O9 0.812779 0.732214 0.715835
O O10 0.261439 0.097357 0.803697
O O11 0.000000 0.106148 0.750000
O O12 0.500000 0.128415 0.750000
#
# Coordination Sequence:
#
# PCOD9259642 Si02
#       5
#     8   8   8   8   8
#     4  10  19  37  60  89 116 154 194 239 296 347
#     4  11  20  38  64  86 114 158 197 241 287 350
#     4  10  18  35  62  85 111 154 201 227 286 353
#     4  11  24  36  59  93 120 145 198 254 289 331
#     4  12  21  39  62  85 118 159 198 231 293 358
#
# _framework density 19.695250000000001
#
# number of rings (size 3 to 8) (size 9 to 14) (size 15 to 20)
#    0.000    1.200    8.000    1.200    0.000    0.000 
#    0.000    1.000    4.400    0.000    0.000    0.000 
#    0.000    0.000    0.000    0.000    0.000    0.000 
#
# Total GULP energy -111481.222654 kJ/mol
# GULP energy per Si atom -5574.061133 kJ/mol
# Density = 1.965042 g / cm^3
# Si number density = 19.695250 Si / 1000 Ang^3
#
#
#
# Elastic Constant Matrix: (Units=GPa)
#
#
# Indices 1 2 3 4 5 6 
#
# 1 122.7790 28.1164 18.8578 0.0000 2.2258 0.0000
# 2 28.1164 59.6358 1.0168 0.0000 4.0862 0.0000
# 3 18.8578 1.0168 27.2842 0.0000 11.2059 0.0000
# 4 0.0000 0.0000 0.0000 19.8786 0.0000 -3.4748
# 5 2.2258 4.0862 11.2059 0.0000 23.6856 0.0000
# 6 0.0000 0.0000 0.0000 -3.4748 0.0000 22.9323
#
#
#
# Elastic Compliance Matrix: (Units=1/GPa)
#
#
# Indices 1 2 3 4 5 6 
#
# 1 0.010595 -0.005123 -0.008795 0.000000 0.004049 0.000000
# 2 -0.005123 0.019457 0.004960 0.000000 -0.005222 0.000000
# 3 -0.008795 0.004960 0.052821 0.000000 -0.025019 0.000000
# 4 0.000000 0.000000 0.000000 0.051674 0.000000 0.007830
# 5 0.004049 -0.005222 -0.025019 0.000000 0.054577 0.000000
# 6 0.000000 0.000000 0.000000 0.007830 0.000000 0.044793
#
#
# Mechanical properties :
#
#
# Convention : Reuss Voigt Hill
#
# Bulk Modulus (GPa) = 15.39459 33.96455 24.67957
# Shear Modulus (GPa) = 18.28251 24.07983 21.18117
#
# Velocity S-wave (km/s) = 3.05006 3.50039 3.28296
# Velocity P-wave (km/s) = 4.49857 5.79823 5.18925
#
# Compressibility (1/GPa) = 0.06495788
#
# Stress axis : x y z
#
# Youngs Moduli (GPa) = 94.38136 51.39551 18.93186
#
# Poissons Ratio (x) = 0.26329 0.16651
# Poissons Ratio (y) = 0.48350 -0.09391
# Poissons Ratio (z) = 0.83010 -0.25494
#
# Static dielectric constant tensor:
#      x y z
#    x 1.595350 0.000000 -0.057160 
#    y 0.000000 1.684380 0.000000 
#    z -0.057160 0.000000 1.699200 
# 
# From -- ./inp_files/76903.got.cif
#   From: 2010.05.17/outbox.cif.g08.bks.cpg/sg15_39_cif.got.tgz:76903.got - 2010.06.03 18:47:42.
