data_PCOD9259968
_publ_section_title
;
Structure prediction by ZEFSAII (Michael W. Deem and Ramdas Pophale) SiO2 
 PCOD9259968
Probable space group: C 2/C
;
_chemical_formula_sum "Si O2"
_cell_formula_units_Z 56
_cell_length_a 19.352925
_cell_length_b 9.396450
_cell_length_c 13.533959
_cell_angle_alpha 90.000000
_cell_angle_beta 60.333670
_cell_angle_gamma 90.000000
_cell_volume 2138.534846
_symmetry_space_group_name_H-M "C 2/C"
_symmetry_group_IT_number 15
_symmetry_cell_setting 'monoclinic'
loop_
_space_group_symop_operation_xyz
x,y,z
-x,y,1/2-z
-x,-y,-z
x,-y,1/2+z
1/2+x,1/2+y,z
1/2-x,1/2+y,1/2-z
1/2-x,1/2-y,-z
1/2+x,1/2-y,1/2+z
loop_
_atom_site_type_symbol
_atom_site_label
_atom_site_fract_x
_atom_site_fract_y
_atom_site_fract_z
Si Si1 0.440228 0.872541 0.061110
Si Si2 0.774831 0.744401 0.631295
Si Si3 0.391073 0.676948 0.806465
Si Si4 0.500000 0.446367 0.750000
Si Si5 0.000000 0.553394 0.250000
Si Si6 0.390372 0.172075 0.816105
Si Si7 0.562155 0.623061 0.945154
Si Si8 0.730054 0.409211 0.370755
O O1 0.363165 0.821108 0.050650
O O2 0.404174 0.891179 0.195552
O O3 0.504342 0.750334 0.006869
O O4 0.500000 0.000000 0.000000
O O5 0.702665 0.691959 0.611915
O O6 0.750555 0.678935 0.755753
O O7 0.771814 0.917610 0.639619
O O8 0.440923 0.569333 0.839758
O O9 0.433219 0.830141 0.766812
O O10 0.403915 0.609167 0.689099
O O11 0.430341 0.327565 0.778567
O O12 0.057148 0.436244 0.155762
O O13 0.297656 0.144428 0.898149
O O14 0.639523 0.632198 0.958919
O O15 0.500000 0.500000 0.000000
#
# Coordination Sequence:
#
# PCOD9259968 Si02
#       8
#     8   8   8   4   4   8   8   8
#     4  11  23  36  59  91 120 149 183 244 306 347
#     4  10  21  36  58  87 117 148 198 241 287 341
#     4  10  21  36  61  85 112 151 202 230 289 334
#     4  10  22  36  60  86 110 156 198 246 258 348
#     4  10  18  36  60  80 110 156 196 244 258 342
#     4  10  21  38  60  84 116 147 202 233 287 334
#     4  11  21  36  59  87 123 147 179 244 306 345
#     4  10  21  35  59  86 116 152 192 246 287 338
#
# _framework density 26.186153999999998
#
# number of rings (size 3 to 8) (size 9 to 14) (size 15 to 20)
#    0.000    1.714    2.857    1.714   12.000    0.000 
#    0.000    0.000    0.000   34.286    0.000    0.000 
#    0.000    0.000    0.000    0.000    0.000    0.000 
#
# Total GULP energy -155928.562204 kJ/mol
# GULP energy per Si atom -5568.877222 kJ/mol
# Density = 2.612655 g / cm^3
# Si number density = 26.186154 Si / 1000 Ang^3
#
#
#
# Elastic Constant Matrix: (Units=GPa)
#
#
# Indices 1 2 3 4 5 6 
#
# 1 200.6206 63.2642 49.5927 0.0000 -85.5785 0.0000
# 2 63.2642 243.3544 34.5784 0.0000 -47.4503 0.0000
# 3 49.5927 34.5784 112.1917 0.0000 -35.1258 0.0000
# 4 0.0000 0.0000 0.0000 36.0996 0.0000 -7.6362
# 5 -85.5785 -47.4503 -35.1258 0.0000 75.9779 0.0000
# 6 0.0000 0.0000 0.0000 -7.6362 0.0000 34.9242
#
#
#
# Elastic Compliance Matrix: (Units=1/GPa)
#
#
# Indices 1 2 3 4 5 6 
#
# 1 0.009724 -0.000390 -0.000965 0.000000 0.010263 0.000000
# 2 -0.000390 0.004731 -0.000583 0.000000 0.002247 0.000000
# 3 -0.000965 -0.000583 0.010599 0.000000 0.003450 0.000000
# 4 0.000000 0.000000 0.000000 0.029045 0.000000 0.006351
# 5 0.010263 0.002247 0.003450 0.000000 0.027720 0.000000
# 6 0.000000 0.000000 0.000000 0.006351 0.000000 0.030022
#
#
# Mechanical properties :
#
#
# Convention : Reuss Voigt Hill
#
# Bulk Modulus (GPa) = 47.21375 94.55970 70.88672
# Shear Modulus (GPa) = 40.72481 56.64909 48.68695
#
# Velocity S-wave (km/s) = 3.94789 4.65620 4.31660
# Velocity P-wave (km/s) = 6.23300 8.06820 7.20923
#
# Compressibility (1/GPa) = 0.02118027
#
# Stress axis : x y z
#
# Youngs Moduli (GPa) = 102.83988 211.35514 94.34471
#
# Poissons Ratio (x) = 0.08235 0.09104
# Poissons Ratio (y) = 0.04007 0.05497
# Poissons Ratio (z) = 0.09924 0.12314
#
# Static dielectric constant tensor:
#      x y z
#    x 2.525910 0.000000 0.183590 
#    y 0.000000 2.156490 0.000000 
#    z 0.183590 0.000000 2.144780 
# 
# From -- ./inp_files/251860.got.cif
#   From: 2010.05.17/outbox.cif.g08.bks.cpg/sg15_126_cif.got.tgz:251860.got - 2010.06.03 18:47:42.
