data_PCOD9259174
_publ_section_title
;
Structure prediction by ZEFSAII (Michael W. Deem and Ramdas Pophale) SiO2 
 PCOD9259174
Probable space group: C 2/C
;
_chemical_formula_sum "Si O2"
_cell_formula_units_Z 48
_cell_length_a 7.917276
_cell_length_b 30.905017
_cell_length_c 13.039235
_cell_angle_alpha 90.000000
_cell_angle_beta 134.455168
_cell_angle_gamma 90.000000
_cell_volume 2277.364873
_symmetry_space_group_name_H-M "C 2/C"
_symmetry_group_IT_number 15
_symmetry_cell_setting 'monoclinic'
loop_
_space_group_symop_operation_xyz
x,y,z
-x,y,1/2-z
-x,-y,-z
x,-y,1/2+z
1/2+x,1/2+y,z
1/2-x,1/2+y,1/2-z
1/2-x,1/2-y,-z
1/2+x,1/2-y,1/2+z
loop_
_atom_site_type_symbol
_atom_site_label
_atom_site_fract_x
_atom_site_fract_y
_atom_site_fract_z
Si Si1 0.797676 0.644919 0.083753
Si Si2 0.438253 0.445570 0.050646
Si Si3 0.729137 0.268101 0.605803
Si Si4 0.153829 0.034818 0.418728
Si Si5 0.910758 0.414328 0.327690
Si Si6 0.711641 0.822831 0.136560
O O1 0.628294 0.683108 0.058913
O O2 0.000000 0.633287 0.250000
O O3 0.672873 0.601625 0.994770
O O4 0.893928 0.665851 0.019974
O O5 0.283632 0.484915 0.028085
O O6 0.670758 0.442120 0.221118
O O7 0.505592 0.453084 0.959361
O O8 0.750000 0.250000 0.500000
O O9 0.638848 0.226748 0.631990
O O10 0.000000 0.276466 0.750000
O O11 0.384977 0.065118 0.515469
O O12 0.000000 0.038681 0.250000
O O13 0.858258 0.363984 0.326486
O O14 0.000000 0.417780 0.250000
O O15 0.000000 0.822039 0.250000
#
# Coordination Sequence:
#
# PCOD9259174 Si02
#       6
#     8   8   8   8   8   8
#     4  10  20  32  56  89 117 144 190 245 279 331
#     4  10  22  40  57  83 114 152 192 234 287 342
#     4   8  16  30  50  85 115 140 181 238 282 323
#     4  10  24  40  59  81 114 151 190 239 288 341
#     4  10  22  40  59  83 117 154 192 233 286 347
#     4  10  18  34  61  87 113 153 191 231 288 343
#
# _framework density 21.076992000000001
#
# number of rings (size 3 to 8) (size 9 to 14) (size 15 to 20)
#    0.000    2.333    1.667    0.000    4.667    4.000 
#    0.000    0.000    0.000    5.000    0.000    0.000 
#    0.000    0.000    0.000    0.000    0.000    0.000 
#
# Total GULP energy -133665.446256 kJ/mol
# GULP energy per Si atom -5569.393594 kJ/mol
# Density = 2.102902 g / cm^3
# Si number density = 21.076992 Si / 1000 Ang^3
#
#
#
# Elastic Constant Matrix: (Units=GPa)
#
#
# Indices 1 2 3 4 5 6 
#
# 1 16.1478 6.9198 -0.3466 0.0000 0.0372 0.0000
# 2 6.9198 164.1712 10.0784 0.0000 18.2278 0.0000
# 3 -0.3466 10.0784 114.3277 0.0000 -10.3297 0.0000
# 4 0.0000 0.0000 0.0000 15.9086 0.0000 -25.4341
# 5 0.0372 18.2278 -10.3297 0.0000 15.3255 0.0000
# 6 0.0000 0.0000 0.0000 -25.4341 0.0000 4.1588
#
#
#
# Elastic Compliance Matrix: (Units=1/GPa)
#
#
# Indices 1 2 3 4 5 6 
#
# 1 0.063303 -0.003189 0.000854 0.000000 0.004214 0.000000
# 2 -0.003189 0.007416 -0.001554 0.000000 -0.009860 0.000000
# 3 0.000854 -0.001554 0.009640 0.000000 0.008344 0.000000
# 4 0.000000 0.000000 0.000000 -0.007161 0.000000 -0.043797
# 5 0.004214 -0.009860 0.008344 0.000000 0.082592 0.000000
# 6 0.000000 0.000000 0.000000 -0.043797 0.000000 -0.027394
#
#
# Mechanical properties :
#
#
# Convention : Reuss Voigt Hill
#
# Bulk Modulus (GPa) = 13.77775 36.43888 25.10831
# Shear Modulus (GPa) = 31.17849 25.61159 28.39504
#
# Velocity S-wave (km/s) = 3.85030 3.48967 3.67441
# Velocity P-wave (km/s) = 5.13005 5.79337 5.47177
#
# Compressibility (1/GPa) = 0.07258078
#
# Stress axis : x y z
#
# Youngs Moduli (GPa) = 15.79711 134.84813 103.73110
#
# Poissons Ratio (x) = 0.42996 -0.08856
# Poissons Ratio (y) = 0.05037 0.16122
# Poissons Ratio (z) = -0.01349 0.20959
#
# Static dielectric constant tensor:
#      x y z
#    x 1.933260 0.000000 -0.482770 
#    y 0.000000 1.885570 0.000000 
#    z -0.482770 0.000000 3.440380 
# 
# From -- ./inp_files/139628.got.cif
#   From: 2010.05.17/outbox.cif.g08.bks.cpg/sg15_70_cif.got.tgz:139628.got - 2010.06.03 18:47:42.
