data_PCOD9259922
_publ_section_title
;
Structure prediction by ZEFSAII (Michael W. Deem and Ramdas Pophale) SiO2 
 PCOD9259922
Probable space group: C 2/C
;
_chemical_formula_sum "Si O2"
_cell_formula_units_Z 40
_cell_length_a 18.667655
_cell_length_b 7.499369
_cell_length_c 18.077393
_cell_angle_alpha 90.000000
_cell_angle_beta 58.003861
_cell_angle_gamma 90.000000
_cell_volume 2146.293243
_symmetry_space_group_name_H-M "C 2/C"
_symmetry_group_IT_number 15
_symmetry_cell_setting 'monoclinic'
loop_
_space_group_symop_operation_xyz
x,y,z
-x,y,1/2-z
-x,-y,-z
x,-y,1/2+z
1/2+x,1/2+y,z
1/2-x,1/2+y,1/2-z
1/2-x,1/2-y,-z
1/2+x,1/2-y,1/2+z
loop_
_atom_site_type_symbol
_atom_site_label
_atom_site_fract_x
_atom_site_fract_y
_atom_site_fract_z
Si Si1 0.925151 0.366888 0.454491
Si Si2 0.275236 0.054110 0.457334
Si Si3 0.903869 0.273552 0.785351
Si Si4 0.464648 0.778430 0.597137
Si Si5 0.592297 0.492355 0.588387
O O1 0.835865 0.453241 0.481220
O O2 0.927795 0.285488 0.535465
O O3 0.946862 0.203714 0.388077
O O4 0.991253 0.529119 0.415410
O O5 0.250000 0.250000 0.500000
O O6 0.333650 0.091413 0.354229
O O7 0.184433 0.963765 0.501545
O O8 0.900228 0.246507 0.699831
O O9 0.000000 0.337263 0.750000
O O10 0.897595 0.092915 0.838365
O O11 0.536251 0.627503 0.570129
#
# Coordination Sequence:
#
# PCOD9259922 Si02
#       5
#     8   8   8   8   8
#     4  11  20  35  63  81 112 156 193 224 304 348
#     4  10  18  36  59  80 114 150 188 234 281 340
#     4   9  17  37  54  78 117 144 182 244 272 322
#     4  10  21  38  56  86 119 146 189 251 280 338
#     4  10  20  36  60  83 112 153 196 231 285 352
#
# _framework density 18.636783000000001
#
# number of rings (size 3 to 8) (size 9 to 14) (size 15 to 20)
#    0.000    2.000    6.000    1.200    0.000    0.000 
#   10.800    4.000    0.000    0.000    0.000    0.000 
#    0.000    0.000    0.000    0.000    0.000    0.000 
#
# Total GULP energy -111375.427035 kJ/mol
# GULP energy per Si atom -5568.771352 kJ/mol
# Density = 1.859437 g / cm^3
# Si number density = 18.636783 Si / 1000 Ang^3
#
#
#
# Elastic Constant Matrix: (Units=GPa)
#
#
# Indices 1 2 3 4 5 6 
#
# 1 64.4142 33.0185 45.2597 0.0000 9.7487 -0.0001
# 2 33.0185 102.7971 16.7950 -0.0001 14.0732 -0.0005
# 3 45.2597 16.7950 106.5524 0.0000 1.8800 0.0000
# 4 0.0000 -0.0001 0.0000 12.1012 0.0000 5.4885
# 5 9.7487 14.0732 1.8800 0.0000 31.6958 0.0000
# 6 -0.0001 -0.0005 0.0000 5.4885 0.0000 15.0564
#
#
#
# Elastic Compliance Matrix: (Units=1/GPa)
#
#
# Indices 1 2 3 4 5 6 
#
# 1 0.026650 -0.006224 -0.010254 0.000000 -0.004825 0.000000
# 2 -0.006224 0.012074 0.000802 0.000000 -0.003494 0.000000
# 3 -0.010254 0.000802 0.013579 0.000000 0.001992 0.000000
# 4 0.000000 0.000000 0.000000 0.099005 0.000000 -0.036091
# 5 -0.004825 -0.003494 0.001992 0.000000 0.034467 0.000000
# 6 0.000000 0.000000 0.000000 -0.036091 0.000000 0.079573
#
#
# Mechanical properties :
#
#
# Convention : Reuss Voigt Hill
#
# Bulk Modulus (GPa) = 47.72831 51.54555 49.63693
# Shear Modulus (GPa) = 16.46448 23.68338 20.07393
#
# Velocity S-wave (km/s) = 2.97550 3.56868 3.28550
# Velocity P-wave (km/s) = 6.12128 6.68570 6.40971
#
# Compressibility (1/GPa) = 0.02095193
#
# Stress axis : x y z
#
# Youngs Moduli (GPa) = 37.52357 82.81968 73.64374
#
# Poissons Ratio (x) = 0.51548 0.75512
# Poissons Ratio (y) = 0.23355 -0.05908
# Poissons Ratio (z) = 0.38476 -0.06644
#
# Static dielectric constant tensor:
#      x y z
#    x 1.651610 0.000000 -0.015250 
#    y 0.000000 1.702790 0.000000 
#    z -0.015250 0.000000 1.692410 
# 
# From -- ./inp_files/208466.got.cif
#   From: 2010.05.17/outbox.cif.g08.bks.cpg/sg15_105_cif.got.tgz:208466.got - 2010.06.03 18:47:42.
