data_PCOD9259846
_publ_section_title
;
Structure prediction by ZEFSAII (Michael W. Deem and Ramdas Pophale) SiO2 
 PCOD9259846
Probable space group: C 2/C
;
_chemical_formula_sum "Si O2"
_cell_formula_units_Z 44
_cell_length_a 13.924281
_cell_length_b 8.816622
_cell_length_c 26.743832
_cell_angle_alpha 90.000000
_cell_angle_beta 37.487173
_cell_angle_gamma 90.000000
_cell_volume 1998.108308
_symmetry_space_group_name_H-M "C 2/C"
_symmetry_group_IT_number 15
_symmetry_cell_setting 'monoclinic'
loop_
_space_group_symop_operation_xyz
x,y,z
-x,y,1/2-z
-x,-y,-z
x,-y,1/2+z
1/2+x,1/2+y,z
1/2-x,1/2+y,1/2-z
1/2-x,1/2-y,-z
1/2+x,1/2-y,1/2+z
loop_
_atom_site_type_symbol
_atom_site_label
_atom_site_fract_x
_atom_site_fract_y
_atom_site_fract_z
Si Si1 0.492573 0.732933 0.076806
Si Si2 0.500000 0.178978 0.750000
Si Si3 0.819684 0.522545 0.188596
Si Si4 0.528559 0.556320 0.158648
Si Si5 0.342215 0.095882 0.070735
Si Si6 0.841814 0.385443 0.792378
O O1 0.543709 0.605826 0.095083
O O2 0.324434 0.683474 0.123298
O O3 0.441302 0.885837 0.128292
O O4 0.625058 0.768235 0.981247
O O5 0.490046 0.288787 0.801300
O O6 0.356776 0.060372 0.804293
O O7 0.636078 0.468585 0.266693
O O8 0.825988 0.626116 0.136286
O O9 0.849219 0.604533 0.228873
O O10 0.692256 0.498955 0.113611
O O11 0.500000 0.000000 0.000000
O O12 0.000000 0.312155 0.750000
#
# Coordination Sequence:
#
# PCOD9259846 Si02
#       6
#     8   4   8   8   8   8
#     4  10  20  35  55  82 112 137 179 230 273 316
#     4  10  18  36  58  74 104 138 194 212 260 320
#     4  10  19  34  58  82 102 145 185 223 262 323
#     4  11  19  36  60  77 105 150 184 221 261 325
#     4  10  21  33  52  85 114 137 179 225 277 316
#     4   9  20  35  55  79 106 142 183 226 262 320
#
# _framework density 22.020828000000002
#
# number of rings (size 3 to 8) (size 9 to 14) (size 15 to 20)
#    0.545    1.455    3.636    0.545    0.000    2.909 
#    0.000    1.818    0.000    4.364    0.000    0.000 
#    0.000    0.000    0.000    0.000    0.000    0.000 
#
# Total GULP energy -122643.058824 kJ/mol
# GULP energy per Si atom -5574.684492 kJ/mol
# Density = 2.197071 g / cm^3
# Si number density = 22.020828 Si / 1000 Ang^3
#
#
#
# Elastic Constant Matrix: (Units=GPa)
#
#
# Indices 1 2 3 4 5 6 
#
# 1 120.4454 -4.4281 40.2918 0.0001 -12.5862 0.0002
# 2 -4.4281 30.6837 4.7852 0.0001 5.6149 0.0002
# 3 40.2918 4.7852 90.7253 0.0000 -4.7524 0.0000
# 4 0.0001 0.0001 0.0000 20.0391 0.0000 -15.0091
# 5 -12.5862 5.6149 -4.7524 0.0000 26.2074 0.0000
# 6 0.0002 0.0002 0.0000 -15.0091 0.0000 18.4807
#
#
#
# Elastic Compliance Matrix: (Units=1/GPa)
#
#
# Indices 1 2 3 4 5 6 
#
# 1 0.010233 0.001472 -0.004423 0.000000 0.003797 0.000000
# 2 0.001472 0.034569 -0.002855 -0.000001 -0.007217 -0.000001
# 3 -0.004423 -0.002855 0.013183 0.000000 0.000878 0.000000
# 4 0.000000 -0.000001 0.000000 0.127396 0.000000 0.103464
# 5 0.003797 -0.007217 0.000878 0.000000 0.041686 0.000000
# 6 0.000000 -0.000001 0.000000 0.103464 0.000000 0.138139
#
#
# Mechanical properties :
#
#
# Convention : Reuss Voigt Hill
#
# Bulk Modulus (GPa) = 21.56461 35.90579 28.73520
# Shear Modulus (GPa) = 12.74610 26.35916 19.55263
#
# Velocity S-wave (km/s) = 2.40848 3.46354 2.98302
# Velocity P-wave (km/s) = 4.18909 5.68644 4.99420
#
# Compressibility (1/GPa) = 0.04637226
#
# Stress axis : x y z
#
# Youngs Moduli (GPa) = 97.72198 28.92772 75.85356
#
# Poissons Ratio (x) = -0.04258 0.33553
# Poissons Ratio (y) = -0.14383 0.21656
# Poissons Ratio (z) = 0.43226 0.08259
#
# Static dielectric constant tensor:
#      x y z
#    x 1.858130 0.000000 -0.024080 
#    y 0.000000 1.849200 0.000000 
#    z -0.024080 0.000000 1.821250 
# 
# From -- ./inp_files/181622.got.cif
#   From: 2010.05.17/outbox.cif.g08.bks.cpg/sg15_91_cif.got.tgz:181622.got - 2010.06.03 18:47:42.
