data_PCOD9259818
_publ_section_title
;
Structure prediction by ZEFSAII (Michael W. Deem and Ramdas Pophale) SiO2 
 PCOD9259818
Probable space group: C 2/C
;
_chemical_formula_sum "Si O2"
_cell_formula_units_Z 28
_cell_length_a 18.674651
_cell_length_b 10.681555
_cell_length_c 4.941958
_cell_angle_alpha 90.000000
_cell_angle_beta 89.145074
_cell_angle_gamma 90.000000
_cell_volume 985.683932
_symmetry_space_group_name_H-M "C 2/C"
_symmetry_group_IT_number 15
_symmetry_cell_setting 'monoclinic'
loop_
_space_group_symop_operation_xyz
x,y,z
-x,y,1/2-z
-x,-y,-z
x,-y,1/2+z
1/2+x,1/2+y,z
1/2-x,1/2+y,1/2-z
1/2-x,1/2-y,-z
1/2+x,1/2-y,1/2+z
loop_
_atom_site_type_symbol
_atom_site_label
_atom_site_fract_x
_atom_site_fract_y
_atom_site_fract_z
Si Si1 0.673974 0.418782 0.979438
Si Si2 0.693476 0.178155 0.298274
Si Si3 0.500000 0.594269 0.250000
Si Si4 0.953012 0.339742 0.481937
O O1 0.650209 0.485433 0.709335
O O2 0.758571 0.406225 0.901322
O O3 0.658461 0.284314 0.108120
O O4 0.750000 0.250000 0.500000
O O5 0.626745 0.114919 0.450336
O O6 0.500000 0.500000 0.500000
O O7 0.443009 0.702852 0.342372
O O8 0.000000 0.410663 0.250000
O O9 0.000000 0.322171 0.750000
#
# Coordination Sequence:
#
# PCOD9259818 Si02
#       4
#     8   8   4   8
#     4  11  24  41  66 100 132 169 219 278 324 382
#     4  11  25  44  70  98 131 175 223 267 330 389
#     4  10  18  36  56  88 126 164 206 250 312 396
#     4  10  24  39  60  89 127 171 203 260 324 387
#
# _framework density 28.406673999999999
#
# number of rings (size 3 to 8) (size 9 to 14) (size 15 to 20)
#    0.857    0.571    4.286    0.000    8.000    2.286 
#    0.000    0.000    0.000    5.143    0.000    0.000 
#    0.000    0.000    0.000    0.000    0.000    0.000 
#
# Total GULP energy -78244.500169 kJ/mol
# GULP energy per Si atom -5588.892869 kJ/mol
# Density = 2.834202 g / cm^3
# Si number density = 28.406674 Si / 1000 Ang^3
#
#
#
# Elastic Constant Matrix: (Units=GPa)
#
#
# Indices 1 2 3 4 5 6 
#
# 1 141.8700 14.8313 74.8327 0.0000 -4.0538 0.0000
# 2 14.8313 79.4225 28.4127 0.0000 5.3472 0.0000
# 3 74.8327 28.4127 241.1178 0.0000 -12.2179 0.0000
# 4 0.0000 0.0000 0.0000 34.3426 0.0000 -18.0072
# 5 -4.0538 5.3472 -12.2179 0.0000 54.5387 0.0000
# 6 0.0000 0.0000 0.0000 -18.0072 0.0000 38.1694
#
#
#
# Elastic Compliance Matrix: (Units=1/GPa)
#
#
# Indices 1 2 3 4 5 6 
#
# 1 0.008463 -0.000680 -0.002540 0.000000 0.000127 0.000000
# 2 -0.000680 0.013349 -0.001447 0.000000 -0.001684 0.000000
# 3 -0.002540 -0.001447 0.005162 0.000000 0.001110 0.000000
# 4 0.000000 0.000000 0.000000 0.038689 0.000000 0.018252
# 5 0.000127 -0.001684 0.001110 0.000000 0.018759 0.000000
# 6 0.000000 0.000000 0.000000 0.018252 0.000000 0.034810
#
#
# Mechanical properties :
#
#
# Convention : Reuss Voigt Hill
#
# Bulk Modulus (GPa) = 56.69046 77.61818 67.15432
# Shear Modulus (GPa) = 37.18941 48.36571 42.77756
#
# Velocity S-wave (km/s) = 3.62218 4.13076 3.88480
# Velocity P-wave (km/s) = 6.12321 7.08054 6.61921
#
# Compressibility (1/GPa) = 0.01763965
#
# Stress axis : x y z
#
# Youngs Moduli (GPa) = 118.15790 74.91199 193.70719
#
# Poissons Ratio (x) = 0.05096 0.49203
# Poissons Ratio (y) = 0.08038 0.28033
# Poissons Ratio (z) = 0.30013 0.10841
#
# Static dielectric constant tensor:
#      x y z
#    x 2.469450 0.000000 0.208190 
#    y 0.000000 2.116260 0.000000 
#    z 0.208190 0.000000 2.342280 
# 
# From -- ./inp_files/12359.got.cif
#   From: 2010.05.17/outbox.cif.g08.bks.cpg/sg15_7_cif.got.tgz:12359.got - 2010.06.03 18:47:42.
