data_PCOD9259355
_publ_section_title
;
Structure prediction by ZEFSAII (Michael W. Deem and Ramdas Pophale) SiO2 
 PCOD9259355
Probable space group: C 2/C
;
_chemical_formula_sum "Si O2"
_cell_formula_units_Z 60
_cell_length_a 27.549474
_cell_length_b 14.852887
_cell_length_c 9.048099
_cell_angle_alpha 90.000000
_cell_angle_beta 140.797541
_cell_angle_gamma 90.000000
_cell_volume 2340.138698
_symmetry_space_group_name_H-M "C 2/C"
_symmetry_group_IT_number 15
_symmetry_cell_setting 'monoclinic'
loop_
_space_group_symop_operation_xyz
x,y,z
-x,y,1/2-z
-x,-y,-z
x,-y,1/2+z
1/2+x,1/2+y,z
1/2-x,1/2+y,1/2-z
1/2-x,1/2-y,-z
1/2+x,1/2-y,1/2+z
loop_
_atom_site_type_symbol
_atom_site_label
_atom_site_fract_x
_atom_site_fract_y
_atom_site_fract_z
Si Si1 0.160857 0.476459 0.911718
Si Si2 0.034021 0.245747 0.154822
Si Si3 0.913765 0.401670 0.058705
Si Si4 0.328490 0.567475 0.825107
Si Si5 0.500000 0.424036 0.750000
Si Si6 0.707686 0.310981 0.525645
Si Si7 0.806443 0.761679 0.497003
Si Si8 0.425621 0.186450 0.178833
O O1 0.139839 0.437429 0.700253
O O2 0.114606 0.563745 0.848170
O O3 0.126996 0.402064 0.947285
O O4 0.251254 0.490806 0.148520
O O5 0.074428 0.293850 0.390945
O O6 0.109098 0.240691 0.230980
O O7 0.003791 0.147253 0.122385
O O8 0.971586 0.311579 0.942331
O O9 0.000000 0.441022 0.250000
O O10 0.322734 0.607536 0.645022
O O11 0.312585 0.646224 0.911204
O O12 0.415612 0.530865 0.050393
O O13 0.750000 0.250000 0.500000
O O14 0.773134 0.312574 0.803871
O O15 0.635704 0.265700 0.439297
O O16 0.750000 0.750000 0.500000
O O17 0.500000 0.192750 0.250000
#
# Coordination Sequence:
#
# PCOD9259355 Si02
#       8
#     8   8   8   8   4   8   8   8
#     4  12  25  41  57  84 120 169 217 246 303 357
#     4  11  21  33  56  84 121 156 194 238 304 365
#     4  12  25  39  58  84 121 167 208 250 288 367
#     4  10  21  37  63  84 116 155 209 255 308 380
#     4  10  18  38  64  92 110 148 202 254 316 370
#     4  10  18  35  55  80 113 163 200 242 307 368
#     4  10  20  32  52  84 118 155 193 247 305 353
#     4  12  22  33  55  85 127 163 200 248 298 369
#
# _framework density 25.639506000000001
#
# number of rings (size 3 to 8) (size 9 to 14) (size 15 to 20)
#    0.000    1.067    6.000    2.400    3.733    0.000 
#    0.000    0.000    0.000    0.800    0.000    0.000 
#    0.000    0.000    0.000    0.000    0.000    0.000 
#
# Total GULP energy -167259.003062 kJ/mol
# GULP energy per Si atom -5575.300102 kJ/mol
# Density = 2.558115 g / cm^3
# Si number density = 25.639506 Si / 1000 Ang^3
#
#
#
# Elastic Constant Matrix: (Units=GPa)
#
#
# Indices 1 2 3 4 5 6 
#
# 1 125.2929 -8.2254 21.2640 0.0000 19.0335 0.0000
# 2 -8.2254 11.3137 -7.6377 0.0000 1.1358 0.0000
# 3 21.2640 -7.6377 137.3132 0.0000 35.2585 0.0000
# 4 0.0000 0.0000 0.0000 16.5112 0.0000 7.1332
# 5 19.0335 1.1358 35.2585 0.0000 57.2106 0.0000
# 6 0.0000 0.0000 0.0000 7.1332 0.0000 14.7526
#
#
#
# Elastic Compliance Matrix: (Units=1/GPa)
#
#
# Indices 1 2 3 4 5 6 
#
# 1 0.008904 0.006593 -0.000259 0.000000 -0.002934 0.000000
# 2 0.006593 0.098430 0.006557 0.000000 -0.008188 0.000000
# 3 -0.000259 0.006557 0.009146 0.000000 -0.005681 0.000000
# 4 0.000000 0.000000 0.000000 0.076557 0.000000 -0.037017
# 5 -0.002934 -0.008188 -0.005681 0.000000 0.022119 0.000000
# 6 0.000000 0.000000 0.000000 -0.037017 0.000000 0.085683
#
#
# Mechanical properties :
#
#
# Convention : Reuss Voigt Hill
#
# Bulk Modulus (GPa) = 7.02930 31.63572 19.33251
# Shear Modulus (GPa) = 15.50492 35.59614 25.55053
#
# Velocity S-wave (km/s) = 2.46179 3.73007 3.16021
# Velocity P-wave (km/s) = 3.29061 5.56028 4.56863
#
# Compressibility (1/GPa) = 0.14226177
#
# Stress axis : x y z
#
# Youngs Moduli (GPa) = 112.31289 10.15946 109.33680
#
# Poissons Ratio (x) = -0.06698 0.02830
# Poissons Ratio (y) = -0.74049 -0.71687
# Poissons Ratio (z) = 0.02907 -0.06661
#
# Static dielectric constant tensor:
#      x y z
#    x 2.296710 0.000000 0.029120 
#    y 0.000000 2.019250 0.000000 
#    z 0.029120 0.000000 2.060830 
# 
# From -- ./inp_files/67551.got.cif
#   From: 2010.05.17/outbox.cif.g08.bks.cpg/sg15_34_cif.got.tgz:67551.got - 2010.06.03 18:47:42.
