data_PCOD9259048
_publ_section_title
;
Structure prediction by ZEFSAII (Michael W. Deem and Ramdas Pophale) SiO2 
 PCOD9259048
Probable space group: C 2/C
;
_chemical_formula_sum "Si O2"
_cell_formula_units_Z 60
_cell_length_a 10.914280
_cell_length_b 16.910101
_cell_length_c 16.816085
_cell_angle_alpha 90.000000
_cell_angle_beta 89.058891
_cell_angle_gamma 90.000000
_cell_volume 3103.184509
_symmetry_space_group_name_H-M "C 2/C"
_symmetry_group_IT_number 15
_symmetry_cell_setting 'monoclinic'
loop_
_space_group_symop_operation_xyz
x,y,z
-x,y,1/2-z
-x,-y,-z
x,-y,1/2+z
1/2+x,1/2+y,z
1/2-x,1/2+y,1/2-z
1/2-x,1/2-y,-z
1/2+x,1/2-y,1/2+z
loop_
_atom_site_type_symbol
_atom_site_label
_atom_site_fract_x
_atom_site_fract_y
_atom_site_fract_z
Si Si1 0.127927 0.362905 0.130540
Si Si2 0.322522 0.511156 0.587494
Si Si3 0.748042 0.565498 0.245486
Si Si4 0.911317 0.729163 0.560304
Si Si5 0.355059 0.266137 0.740096
Si Si6 0.000000 0.517292 0.750000
Si Si7 0.933428 0.941419 0.330492
Si Si8 0.313371 0.370935 0.470419
O O1 0.235474 0.412010 0.087826
O O2 0.174991 0.306492 0.201318
O O3 0.041303 0.426110 0.177158
O O4 0.043110 0.309674 0.074665
O O5 0.277028 0.458148 0.662519
O O6 0.459888 0.534630 0.609534
O O7 0.315592 0.456713 0.510617
O O8 0.724148 0.657849 0.237237
O O9 0.649173 0.515405 0.196198
O O10 0.884062 0.535132 0.226062
O O11 0.851251 0.745589 0.647318
O O12 0.820074 0.667984 0.518628
O O13 0.907194 0.811223 0.512741
O O14 0.500000 0.285647 0.750000
O O15 0.848461 0.880777 0.378132
O O16 0.000000 0.911059 0.250000
#
# Coordination Sequence:
#
# PCOD9259048 Si02
#       8
#     8   8   8   8   8   4   8   8
#     4  10  20  36  64  86 123 159 210 246 298 359
#     4  10  21  37  58  90 115 158 197 256 296 365
#     4  10  20  35  61  87 119 153 210 251 300 352
#     4  10  21  36  60  90 116 168 196 247 305 365
#     4  10  18  35  62  88 118 161 209 246 291 370
#     4  10  18  34  58  92 114 158 204 254 290 354
#     4  10  22  37  63  86 113 156 205 251 300 357
#     4  11  22  38  60  86 124 153 207 249 305 366
#
# _framework density 19.334976000000001
#
# number of rings (size 3 to 8) (size 9 to 14) (size 15 to 20)
#    0.000    1.867    3.333    2.400    5.600    0.533 
#    0.000    2.000    0.000    0.000    0.000    0.000 
#    0.000    0.000    0.000    0.000    0.000    0.000 
#
# Total GULP energy -167460.836534 kJ/mol
# GULP energy per Si atom -5582.027884 kJ/mol
# Density = 1.929097 g / cm^3
# Si number density = 19.334976 Si / 1000 Ang^3
#
#
#
# Elastic Constant Matrix: (Units=GPa)
#
#
# Indices 1 2 3 4 5 6 
#
# 1 69.2186 42.0110 16.1275 0.0000 -2.5361 0.0000
# 2 42.0110 109.6371 36.7464 0.0000 -7.2319 0.0000
# 3 16.1275 36.7464 55.0808 0.0000 4.6493 0.0000
# 4 0.0000 0.0000 0.0000 11.4905 0.0000 0.1810
# 5 -2.5361 -7.2319 4.6493 0.0000 17.1124 0.0000
# 6 0.0000 0.0000 0.0000 0.1810 0.0000 25.7624
#
#
#
# Elastic Compliance Matrix: (Units=1/GPa)
#
#
# Indices 1 2 3 4 5 6 
#
# 1 0.018860 -0.006909 -0.000924 0.000000 0.000126 0.000000
# 2 -0.006909 0.015232 -0.008797 0.000000 0.007803 0.000000
# 3 -0.000924 -0.008797 0.025198 0.000000 -0.010701 0.000000
# 4 0.000000 0.000000 0.000000 0.087038 0.000000 -0.000611
# 5 0.000126 0.007803 -0.010701 0.000000 0.064661 0.000000
# 6 0.000000 0.000000 0.000000 -0.000611 0.000000 0.038821
#
#
# Mechanical properties :
#
#
# Convention : Reuss Voigt Hill
#
# Bulk Modulus (GPa) = 38.41758 47.07848 42.74803
# Shear Modulus (GPa) = 17.13824 20.14317 18.64070
#
# Velocity S-wave (km/s) = 2.98045 3.23119 3.10835
# Velocity P-wave (km/s) = 5.63531 6.19052 5.91943
#
# Compressibility (1/GPa) = 0.02602975
#
# Stress axis : x y z
#
# Youngs Moduli (GPa) = 53.02205 65.65274 39.68593
#
# Poissons Ratio (x) = 0.45359 0.03666
# Poissons Ratio (y) = 0.36633 0.34913
# Poissons Ratio (z) = 0.04897 0.57757
#
# Static dielectric constant tensor:
#      x y z
#    x 1.671620 0.000000 0.012250 
#    y 0.000000 1.672170 0.000000 
#    z 0.012250 0.000000 1.685580 
# 
# From -- ./inp_files/197915.got.cif
#   From: 2010.05.17/outbox.cif.g08.bks.cpg/sg15_99_cif.got.tgz:197915.got - 2010.06.03 18:47:42.
