data_PCOD9259669
_publ_section_title
;
Structure prediction by ZEFSAII (Michael W. Deem and Ramdas Pophale) SiO2 
 PCOD9259669
Probable space group: C 2/C
;
_chemical_formula_sum "Si O2"
_cell_formula_units_Z 48
_cell_length_a 13.483295
_cell_length_b 18.462647
_cell_length_c 20.460015
_cell_angle_alpha 90.000000
_cell_angle_beta 159.019107
_cell_angle_gamma 90.000000
_cell_volume 1823.675791
_symmetry_space_group_name_H-M "C 2/C"
_symmetry_group_IT_number 15
_symmetry_cell_setting 'monoclinic'
loop_
_space_group_symop_operation_xyz
x,y,z
-x,y,1/2-z
-x,-y,-z
x,-y,1/2+z
1/2+x,1/2+y,z
1/2-x,1/2+y,1/2-z
1/2-x,1/2-y,-z
1/2+x,1/2-y,1/2+z
loop_
_atom_site_type_symbol
_atom_site_label
_atom_site_fract_x
_atom_site_fract_y
_atom_site_fract_z
Si Si1 0.009868 0.346658 0.860708
Si Si2 0.482125 0.306043 0.392674
Si Si3 0.071241 0.356732 0.477141
Si Si4 0.118559 0.801186 0.029802
Si Si5 0.200984 0.452970 0.668325
Si Si6 0.301798 0.946218 0.070784
O O1 0.095757 0.276562 0.956986
O O2 0.706476 0.317192 0.657003
O O3 0.960339 0.420435 0.868884
O O4 0.242993 0.352701 0.949596
O O5 0.291368 0.303994 0.339849
O O6 0.251589 0.340798 0.202202
O O7 0.245763 0.385031 0.646824
O O8 0.080045 0.418699 0.426439
O O9 0.177346 0.274694 0.532206
O O10 0.220615 0.869097 0.053085
O O11 0.000000 0.500000 0.500000
O O12 0.501305 0.482956 0.873494
O O13 0.500000 0.979363 0.250000
#
# Coordination Sequence:
#
# PCOD9259669 Si02
#       6
#     8   8   8   8   8   8
#     4   9  20  35  61  96 135 185 225 279 348 408
#     4  10  18  35  62  98 141 174 224 287 346 413
#     4  11  22  39  63 103 139 179 224 283 353 411
#     4  10  19  35  64 101 143 175 216 282 353 416
#     4  11  25  47  67  95 139 184 237 285 346 427
#     4  11  23  42  70  98 136 177 230 285 353 418
#
# _framework density 26.320468000000002
#
# number of rings (size 3 to 8) (size 9 to 14) (size 15 to 20)
#    0.000    1.667    3.333    1.500    0.000    2.000 
#    6.000    0.833    0.000    0.000    0.000    0.000 
#    0.000    0.000    0.000    0.000    0.000    0.000 
#
# Total GULP energy -133884.510700 kJ/mol
# GULP energy per Si atom -5578.521279 kJ/mol
# Density = 2.626056 g / cm^3
# Si number density = 26.320468 Si / 1000 Ang^3
#
#
#
# Elastic Constant Matrix: (Units=GPa)
#
#
# Indices 1 2 3 4 5 6 
#
# 1 98.3935 12.9799 25.5703 -0.0410 -1.1393 0.0040
# 2 12.9799 90.0656 31.3458 -0.0220 0.0954 -0.0394
# 3 25.5703 31.3458 175.2813 -0.0528 -5.8791 -0.0269
# 4 -0.0410 -0.0220 -0.0528 22.9922 -0.0578 -14.5381
# 5 -1.1393 0.0954 -5.8791 -0.0578 39.4772 -0.0182
# 6 0.0040 -0.0394 -0.0269 -14.5381 -0.0182 12.0395
#
#
#
# Elastic Compliance Matrix: (Units=1/GPa)
#
#
# Indices 1 2 3 4 5 6 
#
# 1 0.010658 -0.001062 -0.001361 0.000038 0.000108 0.000036
# 2 -0.001062 0.011951 -0.001994 0.000109 -0.000356 0.000167
# 3 -0.001361 -0.001994 0.006291 0.000077 0.000903 0.000103
# 4 0.000038 0.000109 0.000077 0.183928 0.000384 0.222099
# 5 0.000108 -0.000356 0.000903 0.000384 0.025470 0.000503
# 6 0.000036 0.000167 0.000103 0.222099 0.000503 0.351251
#
#
# Mechanical properties :
#
#
# Convention : Reuss Voigt Hill
#
# Bulk Modulus (GPa) = 49.83985 55.94805 52.89395
# Shear Modulus (GPa) = 8.26347 34.49141 21.37744
#
# Velocity S-wave (km/s) = 1.77380 3.62393 2.85300
# Velocity P-wave (km/s) = 4.81374 6.23002 5.56710
#
# Compressibility (1/GPa) = 0.02006426
#
# Stress axis : x y z
#
# Youngs Moduli (GPa) = 93.82235 83.67780 158.96719
#
# Poissons Ratio (x) = 0.08890 0.21640
# Poissons Ratio (y) = 0.09968 0.31699
# Poissons Ratio (z) = 0.12772 0.16686
#
# Static dielectric constant tensor:
#      x y z
#    x 2.200080 0.000040 -0.124700 
#    y 0.000040 2.131540 -0.000090 
#    z -0.124700 -0.000090 2.245760 
# 
# From -- ./inp_files/275079.got.cif
#   From: 2010.05.17/outbox.cif.g08.bks.cpg/sg15_138_cif.got.tgz:275079.got - 2010.06.03 18:47:42.
