data_PCOD9259848
_publ_section_title
;
Structure prediction by ZEFSAII (Michael W. Deem and Ramdas Pophale) SiO2 
 PCOD9259848
Probable space group: C 2/C
;
_chemical_formula_sum "Si O2"
_cell_formula_units_Z 64
_cell_length_a 24.065873
_cell_length_b 22.640557
_cell_length_c 8.372542
_cell_angle_alpha 90.000000
_cell_angle_beta 52.721377
_cell_angle_gamma 90.000000
_cell_volume 3629.904156
_symmetry_space_group_name_H-M "C 2/C"
_symmetry_group_IT_number 15
_symmetry_cell_setting 'monoclinic'
loop_
_space_group_symop_operation_xyz
x,y,z
-x,y,1/2-z
-x,-y,-z
x,-y,1/2+z
1/2+x,1/2+y,z
1/2-x,1/2+y,1/2-z
1/2-x,1/2-y,-z
1/2+x,1/2-y,1/2+z
loop_
_atom_site_type_symbol
_atom_site_label
_atom_site_fract_x
_atom_site_fract_y
_atom_site_fract_z
Si Si1 0.826321 0.028839 0.788531
Si Si2 0.922869 0.164893 0.337546
Si Si3 0.207158 0.917594 0.456630
Si Si4 0.798558 0.309703 0.409651
Si Si5 0.077082 0.051581 0.600398
Si Si6 0.568204 0.314492 0.033702
Si Si7 0.324252 0.771240 0.036062
Si Si8 0.662186 0.237454 0.335910
O O1 0.780044 0.069862 0.753960
O O2 0.880430 0.061885 0.810056
O O3 0.786656 0.979489 0.961639
O O4 0.874902 0.990452 0.587134
O O5 0.870937 0.109824 0.407126
O O6 0.889565 0.209458 0.525502
O O7 0.000000 0.145781 0.250000
O O8 0.928180 0.199892 0.160096
O O9 0.251772 0.867448 0.466173
O O10 0.750000 0.250000 0.500000
O O11 0.841704 0.305996 0.168964
O O12 0.836140 0.306420 0.515123
O O13 0.066357 0.114875 0.539943
O O14 0.000000 0.024789 0.750000
O O15 0.500000 0.293171 0.250000
O O16 0.637589 0.291140 0.998972
O O17 0.240336 0.765227 0.183062
O O18 0.349985 0.790863 0.816806
#
# Coordination Sequence:
#
# PCOD9259848 Si02
#       8
#     8   8   8   8   8   8   8   8
#     4  10  23  35  48  65 100 137 189 237 271 313
#     4  12  22  34  53  75 110 147 192 239 277 323
#     4  11  22  39  51  77 102 149 190 232 283 319
#     4  10  18  36  58  76 105 130 187 230 278 337
#     4  10  21  32  46  62  91 138 186 232 264 305
#     4  11  22  34  49  75 108 143 186 234 279 325
#     4  10  19  33  54  78 101 133 181 221 284 342
#     4  10  20  33  53  82 100 137 181 227 286 335
#
# _framework density 17.631318
#
# number of rings (size 3 to 8) (size 9 to 14) (size 15 to 20)
#    0.000    1.500    5.000    1.875    5.250    2.000 
#    2.250    0.000    0.000    0.000    0.000    0.000 
#    0.000    0.000    0.000    3.375    0.500    0.000 
#
# Total GULP energy -178277.556920 kJ/mol
# GULP energy per Si atom -5571.173654 kJ/mol
# Density = 1.759119 g / cm^3
# Si number density = 17.631318 Si / 1000 Ang^3
#
#
#
# Elastic Constant Matrix: (Units=GPa)
#
#
# Indices 1 2 3 4 5 6 
#
# 1 34.2160 14.0171 20.5844 0.0000 23.2357 0.0000
# 2 14.0171 34.7163 10.6076 0.0000 0.3374 0.0000
# 3 20.5844 10.6076 90.0923 0.0000 30.7946 0.0000
# 4 0.0000 0.0000 0.0000 15.6374 0.0000 5.9333
# 5 23.2357 0.3374 30.7946 0.0000 39.0939 0.0000
# 6 0.0000 0.0000 0.0000 5.9333 0.0000 16.6911
#
#
#
# Elastic Compliance Matrix: (Units=1/GPa)
#
#
# Indices 1 2 3 4 5 6 
#
# 1 0.067327 -0.027384 0.001969 0.000000 -0.041331 0.000000
# 2 -0.027384 0.041359 -0.005548 0.000000 0.020289 0.000000
# 3 0.001969 -0.005548 0.015993 0.000000 -0.013720 0.000000
# 4 0.000000 0.000000 0.000000 0.073919 0.000000 -0.026277
# 5 -0.041331 0.020289 -0.013720 0.000000 0.060777 0.000000
# 6 0.000000 0.000000 0.000000 -0.026277 0.000000 0.069253
#
#
# Mechanical properties :
#
#
# Convention : Reuss Voigt Hill
#
# Bulk Modulus (GPa) = 15.93558 27.71587 21.82573
# Shear Modulus (GPa) = 12.15147 21.87219 17.01183
#
# Velocity S-wave (km/s) = 2.62811 3.52594 3.10960
# Velocity P-wave (km/s) = 4.27400 5.68596 5.02977
#
# Compressibility (1/GPa) = 0.06275267
#
# Stress axis : x y z
#
# Youngs Moduli (GPa) = 14.85281 24.17827 62.52824
#
# Poissons Ratio (x) = 0.66210 -0.12309
# Poissons Ratio (y) = 0.40673 0.34691
# Poissons Ratio (z) = -0.02924 0.13414
#
# Static dielectric constant tensor:
#      x y z
#    x 1.662070 0.000000 0.057630 
#    y 0.000000 1.605270 0.000000 
#    z 0.057630 0.000000 1.693480 
# 
# From -- ./inp_files/67439.got.cif
#   From: 2010.05.17/outbox.cif.g08.bks.cpg/sg15_34_cif.got.tgz:67439.got - 2010.06.03 18:47:42.
