data_PCOD9259759
_publ_section_title
;
Structure prediction by ZEFSAII (Michael W. Deem and Ramdas Pophale) SiO2 
 PCOD9259759
Probable space group: C 2/C
;
_chemical_formula_sum "Si O2"
_cell_formula_units_Z 36
_cell_length_a 27.372225
_cell_length_b 11.833219
_cell_length_c 18.584324
_cell_angle_alpha 90.000000
_cell_angle_beta 160.733857
_cell_angle_gamma 90.000000
_cell_volume 1986.170962
_symmetry_space_group_name_H-M "C 2/C"
_symmetry_group_IT_number 15
_symmetry_cell_setting 'monoclinic'
loop_
_space_group_symop_operation_xyz
x,y,z
-x,y,1/2-z
-x,-y,-z
x,-y,1/2+z
1/2+x,1/2+y,z
1/2-x,1/2+y,1/2-z
1/2-x,1/2-y,-z
1/2+x,1/2-y,1/2+z
loop_
_atom_site_type_symbol
_atom_site_label
_atom_site_fract_x
_atom_site_fract_y
_atom_site_fract_z
Si Si1 0.935006 0.151071 0.390653
Si Si2 0.763417 0.045880 0.714511
Si Si3 0.000000 0.496793 0.250000
Si Si4 0.359659 0.915319 0.300416
Si Si5 0.749395 0.384662 0.996054
O O1 0.910590 0.284625 0.362327
O O2 0.106041 0.121567 0.636997
O O3 0.825536 0.082406 0.291484
O O4 0.889182 0.096205 0.249314
O O5 0.729776 0.072492 0.750166
O O6 0.614334 0.060941 0.460719
O O7 0.104494 0.423318 0.343516
O O8 0.261136 0.936330 0.091753
O O9 0.500000 0.000000 0.500000
O O10 0.750000 0.250000 0.000000
#
# Coordination Sequence:
#
# PCOD9259759 Si02
#       5
#     8   8   4   8   8
#     4   9  22  38  58  86 117 154 189 242 304 339
#     4  10  21  38  59  79 120 153 192 239 296 352
#     4  10  18  36  54  76 114 156 186 234 298 342
#     4  11  21  34  61  90 112 148 201 243 287 354
#     4   9  19  33  56  86 110 143 192 245 290 335
#
# _framework density 18.125326999999999
#
# number of rings (size 3 to 8) (size 9 to 14) (size 15 to 20)
#    0.000    2.222    2.222    0.000    3.111    6.222 
#    0.000    1.111    0.000    0.000    0.000    0.000 
#    0.000    0.000    0.000    0.000    0.000    0.000 
#
# Total GULP energy -100219.358534 kJ/mol
# GULP energy per Si atom -5567.742141 kJ/mol
# Density = 1.808407 g / cm^3
# Si number density = 18.125327 Si / 1000 Ang^3
#
#
#
# Elastic Constant Matrix: (Units=GPa)
#
#
# Indices 1 2 3 4 5 6 
#
# 1 111.2978 26.2039 46.9313 0.0000 -26.1294 0.0000
# 2 26.2039 75.1877 31.7603 0.0000 -6.3490 0.0000
# 3 46.9313 31.7603 120.5233 0.0000 -9.4314 0.0000
# 4 0.0000 0.0000 0.0000 20.3631 0.0000 -5.5354
# 5 -26.1294 -6.3490 -9.4314 0.0000 26.9671 0.0000
# 6 0.0000 0.0000 0.0000 -5.5354 0.0000 22.7736
#
#
#
# Elastic Compliance Matrix: (Units=1/GPa)
#
#
# Indices 1 2 3 4 5 6 
#
# 1 0.013865 -0.002204 -0.003915 0.000000 0.011547 0.000000
# 2 -0.002204 0.015445 -0.003182 0.000000 0.000388 0.000000
# 3 -0.003915 -0.003182 0.010594 0.000000 -0.000837 0.000000
# 4 0.000000 0.000000 0.000000 0.052583 0.000000 0.012781
# 5 0.011547 0.000388 -0.000837 0.000000 0.048069 0.000000
# 6 0.000000 0.000000 0.000000 0.012781 0.000000 0.047017
#
#
# Mechanical properties :
#
#
# Convention : Reuss Voigt Hill
#
# Bulk Modulus (GPa) = 46.93815 57.42222 52.18018
# Shear Modulus (GPa) = 23.44396 27.49499 25.46948
#
# Velocity S-wave (km/s) = 3.60034 3.89901 3.75265
# Velocity P-wave (km/s) = 6.57540 7.21243 6.90127
#
# Compressibility (1/GPa) = 0.02130463
#
# Stress axis : x y z
#
# Youngs Moduli (GPa) = 72.12260 64.74700 94.38877
#
# Poissons Ratio (x) = 0.14267 0.36952
# Poissons Ratio (y) = 0.15892 0.30030
# Poissons Ratio (z) = 0.28235 0.20600
#
# Static dielectric constant tensor:
#      x y z
#    x 1.652480 0.000000 -0.046900 
#    y 0.000000 1.630800 0.000000 
#    z -0.046900 0.000000 1.672030 
# 
# From -- ./inp_files/84446.got.cif
#   From: 2010.05.17/outbox.cif.g08.bks.cpg/sg15_43_cif.got.tgz:84446.got - 2010.06.03 18:47:42.
