data_PCOD9259104
_publ_section_title
;
Structure prediction by ZEFSAII (Michael W. Deem and Ramdas Pophale) SiO2 
 PCOD9259104
Probable space group: C 2/C
;
_chemical_formula_sum "Si O2"
_cell_formula_units_Z 48
_cell_length_a 14.087689
_cell_length_b 23.020990
_cell_length_c 9.780156
_cell_angle_alpha 90.000000
_cell_angle_beta 59.559609
_cell_angle_gamma 90.000000
_cell_volume 2734.612239
_symmetry_space_group_name_H-M "C 2/C"
_symmetry_group_IT_number 15
_symmetry_cell_setting 'monoclinic'
loop_
_space_group_symop_operation_xyz
x,y,z
-x,y,1/2-z
-x,-y,-z
x,-y,1/2+z
1/2+x,1/2+y,z
1/2-x,1/2+y,1/2-z
1/2-x,1/2-y,-z
1/2+x,1/2-y,1/2+z
loop_
_atom_site_type_symbol
_atom_site_label
_atom_site_fract_x
_atom_site_fract_y
_atom_site_fract_z
Si Si1 0.880599 0.790634 0.282466
Si Si2 0.872534 0.443935 0.804437
Si Si3 0.592848 0.605678 0.288028
Si Si4 0.746227 0.823078 0.653743
Si Si5 0.940336 0.086349 0.646827
Si Si6 0.252636 0.500689 0.349897
O O1 0.811605 0.812590 0.464307
O O2 0.817400 0.736061 0.266054
O O3 0.901190 0.846490 0.172734
O O4 0.000000 0.771351 0.250000
O O5 0.835271 0.377279 0.809625
O O6 0.838487 0.478013 0.691769
O O7 0.000000 0.448098 0.750000
O O8 0.800850 0.470848 0.979846
O O9 0.500000 0.624292 0.250000
O O10 0.666818 0.656844 0.295816
O O11 0.528786 0.577230 0.463566
O O12 0.673058 0.556784 0.167621
O O13 0.000000 0.078038 0.750000
O O14 0.836087 0.044629 0.718694
#
# Coordination Sequence:
#
# PCOD9259104 Si02
#       6
#     8   8   8   8   8   8
#     4  10  18  34  60  82 104 133 192 235 268 308
#     4  11  22  37  54  80 112 149 187 225 274 328
#     4  11  21  34  54  84 118 143 175 227 286 329
#     4  10  20  35  56  83 106 143 184 233 268 319
#     4  11  18  35  57  84 107 143 189 233 272 322
#     4  11  21  35  54  82 111 150 183 228 274 330
#
# _framework density 17.552762000000001
#
# number of rings (size 3 to 8) (size 9 to 14) (size 15 to 20)
#    0.000    1.333    5.000    4.000    0.000    0.000 
#    0.000    0.833    0.000    1.000    0.000    0.000 
#    0.000    0.000    0.000    0.000    0.000    0.000 
#
# Total GULP energy -134030.178583 kJ/mol
# GULP energy per Si atom -5584.590774 kJ/mol
# Density = 1.751281 g / cm^3
# Si number density = 17.552762 Si / 1000 Ang^3
#
#
#
# Elastic Constant Matrix: (Units=GPa)
#
#
# Indices 1 2 3 4 5 6 
#
# 1 114.6881 57.8950 0.3985 0.0000 3.9448 0.0000
# 2 57.8950 93.5432 6.6148 0.0000 3.8401 0.0000
# 3 0.3985 6.6148 28.2514 0.0000 -0.5642 0.0000
# 4 0.0000 0.0000 0.0000 14.3237 0.0000 -7.1425
# 5 3.9448 3.8401 -0.5642 0.0000 24.2037 0.0000
# 6 0.0000 0.0000 0.0000 -7.1425 0.0000 17.8882
#
#
#
# Elastic Compliance Matrix: (Units=1/GPa)
#
#
# Indices 1 2 3 4 5 6 
#
# 1 0.012775 -0.007993 0.001676 0.000000 -0.000775 0.000000
# 2 -0.007993 0.015949 -0.003648 0.000000 -0.001313 0.000000
# 3 0.001676 -0.003648 0.036250 0.000000 0.001151 0.000000
# 4 0.000000 0.000000 0.000000 0.087170 0.000000 0.034806
# 5 -0.000775 -0.001313 0.001151 0.000000 0.041677 0.000000
# 6 0.000000 0.000000 0.000000 0.034806 0.000000 0.069800
#
#
# Mechanical properties :
#
#
# Convention : Reuss Voigt Hill
#
# Bulk Modulus (GPa) = 22.20067 40.69992 31.45029
# Shear Modulus (GPa) = 16.74664 22.72143 19.73404
#
# Velocity S-wave (km/s) = 3.09216 3.60177 3.35665
# Velocity P-wave (km/s) = 5.04222 6.36667 5.74276
#
# Compressibility (1/GPa) = 0.04504368
#
# Stress axis : x y z
#
# Youngs Moduli (GPa) = 78.27636 62.69858 27.58631
#
# Poissons Ratio (x) = 0.50118 -0.04623
# Poissons Ratio (y) = 0.62570 0.10063
# Poissons Ratio (z) = -0.13118 0.22871
#
# Static dielectric constant tensor:
#      x y z
#    x 1.594230 0.000000 -0.003360 
#    y 0.000000 1.598080 0.000000 
#    z -0.003360 0.000000 1.582250 
# 
# From -- ./inp_files/32525.got.cif
#   From: 2010.05.17/outbox.cif.g08.bks.cpg/sg15_17_cif.got.tgz:32525.got - 2010.06.03 18:47:42.
