data_PCOD9259124
_publ_section_title
;
Structure prediction by ZEFSAII (Michael W. Deem and Ramdas Pophale) SiO2 
 PCOD9259124
Probable space group: C 2/C
;
_chemical_formula_sum "Si O2"
_cell_formula_units_Z 56
_cell_length_a 20.005002
_cell_length_b 17.202545
_cell_length_c 10.051367
_cell_angle_alpha 90.000000
_cell_angle_beta 57.221606
_cell_angle_gamma 90.000000
_cell_volume 2908.265574
_symmetry_space_group_name_H-M "C 2/C"
_symmetry_group_IT_number 15
_symmetry_cell_setting 'monoclinic'
loop_
_space_group_symop_operation_xyz
x,y,z
-x,y,1/2-z
-x,-y,-z
x,-y,1/2+z
1/2+x,1/2+y,z
1/2-x,1/2+y,1/2-z
1/2-x,1/2-y,-z
1/2+x,1/2-y,1/2+z
loop_
_atom_site_type_symbol
_atom_site_label
_atom_site_fract_x
_atom_site_fract_y
_atom_site_fract_z
Si Si1 0.819177 0.943391 0.288791
Si Si2 0.296760 0.076438 0.346628
Si Si3 0.899559 0.247605 0.135492
Si Si4 0.187997 0.598847 0.710598
Si Si5 0.721406 0.620255 0.162677
Si Si6 0.458684 0.668189 0.647814
Si Si7 0.340908 0.776177 0.905963
O O1 0.783217 0.932108 0.476790
O O2 0.755153 0.903544 0.256211
O O3 0.906070 0.907759 0.174852
O O4 0.819580 0.036123 0.269928
O O5 0.277156 0.122982 0.233086
O O6 0.350926 0.132206 0.376237
O O7 0.333730 0.992641 0.276269
O O8 0.881543 0.337029 0.197351
O O9 0.839677 0.190800 0.276147
O O10 0.872102 0.249549 0.012902
O O11 0.983312 0.202612 0.028049
O O12 0.230410 0.617444 0.525466
O O13 0.500000 0.657630 0.750000
O O14 0.391383 0.733001 0.741422
O O15 0.250000 0.750000 0.000000
#
# Coordination Sequence:
#
# PCOD9259124 Si02
#       7
#     8   8   8   8   8   8   8
#     4  10  19  37  57  84 111 146 193 231 273 329
#     4  10  18  34  60  87 102 138 199 241 267 313
#     4  11  20  35  52  82 119 146 178 231 284 337
#     4  10  21  35  57  83 115 145 186 229 279 335
#     4  10  21  33  57  85 112 148 188 230 276 329
#     4  10  21  33  57  87 113 144 187 234 276 326
#     4  11  17  33  62  83 101 138 198 242 268 316
#
# _framework density 19.255465000000001
#
# number of rings (size 3 to 8) (size 9 to 14) (size 15 to 20)
#    0.000    1.714    4.286    1.286    0.000    0.571 
#    0.000    1.429    0.000    0.000    0.000    0.000 
#    0.000    0.000    0.000    0.000    0.000    0.000 
#
# Total GULP energy -155891.207834 kJ/mol
# GULP energy per Si atom -5567.543137 kJ/mol
# Density = 1.921164 g / cm^3
# Si number density = 19.255465 Si / 1000 Ang^3
#
#
#
# Elastic Constant Matrix: (Units=GPa)
#
#
# Indices 1 2 3 4 5 6 
#
# 1 25.2559 2.1891 4.2559 0.0000 5.7608 0.0000
# 2 2.1891 72.1903 1.9145 0.0000 -9.5573 0.0000
# 3 4.2559 1.9145 51.8928 0.0000 12.8617 0.0000
# 4 0.0000 0.0000 0.0000 32.8882 0.0000 -1.9384
# 5 5.7608 -9.5573 12.8617 0.0000 20.1729 0.0000
# 6 0.0000 0.0000 0.0000 -1.9384 0.0000 23.7818
#
#
#
# Elastic Compliance Matrix: (Units=1/GPa)
#
#
# Indices 1 2 3 4 5 6 
#
# 1 0.043005 -0.003126 -0.000001 0.000000 -0.013761 0.000000
# 2 -0.003126 0.015334 -0.002769 0.000000 0.009923 0.000000
# 3 -0.000001 -0.002769 0.023395 0.000000 -0.016227 0.000000
# 4 0.000000 0.000000 0.000000 0.030553 0.000000 0.002490
# 5 -0.013761 0.009923 -0.016227 0.000000 0.068549 0.000000
# 6 0.000000 0.000000 0.000000 0.002490 0.000000 0.042252
#
#
# Mechanical properties :
#
#
# Convention : Reuss Voigt Hill
#
# Bulk Modulus (GPa) = 14.29746 18.45089 16.37418
# Shear Modulus (GPa) = 19.36541 24.76720 22.06631
#
# Velocity S-wave (km/s) = 3.17473 3.59031 3.38890
# Velocity P-wave (km/s) = 4.56945 5.17591 4.88211
#
# Compressibility (1/GPa) = 0.06994248
#
# Stress axis : x y z
#
# Youngs Moduli (GPa) = 23.25327 65.21383 42.74469
#
# Poissons Ratio (x) = 0.20385 0.00004
# Poissons Ratio (y) = 0.07269 0.11835
# Poissons Ratio (z) = 0.00002 0.18056
#
# Static dielectric constant tensor:
#      x y z
#    x 1.710150 0.000000 0.004520 
#    y 0.000000 1.770630 0.000000 
#    z 0.004520 0.000000 1.940270 
# 
# From -- ./inp_files/113298.got.cif
#   From: 2010.05.17/outbox.cif.g08.bks.cpg/sg15_57_cif.got.tgz:113298.got - 2010.06.03 18:47:42.
