data_PCOD9259937
_publ_section_title
;
Structure prediction by ZEFSAII (Michael W. Deem and Ramdas Pophale) SiO2 
 PCOD9259937
Probable space group: C 2/C
;
_chemical_formula_sum "Si O2"
_cell_formula_units_Z 48
_cell_length_a 9.222789
_cell_length_b 17.863161
_cell_length_c 29.277398
_cell_angle_alpha 90.000000
_cell_angle_beta 29.129623
_cell_angle_gamma 90.000000
_cell_volume 2347.967591
_symmetry_space_group_name_H-M "C 2/C"
_symmetry_group_IT_number 15
_symmetry_cell_setting 'monoclinic'
loop_
_space_group_symop_operation_xyz
x,y,z
-x,y,1/2-z
-x,-y,-z
x,-y,1/2+z
1/2+x,1/2+y,z
1/2-x,1/2+y,1/2-z
1/2-x,1/2-y,-z
1/2+x,1/2-y,1/2+z
loop_
_atom_site_type_symbol
_atom_site_label
_atom_site_fract_x
_atom_site_fract_y
_atom_site_fract_z
Si Si1 0.125070 0.798801 0.104196
Si Si2 0.154160 0.053497 0.834711
Si Si3 0.113626 0.332825 0.891986
Si Si4 0.118507 0.074683 0.490591
Si Si5 0.629869 0.386895 0.809794
Si Si6 0.300385 0.670926 0.113495
O O1 0.230139 0.755782 0.120364
O O2 0.948378 0.873862 0.164752
O O3 0.924448 0.739652 0.130076
O O4 0.402936 0.816515 0.994207
O O5 0.500000 0.049383 0.750000
O O6 0.065863 0.974510 0.836645
O O7 0.019191 0.070354 0.921580
O O8 0.434845 0.353498 0.822705
O O9 0.960659 0.403381 0.908126
O O10 0.034364 0.138236 0.476656
O O11 0.000000 0.000000 0.500000
O O12 0.550279 0.344896 0.879281
O O13 0.981462 0.372534 0.705027
#
# Coordination Sequence:
#
# PCOD9259937 Si02
#       6
#     8   8   8   8   8   8
#     4   9  21  38  58  85 116 152 204 242 292 362
#     4  11  21  37  61  90 115 156 202 249 291 353
#     4   9  21  37  61  89 114 157 203 240 293 363
#     4  10  18  36  59  84 118 154 194 241 289 351
#     4  11  21  38  62  88 121 155 198 248 299 351
#     4  10  21  39  58  87 124 156 194 243 306 351
#
# _framework density 20.443211999999999
#
# number of rings (size 3 to 8) (size 9 to 14) (size 15 to 20)
#    0.000    2.000    3.333    1.000    2.333    5.333 
#    0.000    0.000    0.000    6.000    0.000    0.000 
#    0.000    0.000    0.000    0.000    0.000    0.000 
#
# Total GULP energy -133758.995981 kJ/mol
# GULP energy per Si atom -5573.291499 kJ/mol
# Density = 2.039668 g / cm^3
# Si number density = 20.443212 Si / 1000 Ang^3
#
#
#
# Elastic Constant Matrix: (Units=GPa)
#
#
# Indices 1 2 3 4 5 6 
#
# 1 75.3145 44.2331 4.7878 -0.0692 -10.9376 -0.1158
# 2 44.2331 126.4235 4.6247 0.0386 -4.9394 0.0618
# 3 4.7878 4.6247 32.5408 0.0068 -0.5924 0.1658
# 4 -0.0692 0.0386 0.0068 16.4683 -0.0043 -2.6944
# 5 -10.9376 -4.9394 -0.5924 -0.0043 23.3319 -0.1073
# 6 -0.1158 0.0618 0.1658 -2.6944 -0.1073 10.6723
#
#
#
# Elastic Compliance Matrix: (Units=1/GPa)
#
#
# Indices 1 2 3 4 5 6 
#
# 1 0.017893 -0.005923 -0.001664 0.000151 0.007093 0.000364
# 2 -0.005923 0.009976 -0.000558 -0.000071 -0.000679 -0.000138
# 3 -0.001664 -0.000558 0.031055 -0.000104 -0.000112 -0.000525
# 4 0.000151 -0.000071 -0.000104 0.063341 0.000138 0.015996
# 5 0.007093 -0.000679 -0.000112 0.000138 0.046041 0.000580
# 6 0.000364 -0.000138 -0.000525 0.015996 0.000580 0.097757
#
#
# Mechanical properties :
#
#
# Convention : Reuss Voigt Hill
#
# Bulk Modulus (GPa) = 23.45452 37.95223 30.70338
# Shear Modulus (GPa) = 16.85981 22.13672 19.49827
#
# Velocity S-wave (km/s) = 2.87490 3.29422 3.09168
# Velocity P-wave (km/s) = 4.74531 5.75102 5.27220
#
# Compressibility (1/GPa) = 0.04263571
#
# Stress axis : x y z
#
# Youngs Moduli (GPa) = 55.88903 100.23997 32.20049
#
# Poissons Ratio (x) = 0.59367 0.05357
# Poissons Ratio (y) = 0.33100 0.01797
# Poissons Ratio (z) = 0.09298 0.05594
#
# Static dielectric constant tensor:
#      x y z
#    x 2.873650 0.005010 0.531430 
#    y 0.005010 1.776570 0.002260 
#    z 0.531430 0.002260 2.021190 
# 
# From -- ./inp_files/190223.got.cif
#   From: 2010.05.17/outbox.cif.g08.bks.cpg/sg15_96_cif.got.tgz:190223.got - 2010.06.03 18:47:42.
