data_PCOD9259830
_publ_section_title
;
Structure prediction by ZEFSAII (Michael W. Deem and Ramdas Pophale) SiO2 
 PCOD9259830
Probable space group: C 2/C
;
_chemical_formula_sum "Si O2"
_cell_formula_units_Z 44
_cell_length_a 13.736652
_cell_length_b 32.469443
_cell_length_c 8.629908
_cell_angle_alpha 90.000000
_cell_angle_beta 141.459679
_cell_angle_gamma 90.000000
_cell_volume 2398.255324
_symmetry_space_group_name_H-M "C 2/C"
_symmetry_group_IT_number 15
_symmetry_cell_setting 'monoclinic'
loop_
_space_group_symop_operation_xyz
x,y,z
-x,y,1/2-z
-x,-y,-z
x,-y,1/2+z
1/2+x,1/2+y,z
1/2-x,1/2+y,1/2-z
1/2-x,1/2-y,-z
1/2+x,1/2-y,1/2+z
loop_
_atom_site_type_symbol
_atom_site_label
_atom_site_fract_x
_atom_site_fract_y
_atom_site_fract_z
Si Si1 0.000000 0.018048 0.750000
Si Si2 0.686125 0.845590 0.322452
Si Si3 0.510813 0.227449 0.080732
Si Si4 0.000000 0.117439 0.250000
Si Si5 0.776618 0.782519 0.674498
Si Si6 0.828452 0.049950 0.241535
Si Si7 0.500000 0.915481 0.250000
O O1 0.895721 0.043211 0.497399
O O2 0.114552 0.989002 0.790383
O O3 0.861854 0.857581 0.492228
O O4 0.722720 0.825173 0.535425
O O5 0.578304 0.885283 0.218602
O O6 0.597636 0.810566 0.114670
O O7 0.500000 0.227148 0.250000
O O8 0.675677 0.223245 0.202657
O O9 0.449485 0.271245 0.939505
O O10 0.087120 0.088694 0.234401
O O11 0.750000 0.750000 0.500000
O O12 0.643252 0.058048 0.997276
#
# Coordination Sequence:
#
# PCOD9259830 Si02
#       7
#     4   8   8   4   8   8   4
#     4   9  18  38  58  86 115 144 178 230 269 330
#     4  10  19  36  55  74 109 147 192 224 284 342
#     4  11  22  36  53  82 110 138 189 255 288 325
#     4   9  20  34  55  80 104 154 182 220 274 354
#     4  10  20  35  57  75 100 148 193 232 279 344
#     4   9  19  35  60  83 115 143 187 223 273 328
#     4  10  18  36  57  82 111 148 192 226 267 346
#
# _framework density 18.346671000000001
#
# number of rings (size 3 to 8) (size 9 to 14) (size 15 to 20)
#    0.000    2.182    1.818    2.182    5.091    0.727 
#    3.273    0.000    2.000    0.000    0.000    0.000 
#    0.000    0.000    0.000    0.000    0.000    0.000 
#
# Total GULP energy -122476.769259 kJ/mol
# GULP energy per Si atom -5567.125875 kJ/mol
# Density = 1.830491 g / cm^3
# Si number density = 18.346671 Si / 1000 Ang^3
#
#
#
# Elastic Constant Matrix: (Units=GPa)
#
#
# Indices 1 2 3 4 5 6 
#
# 1 58.1274 13.4045 25.6041 0.0000 0.1246 0.0000
# 2 13.4045 45.1093 35.3459 0.0000 3.0139 0.0000
# 3 25.6041 35.3459 93.8087 0.0000 1.7153 0.0000
# 4 0.0000 0.0000 0.0000 33.1067 0.0000 9.5712
# 5 0.1246 3.0139 1.7153 0.0000 39.7087 0.0000
# 6 0.0000 0.0000 0.0000 9.5712 0.0000 13.7149
#
#
#
# Elastic Compliance Matrix: (Units=1/GPa)
#
#
# Indices 1 2 3 4 5 6 
#
# 1 0.019730 -0.002355 -0.004503 0.000000 0.000311 0.000000
# 2 -0.002355 0.031876 -0.011333 0.000000 -0.001923 0.000000
# 3 -0.004503 -0.011333 0.016156 0.000000 0.000176 0.000000
# 4 0.000000 0.000000 0.000000 0.037840 0.000000 -0.026407
# 5 0.000311 -0.001923 0.000176 0.000000 0.025321 0.000000
# 6 0.000000 0.000000 0.000000 -0.026407 0.000000 0.091342
#
#
# Mechanical properties :
#
#
# Convention : Reuss Voigt Hill
#
# Bulk Modulus (GPa) = 31.86740 38.41714 35.14227
# Shear Modulus (GPa) = 18.57999 25.48544 22.03272
#
# Velocity S-wave (km/s) = 3.18577 3.73111 3.46918
# Velocity P-wave (km/s) = 5.56233 6.28861 5.93659
#
# Compressibility (1/GPa) = 0.03138003
#
# Stress axis : x y z
#
# Youngs Moduli (GPa) = 50.68517 31.37108 61.89668
#
# Poissons Ratio (x) = 0.07387 0.27875
# Poissons Ratio (y) = 0.11936 0.70146
# Poissons Ratio (z) = 0.22826 0.35552
#
# Static dielectric constant tensor:
#      x y z
#    x 1.648980 0.000000 0.014710 
#    y 0.000000 1.665140 0.000000 
#    z 0.014710 0.000000 1.658590 
# 
# From -- ./inp_files/44386.got.cif
#   From: 2010.05.17/outbox.cif.g08.bks.cpg/sg15_23_cif.got.tgz:44386.got - 2010.06.03 18:47:42.
