data_PCOD9259412
_publ_section_title
;
Structure prediction by ZEFSAII (Michael W. Deem and Ramdas Pophale) SiO2 
 PCOD9259412
Probable space group: C 2/C
;
_chemical_formula_sum "Si O2"
_cell_formula_units_Z 60
_cell_length_a 9.627087
_cell_length_b 20.617084
_cell_length_c 24.364029
_cell_angle_alpha 90.000000
_cell_angle_beta 145.536969
_cell_angle_gamma 90.000000
_cell_volume 2736.473626
_symmetry_space_group_name_H-M "C 2/C"
_symmetry_group_IT_number 15
_symmetry_cell_setting 'monoclinic'
loop_
_space_group_symop_operation_xyz
x,y,z
-x,y,1/2-z
-x,-y,-z
x,-y,1/2+z
1/2+x,1/2+y,z
1/2-x,1/2+y,1/2-z
1/2-x,1/2-y,-z
1/2+x,1/2-y,1/2+z
loop_
_atom_site_type_symbol
_atom_site_label
_atom_site_fract_x
_atom_site_fract_y
_atom_site_fract_z
Si Si1 0.200608 0.843614 0.894470
Si Si2 0.239525 0.482368 0.636756
Si Si3 0.185788 0.673240 0.618356
Si Si4 0.943595 0.080966 0.628091
Si Si5 0.500000 0.764726 0.250000
Si Si6 0.986348 0.202413 0.064523
Si Si7 0.036579 0.434709 0.158054
Si Si8 0.384382 0.635592 0.917688
O O1 0.231785 0.907839 0.869016
O O2 0.058366 0.785039 0.818320
O O3 0.047300 0.852962 0.900844
O O4 0.477137 0.826453 0.002573
O O5 0.500000 0.501541 0.750000
O O6 0.249905 0.527511 0.585861
O O7 0.040684 0.506008 0.616254
O O8 0.409950 0.639197 0.661048
O O9 0.082414 0.627843 0.633264
O O10 0.207353 0.747191 0.643783
O O11 0.224137 0.057483 0.725737
O O12 0.915657 0.104900 0.557223
O O13 0.270588 0.814058 0.171050
O O14 0.750000 0.250000 0.000000
O O15 0.981076 0.173585 0.002276
O O16 0.801547 0.417818 0.117648
#
# Coordination Sequence:
#
# PCOD9259412 Si02
#       8
#     8   8   8   8   4   8   8   8
#     4  11  20  36  60  81 111 147 190 229 270 348
#     4   9  20  37  56  83 109 144 188 239 274 317
#     4  10  19  35  54  84 115 143 183 230 287 314
#     4  10  22  33  56  85 112 144 190 234 272 325
#     4  12  20  32  60  88 102 144 192 220 272 342
#     4  10  19  34  54  79 114 143 176 232 279 325
#     4  10  18  35  57  80 110 148 189 232 272 320
#     4  12  20  36  57  87 109 145 190 228 281 336
#
# _framework density 21.926029
#
# number of rings (size 3 to 8) (size 9 to 14) (size 15 to 20)
#    0.000    1.600    7.333    1.200    0.000    2.667 
#    0.000    0.667    0.000    0.000    3.467    0.000 
#    0.000    0.000    0.000    0.000    0.000    0.000 
#
# Total GULP energy -167259.407346 kJ/mol
# GULP energy per Si atom -5575.313578 kJ/mol
# Density = 2.187612 g / cm^3
# Si number density = 21.926029 Si / 1000 Ang^3
#
#
#
# Elastic Constant Matrix: (Units=GPa)
#
#
# Indices 1 2 3 4 5 6 
#
# 1 117.4992 43.6578 6.0159 -0.0002 -12.3311 0.0000
# 2 43.6578 98.4105 9.1229 -0.0001 -1.8211 -0.0001
# 3 6.0159 9.1229 51.3460 0.0000 -12.2764 0.0004
# 4 -0.0002 -0.0001 0.0000 30.3993 0.0000 -7.4176
# 5 -12.3311 -1.8211 -12.2764 0.0000 26.1356 0.0002
# 6 0.0000 -0.0001 0.0004 -7.4176 0.0002 30.2708
#
#
#
# Elastic Compliance Matrix: (Units=1/GPa)
#
#
# Indices 1 2 3 4 5 6 
#
# 1 0.010777 -0.004761 0.000811 0.000000 0.005134 0.000000
# 2 -0.004761 0.012436 -0.002232 0.000000 -0.002428 0.000000
# 3 0.000811 -0.002232 0.022341 0.000000 0.010721 0.000000
# 4 0.000000 0.000000 0.000000 0.034987 0.000000 0.008573
# 5 0.005134 -0.002428 0.010721 0.000000 0.045551 0.000000
# 6 0.000000 0.000000 0.000000 0.008573 0.000000 0.035136
#
#
# Mechanical properties :
#
#
# Convention : Reuss Voigt Hill
#
# Bulk Modulus (GPa) = 30.13150 42.76098 36.44624
# Shear Modulus (GPa) = 27.07744 31.25842 29.16793
#
# Velocity S-wave (km/s) = 3.51799 3.77985 3.65127
# Velocity P-wave (km/s) = 5.50217 6.21244 5.86806
#
# Compressibility (1/GPa) = 0.03318786
#
# Stress axis : x y z
#
# Youngs Moduli (GPa) = 92.79008 80.41360 44.76158
#
# Poissons Ratio (x) = 0.38286 -0.03629
# Poissons Ratio (y) = 0.44179 0.09992
# Poissons Ratio (z) = -0.07523 0.17951
#
# Static dielectric constant tensor:
#      x y z
#    x 1.839100 0.000000 -0.014120 
#    y 0.000000 1.868670 0.000000 
#    z -0.014120 0.000000 1.898270 
# 
# From -- ./inp_files/266260.got.cif
#   From: 2010.05.17/outbox.cif.g08.bks.cpg/sg15_134_cif.got.tgz:266260.got - 2010.06.03 18:47:42.
