data_PCOD9259378
_publ_section_title
;
Structure prediction by ZEFSAII (Michael W. Deem and Ramdas Pophale) SiO2 
 PCOD9259378
Probable space group: C 2/C
;
_chemical_formula_sum "Si O2"
_cell_formula_units_Z 56
_cell_length_a 12.407095
_cell_length_b 24.906134
_cell_length_c 12.008517
_cell_angle_alpha 90.000000
_cell_angle_beta 40.029125
_cell_angle_gamma 90.000000
_cell_volume 2386.691366
_symmetry_space_group_name_H-M "C 2/C"
_symmetry_group_IT_number 15
_symmetry_cell_setting 'monoclinic'
loop_
_space_group_symop_operation_xyz
x,y,z
-x,y,1/2-z
-x,-y,-z
x,-y,1/2+z
1/2+x,1/2+y,z
1/2-x,1/2+y,1/2-z
1/2-x,1/2-y,-z
1/2+x,1/2-y,1/2+z
loop_
_atom_site_type_symbol
_atom_site_label
_atom_site_fract_x
_atom_site_fract_y
_atom_site_fract_z
Si Si1 0.042590 0.261155 0.414742
Si Si2 0.000000 0.615700 0.750000
Si Si3 0.599998 0.151502 0.020636
Si Si4 0.368833 0.023745 0.695795
Si Si5 0.000000 0.443300 0.750000
Si Si6 0.599412 0.399610 0.359457
Si Si7 0.874739 0.817833 0.449035
Si Si8 0.202309 0.181716 0.949458
O O1 0.982478 0.311509 0.538246
O O2 0.097093 0.218245 0.465327
O O3 0.195331 0.286490 0.227141
O O4 0.927158 0.228286 0.420638
O O5 0.054334 0.578097 0.809633
O O6 0.153205 0.654136 0.592818
O O7 0.531155 0.097002 0.124412
O O8 0.761818 0.132160 0.822925
O O9 0.686540 0.183949 0.053087
O O10 0.183873 0.041585 0.799913
O O11 0.500000 0.000000 0.500000
O O12 0.362505 0.983325 0.806041
O O13 0.426459 0.379767 0.440688
O O14 0.605985 0.369784 0.473752
O O15 0.000000 0.801299 0.250000
#
# Coordination Sequence:
#
# PCOD9259378 Si02
#       8
#     8   4   8   8   4   8   8   8
#     4  10  20  32  51  76 113 150 183 215 270 329
#     4   9  20  36  56  78 108 140 190 231 274 334
#     4  10  19  29  46  78 109 133 174 227 262 321
#     4  10  18  35  56  77 100 136 182 236 277 325
#     4  11  22  28  50  82 102 128 174 229 280 306
#     4   8  16  34  51  69 102 138 177 219 272 324
#     4   9  18  31  49  73 106 146 176 213 273 328
#     4   9  19  34  52  78 104 151 182 219 267 325
#
# _framework density 23.463443999999999
#
# number of rings (size 3 to 8) (size 9 to 14) (size 15 to 20)
#    0.000    2.571    1.429    1.286    3.000    0.571 
#    0.000    0.714    0.000    0.000    0.000    0.000 
#    0.000    0.000    0.000    0.000    0.000    0.000 
#
# Total GULP energy -155924.483154 kJ/mol
# GULP energy per Si atom -5568.731541 kJ/mol
# Density = 2.341004 g / cm^3
# Si number density = 23.463444 Si / 1000 Ang^3
#
#
#
# Elastic Constant Matrix: (Units=GPa)
#
#
# Indices 1 2 3 4 5 6 
#
# 1 95.2426 43.7433 18.7048 0.0000 2.9195 0.0000
# 2 43.7433 119.6043 25.4061 0.0000 1.5950 0.0000
# 3 18.7048 25.4061 39.3390 0.0000 5.9250 0.0000
# 4 0.0000 0.0000 0.0000 23.2540 0.0000 -7.6680
# 5 2.9195 1.5950 5.9250 0.0000 19.9053 0.0000
# 6 0.0000 0.0000 0.0000 -7.6680 0.0000 29.6114
#
#
#
# Elastic Compliance Matrix: (Units=1/GPa)
#
#
# Indices 1 2 3 4 5 6 
#
# 1 0.013055 -0.004017 -0.003531 0.000000 -0.000542 0.000000
# 2 -0.004017 0.010951 -0.005359 0.000000 0.001307 0.000000
# 3 -0.003531 -0.005359 0.031845 0.000000 -0.008532 0.000000
# 4 0.000000 0.000000 0.000000 0.047018 0.000000 0.012176
# 5 -0.000542 0.001307 -0.008532 0.000000 0.052752 0.000000
# 6 0.000000 0.000000 0.000000 0.012176 0.000000 0.036924
#
#
# Mechanical properties :
#
#
# Convention : Reuss Voigt Hill
#
# Bulk Modulus (GPa) = 33.29375 47.76602 40.52989
# Shear Modulus (GPa) = 21.89411 25.64294 23.76852
#
# Velocity S-wave (km/s) = 3.05801 3.30947 3.18622
# Velocity P-wave (km/s) = 5.16614 5.91653 5.55402
#
# Compressibility (1/GPa) = 0.03003567
#
# Stress axis : x y z
#
# Youngs Moduli (GPa) = 76.60120 91.31505 31.40197
#
# Poissons Ratio (x) = 0.36683 0.11089
# Poissons Ratio (y) = 0.30772 0.16829
# Poissons Ratio (z) = 0.27049 0.48938
#
# Static dielectric constant tensor:
#      x y z
#    x 1.989970 0.000000 0.005070 
#    y 0.000000 1.953970 0.000000 
#    z 0.005070 0.000000 1.948010 
# 
# From -- ./inp_files/156201.got.cif
#   From: 2010.05.17/outbox.cif.g08.bks.cpg/sg15_79_cif.got.tgz:156201.got - 2010.06.03 18:47:42.
