data_PCOD9259477
_publ_section_title
;
Structure prediction by ZEFSAII (Michael W. Deem and Ramdas Pophale) SiO2 
 PCOD9259477
Probable space group: C 2/C
;
_chemical_formula_sum "Si O2"
_cell_formula_units_Z 56
_cell_length_a 15.380973
_cell_length_b 18.593048
_cell_length_c 11.696646
_cell_angle_alpha 90.000000
_cell_angle_beta 68.238977
_cell_angle_gamma 90.000000
_cell_volume 3106.626742
_symmetry_space_group_name_H-M "C 2/C"
_symmetry_group_IT_number 15
_symmetry_cell_setting 'monoclinic'
loop_
_space_group_symop_operation_xyz
x,y,z
-x,y,1/2-z
-x,-y,-z
x,-y,1/2+z
1/2+x,1/2+y,z
1/2-x,1/2+y,1/2-z
1/2-x,1/2-y,-z
1/2+x,1/2-y,1/2+z
loop_
_atom_site_type_symbol
_atom_site_label
_atom_site_fract_x
_atom_site_fract_y
_atom_site_fract_z
Si Si1 0.114213 0.796167 0.095770
Si Si2 0.763679 0.676942 0.922119
Si Si3 0.811173 0.642018 0.452305
Si Si4 0.600196 0.965679 0.761186
Si Si5 0.588575 0.697965 0.874356
Si Si6 0.381835 0.125110 0.669687
Si Si7 0.411079 0.859093 0.524606
O O1 0.119093 0.709481 0.099206
O O2 0.113759 0.816832 0.229700
O O3 0.021908 0.818371 0.071500
O O4 0.207148 0.826562 0.992788
O O5 0.661373 0.657483 0.922074
O O6 0.830179 0.681902 0.777537
O O7 0.750000 0.750000 0.000000
O O8 0.823701 0.630157 0.981907
O O9 0.831579 0.579501 0.353452
O O10 0.831429 0.620127 0.572222
O O11 0.500000 0.965629 0.750000
O O12 0.587956 0.923257 0.885636
O O13 0.628401 0.047390 0.767867
O O14 0.598339 0.782667 0.904040
O O15 0.491164 0.141685 0.592955
#
# Coordination Sequence:
#
# PCOD9259477 Si02
#       7
#     8   8   8   8   8   8   8
#     4  10  19  35  61  85 113 145 197 248 284 329
#     4  10  23  37  55  83 121 155 188 235 299 345
#     4  11  22  36  59  88 116 149 198 240 290 339
#     4  12  23  36  58  86 121 160 194 232 284 353
#     4  10  18  35  58  86 112 148 191 245 288 331
#     4  12  23  37  56  87 122 156 188 230 293 356
#     4  11  21  37  56  85 124 157 186 232 288 357
#
# _framework density 18.025983
#
# number of rings (size 3 to 8) (size 9 to 14) (size 15 to 20)
#    0.000    1.143    5.714    1.714    2.000    0.000 
#    0.000    0.000    0.000    0.857    3.714    0.000 
#    0.000    0.000    0.000    0.000    0.000    0.000 
#
# Total GULP energy -156167.512897 kJ/mol
# GULP energy per Si atom -5577.411175 kJ/mol
# Density = 1.798495 g / cm^3
# Si number density = 18.025983 Si / 1000 Ang^3
#
#
#
# Elastic Constant Matrix: (Units=GPa)
#
#
# Indices 1 2 3 4 5 6 
#
# 1 143.6039 11.7989 32.0918 0.0000 20.0324 0.0000
# 2 11.7989 39.0442 22.9993 0.0000 -2.9328 0.0000
# 3 32.0918 22.9993 83.5224 0.0000 2.5042 0.0000
# 4 0.0000 0.0000 0.0000 1.6662 0.0000 -2.7746
# 5 20.0324 -2.9328 2.5042 0.0000 29.9922 0.0000
# 6 0.0000 0.0000 0.0000 -2.7746 0.0000 10.2201
#
#
#
# Elastic Compliance Matrix: (Units=1/GPa)
#
#
# Indices 1 2 3 4 5 6 
#
# 1 0.008456 -0.001381 -0.002702 0.000000 -0.005558 0.000000
# 2 -0.001381 0.031212 -0.008204 0.000000 0.004660 0.000000
# 3 -0.002702 -0.008204 0.015278 0.000000 -0.000273 0.000000
# 4 0.000000 0.000000 0.000000 1.095409 0.000000 0.297388
# 5 -0.005558 0.004660 -0.000273 0.000000 0.037532 0.000000
# 6 0.000000 0.000000 0.000000 0.297388 0.000000 0.178583
#
#
# Mechanical properties :
#
#
# Convention : Reuss Voigt Hill
#
# Bulk Modulus (GPa) = 32.92477 44.43895 38.68186
# Shear Modulus (GPa) = 3.56845 21.66107 12.61476
#
# Velocity S-wave (km/s) = 1.40851 3.47026 2.64826
# Velocity P-wave (km/s) = 4.57712 6.38460 5.55487
#
# Compressibility (1/GPa) = 0.03037227
#
# Stress axis : x y z
#
# Youngs Moduli (GPa) = 118.25633 32.03918 65.45225
#
# Poissons Ratio (x) = 0.04425 0.17686
# Poissons Ratio (y) = 0.16332 0.53695
# Poissons Ratio (z) = 0.31955 0.26284
#
# Static dielectric constant tensor:
#      x y z
#    x 1.636760 0.000000 -0.007010 
#    y 0.000000 1.600250 0.000000 
#    z -0.007010 0.000000 1.638760 
# 
# From -- ./inp_files/98237.got.cif
#   From: 2010.05.17/outbox.cif.g08.bks.cpg/sg15_50_cif.got.tgz:98237.got - 2010.06.03 18:47:42.
