data_PCOD9259061
_publ_section_title
;
Structure prediction by ZEFSAII (Michael W. Deem and Ramdas Pophale) SiO2 
 PCOD9259061
Probable space group: C 2/C
;
_chemical_formula_sum "Si O2"
_cell_formula_units_Z 40
_cell_length_a 21.170677
_cell_length_b 7.797419
_cell_length_c 13.817746
_cell_angle_alpha 90.000000
_cell_angle_beta 122.253110
_cell_angle_gamma 90.000000
_cell_volume 1929.028155
_symmetry_space_group_name_H-M "C 2/C"
_symmetry_group_IT_number 15
_symmetry_cell_setting 'monoclinic'
loop_
_space_group_symop_operation_xyz
x,y,z
-x,y,1/2-z
-x,-y,-z
x,-y,1/2+z
1/2+x,1/2+y,z
1/2-x,1/2+y,1/2-z
1/2-x,1/2-y,-z
1/2+x,1/2-y,1/2+z
loop_
_atom_site_type_symbol
_atom_site_label
_atom_site_fract_x
_atom_site_fract_y
_atom_site_fract_z
Si Si1 0.146777 0.079666 0.631152
Si Si2 0.345304 0.084754 0.097196
Si Si3 0.076171 0.914321 0.265787
Si Si4 0.224272 0.249379 0.138615
Si Si5 0.838460 0.787972 0.569738
O O1 0.080907 0.107212 0.654491
O O2 0.220963 0.164244 0.739623
O O3 0.136355 0.162148 0.517756
O O4 0.163671 0.878360 0.633019
O O5 0.403975 0.233287 0.168898
O O6 0.276467 0.129202 0.112779
O O7 0.373141 0.892107 0.131981
O O8 0.314528 0.113907 0.963611
O O9 0.000000 0.978425 0.250000
O O10 0.139879 0.051256 0.346432
O O11 0.750000 0.750000 0.500000
#
# Coordination Sequence:
#
# PCOD9259061 Si02
#       5
#     8   8   8   8   8
#     4  11  21  35  65  94 122 165 207 258 322 366
#     4  10  20  38  60  86 129 157 197 264 313 363
#     4  11  26  44  59  89 135 173 210 254 309 385
#     4  10  18  34  58  97 121 150 204 262 315 362
#     4  12  21  41  68  97 124 160 214 272 317 364
#
# _framework density 20.735828999999999
#
# number of rings (size 3 to 8) (size 9 to 14) (size 15 to 20)
#    0.000    1.200    4.000    4.800    0.000    1.600 
#    0.000    1.000    0.000    0.000    0.000    0.000 
#    0.000    0.000    0.000    0.000    0.000    0.000 
#
# Total GULP energy -111794.611643 kJ/mol
# GULP energy per Si atom -5589.730582 kJ/mol
# Density = 2.068863 g / cm^3
# Si number density = 20.735829 Si / 1000 Ang^3
#
#
#
# Elastic Constant Matrix: (Units=GPa)
#
#
# Indices 1 2 3 4 5 6 
#
# 1 67.9718 -3.7783 1.1651 0.0000 -8.5808 0.0000
# 2 -3.7783 110.3645 9.7569 0.0000 -1.9134 0.0000
# 3 1.1651 9.7569 50.8271 0.0000 -25.7904 0.0000
# 4 0.0000 0.0000 0.0000 20.6652 0.0000 -4.6052
# 5 -8.5808 -1.9134 -25.7904 0.0000 23.0706 0.0000
# 6 0.0000 0.0000 0.0000 -4.6052 0.0000 15.6131
#
#
#
# Elastic Compliance Matrix: (Units=1/GPa)
#
#
# Indices 1 2 3 4 5 6 
#
# 1 0.016253 0.000237 0.006145 0.000000 0.012934 0.000000
# 2 0.000237 0.009300 -0.003130 0.000000 -0.002639 0.000000
# 3 0.006145 -0.003130 0.048900 0.000000 0.056691 0.000000
# 4 0.000000 0.000000 0.000000 0.051795 0.000000 0.015277
# 5 0.012934 -0.002639 0.056691 0.000000 0.111311 0.000000
# 6 0.000000 0.000000 0.000000 0.015277 0.000000 0.068555
#
#
# Mechanical properties :
#
#
# Convention : Reuss Voigt Hill
#
# Bulk Modulus (GPa) = 12.35222 27.05008 19.70115
# Shear Modulus (GPa) = 15.30947 26.67110 20.99028
#
# Velocity S-wave (km/s) = 2.72013 3.59030 3.18507
# Velocity P-wave (km/s) = 3.97937 5.50095 4.80082
#
# Compressibility (1/GPa) = 0.08095713
#
# Stress axis : x y z
#
# Youngs Moduli (GPa) = 61.52861 107.52737 20.44975
#
# Poissons Ratio (x) = -0.02553 -0.12566
# Poissons Ratio (y) = -0.01461 0.06401
# Poissons Ratio (z) = -0.37807 0.33655
#
# Static dielectric constant tensor:
#      x y z
#    x 1.768380 0.000000 -0.000960 
#    y 0.000000 1.756600 0.000000 
#    z -0.000960 0.000000 1.746720 
# 
# From -- ./inp_files/109757.got.cif
#   From: 2010.05.17/outbox.cif.g08.bks.cpg/sg15_55_cif.got.tgz:109757.got - 2010.06.03 18:47:42.
