data_PCOD9259623
_publ_section_title
;
Structure prediction by ZEFSAII (Michael W. Deem and Ramdas Pophale) SiO2 
 PCOD9259623
Probable space group: C 2/C
;
_chemical_formula_sum "Si O2"
_cell_formula_units_Z 44
_cell_length_a 11.322195
_cell_length_b 27.031153
_cell_length_c 8.050922
_cell_angle_alpha 90.000000
_cell_angle_beta 130.161152
_cell_angle_gamma 90.000000
_cell_volume 1883.071825
_symmetry_space_group_name_H-M "C 2/C"
_symmetry_group_IT_number 15
_symmetry_cell_setting 'monoclinic'
loop_
_space_group_symop_operation_xyz
x,y,z
-x,y,1/2-z
-x,-y,-z
x,-y,1/2+z
1/2+x,1/2+y,z
1/2-x,1/2+y,1/2-z
1/2-x,1/2-y,-z
1/2+x,1/2-y,1/2+z
loop_
_atom_site_type_symbol
_atom_site_label
_atom_site_fract_x
_atom_site_fract_y
_atom_site_fract_z
Si Si1 0.840802 0.526944 0.926169
Si Si2 0.679310 0.673484 0.443941
Si Si3 0.500000 0.111346 0.250000
Si Si4 0.689936 0.930059 0.432964
Si Si5 0.634295 0.200187 0.197660
Si Si6 0.364021 0.692971 0.720755
O O1 0.761768 0.555286 0.707122
O O2 0.762898 0.478398 0.923284
O O3 0.000000 0.500000 0.000000
O O4 0.870945 0.570890 0.084921
O O5 0.500000 0.684025 0.250000
O O6 0.724214 0.618146 0.431273
O O7 0.781845 0.703508 0.404171
O O8 0.707155 0.676063 0.668052
O O9 0.539104 0.149170 0.135261
O O10 0.500000 0.923065 0.250000
O O11 0.560216 0.254266 0.152354
O O12 0.741883 0.197358 0.460426
O O13 0.500000 0.663379 0.750000
#
# Coordination Sequence:
#
# PCOD9259623 Si02
#       6
#     8   8   4   8   8   8
#     4  10  18  35  61  92 129 158 213 285 327 371
#     4  12  25  43  67  97 137 182 217 267 334 404
#     4  12  20  36  70 102 124 172 222 276 340 378
#     4  10  21  39  62  96 125 167 219 275 330 383
#     4  11  24  41  70  96 133 172 222 274 329 396
#     4  11  23  46  63  96 134 176 221 270 327 396
#
# _framework density 23.366074999999999
#
# number of rings (size 3 to 8) (size 9 to 14) (size 15 to 20)
#    0.000    1.091    5.455    3.818    0.000    0.000 
#    0.000    0.909    0.000    0.000    0.000    0.000 
#    0.000    0.000    0.000    0.000    0.000    0.000 
#
# Total GULP energy -122499.211043 kJ/mol
# GULP energy per Si atom -5568.145956 kJ/mol
# Density = 2.331289 g / cm^3
# Si number density = 23.366075 Si / 1000 Ang^3
#
#
#
# Elastic Constant Matrix: (Units=GPa)
#
#
# Indices 1 2 3 4 5 6 
#
# 1 111.9400 20.9238 18.5565 0.0000 -38.3955 0.0000
# 2 20.9238 93.5823 -15.5133 0.0000 -9.4756 0.0000
# 3 18.5565 -15.5133 55.2795 0.0000 -27.8121 0.0000
# 4 0.0000 0.0000 0.0000 13.9432 0.0000 12.3320
# 5 -38.3955 -9.4756 -27.8121 0.0000 34.2332 0.0000
# 6 0.0000 0.0000 0.0000 12.3320 0.0000 -3.8819
#
#
#
# Elastic Compliance Matrix: (Units=1/GPa)
#
#
# Indices 1 2 3 4 5 6 
#
# 1 0.015633 -0.000277 0.005847 0.000000 0.022208 0.000000
# 2 -0.000277 0.013432 0.009432 0.000000 0.011070 0.000000
# 3 0.005847 0.009432 0.039555 0.000000 0.041305 0.000000
# 4 0.000000 0.000000 0.000000 0.018825 0.000000 0.059805
# 5 0.022208 0.011070 0.041305 0.000000 0.090740 0.000000
# 6 0.000000 0.000000 0.000000 0.059805 0.000000 -0.067619
#
#
# Mechanical properties :
#
#
# Convention : Reuss Voigt Hill
#
# Bulk Modulus (GPa) = 10.13948 34.30398 22.22173
# Shear Modulus (GPa) = 44.07676 24.64791 34.36233
#
# Velocity S-wave (km/s) = 4.34793 3.25138 3.83901
# Velocity P-wave (km/s) = 5.43644 5.36734 5.40200
#
# Compressibility (1/GPa) = 0.09862435
#
# Stress axis : x y z
#
# Youngs Moduli (GPa) = 63.96670 74.44798 25.28123
#
# Poissons Ratio (x) = 0.02065 -0.14783
# Poissons Ratio (y) = 0.01775 -0.23845
# Poissons Ratio (z) = -0.37404 -0.70219
#
# Static dielectric constant tensor:
#      x y z
#    x 2.195320 0.000000 -0.049340 
#    y 0.000000 1.951920 0.000000 
#    z -0.049340 0.000000 1.939360 
# 
# From -- ./inp_files/32711.got.cif
#   From: 2010.05.17/outbox.cif.g08.bks.cpg/sg15_17_cif.got.tgz:32711.got - 2010.06.03 18:47:42.
