data_PCOD9259005
_publ_section_title
;
Structure prediction by ZEFSAII (Michael W. Deem and Ramdas Pophale) SiO2 
 PCOD9259005
Probable space group: C 2/C
;
_chemical_formula_sum "Si O2"
_cell_formula_units_Z 40
_cell_length_a 8.159162
_cell_length_b 16.876235
_cell_length_c 18.619982
_cell_angle_alpha 90.000000
_cell_angle_beta 43.452881
_cell_angle_gamma 90.000000
_cell_volume 1763.339382
_symmetry_space_group_name_H-M "C 2/C"
_symmetry_group_IT_number 15
_symmetry_cell_setting 'monoclinic'
loop_
_space_group_symop_operation_xyz
x,y,z
-x,y,1/2-z
-x,-y,-z
x,-y,1/2+z
1/2+x,1/2+y,z
1/2-x,1/2+y,1/2-z
1/2-x,1/2-y,-z
1/2+x,1/2-y,1/2+z
loop_
_atom_site_type_symbol
_atom_site_label
_atom_site_fract_x
_atom_site_fract_y
_atom_site_fract_z
Si Si1 0.460246 0.409436 0.098354
Si Si2 0.325316 0.866636 0.492969
Si Si3 0.267097 0.757496 0.371732
Si Si4 0.393570 0.987585 0.888876
Si Si5 0.589674 0.551281 0.299646
O O1 0.392614 0.318507 0.122356
O O2 0.248740 0.457093 0.122780
O O3 0.473130 0.459255 0.166574
O O4 0.702056 0.426308 0.979463
O O5 0.341511 0.807909 0.419756
O O6 0.373559 0.817071 0.549893
O O7 0.459777 0.947668 0.429826
O O8 0.054426 0.897963 0.595282
O O9 0.500000 0.740205 0.250000
O O10 0.626974 0.944013 0.787604
O O11 0.500000 0.573110 0.250000
#
# Coordination Sequence:
#
# PCOD9259005 Si02
#       5
#     8   8   8   8   8
#     4   9  18  32  56  85 111 153 199 244 292 347
#     4   9  20  34  56  87 115 155 196 238 297 357
#     4  10  18  34  58  83 117 154 195 239 295 359
#     4   9  18  35  56  82 116 149 200 250 286 342
#     4  11  21  34  57  88 123 156 196 248 301 348
#
# _framework density 22.684229999999999
#
# number of rings (size 3 to 8) (size 9 to 14) (size 15 to 20)
#    0.000    2.400    0.000    4.800    0.000    3.200 
#    0.000    0.000    0.000   18.000    0.000    0.000 
#    0.000    0.000    0.000    0.000    0.000    0.000 
#
# Total GULP energy -111568.624373 kJ/mol
# GULP energy per Si atom -5578.431219 kJ/mol
# Density = 2.263260 g / cm^3
# Si number density = 22.684230 Si / 1000 Ang^3
#
#
#
# Elastic Constant Matrix: (Units=GPa)
#
#
# Indices 1 2 3 4 5 6 
#
# 1 47.2891 17.2965 34.7280 0.0020 4.5103 -0.0009
# 2 17.2965 92.8460 19.0692 0.0012 10.7697 -0.0007
# 3 34.7280 19.0692 128.6180 0.0016 3.4990 -0.0013
# 4 0.0020 0.0012 0.0016 22.1937 -0.0019 4.4650
# 5 4.5103 10.7697 3.4990 -0.0019 34.7950 0.0011
# 6 -0.0009 -0.0007 -0.0013 4.4650 0.0011 19.8446
#
#
#
# Elastic Compliance Matrix: (Units=1/GPa)
#
#
# Indices 1 2 3 4 5 6 
#
# 1 0.027677 -0.003530 -0.006901 -0.000002 -0.001801 0.000001
# 2 -0.003530 0.011946 -0.000732 -0.000001 -0.003166 0.000001
# 3 -0.006901 -0.000732 0.009743 0.000000 0.000141 0.000000
# 4 -0.000002 -0.000001 0.000000 0.047194 0.000003 -0.010619
# 5 -0.001801 -0.003166 0.000141 0.000003 0.029939 -0.000003
# 6 0.000001 0.000001 0.000000 -0.010619 -0.000003 0.052781
#
#
# Mechanical properties :
#
#
# Convention : Reuss Voigt Hill
#
# Bulk Modulus (GPa) = 36.98108 45.66005 41.32056
# Shear Modulus (GPa) = 23.73967 28.54396 26.14181
#
# Velocity S-wave (km/s) = 3.23852 3.55113 3.39842
# Velocity P-wave (km/s) = 5.50654 6.08163 5.80121
#
# Compressibility (1/GPa) = 0.02704086
#
# Stress axis : x y z
#
# Youngs Moduli (GPa) = 36.13098 83.71223 102.63901
#
# Poissons Ratio (x) = 0.29549 0.70828
# Poissons Ratio (y) = 0.12753 0.07512
# Poissons Ratio (z) = 0.24933 0.06127
#
# Static dielectric constant tensor:
#      x y z
#    x 1.906020 0.000000 0.052650 
#    y 0.000000 1.892320 0.000000 
#    z 0.052650 0.000000 1.857960 
# 
# From -- ./inp_files/76701.got.cif
#   From: 2010.05.17/outbox.cif.g08.bks.cpg/sg15_39_cif.got.tgz:76701.got - 2010.06.03 18:47:42.
