data_PCOD9259892
_publ_section_title
;
Structure prediction by ZEFSAII (Michael W. Deem and Ramdas Pophale) SiO2 
 PCOD9259892
Probable space group: C 2/C
;
_chemical_formula_sum "Si O2"
_cell_formula_units_Z 60
_cell_length_a 8.568446
_cell_length_b 21.422460
_cell_length_c 19.181163
_cell_angle_alpha 90.000000
_cell_angle_beta 57.269923
_cell_angle_gamma 90.000000
_cell_volume 2961.826268
_symmetry_space_group_name_H-M "C 2/C"
_symmetry_group_IT_number 15
_symmetry_cell_setting 'monoclinic'
loop_
_space_group_symop_operation_xyz
x,y,z
-x,y,1/2-z
-x,-y,-z
x,-y,1/2+z
1/2+x,1/2+y,z
1/2-x,1/2+y,1/2-z
1/2-x,1/2-y,-z
1/2+x,1/2-y,1/2+z
loop_
_atom_site_type_symbol
_atom_site_label
_atom_site_fract_x
_atom_site_fract_y
_atom_site_fract_z
Si Si1 0.282087 0.550641 0.612539
Si Si2 0.721364 0.462939 0.771788
Si Si3 0.908776 0.312222 0.909920
Si Si4 0.810478 0.354230 0.473099
Si Si5 0.774589 0.957284 0.890595
Si Si6 0.280634 0.559561 0.998834
Si Si7 0.486594 0.257082 0.523444
Si Si8 0.000000 0.634439 0.250000
O O1 0.230761 0.528016 0.701972
O O2 0.171217 0.603850 0.599799
O O3 0.498429 0.571750 0.560476
O O4 0.266480 0.489913 0.565784
O O5 0.499839 0.455311 0.832555
O O6 0.784518 0.457930 0.676080
O O7 0.821991 0.410134 0.792583
O O8 0.724413 0.277941 0.927349
O O9 0.022769 0.326928 0.814064
O O10 0.833606 0.377292 0.961474
O O11 0.017920 0.269410 0.937784
O O12 0.790869 0.399916 0.544959
O O13 0.622711 0.312761 0.512057
O O14 0.971148 0.303447 0.440736
O O15 0.722348 0.020729 0.944116
#
# Coordination Sequence:
#
# PCOD9259892 Si02
#       8
#     8   8   8   8   8   8   8   4
#     4   9  16  31  59  83 113 143 181 227 293 334
#     4  10  19  33  52  91 116 148 175 229 300 339
#     4  11  21  38  56  87 110 148 191 240 273 336
#     4  10  18  36  58  86 107 151 194 238 269 336
#     4   9  19  34  60  87 113 144 191 232 287 340
#     4   9  16  32  57  84 108 145 182 232 281 336
#     4  10  22  35  59  81 113 150 202 225 272 328
#     4  12  22  34  58  82 122 138 180 246 290 326
#
# _framework density 20.257771000000002
#
# number of rings (size 3 to 8) (size 9 to 14) (size 15 to 20)
#    0.000    2.133    2.667    2.400    0.000    0.000 
#    2.400    2.000    5.867    0.000    0.000    0.000 
#    0.000    0.000    0.000    0.000    0.000    0.000 
#
# Total GULP energy -167460.065313 kJ/mol
# GULP energy per Si atom -5582.002177 kJ/mol
# Density = 2.021166 g / cm^3
# Si number density = 20.257771 Si / 1000 Ang^3
#
#
#
# Elastic Constant Matrix: (Units=GPa)
#
#
# Indices 1 2 3 4 5 6 
#
# 1 61.7875 23.9350 9.6471 0.0000 12.5375 0.0000
# 2 23.9350 95.6802 38.1868 0.0000 11.2470 0.0000
# 3 9.6471 38.1868 62.7343 0.0000 16.9273 0.0000
# 4 0.0000 0.0000 0.0000 30.2609 0.0000 12.4696
# 5 12.5375 11.2470 16.9273 0.0000 18.8597 0.0000
# 6 0.0000 0.0000 0.0000 12.4696 0.0000 24.5283
#
#
#
# Elastic Compliance Matrix: (Units=1/GPa)
#
#
# Indices 1 2 3 4 5 6 
#
# 1 0.020320 -0.004887 0.003574 0.000000 -0.013802 0.000000
# 2 -0.004887 0.014993 -0.009024 0.000000 0.002408 0.000000
# 3 0.003574 -0.009024 0.026488 0.000000 -0.020768 0.000000
# 4 0.000000 0.000000 0.000000 0.041803 0.000000 -0.021252
# 5 -0.013802 0.002408 -0.020768 0.000000 0.079403 0.000000
# 6 0.000000 0.000000 0.000000 -0.021252 0.000000 0.051573
#
#
# Mechanical properties :
#
#
# Convention : Reuss Voigt Hill
#
# Bulk Modulus (GPa) = 24.31565 40.41553 32.36559
# Shear Modulus (GPa) = 18.58992 24.62531 21.60762
#
# Velocity S-wave (km/s) = 3.03259 3.49033 3.26948
# Velocity P-wave (km/s) = 4.92862 6.01973 5.50129
#
# Compressibility (1/GPa) = 0.04112577
#
# Stress axis : x y z
#
# Youngs Moduli (GPa) = 49.21191 66.69892 37.75364
#
# Poissons Ratio (x) = 0.32598 -0.13494
# Poissons Ratio (y) = 0.24052 0.34070
# Poissons Ratio (z) = -0.17590 0.60191
#
# Static dielectric constant tensor:
#      x y z
#    x 1.750930 0.000000 0.018350 
#    y 0.000000 1.723510 0.000000 
#    z 0.018350 0.000000 1.720670 
# 
# From -- ./inp_files/192088.got.cif
#   From: 2010.05.17/outbox.cif.g08.bks.cpg/sg15_97_cif.got.tgz:192088.got - 2010.06.03 18:47:42.
