data_PCOD9259077
_publ_section_title
;
Structure prediction by ZEFSAII (Michael W. Deem and Ramdas Pophale) SiO2 
 PCOD9259077
Probable space group: C 2/C
;
_chemical_formula_sum "Si O2"
_cell_formula_units_Z 64
_cell_length_a 10.957714
_cell_length_b 21.049476
_cell_length_c 17.346254
_cell_angle_alpha 90.000000
_cell_angle_beta 127.188640
_cell_angle_gamma 90.000000
_cell_volume 3187.384012
_symmetry_space_group_name_H-M "C 2/C"
_symmetry_group_IT_number 15
_symmetry_cell_setting 'monoclinic'
loop_
_space_group_symop_operation_xyz
x,y,z
-x,y,1/2-z
-x,-y,-z
x,-y,1/2+z
1/2+x,1/2+y,z
1/2-x,1/2+y,1/2-z
1/2-x,1/2-y,-z
1/2+x,1/2-y,1/2+z
loop_
_atom_site_type_symbol
_atom_site_label
_atom_site_fract_x
_atom_site_fract_y
_atom_site_fract_z
Si Si1 0.162997 0.216351 0.778452
Si Si2 0.669789 0.133079 0.279285
Si Si3 0.231755 0.564344 0.967524
Si Si4 0.136003 0.647362 0.535166
Si Si5 0.624740 0.041077 0.650163
Si Si6 0.824157 0.917300 0.982206
Si Si7 0.169022 0.109377 0.654975
Si Si8 0.818204 0.402948 0.887114
O O1 0.153227 0.291326 0.764811
O O2 0.290479 0.205810 0.893145
O O3 0.196558 0.173666 0.715363
O O4 0.000000 0.193273 0.750000
O O5 0.500000 0.110580 0.250000
O O6 0.797539 0.104817 0.384938
O O7 0.729310 0.114458 0.216888
O O8 0.288407 0.492041 0.976818
O O9 0.281431 0.608126 0.915358
O O10 0.047040 0.561137 0.894875
O O11 0.277172 0.588420 0.070745
O O12 0.184757 0.588476 0.607790
O O13 0.205389 0.629212 0.480314
O O14 0.954416 0.645696 0.459807
O O15 0.735683 0.053494 0.764917
O O16 0.615525 0.972897 0.606985
O O17 0.989052 0.904805 0.082084
#
# Coordination Sequence:
#
# PCOD9259077 Si02
#       8
#     8   8   8   8   8   8   8   8
#     4  10  22  38  57  87 119 155 197 246 294 339
#     4  11  23  37  60  87 116 155 205 247 287 339
#     4  11  21  38  60  89 120 157 194 232 292 368
#     4  10  18  34  59  86 115 149 188 238 296 343
#     4  10  19  36  61  87 118 151 191 239 290 356
#     4  12  21  38  58  92 124 148 190 245 301 349
#     4  11  24  37  59  88 124 156 194 237 296 352
#     4  11  20  38  62  86 116 155 196 242 288 348
#
# _framework density 20.079162
#
# number of rings (size 3 to 8) (size 9 to 14) (size 15 to 20)
#    0.000    1.250    5.000    2.250    0.000    1.500 
#    0.000    2.500    0.000    4.500    0.000    0.000 
#    0.000    0.000    0.000    0.000    0.000    0.000 
#
# Total GULP energy -178307.972771 kJ/mol
# GULP energy per Si atom -5572.124149 kJ/mol
# Density = 2.003346 g / cm^3
# Si number density = 20.079162 Si / 1000 Ang^3
#
#
#
# Elastic Constant Matrix: (Units=GPa)
#
#
# Indices 1 2 3 4 5 6 
#
# 1 45.5932 16.1811 15.7759 0.0000 -34.0430 0.0000
# 2 16.1811 38.8578 15.6550 0.0000 -16.0673 0.0000
# 3 15.7759 15.6550 108.8782 0.0000 -31.0230 0.0000
# 4 0.0000 0.0000 0.0000 13.2211 0.0000 -3.9688
# 5 -34.0430 -16.0673 -31.0230 0.0000 45.7127 0.0000
# 6 0.0000 0.0000 0.0000 -3.9688 0.0000 12.2977
#
#
#
# Elastic Compliance Matrix: (Units=1/GPa)
#
#
# Indices 1 2 3 4 5 6 
#
# 1 0.052676 -0.007372 0.004794 0.000000 0.039891 0.000000
# 2 -0.007372 0.031378 -0.002312 0.000000 0.003969 0.000000
# 3 0.004794 -0.002312 0.011911 0.000000 0.010841 0.000000
# 4 0.000000 0.000000 0.000000 0.083750 0.000000 0.027028
# 5 0.039891 0.003969 0.010841 0.000000 0.060336 0.000000
# 6 0.000000 0.000000 0.000000 0.027028 0.000000 0.090039
#
#
# Mechanical properties :
#
#
# Convention : Reuss Voigt Hill
#
# Bulk Modulus (GPa) = 11.60316 32.06147 21.83231
# Shear Modulus (GPa) = 13.56488 23.96078 18.76283
#
# Velocity S-wave (km/s) = 2.60199 3.45819 3.06018
# Velocity P-wave (km/s) = 3.84947 5.65222 4.83560
#
# Compressibility (1/GPa) = 0.08618341
#
# Stress axis : x y z
#
# Youngs Moduli (GPa) = 18.98396 31.86984 83.95306
#
# Poissons Ratio (x) = 0.23495 -0.40245
# Poissons Ratio (y) = 0.13995 0.19414
# Poissons Ratio (z) = -0.09100 0.07370
#
# Static dielectric constant tensor:
#      x y z
#    x 1.765850 0.000000 -0.054490 
#    y 0.000000 1.712130 0.000000 
#    z -0.054490 0.000000 1.804280 
# 
# From -- ./inp_files/200389.got.cif
#   From: 2010.05.17/outbox.cif.g08.bks.cpg/sg15_101_cif.got.tgz:200389.got - 2010.06.03 18:47:42.
