data_PCOD9259199
_publ_section_title
;
Structure prediction by ZEFSAII (Michael W. Deem and Ramdas Pophale) SiO2 
 PCOD9259199
Probable space group: C 2/C
;
_chemical_formula_sum "Si O2"
_cell_formula_units_Z 52
_cell_length_a 17.034389
_cell_length_b 10.693101
_cell_length_c 29.833412
_cell_angle_alpha 90.000000
_cell_angle_beta 151.827971
_cell_angle_gamma 90.000000
_cell_volume 2565.582501
_symmetry_space_group_name_H-M "C 2/C"
_symmetry_group_IT_number 15
_symmetry_cell_setting 'monoclinic'
loop_
_space_group_symop_operation_xyz
x,y,z
-x,y,1/2-z
-x,-y,-z
x,-y,1/2+z
1/2+x,1/2+y,z
1/2-x,1/2+y,1/2-z
1/2-x,1/2-y,-z
1/2+x,1/2-y,1/2+z
loop_
_atom_site_type_symbol
_atom_site_label
_atom_site_fract_x
_atom_site_fract_y
_atom_site_fract_z
Si Si1 0.494233 0.885713 0.062268
Si Si2 0.824054 0.262034 0.107384
Si Si3 0.311565 0.540416 0.896814
Si Si4 0.922394 0.530093 0.802762
Si Si5 0.804137 0.610466 0.919031
Si Si6 0.890394 0.328797 0.652442
Si Si7 0.000000 0.058415 0.250000
O O1 0.603183 0.930067 0.159026
O O2 0.597153 0.827546 0.072702
O O3 0.339811 0.796264 0.998519
O O4 0.415531 0.011960 0.001954
O O5 0.743680 0.325650 0.111301
O O6 0.944832 0.148813 0.181904
O O7 0.940140 0.368057 0.144493
O O8 0.239928 0.534765 0.810432
O O9 0.210555 0.441373 0.875815
O O10 0.500000 0.500000 0.000000
O O11 0.004114 0.393356 0.833918
O O12 0.728981 0.711784 0.915407
O O13 0.659462 0.528090 0.823266
O O14 0.000000 0.284812 0.750000
#
# Coordination Sequence:
#
# PCOD9259199 Si02
#       7
#     8   8   8   8   8   8   4
#     4  10  22  35  58  86 123 150 198 256 295 353
#     4  10  18  37  61  85 113 159 194 247 309 366
#     4  10  19  34  62  85 115 153 195 243 307 360
#     4  10  20  37  58  92 114 148 202 255 299 354
#     4  10  20  37  56  82 118 165 196 233 305 366
#     4   9  18  35  60  80 109 153 198 237 293 362
#     4  10  18  34  62  78 108 158 206 222 296 378
#
# _framework density 20.268301999999998
#
# number of rings (size 3 to 8) (size 9 to 14) (size 15 to 20)
#    0.000    2.154    2.308    2.308    0.000    0.615 
#    0.000   10.769    0.000    0.000    0.000    0.000 
#    0.000    0.000    0.000    0.000    0.000    0.000 
#
# Total GULP energy -144782.908640 kJ/mol
# GULP energy per Si atom -5568.573409 kJ/mol
# Density = 2.022217 g / cm^3
# Si number density = 20.268302 Si / 1000 Ang^3
#
#
#
# Elastic Constant Matrix: (Units=GPa)
#
#
# Indices 1 2 3 4 5 6 
#
# 1 38.3153 6.8388 22.1987 0.0000 -3.0980 0.0000
# 2 6.8388 72.9176 11.8942 0.0000 1.3355 0.0000
# 3 22.1987 11.8942 106.3154 0.0000 -4.2448 0.0000
# 4 0.0000 0.0000 0.0000 24.8366 0.0000 8.2920
# 5 -3.0980 1.3355 -4.2448 0.0000 8.1341 0.0000
# 6 0.0000 0.0000 0.0000 8.2920 0.0000 11.1580
#
#
#
# Elastic Compliance Matrix: (Units=1/GPa)
#
#
# Indices 1 2 3 4 5 6 
#
# 1 0.030549 -0.002085 -0.005788 0.000000 0.008957 0.000000
# 2 -0.002085 0.014192 -0.001304 0.000000 -0.003805 0.000000
# 3 -0.005788 -0.001304 0.010908 0.000000 0.003702 0.000000
# 4 0.000000 0.000000 0.000000 0.053549 0.000000 -0.039795
# 5 0.008957 -0.003805 0.003702 0.000000 0.128907 0.000000
# 6 0.000000 0.000000 0.000000 -0.039795 0.000000 0.119195
#
#
# Mechanical properties :
#
#
# Convention : Reuss Voigt Hill
#
# Bulk Modulus (GPa) = 26.81328 33.26795 30.04062
# Shear Modulus (GPa) = 12.88371 20.60018 16.74195
#
# Velocity S-wave (km/s) = 2.52396 3.19152 2.87717
# Velocity P-wave (km/s) = 4.66388 5.48001 5.08833
#
# Compressibility (1/GPa) = 0.03729495
#
# Stress axis : x y z
#
# Youngs Moduli (GPa) = 32.73447 70.46173 91.67423
#
# Poissons Ratio (x) = 0.14692 0.53058
# Poissons Ratio (y) = 0.06825 0.11957
# Poissons Ratio (z) = 0.18946 0.09190
#
# Static dielectric constant tensor:
#      x y z
#    x 1.701890 0.000000 -0.088150 
#    y 0.000000 1.787260 0.000000 
#    z -0.088150 0.000000 1.511660 
# 
# From -- ./inp_files/224884.got.cif
#   From: 2010.05.17/outbox.cif.g08.bks.cpg/sg15_113_cif.got.tgz:224884.got - 2010.06.03 18:47:42.
