data_PCOD9259493
_publ_section_title
;
Structure prediction by ZEFSAII (Michael W. Deem and Ramdas Pophale) SiO2 
 PCOD9259493
Probable space group: C 2/C
;
_chemical_formula_sum "Si O2"
_cell_formula_units_Z 44
_cell_length_a 13.476970
_cell_length_b 9.868178
_cell_length_c 28.851590
_cell_angle_alpha 90.000000
_cell_angle_beta 149.379345
_cell_angle_gamma 90.000000
_cell_volume 1954.414741
_symmetry_space_group_name_H-M "C 2/C"
_symmetry_group_IT_number 15
_symmetry_cell_setting 'monoclinic'
loop_
_space_group_symop_operation_xyz
x,y,z
-x,y,1/2-z
-x,-y,-z
x,-y,1/2+z
1/2+x,1/2+y,z
1/2-x,1/2+y,1/2-z
1/2-x,1/2-y,-z
1/2+x,1/2-y,1/2+z
loop_
_atom_site_type_symbol
_atom_site_label
_atom_site_fract_x
_atom_site_fract_y
_atom_site_fract_z
Si Si1 0.457780 0.147075 0.405910
Si Si2 0.233506 0.672279 0.425998
Si Si3 0.523646 0.142662 0.599301
Si Si4 0.500000 0.908042 0.750000
Si Si5 0.411544 0.436110 0.546864
Si Si6 0.754090 0.389564 0.214404
O O1 0.617347 0.207371 0.504653
O O2 0.570580 0.159890 0.401293
O O3 0.283600 0.252852 0.329645
O O4 0.398156 0.994123 0.393124
O O5 0.353817 0.532200 0.480764
O O6 0.127482 0.681351 0.335196
O O7 0.518128 0.295322 0.578271
O O8 0.294525 0.104485 0.513492
O O9 0.638992 0.144417 0.694705
O O10 0.619259 0.006548 0.764307
O O11 0.546399 0.530874 0.633784
#
# Coordination Sequence:
#
# PCOD9259493 Si02
#       6
#     8   8   8   4   8   8
#     4   9  18  35  58  85 111 151 199 237 283 345
#     4   9  19  37  57  86 112 151 196 247 278 351
#     4  10  18  35  58  91 110 146 199 245 280 347
#     4  12  22  36  58  92 122 146 204 242 302 338
#     4   9  19  34  57  87 114 147 192 244 283 337
#     4  11  21  34  59  88 116 154 194 247 283 347
#
# _framework density 22.513133
#
# number of rings (size 3 to 8) (size 9 to 14) (size 15 to 20)
#    0.000    2.182    3.636    2.182    0.000    2.909 
#    0.000    0.000    0.000    6.545    0.000    0.000 
#    0.000    0.000    0.000    0.000    0.000    0.000 
#
# Total GULP energy -122811.904200 kJ/mol
# GULP energy per Si atom -5582.359282 kJ/mol
# Density = 2.246189 g / cm^3
# Si number density = 22.513133 Si / 1000 Ang^3
#
#
#
# Elastic Constant Matrix: (Units=GPa)
#
#
# Indices 1 2 3 4 5 6 
#
# 1 21.6592 -17.9805 18.5638 -0.0001 4.0343 0.0000
# 2 -17.9805 132.7269 37.9264 0.0001 -10.5775 -0.0001
# 3 18.5638 37.9264 153.5573 -0.0005 -19.5256 0.0005
# 4 -0.0001 0.0001 -0.0005 59.2200 -0.0001 -27.0811
# 5 4.0343 -10.5775 -19.5256 -0.0001 27.6761 0.0001
# 6 0.0000 -0.0001 0.0005 -27.0811 0.0001 37.8902
#
#
#
# Elastic Compliance Matrix: (Units=1/GPa)
#
#
# Indices 1 2 3 4 5 6 
#
# 1 0.070710 0.012228 -0.013495 0.000000 -0.015155 0.000000
# 2 0.012228 0.010308 -0.004119 0.000000 -0.000749 0.000000
# 3 -0.013495 -0.004119 0.010119 0.000000 0.007532 0.000000
# 4 0.000000 0.000000 0.000000 0.025085 0.000000 0.017929
# 5 -0.015155 -0.000749 0.007532 0.000000 0.043369 0.000000
# 6 0.000000 0.000000 0.000000 0.017929 0.000000 0.039206
#
#
# Mechanical properties :
#
#
# Convention : Reuss Voigt Hill
#
# Bulk Modulus (GPa) = 12.44355 42.77363 27.60859
# Shear Modulus (GPa) = 21.15424 42.91950 32.03687
#
# Velocity S-wave (km/s) = 3.06868 4.37099 3.77640
# Velocity P-wave (km/s) = 4.25382 6.67194 5.59508
#
# Compressibility (1/GPa) = 0.08036289
#
# Stress axis : x y z
#
# Youngs Moduli (GPa) = 14.14223 97.01040 98.82561
#
# Poissons Ratio (x) = -1.18621 1.33369
# Poissons Ratio (y) = -0.17293 0.40710
# Poissons Ratio (z) = 0.19085 0.39963
#
# Static dielectric constant tensor:
#      x y z
#    x 1.868310 0.000000 0.040710 
#    y 0.000000 1.886410 0.000000 
#    z 0.040710 0.000000 1.844520 
# 
# From -- ./inp_files/203437.got.cif
#   From: 2010.05.17/outbox.cif.g08.bks.cpg/sg15_102_cif.got.tgz:203437.got - 2010.06.03 18:47:42.
