data_PCOD9259045
_publ_section_title
;
Structure prediction by ZEFSAII (Michael W. Deem and Ramdas Pophale) SiO2 
 PCOD9259045
Probable space group: C 2/C
;
_chemical_formula_sum "Si O2"
_cell_formula_units_Z 52
_cell_length_a 21.880125
_cell_length_b 7.825775
_cell_length_c 22.420139
_cell_angle_alpha 90.000000
_cell_angle_beta 35.171090
_cell_angle_gamma 90.000000
_cell_volume 2211.327000
_symmetry_space_group_name_H-M "C 2/C"
_symmetry_group_IT_number 15
_symmetry_cell_setting 'monoclinic'
loop_
_space_group_symop_operation_xyz
x,y,z
-x,y,1/2-z
-x,-y,-z
x,-y,1/2+z
1/2+x,1/2+y,z
1/2-x,1/2+y,1/2-z
1/2-x,1/2-y,-z
1/2+x,1/2-y,1/2+z
loop_
_atom_site_type_symbol
_atom_site_label
_atom_site_fract_x
_atom_site_fract_y
_atom_site_fract_z
Si Si1 0.722956 0.805406 0.621161
Si Si2 0.000000 0.629838 0.250000
Si Si3 0.222628 0.842171 0.692997
Si Si4 0.436081 0.134465 0.422616
Si Si5 0.690825 0.331468 0.491198
Si Si6 0.487114 0.497881 0.689004
Si Si7 0.853872 0.479378 0.697320
O O1 0.609458 0.772563 0.680461
O O2 0.814541 0.664553 0.538355
O O3 0.698463 0.860377 0.708599
O O4 0.761819 0.979728 0.558377
O O5 0.036864 0.533218 0.160660
O O6 0.288759 0.775800 0.584148
O O7 0.129434 0.959816 0.741844
O O8 0.169930 0.673753 0.765081
O O9 0.295751 0.934304 0.682757
O O10 0.472282 0.325349 0.373065
O O11 0.520875 0.065203 0.402125
O O12 0.750000 0.250000 0.500000
O O13 0.567283 0.355839 0.600408
O O14 0.500000 0.483491 0.750000
#
# Coordination Sequence:
#
# PCOD9259045 Si02
#       7
#     8   4   8   8   8   8   8
#     4   9  21  36  59  89 128 159 213 259 317 374
#     4  10  18  34  58  90 124 170 198 258 318 366
#     4  11  23  43  64  90 130 166 219 262 315 385
#     4  10  20  38  60  91 125 162 215 259 317 381
#     4  10  21  37  60  92 122 164 207 261 324 369
#     4  11  21  38  63  92 124 164 208 263 322 380
#     4  10  23  42  62  89 124 175 209 262 320 371
#
# _framework density 23.515294000000001
#
# number of rings (size 3 to 8) (size 9 to 14) (size 15 to 20)
#    0.000    1.846    2.308    1.385    0.000    4.923 
#    1.385   10.769    0.000    0.000    0.000    0.000 
#    0.000    0.000    0.000    0.000    0.000    0.000 
#
# Total GULP energy -145449.529574 kJ/mol
# GULP energy per Si atom -5594.212676 kJ/mol
# Density = 2.346177 g / cm^3
# Si number density = 23.515294 Si / 1000 Ang^3
#
#
#
# Elastic Constant Matrix: (Units=GPa)
#
#
# Indices 1 2 3 4 5 6 
#
# 1 193.6565 36.8522 57.3593 0.0015 -22.5643 -0.0014
# 2 36.8522 94.5210 29.0599 0.0017 -1.3149 -0.0032
# 3 57.3593 29.0599 131.4363 0.0002 -27.6081 0.0002
# 4 0.0015 0.0017 0.0002 27.7929 -0.0008 -10.7898
# 5 -22.5643 -1.3149 -27.6081 -0.0008 33.4208 0.0016
# 6 -0.0014 -0.0032 0.0002 -10.7898 0.0016 32.7993
#
#
#
# Elastic Compliance Matrix: (Units=1/GPa)
#
#
# Indices 1 2 3 4 5 6 
#
# 1 0.006374 -0.001899 -0.001783 0.000000 0.002756 0.000000
# 2 -0.001899 0.012025 -0.002420 0.000000 -0.002808 0.000001
# 3 -0.001783 -0.002420 0.010464 0.000000 0.007345 -0.000001
# 4 0.000000 0.000000 0.000000 0.041248 0.000000 0.013569
# 5 0.002756 -0.002808 0.007345 0.000000 0.037739 -0.000002
# 6 0.000000 0.000001 -0.000001 0.013569 -0.000002 0.034952
#
#
# Mechanical properties :
#
#
# Convention : Reuss Voigt Hill
#
# Bulk Modulus (GPa) = 60.02312 74.01739 67.02026
# Shear Modulus (GPa) = 31.14101 38.55878 34.84990
#
# Velocity S-wave (km/s) = 3.64302 4.05375 3.85386
# Velocity P-wave (km/s) = 6.57845 7.31130 6.95454
#
# Compressibility (1/GPa) = 0.01666025
#
# Stress axis : x y z
#
# Youngs Moduli (GPa) = 156.87841 83.16125 95.56340
#
# Poissons Ratio (x) = 0.15790 0.17040
# Poissons Ratio (y) = 0.29787 0.23124
# Poissons Ratio (z) = 0.27973 0.20123
#
# Static dielectric constant tensor:
#      x y z
#    x 1.846020 0.000000 0.041780 
#    y 0.000000 1.938030 0.000000 
#    z 0.041780 0.000000 1.930690 
# 
# From -- ./inp_files/301967.got.cif
#   From: 2010.05.17/outbox.cif.g08.bks.cpg/sg15_151_cif.got.tgz:301967.got - 2010.06.03 18:47:42.
