data_PCOD9259947
_publ_section_title
;
Structure prediction by ZEFSAII (Michael W. Deem and Ramdas Pophale) SiO2 
 PCOD9259947
Probable space group: C 2/C
;
_chemical_formula_sum "Si O2"
_cell_formula_units_Z 56
_cell_length_a 15.122900
_cell_length_b 17.599720
_cell_length_c 14.115569
_cell_angle_alpha 90.000000
_cell_angle_beta 130.396631
_cell_angle_gamma 90.000000
_cell_volume 2861.229636
_symmetry_space_group_name_H-M "C 2/C"
_symmetry_group_IT_number 15
_symmetry_cell_setting 'monoclinic'
loop_
_space_group_symop_operation_xyz
x,y,z
-x,y,1/2-z
-x,-y,-z
x,-y,1/2+z
1/2+x,1/2+y,z
1/2-x,1/2+y,1/2-z
1/2-x,1/2-y,-z
1/2+x,1/2-y,1/2+z
loop_
_atom_site_type_symbol
_atom_site_label
_atom_site_fract_x
_atom_site_fract_y
_atom_site_fract_z
Si Si1 0.272759 0.391327 0.310764
Si Si2 0.379324 0.635302 0.207266
Si Si3 0.549583 0.958275 0.889160
Si Si4 0.962825 0.986544 0.366855
Si Si5 0.311992 0.760637 0.940624
Si Si6 0.710199 0.488947 0.993923
Si Si7 0.485127 0.119154 0.938178
O O1 0.361438 0.425225 0.295524
O O2 0.330354 0.320293 0.404677
O O3 0.257584 0.458832 0.378482
O O4 0.148684 0.367810 0.183130
O O5 0.500000 0.668974 0.250000
O O6 0.418009 0.567982 0.302055
O O7 0.289178 0.694479 0.186343
O O8 0.308156 0.588384 0.078302
O O9 0.500000 0.942598 0.750000
O O10 0.688490 0.959771 0.976177
O O11 0.520211 0.044389 0.902080
O O12 0.507953 0.904415 0.945920
O O13 0.000000 0.000000 0.500000
O O14 0.084985 0.970878 0.401148
O O15 0.250000 0.750000 0.000000
O O16 0.427220 0.812032 0.023756
#
# Coordination Sequence:
#
# PCOD9259947 Si02
#       7
#     8   8   8   8   8   8   8
#     4  11  22  38  60  90 133 162 208 266 319 382
#     4  10  20  35  57  84 119 159 202 248 309 379
#     4  11  21  39  66  92 130 165 220 269 316 378
#     4   9  21  35  57  86 117 161 217 256 303 365
#     4  12  25  38  60  92 137 167 203 255 340 396
#     4  10  18  36  59  88 119 165 204 257 318 369
#     4  11  25  38  62  99 129 169 215 265 324 387
#
# _framework density 19.572004
#
# number of rings (size 3 to 8) (size 9 to 14) (size 15 to 20)
#    0.000    1.429    4.286    0.857    4.000    0.000 
#    0.000    0.000    0.000    6.000    0.000    0.000 
#    0.000    0.000    0.000    0.000    0.000    0.000 
#
# Total GULP energy -156229.771230 kJ/mol
# GULP energy per Si atom -5579.634687 kJ/mol
# Density = 1.952746 g / cm^3
# Si number density = 19.572004 Si / 1000 Ang^3
#
#
#
# Elastic Constant Matrix: (Units=GPa)
#
#
# Indices 1 2 3 4 5 6 
#
# 1 98.8494 50.9056 35.2269 0.0000 19.4881 0.0000
# 2 50.9056 67.0884 24.1233 0.0000 13.0684 0.0000
# 3 35.2269 24.1233 95.8330 0.0000 6.1988 0.0000
# 4 0.0000 0.0000 0.0000 19.4042 0.0000 4.8594
# 5 19.4881 13.0684 6.1988 0.0000 42.4799 0.0000
# 6 0.0000 0.0000 0.0000 4.8594 0.0000 34.6103
#
#
#
# Elastic Compliance Matrix: (Units=1/GPa)
#
#
# Indices 1 2 3 4 5 6 
#
# 1 0.018255 -0.011777 -0.003471 0.000000 -0.004245 0.000000
# 2 -0.011777 0.024878 -0.001805 0.000000 -0.001987 0.000000
# 3 -0.003471 -0.001805 0.012141 0.000000 0.000376 0.000000
# 4 0.000000 0.000000 0.000000 0.053413 0.000000 -0.007499
# 5 -0.004245 -0.001987 0.000376 0.000000 0.026045 0.000000
# 6 0.000000 0.000000 0.000000 -0.007499 0.000000 0.029946
#
#
# Mechanical properties :
#
#
# Convention : Reuss Voigt Hill
#
# Bulk Modulus (GPa) = 47.24058 53.58694 50.41376
# Shear Modulus (GPa) = 24.29082 29.39987 26.84535
#
# Velocity S-wave (km/s) = 3.52675 3.87995 3.70756
# Velocity P-wave (km/s) = 6.38538 6.89281 6.64394
#
# Compressibility (1/GPa) = 0.02116824
#
# Stress axis : x y z
#
# Youngs Moduli (GPa) = 54.77909 40.19667 82.36685
#
# Poissons Ratio (x) = 0.47338 0.28592
# Poissons Ratio (y) = 0.64511 0.14866
# Poissons Ratio (z) = 0.19016 0.07255
#
# Static dielectric constant tensor:
#      x y z
#    x 1.745080 0.000000 -0.002300 
#    y 0.000000 1.683490 0.000000 
#    z -0.002300 0.000000 1.751660 
# 
# From -- ./inp_files/155255.got.cif
#   From: 2010.05.17/outbox.cif.g08.bks.cpg/sg15_78_cif.got.tgz:155255.got - 2010.06.03 18:47:42.
