data_PCOD9259401
_publ_section_title
;
Structure prediction by ZEFSAII (Michael W. Deem and Ramdas Pophale) SiO2 
 PCOD9259401
Probable space group: C 2/C
;
_chemical_formula_sum "Si O2"
_cell_formula_units_Z 40
_cell_length_a 24.615876
_cell_length_b 13.599103
_cell_length_c 13.826082
_cell_angle_alpha 90.000000
_cell_angle_beta 158.420689
_cell_angle_gamma 90.000000
_cell_volume 1702.249363
_symmetry_space_group_name_H-M "C 2/C"
_symmetry_group_IT_number 15
_symmetry_cell_setting 'monoclinic'
loop_
_space_group_symop_operation_xyz
x,y,z
-x,y,1/2-z
-x,-y,-z
x,-y,1/2+z
1/2+x,1/2+y,z
1/2-x,1/2+y,1/2-z
1/2-x,1/2-y,-z
1/2+x,1/2-y,1/2+z
loop_
_atom_site_type_symbol
_atom_site_label
_atom_site_fract_x
_atom_site_fract_y
_atom_site_fract_z
Si Si1 0.321708 0.976790 0.173543
Si Si2 0.392785 0.330566 0.988097
Si Si3 0.481882 0.101931 0.111774
Si Si4 0.877181 0.834511 0.738927
Si Si5 0.448934 0.172694 0.554222
O O1 0.354494 0.950785 0.338604
O O2 0.442711 0.905331 0.318691
O O3 0.369016 0.079638 0.203521
O O4 0.165918 0.932732 0.888285
O O5 0.390566 0.363401 0.872817
O O6 0.224334 0.344502 0.741746
O O7 0.500000 0.370344 0.250000
O O8 0.438677 0.215514 0.050188
O O9 0.500000 0.062058 0.250000
O O10 0.750000 0.750000 0.500000
O O11 0.021543 0.779210 0.942983
O O12 0.500000 0.176136 0.750000
#
# Coordination Sequence:
#
# PCOD9259401 Si02
#       5
#     8   8   8   8   8
#     4  10  19  35  60  85 113 157 200 239 289 357
#     4  11  22  36  55  89 125 151 193 249 296 345
#     4  10  20  34  53  86 122 147 190 248 290 343
#     4  10  18  35  56  89 112 149 211 240 280 362
#     4  11  18  33  62  84 111 156 201 240 286 346
#
# _framework density 23.49832
#
# number of rings (size 3 to 8) (size 9 to 14) (size 15 to 20)
#    0.000    1.600    8.000    0.600    0.000    0.800 
#    0.000    0.000    0.000   10.800    0.000    0.000 
#    0.000    0.000    0.000    0.000    0.000    0.000 
#
# Total GULP energy -111534.754783 kJ/mol
# GULP energy per Si atom -5576.737739 kJ/mol
# Density = 2.344484 g / cm^3
# Si number density = 23.498320 Si / 1000 Ang^3
#
#
#
# Elastic Constant Matrix: (Units=GPa)
#
#
# Indices 1 2 3 4 5 6 
#
# 1 108.7516 -2.0027 42.1311 0.0000 -44.8580 0.0000
# 2 -2.0027 45.0391 -8.8240 0.0000 2.6160 0.0000
# 3 42.1311 -8.8240 115.7202 0.0000 -28.2799 0.0000
# 4 0.0000 0.0000 0.0000 14.2919 0.0000 10.1865
# 5 -44.8580 2.6160 -28.2799 0.0000 47.6676 0.0000
# 6 0.0000 0.0000 0.0000 10.1865 0.0000 19.6468
#
#
#
# Elastic Compliance Matrix: (Units=1/GPa)
#
#
# Indices 1 2 3 4 5 6 
#
# 1 0.015614 -0.000563 -0.002490 0.000000 0.013247 0.000000
# 2 -0.000563 0.022563 0.001747 0.000000 -0.000732 0.000000
# 3 -0.002490 0.001747 0.010626 0.000000 0.003865 0.000000
# 4 0.000000 0.000000 0.000000 0.110983 0.000000 -0.057543
# 5 0.013247 -0.000732 0.003865 0.000000 0.035778 0.000000
# 6 0.000000 0.000000 0.000000 -0.057543 0.000000 0.080734
#
#
# Mechanical properties :
#
#
# Convention : Reuss Voigt Hill
#
# Bulk Modulus (GPa) = 21.65025 36.90220 29.27622
# Shear Modulus (GPa) = 16.98910 32.20171 24.59540
#
# Velocity S-wave (km/s) = 2.69177 3.70589 3.23877
# Velocity P-wave (km/s) = 4.34676 5.83521 5.14510
#
# Compressibility (1/GPa) = 0.04618884
#
# Stress axis : x y z
#
# Youngs Moduli (GPa) = 64.04612 44.32119 94.11036
#
# Poissons Ratio (x) = 0.02495 0.23436
# Poissons Ratio (y) = 0.03606 -0.16437
# Poissons Ratio (z) = 0.15949 -0.07741
#
# Static dielectric constant tensor:
#      x y z
#    x 1.965210 0.000000 -0.036820 
#    y 0.000000 2.014900 0.000000 
#    z -0.036820 0.000000 1.972150 
# 
# From -- ./inp_files/178727.got.cif
#   From: 2010.05.17/outbox.cif.g08.bks.cpg/sg15_90_cif.got.tgz:178727.got - 2010.06.03 18:47:42.
