data_PCOD9259096
_publ_section_title
;
Structure prediction by ZEFSAII (Michael W. Deem and Ramdas Pophale) SiO2 
 PCOD9259096
Probable space group: C 2/C
;
_chemical_formula_sum "Si O2"
_cell_formula_units_Z 60
_cell_length_a 18.578231
_cell_length_b 18.163787
_cell_length_c 8.568947
_cell_angle_alpha 90.000000
_cell_angle_beta 93.671978
_cell_angle_gamma 90.000000
_cell_volume 2885.663716
_symmetry_space_group_name_H-M "C 2/C"
_symmetry_group_IT_number 15
_symmetry_cell_setting 'monoclinic'
loop_
_space_group_symop_operation_xyz
x,y,z
-x,y,1/2-z
-x,-y,-z
x,-y,1/2+z
1/2+x,1/2+y,z
1/2-x,1/2+y,1/2-z
1/2-x,1/2-y,-z
1/2+x,1/2-y,1/2+z
loop_
_atom_site_type_symbol
_atom_site_label
_atom_site_fract_x
_atom_site_fract_y
_atom_site_fract_z
Si Si1 0.879261 0.016193 0.090337
Si Si2 0.596491 0.085252 0.031450
Si Si3 0.419453 0.221879 0.264363
Si Si4 0.220709 0.409494 0.301634
Si Si5 0.606346 0.609617 0.670253
Si Si6 0.695333 0.818040 0.994527
Si Si7 0.223727 0.941769 0.679962
Si Si8 0.500000 0.014867 0.750000
O O1 0.836538 0.071361 0.199016
O O2 0.909979 0.948632 0.194172
O O3 0.925189 0.068755 0.986118
O O4 0.821965 0.976008 0.969007
O O5 0.604600 0.167158 0.102530
O O6 0.561492 0.034569 0.167519
O O7 0.673226 0.080394 0.950110
O O8 0.540075 0.065250 0.884411
O O9 0.500000 0.198253 0.250000
O O10 0.417248 0.307742 0.306584
O O11 0.376858 0.208678 0.098070
O O12 0.305211 0.386273 0.332665
O O13 0.227196 0.493380 0.243610
O O14 0.188900 0.356198 0.163311
O O15 0.729640 0.877210 0.881161
O O16 0.750000 0.750000 0.000000
#
# Coordination Sequence:
#
# PCOD9259096 Si02
#       8
#     8   8   8   8   8   8   8   4
#     4   8  17  34  66  91 126 158 208 270 336 385
#     4  11  26  42  68  91 134 181 234 273 321 399
#     4  12  28  44  63  94 141 181 217 277 346 403
#     4  10  23  37  66  98 121 175 222 282 319 391
#     4  10  20  42  63  99 133 159 220 276 344 393
#     4  12  24  42  64  97 136 174 219 277 344 395
#     4  10  18  34  59  96 126 158 207 267 331 381
#     4  10  26  48  64  94 140 192 234 258 330 414
#
# _framework density 20.792444
#
# number of rings (size 3 to 8) (size 9 to 14) (size 15 to 20)
#    0.000    1.867    4.667    0.000    9.333    1.600 
#    0.000    0.667    0.000    0.000    0.000    0.000 
#    0.000    0.000    0.000    0.000    0.000    0.000 
#
# Total GULP energy -167123.111035 kJ/mol
# GULP energy per Si atom -5570.770368 kJ/mol
# Density = 2.074512 g / cm^3
# Si number density = 20.792444 Si / 1000 Ang^3
#
#
#
# Elastic Constant Matrix: (Units=GPa)
#
#
# Indices 1 2 3 4 5 6 
#
# 1 49.8030 -7.4309 13.5427 0.0000 -2.3523 0.0000
# 2 -7.4309 64.2141 26.2310 0.0000 -7.5762 0.0000
# 3 13.5427 26.2310 113.4786 0.0000 -14.8114 0.0000
# 4 0.0000 0.0000 0.0000 35.9079 0.0000 1.0023
# 5 -2.3523 -7.5762 -14.8114 0.0000 19.7126 0.0000
# 6 0.0000 0.0000 0.0000 1.0023 0.0000 21.6538
#
#
#
# Elastic Compliance Matrix: (Units=1/GPa)
#
#
# Indices 1 2 3 4 5 6 
#
# 1 0.021661 0.004052 -0.003305 0.000000 0.001659 0.000000
# 2 0.004052 0.018247 -0.004128 0.000000 0.004395 0.000000
# 3 -0.003305 -0.004128 0.010979 0.000000 0.006268 0.000000
# 4 0.000000 0.000000 0.000000 0.027885 0.000000 -0.001291
# 5 0.001659 0.004395 0.006268 0.000000 0.057326 0.000000
# 6 0.000000 0.000000 0.000000 -0.001291 0.000000 0.046241
#
#
# Mechanical properties :
#
#
# Convention : Reuss Voigt Hill
#
# Bulk Modulus (GPa) = 22.66273 32.46461 27.56367
# Shear Modulus (GPa) = 24.53290 28.46507 26.49898
#
# Velocity S-wave (km/s) = 3.43869 3.70403 3.57382
# Velocity P-wave (km/s) = 5.16616 5.82586 5.50590
#
# Compressibility (1/GPa) = 0.04412532
#
# Stress axis : x y z
#
# Youngs Moduli (GPa) = 46.16617 54.80496 91.08297
#
# Poissons Ratio (x) = -0.22210 0.30105
# Poissons Ratio (y) = -0.18709 0.37597
# Poissons Ratio (z) = 0.15259 0.22622
#
# Static dielectric constant tensor:
#      x y z
#    x 1.799850 0.000000 -0.063880 
#    y 0.000000 1.752760 0.000000 
#    z -0.063880 0.000000 1.944930 
# 
# From -- ./inp_files/49108.got.cif
#   From: 2010.05.17/outbox.cif.g08.bks.cpg/sg15_25_cif.got.tgz:49108.got - 2010.06.03 18:47:42.
