data_PCOD9259831
_publ_section_title
;
Structure prediction by ZEFSAII (Michael W. Deem and Ramdas Pophale) SiO2 
 PCOD9259831
Probable space group: C 2/C
;
_chemical_formula_sum "Si O2"
_cell_formula_units_Z 36
_cell_length_a 9.038433
_cell_length_b 25.569563
_cell_length_c 8.412494
_cell_angle_alpha 90.000000
_cell_angle_beta 69.558792
_cell_angle_gamma 90.000000
_cell_volume 1821.776929
_symmetry_space_group_name_H-M "C 2/C"
_symmetry_group_IT_number 15
_symmetry_cell_setting 'monoclinic'
loop_
_space_group_symop_operation_xyz
x,y,z
-x,y,1/2-z
-x,-y,-z
x,-y,1/2+z
1/2+x,1/2+y,z
1/2-x,1/2+y,1/2-z
1/2-x,1/2-y,-z
1/2+x,1/2-y,1/2+z
loop_
_atom_site_type_symbol
_atom_site_label
_atom_site_fract_x
_atom_site_fract_y
_atom_site_fract_z
Si Si1 0.500000 0.977171 0.250000
Si Si2 0.000000 0.343208 0.750000
Si Si3 0.500000 0.607695 0.250000
Si Si4 0.652342 0.932170 0.898063
Si Si5 0.763441 0.764346 0.723546
Si Si6 0.084153 0.199560 0.007645
O O1 0.391367 0.942332 0.403542
O O2 0.398088 0.016205 0.179288
O O3 0.051142 0.382947 0.870728
O O4 0.149167 0.304383 0.676339
O O5 0.663302 0.577402 0.196716
O O6 0.514467 0.643723 0.084999
O O7 0.803320 0.789510 0.882204
O O8 0.933509 0.761559 0.577106
O O9 0.674779 0.711394 0.810597
#
# Coordination Sequence:
#
# PCOD9259831 Si02
#       6
#     4   4   4   8   8   8
#     4   9  22  40  61  88 104 142 175 244 284 353
#     4  11  18  34  58  84 110 154 176 240 260 333
#     4  10  18  36  57  82 112 152 179 232 264 340
#     4  10  20  39  62  83 113 136 191 222 297 328
#     4   9  18  31  53  74 114 146 192 214 276 302
#     4   9  17  35  49  80 106 158 180 226 261 321
#
# _framework density 19.760926000000001
#
# number of rings (size 3 to 8) (size 9 to 14) (size 15 to 20)
#    0.000    2.667    4.444    0.000    0.000    1.778 
#    4.000    0.000    0.000    0.000    0.000    0.000 
#    0.000    0.000    0.000    0.000    0.000    0.000 
#
# Total GULP energy -100240.145579 kJ/mol
# GULP energy per Si atom -5568.896977 kJ/mol
# Density = 1.971595 g / cm^3
# Si number density = 19.760926 Si / 1000 Ang^3
#
#
#
# Elastic Constant Matrix: (Units=GPa)
#
#
# Indices 1 2 3 4 5 6 
#
# 1 122.2273 37.8055 41.7665 0.0000 -21.3357 0.0000
# 2 37.8055 52.4676 30.1413 0.0000 -0.3282 0.0000
# 3 41.7665 30.1413 69.1428 0.0000 -5.5664 0.0000
# 4 0.0000 0.0000 0.0000 -4.4231 0.0000 -10.8232
# 5 -21.3357 -0.3282 -5.5664 0.0000 22.4788 0.0000
# 6 0.0000 0.0000 0.0000 -10.8232 0.0000 19.4423
#
#
#
# Elastic Compliance Matrix: (Units=1/GPa)
#
#
# Indices 1 2 3 4 5 6 
#
# 1 0.014139 -0.007700 -0.004196 0.000000 0.012268 0.000000
# 2 -0.007700 0.029751 -0.009052 0.000000 -0.009116 0.000000
# 3 -0.004196 -0.009052 0.021031 0.000000 0.001093 0.000000
# 4 0.000000 0.000000 0.000000 -0.095710 0.000000 -0.053280
# 5 0.012268 -0.009116 0.001093 0.000000 0.056268 0.000000
# 6 0.000000 0.000000 0.000000 -0.053280 0.000000 0.021774
#
#
# Mechanical properties :
#
#
# Convention : Reuss Voigt Hill
#
# Bulk Modulus (GPa) = 43.43171 51.47380 47.45276
# Shear Modulus (GPa) = 51.64037 16.44122 34.04079
#
# Velocity S-wave (km/s) = 5.11755 2.88758 4.15496
# Velocity P-wave (km/s) = 7.54621 6.10101 6.86177
#
# Compressibility (1/GPa) = 0.02302465
#
# Stress axis : x y z
#
# Youngs Moduli (GPa) = 70.72853 33.61273 47.54791
#
# Poissons Ratio (x) = 0.25882 0.19952
# Poissons Ratio (y) = 0.54462 0.43038
# Poissons Ratio (z) = 0.29679 0.30425
#
# Static dielectric constant tensor:
#      x y z
#    x 1.735480 0.000000 -0.006800 
#    y 0.000000 1.737620 0.000000 
#    z -0.006800 0.000000 1.738410 
# 
# From -- ./inp_files/23366.got.cif
#   From: 2010.05.17/outbox.cif.g08.bks.cpg/sg15_12_cif.got.tgz:23366.got - 2010.06.03 18:47:42.
