data_PCOD9259930
_publ_section_title
;
Structure prediction by ZEFSAII (Michael W. Deem and Ramdas Pophale) SiO2 
 PCOD9259930
Probable space group: C 2/C
;
_chemical_formula_sum "Si O2"
_cell_formula_units_Z 48
_cell_length_a 15.947592
_cell_length_b 6.345034
_cell_length_c 23.863711
_cell_angle_alpha 90.000000
_cell_angle_beta 56.452335
_cell_angle_gamma 90.000000
_cell_volume 2012.492585
_symmetry_space_group_name_H-M "C 2/C"
_symmetry_group_IT_number 15
_symmetry_cell_setting 'monoclinic'
loop_
_space_group_symop_operation_xyz
x,y,z
-x,y,1/2-z
-x,-y,-z
x,-y,1/2+z
1/2+x,1/2+y,z
1/2-x,1/2+y,1/2-z
1/2-x,1/2-y,-z
1/2+x,1/2-y,1/2+z
loop_
_atom_site_type_symbol
_atom_site_label
_atom_site_fract_x
_atom_site_fract_y
_atom_site_fract_z
Si Si1 0.866665 0.273820 0.391969
Si Si2 0.920397 0.681841 0.046432
Si Si3 0.789199 0.335193 0.101563
Si Si4 0.077438 0.476542 0.350970
Si Si5 0.616241 0.947404 0.713771
Si Si6 0.664721 0.504539 0.503075
O O1 0.869850 0.332794 0.325220
O O2 0.776032 0.409071 0.452319
O O3 0.863684 0.043249 0.422382
O O4 0.970443 0.378844 0.375599
O O5 0.807359 0.581777 0.083906
O O6 0.935761 0.691988 0.107438
O O7 0.913172 0.874850 0.007652
O O8 0.000000 0.500000 0.000000
O O9 0.862811 0.320511 0.128944
O O10 0.688204 0.224236 0.158570
O O11 0.828300 0.227183 0.030057
O O12 0.135511 0.520495 0.272233
O O13 0.500000 0.882740 0.750000
#
# Coordination Sequence:
#
# PCOD9259930 Si02
#       6
#     8   8   8   8   8   8
#     4   9  18  32  57  83 108 153 181 223 291 336
#     4  10  20  35  59  87 118 144 189 243 290 332
#     4   9  21  35  61  88 108 150 196 235 286 340
#     4   9  19  35  59  81 111 150 189 233 282 338
#     4   9  18  36  58  77 114 157 190 229 290 343
#     4  10  18  36  59  82 116 144 186 234 286 339
#
# _framework density 23.851019999999998
#
# number of rings (size 3 to 8) (size 9 to 14) (size 15 to 20)
#    1.000    1.667    1.667    0.000    0.000    5.333 
#    0.000    7.500   14.667    1.000    0.000    0.000 
#    0.000    0.000    0.000    0.000    0.000    0.000 
#
# Total GULP energy -133698.039095 kJ/mol
# GULP energy per Si atom -5570.751629 kJ/mol
# Density = 2.379673 g / cm^3
# Si number density = 23.851020 Si / 1000 Ang^3
#
#
#
# Elastic Constant Matrix: (Units=GPa)
#
#
# Indices 1 2 3 4 5 6 
#
# 1 77.8676 19.9713 36.3602 0.0000 -2.2385 0.0014
# 2 19.9713 28.9030 17.9405 0.0000 -7.4803 0.0027
# 3 36.3602 17.9405 132.9597 -0.0012 23.0272 -0.0007
# 4 0.0000 0.0000 -0.0012 36.3076 0.0001 2.0546
# 5 -2.2385 -7.4803 23.0272 0.0001 51.4790 -0.0001
# 6 0.0014 0.0027 -0.0007 2.0546 -0.0001 33.9568
#
#
#
# Elastic Compliance Matrix: (Units=1/GPa)
#
#
# Indices 1 2 3 4 5 6 
#
# 1 0.016890 -0.009216 -0.003545 0.000000 0.000981 0.000000
# 2 -0.009216 0.046485 -0.005260 0.000000 0.008707 -0.000003
# 3 -0.003545 -0.005260 0.010145 0.000000 -0.005457 0.000001
# 4 0.000000 0.000000 0.000000 0.027637 0.000000 -0.001672
# 5 0.000981 0.008707 -0.005457 0.000000 0.023174 -0.000001
# 6 0.000000 -0.000003 0.000001 -0.001672 -0.000001 0.029550
#
#
# Mechanical properties :
#
#
# Convention : Reuss Voigt Hill
#
# Bulk Modulus (GPa) = 26.68251 43.14158 34.91204
# Shear Modulus (GPa) = 24.70164 35.37923 30.04043
#
# Velocity S-wave (km/s) = 3.22166 3.85560 3.55280
# Velocity P-wave (km/s) = 5.00502 6.16020 5.61241
#
# Compressibility (1/GPa) = 0.03747773
#
# Stress axis : x y z
#
# Youngs Moduli (GPa) = 59.20804 21.51242 98.56751
#
# Poissons Ratio (x) = 0.19826 0.34944
# Poissons Ratio (y) = 0.54565 0.51846
# Poissons Ratio (z) = 0.20990 0.11315
#
# Static dielectric constant tensor:
#      x y z
#    x 2.033980 0.000000 0.004930 
#    y 0.000000 1.990130 0.000000 
#    z 0.004930 0.000000 1.929330 
# 
# From -- ./inp_files/297893.got.cif
#   From: 2010.05.17/outbox.cif.g08.bks.cpg/sg15_149_cif.got.tgz:297893.got - 2010.06.03 18:47:42.
