data_PCOD9259358
_publ_section_title
;
Structure prediction by ZEFSAII (Michael W. Deem and Ramdas Pophale) SiO2 
 PCOD9259358
Probable space group: C 2/C
;
_chemical_formula_sum "Si O2"
_cell_formula_units_Z 40
_cell_length_a 16.424355
_cell_length_b 20.064355
_cell_length_c 4.984459
_cell_angle_alpha 90.000000
_cell_angle_beta 102.488774
_cell_angle_gamma 90.000000
_cell_volume 1603.732474
_symmetry_space_group_name_H-M "C 2/C"
_symmetry_group_IT_number 15
_symmetry_cell_setting 'monoclinic'
loop_
_space_group_symop_operation_xyz
x,y,z
-x,y,1/2-z
-x,-y,-z
x,-y,1/2+z
1/2+x,1/2+y,z
1/2-x,1/2+y,1/2-z
1/2-x,1/2-y,-z
1/2+x,1/2-y,1/2+z
loop_
_atom_site_type_symbol
_atom_site_label
_atom_site_fract_x
_atom_site_fract_y
_atom_site_fract_z
Si Si1 0.270531 0.545452 0.964222
Si Si2 0.916004 0.874609 0.284263
Si Si3 0.840640 0.243344 0.449636
Si Si4 0.589695 0.044750 0.731178
Si Si5 0.072656 0.733531 0.990299
O O1 0.273268 0.480318 0.770392
O O2 0.348813 0.586960 0.913712
O O3 0.178957 0.578419 0.853712
O O4 0.868038 0.833829 0.014535
O O5 0.949578 0.810862 0.471662
O O6 0.000000 0.912238 0.250000
O O7 0.750000 0.250000 0.500000
O O8 0.849105 0.264940 0.152023
O O9 0.900737 0.287363 0.692192
O O10 0.500000 0.074048 0.750000
O O11 0.591316 0.020935 0.425688
O O12 0.000000 0.707105 0.750000
#
# Coordination Sequence:
#
# PCOD9259358 Si02
#       5
#     8   8   8   8   8
#     4  10  22  34  50  81 114 151 198 241 279 329
#     4  10  22  35  57  78 118 156 197 232 286 346
#     4  10  20  34  57  84 106 136 194 245 288 339
#     4   8  14  28  48  69  92 126 175 226 275 325
#     4  10  18  35  55  81 106 146 189 228 279 354
#
# _framework density 24.941818000000001
#
# number of rings (size 3 to 8) (size 9 to 14) (size 15 to 20)
#    1.200    1.200    2.000    1.200    2.800    0.800 
#    0.000    0.000    0.000    1.200    0.000    0.000 
#    0.000    0.000    0.000    0.000    0.000    0.000 
#
# Total GULP energy -111434.893080 kJ/mol
# GULP energy per Si atom -5571.744654 kJ/mol
# Density = 2.488505 g / cm^3
# Si number density = 24.941818 Si / 1000 Ang^3
#
#
#
# Elastic Constant Matrix: (Units=GPa)
#
#
# Indices 1 2 3 4 5 6 
#
# 1 196.8583 17.0175 -1.1087 0.0000 -29.5908 0.0000
# 2 17.0175 49.6080 -1.8921 0.0000 1.2091 0.0000
# 3 -1.1087 -1.8921 109.3367 0.0000 -17.5794 0.0000
# 4 0.0000 0.0000 0.0000 -7.1601 0.0000 -12.6745
# 5 -29.5908 1.2091 -17.5794 0.0000 47.4520 0.0000
# 6 0.0000 0.0000 0.0000 -12.6745 0.0000 7.8694
#
#
#
# Elastic Compliance Matrix: (Units=1/GPa)
#
#
# Indices 1 2 3 4 5 6 
#
# 1 0.005857 -0.002080 0.000658 0.000000 0.003949 0.000000
# 2 -0.002080 0.020918 0.000050 0.000000 -0.001812 0.000000
# 3 0.000658 0.000050 0.009803 0.000000 0.004041 0.000000
# 4 0.000000 0.000000 0.000000 -0.036266 0.000000 -0.058411
# 5 0.003949 -0.001812 0.004041 0.000000 0.025080 0.000000
# 6 0.000000 0.000000 0.000000 -0.058411 0.000000 0.032997
#
#
# Mechanical properties :
#
#
# Convention : Reuss Voigt Hill
#
# Bulk Modulus (GPa) = 29.55671 42.64848 36.10259
# Shear Modulus (GPa) = 69.04951 32.41800 50.73376
#
# Velocity S-wave (km/s) = 5.26729 3.60911 4.51498
# Velocity P-wave (km/s) = 6.99060 5.87400 6.45648
#
# Compressibility (1/GPa) = 0.03383327
#
# Stress axis : x y z
#
# Youngs Moduli (GPa) = 170.73647 47.80637 102.00614
#
# Poissons Ratio (x) = 0.09945 -0.06716
# Poissons Ratio (y) = 0.35519 -0.00506
# Poissons Ratio (z) = -0.11241 -0.00237
#
# Static dielectric constant tensor:
#      x y z
#    x 2.157590 0.000000 0.062010 
#    y 0.000000 2.000580 0.000000 
#    z 0.062010 0.000000 1.944880 
# 
# From -- ./inp_files/8396.got.cif
#   From: 2010.05.17/outbox.cif.g08.bks.cpg/sg15_5_cif.got.tgz:8396.got - 2010.06.03 18:47:42.
