data_PCOD9259002
_publ_section_title
;
Structure prediction by ZEFSAII (Michael W. Deem and Ramdas Pophale) SiO2 
 PCOD9259002
Probable space group: C 2/C
;
_chemical_formula_sum "Si O2"
_cell_formula_units_Z 64
_cell_length_a 28.127020
_cell_length_b 12.870801
_cell_length_c 17.713928
_cell_angle_alpha 90.000000
_cell_angle_beta 149.235966
_cell_angle_gamma 90.000000
_cell_volume 3280.143508
_symmetry_space_group_name_H-M "C 2/C"
_symmetry_group_IT_number 15
_symmetry_cell_setting 'monoclinic'
loop_
_space_group_symop_operation_xyz
x,y,z
-x,y,1/2-z
-x,-y,-z
x,-y,1/2+z
1/2+x,1/2+y,z
1/2-x,1/2+y,1/2-z
1/2-x,1/2-y,-z
1/2+x,1/2-y,1/2+z
loop_
_atom_site_type_symbol
_atom_site_label
_atom_site_fract_x
_atom_site_fract_y
_atom_site_fract_z
Si Si1 0.603044 0.317908 0.859988
Si Si2 0.953367 0.670680 0.464009
Si Si3 0.136200 0.990462 0.115187
Si Si4 0.889710 0.571182 0.610200
Si Si5 0.272935 0.855417 0.814263
Si Si6 0.401993 0.993416 0.287763
Si Si7 0.948188 0.884572 0.865786
Si Si8 0.243009 0.367147 0.314816
O O1 0.500000 0.338224 0.750000
O O2 0.614701 0.194245 0.879391
O O3 0.612893 0.349565 0.787379
O O4 0.675526 0.373909 0.012397
O O5 0.857529 0.683582 0.378369
O O6 0.933637 0.606706 0.360091
O O7 0.006612 0.781175 0.533813
O O8 0.012682 0.588354 0.594455
O O9 0.193829 0.086027 0.158599
O O10 0.109243 0.038855 0.159193
O O11 0.211794 0.901499 0.202735
O O12 0.037006 0.947774 0.954378
O O13 0.822556 0.568952 0.444666
O O14 0.860330 0.511560 0.646719
O O15 0.000000 0.544528 0.750000
O O16 0.223342 0.755369 0.783586
O O17 0.337169 0.941364 0.263943
#
# Coordination Sequence:
#
# PCOD9259002 Si02
#       8
#     8   8   8   8   8   8   8   8
#     4  10  18  34  58  83 114 143 178 245 292 322
#     4  11  20  37  57  84 119 150 185 234 276 349
#     4  11  23  36  56  86 113 156 190 233 284 344
#     4  10  19  34  54  84 117 146 181 234 294 337
#     4  11  21  36  57  85 120 146 188 238 288 333
#     4  11  22  33  56  89 118 151 182 225 299 340
#     4  11  21  39  58  85 114 151 197 228 286 335
#     4  11  22  36  57  90 117 143 187 244 290 338
#
# _framework density 19.511341000000002
#
# number of rings (size 3 to 8) (size 9 to 14) (size 15 to 20)
#    0.000    1.250    6.250    1.500    1.750    1.000 
#    0.000    0.000    0.000    0.750   16.250    0.000 
#    0.000    0.000    0.000    0.000    0.000    0.000 
#
# Total GULP energy -178173.603959 kJ/mol
# GULP energy per Si atom -5567.925124 kJ/mol
# Density = 1.946693 g / cm^3
# Si number density = 19.511341 Si / 1000 Ang^3
#
#
#
# Elastic Constant Matrix: (Units=GPa)
#
#
# Indices 1 2 3 4 5 6 
#
# 1 78.2664 26.2110 12.4781 0.0000 6.5343 0.0000
# 2 26.2110 67.9039 39.9270 0.0000 -3.5535 0.0000
# 3 12.4781 39.9270 44.0590 0.0000 5.6499 0.0000
# 4 0.0000 0.0000 0.0000 22.6291 0.0000 -0.9172
# 5 6.5343 -3.5535 5.6499 0.0000 25.5879 0.0000
# 6 0.0000 0.0000 0.0000 -0.9172 0.0000 31.9136
#
#
#
# Elastic Compliance Matrix: (Units=1/GPa)
#
#
# Indices 1 2 3 4 5 6 
#
# 1 0.015595 -0.009035 0.004572 0.000000 -0.006247 0.000000
# 2 -0.009035 0.040083 -0.035788 0.000000 0.015776 0.000000
# 3 0.004572 -0.035788 0.056212 0.000000 -0.018549 0.000000
# 4 0.000000 0.000000 0.000000 0.044242 0.000000 0.001272
# 5 -0.006247 0.015776 -0.018549 0.000000 0.046963 0.000000
# 6 0.000000 0.000000 0.000000 0.001272 0.000000 0.031371
#
#
# Mechanical properties :
#
#
# Convention : Reuss Voigt Hill
#
# Bulk Modulus (GPa) = 31.85891 38.60685 35.23288
# Shear Modulus (GPa) = 15.36427 23.46702 19.41564
#
# Velocity S-wave (km/s) = 2.80920 3.47181 3.15794
# Velocity P-wave (km/s) = 5.18517 5.99176 5.60300
#
# Compressibility (1/GPa) = 0.03138839
#
# Stress axis : x y z
#
# Youngs Moduli (GPa) = 64.12206 24.94846 17.78978
#
# Poissons Ratio (x) = 0.22541 -0.08133
# Poissons Ratio (y) = 0.57934 0.63666
# Poissons Ratio (z) = -0.29315 0.89285
#
# Static dielectric constant tensor:
#      x y z
#    x 1.760720 0.000000 0.017080 
#    y 0.000000 1.696420 0.000000 
#    z 0.017080 0.000000 1.706180 
# 
# From -- ./inp_files/173692.got.cif
#   From: 2010.05.17/outbox.cif.g08.bks.cpg/sg15_87_cif.got.tgz:173692.got - 2010.06.03 18:47:42.
