data_PCOD9259336
_publ_section_title
;
Structure prediction by ZEFSAII (Michael W. Deem and Ramdas Pophale) SiO2 
 PCOD9259336
Probable space group: C 2/C
;
_chemical_formula_sum "Si O2"
_cell_formula_units_Z 36
_cell_length_a 13.367655
_cell_length_b 20.786566
_cell_length_c 5.350156
_cell_angle_alpha 90.000000
_cell_angle_beta 81.712530
_cell_angle_gamma 90.000000
_cell_volume 1471.110803
_symmetry_space_group_name_H-M "C 2/C"
_symmetry_group_IT_number 15
_symmetry_cell_setting 'monoclinic'
loop_
_space_group_symop_operation_xyz
x,y,z
-x,y,1/2-z
-x,-y,-z
x,-y,1/2+z
1/2+x,1/2+y,z
1/2-x,1/2+y,1/2-z
1/2-x,1/2-y,-z
1/2+x,1/2-y,1/2+z
loop_
_atom_site_type_symbol
_atom_site_label
_atom_site_fract_x
_atom_site_fract_y
_atom_site_fract_z
Si Si1 0.144858 0.039223 0.571355
Si Si2 0.113359 0.766066 0.656999
Si Si3 0.886729 0.539238 0.473524
Si Si4 0.886982 0.814137 0.340436
Si Si5 0.500000 0.856770 0.250000
O O1 0.266342 0.049347 0.528501
O O2 0.103250 0.110866 0.605854
O O3 0.117791 0.002469 0.325743
O O4 0.164776 0.800877 0.407142
O O5 0.000000 0.796123 0.750000
O O6 0.085929 0.691916 0.617182
O O7 0.161957 0.779908 0.905413
O O8 0.905969 0.485296 0.683750
O O9 0.946168 0.600751 0.557782
O O10 0.000000 0.786003 0.250000
#
# Coordination Sequence:
#
# PCOD9259336 Si02
#       5
#     8   8   8   8   4
#     4  10  21  36  54  79 111 141 177 220 267 314
#     4   8  19  31  53  76 106 137 175 221 254 306
#     4  10  22  37  56  83 110 138 175 223 264 318
#     4  10  18  35  53  76 110 139 176 222 259 308
#     4  10  20  38  60  80 106 144 178 214 274 320
#
# _framework density 24.471305999999998
#
# number of rings (size 3 to 8) (size 9 to 14) (size 15 to 20)
#    0.667    1.778    0.000    2.000    0.000    4.444 
#    0.000    2.222    0.000    0.000    0.000    0.000 
#    0.000    0.000    0.000    0.000    0.000    0.000 
#
# Total GULP energy -100535.563159 kJ/mol
# GULP energy per Si atom -5585.309064 kJ/mol
# Density = 2.441561 g / cm^3
# Si number density = 24.471306 Si / 1000 Ang^3
#
#
#
# Elastic Constant Matrix: (Units=GPa)
#
#
# Indices 1 2 3 4 5 6 
#
# 1 58.0607 17.0592 20.6265 0.0000 5.9677 0.0000
# 2 17.0592 138.5226 69.3293 0.0000 -2.4611 0.0000
# 3 20.6265 69.3293 220.9837 0.0000 -1.7780 0.0000
# 4 0.0000 0.0000 0.0000 37.5751 0.0000 21.4503
# 5 5.9677 -2.4611 -1.7780 0.0000 26.6041 0.0000
# 6 0.0000 0.0000 0.0000 21.4503 0.0000 -8.8083
#
#
#
# Elastic Compliance Matrix: (Units=1/GPa)
#
#
# Indices 1 2 3 4 5 6 
#
# 1 0.018630 -0.001761 -0.001222 0.000000 -0.004424 0.000000
# 2 -0.001761 0.008740 -0.002569 0.000000 0.001032 0.000000
# 3 -0.001222 -0.002569 0.005449 0.000000 0.000401 0.000000
# 4 0.000000 0.000000 0.000000 0.011134 0.000000 0.027115
# 5 -0.004424 0.001032 0.000401 0.000000 0.038703 0.000000
# 6 0.000000 0.000000 0.000000 0.027115 0.000000 -0.047498
#
#
# Mechanical properties :
#
#
# Convention : Reuss Voigt Hill
#
# Bulk Modulus (GPa) = 46.05475 70.17743 58.11609
# Shear Modulus (GPa) = 93.45755 31.77766 62.61761
#
# Velocity S-wave (km/s) = 6.18656 3.60747 5.06396
# Velocity P-wave (km/s) = 8.36015 6.78907 7.61524
#
# Compressibility (1/GPa) = 0.02171329
#
# Stress axis : x y z
#
# Youngs Moduli (GPa) = 53.67801 114.41355 183.53399
#
# Poissons Ratio (x) = 0.20152 0.22426
# Poissons Ratio (y) = 0.09454 0.47157
# Poissons Ratio (z) = 0.06559 0.29397
#
# Static dielectric constant tensor:
#      x y z
#    x 2.099100 0.000000 0.016150 
#    y 0.000000 1.864440 0.000000 
#    z 0.016150 0.000000 2.033810 
# 
# From -- ./inp_files/6888.got.cif
#   From: 2010.05.17/outbox.cif.g08.bks.cpg/sg15_4_cif.got.tgz:6888.got - 2010.06.03 18:47:42.
