data_PCOD9259164
_publ_section_title
;
Structure prediction by ZEFSAII (Michael W. Deem and Ramdas Pophale) SiO2 
 PCOD9259164
Probable space group: C 2/C
;
_chemical_formula_sum "Si O2"
_cell_formula_units_Z 36
_cell_length_a 19.875920
_cell_length_b 16.058009
_cell_length_c 9.522066
_cell_angle_alpha 90.000000
_cell_angle_beta 38.470305
_cell_angle_gamma 90.000000
_cell_volume 1890.673649
_symmetry_space_group_name_H-M "C 2/C"
_symmetry_group_IT_number 15
_symmetry_cell_setting 'monoclinic'
loop_
_space_group_symop_operation_xyz
x,y,z
-x,y,1/2-z
-x,-y,-z
x,-y,1/2+z
1/2+x,1/2+y,z
1/2-x,1/2+y,1/2-z
1/2-x,1/2-y,-z
1/2+x,1/2-y,1/2+z
loop_
_atom_site_type_symbol
_atom_site_label
_atom_site_fract_x
_atom_site_fract_y
_atom_site_fract_z
Si Si1 0.947335 0.673811 0.479814
Si Si2 0.112575 0.032877 0.753921
Si Si3 0.500000 0.665778 0.750000
Si Si4 0.250979 0.949136 0.302974
Si Si5 0.943116 0.431521 0.492754
O O1 0.940724 0.771126 0.454678
O O2 0.834730 0.626716 0.688014
O O3 0.031048 0.653422 0.467348
O O4 0.000000 0.636906 0.250000
O O5 0.082630 0.108149 0.698866
O O6 0.171526 0.963139 0.563352
O O7 0.187633 0.059769 0.760726
O O8 0.000000 0.000000 0.000000
O O9 0.322435 0.034060 0.176659
O O10 0.000000 0.429586 0.250000
O O11 0.000000 0.500000 0.500000
#
# Coordination Sequence:
#
# PCOD9259164 Si02
#       5
#     8   8   4   8   8
#     4   9  20  40  64  95 128 157 207 273 329 366
#     4  12  23  42  61  90 127 173 219 252 306 393
#     4  10  24  44  62  88 140 166 204 272 332 358
#     4  11  20  36  68  92 117 172 216 254 313 386
#     4  10  18  34  61 100 130 154 206 268 320 376
#
# _framework density 19.040832999999999
#
# number of rings (size 3 to 8) (size 9 to 14) (size 15 to 20)
#    0.667    0.889    2.222    6.667    0.000    0.889 
#    0.000    3.333    0.000    0.000    0.000    0.000 
#    0.000    0.000    0.000    0.000    0.000    0.000 
#
# Total GULP energy -100361.133467 kJ/mol
# GULP energy per Si atom -5575.618526 kJ/mol
# Density = 1.899750 g / cm^3
# Si number density = 19.040833 Si / 1000 Ang^3
#
#
#
# Elastic Constant Matrix: (Units=GPa)
#
#
# Indices 1 2 3 4 5 6 
#
# 1 103.7765 17.5978 14.2604 0.0000 -6.5648 0.0000
# 2 17.5978 69.8769 20.5850 0.0000 -11.6511 0.0000
# 3 14.2604 20.5850 118.6599 0.0000 -0.9419 0.0000
# 4 0.0000 0.0000 0.0000 30.6625 0.0000 11.5854
# 5 -6.5648 -11.6511 -0.9419 0.0000 33.8420 0.0000
# 6 0.0000 0.0000 0.0000 11.5854 0.0000 24.5170
#
#
#
# Elastic Compliance Matrix: (Units=1/GPa)
#
#
# Indices 1 2 3 4 5 6 
#
# 1 0.010188 -0.002112 -0.000848 0.000000 0.001226 0.000000
# 2 -0.002112 0.016462 -0.002561 0.000000 0.005187 0.000000
# 3 -0.000848 -0.002561 0.008967 0.000000 -0.000797 0.000000
# 4 0.000000 0.000000 0.000000 0.039702 0.000000 -0.018761
# 5 0.001226 0.005187 -0.000797 0.000000 0.031550 0.000000
# 6 0.000000 0.000000 0.000000 -0.018761 0.000000 0.049653
#
#
# Mechanical properties :
#
#
# Convention : Reuss Voigt Hill
#
# Bulk Modulus (GPa) = 40.69015 44.13328 42.41172
# Shear Modulus (GPa) = 28.44849 33.79565 31.12207
#
# Velocity S-wave (km/s) = 3.86952 4.21753 4.04727
# Velocity P-wave (km/s) = 6.43278 6.85166 6.64552
#
# Compressibility (1/GPa) = 0.02457597
#
# Stress axis : x y z
#
# Youngs Moduli (GPa) = 98.15203 60.74653 111.51586
#
# Poissons Ratio (x) = 0.12827 0.09461
# Poissons Ratio (y) = 0.20725 0.28558
# Poissons Ratio (z) = 0.08327 0.15556
#
# Static dielectric constant tensor:
#      x y z
#    x 1.667380 0.000000 -0.002440 
#    y 0.000000 1.688380 0.000000 
#    z -0.002440 0.000000 1.671770 
# 
# From -- ./inp_files/55959.got.cif
#   From: 2010.05.17/outbox.cif.g08.bks.cpg/sg15_28_cif.got.tgz:55959.got - 2010.06.03 18:47:42.
