data_PCOD9259216
_publ_section_title
;
Structure prediction by ZEFSAII (Michael W. Deem and Ramdas Pophale) SiO2 
 PCOD9259216
Probable space group: C 2/C
;
_chemical_formula_sum "Si O2"
_cell_formula_units_Z 60
_cell_length_a 22.916811
_cell_length_b 19.076522
_cell_length_c 14.318044
_cell_angle_alpha 90.000000
_cell_angle_beta 151.299574
_cell_angle_gamma 90.000000
_cell_volume 3005.982014
_symmetry_space_group_name_H-M "C 2/C"
_symmetry_group_IT_number 15
_symmetry_cell_setting 'monoclinic'
loop_
_space_group_symop_operation_xyz
x,y,z
-x,y,1/2-z
-x,-y,-z
x,-y,1/2+z
1/2+x,1/2+y,z
1/2-x,1/2+y,1/2-z
1/2-x,1/2-y,-z
1/2+x,1/2-y,1/2+z
loop_
_atom_site_type_symbol
_atom_site_label
_atom_site_fract_x
_atom_site_fract_y
_atom_site_fract_z
Si Si1 0.720706 0.836367 0.862809
Si Si2 0.500000 0.261434 0.750000
Si Si3 0.357304 0.205324 0.040667
Si Si4 0.981168 0.335415 0.409919
Si Si5 0.753679 0.928689 0.196987
Si Si6 0.514313 0.982421 0.374355
Si Si7 0.254343 0.524050 0.491450
Si Si8 0.206427 0.878030 0.055532
O O1 0.701536 0.816170 0.943559
O O2 0.590517 0.817756 0.633867
O O3 0.776943 0.914776 0.947211
O O4 0.817549 0.782709 0.956383
O O5 0.504370 0.212133 0.663223
O O6 0.386381 0.315123 0.593831
O O7 0.500000 0.198511 0.250000
O O8 0.302487 0.147769 0.896682
O O9 0.840319 0.341220 0.242915
O O10 0.010171 0.417145 0.434668
O O11 0.829934 0.916570 0.397712
O O12 0.800065 0.956864 0.160982
O O13 0.638975 0.977355 0.060763
O O14 0.500000 0.952911 0.250000
O O15 0.393747 0.028609 0.213404
O O16 0.287103 0.444614 0.507378
#
# Coordination Sequence:
#
# PCOD9259216 Si02
#       8
#     8   4   8   8   8   8   8   8
#     4  10  20  33  56  84 112 148 194 244 294 347
#     4  12  26  42  56  84 128 164 204 242 300 376
#     4  10  19  33  52  83 119 149 183 237 300 357
#     4  11  21  37  59  85 114 151 203 254 299 346
#     4  10  18  34  62  88 118 151 198 250 303 349
#     4   9  16  30  56  86 109 134 180 253 299 328
#     4   9  19  35  57  89 116 149 196 252 295 356
#     4  11  23  40  61  85 120 164 201 248 304 363
#
# _framework density 19.960198999999999
#
# number of rings (size 3 to 8) (size 9 to 14) (size 15 to 20)
#    0.000    1.867    0.667    5.600    0.000    2.133 
#    1.200    0.667    0.000    0.000    0.000    0.000 
#    0.000    0.000    0.000    0.000    0.000    0.000 
#
# Total GULP energy -167028.026645 kJ/mol
# GULP energy per Si atom -5567.600888 kJ/mol
# Density = 1.991477 g / cm^3
# Si number density = 19.960199 Si / 1000 Ang^3
#
#
#
# Elastic Constant Matrix: (Units=GPa)
#
#
# Indices 1 2 3 4 5 6 
#
# 1 52.3863 26.0343 27.7015 0.0000 -9.7641 0.0000
# 2 26.0343 47.6923 -36.8667 0.0000 -25.4045 0.0000
# 3 27.7015 -36.8667 -103.7409 0.0000 -71.9841 0.0000
# 4 0.0000 0.0000 0.0000 23.2368 0.0000 -1.4488
# 5 -9.7641 -25.4045 -71.9841 0.0000 -9.0238 0.0000
# 6 0.0000 0.0000 0.0000 -1.4488 0.0000 39.3881
#
#
#
# Elastic Compliance Matrix: (Units=1/GPa)
#
#
# Indices 1 2 3 4 5 6 
#
# 1 0.028674 -0.007695 -0.003724 0.000000 0.020342 0.000000
# 2 -0.007695 0.018514 -0.004797 0.000000 -0.005530 0.000000
# 3 -0.003724 -0.004797 0.004652 0.000000 -0.019572 0.000000
# 4 0.000000 0.000000 0.000000 0.043134 0.000000 0.001587
# 5 0.020342 -0.005530 -0.019572 0.000000 0.038866 0.000000
# 6 0.000000 0.000000 0.000000 0.001587 0.000000 0.025447
#
#
# Mechanical properties :
#
#
# Convention : Reuss Voigt Hill
#
# Bulk Modulus (GPa) = 51.52523 3.34176 27.43350
# Shear Modulus (GPa) = 25.22859 9.35148 17.29003
#
# Velocity S-wave (km/s) = 3.55906 2.16685 2.94636
# Velocity P-wave (km/s) = 6.53905 2.81747 5.03475
#
# Compressibility (1/GPa) = 0.01940797
#
# Stress axis : x y z
#
# Youngs Moduli (GPa) = 34.87514 54.01190 214.98396
#
# Poissons Ratio (x) = 0.41563 0.80052
# Poissons Ratio (y) = 0.26837 1.03128
# Poissons Ratio (z) = 0.12986 0.25910
#
# Static dielectric constant tensor:
#      x y z
#    x 1.800690 0.000000 -0.069830 
#    y 0.000000 1.764910 0.000000 
#    z -0.069830 0.000000 1.795790 
# 
# From -- ./inp_files/174127.got.cif
#   From: 2010.05.17/outbox.cif.g08.bks.cpg/sg15_88_cif.got.tgz:174127.got - 2010.06.03 18:47:42.
