data_PCOD9259484
_publ_section_title
;
Structure prediction by ZEFSAII (Michael W. Deem and Ramdas Pophale) SiO2 
 PCOD9259484
Probable space group: C 2/C
;
_chemical_formula_sum "Si O2"
_cell_formula_units_Z 36
_cell_length_a 14.309866
_cell_length_b 11.910484
_cell_length_c 14.533575
_cell_angle_alpha 90.000000
_cell_angle_beta 32.302856
_cell_angle_gamma 90.000000
_cell_volume 1323.729960
_symmetry_space_group_name_H-M "C 2/C"
_symmetry_group_IT_number 15
_symmetry_cell_setting 'monoclinic'
loop_
_space_group_symop_operation_xyz
x,y,z
-x,y,1/2-z
-x,-y,-z
x,-y,1/2+z
1/2+x,1/2+y,z
1/2-x,1/2+y,1/2-z
1/2-x,1/2-y,-z
1/2+x,1/2-y,1/2+z
loop_
_atom_site_type_symbol
_atom_site_label
_atom_site_fract_x
_atom_site_fract_y
_atom_site_fract_z
Si Si1 0.000000 0.195138 0.250000
Si Si2 0.250555 0.998586 0.030790
Si Si3 0.998431 0.879302 0.382939
Si Si4 0.619194 0.712500 0.346427
Si Si5 0.016482 0.636328 0.399728
O O1 0.826160 0.121466 0.420750
O O2 0.944420 0.246768 0.200090
O O3 0.191925 0.923844 0.991942
O O4 0.443120 0.969343 0.906103
O O5 0.299648 0.143680 0.200666
O O6 0.007799 0.867174 0.485775
O O7 0.015586 0.749296 0.338955
O O8 0.126246 0.956658 0.218696
O O9 0.622473 0.824250 0.405938
#
# Coordination Sequence:
#
# PCOD9259484 Si02
#       5
#     4   8   8   8   8
#     4  10  24  38  52  84 118 156 170 236 276 342
#     4  10  19  34  59  84 118 135 184 226 300 318
#     4   8  17  33  56  84 108 139 176 238 262 327
#     4  10  21  36  58  81 115 145 195 220 282 313
#     4  10  18  35  58  87 102 149 184 238 255 343
#
# _framework density 27.195878
#
# number of rings (size 3 to 8) (size 9 to 14) (size 15 to 20)
#    1.333    1.333    2.222    0.667    0.000    6.222 
#    0.000    0.000    0.000   10.667    0.000    0.000 
#    0.000    0.000    0.000    0.000    0.000    0.000 
#
# Total GULP energy -100382.158844 kJ/mol
# GULP energy per Si atom -5576.786602 kJ/mol
# Density = 2.713398 g / cm^3
# Si number density = 27.195878 Si / 1000 Ang^3
#
#
#
# Elastic Constant Matrix: (Units=GPa)
#
#
# Indices 1 2 3 4 5 6 
#
# 1 163.6284 16.1897 32.2532 -0.0003 18.4230 0.0001
# 2 16.1897 60.4653 -8.1939 -0.0009 -0.7587 0.0006
# 3 32.2532 -8.1939 77.7574 -0.0008 -7.3354 0.0007
# 4 -0.0003 -0.0009 -0.0008 12.5441 0.0003 -0.2028
# 5 18.4230 -0.7587 -7.3354 0.0003 47.8917 -0.0002
# 6 0.0001 0.0006 0.0007 -0.2028 -0.0002 33.7818
#
#
#
# Elastic Compliance Matrix: (Units=1/GPa)
#
#
# Indices 1 2 3 4 5 6 
#
# 1 0.007486 -0.002550 -0.003703 0.000000 -0.003487 0.000000
# 2 -0.002550 0.017661 0.003082 0.000001 0.001733 0.000000
# 3 -0.003703 0.003082 0.015078 0.000001 0.003783 0.000000
# 4 0.000000 0.000001 0.000001 0.079726 0.000000 0.000479
# 5 -0.003487 0.001733 0.003783 0.000000 0.022829 0.000000
# 6 0.000000 0.000000 0.000000 0.000479 0.000000 0.029605
#
#
# Mechanical properties :
#
#
# Convention : Reuss Voigt Hill
#
# Bulk Modulus (GPa) = 29.51285 42.48322 35.99804
# Shear Modulus (GPa) = 26.31291 36.28368 31.29829
#
# Velocity S-wave (km/s) = 3.11389 3.65658 3.39609
# Velocity P-wave (km/s) = 4.87893 5.78641 5.35194
#
# Compressibility (1/GPa) = 0.03388355
#
# Stress axis : x y z
#
# Youngs Moduli (GPa) = 133.57817 56.62319 66.32119
#
# Poissons Ratio (x) = 0.14439 0.24558
# Poissons Ratio (y) = 0.34063 -0.20442
# Poissons Ratio (z) = 0.49463 -0.17453
#
# Static dielectric constant tensor:
#      x y z
#    x 2.112710 0.000000 -0.070970 
#    y 0.000000 2.232630 0.000000 
#    z -0.070970 0.000000 2.255120 
# 
# From -- ./inp_files/141269.got.cif
#   From: 2010.05.17/outbox.cif.g08.bks.cpg/sg15_71_cif.got.tgz:141269.got - 2010.06.03 18:47:42.
