data_PCOD9259505
_publ_section_title
;
Structure prediction by ZEFSAII (Michael W. Deem and Ramdas Pophale) SiO2 
 PCOD9259505
Probable space group: C 2/C
;
_chemical_formula_sum "Si O2"
_cell_formula_units_Z 40
_cell_length_a 8.810370
_cell_length_b 16.971986
_cell_length_c 13.055063
_cell_angle_alpha 90.000000
_cell_angle_beta 118.017009
_cell_angle_gamma 90.000000
_cell_volume 1723.344631
_symmetry_space_group_name_H-M "C 2/C"
_symmetry_group_IT_number 15
_symmetry_cell_setting 'monoclinic'
loop_
_space_group_symop_operation_xyz
x,y,z
-x,y,1/2-z
-x,-y,-z
x,-y,1/2+z
1/2+x,1/2+y,z
1/2-x,1/2+y,1/2-z
1/2-x,1/2-y,-z
1/2+x,1/2-y,1/2+z
loop_
_atom_site_type_symbol
_atom_site_label
_atom_site_fract_x
_atom_site_fract_y
_atom_site_fract_z
Si Si1 0.874653 0.926308 0.477173
Si Si2 0.005974 0.491331 0.375460
Si Si3 0.828748 0.349156 0.266215
Si Si4 0.954209 0.334802 0.615965
Si Si5 0.592337 0.710907 0.062164
O O1 0.821186 0.881326 0.354412
O O2 0.968531 0.856100 0.568204
O O3 0.695838 0.960609 0.461973
O O4 0.000000 0.000000 0.500000
O O5 0.974374 0.580749 0.395604
O O6 0.000000 0.497724 0.250000
O O7 0.870021 0.422874 0.354083
O O8 0.821083 0.269630 0.328373
O O9 0.000000 0.338411 0.250000
O O10 0.745742 0.334148 0.552035
O O11 0.001981 0.267879 0.549539
O O12 0.000000 0.321385 0.750000
#
# Coordination Sequence:
#
# PCOD9259505 Si02
#       5
#     8   8   8   8   8
#     4  10  18  35  59  79 109 155 186 225 290 339
#     4   8  17  34  55  76 111 148 182 223 283 337
#     4   9  21  37  56  83 113 149 191 232 281 338
#     4  10  20  35  54  84 112 148 188 232 285 334
#     4  11  21  33  59  84 111 146 190 241 275 329
#
# _framework density 23.210678999999999
#
# number of rings (size 3 to 8) (size 9 to 14) (size 15 to 20)
#    0.000    2.800    2.000    1.200    0.000    4.000 
#    0.000    0.000    4.400    0.000    0.000    0.000 
#    0.000    0.000    0.000    0.000    0.000    0.000 
#
# Total GULP energy -111504.002598 kJ/mol
# GULP energy per Si atom -5575.200130 kJ/mol
# Density = 2.315785 g / cm^3
# Si number density = 23.210679 Si / 1000 Ang^3
#
#
#
# Elastic Constant Matrix: (Units=GPa)
#
#
# Indices 1 2 3 4 5 6 
#
# 1 34.0797 32.0697 18.3583 0.0000 -1.2990 0.0000
# 2 32.0697 175.7440 46.2120 0.0000 17.5843 0.0000
# 3 18.3583 46.2120 86.3930 0.0000 -5.0683 0.0000
# 4 0.0000 0.0000 0.0000 31.2748 0.0000 -0.6400
# 5 -1.2990 17.5843 -5.0683 0.0000 35.3767 0.0000
# 6 0.0000 0.0000 0.0000 -0.6400 0.0000 0.7299
#
#
#
# Elastic Compliance Matrix: (Units=1/GPa)
#
#
# Indices 1 2 3 4 5 6 
#
# 1 0.037620 -0.006044 -0.004542 0.000000 0.003735 0.000000
# 2 -0.006044 0.008151 -0.003354 0.000000 -0.004754 0.000000
# 3 -0.004542 -0.003354 0.014545 0.000000 0.003584 0.000000
# 4 0.000000 0.000000 0.000000 0.032559 0.000000 0.028549
# 5 0.003735 -0.004754 0.003584 0.000000 0.031281 0.000000
# 6 0.000000 0.000000 0.000000 0.028549 0.000000 1.395002
#
#
# Mechanical properties :
#
#
# Convention : Reuss Voigt Hill
#
# Bulk Modulus (GPa) = 30.83166 54.38851 42.61008
# Shear Modulus (GPa) = 3.20955 26.78140 14.99548
#
# Velocity S-wave (km/s) = 1.17720 3.40051 2.54453
# Velocity P-wave (km/s) = 3.89358 6.23709 5.19910
#
# Compressibility (1/GPa) = 0.03243420
#
# Stress axis : x y z
#
# Youngs Moduli (GPa) = 26.58172 122.68831 68.75354
#
# Poissons Ratio (x) = 0.74156 0.31227
# Poissons Ratio (y) = 0.16067 0.23062
# Poissons Ratio (z) = 0.12073 0.41154
#
# Static dielectric constant tensor:
#      x y z
#    x 1.852830 0.000000 -0.030560 
#    y 0.000000 1.905040 0.000000 
#    z -0.030560 0.000000 1.963340 
# 
# From -- ./inp_files/199353.got.cif
#   From: 2010.05.17/outbox.cif.g08.bks.cpg/sg15_100_cif.got.tgz:199353.got - 2010.06.03 18:47:42.
