data_PCOD9259250
_publ_section_title
;
Structure prediction by ZEFSAII (Michael W. Deem and Ramdas Pophale) SiO2 
 PCOD9259250
Probable space group: C 2/C
;
_chemical_formula_sum "Si O2"
_cell_formula_units_Z 52
_cell_length_a 8.909397
_cell_length_b 32.862639
_cell_length_c 13.908133
_cell_angle_alpha 90.000000
_cell_angle_beta 47.129058
_cell_angle_gamma 90.000000
_cell_volume 2984.401266
_symmetry_space_group_name_H-M "C 2/C"
_symmetry_group_IT_number 15
_symmetry_cell_setting 'monoclinic'
loop_
_space_group_symop_operation_xyz
x,y,z
-x,y,1/2-z
-x,-y,-z
x,-y,1/2+z
1/2+x,1/2+y,z
1/2-x,1/2+y,1/2-z
1/2-x,1/2-y,-z
1/2+x,1/2-y,1/2+z
loop_
_atom_site_type_symbol
_atom_site_label
_atom_site_fract_x
_atom_site_fract_y
_atom_site_fract_z
Si Si1 0.000000 0.948675 0.750000
Si Si2 0.500000 0.064414 0.750000
Si Si3 0.684650 0.505720 0.346431
Si Si4 0.789078 0.385012 0.510146
Si Si5 0.510707 0.857248 0.897139
Si Si6 0.949550 0.183877 0.164075
Si Si7 0.000000 0.573373 0.250000
Si Si8 0.208163 0.717537 0.100968
O O1 0.891795 0.978332 0.722113
O O2 0.160405 0.918793 0.626465
O O3 0.614307 0.092637 0.622912
O O4 0.669596 0.033748 0.721027
O O5 0.500000 0.500000 0.500000
O O6 0.809477 0.543814 0.332289
O O7 0.628613 0.348252 0.560543
O O8 0.968805 0.366893 0.499525
O O9 0.735620 0.839977 0.771924
O O10 0.487561 0.898217 0.847770
O O11 0.345948 0.824992 0.929679
O O12 0.891252 0.212759 0.099506
O O13 0.000000 0.201071 0.250000
O O14 0.000000 0.728073 0.250000
O O15 0.250000 0.750000 0.000000
#
# Coordination Sequence:
#
# PCOD9259250 Si02
#       8
#     4   4   8   8   8   8   4   8
#     4  12  20  36  64  76 113 157 203 237 294 354
#     4  11  26  38  54  84 127 150 188 263 312 328
#     4  11  24  36  54  85 118 152 194 250 305 341
#     4  11  20  38  59  86 111 153 207 244 281 350
#     4  10  18  34  63  86 106 156 202 226 276 364
#     4   9  17  34  63  89 108 155 203 228 274 358
#     4  11  18  34  60  86 102 157 207 234 274 364
#     4  10  21  39  62  90 125 150 189 240 295 354
#
# _framework density 17.423931
#
# number of rings (size 3 to 8) (size 9 to 14) (size 15 to 20)
#    0.000    1.538    7.692    0.000    0.000    1.846 
#    2.769    6.923    0.000    0.000    0.000    0.000 
#    0.000    0.000    0.000    0.000    0.000    0.000 
#
# Total GULP energy -144907.878978 kJ/mol
# GULP energy per Si atom -5573.379961 kJ/mol
# Density = 1.738427 g / cm^3
# Si number density = 17.423931 Si / 1000 Ang^3
#
#
#
# Elastic Constant Matrix: (Units=GPa)
#
#
# Indices 1 2 3 4 5 6 
#
# 1 138.2039 50.7876 40.6321 0.0000 11.6366 0.0000
# 2 50.7876 75.6412 44.3129 0.0000 12.7108 0.0000
# 3 40.6321 44.3129 90.1874 0.0000 15.2541 0.0000
# 4 0.0000 0.0000 0.0000 29.9203 0.0000 8.6114
# 5 11.6366 12.7108 15.2541 0.0000 21.4797 0.0000
# 6 0.0000 0.0000 0.0000 8.6114 0.0000 39.1523
#
#
#
# Elastic Compliance Matrix: (Units=1/GPa)
#
#
# Indices 1 2 3 4 5 6 
#
# 1 0.009795 -0.005513 -0.001544 0.000000 -0.000948 0.000000
# 2 -0.005513 0.022176 -0.007612 0.000000 -0.004730 0.000000
# 3 -0.001544 -0.007612 0.016616 0.000000 -0.006459 0.000000
# 4 0.000000 0.000000 0.000000 0.035681 0.000000 -0.007848
# 5 -0.000948 -0.004730 -0.006459 0.000000 0.054455 0.000000
# 6 0.000000 0.000000 0.000000 -0.007848 0.000000 0.027267
#
#
# Mechanical properties :
#
#
# Convention : Reuss Voigt Hill
#
# Bulk Modulus (GPa) = 51.94984 63.94419 57.94701
# Shear Modulus (GPa) = 24.78353 29.33046 27.05699
#
# Velocity S-wave (km/s) = 3.77554 4.10731 3.94491
# Velocity P-wave (km/s) = 6.99187 7.69883 7.35385
#
# Compressibility (1/GPa) = 0.01924934
#
# Stress axis : x y z
#
# Youngs Moduli (GPa) = 102.08881 45.09311 60.18164
#
# Poissons Ratio (x) = 0.24860 0.09292
# Poissons Ratio (y) = 0.56283 0.45812
# Poissons Ratio (z) = 0.15762 0.34326
#
# Static dielectric constant tensor:
#      x y z
#    x 1.622710 0.000000 0.013880 
#    y 0.000000 1.586510 0.000000 
#    z 0.013880 0.000000 1.570060 
# 
# From -- ./inp_files/139762.got.cif
#   From: 2010.05.17/outbox.cif.g08.bks.cpg/sg15_70_cif.got.tgz:139762.got - 2010.06.03 18:47:42.
