data_PCOD9259990
_publ_section_title
;
Structure prediction by ZEFSAII (Michael W. Deem and Ramdas Pophale) SiO2 
 PCOD9259990
Probable space group: C 2/C
;
_chemical_formula_sum "Si O2"
_cell_formula_units_Z 40
_cell_length_a 11.180344
_cell_length_b 10.955330
_cell_length_c 28.008780
_cell_angle_alpha 90.000000
_cell_angle_beta 150.931370
_cell_angle_gamma 90.000000
_cell_volume 1666.798900
_symmetry_space_group_name_H-M "C 2/C"
_symmetry_group_IT_number 15
_symmetry_cell_setting 'monoclinic'
loop_
_space_group_symop_operation_xyz
x,y,z
-x,y,1/2-z
-x,-y,-z
x,-y,1/2+z
1/2+x,1/2+y,z
1/2-x,1/2+y,1/2-z
1/2-x,1/2-y,-z
1/2+x,1/2-y,1/2+z
loop_
_atom_site_type_symbol
_atom_site_label
_atom_site_fract_x
_atom_site_fract_y
_atom_site_fract_z
Si Si1 0.432180 0.863784 0.075184
Si Si2 0.314704 0.114923 0.930621
Si Si3 0.345781 0.253555 0.386165
Si Si4 0.026794 0.009287 0.616605
Si Si5 0.873651 0.793401 0.783332
O O1 0.649978 0.859407 0.112388
O O2 0.560498 0.837154 0.169942
O O3 0.250000 0.750000 0.000000
O O4 0.234023 0.972271 0.999925
O O5 0.061680 0.076866 0.865828
O O6 0.419850 0.222904 0.000331
O O7 0.500000 0.000000 0.000000
O O8 0.330936 0.397338 0.368094
O O9 0.334023 0.195152 0.329239
O O10 0.124440 0.194398 0.339505
O O11 0.152553 0.888674 0.682466
#
# Coordination Sequence:
#
# PCOD9259990 Si02
#       5
#     8   8   8   8   8
#     4   9  17  37  57  81 118 153 190 240 298 354
#     4  10  18  36  60  86 110 153 201 237 293 359
#     4  11  21  37  61  87 119 153 204 244 300 362
#     4  10  21  36  62  87 111 165 197 243 302 353
#     4  10  22  40  57  86 123 154 194 248 309 353
#
# _framework density 23.998097000000001
#
# number of rings (size 3 to 8) (size 9 to 14) (size 15 to 20)
#    0.000    2.000    6.000    0.600    0.000    4.000 
#    0.000    0.000    8.800    0.000    0.000    0.000 
#    0.000    0.000    0.000    0.000    0.000    0.000 
#
# Total GULP energy -111400.401598 kJ/mol
# GULP energy per Si atom -5570.020080 kJ/mol
# Density = 2.394348 g / cm^3
# Si number density = 23.998097 Si / 1000 Ang^3
#
#
#
# Elastic Constant Matrix: (Units=GPa)
#
#
# Indices 1 2 3 4 5 6 
#
# 1 40.7580 11.9563 0.8105 0.0000 -7.9575 0.0000
# 2 11.9563 67.0321 -0.7491 0.0000 -6.1306 0.0000
# 3 0.8105 -0.7491 59.6045 0.0002 -19.7494 0.0001
# 4 0.0000 0.0000 0.0002 18.2769 0.0000 -10.9785
# 5 -7.9575 -6.1306 -19.7494 0.0000 37.9744 0.0000
# 6 0.0000 0.0000 0.0001 -10.9785 0.0000 43.0241
#
#
#
# Elastic Compliance Matrix: (Units=1/GPa)
#
#
# Indices 1 2 3 4 5 6 
#
# 1 0.026868 -0.004254 0.001473 0.000000 0.005710 0.000000
# 2 -0.004254 0.015888 0.000981 0.000000 0.002184 0.000000
# 3 0.001473 0.000981 0.020448 0.000000 0.011101 0.000000
# 4 0.000000 0.000000 0.000000 0.064618 0.000000 0.016489
# 5 0.005710 0.002184 0.011101 0.000000 0.033656 0.000000
# 6 0.000000 0.000000 0.000000 0.016489 0.000000 0.027450
#
#
# Mechanical properties :
#
#
# Convention : Reuss Voigt Hill
#
# Bulk Modulus (GPa) = 16.77725 21.27000 19.02363
# Shear Modulus (GPa) = 23.54093 30.21354 26.87724
#
# Velocity S-wave (km/s) = 3.13541 3.55208 3.35023
# Velocity P-wave (km/s) = 4.48486 5.07006 4.78641
#
# Compressibility (1/GPa) = 0.05960451
#
# Stress axis : x y z
#
# Youngs Moduli (GPa) = 37.21851 62.94203 48.90479
#
# Poissons Ratio (x) = 0.26774 -0.07204
# Poissons Ratio (y) = 0.15832 -0.04798
# Poissons Ratio (z) = -0.05482 -0.06175
#
# Static dielectric constant tensor:
#      x y z
#    x 1.939110 0.000000 0.049140 
#    y 0.000000 2.046920 0.000000 
#    z 0.049140 0.000000 2.043540 
# 
# From -- ./inp_files/292120.got.cif
#   From: 2010.05.17/outbox.cif.g08.bks.cpg/sg15_147_cif.got.tgz:292120.got - 2010.06.03 18:47:42.
