data_PCOD9259941
_publ_section_title
;
Structure prediction by ZEFSAII (Michael W. Deem and Ramdas Pophale) SiO2 
 PCOD9259941
Probable space group: C 2/C
;
_chemical_formula_sum "Si O2"
_cell_formula_units_Z 40
_cell_length_a 18.717818
_cell_length_b 14.253853
_cell_length_c 15.216782
_cell_angle_alpha 90.000000
_cell_angle_beta 22.807494
_cell_angle_gamma 90.000000
_cell_volume 1573.745841
_symmetry_space_group_name_H-M "C 2/C"
_symmetry_group_IT_number 15
_symmetry_cell_setting 'monoclinic'
loop_
_space_group_symop_operation_xyz
x,y,z
-x,y,1/2-z
-x,-y,-z
x,-y,1/2+z
1/2+x,1/2+y,z
1/2-x,1/2+y,1/2-z
1/2-x,1/2-y,-z
1/2+x,1/2-y,1/2+z
loop_
_atom_site_type_symbol
_atom_site_label
_atom_site_fract_x
_atom_site_fract_y
_atom_site_fract_z
Si Si1 0.278278 0.418623 0.819988
Si Si2 0.598109 0.320083 0.223897
Si Si3 0.777926 0.084196 0.684558
Si Si4 0.777692 0.994770 0.997948
Si Si5 0.732957 0.716353 0.306422
O O1 0.252908 0.514823 0.795032
O O2 0.499916 0.398311 0.574772
O O3 0.209628 0.429173 0.996672
O O4 0.182289 0.340057 0.869961
O O5 0.500000 0.275539 0.250000
O O6 0.424263 0.355925 0.478788
O O7 0.671476 0.247666 0.211934
O O8 0.769140 0.100121 0.965449
O O9 0.686240 0.182967 0.815465
O O10 0.710231 0.035655 0.670596
O O11 0.000000 0.985125 0.750000
#
# Coordination Sequence:
#
# PCOD9259941 Si02
#       5
#     8   8   8   8   8
#     4  10  18  36  59  85 127 165 210 247 313 375
#     4  11  22  38  61  95 125 160 210 263 313 364
#     4  10  20  37  61  92 123 168 213 256 301 378
#     4   9  18  35  62  88 117 167 219 247 287 379
#     4  12  21  37  64  94 127 161 208 269 310 367
#
# _framework density 25.417064
#
# number of rings (size 3 to 8) (size 9 to 14) (size 15 to 20)
#    0.000    1.600    4.000    4.200    0.000    0.800 
#    0.000    1.000    0.000    0.000    0.000    0.000 
#    0.000    0.000    0.000    0.000    0.000    0.000 
#
# Total GULP energy -111505.977086 kJ/mol
# GULP energy per Si atom -5575.298854 kJ/mol
# Density = 2.535921 g / cm^3
# Si number density = 25.417064 Si / 1000 Ang^3
#
#
#
# Elastic Constant Matrix: (Units=GPa)
#
#
# Indices 1 2 3 4 5 6 
#
# 1 211.1120 68.5232 28.4711 0.0000 41.7097 -0.0006
# 2 68.5232 127.9980 16.5941 0.0011 8.9517 -0.0015
# 3 28.4711 16.5941 58.0641 0.0028 11.6206 -0.0003
# 4 0.0000 0.0011 0.0028 19.6427 -0.0014 11.9827
# 5 41.7097 8.9517 11.6206 -0.0014 27.6386 0.0004
# 6 -0.0006 -0.0015 -0.0003 11.9827 0.0004 54.8684
#
#
#
# Elastic Compliance Matrix: (Units=1/GPa)
#
#
# Indices 1 2 3 4 5 6 
#
# 1 0.008101 -0.003478 -0.000827 -0.000001 -0.010752 0.000000
# 2 -0.003478 0.009690 -0.001623 0.000000 0.002793 0.000000
# 3 -0.000827 -0.001623 0.019366 -0.000004 -0.006369 0.000001
# 4 -0.000001 0.000000 -0.000004 0.058734 0.000006 -0.012827
# 5 -0.010752 0.002793 -0.006369 0.000006 0.054181 -0.000002
# 6 0.000000 0.000000 0.000001 -0.012827 -0.000002 0.021027
#
#
# Mechanical properties :
#
#
# Convention : Reuss Voigt Hill
#
# Bulk Modulus (GPa) = 39.52162 69.37233 54.44698
# Shear Modulus (GPa) = 26.12493 39.33565 32.73029
#
# Velocity S-wave (km/s) = 3.20949 3.93823 3.59239
# Velocity P-wave (km/s) = 5.41456 6.93054 6.21892
#
# Compressibility (1/GPa) = 0.02530260
#
# Stress axis : x y z
#
# Youngs Moduli (GPa) = 123.43394 103.20333 51.63645
#
# Poissons Ratio (x) = 0.35894 0.04269
# Poissons Ratio (y) = 0.42930 0.08379
# Poissons Ratio (z) = 0.10204 0.16747
#
# Static dielectric constant tensor:
#      x y z
#    x 2.033010 0.000000 -0.104390 
#    y 0.000000 2.054220 0.000000 
#    z -0.104390 0.000000 2.156170 
# 
# From -- ./inp_files/37790.got.cif
#   From: 2010.05.17/outbox.cif.g08.bks.cpg/sg15_19_cif.got.tgz:37790.got - 2010.06.03 18:47:42.
