data_PCOD9259954
_publ_section_title
;
Structure prediction by ZEFSAII (Michael W. Deem and Ramdas Pophale) SiO2 
 PCOD9259954
Probable space group: C 2/C
;
_chemical_formula_sum "Si O2"
_cell_formula_units_Z 40
_cell_length_a 28.672598
_cell_length_b 10.640081
_cell_length_c 16.290600
_cell_angle_alpha 90.000000
_cell_angle_beta 18.767842
_cell_angle_gamma 90.000000
_cell_volume 1598.992614
_symmetry_space_group_name_H-M "C 2/C"
_symmetry_group_IT_number 15
_symmetry_cell_setting 'monoclinic'
loop_
_space_group_symop_operation_xyz
x,y,z
-x,y,1/2-z
-x,-y,-z
x,-y,1/2+z
1/2+x,1/2+y,z
1/2-x,1/2+y,1/2-z
1/2-x,1/2-y,-z
1/2+x,1/2-y,1/2+z
loop_
_atom_site_type_symbol
_atom_site_label
_atom_site_fract_x
_atom_site_fract_y
_atom_site_fract_z
Si Si1 0.276440 0.863876 0.517270
Si Si2 0.500000 0.358962 0.250000
Si Si3 0.144804 0.088086 0.765369
Si Si4 0.965331 0.269761 0.976136
Si Si5 0.271710 0.435509 0.186200
Si Si6 0.500000 0.229145 0.750000
O O1 0.250000 0.750000 0.500000
O O2 0.166683 0.821112 0.773039
O O3 0.437019 0.854516 0.283202
O O4 0.244550 0.003801 0.539003
O O5 0.522664 0.275642 0.292633
O O6 0.359322 0.444656 0.505706
O O7 0.222819 0.074207 0.723478
O O8 0.092209 0.226625 0.827843
O O9 0.000000 0.000000 0.000000
O O10 0.882163 0.401152 0.099204
O O11 0.378532 0.321582 0.985099
#
# Coordination Sequence:
#
# PCOD9259954 Si02
#       6
#     8   4   8   8   8   4
#     4  10  19  32  58  95 128 164 219 274 322 397
#     4  11  20  40  63  94 130 175 216 272 333 384
#     4  10  18  36  59  93 125 168 216 269 328 388
#     4  10  22  35  63  95 129 172 221 268 331 395
#     4  10  20  36  61  90 131 166 219 270 323 392
#     4   9  18  30  53  90 116 163 208 260 317 376
#
# _framework density 25.015751000000002
#
# number of rings (size 3 to 8) (size 9 to 14) (size 15 to 20)
#    0.000    2.000    4.000    2.400    5.600    0.000 
#    0.000    2.000    0.000    1.200    0.000    0.000 
#    0.000    0.000    0.000    0.000    0.000    0.000 
#
# Total GULP energy -111381.995248 kJ/mol
# GULP energy per Si atom -5569.099762 kJ/mol
# Density = 2.495881 g / cm^3
# Si number density = 25.015751 Si / 1000 Ang^3
#
#
#
# Elastic Constant Matrix: (Units=GPa)
#
#
# Indices 1 2 3 4 5 6 
#
# 1 73.5530 12.1447 14.7630 0.0000 9.8814 0.0000
# 2 12.1447 49.8944 24.9397 0.0000 0.7036 0.0000
# 3 14.7630 24.9397 40.0454 0.0000 6.2434 0.0000
# 4 0.0000 0.0000 0.0000 1.0025 0.0000 -12.0537
# 5 9.8814 0.7036 6.2434 0.0000 36.9248 0.0000
# 6 0.0000 0.0000 0.0000 -12.0537 0.0000 16.4591
#
#
#
# Elastic Compliance Matrix: (Units=1/GPa)
#
#
# Indices 1 2 3 4 5 6 
#
# 1 0.015122 -0.001607 -0.004055 0.000000 -0.003331 0.000000
# 2 -0.001607 0.029513 -0.018248 0.000000 0.002953 0.000000
# 3 -0.004055 -0.018248 0.038626 0.000000 -0.005098 0.000000
# 4 0.000000 0.000000 0.000000 -0.127795 0.000000 -0.093590
# 5 -0.003331 0.002953 -0.005098 0.000000 0.028779 0.000000
# 6 0.000000 0.000000 0.000000 -0.093590 0.000000 -0.007784
#
#
# Mechanical properties :
#
#
# Convention : Reuss Voigt Hill
#
# Bulk Modulus (GPa) = 28.21578 29.68751 28.95165
# Shear Modulus (GPa) = 138.51737 18.32030 78.41884
#
# Velocity S-wave (km/s) = 7.44931 2.70913 5.60498
# Velocity P-wave (km/s) = 9.23544 4.65609 7.31343
#
# Compressibility (1/GPa) = 0.03544116
#
# Stress axis : x y z
#
# Youngs Moduli (GPa) = 66.12758 33.88295 25.88917
#
# Poissons Ratio (x) = 0.05446 0.10497
# Poissons Ratio (y) = 0.10628 0.47244
# Poissons Ratio (z) = 0.26813 0.61831
#
# Static dielectric constant tensor:
#      x y z
#    x 1.599280 0.000000 0.434910 
#    y 0.000000 2.144670 0.000000 
#    z 0.434910 0.000000 1.698840 
# 
# From -- ./inp_files/141951.got.cif
#   From: 2010.05.17/outbox.cif.g08.bks.cpg/sg15_71_cif.got.tgz:141951.got - 2010.06.03 18:47:42.
