data_PCOD9259108
_publ_section_title
;
Structure prediction by ZEFSAII (Michael W. Deem and Ramdas Pophale) SiO2 
 PCOD9259108
Probable space group: C 2/C
;
_chemical_formula_sum "Si O2"
_cell_formula_units_Z 44
_cell_length_a 6.938108
_cell_length_b 12.443166
_cell_length_c 25.397641
_cell_angle_alpha 90.000000
_cell_angle_beta 126.736042
_cell_angle_gamma 90.000000
_cell_volume 1757.172607
_symmetry_space_group_name_H-M "C 2/C"
_symmetry_group_IT_number 15
_symmetry_cell_setting 'monoclinic'
loop_
_space_group_symop_operation_xyz
x,y,z
-x,y,1/2-z
-x,-y,-z
x,-y,1/2+z
1/2+x,1/2+y,z
1/2-x,1/2+y,1/2-z
1/2-x,1/2-y,-z
1/2+x,1/2-y,1/2+z
loop_
_atom_site_type_symbol
_atom_site_label
_atom_site_fract_x
_atom_site_fract_y
_atom_site_fract_z
Si Si1 0.340819 0.031624 0.790112
Si Si2 0.393316 0.969687 0.571007
Si Si3 0.213858 0.734462 0.104743
Si Si4 0.921639 0.899422 0.559907
Si Si5 0.378101 0.425442 0.343618
Si Si6 0.000000 0.162543 0.250000
O O1 0.157542 0.102807 0.724208
O O2 0.608549 0.034789 0.811399
O O3 0.216576 0.914989 0.767773
O O4 0.417021 0.041092 0.863659
O O5 0.529695 0.863963 0.574124
O O6 0.280701 0.046071 0.508847
O O7 0.169421 0.919008 0.568336
O O8 0.354759 0.716995 0.072961
O O9 0.071972 0.839509 0.101832
O O10 0.403998 0.726882 0.184248
O O11 0.955102 0.973867 0.617345
#
# Coordination Sequence:
#
# PCOD9259108 Si02
#       6
#     8   8   8   8   8   4
#     4   9  18  36  56  82 117 159 194 259 303 366
#     4   9  21  38  62  87 123 161 209 239 318 381
#     4  11  21  37  61  91 116 163 207 257 310 378
#     4  10  20  41  60  87 123 168 197 257 313 375
#     4  10  20  36  60  85 122 153 206 261 306 360
#     4  10  18  34  60  82 114 160 210 244 322 372
#
# _framework density 25.040227000000002
#
# number of rings (size 3 to 8) (size 9 to 14) (size 15 to 20)
#    0.000    2.182    1.818    1.636    0.000    0.727 
#    3.273    8.182    0.000    0.000    0.000    0.000 
#    0.000    0.000    0.000    0.000    0.000    0.000 
#
# Total GULP energy -122579.322619 kJ/mol
# GULP energy per Si atom -5571.787392 kJ/mol
# Density = 2.498323 g / cm^3
# Si number density = 25.040227 Si / 1000 Ang^3
#
#
#
# Elastic Constant Matrix: (Units=GPa)
#
#
# Indices 1 2 3 4 5 6 
#
# 1 84.8907 18.7193 16.7536 0.0000 -6.7316 0.0000
# 2 18.7193 64.8789 16.6900 0.0000 6.0228 0.0000
# 3 16.7536 16.6900 121.5144 0.0000 -1.4306 0.0000
# 4 0.0000 0.0000 0.0000 30.8762 0.0000 -14.3928
# 5 -6.7316 6.0228 -1.4306 0.0000 31.0898 0.0000
# 6 0.0000 0.0000 0.0000 -14.3928 0.0000 -15.9289
#
#
#
# Elastic Compliance Matrix: (Units=1/GPa)
#
#
# Indices 1 2 3 4 5 6 
#
# 1 0.013143 -0.003798 -0.001249 0.000000 0.003524 0.000000
# 2 -0.003798 0.017400 -0.001917 0.000000 -0.004281 0.000000
# 3 -0.001249 -0.001917 0.008671 0.000000 0.000500 0.000000
# 4 0.000000 0.000000 0.000000 0.022789 0.000000 -0.020591
# 5 0.003524 -0.004281 0.000500 0.000000 0.033780 0.000000
# 6 0.000000 0.000000 0.000000 -0.020591 0.000000 -0.044174
#
#
# Mechanical properties :
#
#
# Convention : Reuss Voigt Hill
#
# Bulk Modulus (GPa) = 39.54674 41.73444 40.64059
# Shear Modulus (GPa) = 67.59912 23.81551 45.70732
#
# Velocity S-wave (km/s) = 5.20142 3.08732 4.27705
# Velocity P-wave (km/s) = 7.20421 5.42327 6.37623
#
# Compressibility (1/GPa) = 0.02528653
#
# Stress axis : x y z
#
# Youngs Moduli (GPa) = 76.08437 57.47240 115.32954
#
# Poissons Ratio (x) = 0.21828 0.14404
# Poissons Ratio (y) = 0.28897 0.22104
# Poissons Ratio (z) = 0.09503 0.11015
#
# Static dielectric constant tensor:
#      x y z
#    x 2.123630 0.000000 -0.161200 
#    y 0.000000 1.992640 0.000000 
#    z -0.161200 0.000000 2.088170 
# 
# From -- ./inp_files/230134.got.cif
#   From: 2010.05.17/outbox.cif.g08.bks.cpg/sg15_116_cif.got.tgz:230134.got - 2010.06.03 18:47:42.
