data_PCOD9259332
_publ_section_title
;
Structure prediction by ZEFSAII (Michael W. Deem and Ramdas Pophale) SiO2 
 PCOD9259332
Probable space group: C 2/C
;
_chemical_formula_sum "Si O2"
_cell_formula_units_Z 56
_cell_length_a 26.270728
_cell_length_b 17.096000
_cell_length_c 20.689404
_cell_angle_alpha 90.000000
_cell_angle_beta 159.827285
_cell_angle_gamma 90.000000
_cell_volume 3204.397510
_symmetry_space_group_name_H-M "C 2/C"
_symmetry_group_IT_number 15
_symmetry_cell_setting 'monoclinic'
loop_
_space_group_symop_operation_xyz
x,y,z
-x,y,1/2-z
-x,-y,-z
x,-y,1/2+z
1/2+x,1/2+y,z
1/2-x,1/2+y,1/2-z
1/2-x,1/2-y,-z
1/2+x,1/2-y,1/2+z
loop_
_atom_site_type_symbol
_atom_site_label
_atom_site_fract_x
_atom_site_fract_y
_atom_site_fract_z
Si Si1 0.363612 0.526933 0.670967
Si Si2 0.397095 0.702003 0.688875
Si Si3 0.695852 0.514791 0.052751
Si Si4 0.600496 0.046441 0.433557
Si Si5 0.878564 0.299115 0.459377
Si Si6 0.518323 0.050074 0.587776
Si Si7 0.358854 0.838554 0.819604
O O1 0.357194 0.620157 0.671900
O O2 0.323422 0.516806 0.547668
O O3 0.237804 0.497549 0.568722
O O4 0.531616 0.503465 0.884189
O O5 0.500000 0.685155 0.750000
O O6 0.250000 0.750000 0.500000
O O7 0.498462 0.751879 0.855227
O O8 0.768163 0.596914 0.166788
O O9 0.804747 0.443413 0.198933
O O10 0.500000 0.065935 0.250000
O O11 0.650024 0.123577 0.532161
O O12 0.517530 0.996703 0.389470
O O13 0.739721 0.239645 0.289511
O O14 0.977673 0.323060 0.515578
O O15 0.403298 0.119781 0.439744
O O16 0.500000 0.000000 0.500000
#
# Coordination Sequence:
#
# PCOD9259332 Si02
#       7
#     8   8   8   8   8   8   8
#     4  11  19  30  50  83 113 141 194 238 278 334
#     4  12  20  28  43  74 120 155 177 226 276 334
#     4  10  18  35  52  76 116 156 184 233 286 339
#     4  12  21  34  58  92 119 150 197 239 283 349
#     4  12  21  33  52  82 115 153 197 222 283 346
#     4  10  21  41  56  73 121 167 192 227 295 353
#     4  11  22  38  54  77 116 166 194 228 285 352
#
# _framework density 17.475985000000001
#
# number of rings (size 3 to 8) (size 9 to 14) (size 15 to 20)
#    0.000    0.857    7.143    4.714    0.000    0.000 
#    0.000    4.286    0.000    0.000    0.000    1.000 
#    0.000    0.000    0.000    0.000    0.000    0.000 
#
# Total GULP energy -155869.714774 kJ/mol
# GULP energy per Si atom -5566.775528 kJ/mol
# Density = 1.743621 g / cm^3
# Si number density = 17.475985 Si / 1000 Ang^3
#
#
#
# Elastic Constant Matrix: (Units=GPa)
#
#
# Indices 1 2 3 4 5 6 
#
# 1 53.8446 7.9414 31.2098 0.0020 12.4628 0.0009
# 2 7.9414 36.7609 34.9901 0.0017 -6.3456 0.0013
# 3 31.2098 34.9901 121.6273 0.0006 16.4725 -0.0002
# 4 0.0020 0.0017 0.0006 31.0709 0.0014 -3.3010
# 5 12.4628 -6.3456 16.4725 0.0014 23.6022 0.0009
# 6 0.0009 0.0013 -0.0002 -3.3010 0.0009 6.3960
#
#
#
# Elastic Compliance Matrix: (Units=1/GPa)
#
#
# Indices 1 2 3 4 5 6 
#
# 1 0.023718 -0.003663 -0.003537 -0.000001 -0.011040 -0.000002
# 2 -0.003663 0.048308 -0.016542 -0.000005 0.026467 -0.000016
# 3 -0.003537 -0.016542 0.015724 0.000002 -0.013554 0.000007
# 4 -0.000001 -0.000005 0.000002 0.034052 -0.000005 0.017574
# 5 -0.011040 0.026467 -0.013554 -0.000005 0.064774 -0.000016
# 6 -0.000002 -0.000016 0.000007 0.017574 -0.000016 0.165417
#
#
# Mechanical properties :
#
#
# Convention : Reuss Voigt Hill
#
# Bulk Modulus (GPa) = 24.83489 40.05729 32.44609
# Shear Modulus (GPa) = 12.10952 21.41992 16.76472
#
# Velocity S-wave (km/s) = 2.63520 3.50477 3.10062
# Velocity P-wave (km/s) = 4.84776 6.27287 5.60579
#
# Compressibility (1/GPa) = 0.04026592
#
# Stress axis : x y z
#
# Youngs Moduli (GPa) = 42.16269 20.70048 63.59692
#
# Poissons Ratio (x) = 0.07582 0.22495
# Poissons Ratio (y) = 0.15443 1.05203
# Poissons Ratio (z) = 0.14914 0.34243
#
# Static dielectric constant tensor:
#      x y z
#    x 1.664840 0.000000 0.030820 
#    y 0.000000 1.725730 0.000000 
#    z 0.030820 0.000000 1.631870 
# 
# From -- ./inp_files/258019.got.cif
#   From: 2010.05.17/outbox.cif.g08.bks.cpg/sg15_130_cif.got.tgz:258019.got - 2010.06.03 18:47:42.
