data_PCOD9259090
_publ_section_title
;
Structure prediction by ZEFSAII (Michael W. Deem and Ramdas Pophale) SiO2 
 PCOD9259090
Probable space group: C 2/C
;
_chemical_formula_sum "Si O2"
_cell_formula_units_Z 40
_cell_length_a 14.060727
_cell_length_b 18.499599
_cell_length_c 14.966790
_cell_angle_alpha 90.000000
_cell_angle_beta 31.213489
_cell_angle_gamma 90.000000
_cell_volume 2017.529722
_symmetry_space_group_name_H-M "C 2/C"
_symmetry_group_IT_number 15
_symmetry_cell_setting 'monoclinic'
loop_
_space_group_symop_operation_xyz
x,y,z
-x,y,1/2-z
-x,-y,-z
x,-y,1/2+z
1/2+x,1/2+y,z
1/2-x,1/2+y,1/2-z
1/2-x,1/2-y,-z
1/2+x,1/2-y,1/2+z
loop_
_atom_site_type_symbol
_atom_site_label
_atom_site_fract_x
_atom_site_fract_y
_atom_site_fract_z
Si Si1 0.602671 0.341860 0.535959
Si Si2 0.221318 0.701646 0.934252
Si Si3 0.813440 0.565696 0.435664
Si Si4 0.535600 0.661498 0.546560
Si Si5 0.500000 0.784642 0.250000
Si Si6 0.500000 0.463312 0.750000
O O1 0.573732 0.356399 0.454752
O O2 0.516934 0.269309 0.650541
O O3 0.817334 0.332225 0.387023
O O4 0.507838 0.409481 0.660377
O O5 0.399515 0.674733 0.739100
O O6 0.250000 0.750000 0.000000
O O7 0.122281 0.630920 0.050720
O O8 0.120764 0.759990 0.954681
O O9 0.687686 0.604518 0.459799
O O10 0.678689 0.513191 0.597185
O O11 0.000000 0.531010 0.250000
#
# Coordination Sequence:
#
# PCOD9259090 Si02
#       6
#     8   8   8   8   4   4
#     4  10  22  39  67  90 123 163 210 267 307 375
#     4  10  18  34  59  90 126 160 198 256 317 357
#     4  11  22  40  61  89 128 171 203 247 320 384
#     4  11  20  36  62  95 124 158 218 265 301 367
#     4   9  20  42  62  92 119 162 212 262 329 348
#     4  11  24  44  62  86 133 172 204 250 325 378
#
# _framework density 19.826225000000001
#
# number of rings (size 3 to 8) (size 9 to 14) (size 15 to 20)
#    0.000    1.600    2.000    5.400    1.400    0.800 
#    0.000    3.000    0.000    0.000    0.000    0.000 
#    0.000    0.000    0.000    0.000    0.000    0.000 
#
# Total GULP energy -111462.675634 kJ/mol
# GULP energy per Si atom -5573.133782 kJ/mol
# Density = 1.978110 g / cm^3
# Si number density = 19.826225 Si / 1000 Ang^3
#
#
#
# Elastic Constant Matrix: (Units=GPa)
#
#
# Indices 1 2 3 4 5 6 
#
# 1 83.1615 28.3784 38.0136 0.0019 17.6018 -0.0012
# 2 28.3784 80.6513 38.5588 0.0085 -3.4620 -0.0043
# 3 38.0136 38.5588 144.5224 0.0104 -4.1129 -0.0049
# 4 0.0019 0.0085 0.0104 35.5735 -0.0037 -2.0848
# 5 17.6018 -3.4620 -4.1129 -0.0037 23.9568 0.0014
# 6 -0.0012 -0.0043 -0.0049 -2.0848 0.0014 0.2246
#
#
#
# Elastic Compliance Matrix: (Units=1/GPa)
#
#
# Indices 1 2 3 4 5 6 
#
# 1 0.018952 -0.005429 -0.003974 0.000001 -0.015391 0.000024
# 2 -0.005429 0.015815 -0.002626 0.000018 0.005823 0.000345
# 3 -0.003974 -0.002626 0.008780 0.000009 0.004048 0.000180
# 4 0.000001 0.000018 0.000009 0.061664 -0.000022 0.572519
# 5 -0.015391 0.005823 0.004048 -0.000022 0.054587 -0.000436
# 6 0.000024 0.000345 0.000180 0.572519 -0.000436 9.768881
#
#
# Mechanical properties :
#
#
# Convention : Reuss Voigt Hill
#
# Bulk Modulus (GPa) = 51.31164 57.58187 54.44675
# Shear Modulus (GPa) = 0.50205 25.50995 13.00600
#
# Velocity S-wave (km/s) = 0.50376 3.59092 2.56403
# Velocity P-wave (km/s) = 5.12594 6.80436 6.02389
#
# Compressibility (1/GPa) = 0.01948876
#
# Stress axis : x y z
#
# Youngs Moduli (GPa) = 52.76530 63.23261 113.88920
#
# Poissons Ratio (x) = 0.34329 0.45264
# Poissons Ratio (y) = 0.28646 0.29903
# Poissons Ratio (z) = 0.20971 0.16603
#
# Static dielectric constant tensor:
#      x y z
#    x 1.745290 0.000000 -0.033720 
#    y 0.000000 1.755600 0.000000 
#    z -0.033720 0.000000 1.734230 
# 
# From -- ./inp_files/66960.got.cif
#   From: 2010.05.17/outbox.cif.g08.bks.cpg/sg15_34_cif.got.tgz:66960.got - 2010.06.03 18:47:42.
