data_PCOD9259881
_publ_section_title
;
Structure prediction by ZEFSAII (Michael W. Deem and Ramdas Pophale) SiO2 
 PCOD9259881
Probable space group: C 2/C
;
_chemical_formula_sum "Si O2"
_cell_formula_units_Z 52
_cell_length_a 14.082960
_cell_length_b 9.959166
_cell_length_c 20.053762
_cell_angle_alpha 90.000000
_cell_angle_beta 106.199485
_cell_angle_gamma 90.000000
_cell_volume 2700.958931
_symmetry_space_group_name_H-M "C 2/C"
_symmetry_group_IT_number 15
_symmetry_cell_setting 'monoclinic'
loop_
_space_group_symop_operation_xyz
x,y,z
-x,y,1/2-z
-x,-y,-z
x,-y,1/2+z
1/2+x,1/2+y,z
1/2-x,1/2+y,1/2-z
1/2-x,1/2-y,-z
1/2+x,1/2-y,1/2+z
loop_
_atom_site_type_symbol
_atom_site_label
_atom_site_fract_x
_atom_site_fract_y
_atom_site_fract_z
Si Si1 0.396308 0.051277 0.644228
Si Si2 0.838388 0.727452 0.069251
Si Si3 0.705461 0.530225 0.843149
Si Si4 0.239368 0.262757 0.576869
Si Si5 0.055277 0.213730 0.629262
Si Si6 0.500000 0.460192 0.250000
Si Si7 0.606635 0.001912 0.701068
O O1 0.352337 0.928218 0.592392
O O2 0.511918 0.081203 0.653540
O O3 0.393789 0.002443 0.719793
O O4 0.331094 0.181579 0.624252
O O5 0.949723 0.772726 0.071221
O O6 0.814600 0.827004 0.126188
O O7 0.750000 0.750000 0.000000
O O8 0.751509 0.419171 0.901560
O O9 0.601726 0.473330 0.794737
O O10 0.787781 0.550545 0.803145
O O11 0.250000 0.250000 0.500000
O O12 0.142253 0.195761 0.592060
O O13 0.037430 0.118497 0.690193
O O14 0.084974 0.353323 0.670132
#
# Coordination Sequence:
#
# PCOD9259881 Si02
#       7
#     8   8   8   8   8   4   8
#     4  10  20  35  58  80 107 140 181 227 262 319
#     4  10  20  37  57  79 102 142 191 219 251 320
#     4  10  21  36  57  79 109 141 176 227 271 318
#     4  11  23  38  52  80 119 150 171 212 282 334
#     4   9  19  36  59  79 110 145 176 227 275 318
#     4  10  18  36  58  84 104 136 188 230 272 308
#     4   9  18  35  57  82 103 137 185 225 271 309
#
# _framework density 19.252421999999999
#
# number of rings (size 3 to 8) (size 9 to 14) (size 15 to 20)
#    0.000    2.154    0.000    4.615    0.000    3.692 
#    0.000   16.154    0.000    0.000    0.000    0.000 
#    0.000    0.000    0.000    0.000    0.000    0.000 
#
# Total GULP energy -144789.065061 kJ/mol
# GULP energy per Si atom -5568.810195 kJ/mol
# Density = 1.920860 g / cm^3
# Si number density = 19.252422 Si / 1000 Ang^3
#
#
#
# Elastic Constant Matrix: (Units=GPa)
#
#
# Indices 1 2 3 4 5 6 
#
# 1 146.2170 12.0785 40.4990 0.0000 -1.6613 0.0000
# 2 12.0785 23.9548 -3.4887 0.0000 0.6585 0.0000
# 3 40.4990 -3.4887 86.0498 0.0000 6.3854 0.0000
# 4 0.0000 0.0000 0.0000 16.7545 0.0000 2.8597
# 5 -1.6613 0.6585 6.3854 0.0000 32.9029 0.0000
# 6 0.0000 0.0000 0.0000 2.8597 0.0000 22.4647
#
#
#
# Elastic Compliance Matrix: (Units=1/GPa)
#
#
# Indices 1 2 3 4 5 6 
#
# 1 0.008445 -0.004918 -0.004274 0.000000 0.001354 0.000000
# 2 -0.004918 0.044903 0.004282 0.000000 -0.001978 0.000000
# 3 -0.004274 0.004282 0.014031 0.000000 -0.003024 0.000000
# 4 0.000000 0.000000 0.000000 0.061011 0.000000 -0.007766
# 5 0.001354 -0.001978 -0.003024 0.000000 0.031087 0.000000
# 6 0.000000 0.000000 0.000000 -0.007766 0.000000 0.045503
#
#
# Mechanical properties :
#
#
# Convention : Reuss Voigt Hill
#
# Bulk Modulus (GPa) = 17.37380 39.37769 28.37575
# Shear Modulus (GPa) = 21.36877 28.23328 24.80103
#
# Velocity S-wave (km/s) = 3.33517 3.83362 3.59305
# Velocity P-wave (km/s) = 4.88620 6.33193 5.65545
#
# Compressibility (1/GPa) = 0.05755794
#
# Stress axis : x y z
#
# Youngs Moduli (GPa) = 118.41786 22.27027 71.27130
#
# Poissons Ratio (x) = 0.10952 0.30464
# Poissons Ratio (y) = 0.58235 -0.30517
# Poissons Ratio (z) = 0.50616 -0.09536
#
# Static dielectric constant tensor:
#      x y z
#    x 1.707130 0.000000 0.002170 
#    y 0.000000 1.660700 0.000000 
#    z 0.002170 0.000000 1.674620 
# 
# From -- ./inp_files/243131.got.cif
#   From: 2010.05.17/outbox.cif.g08.bks.cpg/sg15_122_cif.got.tgz:243131.got - 2010.06.03 18:47:42.
