data_PCOD9259900
_publ_section_title
;
Structure prediction by ZEFSAII (Michael W. Deem and Ramdas Pophale) SiO2 
 PCOD9259900
Probable space group: C 2/C
;
_chemical_formula_sum "Si O2"
_cell_formula_units_Z 64
_cell_length_a 29.411049
_cell_length_b 20.827825
_cell_length_c 16.193063
_cell_angle_alpha 90.000000
_cell_angle_beta 19.653824
_cell_angle_gamma 90.000000
_cell_volume 3336.240165
_symmetry_space_group_name_H-M "C 2/C"
_symmetry_group_IT_number 15
_symmetry_cell_setting 'monoclinic'
loop_
_space_group_symop_operation_xyz
x,y,z
-x,y,1/2-z
-x,-y,-z
x,-y,1/2+z
1/2+x,1/2+y,z
1/2-x,1/2+y,1/2-z
1/2-x,1/2-y,-z
1/2+x,1/2-y,1/2+z
loop_
_atom_site_type_symbol
_atom_site_label
_atom_site_fract_x
_atom_site_fract_y
_atom_site_fract_z
Si Si1 0.164386 0.404662 0.624037
Si Si2 0.515530 0.211188 0.316505
Si Si3 0.778445 0.868121 0.740202
Si Si4 0.108483 0.534781 0.631215
Si Si5 0.502468 0.283655 0.885950
Si Si6 0.557428 0.664363 0.834196
Si Si7 0.212611 0.224082 0.889386
Si Si8 0.567189 0.135410 0.465436
O O1 0.154997 0.476605 0.608219
O O2 0.316422 0.382126 0.379463
O O3 0.082112 0.391137 0.848365
O O4 0.098735 0.354274 0.672470
O O5 0.500000 0.235481 0.250000
O O6 0.592116 0.265268 0.238502
O O7 0.366504 0.202955 0.611201
O O8 0.716206 0.801887 0.883347
O O9 0.713687 0.869008 0.760004
O O10 0.937149 0.860971 0.481912
O O11 0.725591 0.929295 0.880604
O O12 0.000000 0.509731 0.750000
O O13 0.031915 0.589852 0.813582
O O14 0.493903 0.324032 0.984325
O O15 0.380691 0.296355 0.028812
O O16 0.484334 0.208647 0.941620
O O17 0.639081 0.295285 0.599874
#
# Coordination Sequence:
#
# PCOD9259900 Si02
#       8
#     8   8   8   8   8   8   8   8
#     4  12  24  36  56  85 118 156 183 237 290 344
#     4  11  23  36  54  87 125 154 187 227 292 349
#     4   9  20  37  59  83 106 151 191 240 278 333
#     4  10  21  41  61  80 107 145 197 242 285 337
#     4  10  18  36  58  87 115 145 195 236 286 333
#     4  11  24  35  57  87 120 154 185 235 289 348
#     4   9  19  34  60  83 115 154 186 239 279 337
#     4  10  20  37  60  82 113 144 200 240 277 339
#
# _framework density 19.18327
#
# number of rings (size 3 to 8) (size 9 to 14) (size 15 to 20)
#    0.000    1.750    2.500    1.875    5.250    3.500 
#    0.000    0.000    0.000    1.500    0.000    0.000 
#    0.000    0.000    0.000    0.000    0.000    0.000 
#
# Total GULP energy -178722.049013 kJ/mol
# GULP energy per Si atom -5585.064032 kJ/mol
# Density = 1.913961 g / cm^3
# Si number density = 19.183270 Si / 1000 Ang^3
#
#
#
# Elastic Constant Matrix: (Units=GPa)
#
#
# Indices 1 2 3 4 5 6 
#
# 1 51.9749 7.5679 18.7557 0.0001 1.7442 -0.0002
# 2 7.5679 40.5325 9.7717 0.0005 -14.2584 0.0003
# 3 18.7557 9.7717 52.8119 0.0006 -10.7266 0.0001
# 4 0.0001 0.0005 0.0006 8.5350 -0.0002 -3.9811
# 5 1.7442 -14.2584 -10.7266 -0.0002 34.0112 0.0001
# 6 -0.0002 0.0003 0.0001 -3.9811 0.0001 15.4869
#
#
#
# Elastic Compliance Matrix: (Units=1/GPa)
#
#
# Indices 1 2 3 4 5 6 
#
# 1 0.023148 -0.004249 -0.008588 0.000001 -0.005677 0.000001
# 2 -0.004249 0.030198 -0.001563 -0.000002 0.012385 -0.000001
# 3 -0.008588 -0.001563 0.023752 -0.000002 0.007276 -0.000001
# 4 0.000001 -0.000002 -0.000002 0.133127 0.000000 0.034222
# 5 -0.005677 0.012385 0.007276 0.000000 0.037180 -0.000001
# 6 0.000001 -0.000001 -0.000001 0.034222 -0.000001 0.073368
#
#
# Mechanical properties :
#
#
# Convention : Reuss Voigt Hill
#
# Bulk Modulus (GPa) = 20.70414 24.16775 22.43595
# Shear Modulus (GPa) = 13.67344 18.88823 16.28083
#
# Velocity S-wave (km/s) = 2.67269 3.14127 2.91641
# Velocity P-wave (km/s) = 4.51005 5.07764 4.80224
#
# Compressibility (1/GPa) = 0.04829952
#
# Stress axis : x y z
#
# Youngs Moduli (GPa) = 43.19993 33.11440 42.10151
#
# Poissons Ratio (x) = 0.14069 0.36156
# Poissons Ratio (y) = 0.18354 0.06581
# Poissons Ratio (z) = 0.37099 0.05176
#
# Static dielectric constant tensor:
#      x y z
#    x 1.694070 0.000000 -0.008430 
#    y 0.000000 1.636100 0.000000 
#    z -0.008430 0.000000 1.668800 
# 
# From -- ./inp_files/183126.got.cif
#   From: 2010.05.17/outbox.cif.g08.bks.cpg/sg15_92_cif.got.tgz:183126.got - 2010.06.03 18:47:42.
