data_PCOD9259273
_publ_section_title
;
Structure prediction by ZEFSAII (Michael W. Deem and Ramdas Pophale) SiO2 
 PCOD9259273
Probable space group: C 2/C
;
_chemical_formula_sum "Si O2"
_cell_formula_units_Z 48
_cell_length_a 10.106349
_cell_length_b 11.843190
_cell_length_c 22.811045
_cell_angle_alpha 90.000000
_cell_angle_beta 124.112073
_cell_angle_gamma 90.000000
_cell_volume 2260.519091
_symmetry_space_group_name_H-M "C 2/C"
_symmetry_group_IT_number 15
_symmetry_cell_setting 'monoclinic'
loop_
_space_group_symop_operation_xyz
x,y,z
-x,y,1/2-z
-x,-y,-z
x,-y,1/2+z
1/2+x,1/2+y,z
1/2-x,1/2+y,1/2-z
1/2-x,1/2-y,-z
1/2+x,1/2-y,1/2+z
loop_
_atom_site_type_symbol
_atom_site_label
_atom_site_fract_x
_atom_site_fract_y
_atom_site_fract_z
Si Si1 0.518048 0.736901 0.046882
Si Si2 0.555940 0.038958 0.948524
Si Si3 0.093560 0.614005 0.180835
Si Si4 0.776594 0.137414 0.544815
Si Si5 0.261310 0.070666 0.159853
Si Si6 0.622255 0.665212 0.613710
O O1 0.407655 0.829390 0.051094
O O2 0.665883 0.825663 0.071438
O O3 0.599857 0.633182 0.099376
O O4 0.435306 0.700104 0.965816
O O5 0.434154 0.987514 0.871562
O O6 0.500000 0.000000 0.000000
O O7 0.717607 0.964351 0.988946
O O8 0.206631 0.587946 0.263416
O O9 0.154343 0.721381 0.158737
O O10 0.914290 0.624955 0.164244
O O11 0.750000 0.250000 0.500000
O O12 0.960035 0.119160 0.604194
O O13 0.247439 0.936566 0.144207
#
# Coordination Sequence:
#
# PCOD9259273 Si02
#       6
#     8   8   8   8   8   8
#     4  10  19  36  61  92 114 156 208 245 306 360
#     4  10  18  34  64  88 117 162 197 255 305 351
#     4  11  22  42  59  87 126 160 200 255 307 362
#     4   9  15  32  60  83 113 149 199 247 290 345
#     4  11  25  37  62  92 119 165 203 243 317 372
#     4  11  20  40  64  84 120 158 206 254 289 370
#
# _framework density 21.234062999999999
#
# number of rings (size 3 to 8) (size 9 to 14) (size 15 to 20)
#    0.000    1.667    6.667    1.500    2.333    0.000 
#    0.000    3.333    0.000    0.000    0.000    0.000 
#    0.000    0.000    0.000    0.000    0.000    0.000 
#
# Total GULP energy -133665.275213 kJ/mol
# GULP energy per Si atom -5569.386467 kJ/mol
# Density = 2.118573 g / cm^3
# Si number density = 21.234063 Si / 1000 Ang^3
#
#
#
# Elastic Constant Matrix: (Units=GPa)
#
#
# Indices 1 2 3 4 5 6 
#
# 1 23.8253 10.8535 7.8970 0.0000 -3.3677 0.0000
# 2 10.8535 151.7808 64.3138 0.0000 -7.4249 0.0000
# 3 7.8970 64.3138 142.7120 0.0000 -29.2671 0.0000
# 4 0.0000 0.0000 0.0000 27.0036 0.0000 -6.2962
# 5 -3.3677 -7.4249 -29.2671 0.0000 21.2967 0.0000
# 6 0.0000 0.0000 0.0000 -6.2962 0.0000 21.4644
#
#
#
# Elastic Compliance Matrix: (Units=1/GPa)
#
#
# Indices 1 2 3 4 5 6 
#
# 1 0.044123 -0.002909 0.000129 0.000000 0.006140 0.000000
# 2 -0.002909 0.008482 -0.004385 0.000000 -0.003529 0.000000
# 3 0.000129 -0.004385 0.012068 0.000000 0.015076 0.000000
# 4 0.000000 0.000000 0.000000 0.039751 0.000000 0.011660
# 5 0.006140 -0.003529 0.015076 0.000000 0.067414 0.000000
# 6 0.000000 0.000000 0.000000 0.011660 0.000000 0.050009
#
#
# Mechanical properties :
#
#
# Convention : Reuss Voigt Hill
#
# Bulk Modulus (GPa) = 19.86458 53.82742 36.84600
# Shear Modulus (GPa) = 19.76608 29.63653 24.70130
#
# Velocity S-wave (km/s) = 3.05432 3.73997 3.41440
# Velocity P-wave (km/s) = 4.67053 6.63735 5.73883
#
# Compressibility (1/GPa) = 0.05034086
#
# Stress axis : x y z
#
# Youngs Moduli (GPa) = 22.66411 117.89686 82.86390
#
# Poissons Ratio (x) = 0.34299 -0.01066
# Poissons Ratio (y) = 0.06594 0.36338
# Poissons Ratio (z) = -0.00292 0.51701
#
# Static dielectric constant tensor:
#      x y z
#    x 2.213760 0.000000 0.015710 
#    y 0.000000 1.916940 0.000000 
#    z 0.015710 0.000000 1.730470 
# 
# From -- ./inp_files/269025.got.cif
#   From: 2010.05.17/outbox.cif.g08.bks.cpg/sg15_135_cif.got.tgz:269025.got - 2010.06.03 18:47:42.
