data_PCOD9259280
_publ_section_title
;
Structure prediction by ZEFSAII (Michael W. Deem and Ramdas Pophale) SiO2 
 PCOD9259280
Probable space group: C 2/C
;
_chemical_formula_sum "Si O2"
_cell_formula_units_Z 36
_cell_length_a 5.633645
_cell_length_b 18.866991
_cell_length_c 19.035023
_cell_angle_alpha 90.000000
_cell_angle_beta 74.220360
_cell_angle_gamma 90.000000
_cell_volume 1946.985151
_symmetry_space_group_name_H-M "C 2/C"
_symmetry_group_IT_number 15
_symmetry_cell_setting 'monoclinic'
loop_
_space_group_symop_operation_xyz
x,y,z
-x,y,1/2-z
-x,-y,-z
x,-y,1/2+z
1/2+x,1/2+y,z
1/2-x,1/2+y,1/2-z
1/2-x,1/2-y,-z
1/2+x,1/2-y,1/2+z
loop_
_atom_site_type_symbol
_atom_site_label
_atom_site_fract_x
_atom_site_fract_y
_atom_site_fract_z
Si Si1 0.000000 0.551782 0.250000
Si Si2 0.949438 0.847888 0.675696
Si Si3 0.477771 0.286066 0.524289
Si Si4 0.670665 0.436824 0.011724
Si Si5 0.652639 0.971129 0.883520
O O1 0.789528 0.603492 0.295742
O O2 0.912019 0.508087 0.190502
O O3 0.920455 0.795839 0.612105
O O4 0.000000 0.817322 0.750000
O O5 0.161835 0.904726 0.638551
O O6 0.250000 0.250000 0.500000
O O7 0.473204 0.364483 0.490403
O O8 0.750000 0.250000 0.500000
O O9 0.744138 0.460919 0.083812
O O10 0.500000 0.500000 0.000000
O O11 0.918944 0.441118 0.945337
#
# Coordination Sequence:
#
# PCOD9259280 Si02
#       5
#     4   8   8   8   8
#     4  10  18  34  64  94 122 156 234 270 320 384
#     4  10  21  38  64  94 123 170 222 273 317 395
#     4  12  26  42  64 100 136 173 220 266 331 398
#     4  11  21  37  63  92 131 163 213 268 328 380
#     4  10  19  34  63  94 125 158 221 274 322 374
#
# _framework density 18.490124999999999
#
# number of rings (size 3 to 8) (size 9 to 14) (size 15 to 20)
#    0.000    1.333    4.444    1.333    6.222    0.000 
#    0.000    0.000    2.444    2.667    0.000    0.000 
#    0.000    0.000    0.000    0.000    0.000    0.000 
#
# Total GULP energy -100337.874339 kJ/mol
# GULP energy per Si atom -5574.326352 kJ/mol
# Density = 1.844804 g / cm^3
# Si number density = 18.490125 Si / 1000 Ang^3
#
#
#
# Elastic Constant Matrix: (Units=GPa)
#
#
# Indices 1 2 3 4 5 6 
#
# 1 137.6400 58.9067 75.5203 0.0000 4.3309 0.0000
# 2 58.9067 99.9062 44.3693 0.0000 12.7742 0.0000
# 3 75.5203 44.3693 164.1845 0.0000 37.1178 0.0000
# 4 0.0000 0.0000 0.0000 36.6761 0.0000 13.0654
# 5 4.3309 12.7742 37.1178 0.0000 56.0513 0.0000
# 6 0.0000 0.0000 0.0000 13.0654 0.0000 26.0119
#
#
#
# Elastic Compliance Matrix: (Units=1/GPa)
#
#
# Indices 1 2 3 4 5 6 
#
# 1 0.012201 -0.005455 -0.004947 0.000000 0.003576 0.000000
# 2 -0.005455 0.013833 -0.000720 0.000000 -0.002255 0.000000
# 3 -0.004947 -0.000720 0.009923 0.000000 -0.006025 0.000000
# 4 0.000000 0.000000 0.000000 0.033208 0.000000 -0.016680
# 5 0.003576 -0.002255 -0.006025 0.000000 0.022068 0.000000
# 6 0.000000 0.000000 0.000000 -0.016680 0.000000 0.046822
#
#
# Mechanical properties :
#
#
# Convention : Reuss Voigt Hill
#
# Bulk Modulus (GPa) = 72.91069 84.36926 78.63997
# Shear Modulus (GPa) = 30.32717 38.61014 34.46865
#
# Velocity S-wave (km/s) = 4.05431 4.57458 4.32228
# Velocity P-wave (km/s) = 7.83801 8.58084 8.21782
#
# Compressibility (1/GPa) = 0.01371541
#
# Stress axis : x y z
#
# Youngs Moduli (GPa) = 81.95778 72.28875 100.78044
#
# Poissons Ratio (x) = 0.39430 0.49853
# Poissons Ratio (y) = 0.44704 0.07253
# Poissons Ratio (z) = 0.40542 0.05203
#
# Static dielectric constant tensor:
#      x y z
#    x 1.738160 0.000000 0.101280 
#    y 0.000000 1.611410 0.000000 
#    z 0.101280 0.000000 1.734560 
# 
# From -- ./inp_files/184102.got.cif
#   From: 2010.05.17/outbox.cif.g08.bks.cpg/sg15_93_cif.got.tgz:184102.got - 2010.06.03 18:47:42.
