data_PCOD9259932
_publ_section_title
;
Structure prediction by ZEFSAII (Michael W. Deem and Ramdas Pophale) SiO2 
 PCOD9259932
Probable space group: C 2/C
;
_chemical_formula_sum "Si O2"
_cell_formula_units_Z 40
_cell_length_a 10.115295
_cell_length_b 25.491977
_cell_length_c 8.976038
_cell_angle_alpha 90.000000
_cell_angle_beta 52.350045
_cell_angle_gamma 90.000000
_cell_volume 1832.562806
_symmetry_space_group_name_H-M "C 2/C"
_symmetry_group_IT_number 15
_symmetry_cell_setting 'monoclinic'
loop_
_space_group_symop_operation_xyz
x,y,z
-x,y,1/2-z
-x,-y,-z
x,-y,1/2+z
1/2+x,1/2+y,z
1/2-x,1/2+y,1/2-z
1/2-x,1/2-y,-z
1/2+x,1/2-y,1/2+z
loop_
_atom_site_type_symbol
_atom_site_label
_atom_site_fract_x
_atom_site_fract_y
_atom_site_fract_z
Si Si1 0.266766 0.021624 0.660385
Si Si2 0.000000 0.905895 0.250000
Si Si3 0.500000 0.932130 0.750000
Si Si4 0.000000 0.740821 0.250000
Si Si5 0.729819 0.101431 0.347533
Si Si6 0.841210 0.821760 0.560145
Si Si7 0.000000 0.573428 0.750000
O O1 0.356505 0.036560 0.441752
O O2 0.400201 0.039850 0.693145
O O3 0.102648 0.056646 0.788712
O O4 0.218354 0.960274 0.693287
O O5 0.870679 0.868684 0.422448
O O6 0.411633 0.898523 0.683639
O O7 0.164694 0.706761 0.161201
O O8 0.972759 0.778075 0.413798
O O9 0.851575 0.147501 0.210410
O O10 0.637704 0.107172 0.567837
#
# Coordination Sequence:
#
# PCOD9259932 Si02
#       7
#     8   4   4   4   8   8   4
#     4  11  21  37  58  93 139 173 215 246 295 390
#     4  11  24  36  61 101 133 169 204 257 316 378
#     4  10  18  36  59  82 124 185 216 239 280 379
#     4   9  21  41  66  94 116 148 237 292 304 360
#     4  11  19  35  61  89 129 171 208 250 314 375
#     4  10  21  39  64  95 118 160 212 282 322 352
#     4  10  23  35  58  95 129 176 215 244 298 391
#
# _framework density 21.827356000000002
#
# number of rings (size 3 to 8) (size 9 to 14) (size 15 to 20)
#    0.000    1.600    2.000    5.400    2.800    0.800 
#    0.000    0.000    0.000    1.200    0.000    0.000 
#    0.000    0.000    0.000    0.000    0.000    0.000 
#
# Total GULP energy -111516.314653 kJ/mol
# GULP energy per Si atom -5575.815733 kJ/mol
# Density = 2.177768 g / cm^3
# Si number density = 21.827356 Si / 1000 Ang^3
#
#
#
# Elastic Constant Matrix: (Units=GPa)
#
#
# Indices 1 2 3 4 5 6 
#
# 1 46.1620 18.8867 6.5857 0.0000 -8.9139 0.0000
# 2 18.8867 134.7779 69.6561 0.0000 -19.1467 0.0000
# 3 6.5857 69.6561 152.3887 0.0000 3.4105 0.0000
# 4 0.0000 0.0000 0.0000 -186.1240 0.0000 -329.7245
# 5 -8.9139 -19.1467 3.4105 0.0000 31.4904 0.0000
# 6 0.0000 0.0000 0.0000 -329.7245 0.0000 -419.6769
#
#
#
# Elastic Compliance Matrix: (Units=1/GPa)
#
#
# Indices 1 2 3 4 5 6 
#
# 1 0.023716 -0.002631 0.000063 0.000000 0.005107 0.000000
# 2 -0.002631 0.011491 -0.005291 0.000000 0.006815 0.000000
# 3 0.000063 -0.005291 0.009072 0.000000 -0.004182 0.000000
# 4 0.000000 0.000000 0.000000 0.013712 0.000000 -0.010773
# 5 0.005107 0.006815 -0.004182 0.000000 0.037798 0.000000
# 6 0.000000 0.000000 0.000000 -0.010773 0.000000 0.006081
#
#
# Mechanical properties :
#
#
# Convention : Reuss Voigt Hill
#
# Bulk Modulus (GPa) = 35.01205 58.17619 46.59412
# Shear Modulus (GPa) = 39.33646 -98.98210 -29.82282
#
# Velocity S-wave (km/s) = 4.24979 -6.74138 -3.70037
# Velocity P-wave (km/s) = 6.33690 5.82101 1.77089
#
# Compressibility (1/GPa) = 0.02856159
#
# Stress axis : x y z
#
# Youngs Moduli (GPa) = 42.16512 87.02370 110.23306
#
# Poissons Ratio (x) = 0.22892 -0.00696
# Poissons Ratio (y) = 0.11092 0.58328
# Poissons Ratio (z) = -0.00266 0.46048
#
# Static dielectric constant tensor:
#      x y z
#    x 1.821150 0.000000 -0.039790 
#    y 0.000000 1.864040 0.000000 
#    z -0.039790 0.000000 1.892510 
# 
# From -- ./inp_files/33356.got.cif
#   From: 2010.05.17/outbox.cif.g08.bks.cpg/sg15_17_cif.got.tgz:33356.got - 2010.06.03 18:47:42.
