data_PCOD9259324
_publ_section_title
;
Structure prediction by ZEFSAII (Michael W. Deem and Ramdas Pophale) SiO2 
 PCOD9259324
Probable space group: C 2/C
;
_chemical_formula_sum "Si O2"
_cell_formula_units_Z 60
_cell_length_a 22.299987
_cell_length_b 17.910218
_cell_length_c 8.716918
_cell_angle_alpha 90.000000
_cell_angle_beta 120.027808
_cell_angle_gamma 90.000000
_cell_volume 3014.236410
_symmetry_space_group_name_H-M "C 2/C"
_symmetry_group_IT_number 15
_symmetry_cell_setting 'monoclinic'
loop_
_space_group_symop_operation_xyz
x,y,z
-x,y,1/2-z
-x,-y,-z
x,-y,1/2+z
1/2+x,1/2+y,z
1/2-x,1/2+y,1/2-z
1/2-x,1/2-y,-z
1/2+x,1/2-y,1/2+z
loop_
_atom_site_type_symbol
_atom_site_label
_atom_site_fract_x
_atom_site_fract_y
_atom_site_fract_z
Si Si1 0.364827 0.456621 0.991580
Si Si2 0.173405 0.888652 0.099981
Si Si3 0.356952 0.790033 0.223784
Si Si4 0.000000 0.035110 0.250000
Si Si5 0.176651 0.565071 0.694876
Si Si6 0.287555 0.915641 0.613632
Si Si7 0.715009 0.233732 0.196544
Si Si8 0.077279 0.145658 0.183383
O O1 0.349981 0.530918 0.869136
O O2 0.293582 0.438281 0.984495
O O3 0.384604 0.387318 0.913587
O O4 0.433380 0.482626 0.167118
O O5 0.250613 0.905977 0.138854
O O6 0.181248 0.812944 0.206475
O O7 0.125181 0.871588 0.893012
O O8 0.374488 0.873282 0.301909
O O9 0.294181 0.753980 0.247447
O O10 0.422457 0.734527 0.321103
O O11 0.325618 0.788710 0.011641
O O12 0.990318 0.094336 0.377499
O O13 0.172484 0.478628 0.734627
O O14 0.185476 0.577103 0.524855
O O15 0.291571 0.833357 0.692121
#
# Coordination Sequence:
#
# PCOD9259324 Si02
#       8
#     8   8   8   4   8   8   8   8
#     4  10  20  32  50  67 103 143 176 218 246 289
#     4   8  19  28  48  68  94 126 174 204 253 303
#     4   9  17  31  51  67  99 128 172 211 262 300
#     4  10  22  32  48  72  96 136 198 218 244 284
#     4  10  21  30  45  74  98 135 164 208 245 320
#     4  11  21  31  50  72 107 135 174 199 262 306
#     4   9  16  31  48  68  96 134 163 210 250 316
#     4  10  18  35  49  70  93 137 172 224 257 297
#
# _framework density 19.905539000000001
#
# number of rings (size 3 to 8) (size 9 to 14) (size 15 to 20)
#    0.000    2.400    1.333    2.000   11.200    2.133 
#    0.000    0.000    0.000    0.000    0.000    0.000 
#    0.000   17.067    0.000    5.867    2.400    3.733 
#
# Total GULP energy -167018.847106 kJ/mol
# GULP energy per Si atom -5567.294904 kJ/mol
# Density = 1.986023 g / cm^3
# Si number density = 19.905539 Si / 1000 Ang^3
#
#
#
# Elastic Constant Matrix: (Units=GPa)
#
#
# Indices 1 2 3 4 5 6 
#
# 1 10.8163 0.4127 10.6727 0.0000 -0.5809 0.0000
# 2 0.4127 90.3484 12.6474 0.0000 9.2180 0.0000
# 3 10.6727 12.6474 33.9261 0.0000 -7.8323 0.0000
# 4 0.0000 0.0000 0.0000 21.5767 0.0000 -6.2633
# 5 -0.5809 9.2180 -7.8323 0.0000 14.3103 0.0000
# 6 0.0000 0.0000 0.0000 -6.2633 0.0000 24.6870
#
#
#
# Elastic Compliance Matrix: (Units=1/GPa)
#
#
# Indices 1 2 3 4 5 6 
#
# 1 0.147465 0.010771 -0.057948 0.000000 -0.032668 0.000000
# 2 0.010771 0.014328 -0.012316 0.000000 -0.015533 0.000000
# 3 -0.057948 -0.012316 0.061335 0.000000 0.039150 0.000000
# 4 0.000000 0.000000 0.000000 0.050031 0.000000 0.012693
# 5 -0.032668 -0.015533 0.039150 0.000000 0.099987 0.000000
# 6 0.000000 0.000000 0.000000 0.012693 0.000000 0.043728
#
#
# Mechanical properties :
#
#
# Convention : Reuss Voigt Hill
#
# Bulk Modulus (GPa) = 9.60213 20.28404 14.94309
# Shear Modulus (GPa) = 8.76313 19.53866 14.15090
#
# Velocity S-wave (km/s) = 2.10046 3.13640 2.66917
# Velocity P-wave (km/s) = 3.27366 4.82993 4.12584
#
# Compressibility (1/GPa) = 0.10414354
#
# Stress axis : x y z
#
# Youngs Moduli (GPa) = 6.78126 69.79430 16.30391
#
# Poissons Ratio (x) = -0.75176 0.94477
# Poissons Ratio (y) = -0.07304 0.20079
# Poissons Ratio (z) = 0.39296 0.85956
#
# Static dielectric constant tensor:
#      x y z
#    x 1.739640 0.000000 -0.005640 
#    y 0.000000 1.784230 0.000000 
#    z -0.005640 0.000000 1.745600 
# 
# From -- ./inp_files/66736.got.cif
#   From: 2010.05.17/outbox.cif.g08.bks.cpg/sg15_34_cif.got.tgz:66736.got - 2010.06.03 18:47:42.
