data_PCOD9259221
_publ_section_title
;
Structure prediction by ZEFSAII (Michael W. Deem and Ramdas Pophale) SiO2 
 PCOD9259221
Probable space group: C 2/C
;
_chemical_formula_sum "Si O2"
_cell_formula_units_Z 64
_cell_length_a 21.368904
_cell_length_b 9.611927
_cell_length_c 16.638861
_cell_angle_alpha 90.000000
_cell_angle_beta 112.647872
_cell_angle_gamma 90.000000
_cell_volume 3154.029015
_symmetry_space_group_name_H-M "C 2/C"
_symmetry_group_IT_number 15
_symmetry_cell_setting 'monoclinic'
loop_
_space_group_symop_operation_xyz
x,y,z
-x,y,1/2-z
-x,-y,-z
x,-y,1/2+z
1/2+x,1/2+y,z
1/2-x,1/2+y,1/2-z
1/2-x,1/2-y,-z
1/2+x,1/2-y,1/2+z
loop_
_atom_site_type_symbol
_atom_site_label
_atom_site_fract_x
_atom_site_fract_y
_atom_site_fract_z
Si Si1 0.550871 0.812348 0.706943
Si Si2 0.453896 0.392189 0.867590
Si Si3 0.315280 0.254434 0.977563
Si Si4 0.817700 0.270098 0.818824
Si Si5 0.457890 0.354224 0.062753
Si Si6 0.109907 0.480197 0.531771
Si Si7 0.197992 0.053535 0.186925
Si Si8 0.017041 0.586956 0.631563
O O1 0.500000 0.756117 0.750000
O O2 0.627438 0.766533 0.727872
O O3 0.509637 0.770227 0.606199
O O4 0.547769 0.978502 0.709891
O O5 0.507669 0.513347 0.878603
O O6 0.376516 0.430352 0.810290
O O7 0.474218 0.245985 0.840887
O O8 0.454987 0.376423 0.965677
O O9 0.303229 0.355441 0.895516
O O10 0.335170 0.097305 0.962969
O O11 0.250000 0.250000 0.000000
O O12 0.382989 0.314680 0.053611
O O13 0.856967 0.342844 0.912582
O O14 0.756987 0.374600 0.767268
O O15 0.793613 0.112223 0.822377
O O16 0.064236 0.556092 0.577056
O O17 0.059916 0.443262 0.433723
#
# Coordination Sequence:
#
# PCOD9259221 Si02
#       8
#     8   8   8   8   8   8   8   8
#     4  11  23  38  61  88 121 161 198 247 303 359
#     4  10  19  35  65  88 117 145 209 260 287 353
#     4  11  23  39  63  88 128 159 200 247 309 367
#     4  11  24  39  63  87 123 157 208 250 303 364
#     4  10  19  37  60  92 112 152 204 248 300 352
#     4  10  19  36  61  90 113 156 198 247 295 356
#     4  11  23  39  59  92 119 162 202 250 309 364
#     4  10  18  34  62  89 115 146 202 249 291 349
#
# _framework density 20.291506999999999
#
# number of rings (size 3 to 8) (size 9 to 14) (size 15 to 20)
#    0.000    1.500    5.000    2.250    7.000    0.000 
#    0.000    1.250    2.750    0.000    0.000    0.000 
#    0.000    0.000    0.000    0.000    0.000    0.000 
#
# Total GULP energy -178514.946133 kJ/mol
# GULP energy per Si atom -5578.592067 kJ/mol
# Density = 2.024532 g / cm^3
# Si number density = 20.291507 Si / 1000 Ang^3
#
#
#
# Elastic Constant Matrix: (Units=GPa)
#
#
# Indices 1 2 3 4 5 6 
#
# 1 101.6929 39.3784 18.6675 0.0000 13.1277 0.0000
# 2 39.3784 147.4655 12.8313 0.0000 14.4013 0.0000
# 3 18.6675 12.8313 32.1908 0.0000 21.7718 0.0000
# 4 0.0000 0.0000 0.0000 27.0030 0.0000 14.5623
# 5 13.1277 14.4013 21.7718 0.0000 28.4997 0.0000
# 6 0.0000 0.0000 0.0000 14.5623 0.0000 29.3727
#
#
#
# Elastic Compliance Matrix: (Units=1/GPa)
#
#
# Indices 1 2 3 4 5 6 
#
# 1 0.011954 -0.002710 -0.006319 0.000000 0.000690 0.000000
# 2 -0.002710 0.007758 0.000592 0.000000 -0.003125 0.000000
# 3 -0.006319 0.000592 0.067712 0.000000 -0.049116 0.000000
# 4 0.000000 0.000000 0.000000 0.050548 0.000000 -0.025060
# 5 0.000690 -0.003125 -0.049116 0.000000 0.073871 0.000000
# 6 0.000000 0.000000 0.000000 -0.025060 0.000000 0.046469
#
#
# Mechanical properties :
#
#
# Convention : Reuss Voigt Hill
#
# Bulk Modulus (GPa) = 14.17394 47.01151 30.59272
# Shear Modulus (GPa) = 16.73912 31.00652 23.87282
#
# Velocity S-wave (km/s) = 2.87528 3.91327 3.43373
# Velocity P-wave (km/s) = 4.24539 6.60580 5.55248
#
# Compressibility (1/GPa) = 0.07055200
#
# Stress axis : x y z
#
# Youngs Moduli (GPa) = 83.65692 128.89188 14.76841
#
# Poissons Ratio (x) = 0.34925 0.09332
# Poissons Ratio (y) = 0.22668 -0.00874
# Poissons Ratio (z) = 0.52859 -0.07632
#
# Static dielectric constant tensor:
#      x y z
#    x 1.730090 0.000000 -0.019480 
#    y 0.000000 1.757220 0.000000 
#    z -0.019480 0.000000 1.767680 
# 
# From -- ./inp_files/254873.got.cif
#   From: 2010.05.17/outbox.cif.g08.bks.cpg/sg15_128_cif.got.tgz:254873.got - 2010.06.03 18:47:42.
