data_PCOD9259730
_publ_section_title
;
Structure prediction by ZEFSAII (Michael W. Deem and Ramdas Pophale) SiO2 
 PCOD9259730
Probable space group: C 2/C
;
_chemical_formula_sum "Si O2"
_cell_formula_units_Z 48
_cell_length_a 21.419228
_cell_length_b 13.097213
_cell_length_c 14.466406
_cell_angle_alpha 90.000000
_cell_angle_beta 29.402554
_cell_angle_gamma 90.000000
_cell_volume 1992.388661
_symmetry_space_group_name_H-M "C 2/C"
_symmetry_group_IT_number 15
_symmetry_cell_setting 'monoclinic'
loop_
_space_group_symop_operation_xyz
x,y,z
-x,y,1/2-z
-x,-y,-z
x,-y,1/2+z
1/2+x,1/2+y,z
1/2-x,1/2+y,1/2-z
1/2-x,1/2-y,-z
1/2+x,1/2-y,1/2+z
loop_
_atom_site_type_symbol
_atom_site_label
_atom_site_fract_x
_atom_site_fract_y
_atom_site_fract_z
Si Si1 0.000403 0.808061 0.904299
Si Si2 0.764548 0.880311 0.657390
Si Si3 0.500000 0.676940 0.750000
Si Si4 0.731728 0.552124 0.132137
Si Si5 0.745217 0.363308 0.202819
Si Si6 0.980607 0.670935 0.110018
Si Si7 0.000000 0.638189 0.750000
O O1 0.121234 0.879385 0.731543
O O2 0.990898 0.714548 0.847582
O O3 0.868216 0.870593 0.076574
O O4 0.012355 0.753288 0.988512
O O5 0.892672 0.893695 0.434640
O O6 0.767969 0.921005 0.757507
O O7 0.755824 0.756655 0.672087
O O8 0.633575 0.903026 0.773217
O O9 0.551196 0.757773 0.761081
O O10 0.704748 0.431855 0.168398
O O11 0.869818 0.575668 0.913981
O O12 0.889437 0.391365 0.041954
#
# Coordination Sequence:
#
# PCOD9259730 Si02
#       7
#     8   8   4   8   8   8   4
#     4  11  21  45  69  94 137 186 226 285 341 412
#     4  10  21  40  63  93 130 177 215 286 341 401
#     4  10  18  35  67  88 124 172 218 257 349 400
#     4  12  23  41  69 100 133 178 232 281 341 406
#     4  10  22  39  69  95 132 175 225 287 338 393
#     4  10  19  39  66  91 129 171 221 276 343 403
#     4  12  24  43  73  98 138 194 226 271 361 404
#
# _framework density 24.091684000000001
#
# number of rings (size 3 to 8) (size 9 to 14) (size 15 to 20)
#    0.000    1.333    6.667    1.500    0.000    3.333 
#    0.000    0.833    7.333    0.000    0.000    0.000 
#    0.000    0.000    0.000    0.000    0.000    0.000 
#
# Total GULP energy -134171.196007 kJ/mol
# GULP energy per Si atom -5590.466500 kJ/mol
# Density = 2.403685 g / cm^3
# Si number density = 24.091684 Si / 1000 Ang^3
#
#
#
# Elastic Constant Matrix: (Units=GPa)
#
#
# Indices 1 2 3 4 5 6 
#
# 1 36.7792 -15.9261 -7.9224 0.0000 -2.0070 0.0000
# 2 -15.9261 65.8381 -1.9163 0.0000 -1.8694 0.0000
# 3 -7.9224 -1.9163 131.9902 0.0000 -42.4637 0.0000
# 4 0.0000 0.0000 0.0000 13.5749 0.0000 21.0797
# 5 -2.0070 -1.8694 -42.4637 0.0000 42.4555 0.0000
# 6 0.0000 0.0000 0.0000 21.0797 0.0000 -0.4049
#
#
#
# Elastic Compliance Matrix: (Units=1/GPa)
#
#
# Indices 1 2 3 4 5 6 
#
# 1 0.031781 0.007962 0.003862 0.000000 0.005716 0.000000
# 2 0.007962 0.017240 0.001612 0.000000 0.002748 0.000000
# 3 0.003862 0.001612 0.011667 0.000000 0.011923 0.000000
# 4 0.000000 0.000000 0.000000 0.000900 0.000000 0.046859
# 5 0.005716 0.002748 0.011923 0.000000 0.035871 0.000000
# 6 0.000000 0.000000 0.000000 0.046859 0.000000 -0.030176
#
#
# Mechanical properties :
#
#
# Convention : Reuss Voigt Hill
#
# Bulk Modulus (GPa) = 11.42049 20.34201 15.88125
# Shear Modulus (GPa) = 71.84275 28.48324 50.16300
#
# Velocity S-wave (km/s) = 5.46674 3.44217 4.56803
# Velocity P-wave (km/s) = 6.67816 4.92544 5.86761
#
# Compressibility (1/GPa) = 0.08756191
#
# Stress axis : x y z
#
# Youngs Moduli (GPa) = 31.46539 58.00524 85.70823
#
# Poissons Ratio (x) = -0.46186 -0.33101
# Poissons Ratio (y) = -0.25054 -0.13819
# Poissons Ratio (z) = -0.12152 -0.09352
#
# Static dielectric constant tensor:
#      x y z
#    x 2.062690 0.000000 -0.015710 
#    y 0.000000 1.922940 0.000000 
#    z -0.015710 0.000000 2.024380 
# 
# From -- ./inp_files/154142.got.cif
#   From: 2010.05.17/outbox.cif.g08.bks.cpg/sg15_78_cif.got.tgz:154142.got - 2010.06.03 18:47:42.
