data_PCOD9259802
_publ_section_title
;
Structure prediction by ZEFSAII (Michael W. Deem and Ramdas Pophale) SiO2 
 PCOD9259802
Probable space group: C 2/C
;
_chemical_formula_sum "Si O2"
_cell_formula_units_Z 52
_cell_length_a 24.722741
_cell_length_b 22.517075
_cell_length_c 5.280819
_cell_angle_alpha 90.000000
_cell_angle_beta 118.057946
_cell_angle_gamma 90.000000
_cell_volume 2594.244942
_symmetry_space_group_name_H-M "C 2/C"
_symmetry_group_IT_number 15
_symmetry_cell_setting 'monoclinic'
loop_
_space_group_symop_operation_xyz
x,y,z
-x,y,1/2-z
-x,-y,-z
x,-y,1/2+z
1/2+x,1/2+y,z
1/2-x,1/2+y,1/2-z
1/2-x,1/2-y,-z
1/2+x,1/2-y,1/2+z
loop_
_atom_site_type_symbol
_atom_site_label
_atom_site_fract_x
_atom_site_fract_y
_atom_site_fract_z
Si Si1 0.594856 0.625095 0.598554
Si Si2 0.807335 0.039591 0.470904
Si Si3 0.431113 0.257939 0.720776
Si Si4 0.166351 0.462082 0.707902
Si Si5 0.000000 0.823649 0.250000
Si Si6 0.500000 0.043744 0.250000
Si Si7 0.933616 0.377452 0.241008
Si Si8 0.500000 0.539834 0.250000
O O1 0.648593 0.594867 0.873876
O O2 0.606828 0.689430 0.498130
O O3 0.533838 0.635921 0.627221
O O4 0.564574 0.575742 0.353488
O O5 0.736204 0.059519 0.332119
O O6 0.816153 0.008243 0.218487
O O7 0.500000 0.257718 0.750000
O O8 0.410657 0.190401 0.694663
O O9 0.445987 0.282154 0.030452
O O10 0.159152 0.512051 0.473114
O O11 0.114746 0.415078 0.524213
O O12 0.552970 0.089957 0.460333
O O13 0.500000 0.000000 0.500000
O O14 0.000000 0.377053 0.250000
O O15 0.500000 0.500000 0.500000
#
# Coordination Sequence:
#
# PCOD9259802 Si02
#       8
#     8   8   8   8   4   4   8   4
#     4  11  21  36  58  84 120 160 201 249 305 352
#     4  10  23  41  62  86 118 162 201 244 305 367
#     4   9  20  37  56  84 122 164 196 246 305 355
#     4  10  23  42  62  87 123 157 194 248 305 360
#     4  10  18  36  56  82 122 156 196 244 306 346
#     4  12  23  36  56  92 122 151 188 246 302 350
#     4  11  23  38  63  94 124 159 205 245 301 368
#     4  12  23  32  52  86 114 143 192 252 292 346
#
# _framework density 20.044369
#
# number of rings (size 3 to 8) (size 9 to 14) (size 15 to 20)
#    0.000    1.538    3.077    2.769    4.308    0.000 
#    0.000    0.769    0.000    0.923    0.000    0.000 
#    0.000    0.000    0.000    0.000    0.000    0.000 
#
# Total GULP energy -144893.648359 kJ/mol
# GULP energy per Si atom -5572.832629 kJ/mol
# Density = 1.999875 g / cm^3
# Si number density = 20.044369 Si / 1000 Ang^3
#
#
#
# Elastic Constant Matrix: (Units=GPa)
#
#
# Indices 1 2 3 4 5 6 
#
# 1 38.0525 20.4553 23.8473 0.0000 7.0498 0.0000
# 2 20.4553 107.0175 42.5876 0.0000 20.7067 0.0000
# 3 23.8473 42.5876 113.7978 0.0000 11.4802 0.0000
# 4 0.0000 0.0000 0.0000 26.1454 0.0000 1.9052
# 5 7.0498 20.7067 11.4802 0.0000 40.1264 0.0000
# 6 0.0000 0.0000 0.0000 1.9052 0.0000 15.5582
#
#
#
# Elastic Compliance Matrix: (Units=1/GPa)
#
#
# Indices 1 2 3 4 5 6 
#
# 1 0.031835 -0.003621 -0.005087 0.000000 -0.002269 0.000000
# 2 -0.003621 0.012293 -0.003363 0.000000 -0.004745 0.000000
# 3 -0.005087 -0.003363 0.011169 0.000000 -0.000566 0.000000
# 4 0.000000 0.000000 0.000000 0.038592 0.000000 -0.004726
# 5 -0.002269 -0.004745 -0.000566 0.000000 0.027931 0.000000
# 6 0.000000 0.000000 0.000000 -0.004726 0.000000 0.064853
#
#
# Mechanical properties :
#
#
# Convention : Reuss Voigt Hill
#
# Bulk Modulus (GPa) = 32.09871 48.07203 40.08537
# Shear Modulus (GPa) = 22.60397 27.83117 25.21757
#
# Velocity S-wave (km/s) = 3.36176 3.73027 3.55080
# Velocity P-wave (km/s) = 5.57828 6.52596 6.07064
#
# Compressibility (1/GPa) = 0.03115390
#
# Stress axis : x y z
#
# Youngs Moduli (GPa) = 31.41238 81.34793 89.53189
#
# Poissons Ratio (x) = 0.29460 0.45545
# Poissons Ratio (y) = 0.11376 0.30108
# Poissons Ratio (z) = 0.15980 0.27356
#
# Static dielectric constant tensor:
#      x y z
#    x 1.654920 0.000000 0.028800 
#    y 0.000000 1.833060 0.000000 
#    z 0.028800 0.000000 1.787410 
# 
# From -- ./inp_files/18622.got.cif
#   From: 2010.05.17/outbox.cif.g08.bks.cpg/sg15_10_cif.got.tgz:18622.got - 2010.06.03 18:47:42.
