data_PCOD9259718
_publ_section_title
;
Structure prediction by ZEFSAII (Michael W. Deem and Ramdas Pophale) SiO2 
 PCOD9259718
Probable space group: C 2/C
;
_chemical_formula_sum "Si O2"
_cell_formula_units_Z 48
_cell_length_a 15.158839
_cell_length_b 15.601008
_cell_length_c 11.232476
_cell_angle_alpha 90.000000
_cell_angle_beta 61.009208
_cell_angle_gamma 90.000000
_cell_volume 2323.550088
_symmetry_space_group_name_H-M "C 2/C"
_symmetry_group_IT_number 15
_symmetry_cell_setting 'monoclinic'
loop_
_space_group_symop_operation_xyz
x,y,z
-x,y,1/2-z
-x,-y,-z
x,-y,1/2+z
1/2+x,1/2+y,z
1/2-x,1/2+y,1/2-z
1/2-x,1/2-y,-z
1/2+x,1/2-y,1/2+z
loop_
_atom_site_type_symbol
_atom_site_label
_atom_site_fract_x
_atom_site_fract_y
_atom_site_fract_z
Si Si1 0.251337 0.488304 0.118020
Si Si2 0.530765 0.545677 0.103600
Si Si3 0.398079 0.881953 0.890052
Si Si4 0.194655 0.660949 0.816005
Si Si5 0.353369 0.647727 0.147774
Si Si6 0.118335 0.190741 0.647010
O O1 0.176542 0.540266 0.083079
O O2 0.196077 0.408490 0.212898
O O3 0.287207 0.560077 0.193442
O O4 0.349333 0.452069 0.985529
O O5 0.500000 0.503936 0.250000
O O6 0.460119 0.629337 0.141338
O O7 0.500000 0.500000 0.000000
O O8 0.500000 0.897495 0.750000
O O9 0.355755 0.792077 0.866147
O O10 0.395729 0.860419 0.031895
O O11 0.188180 0.760599 0.783118
O O12 0.301652 0.648974 0.816359
O O13 0.369000 0.657814 0.995165
O O14 0.000000 0.184647 0.750000
#
# Coordination Sequence:
#
# PCOD9259718 Si02
#       6
#     8   8   8   8   8   8
#     4  11  22  36  63  94 121 167 208 264 328 382
#     4  10  24  40  66  99 135 169 209 270 330 390
#     4  10  21  38  60  87 122 161 220 276 313 372
#     4  11  21  38  63  91 129 171 214 266 326 385
#     4  10  20  38  58  93 131 158 213 266 315 392
#     4  10  18  35  65  94 123 161 213 278 326 369
#
# _framework density 20.658045999999999
#
# number of rings (size 3 to 8) (size 9 to 14) (size 15 to 20)
#    0.000    1.667    3.333    2.000    4.667    3.333 
#    0.000    1.667    0.000    0.000    0.000    0.000 
#    0.000    0.000    0.000    0.000    0.000    0.000 
#
# Total GULP energy -133819.320377 kJ/mol
# GULP energy per Si atom -5575.805016 kJ/mol
# Density = 2.061103 g / cm^3
# Si number density = 20.658046 Si / 1000 Ang^3
#
#
#
# Elastic Constant Matrix: (Units=GPa)
#
#
# Indices 1 2 3 4 5 6 
#
# 1 42.7605 12.4076 5.0661 0.0000 -4.8198 0.0000
# 2 12.4076 116.8287 17.3868 0.0000 1.9784 0.0000
# 3 5.0661 17.3868 79.5894 0.0000 -13.3125 0.0000
# 4 0.0000 0.0000 0.0000 29.8689 0.0000 6.4920
# 5 -4.8198 1.9784 -13.3125 0.0000 28.9654 0.0000
# 6 0.0000 0.0000 0.0000 6.4920 0.0000 3.2415
#
#
#
# Elastic Compliance Matrix: (Units=1/GPa)
#
#
# Indices 1 2 3 4 5 6 
#
# 1 0.024656 -0.002644 -0.000298 0.000000 0.004146 0.000000
# 2 -0.002644 0.009201 -0.002189 0.000000 -0.002074 0.000000
# 3 -0.000298 -0.002189 0.014167 0.000000 0.006611 0.000000
# 4 0.000000 0.000000 0.000000 0.059288 0.000000 -0.118741
# 5 0.004146 -0.002074 0.006611 0.000000 0.038394 0.000000
# 6 0.000000 0.000000 0.000000 -0.118741 0.000000 0.546313
#
#
# Mechanical properties :
#
#
# Convention : Reuss Voigt Hill
#
# Bulk Modulus (GPa) = 26.48160 34.32218 30.40189
# Shear Modulus (GPa) = 6.99428 26.03636 16.51532
#
# Velocity S-wave (km/s) = 1.84203 3.55399 2.83054
# Velocity P-wave (km/s) = 4.16785 5.78720 5.04295
#
# Compressibility (1/GPa) = 0.03776207
#
# Stress axis : x y z
#
# Youngs Moduli (GPa) = 40.55799 108.68099 70.58445
#
# Poissons Ratio (x) = 0.28740 0.02105
# Poissons Ratio (y) = 0.10725 0.15449
# Poissons Ratio (z) = 0.01209 0.23787
#
# Static dielectric constant tensor:
#      x y z
#    x 1.777630 0.000000 -0.017490 
#    y 0.000000 1.789560 0.000000 
#    z -0.017490 0.000000 1.764170 
# 
# From -- ./inp_files/96850.got.cif
#   From: 2010.05.17/outbox.cif.g08.bks.cpg/sg15_49_cif.got.tgz:96850.got - 2010.06.03 18:47:42.
