data_PCOD9259943
_publ_section_title
;
Structure prediction by ZEFSAII (Michael W. Deem and Ramdas Pophale) SiO2 
 PCOD9259943
Probable space group: C 2/C
;
_chemical_formula_sum "Si O2"
_cell_formula_units_Z 44
_cell_length_a 9.217581
_cell_length_b 17.852330
_cell_length_c 18.221839
_cell_angle_alpha 90.000000
_cell_angle_beta 49.707418
_cell_angle_gamma 90.000000
_cell_volume 2287.112168
_symmetry_space_group_name_H-M "C 2/C"
_symmetry_group_IT_number 15
_symmetry_cell_setting 'monoclinic'
loop_
_space_group_symop_operation_xyz
x,y,z
-x,y,1/2-z
-x,-y,-z
x,-y,1/2+z
1/2+x,1/2+y,z
1/2-x,1/2+y,1/2-z
1/2-x,1/2-y,-z
1/2+x,1/2-y,1/2+z
loop_
_atom_site_type_symbol
_atom_site_label
_atom_site_fract_x
_atom_site_fract_y
_atom_site_fract_z
Si Si1 0.288391 0.219335 0.357489
Si Si2 0.500000 0.010671 0.750000
Si Si3 0.809040 0.889016 0.211278
Si Si4 0.254021 0.610716 0.899105
Si Si5 0.971237 0.602525 0.393985
Si Si6 0.690344 0.716120 0.234241
O O1 0.500000 0.226398 0.250000
O O2 0.233348 0.298877 0.408128
O O3 0.309608 0.156517 0.411314
O O4 0.156608 0.199553 0.331744
O O5 0.497650 0.958897 0.678734
O O6 0.313904 0.062569 0.804642
O O7 0.736935 0.905861 0.318186
O O8 0.773731 0.800988 0.205944
O O9 0.032516 0.905909 0.143040
O O10 0.104007 0.575392 0.003427
O O11 0.155915 0.655205 0.342174
O O12 0.500000 0.713022 0.250000
#
# Coordination Sequence:
#
# PCOD9259943 Si02
#       6
#     8   4   8   8   8   8
#     4   9  15  33  59  87 111 149 194 244 285 337
#     4  12  24  40  58  86 128 158 184 258 304 340
#     4  10  21  39  61  85 124 162 191 237 306 361
#     4  10  19  38  65  86 112 161 207 233 292 362
#     4  11  21  37  63  89 117 152 205 251 285 347
#     4  10  18  36  59  87 116 157 199 242 290 350
#
# _framework density 19.238235
#
# number of rings (size 3 to 8) (size 9 to 14) (size 15 to 20)
#    0.000    1.818    9.091    0.545    0.000    1.455 
#    3.273    5.455    0.000    0.000    0.000    0.000 
#    0.000    0.000    0.000    0.000    0.000    0.000 
#
# Total GULP energy -122690.055411 kJ/mol
# GULP energy per Si atom -5576.820700 kJ/mol
# Density = 1.919445 g / cm^3
# Si number density = 19.238235 Si / 1000 Ang^3
#
#
#
# Elastic Constant Matrix: (Units=GPa)
#
#
# Indices 1 2 3 4 5 6 
#
# 1 134.4539 31.6418 29.1025 0.0000 1.6073 0.0001
# 2 31.6418 56.7173 33.9569 0.0000 1.5948 0.0000
# 3 29.1025 33.9569 89.2665 0.0000 5.1091 0.0000
# 4 0.0000 0.0000 0.0000 -0.3158 0.0000 4.7512
# 5 1.6073 1.5948 5.1091 0.0000 6.8283 0.0000
# 6 0.0001 0.0000 0.0000 4.7512 0.0000 23.4906
#
#
#
# Elastic Compliance Matrix: (Units=1/GPa)
#
#
# Indices 1 2 3 4 5 6 
#
# 1 0.008673 -0.004074 -0.001270 0.000000 -0.000140 0.000000
# 2 -0.004074 0.024755 -0.008162 0.000000 0.001284 0.000000
# 3 -0.001270 -0.008162 0.015248 0.000000 -0.009204 0.000000
# 4 0.000000 0.000000 0.000000 -0.783216 0.000002 0.158412
# 5 -0.000140 0.001284 -0.009204 0.000002 0.153068 0.000000
# 6 0.000000 0.000000 0.000000 0.158412 0.000000 0.010530
#
#
# Mechanical properties :
#
#
# Convention : Reuss Voigt Hill
#
# Bulk Modulus (GPa) = 46.16008 52.20446 49.18227
# Shear Modulus (GPa) = -9.31603 18.38305 4.53351
#
# Velocity S-wave (km/s) = -2.20295 3.09455 1.53676
# Velocity P-wave (km/s) = 4.19230 6.32163 5.36369
#
# Compressibility (1/GPa) = 0.02166374
#
# Stress axis : x y z
#
# Youngs Moduli (GPa) = 115.30276 40.39625 65.58313
#
# Poissons Ratio (x) = 0.16459 0.08326
# Poissons Ratio (y) = 0.46979 0.53528
# Poissons Ratio (z) = 0.14639 0.32971
#
# Static dielectric constant tensor:
#      x y z
#    x 1.666300 0.000000 0.011330 
#    y 0.000000 1.680160 0.000000 
#    z 0.011330 0.000000 1.692030 
# 
# From -- ./inp_files/191449.got.cif
#   From: 2010.05.17/outbox.cif.g08.bks.cpg/sg15_96_cif.got.tgz:191449.got - 2010.06.03 18:47:42.
