data_PCOD9259729
_publ_section_title
;
Structure prediction by ZEFSAII (Michael W. Deem and Ramdas Pophale) SiO2 
 PCOD9259729
Probable space group: C 2/C
;
_chemical_formula_sum "Si O2"
_cell_formula_units_Z 52
_cell_length_a 15.004146
_cell_length_b 11.116741
_cell_length_c 21.222216
_cell_angle_alpha 90.000000
_cell_angle_beta 134.847375
_cell_angle_gamma 90.000000
_cell_volume 2509.679729
_symmetry_space_group_name_H-M "C 2/C"
_symmetry_group_IT_number 15
_symmetry_cell_setting 'monoclinic'
loop_
_space_group_symop_operation_xyz
x,y,z
-x,y,1/2-z
-x,-y,-z
x,-y,1/2+z
1/2+x,1/2+y,z
1/2-x,1/2+y,1/2-z
1/2-x,1/2-y,-z
1/2+x,1/2-y,1/2+z
loop_
_atom_site_type_symbol
_atom_site_label
_atom_site_fract_x
_atom_site_fract_y
_atom_site_fract_z
Si Si1 0.596066 0.974681 0.991679
Si Si2 0.519157 0.633796 0.033867
Si Si3 0.045216 0.750435 0.125251
Si Si4 0.818896 0.355631 0.695211
Si Si5 0.395591 0.780912 0.078278
Si Si6 0.668416 0.676231 0.908001
Si Si7 0.500000 0.078444 0.750000
O O1 0.533786 0.872656 0.917683
O O2 0.595278 0.098711 0.956838
O O3 0.738930 0.926614 0.072844
O O4 0.500000 0.000000 0.000000
O O5 0.669839 0.645801 0.108320
O O6 0.470627 0.676679 0.077956
O O7 0.500000 0.500000 0.000000
O O8 0.447011 0.711233 0.943667
O O9 0.158533 0.709503 0.226191
O O10 0.960232 0.850984 0.118636
O O11 0.867956 0.266784 0.665423
O O12 0.890749 0.484635 0.721506
O O13 0.444342 0.830014 0.169802
O O14 0.250000 0.750000 0.000000
O O15 0.750000 0.750000 0.000000
#
# Coordination Sequence:
#
# PCOD9259729 Si02
#       7
#     8   8   8   8   8   8   4
#     4  11  20  42  70  99 138 186 232 288 352 423
#     4  12  28  46  67 104 148 188 239 303 357 417
#     4  11  22  40  70 102 131 184 241 286 352 420
#     4  12  21  42  74 104 138 183 240 290 349 428
#     4  12  27  47  71 102 146 190 233 294 367 432
#     4  10  18  35  66  98 135 172 232 286 341 409
#     4  12  24  44  76 106 134 194 236 288 368 436
#
# _framework density 20.719774999999998
#
# number of rings (size 3 to 8) (size 9 to 14) (size 15 to 20)
#    0.000    0.615    7.692    1.846    2.154    2.462 
#    2.769    0.000    0.000    0.000    0.000    0.000 
#    0.000    0.000    0.000    0.000    0.000    0.000 
#
# Total GULP energy -144765.363925 kJ/mol
# GULP energy per Si atom -5567.898612 kJ/mol
# Density = 2.067262 g / cm^3
# Si number density = 20.719775 Si / 1000 Ang^3
#
#
#
# Elastic Constant Matrix: (Units=GPa)
#
#
# Indices 1 2 3 4 5 6 
#
# 1 88.8655 14.8977 43.0187 0.0000 -9.8282 0.0000
# 2 14.8977 77.4145 38.4917 0.0000 -12.6984 0.0000
# 3 43.0187 38.4917 148.5095 0.0000 -21.3674 0.0000
# 4 0.0000 0.0000 0.0000 35.9864 0.0000 4.4174
# 5 -9.8282 -12.6984 -21.3674 0.0000 16.3610 0.0000
# 6 0.0000 0.0000 0.0000 4.4174 0.0000 34.3803
#
#
#
# Elastic Compliance Matrix: (Units=1/GPa)
#
#
# Indices 1 2 3 4 5 6 
#
# 1 0.013270 -0.000373 -0.003253 0.000000 0.003433 0.000000
# 2 -0.000373 0.015739 -0.002766 0.000000 0.008380 0.000000
# 3 -0.003253 -0.002766 0.009608 0.000000 0.008447 0.000000
# 4 0.000000 0.000000 0.000000 0.028234 0.000000 -0.003628
# 5 0.003433 0.008380 0.008447 0.000000 0.080720 0.000000
# 6 0.000000 0.000000 0.000000 -0.003628 0.000000 0.029553
#
#
# Mechanical properties :
#
#
# Convention : Reuss Voigt Hill
#
# Bulk Modulus (GPa) = 38.70963 56.40064 47.55514
# Shear Modulus (GPa) = 25.18665 31.90429 28.54547
#
# Velocity S-wave (km/s) = 3.49031 3.92828 3.71575
# Velocity P-wave (km/s) = 5.91321 6.91773 6.43510
#
# Compressibility (1/GPa) = 0.02583336
#
# Stress axis : x y z
#
# Youngs Moduli (GPa) = 75.35755 63.53689 104.07787
#
# Poissons Ratio (x) = 0.02370 0.33860
# Poissons Ratio (y) = 0.02811 0.28784
# Poissons Ratio (z) = 0.24516 0.17572
#
# Static dielectric constant tensor:
#      x y z
#    x 2.582960 0.000000 -0.313010 
#    y 0.000000 1.757970 0.000000 
#    z -0.313010 0.000000 1.990620 
# 
# From -- ./inp_files/243812.got.cif
#   From: 2010.05.17/outbox.cif.g08.bks.cpg/sg15_122_cif.got.tgz:243812.got - 2010.06.03 18:47:42.
