data_PCOD9259920
_publ_section_title
;
Structure prediction by ZEFSAII (Michael W. Deem and Ramdas Pophale) SiO2 
 PCOD9259920
Probable space group: C 2/C
;
_chemical_formula_sum "Si O2"
_cell_formula_units_Z 48
_cell_length_a 16.021936
_cell_length_b 17.445473
_cell_length_c 9.193594
_cell_angle_alpha 90.000000
_cell_angle_beta 43.844582
_cell_angle_gamma 90.000000
_cell_volume 1780.045543
_symmetry_space_group_name_H-M "C 2/C"
_symmetry_group_IT_number 15
_symmetry_cell_setting 'monoclinic'
loop_
_space_group_symop_operation_xyz
x,y,z
-x,y,1/2-z
-x,-y,-z
x,-y,1/2+z
1/2+x,1/2+y,z
1/2-x,1/2+y,1/2-z
1/2-x,1/2-y,-z
1/2+x,1/2-y,1/2+z
loop_
_atom_site_type_symbol
_atom_site_label
_atom_site_fract_x
_atom_site_fract_y
_atom_site_fract_z
Si Si1 0.639679 0.900337 0.805364
Si Si2 0.846895 0.147857 0.244702
Si Si3 0.948488 0.075499 0.661339
Si Si4 0.357198 0.262017 0.249597
Si Si5 0.689693 0.179171 0.714794
Si Si6 0.171899 0.541546 0.946483
O O1 0.773153 0.871796 0.689972
O O2 0.579298 0.818345 0.857392
O O3 0.635854 0.940286 0.655090
O O4 0.614141 0.964339 0.957046
O O5 0.747434 0.141379 0.498020
O O6 0.878909 0.238969 0.221187
O O7 0.957927 0.088177 0.091702
O O8 0.928533 0.165955 0.716296
O O9 0.818972 0.042968 0.772383
O O10 0.000000 0.043870 0.750000
O O11 0.250000 0.250000 0.500000
O O12 0.302450 0.289525 0.166295
O O13 0.640254 0.110159 0.875612
#
# Coordination Sequence:
#
# PCOD9259920 Si02
#       6
#     8   8   8   8   8   8
#     4  11  21  37  55  82 115 160 191 232 283 354
#     4  10  20  35  57  86 114 143 196 236 290 334
#     4  11  20  35  59  88 114 149 190 243 287 339
#     4  10  18  36  59  78 112 153 202 231 277 341
#     4   9  19  36  57  80 113 154 189 236 277 346
#     4  11  22  35  55  79 117 156 191 229 290 343
#
# _framework density 26.965603999999999
#
# number of rings (size 3 to 8) (size 9 to 14) (size 15 to 20)
#    0.000    1.667    5.000    2.000    0.000    3.333 
#    0.000    0.000    0.000    1.000    0.000    0.000 
#    0.000    0.000    0.000    0.000    0.000    0.000 
#
# Total GULP energy -134053.504446 kJ/mol
# GULP energy per Si atom -5585.562685 kJ/mol
# Density = 2.690423 g / cm^3
# Si number density = 26.965604 Si / 1000 Ang^3
#
#
#
# Elastic Constant Matrix: (Units=GPa)
#
#
# Indices 1 2 3 4 5 6 
#
# 1 64.6149 29.8881 46.3511 0.0000 5.6587 0.0000
# 2 29.8881 116.2510 41.0989 0.0000 19.8971 0.0000
# 3 46.3511 41.0989 108.9597 0.0000 33.6625 0.0000
# 4 0.0000 0.0000 0.0000 38.3733 0.0000 20.1101
# 5 5.6587 19.8971 33.6625 0.0000 45.3452 0.0000
# 6 0.0000 0.0000 0.0000 20.1101 0.0000 37.3047
#
#
#
# Elastic Compliance Matrix: (Units=1/GPa)
#
#
# Indices 1 2 3 4 5 6 
#
# 1 0.024557 -0.003510 -0.011226 0.000000 0.006810 0.000000
# 2 -0.003510 0.010576 -0.001554 0.000000 -0.003049 0.000000
# 3 -0.011226 -0.001554 0.018031 0.000000 -0.011303 0.000000
# 4 0.000000 0.000000 0.000000 0.036321 0.000000 -0.019580
# 5 0.006810 -0.003049 -0.011303 0.000000 0.030932 0.000000
# 6 0.000000 0.000000 0.000000 -0.019580 0.000000 0.037361
#
#
# Mechanical properties :
#
#
# Convention : Reuss Voigt Hill
#
# Bulk Modulus (GPa) = 48.58288 58.27795 53.43042
# Shear Modulus (GPa) = 25.35250 35.70381 30.52815
#
# Velocity S-wave (km/s) = 3.06956 3.64270 3.36834
# Velocity P-wave (km/s) = 5.53341 6.27305 5.91481
#
# Compressibility (1/GPa) = 0.02058338
#
# Stress axis : x y z
#
# Youngs Moduli (GPa) = 40.72242 94.55589 55.45894
#
# Poissons Ratio (x) = 0.33191 0.62258
# Poissons Ratio (y) = 0.14294 0.08618
# Poissons Ratio (z) = 0.45715 0.14693
#
# Static dielectric constant tensor:
#      x y z
#    x 2.091170 0.000000 -0.136490 
#    y 0.000000 2.214460 0.000000 
#    z -0.136490 0.000000 2.253790 
# 
# From -- ./inp_files/57424.got.cif
#   From: 2010.05.17/outbox.cif.g08.bks.cpg/sg15_29_cif.got.tgz:57424.got - 2010.06.03 18:47:42.
