data_PCOD9259953
_publ_section_title
;
Structure prediction by ZEFSAII (Michael W. Deem and Ramdas Pophale) SiO2 
 PCOD9259953
Probable space group: C 2/C
;
_chemical_formula_sum "Si O2"
_cell_formula_units_Z 60
_cell_length_a 20.758465
_cell_length_b 18.813919
_cell_length_c 9.494318
_cell_angle_alpha 90.000000
_cell_angle_beta 55.446152
_cell_angle_gamma 90.000000
_cell_volume 3053.874540
_symmetry_space_group_name_H-M "C 2/C"
_symmetry_group_IT_number 15
_symmetry_cell_setting 'monoclinic'
loop_
_space_group_symop_operation_xyz
x,y,z
-x,y,1/2-z
-x,-y,-z
x,-y,1/2+z
1/2+x,1/2+y,z
1/2-x,1/2+y,1/2-z
1/2-x,1/2-y,-z
1/2+x,1/2-y,1/2+z
loop_
_atom_site_type_symbol
_atom_site_label
_atom_site_fract_x
_atom_site_fract_y
_atom_site_fract_z
Si Si1 0.737646 0.741757 0.682026
Si Si2 0.163645 0.105879 0.711353
Si Si3 0.004063 0.814474 0.414419
Si Si4 0.000000 0.419886 0.250000
Si Si5 0.579182 0.170865 0.412724
Si Si6 0.621549 0.023485 0.246242
Si Si7 0.337179 0.360519 0.624017
Si Si8 0.235587 0.518839 0.361608
O O1 0.750000 0.750000 0.500000
O O2 0.724077 0.659011 0.713627
O O3 0.661197 0.786966 0.818074
O O4 0.811106 0.778347 0.660343
O O5 0.079346 0.137263 0.853152
O O6 0.169345 0.112635 0.532280
O O7 0.187596 0.030530 0.741796
O O8 0.018345 0.734114 0.451426
O O9 0.000000 0.808134 0.250000
O O10 0.926920 0.856660 0.557795
O O11 0.946717 0.369495 0.413652
O O12 0.947850 0.470598 0.213660
O O13 0.591903 0.105544 0.286314
O O14 0.663468 0.010523 0.343333
O O15 0.693878 0.006144 0.054794
O O16 0.274356 0.404407 0.791484
#
# Coordination Sequence:
#
# PCOD9259953 Si02
#       8
#     8   8   8   4   8   8   8   8
#     4   9  16  34  58  84 115 159 211 261 301 359
#     4   9  19  35  58  90 122 162 213 266 308 372
#     4   9  21  37  64  92 119 164 220 264 315 365
#     4  12  26  40  58  92 136 166 200 260 328 392
#     4  11  22  40  60  88 128 166 206 263 314 384
#     4  12  24  40  61  93 123 169 209 251 323 381
#     4  10  18  36  59  92 124 162 214 265 312 375
#     4  12  22  39  64  91 127 164 210 262 320 378
#
# _framework density 19.647174
#
# number of rings (size 3 to 8) (size 9 to 14) (size 15 to 20)
#    0.000    1.600    4.000    2.000    0.933    1.600 
#    0.000    2.667    0.000    5.600    0.000    0.000 
#    0.000    0.000    0.000    0.000    0.000    0.000 
#
# Total GULP energy -167056.196078 kJ/mol
# GULP energy per Si atom -5568.539869 kJ/mol
# Density = 1.960246 g / cm^3
# Si number density = 19.647174 Si / 1000 Ang^3
#
#
#
# Elastic Constant Matrix: (Units=GPa)
#
#
# Indices 1 2 3 4 5 6 
#
# 1 47.8713 7.7588 -5.1249 0.0000 -10.0959 0.0000
# 2 7.7588 57.0473 8.3846 0.0000 0.1317 0.0000
# 3 -5.1249 8.3846 59.2141 0.0000 -15.1040 0.0000
# 4 0.0000 0.0000 0.0000 21.3586 0.0000 -2.0139
# 5 -10.0959 0.1317 -15.1040 0.0000 14.5983 0.0000
# 6 0.0000 0.0000 0.0000 -2.0139 0.0000 25.9517
#
#
#
# Elastic Compliance Matrix: (Units=1/GPa)
#
#
# Indices 1 2 3 4 5 6 
#
# 1 0.030135 -0.005928 0.011924 0.000000 0.033231 0.000000
# 2 -0.005928 0.019223 -0.005876 0.000000 -0.010352 0.000000
# 3 0.011924 -0.005876 0.028351 0.000000 0.037633 0.000000
# 4 0.000000 0.000000 0.000000 0.047165 0.000000 0.003660
# 5 0.033231 -0.010352 0.037633 0.000000 0.130513 0.000000
# 6 0.000000 0.000000 0.000000 0.003660 0.000000 0.038817
#
#
# Mechanical properties :
#
#
# Convention : Reuss Voigt Hill
#
# Bulk Modulus (GPa) = 12.82869 20.68552 16.75710
# Shear Modulus (GPa) = 15.62763 22.58933 19.10848
#
# Velocity S-wave (km/s) = 2.82337 3.39447 3.12201
# Velocity P-wave (km/s) = 4.14394 5.09064 4.64149
#
# Compressibility (1/GPa) = 0.07795029
#
# Stress axis : x y z
#
# Youngs Moduli (GPa) = 33.18401 52.02101 35.27212
#
# Poissons Ratio (x) = 0.30837 -0.42058
# Poissons Ratio (y) = 0.19671 0.20724
# Poissons Ratio (z) = -0.39569 0.30565
#
# Static dielectric constant tensor:
#      x y z
#    x 1.743660 0.000000 -0.023010 
#    y 0.000000 1.663170 0.000000 
#    z -0.023010 0.000000 1.738080 
# 
# From -- ./inp_files/57008.got.cif
#   From: 2010.05.17/outbox.cif.g08.bks.cpg/sg15_29_cif.got.tgz:57008.got - 2010.06.03 18:47:42.
