data_PCOD9259815
_publ_section_title
;
Structure prediction by ZEFSAII (Michael W. Deem and Ramdas Pophale) SiO2 
 PCOD9259815
Probable space group: C 2/C
;
_chemical_formula_sum "Si O2"
_cell_formula_units_Z 60
_cell_length_a 17.175661
_cell_length_b 8.846161
_cell_length_c 17.930722
_cell_angle_alpha 90.000000
_cell_angle_beta 81.004412
_cell_angle_gamma 90.000000
_cell_volume 2690.861214
_symmetry_space_group_name_H-M "C 2/C"
_symmetry_group_IT_number 15
_symmetry_cell_setting 'monoclinic'
loop_
_space_group_symop_operation_xyz
x,y,z
-x,y,1/2-z
-x,-y,-z
x,-y,1/2+z
1/2+x,1/2+y,z
1/2-x,1/2+y,1/2-z
1/2-x,1/2-y,-z
1/2+x,1/2-y,1/2+z
loop_
_atom_site_type_symbol
_atom_site_label
_atom_site_fract_x
_atom_site_fract_y
_atom_site_fract_z
Si Si1 0.397112 0.441420 0.540606
Si Si2 0.500000 0.434334 0.250000
Si Si3 0.331794 0.099748 0.934836
Si Si4 0.758355 0.376718 0.852264
Si Si5 0.420227 0.303128 0.158563
Si Si6 0.805018 0.942131 0.278908
Si Si7 0.547923 0.631945 0.097216
Si Si8 0.715229 0.849314 0.896528
O O1 0.315380 0.371343 0.579664
O O2 0.412280 0.592805 0.588004
O O3 0.403023 0.504056 0.456513
O O4 0.470154 0.341219 0.557352
O O5 0.504844 0.290146 0.179189
O O6 0.522683 0.565540 0.180078
O O7 0.402719 0.213940 0.908976
O O8 0.253715 0.192838 0.919087
O O9 0.329960 0.947618 0.887757
O O10 0.319867 0.073949 0.024592
O O11 0.772919 0.216534 0.812297
O O12 0.735580 0.493120 0.789378
O O13 0.394446 0.410601 0.235859
O O14 0.355338 0.177812 0.152351
O O15 0.784776 0.061123 0.345340
#
# Coordination Sequence:
#
# PCOD9259815 Si02
#       8
#     8   4   8   8   8   8   8   8
#     4   9  18  35  58  86 121 164 204 248 311 376
#     4  10  22  32  60  92 122 160 220 256 314 374
#     4  11  20  35  60  91 118 162 201 262 307 380
#     4  11  21  36  60  91 124 160 212 254 322 372
#     4  10  18  36  56  87 116 162 201 257 301 375
#     4  11  21  37  61  88 123 163 201 263 315 371
#     4  10  19  34  57  90 122 158 210 258 303 375
#     4  11  20  35  60  85 122 156 205 250 317 363
#
# _framework density 22.297694
#
# number of rings (size 3 to 8) (size 9 to 14) (size 15 to 20)
#    0.000    1.600    5.333    1.600    0.000    2.667 
#    0.000    0.000    2.933    0.800    0.000    0.000 
#    0.000    0.000    0.000    0.000    0.000    0.000 
#
# Total GULP energy -167064.807599 kJ/mol
# GULP energy per Si atom -5568.826920 kJ/mol
# Density = 2.224694 g / cm^3
# Si number density = 22.297694 Si / 1000 Ang^3
#
#
#
# Elastic Constant Matrix: (Units=GPa)
#
#
# Indices 1 2 3 4 5 6 
#
# 1 84.7983 19.1601 38.6414 0.0000 -0.7098 0.0000
# 2 19.1601 31.8611 30.1669 0.0000 -9.5393 0.0000
# 3 38.6414 30.1669 169.7697 0.0000 -9.7379 0.0000
# 4 0.0000 0.0000 0.0000 19.1104 0.0000 -1.1802
# 5 -0.7098 -9.5393 -9.7379 0.0000 40.5488 0.0000
# 6 0.0000 0.0000 0.0000 -1.1802 0.0000 34.1128
#
#
#
# Elastic Compliance Matrix: (Units=1/GPa)
#
#
# Indices 1 2 3 4 5 6 
#
# 1 0.014367 -0.007241 -0.002096 0.000000 -0.001955 0.000000
# 2 -0.007241 0.043688 -0.005610 0.000000 0.008804 0.000000
# 3 -0.002096 -0.005610 0.007388 0.000000 0.000418 0.000000
# 4 0.000000 0.000000 0.000000 0.052440 0.000000 0.001814
# 5 -0.001955 0.008804 0.000418 0.000000 0.026799 0.000000
# 6 0.000000 0.000000 0.000000 0.001814 0.000000 0.029377
#
#
# Mechanical properties :
#
#
# Convention : Reuss Voigt Hill
#
# Bulk Modulus (GPa) = 28.12919 51.37399 39.75159
# Shear Modulus (GPa) = 23.16923 31.98512 27.57717
#
# Velocity S-wave (km/s) = 3.22698 3.79153 3.52059
# Velocity P-wave (km/s) = 5.15046 6.50059 5.86451
#
# Compressibility (1/GPa) = 0.03555026
#
# Stress axis : x y z
#
# Youngs Moduli (GPa) = 69.60194 22.88937 135.35215
#
# Poissons Ratio (x) = 0.16575 0.28364
# Poissons Ratio (y) = 0.50401 0.75932
# Poissons Ratio (z) = 0.14586 0.12841
#
# Static dielectric constant tensor:
#      x y z
#    x 1.955740 0.000000 -0.001020 
#    y 0.000000 1.849010 0.000000 
#    z -0.001020 0.000000 1.861190 
# 
# From -- ./inp_files/213862.got.cif
#   From: 2010.05.17/outbox.cif.g08.bks.cpg/sg15_107_cif.got.tgz:213862.got - 2010.06.03 18:47:42.
