data_PCOD9259859
_publ_section_title
;
Structure prediction by ZEFSAII (Michael W. Deem and Ramdas Pophale) SiO2 
 PCOD9259859
Probable space group: C 2/C
;
_chemical_formula_sum "Si O2"
_cell_formula_units_Z 52
_cell_length_a 31.033372
_cell_length_b 16.699914
_cell_length_c 16.347434
_cell_angle_alpha 90.000000
_cell_angle_beta 160.437023
_cell_angle_gamma 90.000000
_cell_volume 2836.832654
_symmetry_space_group_name_H-M "C 2/C"
_symmetry_group_IT_number 15
_symmetry_cell_setting 'monoclinic'
loop_
_space_group_symop_operation_xyz
x,y,z
-x,y,1/2-z
-x,-y,-z
x,-y,1/2+z
1/2+x,1/2+y,z
1/2-x,1/2+y,1/2-z
1/2-x,1/2-y,-z
1/2+x,1/2-y,1/2+z
loop_
_atom_site_type_symbol
_atom_site_label
_atom_site_fract_x
_atom_site_fract_y
_atom_site_fract_z
Si Si1 0.793625 0.025606 0.130327
Si Si2 0.680656 0.285968 0.201398
Si Si3 0.200342 0.972845 0.043846
Si Si4 0.500000 0.351122 0.750000
Si Si5 0.529659 0.365945 0.068579
Si Si6 0.882498 0.156067 0.597721
Si Si7 0.347101 0.057504 0.976613
O O1 0.883890 0.102438 0.308179
O O2 0.885979 0.947061 0.292288
O O3 0.740582 0.032748 0.942167
O O4 0.701375 0.006613 0.041893
O O5 0.572773 0.305397 0.075758
O O6 0.754643 0.204119 0.346945
O O7 0.786213 0.357161 0.393850
O O8 0.605379 0.297321 0.982541
O O9 0.290555 0.958190 0.284165
O O10 0.143737 0.061495 0.953807
O O11 0.080187 0.910838 0.834167
O O12 0.571963 0.327448 0.229119
O O13 0.000000 0.178501 0.750000
O O14 0.500000 0.060008 0.250000
#
# Coordination Sequence:
#
# PCOD9259859 Si02
#       7
#     8   8   8   4   8   8   8
#     4   9  17  31  55  82 108 143 191 239 275 322
#     4  10  20  34  55  81 109 146 184 236 283 329
#     4  10  19  34  57  81 108 150 194 235 272 336
#     4  10  18  36  58  80 110 146 200 226 268 342
#     4   9  17  31  54  81 108 137 188 234 273 334
#     4  11  20  31  53  84 114 143 181 234 289 327
#     4  10  21  35  52  80 113 148 187 232 286 342
#
# _framework density 18.330300999999999
#
# number of rings (size 3 to 8) (size 9 to 14) (size 15 to 20)
#    0.000    2.154    2.308    1.846    4.308    0.615 
#    1.385    0.000    0.000    0.923    0.000    0.000 
#    0.000    0.000    0.000    0.000    0.000    0.000 
#
# Total GULP energy -144915.202195 kJ/mol
# GULP energy per Si atom -5573.661623 kJ/mol
# Density = 1.828858 g / cm^3
# Si number density = 18.330301 Si / 1000 Ang^3
#
#
#
# Elastic Constant Matrix: (Units=GPa)
#
#
# Indices 1 2 3 4 5 6 
#
# 1 62.0020 16.5657 52.6002 0.0000 -5.0679 0.0000
# 2 16.5657 39.6942 24.2336 0.0000 -7.9870 0.0000
# 3 52.6002 24.2336 82.9144 0.0000 5.0370 0.0000
# 4 0.0000 0.0000 0.0000 19.7105 0.0000 -7.6136
# 5 -5.0679 -7.9870 5.0370 0.0000 24.5090 0.0000
# 6 0.0000 0.0000 0.0000 -7.6136 0.0000 -14.9052
#
#
#
# Elastic Compliance Matrix: (Units=1/GPa)
#
#
# Indices 1 2 3 4 5 6 
#
# 1 0.038959 0.002745 -0.026391 0.000000 0.014374 0.000000
# 2 0.002745 0.034778 -0.012789 0.000000 0.014529 0.000000
# 3 -0.026391 -0.012789 0.033544 0.000000 -0.016518 0.000000
# 4 0.000000 0.000000 0.000000 0.042374 0.000000 -0.021644
# 5 0.014374 0.014529 -0.016518 0.000000 0.051903 0.000000
# 6 0.000000 0.000000 0.000000 -0.021644 0.000000 -0.056035
#
#
# Mechanical properties :
#
#
# Convention : Reuss Voigt Hill
#
# Bulk Modulus (GPa) = 29.05948 41.26774 35.16361
# Shear Modulus (GPa) = 21.75210 11.94362 16.84786
#
# Velocity S-wave (km/s) = 3.44855 2.55537 3.03500
# Velocity P-wave (km/s) = 5.63421 5.59185 5.61307
#
# Compressibility (1/GPa) = 0.03441218
#
# Stress axis : x y z
#
# Youngs Moduli (GPa) = 25.66809 28.75370 29.81155
#
# Poissons Ratio (x) = -0.07894 0.78675
# Poissons Ratio (y) = -0.07047 0.38126
# Poissons Ratio (z) = 0.67740 0.36773
#
# Static dielectric constant tensor:
#      x y z
#    x 1.682840 0.000000 -0.041490 
#    y 0.000000 1.616960 0.000000 
#    z -0.041490 0.000000 1.621890 
# 
# From -- ./inp_files/182895.got.cif
#   From: 2010.05.17/outbox.cif.g08.bks.cpg/sg15_92_cif.got.tgz:182895.got - 2010.06.03 18:47:42.
