data_PCOD9259190
_publ_section_title
;
Structure prediction by ZEFSAII (Michael W. Deem and Ramdas Pophale) SiO2 
 PCOD9259190
Probable space group: C 2/C
;
_chemical_formula_sum "Si O2"
_cell_formula_units_Z 64
_cell_length_a 8.888212
_cell_length_b 18.083584
_cell_length_c 27.726188
_cell_angle_alpha 90.000000
_cell_angle_beta 38.074915
_cell_angle_gamma 90.000000
_cell_volume 2748.254111
_symmetry_space_group_name_H-M "C 2/C"
_symmetry_group_IT_number 15
_symmetry_cell_setting 'monoclinic'
loop_
_space_group_symop_operation_xyz
x,y,z
-x,y,1/2-z
-x,-y,-z
x,-y,1/2+z
1/2+x,1/2+y,z
1/2-x,1/2+y,1/2-z
1/2-x,1/2-y,-z
1/2+x,1/2-y,1/2+z
loop_
_atom_site_type_symbol
_atom_site_label
_atom_site_fract_x
_atom_site_fract_y
_atom_site_fract_z
Si Si1 0.045366 0.892450 0.071126
Si Si2 0.369750 0.961653 0.386090
Si Si3 0.293621 0.620300 0.477660
Si Si4 0.919389 0.739224 0.570484
Si Si5 0.265346 0.832018 0.207470
Si Si6 0.452002 0.904408 0.614485
Si Si7 0.387135 0.745196 0.659399
Si Si8 0.274703 0.492622 0.908593
O O1 0.864933 0.944561 0.086643
O O2 0.904824 0.815278 0.112795
O O3 0.094684 0.930724 0.111062
O O4 0.305913 0.886548 0.978778
O O5 0.302634 0.936207 0.457682
O O6 0.592151 0.907364 0.317688
O O7 0.446383 0.046841 0.367006
O O8 0.458890 0.680821 0.461898
O O9 0.402265 0.571545 0.407726
O O10 0.081320 0.672385 0.508775
O O11 0.896404 0.715112 0.632272
O O12 0.664147 0.745593 0.609196
O O13 0.259624 0.785536 0.258018
O O14 0.000000 0.846109 0.250000
O O15 0.327210 0.827518 0.658657
O O16 0.270056 0.960485 0.632680
O O17 0.000000 0.500000 0.000000
#
# Coordination Sequence:
#
# PCOD9259190 Si02
#       8
#     8   8   8   8   8   8   8   8
#     4  11  23  37  65  99 133 165 207 262 332 380
#     4  11  22  39  67  95 126 168 214 264 319 384
#     4  10  18  34  61  93 131 156 208 260 325 370
#     4   9  19  34  62  93 120 167 209 263 315 374
#     4   9  22  42  66  86 123 175 222 255 316 386
#     4  11  23  38  66  98 133 162 212 264 327 380
#     4  11  23  40  63  88 133 169 213 260 313 378
#     4  10  20  35  58  94 132 164 199 251 318 386
#
# _framework density 23.287512
#
# number of rings (size 3 to 8) (size 9 to 14) (size 15 to 20)
#    0.000    1.750    2.500    3.000    5.250    3.500 
#    0.000    1.250    5.500    0.000    0.000    0.000 
#    0.000    0.000    0.000    0.000    0.000    0.000 
#
# Total GULP energy -178939.665255 kJ/mol
# GULP energy per Si atom -5591.864539 kJ/mol
# Density = 2.323451 g / cm^3
# Si number density = 23.287512 Si / 1000 Ang^3
#
#
#
# Elastic Constant Matrix: (Units=GPa)
#
#
# Indices 1 2 3 4 5 6 
#
# 1 63.1125 24.0519 5.0150 -0.0003 3.7258 0.0013
# 2 24.0519 138.1108 21.6665 -0.0054 4.0507 0.0054
# 3 5.0150 21.6665 39.1421 -0.0109 -0.7326 0.0059
# 4 -0.0003 -0.0054 -0.0109 14.5841 0.0049 3.2039
# 5 3.7258 4.0507 -0.7326 0.0049 14.2637 -0.0037
# 6 0.0013 0.0054 0.0059 3.2039 -0.0037 36.4270
#
#
#
# Elastic Compliance Matrix: (Units=1/GPa)
#
#
# Indices 1 2 3 4 5 6 
#
# 1 0.017178 -0.002766 -0.000740 0.000000 -0.003740 0.000000
# 2 -0.002766 0.008463 -0.004366 0.000001 -0.001905 -0.000001
# 3 -0.000740 -0.004366 0.028113 0.000020 0.002877 -0.000005
# 4 0.000000 0.000001 0.000020 0.069919 -0.000025 -0.006150
# 5 -0.003740 -0.001905 0.002877 -0.000025 0.071774 0.000009
# 6 0.000000 -0.000001 -0.000005 -0.006150 0.000009 0.027993
#
#
# Mechanical properties :
#
#
# Convention : Reuss Voigt Hill
#
# Bulk Modulus (GPa) = 26.30796 37.98135 32.14465
# Shear Modulus (GPa) = 19.85277 25.69709 22.77493
#
# Velocity S-wave (km/s) = 2.92294 3.32546 3.13067
# Velocity P-wave (km/s) = 4.76581 5.57584 5.18667
#
# Compressibility (1/GPa) = 0.03801131
#
# Stress axis : x y z
#
# Youngs Moduli (GPa) = 58.21283 118.16122 35.57046
#
# Poissons Ratio (x) = 0.32681 0.02632
# Poissons Ratio (y) = 0.16101 0.15530
# Poissons Ratio (z) = 0.04307 0.51587
#
# Static dielectric constant tensor:
#      x y z
#    x 1.911090 0.000000 -0.005970 
#    y 0.000000 1.889960 0.000000 
#    z -0.005970 0.000000 1.895540 
# 
# From -- ./inp_files/308775.got.cif
#   From: 2010.05.17/outbox.cif.g08.bks.cpg/sg15_155_cif.got.tgz:308775.got - 2010.06.03 18:47:42.
