data_PCOD9259961
_publ_section_title
;
Structure prediction by ZEFSAII (Michael W. Deem and Ramdas Pophale) SiO2 
 PCOD9259961
Probable space group: C 2/C
;
_chemical_formula_sum "Si O2"
_cell_formula_units_Z 44
_cell_length_a 12.042622
_cell_length_b 11.601171
_cell_length_c 22.238352
_cell_angle_alpha 90.000000
_cell_angle_beta 144.557047
_cell_angle_gamma 90.000000
_cell_volume 1801.659293
_symmetry_space_group_name_H-M "C 2/C"
_symmetry_group_IT_number 15
_symmetry_cell_setting 'monoclinic'
loop_
_space_group_symop_operation_xyz
x,y,z
-x,y,1/2-z
-x,-y,-z
x,-y,1/2+z
1/2+x,1/2+y,z
1/2-x,1/2+y,1/2-z
1/2-x,1/2-y,-z
1/2+x,1/2-y,1/2+z
loop_
_atom_site_type_symbol
_atom_site_label
_atom_site_fract_x
_atom_site_fract_y
_atom_site_fract_z
Si Si1 0.979448 0.562387 0.390119
Si Si2 0.799867 0.394753 0.935613
Si Si3 0.806962 0.839585 0.406792
Si Si4 0.841998 0.911963 0.299127
Si Si5 0.310872 0.583144 0.461946
Si Si6 0.500000 0.575710 0.750000
O O1 0.933397 0.616185 0.434546
O O2 0.790930 0.521521 0.272778
O O3 0.085695 0.444108 0.457682
O O4 0.125509 0.633694 0.413213
O O5 0.725437 0.265447 0.908633
O O6 0.648677 0.489977 0.847957
O O7 0.754865 0.831481 0.312751
O O8 0.746146 0.967069 0.400232
O O9 0.042244 0.845594 0.514813
O O10 0.892593 0.859454 0.256426
O O11 0.038519 0.948425 0.418751
#
# Coordination Sequence:
#
# PCOD9259961 Si02
#       6
#     8   8   8   8   8   4
#     4  10  20  35  58  79 111 145 184 217 279 316
#     4  10  20  35  55  85 106 146 181 227 266 332
#     4   9  20  38  55  80 116 140 184 221 280 317
#     4   9  19  37  55  81 107 148 180 224 270 328
#     4   9  19  39  54  76 114 149 168 234 265 322
#     4  10  18  36  60  74 114 142 184 228 272 308
#
# _framework density 24.421931000000001
#
# number of rings (size 3 to 8) (size 9 to 14) (size 15 to 20)
#    1.091    1.455    1.818    0.000    0.000    3.636 
#    6.545    0.000    0.000    2.182    0.000    0.000 
#    0.000    0.000    0.000    0.000    0.000    0.000 
#
# Total GULP energy -122571.018377 kJ/mol
# GULP energy per Si atom -5571.409926 kJ/mol
# Density = 2.436635 g / cm^3
# Si number density = 24.421931 Si / 1000 Ang^3
#
#
#
# Elastic Constant Matrix: (Units=GPa)
#
#
# Indices 1 2 3 4 5 6 
#
# 1 61.3526 -18.0391 1.1809 0.0000 -1.6916 0.0000
# 2 -18.0391 66.7489 14.1616 0.0000 -12.1583 0.0000
# 3 1.1809 14.1616 70.4182 0.0000 -1.4944 0.0000
# 4 0.0000 0.0000 0.0000 21.9068 0.0000 -3.0739
# 5 -1.6916 -12.1583 -1.4944 0.0000 35.8713 0.0000
# 6 0.0000 0.0000 0.0000 -3.0739 0.0000 1.8793
#
#
#
# Elastic Compliance Matrix: (Units=1/GPa)
#
#
# Indices 1 2 3 4 5 6 
#
# 1 0.018069 0.005672 -0.001386 0.000000 0.002717 0.000000
# 2 0.005672 0.018453 -0.003671 0.000000 0.006369 0.000000
# 3 -0.001386 -0.003671 0.014948 0.000000 -0.000687 0.000000
# 4 0.000000 0.000000 0.000000 0.059246 0.000000 0.096908
# 5 0.002717 0.006369 -0.000687 0.000000 0.030136 0.000000
# 6 0.000000 0.000000 0.000000 0.096908 0.000000 0.690624
#
#
# Mechanical properties :
#
#
# Convention : Reuss Voigt Hill
#
# Bulk Modulus (GPa) = 18.97548 21.45849 20.21698
# Shear Modulus (GPa) = 5.89753 25.34590 15.62172
#
# Velocity S-wave (km/s) = 1.55567 3.22504 2.53189
# Velocity P-wave (km/s) = 3.31866 4.76167 4.10408
#
# Compressibility (1/GPa) = 0.05269960
#
# Stress axis : x y z
#
# Youngs Moduli (GPa) = 55.34486 54.19056 66.89943
#
# Poissons Ratio (x) = -0.30737 0.09272
# Poissons Ratio (y) = -0.31392 0.24559
# Poissons Ratio (z) = 0.07671 0.19894
#
# Static dielectric constant tensor:
#      x y z
#    x 2.120480 0.000000 0.024600 
#    y 0.000000 2.009280 0.000000 
#    z 0.024600 0.000000 1.897350 
# 
# From -- ./inp_files/273692.got.cif
#   From: 2010.05.17/outbox.cif.g08.bks.cpg/sg15_137_cif.got.tgz:273692.got - 2010.06.03 18:47:42.
