data_PCOD9259160
_publ_section_title
;
Structure prediction by ZEFSAII (Michael W. Deem and Ramdas Pophale) SiO2 
 PCOD9259160
Probable space group: C 2/C
;
_chemical_formula_sum "Si O2"
_cell_formula_units_Z 60
_cell_length_a 17.479319
_cell_length_b 13.949087
_cell_length_c 11.621250
_cell_angle_alpha 90.000000
_cell_angle_beta 76.755420
_cell_angle_gamma 90.000000
_cell_volume 2758.131033
_symmetry_space_group_name_H-M "C 2/C"
_symmetry_group_IT_number 15
_symmetry_cell_setting 'monoclinic'
loop_
_space_group_symop_operation_xyz
x,y,z
-x,y,1/2-z
-x,-y,-z
x,-y,1/2+z
1/2+x,1/2+y,z
1/2-x,1/2+y,1/2-z
1/2-x,1/2-y,-z
1/2+x,1/2-y,1/2+z
loop_
_atom_site_type_symbol
_atom_site_label
_atom_site_fract_x
_atom_site_fract_y
_atom_site_fract_z
Si Si1 0.356142 0.364701 0.702493
Si Si2 0.250563 0.965406 0.184226
Si Si3 0.345746 0.831523 0.550568
Si Si4 0.915371 0.675740 0.780676
Si Si5 0.080214 0.503459 0.898301
Si Si6 0.500000 0.508924 0.250000
Si Si7 0.879364 0.064840 0.952815
Si Si8 0.294931 0.622809 0.568786
O O1 0.280545 0.430041 0.760241
O O2 0.357279 0.258062 0.752866
O O3 0.428321 0.426172 0.730054
O O4 0.369586 0.362425 0.560916
O O5 0.183605 0.920519 0.127174
O O6 0.255075 0.909876 0.303680
O O7 0.332594 0.963543 0.085426
O O8 0.397808 0.845183 0.418467
O O9 0.390967 0.893846 0.631309
O O10 0.338708 0.720654 0.582613
O O11 0.261522 0.859622 0.521104
O O12 0.926589 0.578590 0.703268
O O13 0.000000 0.725809 0.750000
O O14 0.000000 0.500000 0.000000
O O15 0.535940 0.445652 0.134532
O O16 0.854721 0.961582 0.015430
#
# Coordination Sequence:
#
# PCOD9259160 Si02
#       8
#     8   8   8   8   8   4   8   8
#     4  10  22  38  66  94 125 169 213 267 318 388
#     4  10  21  40  64  96 136 167 214 265 334 389
#     4  11  22  40  66  93 121 168 228 266 314 380
#     4  12  24  43  66  94 128 166 223 272 318 387
#     4  12  25  40  62  93 128 172 219 272 324 372
#     4  10  18  34  60  96 128 164 204 254 326 392
#     4  10  20  37  60  94 133 165 200 265 331 383
#     4  10  21  37  68  95 123 168 217 270 315 385
#
# _framework density 21.753861000000001
#
# number of rings (size 3 to 8) (size 9 to 14) (size 15 to 20)
#    0.000    1.333    4.667    2.000    1.867    0.000 
#    0.000    2.000    0.000    0.000    1.733    0.000 
#    0.000    0.000    0.000    0.000    0.000    0.000 
#
# Total GULP energy -167162.623387 kJ/mol
# GULP energy per Si atom -5572.087446 kJ/mol
# Density = 2.170435 g / cm^3
# Si number density = 21.753861 Si / 1000 Ang^3
#
#
#
# Elastic Constant Matrix: (Units=GPa)
#
#
# Indices 1 2 3 4 5 6 
#
# 1 84.2566 27.5225 21.7366 0.0000 -29.7269 0.0000
# 2 27.5225 77.0181 25.8350 0.0000 0.3175 0.0000
# 3 21.7366 25.8350 102.5086 0.0000 -20.2640 0.0000
# 4 0.0000 0.0000 0.0000 24.1944 0.0000 3.6908
# 5 -29.7269 0.3175 -20.2640 0.0000 38.0529 0.0000
# 6 0.0000 0.0000 0.0000 3.6908 0.0000 31.5427
#
#
#
# Elastic Compliance Matrix: (Units=1/GPa)
#
#
# Indices 1 2 3 4 5 6 
#
# 1 0.019656 -0.007365 0.000822 0.000000 0.015855 0.000000
# 2 -0.007365 0.017119 -0.004379 0.000000 -0.008229 0.000000
# 3 0.000822 -0.004379 0.012092 0.000000 0.007118 0.000000
# 4 0.000000 0.000000 0.000000 0.042083 0.000000 -0.004924
# 5 0.015855 -0.008229 0.007118 0.000000 0.042524 0.000000
# 6 0.000000 0.000000 0.000000 -0.004924 0.000000 0.032279
#
#
# Mechanical properties :
#
#
# Convention : Reuss Voigt Hill
#
# Bulk Modulus (GPa) = 37.00658 45.99684 41.50171
# Shear Modulus (GPa) = 25.43176 31.33728 28.38452
#
# Velocity S-wave (km/s) = 3.42287 3.79956 3.61613
# Velocity P-wave (km/s) = 5.71575 6.35917 6.04603
#
# Compressibility (1/GPa) = 0.02702222
#
# Stress axis : x y z
#
# Youngs Moduli (GPa) = 50.87516 58.41511 82.70132
#
# Poissons Ratio (x) = 0.43025 -0.06802
# Poissons Ratio (y) = 0.37471 0.36217
# Poissons Ratio (z) = -0.04184 0.25582
#
# Static dielectric constant tensor:
#      x y z
#    x 1.870990 0.000000 -0.025540 
#    y 0.000000 1.856060 0.000000 
#    z -0.025540 0.000000 1.837740 
# 
# From -- ./inp_files/105334.got.cif
#   From: 2010.05.17/outbox.cif.g08.bks.cpg/sg15_53_cif.got.tgz:105334.got - 2010.06.03 18:47:42.
