data_PCOD9259734
_publ_section_title
;
Structure prediction by ZEFSAII (Michael W. Deem and Ramdas Pophale) SiO2 
 PCOD9259734
Probable space group: C 2/C
;
_chemical_formula_sum "Si O2"
_cell_formula_units_Z 64
_cell_length_a 6.819191
_cell_length_b 18.300173
_cell_length_c 23.532636
_cell_angle_alpha 90.000000
_cell_angle_beta 121.209135
_cell_angle_gamma 90.000000
_cell_volume 2511.700115
_symmetry_space_group_name_H-M "C 2/C"
_symmetry_group_IT_number 15
_symmetry_cell_setting 'monoclinic'
loop_
_space_group_symop_operation_xyz
x,y,z
-x,y,1/2-z
-x,-y,-z
x,-y,1/2+z
1/2+x,1/2+y,z
1/2-x,1/2+y,1/2-z
1/2-x,1/2-y,-z
1/2+x,1/2-y,1/2+z
loop_
_atom_site_type_symbol
_atom_site_label
_atom_site_fract_x
_atom_site_fract_y
_atom_site_fract_z
Si Si1 0.252294 0.380063 0.262238
Si Si2 0.387798 0.177743 0.875012
Si Si3 0.511618 0.700601 0.470193
Si Si4 0.885192 0.805113 0.393066
Si Si5 0.911264 0.528375 0.312360
Si Si6 0.830593 0.165315 0.182811
Si Si7 0.562711 0.430660 0.619567
Si Si8 0.156115 0.468019 0.072328
O O1 0.264124 0.338640 0.203516
O O2 0.406512 0.350231 0.337433
O O3 0.239216 0.465901 0.241885
O O4 0.000000 0.370095 0.250000
O O5 0.353806 0.254081 0.902183
O O6 0.642967 0.171279 0.886014
O O7 0.372890 0.117242 0.921778
O O8 0.750000 0.750000 0.500000
O O9 0.451147 0.693761 0.527595
O O10 0.502098 0.618048 0.445227
O O11 0.846010 0.720981 0.370471
O O12 0.784658 0.604984 0.295253
O O13 0.827436 0.546226 0.165311
O O14 0.918916 0.501378 0.378491
O O15 0.966221 0.122031 0.154641
O O16 0.000000 0.208651 0.250000
O O17 0.410613 0.503562 0.597927
O O18 0.000000 0.500000 0.000000
#
# Coordination Sequence:
#
# PCOD9259734 Si02
#       8
#     8   8   8   8   8   8   8   8
#     4   9  19  37  62  90 135 184 223 295 361 427
#     4   9  17  33  63  94 132 179 231 293 357 425
#     4  10  18  35  68 100 135 188 236 298 369 429
#     4  10  19  36  70  98 134 187 239 297 371 436
#     4  10  25  42  66 102 140 183 243 293 369 443
#     4  11  23  40  72 100 132 185 241 299 370 437
#     4  11  23  42  69 100 144 188 239 305 368 435
#     4  10  21  39  68  95 139 186 232 290 356 439
#
# _framework density 25.480751000000001
#
# number of rings (size 3 to 8) (size 9 to 14) (size 15 to 20)
#    0.000    2.000    2.500    2.625    3.500    0.500 
#    0.000    0.625   11.000    3.000    0.000    0.000 
#    0.000    0.000    0.000    0.000    0.000    0.000 
#
# Total GULP energy -178943.191006 kJ/mol
# GULP energy per Si atom -5591.974719 kJ/mol
# Density = 2.542276 g / cm^3
# Si number density = 25.480751 Si / 1000 Ang^3
#
#
#
# Elastic Constant Matrix: (Units=GPa)
#
#
# Indices 1 2 3 4 5 6 
#
# 1 96.0631 34.6710 41.7053 0.0000 -9.9221 0.0000
# 2 34.6710 139.0365 48.7260 0.0000 -14.6686 0.0000
# 3 41.7053 48.7260 170.2292 0.0000 -30.2958 0.0000
# 4 0.0000 0.0000 0.0000 47.9598 0.0000 -8.3175
# 5 -9.9221 -14.6686 -30.2958 0.0000 34.2289 0.0000
# 6 0.0000 0.0000 0.0000 -8.3175 0.0000 25.0634
#
#
#
# Elastic Compliance Matrix: (Units=1/GPa)
#
#
# Indices 1 2 3 4 5 6 
#
# 1 0.012248 -0.002197 -0.002264 0.000000 0.000605 0.000000
# 2 -0.002197 0.008469 -0.001606 0.000000 0.001571 0.000000
# 3 -0.002264 -0.001606 0.007893 0.000000 0.005641 0.000000
# 4 0.000000 0.000000 0.000000 0.022124 0.000000 0.007342
# 5 0.000605 0.001571 0.005641 0.000000 0.035057 0.000000
# 6 0.000000 0.000000 0.000000 0.007342 0.000000 0.042335
#
#
# Mechanical properties :
#
#
# Convention : Reuss Voigt Hill
#
# Bulk Modulus (GPa) = 60.69822 72.83703 66.76762
# Shear Modulus (GPa) = 34.30465 40.13219 37.21842
#
# Velocity S-wave (km/s) = 3.67317 3.97293 3.82599
# Velocity P-wave (km/s) = 6.47012 7.04931 6.76592
#
# Compressibility (1/GPa) = 0.01647495
#
# Stress axis : x y z
#
# Youngs Moduli (GPa) = 81.64435 118.07968 126.69559
#
# Poissons Ratio (x) = 0.25942 0.28687
# Poissons Ratio (y) = 0.17937 0.20351
# Poissons Ratio (z) = 0.18486 0.18967
#
# Static dielectric constant tensor:
#      x y z
#    x 2.060370 0.000000 0.036880 
#    y 0.000000 2.025590 0.000000 
#    z 0.036880 0.000000 2.055930 
# 
# From -- ./inp_files/270429.got.cif
#   From: 2010.05.17/outbox.cif.g08.bks.cpg/sg15_136_cif.got.tgz:270429.got - 2010.06.03 18:47:42.
