data_PCOD9259798
_publ_section_title
;
Structure prediction by ZEFSAII (Michael W. Deem and Ramdas Pophale) SiO2 
 PCOD9259798
Probable space group: C 2/C
;
_chemical_formula_sum "Si O2"
_cell_formula_units_Z 52
_cell_length_a 8.930609
_cell_length_b 14.339151
_cell_length_c 29.712123
_cell_angle_alpha 90.000000
_cell_angle_beta 42.393758
_cell_angle_gamma 90.000000
_cell_volume 2565.317210
_symmetry_space_group_name_H-M "C 2/C"
_symmetry_group_IT_number 15
_symmetry_cell_setting 'monoclinic'
loop_
_space_group_symop_operation_xyz
x,y,z
-x,y,1/2-z
-x,-y,-z
x,-y,1/2+z
1/2+x,1/2+y,z
1/2-x,1/2+y,1/2-z
1/2-x,1/2-y,-z
1/2+x,1/2-y,1/2+z
loop_
_atom_site_type_symbol
_atom_site_label
_atom_site_fract_x
_atom_site_fract_y
_atom_site_fract_z
Si Si1 0.407909 0.695419 0.904504
Si Si2 0.456496 0.965052 0.125177
Si Si3 0.483939 0.687778 0.338602
Si Si4 0.508093 0.870308 0.548170
Si Si5 0.000000 0.064253 0.250000
Si Si6 0.364658 0.107755 0.825227
Si Si7 0.199874 0.781869 0.171561
O O1 0.444457 0.786644 0.926985
O O2 0.610220 0.624823 0.868260
O O3 0.403100 0.728874 0.854440
O O4 0.180089 0.646058 0.969955
O O5 0.599203 0.958017 0.139379
O O6 0.389661 0.861324 0.124830
O O7 0.544173 0.032596 0.066506
O O8 0.217295 0.006658 0.190864
O O9 0.555978 0.625711 0.280806
O O10 0.448949 0.790863 0.324693
O O11 0.669538 0.695630 0.335552
O O12 0.249103 0.646349 0.407673
O O13 0.500000 0.082037 0.750000
O O14 0.000000 0.807348 0.250000
#
# Coordination Sequence:
#
# PCOD9259798 Si02
#       7
#     8   8   8   8   4   8   8
#     4  10  21  39  61  80 119 150 201 234 290 354
#     4  10  21  35  55  83 116 145 198 236 294 343
#     4   9  19  35  60  78 112 155 194 226 303 342
#     4   9  21  40  58  83 110 163 192 242 286 347
#     4  10  18  36  56  80 120 150 184 254 280 354
#     4  10  19  35  58  83 112 158 185 237 299 361
#     4  11  22  35  57  89 112 150 190 248 288 362
#
# _framework density 20.270398
#
# number of rings (size 3 to 8) (size 9 to 14) (size 15 to 20)
#    0.000    2.154    1.538    1.846    4.308    1.846 
#    2.769    0.000    0.000    0.000    0.000    0.000 
#    0.000    0.000    0.000    0.000    0.000    0.000 
#
# Total GULP energy -145097.722893 kJ/mol
# GULP energy per Si atom -5580.681650 kJ/mol
# Density = 2.022426 g / cm^3
# Si number density = 20.270398 Si / 1000 Ang^3
#
#
#
# Elastic Constant Matrix: (Units=GPa)
#
#
# Indices 1 2 3 4 5 6 
#
# 1 119.5163 12.7670 26.1662 -0.0003 13.3632 -0.0007
# 2 12.7670 26.4633 -4.7917 -0.0003 4.0452 -0.0001
# 3 26.1662 -4.7917 64.7029 0.0005 14.7820 0.0003
# 4 -0.0003 -0.0003 0.0005 -3.5770 0.0003 -13.6619
# 5 13.3632 4.0452 14.7820 0.0003 16.3093 0.0003
# 6 -0.0007 -0.0001 0.0003 -13.6619 0.0003 15.0550
#
#
#
# Elastic Compliance Matrix: (Units=1/GPa)
#
#
# Indices 1 2 3 4 5 6 
#
# 1 0.010105 -0.004942 -0.003583 -0.000001 -0.003807 0.000000
# 2 -0.004942 0.043970 0.008603 -0.000001 -0.014654 -0.000001
# 3 -0.003583 0.008603 0.021891 0.000000 -0.019039 0.000000
# 4 -0.000001 -0.000001 0.000000 -0.062599 0.000002 -0.056806
# 5 -0.003807 -0.014654 -0.019039 0.000002 0.085324 0.000001
# 6 0.000000 -0.000001 0.000000 -0.056806 0.000001 0.014873
#
#
# Mechanical properties :
#
#
# Convention : Reuss Voigt Hill
#
# Bulk Modulus (GPa) = 13.13692 30.99619 22.06655
# Shear Modulus (GPa) = 36.02769 17.32687 26.67728
#
# Velocity S-wave (km/s) = 4.22044 2.92685 3.63170
# Velocity P-wave (km/s) = 5.49949 5.17170 5.33811
#
# Compressibility (1/GPa) = 0.07612135
#
# Stress axis : x y z
#
# Youngs Moduli (GPa) = 98.96091 22.74280 45.68110
#
# Poissons Ratio (x) = 0.11239 0.16367
# Poissons Ratio (y) = 0.48906 -0.39298
# Poissons Ratio (z) = 0.35456 -0.19565
#
# Static dielectric constant tensor:
#      x y z
#    x 1.734860 0.000000 -0.003870 
#    y 0.000000 1.752180 0.000000 
#    z -0.003870 0.000000 1.695800 
# 
# From -- ./inp_files/264439.got.cif
#   From: 2010.05.17/outbox.cif.g08.bks.cpg/sg15_133_cif.got.tgz:264439.got - 2010.06.03 18:47:42.
