data_PCOD9259911
_publ_section_title
;
Structure prediction by ZEFSAII (Michael W. Deem and Ramdas Pophale) SiO2 
 PCOD9259911
Probable space group: C 2/C
;
_chemical_formula_sum "Si O2"
_cell_formula_units_Z 40
_cell_length_a 27.773510
_cell_length_b 6.991291
_cell_length_c 11.844089
_cell_angle_alpha 90.000000
_cell_angle_beta 144.217759
_cell_angle_gamma 90.000000
_cell_volume 1344.706643
_symmetry_space_group_name_H-M "C 2/C"
_symmetry_group_IT_number 15
_symmetry_cell_setting 'monoclinic'
loop_
_space_group_symop_operation_xyz
x,y,z
-x,y,1/2-z
-x,-y,-z
x,-y,1/2+z
1/2+x,1/2+y,z
1/2-x,1/2+y,1/2-z
1/2-x,1/2-y,-z
1/2+x,1/2-y,1/2+z
loop_
_atom_site_type_symbol
_atom_site_label
_atom_site_fract_x
_atom_site_fract_y
_atom_site_fract_z
Si Si1 0.073208 0.240684 0.610268
Si Si2 0.325168 0.793498 0.954605
Si Si3 0.750000 0.250000 0.000000
Si Si4 0.307131 0.791706 0.471418
Si Si5 0.913109 0.321004 0.445015
Si Si6 0.000000 0.816809 0.750000
O O1 0.079320 0.450844 0.564196
O O2 0.047789 0.107733 0.453964
O O3 0.000213 0.248937 0.563195
O O4 0.153827 0.214636 0.839938
O O5 0.276988 0.776812 0.746867
O O6 0.292996 0.976668 0.965522
O O7 0.284271 0.630075 0.950925
O O8 0.421978 0.791558 0.152194
O O9 0.657514 0.259365 0.768460
O O10 0.377935 0.788457 0.505914
#
# Coordination Sequence:
#
# PCOD9259911 Si02
#       6
#     8   8   4   8   8   4
#     4  11  20  35  60  92 123 153 211 263 299 356
#     4  11  23  40  65  90 127 162 211 254 314 364
#     4  10  18  36  58  90 122 164 196 256 310 362
#     4  11  23  39  63  95 123 164 207 256 307 372
#     4  10  19  32  60  88 122 154 204 257 302 357
#     4  12  22  40  62  96 126 164 208 264 306 360
#
# _framework density 29.746262000000002
#
# number of rings (size 3 to 8) (size 9 to 14) (size 15 to 20)
#    0.000    1.200    6.000    1.800    0.000    0.800 
#    0.000    0.000    8.800    2.400    0.000    0.000 
#    0.000    0.000    0.000    0.000    0.000    0.000 
#
# Total GULP energy -111458.142387 kJ/mol
# GULP energy per Si atom -5572.907119 kJ/mol
# Density = 2.967856 g / cm^3
# Si number density = 29.746262 Si / 1000 Ang^3
#
#
#
# Elastic Constant Matrix: (Units=GPa)
#
#
# Indices 1 2 3 4 5 6 
#
# 1 179.6576 4.8219 75.8237 0.0000 -11.0056 0.0000
# 2 4.8219 66.6050 37.8533 0.0000 -13.4047 0.0000
# 3 75.8237 37.8533 313.7646 0.0000 -17.7622 0.0000
# 4 0.0000 0.0000 0.0000 3.4658 0.0000 -11.8573
# 5 -11.0056 -13.4047 -17.7622 0.0000 83.8695 0.0000
# 6 0.0000 0.0000 0.0000 -11.8573 0.0000 7.3232
#
#
#
# Elastic Compliance Matrix: (Units=1/GPa)
#
#
# Indices 1 2 3 4 5 6 
#
# 1 0.006237 0.000540 -0.001540 0.000000 0.000579 0.000000
# 2 0.000540 0.016574 -0.002000 0.000000 0.002296 0.000000
# 3 -0.001540 -0.002000 0.003817 0.000000 0.000287 0.000000
# 4 0.000000 0.000000 0.000000 -0.063562 0.000000 -0.102915
# 5 0.000579 0.002296 0.000287 0.000000 0.012427 0.000000
# 6 0.000000 0.000000 0.000000 -0.102915 0.000000 -0.030082
#
#
# Mechanical properties :
#
#
# Convention : Reuss Voigt Hill
#
# Bulk Modulus (GPa) = 48.47813 88.55833 68.51823
# Shear Modulus (GPa) = -119.86188 48.36693 -35.74748
#
# Velocity S-wave (km/s) = -6.35470 4.03672 -3.47038
# Velocity P-wave (km/s) = 6.12457 7.18072 2.65069
#
# Compressibility (1/GPa) = 0.02062786
#
# Stress axis : x y z
#
# Youngs Moduli (GPa) = 160.33683 60.33710 262.00943
#
# Poissons Ratio (x) = -0.03258 0.40338
# Poissons Ratio (y) = -0.08657 0.52401
# Poissons Ratio (z) = 0.24685 0.12067
#
# Static dielectric constant tensor:
#      x y z
#    x 1.968420 0.000000 -0.043320 
#    y 0.000000 1.965370 0.000000 
#    z -0.043320 0.000000 2.140920 
# 
# From -- ./inp_files/94644.got.cif
#   From: 2010.05.17/outbox.cif.g08.bks.cpg/sg15_48_cif.got.tgz:94644.got - 2010.06.03 18:47:42.
