data_PCOD9259106
_publ_section_title
;
Structure prediction by ZEFSAII (Michael W. Deem and Ramdas Pophale) SiO2 
 PCOD9259106
Probable space group: C 2/C
;
_chemical_formula_sum "Si O2"
_cell_formula_units_Z 56
_cell_length_a 19.972755
_cell_length_b 13.634657
_cell_length_c 9.146964
_cell_angle_alpha 90.000000
_cell_angle_beta 110.747772
_cell_angle_gamma 90.000000
_cell_volume 2329.377997
_symmetry_space_group_name_H-M "C 2/C"
_symmetry_group_IT_number 15
_symmetry_cell_setting 'monoclinic'
loop_
_space_group_symop_operation_xyz
x,y,z
-x,y,1/2-z
-x,-y,-z
x,-y,1/2+z
1/2+x,1/2+y,z
1/2-x,1/2+y,1/2-z
1/2-x,1/2-y,-z
1/2+x,1/2-y,1/2+z
loop_
_atom_site_type_symbol
_atom_site_label
_atom_site_fract_x
_atom_site_fract_y
_atom_site_fract_z
Si Si1 0.243774 0.246884 0.169245
Si Si2 0.730439 0.637197 0.544245
Si Si3 0.884126 0.548199 0.615833
Si Si4 0.914511 0.725292 0.826862
Si Si5 0.032878 0.815945 0.125497
Si Si6 0.125830 0.628595 0.205976
Si Si7 0.425391 0.402134 0.621934
O O1 0.276426 0.337524 0.288314
O O2 0.161607 0.250209 0.157603
O O3 0.289346 0.149776 0.245548
O O4 0.250000 0.250000 0.000000
O O5 0.750000 0.750000 0.500000
O O6 0.800372 0.573640 0.571583
O O7 0.660308 0.579155 0.431420
O O8 0.920168 0.616593 0.767242
O O9 0.901721 0.578717 0.464636
O O10 0.893958 0.436833 0.670338
O O11 0.921676 0.792271 0.687697
O O12 0.973215 0.758215 0.986562
O O13 0.092798 0.735258 0.201168
O O14 0.000000 0.850505 0.250000
O O15 0.060271 0.899818 0.039357
O O16 0.500000 0.441212 0.750000
#
# Coordination Sequence:
#
# PCOD9259106 Si02
#       7
#     8   8   8   8   8   8   8
#     4  11  21  35  61  83 111 147 199 248 283 327
#     4  11  17  39  61  79 108 155 195 247 279 340
#     4  11  24  37  58  83 118 155 197 231 291 349
#     4  10  20  38  56  78 109 158 195 230 281 346
#     4  11  22  35  53  83 117 148 194 238 283 333
#     4  12  24  40  54  85 122 154 191 237 289 347
#     4  10  18  34  60  82 105 145 196 243 288 337
#
# _framework density 24.040754
#
# number of rings (size 3 to 8) (size 9 to 14) (size 15 to 20)
#    0.000    1.143    7.143    0.857    6.000    0.571 
#    0.000    0.000    0.000    0.000    0.000   12.000 
#    0.000    0.000    0.000    0.000    0.000    0.000 
#
# Total GULP energy -156261.810850 kJ/mol
# GULP energy per Si atom -5580.778959 kJ/mol
# Density = 2.398604 g / cm^3
# Si number density = 24.040754 Si / 1000 Ang^3
#
#
#
# Elastic Constant Matrix: (Units=GPa)
#
#
# Indices 1 2 3 4 5 6 
#
# 1 88.5003 -5.2314 1.6619 0.0000 3.1567 0.0000
# 2 -5.2314 38.5812 -3.9394 0.0000 -8.1668 0.0000
# 3 1.6619 -3.9394 86.4739 0.0000 -24.1131 0.0000
# 4 0.0000 0.0000 0.0000 6.9713 0.0000 -16.0721
# 5 3.1567 -8.1668 -24.1131 0.0000 51.9667 0.0000
# 6 0.0000 0.0000 0.0000 -16.0721 0.0000 -2.0956
#
#
#
# Elastic Compliance Matrix: (Units=1/GPa)
#
#
# Indices 1 2 3 4 5 6 
#
# 1 0.011410 0.001380 -0.000332 0.000000 -0.000630 0.000000
# 2 0.001380 0.027561 0.002772 0.000000 0.005534 0.000000
# 3 -0.000332 0.002772 0.013581 0.000000 0.006758 0.000000
# 4 0.000000 0.000000 0.000000 0.007678 0.000000 -0.058889
# 5 -0.000630 0.005534 0.006758 0.000000 0.023287 0.000000
# 6 0.000000 0.000000 0.000000 -0.058889 0.000000 -0.025543
#
#
# Mechanical properties :
#
#
# Convention : Reuss Voigt Hill
#
# Bulk Modulus (GPa) = 16.61376 22.05974 19.33675
# Shear Modulus (GPa) = 71.02466 26.10610 48.56538
#
# Velocity S-wave (km/s) = 5.44128 3.29889 4.49946
# Velocity P-wave (km/s) = 6.81193 4.86889 5.92067
#
# Compressibility (1/GPa) = 0.06019106
#
# Stress axis : x y z
#
# Youngs Moduli (GPa) = 87.64489 36.28334 73.63112
#
# Poissons Ratio (x) = -0.05006 0.02446
# Poissons Ratio (y) = -0.12093 -0.20412
# Poissons Ratio (z) = 0.02912 -0.10058
#
# Static dielectric constant tensor:
#      x y z
#    x 1.999970 0.000000 0.031590 
#    y 0.000000 1.888030 0.000000 
#    z 0.031590 0.000000 1.979440 
# 
# From -- ./inp_files/56164.got.cif
#   From: 2010.05.17/outbox.cif.g08.bks.cpg/sg15_29_cif.got.tgz:56164.got - 2010.06.03 18:47:42.
