data_PCOD9259651
_publ_section_title
;
Structure prediction by ZEFSAII (Michael W. Deem and Ramdas Pophale) SiO2 
 PCOD9259651
Probable space group: C 2/C
;
_chemical_formula_sum "Si O2"
_cell_formula_units_Z 64
_cell_length_a 9.779254
_cell_length_b 20.136671
_cell_length_c 16.112511
_cell_angle_alpha 90.000000
_cell_angle_beta 85.941659
_cell_angle_gamma 90.000000
_cell_volume 3164.945737
_symmetry_space_group_name_H-M "C 2/C"
_symmetry_group_IT_number 15
_symmetry_cell_setting 'monoclinic'
loop_
_space_group_symop_operation_xyz
x,y,z
-x,y,1/2-z
-x,-y,-z
x,-y,1/2+z
1/2+x,1/2+y,z
1/2-x,1/2+y,1/2-z
1/2-x,1/2-y,-z
1/2+x,1/2-y,1/2+z
loop_
_atom_site_type_symbol
_atom_site_label
_atom_site_fract_x
_atom_site_fract_y
_atom_site_fract_z
Si Si1 0.780641 0.118696 0.629491
Si Si2 0.838319 0.236423 0.756581
Si Si3 0.345100 0.969231 0.230889
Si Si4 0.045311 0.057758 0.559927
Si Si5 0.617664 0.445187 0.680210
Si Si6 0.571846 0.806372 0.028923
Si Si7 0.711791 0.689067 0.120942
Si Si8 0.285576 0.854639 0.097270
O O1 0.814388 0.176895 0.692158
O O2 0.738527 0.056385 0.686083
O O3 0.656837 0.137871 0.575424
O O4 0.917611 0.105678 0.574272
O O5 0.745389 0.292761 0.715805
O O6 0.787345 0.204146 0.845756
O O7 0.000000 0.253064 0.750000
O O8 0.500000 0.980267 0.250000
O O9 0.338615 0.909904 0.162345
O O10 0.267756 0.035223 0.206528
O O11 0.178985 0.103882 0.545114
O O12 0.069720 0.014825 0.642245
O O13 0.000000 0.000000 0.500000
O O14 0.500000 0.426272 0.750000
O O15 0.645408 0.383339 0.619489
O O16 0.609535 0.740419 0.079814
O O17 0.413026 0.824519 0.041539
O O18 0.645519 0.803528 0.936450
#
# Coordination Sequence:
#
# PCOD9259651 Si02
#       8
#     8   8   8   8   8   8   8   8
#     4  10  18  35  62  87 120 154 200 249 307 355
#     4  10  20  37  64  88 116 156 208 257 291 354
#     4  10  19  35  59  93 119 157 204 255 302 360
#     4  11  22  39  61  92 124 160 200 254 317 367
#     4  11  23  39  59  89 130 165 201 245 309 390
#     4  10  21  42  63  88 120 161 209 257 305 369
#     4  10  24  39  61  86 127 165 199 251 321 363
#     4  10  21  36  65  94 115 154 217 258 297 366
#
# _framework density 20.221515
#
# number of rings (size 3 to 8) (size 9 to 14) (size 15 to 20)
#    0.000    1.750    3.750    0.750    1.750    0.500 
#    2.250    3.750    0.000    0.000    0.000    0.000 
#    0.000    0.000    0.000    0.000    0.000    0.000 
#
# Total GULP energy -178450.687516 kJ/mol
# GULP energy per Si atom -5576.583985 kJ/mol
# Density = 2.017549 g / cm^3
# Si number density = 20.221515 Si / 1000 Ang^3
#
#
#
# Elastic Constant Matrix: (Units=GPa)
#
#
# Indices 1 2 3 4 5 6 
#
# 1 115.6120 20.5492 16.9229 0.0000 -20.1665 0.0000
# 2 20.5492 58.3853 7.2585 0.0000 -14.8623 0.0000
# 3 16.9229 7.2585 33.2875 0.0000 -1.8337 0.0000
# 4 0.0000 0.0000 0.0000 8.8133 0.0000 1.3500
# 5 -20.1665 -14.8623 -1.8337 0.0000 18.7834 0.0000
# 6 0.0000 0.0000 0.0000 1.3500 0.0000 21.9939
#
#
#
# Elastic Compliance Matrix: (Units=1/GPa)
#
#
# Indices 1 2 3 4 5 6 
#
# 1 0.011478 -0.000496 -0.005097 0.000000 0.011434 0.000000
# 2 -0.000496 0.021948 -0.003626 0.000000 0.016480 0.000000
# 3 -0.005097 -0.003626 0.033142 0.000000 -0.005106 0.000000
# 4 0.000000 0.000000 0.000000 0.114541 0.000000 -0.007031
# 5 0.011434 0.016480 -0.005106 0.000000 0.078056 0.000000
# 6 0.000000 0.000000 0.000000 -0.007031 0.000000 0.045899
#
#
# Mechanical properties :
#
#
# Convention : Reuss Voigt Hill
#
# Bulk Modulus (GPa) = 20.77703 32.97178 26.87441
# Shear Modulus (GPa) = 14.72557 20.75507 17.74032
#
# Velocity S-wave (km/s) = 2.70147 3.20720 2.96514
# Velocity P-wave (km/s) = 4.47522 5.48229 5.00416
#
# Compressibility (1/GPa) = 0.04813008
#
# Stress axis : x y z
#
# Youngs Moduli (GPa) = 87.12105 45.56242 30.17307
#
# Poissons Ratio (x) = 0.02258 0.15381
# Poissons Ratio (y) = 0.04318 0.10941
# Poissons Ratio (z) = 0.44410 0.16521
#
# Static dielectric constant tensor:
#      x y z
#    x 1.711400 0.000000 0.042840 
#    y 0.000000 1.735890 0.000000 
#    z 0.042840 0.000000 1.766110 
# 
# From -- ./inp_files/192148.got.cif
#   From: 2010.05.17/outbox.cif.g08.bks.cpg/sg15_97_cif.got.tgz:192148.got - 2010.06.03 18:47:42.
