data_PCOD9259897
_publ_section_title
;
Structure prediction by ZEFSAII (Michael W. Deem and Ramdas Pophale) SiO2 
 PCOD9259897
Probable space group: C 2/C
;
_chemical_formula_sum "Si O2"
_cell_formula_units_Z 52
_cell_length_a 17.982314
_cell_length_b 14.179882
_cell_length_c 15.985695
_cell_angle_alpha 90.000000
_cell_angle_beta 40.866116
_cell_angle_gamma 90.000000
_cell_volume 2666.996544
_symmetry_space_group_name_H-M "C 2/C"
_symmetry_group_IT_number 15
_symmetry_cell_setting 'monoclinic'
loop_
_space_group_symop_operation_xyz
x,y,z
-x,y,1/2-z
-x,-y,-z
x,-y,1/2+z
1/2+x,1/2+y,z
1/2-x,1/2+y,1/2-z
1/2-x,1/2-y,-z
1/2+x,1/2-y,1/2+z
loop_
_atom_site_type_symbol
_atom_site_label
_atom_site_fract_x
_atom_site_fract_y
_atom_site_fract_z
Si Si1 0.276930 0.433356 0.441413
Si Si2 0.046817 0.603981 0.444332
Si Si3 0.300849 0.183034 0.643816
Si Si4 0.791260 0.746669 0.103126
Si Si5 0.345346 0.164683 0.309374
Si Si6 0.869327 0.138615 0.379799
Si Si7 0.500000 0.682515 0.750000
O O1 0.248504 0.402659 0.370606
O O2 0.180035 0.389300 0.583440
O O3 0.295229 0.543438 0.438647
O O4 0.395476 0.382771 0.365767
O O5 0.132084 0.656854 0.435119
O O6 0.113817 0.599274 0.299760
O O7 0.000000 0.500000 0.500000
O O8 0.934539 0.668557 0.536410
O O9 0.243938 0.197311 0.782980
O O10 0.266077 0.276879 0.622461
O O11 0.680886 0.708452 0.147944
O O12 0.855359 0.812090 0.981666
O O13 0.441439 0.245214 0.235683
O O14 0.000000 0.116614 0.250000
#
# Coordination Sequence:
#
# PCOD9259897 Si02
#       7
#     8   8   8   8   8   8   4
#     4  11  21  37  63  93 120 159 205 255 298 373
#     4  11  22  38  61  92 124 158 210 253 299 365
#     4  10  21  39  61  88 124 155 202 252 312 355
#     4  10  24  42  65  86 124 168 197 253 312 362
#     4  10  21  35  60  89 124 161 199 250 316 355
#     4  11  23  44  63  89 123 161 209 244 305 373
#     4  10  18  36  58  86 120 156 196 254 308 358
#
# _framework density 19.497588
#
# number of rings (size 3 to 8) (size 9 to 14) (size 15 to 20)
#    0.000    1.538    0.769    5.538    2.154    0.000 
#    0.000    0.769    0.000    0.000    0.000    0.000 
#    0.000    0.000    0.000    0.000    0.000    0.000 
#
# Total GULP energy -145088.364129 kJ/mol
# GULP energy per Si atom -5580.321697 kJ/mol
# Density = 1.945321 g / cm^3
# Si number density = 19.497588 Si / 1000 Ang^3
#
#
#
# Elastic Constant Matrix: (Units=GPa)
#
#
# Indices 1 2 3 4 5 6 
#
# 1 78.4288 14.6829 43.1516 0.0000 11.5576 0.0000
# 2 14.6829 76.5238 42.3582 0.0000 24.9739 0.0000
# 3 43.1516 42.3582 75.6311 0.0000 17.1271 0.0000
# 4 0.0000 0.0000 0.0000 18.4531 0.0000 -3.4954
# 5 11.5576 24.9739 17.1271 0.0000 38.4229 0.0000
# 6 0.0000 0.0000 0.0000 -3.4954 0.0000 15.1621
#
#
#
# Elastic Compliance Matrix: (Units=1/GPa)
#
#
# Indices 1 2 3 4 5 6 
#
# 1 0.019449 0.004351 -0.012867 0.000000 -0.002943 0.000000
# 2 0.004351 0.022735 -0.012872 0.000000 -0.010348 0.000000
# 3 -0.012867 -0.012872 0.027809 0.000000 -0.000159 0.000000
# 4 0.000000 0.000000 0.000000 0.056666 0.000000 0.013063
# 5 -0.002943 -0.010348 -0.000159 0.000000 0.033708 0.000000
# 6 0.000000 0.000000 0.000000 0.013063 0.000000 0.068965
#
#
# Mechanical properties :
#
#
# Convention : Reuss Voigt Hill
#
# Bulk Modulus (GPa) = 36.74278 47.88547 42.31413
# Shear Modulus (GPa) = 17.78209 23.10035 20.44122
#
# Velocity S-wave (km/s) = 3.02323 3.44580 3.24141
# Velocity P-wave (km/s) = 5.57425 6.35959 5.97983
#
# Compressibility (1/GPa) = 0.02721623
#
# Stress axis : x y z
#
# Youngs Moduli (GPa) = 51.41647 43.98418 35.95995
#
# Poissons Ratio (x) = -0.19137 0.46270
# Poissons Ratio (y) = -0.22371 0.46289
# Poissons Ratio (z) = 0.66158 0.56618
#
# Static dielectric constant tensor:
#      x y z
#    x 1.716310 0.000000 -0.008320 
#    y 0.000000 1.675280 0.000000 
#    z -0.008320 0.000000 1.666680 
# 
# From -- ./inp_files/162495.got.cif
#   From: 2010.05.17/outbox.cif.g08.bks.cpg/sg15_82_cif.got.tgz:162495.got - 2010.06.03 18:47:42.
