data_PCOD9259029
_publ_section_title
;
Structure prediction by ZEFSAII (Michael W. Deem and Ramdas Pophale) SiO2 
 PCOD9259029
Probable space group: C 2/C
;
_chemical_formula_sum "Si O2"
_cell_formula_units_Z 48
_cell_length_a 22.566731
_cell_length_b 8.723257
_cell_length_c 25.663140
_cell_angle_alpha 90.000000
_cell_angle_beta 22.814823
_cell_angle_gamma 90.000000
_cell_volume 1958.905459
_symmetry_space_group_name_H-M "C 2/C"
_symmetry_group_IT_number 15
_symmetry_cell_setting 'monoclinic'
loop_
_space_group_symop_operation_xyz
x,y,z
-x,y,1/2-z
-x,-y,-z
x,-y,1/2+z
1/2+x,1/2+y,z
1/2-x,1/2+y,1/2-z
1/2-x,1/2-y,-z
1/2+x,1/2-y,1/2+z
loop_
_atom_site_type_symbol
_atom_site_label
_atom_site_fract_x
_atom_site_fract_y
_atom_site_fract_z
Si Si1 0.932787 0.261514 0.858081
Si Si2 0.068636 0.829018 0.556215
Si Si3 0.728416 0.954279 0.816062
Si Si4 0.351036 0.610976 0.618424
Si Si5 0.123780 0.929464 0.617851
Si Si6 0.398237 0.015901 0.472533
O O1 0.000000 0.331440 0.750000
O O2 0.969531 0.081472 0.826625
O O3 0.750000 0.250000 0.000000
O O4 0.976950 0.348080 0.875593
O O5 0.175226 0.885091 0.422448
O O6 0.163365 0.851854 0.531948
O O7 0.026264 0.650575 0.585988
O O8 0.903828 0.910644 0.688001
O O9 0.638401 0.794064 0.879645
O O10 0.658405 0.043935 0.922490
O O11 0.740073 0.044391 0.752479
O O12 0.500000 0.500000 0.500000
O O13 0.256502 0.978353 0.548708
O O14 0.000000 0.832820 0.750000
#
# Coordination Sequence:
#
# PCOD9259029 Si02
#       6
#     8   8   8   8   8   8
#     4   9  20  37  55  83 125 164 206 243 292 367
#     4  10  20  36  58  89 120 156 205 248 310 373
#     4  10  20  40  62  87 120 155 207 262 314 375
#     4   9  21  40  61  85 118 157 203 262 315 373
#     4  10  18  34  58  86 124 161 194 243 307 364
#     4  10  20  36  58  88 123 158 200 249 299 374
#
# _framework density 24.50348
#
# number of rings (size 3 to 8) (size 9 to 14) (size 15 to 20)
#    0.000    2.333    1.667    0.500    0.000    2.000 
#   12.000   10.833    0.000    0.000    0.000    0.000 
#    0.000    0.000    0.000    0.000    0.000    0.000 
#
# Total GULP energy -133785.454382 kJ/mol
# GULP energy per Si atom -5574.393933 kJ/mol
# Density = 2.444771 g / cm^3
# Si number density = 24.503480 Si / 1000 Ang^3
#
#
#
# Elastic Constant Matrix: (Units=GPa)
#
#
# Indices 1 2 3 4 5 6 
#
# 1 127.5445 48.0830 68.9875 -0.0014 34.5822 0.0014
# 2 48.0830 69.4949 41.6463 -0.0015 29.2698 0.0023
# 3 68.9875 41.6463 128.8240 -0.0015 55.8051 0.0006
# 4 -0.0014 -0.0015 -0.0015 40.2388 0.0013 5.8440
# 5 34.5822 29.2698 55.8051 0.0013 58.5203 -0.0002
# 6 0.0014 0.0023 0.0006 5.8440 -0.0002 33.3589
#
#
#
# Elastic Compliance Matrix: (Units=1/GPa)
#
#
# Indices 1 2 3 4 5 6 
#
# 1 0.012701 -0.005881 -0.004981 0.000000 0.000186 0.000000
# 2 -0.005881 0.021822 -0.001163 0.000001 -0.006330 -0.000001
# 3 -0.004981 -0.001163 0.015810 0.000001 -0.011551 0.000000
# 4 0.000000 0.000001 0.000001 0.025500 -0.000002 -0.004467
# 5 0.000186 -0.006330 -0.011551 -0.000002 0.031160 0.000001
# 6 0.000000 -0.000001 0.000000 -0.004467 0.000001 0.030760
#
#
# Mechanical properties :
#
#
# Convention : Reuss Voigt Hill
#
# Bulk Modulus (GPa) = 38.04817 71.47745 54.76281
# Shear Modulus (GPa) = 29.31462 37.56669 33.44065
#
# Velocity S-wave (km/s) = 3.46257 3.91975 3.69823
# Velocity P-wave (km/s) = 5.61670 7.05121 6.37444
#
# Compressibility (1/GPa) = 0.02628248
#
# Stress axis : x y z
#
# Youngs Moduli (GPa) = 78.73172 45.82592 63.25258
#
# Poissons Ratio (x) = 0.26951 0.31506
# Poissons Ratio (y) = 0.46304 0.07356
# Poissons Ratio (z) = 0.39216 0.05329
#
# Static dielectric constant tensor:
#      x y z
#    x 1.966530 0.000000 0.015590 
#    y 0.000000 2.034140 0.000000 
#    z 0.015590 0.000000 1.963970 
# 
# From -- ./inp_files/281603.got.cif
#   From: 2010.05.17/outbox.cif.g08.bks.cpg/sg15_141_cif.got.tgz:281603.got - 2010.06.03 18:47:42.
