data_PCOD9259774
_publ_section_title
;
Structure prediction by ZEFSAII (Michael W. Deem and Ramdas Pophale) SiO2 
 PCOD9259774
Probable space group: C 2/C
;
_chemical_formula_sum "Si O2"
_cell_formula_units_Z 64
_cell_length_a 13.837510
_cell_length_b 25.950547
_cell_length_c 16.698527
_cell_angle_alpha 90.000000
_cell_angle_beta 146.584771
_cell_angle_gamma 90.000000
_cell_volume 3302.172605
_symmetry_space_group_name_H-M "C 2/C"
_symmetry_group_IT_number 15
_symmetry_cell_setting 'monoclinic'
loop_
_space_group_symop_operation_xyz
x,y,z
-x,y,1/2-z
-x,-y,-z
x,-y,1/2+z
1/2+x,1/2+y,z
1/2-x,1/2+y,1/2-z
1/2-x,1/2-y,-z
1/2+x,1/2-y,1/2+z
loop_
_atom_site_type_symbol
_atom_site_label
_atom_site_fract_x
_atom_site_fract_y
_atom_site_fract_z
Si Si1 0.216054 0.074265 0.279545
Si Si2 0.120289 0.653583 0.691404
Si Si3 0.800335 0.417922 0.014702
Si Si4 0.672632 0.960418 0.922526
Si Si5 0.613306 0.906891 0.040749
Si Si6 0.547772 0.466947 0.187444
Si Si7 0.560452 0.360548 0.980598
Si Si8 0.046756 0.761124 0.869833
O O1 0.205184 0.092999 0.364153
O O2 0.423871 0.065813 0.414605
O O3 0.127889 0.111995 0.154793
O O4 0.107026 0.022427 0.199929
O O5 0.096361 0.646001 0.578935
O O6 0.988755 0.610532 0.638521
O O7 0.055421 0.708734 0.679000
O O8 0.318899 0.644392 0.857881
O O9 0.821623 0.480004 0.039605
O O10 0.685033 0.392481 0.004662
O O11 0.500000 0.957632 0.750000
O O12 0.658971 0.915709 0.980034
O O13 0.866048 0.952708 0.018772
O O14 0.776759 0.933672 0.198487
O O15 0.500000 0.468191 0.250000
O O16 0.526550 0.303994 0.922619
O O17 0.000000 0.781834 0.750000
O O18 0.250000 0.750000 0.000000
#
# Coordination Sequence:
#
# PCOD9259774 Si02
#       8
#     8   8   8   8   8   8   8   8
#     4  11  20  33  55  80 112 151 192 237 288 337
#     4  11  24  36  52  80 120 156 198 242 297 332
#     4  11  19  34  52  80 114 157 204 239 277 342
#     4  11  22  37  60  81 109 153 207 242 289 352
#     4  10  24  38  54  78 118 155 196 249 294 339
#     4  10  18  36  55  75 108 150 195 235 284 342
#     4  12  22  35  56  84 116 156 203 236 277 352
#     4  12  22  38  58  84 118 160 200 233 278 346
#
# _framework density 19.381178999999999
#
# number of rings (size 3 to 8) (size 9 to 14) (size 15 to 20)
#    0.000    1.000    6.250    2.625    3.500    1.000 
#    0.000    1.250    0.000    0.000    0.000    0.000 
#    0.000   52.000    0.000    0.000    0.000    0.000 
#
# Total GULP energy -178395.124000 kJ/mol
# GULP energy per Si atom -5574.847625 kJ/mol
# Density = 1.933707 g / cm^3
# Si number density = 19.381179 Si / 1000 Ang^3
#
#
#
# Elastic Constant Matrix: (Units=GPa)
#
#
# Indices 1 2 3 4 5 6 
#
# 1 34.5987 19.5921 26.8845 0.0000 9.5945 0.0000
# 2 19.5921 48.8612 23.0478 0.0000 -4.1253 0.0000
# 3 26.8845 23.0478 159.5682 0.0000 16.3263 0.0000
# 4 0.0000 0.0000 0.0000 21.2584 0.0000 -3.8348
# 5 9.5945 -4.1253 16.3263 0.0000 35.8027 0.0000
# 6 0.0000 0.0000 0.0000 -3.8348 0.0000 12.1228
#
#
#
# Elastic Compliance Matrix: (Units=1/GPa)
#
#
# Indices 1 2 3 4 5 6 
#
# 1 0.045113 -0.017321 -0.003837 0.000000 -0.012336 0.000000
# 2 -0.017321 0.029223 -0.002226 0.000000 0.009024 0.000000
# 3 -0.003837 -0.002226 0.007506 0.000000 -0.002651 0.000000
# 4 0.000000 0.000000 0.000000 0.049887 0.000000 0.015781
# 5 -0.012336 0.009024 -0.002651 0.000000 0.033485 0.000000
# 6 0.000000 0.000000 0.000000 0.015781 0.000000 0.087481
#
#
# Mechanical properties :
#
#
# Convention : Reuss Voigt Hill
#
# Bulk Modulus (GPa) = 28.51023 42.45298 35.48161
# Shear Modulus (GPa) = 16.06914 25.40369 20.73641
#
# Velocity S-wave (km/s) = 2.88255 3.62434 3.27452
# Velocity P-wave (km/s) = 5.08144 6.28222 5.71346
#
# Compressibility (1/GPa) = 0.03507512
#
# Stress axis : x y z
#
# Youngs Moduli (GPa) = 22.16640 34.21924 133.22448
#
# Poissons Ratio (x) = 0.59271 0.51116
# Poissons Ratio (y) = 0.38394 0.29656
# Poissons Ratio (z) = 0.08505 0.07617
#
# Static dielectric constant tensor:
#      x y z
#    x 1.740950 0.000000 0.008900 
#    y 0.000000 1.655840 0.000000 
#    z 0.008900 0.000000 1.726100 
# 
# From -- ./inp_files/207362.got.cif
#   From: 2010.05.17/outbox.cif.g08.bks.cpg/sg15_104_cif.got.tgz:207362.got - 2010.06.03 18:47:42.
