data_PCOD9259362
_publ_section_title
;
Structure prediction by ZEFSAII (Michael W. Deem and Ramdas Pophale) SiO2 
 PCOD9259362
Probable space group: C 2/C
;
_chemical_formula_sum "Si O2"
_cell_formula_units_Z 60
_cell_length_a 24.946070
_cell_length_b 23.634902
_cell_length_c 13.331336
_cell_angle_alpha 90.000000
_cell_angle_beta 25.094080
_cell_angle_gamma 90.000000
_cell_volume 3333.526286
_symmetry_space_group_name_H-M "C 2/C"
_symmetry_group_IT_number 15
_symmetry_cell_setting 'monoclinic'
loop_
_space_group_symop_operation_xyz
x,y,z
-x,y,1/2-z
-x,-y,-z
x,-y,1/2+z
1/2+x,1/2+y,z
1/2-x,1/2+y,1/2-z
1/2-x,1/2-y,-z
1/2+x,1/2-y,1/2+z
loop_
_atom_site_type_symbol
_atom_site_label
_atom_site_fract_x
_atom_site_fract_y
_atom_site_fract_z
Si Si1 0.322031 0.663937 0.131457
Si Si2 0.500000 0.493746 0.250000
Si Si3 0.906319 0.586653 0.996523
Si Si4 0.704406 0.894384 0.469559
Si Si5 0.929962 0.888527 0.241303
Si Si6 0.125452 0.289686 0.472018
Si Si7 0.721663 0.030815 0.750538
Si Si8 0.964813 0.380351 0.020872
O O1 0.198891 0.628984 0.368396
O O2 0.303699 0.730880 0.161638
O O3 0.444228 0.647980 0.990994
O O4 0.360728 0.641074 0.954277
O O5 0.478176 0.450190 0.194774
O O6 0.371436 0.528469 0.478270
O O7 0.000000 0.568462 0.750000
O O8 0.834588 0.532030 0.162539
O O9 0.981681 0.617189 0.958317
O O10 0.829807 0.893629 0.323216
O O11 0.696716 0.837434 0.415856
O O12 0.700485 0.945886 0.398636
O O13 0.581288 0.895657 0.748994
O O14 0.085334 0.320613 0.436973
O O15 0.000000 0.276072 0.750000
O O16 0.644428 0.073057 0.809879
#
# Coordination Sequence:
#
# PCOD9259362 Si02
#       8
#     8   4   8   8   8   8   8   8
#     4  10  19  36  56  82 116 141 186 233 280 329
#     4  10  20  36  54  76 116 152 180 226 272 334
#     4  12  23  38  58  82 108 154 193 225 283 336
#     4  10  20  34  58  89 113 144 186 230 284 330
#     4  10  18  35  55  82 114 144 178 239 278 325
#     4   9  18  33  59  87 110 141 182 233 286 329
#     4  11  21  38  57  84 115 147 186 228 282 336
#     4  10  21  38  57  84 116 143 186 242 276 324
#
# _framework density 17.998957999999998
#
# number of rings (size 3 to 8) (size 9 to 14) (size 15 to 20)
#    0.000    1.867    5.333    2.400    0.000    3.200 
#    2.400    0.667    5.867    0.000    0.000    0.000 
#    0.000    0.000    0.000    0.000    0.000    0.000 
#
# Total GULP energy -167386.085532 kJ/mol
# GULP energy per Si atom -5579.536184 kJ/mol
# Density = 1.795799 g / cm^3
# Si number density = 17.998958 Si / 1000 Ang^3
#
#
#
# Elastic Constant Matrix: (Units=GPa)
#
#
# Indices 1 2 3 4 5 6 
#
# 1 47.8940 -7.6891 7.1947 0.0038 -22.1220 0.0001
# 2 -7.6891 74.4229 16.7844 0.0056 -10.2425 0.0002
# 3 7.1947 16.7844 74.3891 0.0038 -17.2577 0.0006
# 4 0.0038 0.0056 0.0038 -40.5809 -0.0015 0.3277
# 5 -22.1220 -10.2425 -17.2577 -0.0015 26.2785 -0.0002
# 6 0.0001 0.0002 0.0006 0.3277 -0.0002 6.2216
#
#
#
# Elastic Compliance Matrix: (Units=1/GPa)
#
#
# Indices 1 2 3 4 5 6 
#
# 1 0.039861 0.008770 0.003237 0.000004 0.039101 0.000000
# 2 0.008770 0.016459 -0.001605 0.000002 0.012743 0.000000
# 3 0.003237 -0.001605 0.016492 0.000001 0.012930 -0.000001
# 4 0.000004 0.000002 0.000001 -0.024632 0.000003 0.001297
# 5 0.039101 0.012743 0.012930 0.000003 0.084428 0.000001
# 6 0.000000 0.000000 -0.000001 0.001297 0.000001 0.160661
#
#
# Mechanical properties :
#
#
# Convention : Reuss Voigt Hill
#
# Bulk Modulus (GPa) = 10.68213 25.47623 18.07918
# Shear Modulus (GPa) = 16.46515 10.41156 13.43836
#
# Velocity S-wave (km/s) = 3.02782 2.40772 2.73540
# Velocity P-wave (km/s) = 4.26278 4.68129 4.47693
#
# Compressibility (1/GPa) = 0.09361428
#
# Stress axis : x y z
#
# Youngs Moduli (GPa) = 25.08687 60.75837 60.63696
#
# Poissons Ratio (x) = -0.53282 -0.19629
# Poissons Ratio (y) = -0.22000 0.09735
# Poissons Ratio (z) = -0.08121 0.09754
#
# Static dielectric constant tensor:
#      x y z
#    x 1.614210 0.000000 -0.002960 
#    y 0.000000 1.605270 0.000000 
#    z -0.002960 0.000000 1.618490 
# 
# From -- ./inp_files/179271.got.cif
#   From: 2010.05.17/outbox.cif.g08.bks.cpg/sg15_90_cif.got.tgz:179271.got - 2010.06.03 18:47:42.
