data_PCOD9259415
_publ_section_title
;
Structure prediction by ZEFSAII (Michael W. Deem and Ramdas Pophale) SiO2 
 PCOD9259415
Probable space group: C 2/C
;
_chemical_formula_sum "Si O2"
_cell_formula_units_Z 56
_cell_length_a 12.242381
_cell_length_b 17.657450
_cell_length_c 19.254451
_cell_angle_alpha 90.000000
_cell_angle_beta 50.518113
_cell_angle_gamma 90.000000
_cell_volume 3212.507958
_symmetry_space_group_name_H-M "C 2/C"
_symmetry_group_IT_number 15
_symmetry_cell_setting 'monoclinic'
loop_
_space_group_symop_operation_xyz
x,y,z
-x,y,1/2-z
-x,-y,-z
x,-y,1/2+z
1/2+x,1/2+y,z
1/2-x,1/2+y,1/2-z
1/2-x,1/2-y,-z
1/2+x,1/2-y,1/2+z
loop_
_atom_site_type_symbol
_atom_site_label
_atom_site_fract_x
_atom_site_fract_y
_atom_site_fract_z
Si Si1 0.845669 0.824497 0.110782
Si Si2 0.740682 0.600763 0.249999
Si Si3 0.205904 0.661135 0.418999
Si Si4 0.130104 0.240858 0.750003
Si Si5 0.067230 0.675502 0.889219
Si Si6 0.456093 0.338865 0.919001
Si Si7 0.873495 0.446397 0.249998
O O1 0.768186 0.747877 0.115868
O O2 0.904977 0.800868 0.162476
O O3 0.739879 0.893462 0.165052
O O4 0.949601 0.843634 0.005191
O O5 0.754647 0.609320 0.161624
O O6 0.822674 0.673332 0.249997
O O7 0.577895 0.609322 0.338376
O O8 0.803483 0.522253 0.249999
O O9 0.304637 0.645842 0.445361
O O10 0.040013 0.656366 0.505189
O O11 0.270069 0.199131 0.662484
O O12 0.000000 0.239385 0.750000
O O13 0.069972 0.606535 0.834954
O O14 0.999914 0.752121 0.884137
O O15 0.000000 0.465924 0.250000
#
# Coordination Sequence:
#
# PCOD9259415 Si02
#       7
#     8   8   8   8   8   8   8
#     4   9  19  33  57  81  99 128 180 221 260 310
#     4  10  22  32  48  76 110 146 178 202 254 326
#     4  10  18  35  57  81 105 133 173 226 267 300
#     4   9  18  36  53  74 106 140 173 217 259 307
#     4   9  19  33  57  81  99 128 180 221 260 310
#     4  10  18  35  57  81 105 133 173 226 267 300
#     4  11  20  34  51  74 106 140 171 215 263 313
#
# _framework density 17.431863
#
# number of rings (size 3 to 8) (size 9 to 14) (size 15 to 20)
#    0.000    2.286    0.000    5.143    0.000    1.143 
#    0.000   18.571    0.000    0.000    0.000    0.000 
#    0.000    0.000    0.000    0.000    0.000    0.000 
#
# Total GULP energy -156085.864732 kJ/mol
# GULP energy per Si atom -5574.495169 kJ/mol
# Density = 1.739219 g / cm^3
# Si number density = 17.431863 Si / 1000 Ang^3
#
#
#
# Elastic Constant Matrix: (Units=GPa)
#
#
# Indices 1 2 3 4 5 6 
#
# 1 94.6564 11.8360 46.3742 0.0000 2.3479 0.0000
# 2 11.8360 77.6593 49.5476 0.0000 -3.7886 0.0000
# 3 46.3742 49.5476 119.1447 0.0000 -4.8001 0.0000
# 4 0.0000 0.0000 0.0000 -17.6726 0.0000 3.4249
# 5 2.3479 -3.7886 -4.8001 0.0000 13.1956 0.0000
# 6 0.0000 0.0000 0.0000 3.4249 0.0000 16.4166
#
#
#
# Elastic Compliance Matrix: (Units=1/GPa)
#
#
# Indices 1 2 3 4 5 6 
#
# 1 0.013439 0.001625 -0.006073 0.000000 -0.004134 0.000000
# 2 0.001625 0.017800 -0.007957 0.000000 0.001927 0.000000
# 3 -0.006073 -0.007957 0.014226 0.000000 0.003971 0.000000
# 4 0.000000 0.000000 0.000000 -0.054386 0.000000 0.011346
# 5 -0.004134 0.001927 0.003971 0.000000 0.078516 0.000000
# 6 0.000000 0.000000 0.000000 0.011346 0.000000 0.058547
#
#
# Mechanical properties :
#
#
# Convention : Reuss Voigt Hill
#
# Bulk Modulus (GPa) = 48.41605 56.33067 52.37336
# Shear Modulus (GPa) = 31.28169 14.63475 22.95822
#
# Velocity S-wave (km/s) = 4.24076 2.90063 3.63302
# Velocity P-wave (km/s) = 7.19816 6.60326 6.90712
#
# Compressibility (1/GPa) = 0.02065431
#
# Stress axis : x y z
#
# Youngs Moduli (GPa) = 74.40881 56.18035 70.29392
#
# Poissons Ratio (x) = -0.09128 0.42691
# Poissons Ratio (y) = -0.12090 0.55933
# Poissons Ratio (z) = 0.45190 0.44703
#
# Static dielectric constant tensor:
#      x y z
#    x 1.565400 0.000000 -0.006600 
#    y 0.000000 1.571100 0.000000 
#    z -0.006600 0.000000 1.631140 
# 
# From -- ./inp_files/198228.got.cif
#   From: 2010.05.17/outbox.cif.g08.bks.cpg/sg15_100_cif.got.tgz:198228.got - 2010.06.03 18:47:42.
