data_PCOD9259517
_publ_section_title
;
Structure prediction by ZEFSAII (Michael W. Deem and Ramdas Pophale) SiO2 
 PCOD9259517
Probable space group: C 2/C
;
_chemical_formula_sum "Si O2"
_cell_formula_units_Z 40
_cell_length_a 12.102262
_cell_length_b 9.938504
_cell_length_c 18.683900
_cell_angle_alpha 90.000000
_cell_angle_beta 53.822707
_cell_angle_gamma 90.000000
_cell_volume 1813.982926
_symmetry_space_group_name_H-M "C 2/C"
_symmetry_group_IT_number 15
_symmetry_cell_setting 'monoclinic'
loop_
_space_group_symop_operation_xyz
x,y,z
-x,y,1/2-z
-x,-y,-z
x,-y,1/2+z
1/2+x,1/2+y,z
1/2-x,1/2+y,1/2-z
1/2-x,1/2-y,-z
1/2+x,1/2-y,1/2+z
loop_
_atom_site_type_symbol
_atom_site_label
_atom_site_fract_x
_atom_site_fract_y
_atom_site_fract_z
Si Si1 0.582818 0.313552 0.453263
Si Si2 0.445231 0.566580 0.131224
Si Si3 0.297934 0.087416 0.177953
Si Si4 0.403657 0.146028 0.419666
Si Si5 0.320009 0.597015 0.888426
O O1 0.609315 0.456996 0.405960
O O2 0.541667 0.332255 0.550558
O O3 0.693024 0.203620 0.386608
O O4 0.449305 0.253427 0.464032
O O5 0.315425 0.625447 0.221219
O O6 0.541314 0.484659 0.149386
O O7 0.452260 0.074069 0.149307
O O8 0.251473 0.953095 0.155749
O O9 0.353694 0.244301 0.376528
O O10 0.283269 0.067225 0.505174
#
# Coordination Sequence:
#
# PCOD9259517 Si02
#       5
#     8   8   8   8   8
#     4   8  20  37  55  81 117 160 192 248 312 360
#     4  10  19  37  59  80 121 155 197 255 305 364
#     4  10  20  35  59  92 111 163 208 242 307 378
#     4   8  19  37  55  84 116 152 199 247 303 354
#     4  10  18  35  59  83 118 151 199 251 297 361
#
# _framework density 22.050924999999999
#
# number of rings (size 3 to 8) (size 9 to 14) (size 15 to 20)
#    1.200    1.600    0.000    1.200    0.000    2.400 
#    3.600    0.000    0.000    0.000    0.000    0.000 
#    0.000    0.000    0.000    0.000    0.000    0.000 
#
# Total GULP energy -111432.438935 kJ/mol
# GULP energy per Si atom -5571.621947 kJ/mol
# Density = 2.200074 g / cm^3
# Si number density = 22.050925 Si / 1000 Ang^3
#
#
#
# Elastic Constant Matrix: (Units=GPa)
#
#
# Indices 1 2 3 4 5 6 
#
# 1 59.4106 21.3241 43.5331 0.0000 -19.1445 0.0000
# 2 21.3241 34.2958 33.1857 0.0000 1.7470 0.0000
# 3 43.5331 33.1857 140.8642 0.0000 -27.4869 0.0000
# 4 0.0000 0.0000 0.0000 14.2290 0.0000 7.5047
# 5 -19.1445 1.7470 -27.4869 0.0000 32.6103 0.0000
# 6 0.0000 0.0000 0.0000 7.5047 0.0000 28.7687
#
#
#
# Elastic Compliance Matrix: (Units=1/GPa)
#
#
# Indices 1 2 3 4 5 6 
#
# 1 0.030036 -0.017877 -0.001727 0.000000 0.017135 0.000000
# 2 -0.017877 0.052313 -0.011244 0.000000 -0.022774 0.000000
# 3 -0.001727 -0.011244 0.012209 0.000000 0.009880 0.000000
# 4 0.000000 0.000000 0.000000 0.081491 0.000000 -0.021258
# 5 0.017135 -0.022774 0.009880 0.000000 0.050272 0.000000
# 6 0.000000 0.000000 0.000000 -0.021258 0.000000 0.040305
#
#
# Mechanical properties :
#
#
# Convention : Reuss Voigt Hill
#
# Bulk Modulus (GPa) = 30.42935 47.85073 39.14004
# Shear Modulus (GPa) = 14.73730 24.22346 19.48038
#
# Velocity S-wave (km/s) = 2.58801 3.31799 2.97547
# Velocity P-wave (km/s) = 4.77074 6.03539 5.43994
#
# Compressibility (1/GPa) = 0.03286301
#
# Stress axis : x y z
#
# Youngs Moduli (GPa) = 33.29389 19.11575 81.90375
#
# Poissons Ratio (x) = 0.34173 0.14147
# Poissons Ratio (y) = 0.59518 0.92089
# Poissons Ratio (z) = 0.05751 0.21493
#
# Static dielectric constant tensor:
#      x y z
#    x 1.818910 0.000000 0.005330 
#    y 0.000000 1.838620 0.000000 
#    z 0.005330 0.000000 1.844100 
# 
# From -- ./inp_files/243014.got.cif
#   From: 2010.05.17/outbox.cif.g08.bks.cpg/sg15_122_cif.got.tgz:243014.got - 2010.06.03 18:47:42.
