data_PCOD9259529
_publ_section_title
;
Structure prediction by ZEFSAII (Michael W. Deem and Ramdas Pophale) SiO2 
 PCOD9259529
Probable space group: C 2/C
;
_chemical_formula_sum "Si O2"
_cell_formula_units_Z 64
_cell_length_a 18.909227
_cell_length_b 11.692869
_cell_length_c 18.311951
_cell_angle_alpha 90.000000
_cell_angle_beta 126.099313
_cell_angle_gamma 90.000000
_cell_volume 3271.441795
_symmetry_space_group_name_H-M "C 2/C"
_symmetry_group_IT_number 15
_symmetry_cell_setting 'monoclinic'
loop_
_space_group_symop_operation_xyz
x,y,z
-x,y,1/2-z
-x,-y,-z
x,-y,1/2+z
1/2+x,1/2+y,z
1/2-x,1/2+y,1/2-z
1/2-x,1/2-y,-z
1/2+x,1/2-y,1/2+z
loop_
_atom_site_type_symbol
_atom_site_label
_atom_site_fract_x
_atom_site_fract_y
_atom_site_fract_z
Si Si1 0.898834 0.559115 0.663029
Si Si2 0.995853 0.848180 0.073104
Si Si3 0.006105 0.885317 0.601866
Si Si4 0.140594 0.710448 0.726321
Si Si5 0.056602 0.496514 0.607780
Si Si6 0.444635 0.834608 0.646637
Si Si7 0.328079 0.789812 0.835887
Si Si8 0.158339 0.733562 0.983649
O O1 0.848896 0.635239 0.693301
O O2 0.875427 0.424532 0.640427
O O3 0.884045 0.621434 0.577667
O O4 0.000000 0.569988 0.750000
O O5 0.090627 0.787785 0.140532
O O6 0.930286 0.769573 0.081784
O O7 0.002212 0.978258 0.103438
O O8 0.977895 0.852901 0.974669
O O9 0.080906 0.823749 0.695312
O O10 0.912734 0.833573 0.568569
O O11 0.084845 0.624162 0.642910
O O12 0.234366 0.747040 0.752087
O O13 0.144980 0.420769 0.660667
O O14 0.000000 0.500000 0.500000
O O15 0.000027 0.426523 0.632574
O O16 0.500000 0.791487 0.750000
O O17 0.326115 0.779549 0.921815
O O18 0.250000 0.750000 0.000000
#
# Coordination Sequence:
#
# PCOD9259529 Si02
#       8
#     8   8   8   8   8   8   8   8
#     4  11  19  34  58  86 114 151 201 248 309 360
#     4   9  21  41  59  83 117 162 201 242 309 381
#     4  10  21  38  61  84 116 161 203 246 309 372
#     4  12  21  35  59  91 120 155 205 258 305 371
#     4  11  21  38  62  88 120 164 214 258 307 381
#     4  10  18  35  59  88 113 154 204 249 301 371
#     4  10  23  35  58  89 121 156 199 254 313 360
#     4  11  20  36  56  86 119 151 196 256 308 367
#
# _framework density 19.563238999999999
#
# number of rings (size 3 to 8) (size 9 to 14) (size 15 to 20)
#    0.000    1.500    5.000    3.000    1.750    0.000 
#    2.250    0.000    0.000    0.750    0.000    0.000 
#    0.000    0.000    0.000    0.000    0.000    0.000 
#
# Total GULP energy -178289.992303 kJ/mol
# GULP energy per Si atom -5571.562259 kJ/mol
# Density = 1.951871 g / cm^3
# Si number density = 19.563239 Si / 1000 Ang^3
#
#
#
# Elastic Constant Matrix: (Units=GPa)
#
#
# Indices 1 2 3 4 5 6 
#
# 1 39.3847 17.3210 0.9966 0.0000 -4.5427 0.0000
# 2 17.3210 134.3714 16.1755 0.0000 -2.8099 0.0000
# 3 0.9966 16.1755 55.5734 0.0000 -6.6041 0.0000
# 4 0.0000 0.0000 0.0000 20.0230 0.0000 -8.4702
# 5 -4.5427 -2.8099 -6.6041 0.0000 17.9345 0.0000
# 6 0.0000 0.0000 0.0000 -8.4702 0.0000 25.1479
#
#
#
# Elastic Compliance Matrix: (Units=1/GPa)
#
#
# Indices 1 2 3 4 5 6 
#
# 1 0.027741 -0.003596 0.001378 0.000000 0.006970 0.000000
# 2 -0.003596 0.008181 -0.002377 0.000000 -0.000504 0.000000
# 3 0.001378 -0.002377 0.019512 0.000000 0.007162 0.000000
# 4 0.000000 0.000000 0.000000 0.058241 0.000000 0.019616
# 5 0.006970 -0.000504 0.007162 0.000000 0.060082 0.000000
# 6 0.000000 0.000000 0.000000 0.019616 0.000000 0.046372
#
#
# Mechanical properties :
#
#
# Convention : Reuss Voigt Hill
#
# Bulk Modulus (GPa) = 21.62426 33.14620 27.38523
# Shear Modulus (GPa) = 20.43028 25.61018 23.02023
#
# Velocity S-wave (km/s) = 3.23510 3.62207 3.43404
# Velocity P-wave (km/s) = 5.00320 5.87132 5.45456
#
# Compressibility (1/GPa) = 0.04624436
#
# Stress axis : x y z
#
# Youngs Moduli (GPa) = 36.04751 122.23208 51.24962
#
# Poissons Ratio (x) = 0.43955 -0.07060
# Poissons Ratio (y) = 0.12963 0.12180
# Poissons Ratio (z) = -0.04966 0.29051
#
# Static dielectric constant tensor:
#      x y z
#    x 1.838090 0.000000 0.005050 
#    y 0.000000 1.738790 0.000000 
#    z 0.005050 0.000000 1.729890 
# 
# From -- ./inp_files/215054.got.cif
#   From: 2010.05.17/outbox.cif.g08.bks.cpg/sg15_108_cif.got.tgz:215054.got - 2010.06.03 18:47:42.
