data_PCOD9259543
_publ_section_title
;
Structure prediction by ZEFSAII (Michael W. Deem and Ramdas Pophale) SiO2 
 PCOD9259543
Probable space group: C 2/C
;
_chemical_formula_sum "Si O2"
_cell_formula_units_Z 56
_cell_length_a 30.169941
_cell_length_b 9.141979
_cell_length_c 18.450054
_cell_angle_alpha 90.000000
_cell_angle_beta 144.822670
_cell_angle_gamma 90.000000
_cell_volume 2931.682586
_symmetry_space_group_name_H-M "C 2/C"
_symmetry_group_IT_number 15
_symmetry_cell_setting 'monoclinic'
loop_
_space_group_symop_operation_xyz
x,y,z
-x,y,1/2-z
-x,-y,-z
x,-y,1/2+z
1/2+x,1/2+y,z
1/2-x,1/2+y,1/2-z
1/2-x,1/2-y,-z
1/2+x,1/2-y,1/2+z
loop_
_atom_site_type_symbol
_atom_site_label
_atom_site_fract_x
_atom_site_fract_y
_atom_site_fract_z
Si Si1 0.818324 0.042561 0.769432
Si Si2 0.078368 0.121904 0.200442
Si Si3 0.911439 0.834102 0.521225
Si Si4 0.250324 0.302237 0.917747
Si Si5 0.193589 0.394792 0.373754
Si Si6 0.081801 0.923429 0.348891
Si Si7 0.196135 0.657639 0.040289
O O1 0.785406 0.179087 0.680596
O O2 0.891462 0.965700 0.828818
O O3 0.752717 0.919789 0.672563
O O4 0.843768 0.101617 0.880927
O O5 0.128584 0.270419 0.276461
O O6 0.990184 0.172220 0.081985
O O7 0.091504 0.005973 0.284290
O O8 0.882735 0.689439 0.523998
O O9 0.927462 0.947849 0.605881
O O10 0.197885 0.448433 0.841718
O O11 0.250000 0.250000 0.000000
O O12 0.340534 0.338589 0.026145
O O13 0.194679 0.426832 0.461744
O O14 0.268530 0.310834 0.442218
O O15 0.000000 0.839225 0.250000
#
# Coordination Sequence:
#
# PCOD9259543 Si02
#       7
#     8   8   8   8   8   8   8
#     4  11  24  36  59  88 124 153 194 236 310 360
#     4  10  20  40  61  85 110 158 204 242 278 356
#     4  11  22  36  61  86 121 149 197 250 297 337
#     4  12  20  37  59  86 115 153 191 240 291 357
#     4  10  18  35  60  82 107 148 205 236 279 340
#     4  10  20  36  59  84 107 147 198 244 285 338
#     4  10  19  35  57  84 107 151 199 241 277 350
#
# _framework density 19.101658
#
# number of rings (size 3 to 8) (size 9 to 14) (size 15 to 20)
#    0.000    1.429    5.714    1.286    2.000    0.000 
#    0.000    2.143    0.000    0.000    0.000    0.000 
#    0.000    0.000    0.000    0.000    0.000    0.000 
#
# Total GULP energy -155983.946245 kJ/mol
# GULP energy per Si atom -5570.855223 kJ/mol
# Density = 1.905818 g / cm^3
# Si number density = 19.101658 Si / 1000 Ang^3
#
#
#
# Elastic Constant Matrix: (Units=GPa)
#
#
# Indices 1 2 3 4 5 6 
#
# 1 63.9317 19.4062 15.8027 0.0000 24.5320 0.0000
# 2 19.4062 57.5603 9.5648 0.0000 13.3817 0.0000
# 3 15.8027 9.5648 56.9531 0.0000 5.9621 0.0000
# 4 0.0000 0.0000 0.0000 24.1449 0.0000 2.4526
# 5 24.5320 13.3817 5.9621 0.0000 38.7712 0.0000
# 6 0.0000 0.0000 0.0000 2.4526 0.0000 14.2863
#
#
#
# Elastic Compliance Matrix: (Units=1/GPa)
#
#
# Indices 1 2 3 4 5 6 
#
# 1 0.022649 -0.004068 -0.004318 0.000000 -0.012263 0.000000
# 2 -0.004068 0.019985 -0.001804 0.000000 -0.004047 0.000000
# 3 -0.004318 -0.001804 0.019014 0.000000 0.000431 0.000000
# 4 0.000000 0.000000 0.000000 0.042152 0.000000 -0.007236
# 5 -0.012263 -0.004047 0.000431 0.000000 0.034882 0.000000
# 6 0.000000 0.000000 0.000000 -0.007236 0.000000 0.071239
#
#
# Mechanical properties :
#
#
# Convention : Reuss Voigt Hill
#
# Bulk Modulus (GPa) = 24.23077 29.77694 27.00385
# Shear Modulus (GPa) = 20.48704 24.35192 22.41948
#
# Velocity S-wave (km/s) = 3.27850 3.57439 3.42964
# Velocity P-wave (km/s) = 5.20039 5.71468 5.46359
#
# Compressibility (1/GPa) = 0.04126985
#
# Stress axis : x y z
#
# Youngs Moduli (GPa) = 44.15151 50.03756 52.59234
#
# Poissons Ratio (x) = 0.20354 0.22707
# Poissons Ratio (y) = 0.17959 0.09488
# Poissons Ratio (z) = 0.19063 0.09027
#
# Static dielectric constant tensor:
#      x y z
#    x 1.710000 0.000000 0.048670 
#    y 0.000000 1.656170 0.000000 
#    z 0.048670 0.000000 1.704680 
# 
# From -- ./inp_files/218317.got.cif
#   From: 2010.05.17/outbox.cif.g08.bks.cpg/sg15_110_cif.got.tgz:218317.got - 2010.06.03 18:47:42.
