data_PCOD9259860
_publ_section_title
;
Structure prediction by ZEFSAII (Michael W. Deem and Ramdas Pophale) SiO2 
 PCOD9259860
Probable space group: C 2/C
;
_chemical_formula_sum "Si O2"
_cell_formula_units_Z 40
_cell_length_a 15.933253
_cell_length_b 7.343338
_cell_length_c 13.692825
_cell_angle_alpha 90.000000
_cell_angle_beta 82.004533
_cell_angle_gamma 90.000000
_cell_volume 1586.531252
_symmetry_space_group_name_H-M "C 2/C"
_symmetry_group_IT_number 15
_symmetry_cell_setting 'monoclinic'
loop_
_space_group_symop_operation_xyz
x,y,z
-x,y,1/2-z
-x,-y,-z
x,-y,1/2+z
1/2+x,1/2+y,z
1/2-x,1/2+y,1/2-z
1/2-x,1/2-y,-z
1/2+x,1/2-y,1/2+z
loop_
_atom_site_type_symbol
_atom_site_label
_atom_site_fract_x
_atom_site_fract_y
_atom_site_fract_z
Si Si1 0.617952 0.183258 0.805306
Si Si2 0.353371 0.369805 0.392408
Si Si3 0.306122 0.026653 0.966844
Si Si4 0.770565 0.974120 0.216829
Si Si5 0.445307 0.721229 0.404014
O O1 0.678905 0.009881 0.785529
O O2 0.687528 0.335839 0.818417
O O3 0.582938 0.226434 0.702714
O O4 0.541023 0.206130 0.891996
O O5 0.256296 0.887251 0.381418
O O6 0.269026 0.463485 0.451049
O O7 0.338888 0.387384 0.278479
O O8 0.429853 0.503849 0.412385
O O9 0.352558 0.839121 0.925209
O O10 0.379964 0.167578 0.981653
#
# Coordination Sequence:
#
# PCOD9259860 Si02
#       5
#     8   8   8   8   8
#     4   9  18  34  55  81 111 147 187 230 281 335
#     4  10  20  36  60  83 114 149 191 229 281 337
#     4  10  20  36  60  83 114 149 191 229 281 337
#     4  10  18  36  58  80 110 150 186 230 276 338
#     4   9  19  36  54  82 114 148 184 237 280 329
#
# _framework density 25.212235
#
# number of rings (size 3 to 8) (size 9 to 14) (size 15 to 20)
#    0.000    2.400    2.000    0.600    0.000    0.000 
#    3.600    6.000    0.000    0.000    0.000    0.000 
#    0.000    0.000    0.000    0.000    0.000    0.000 
#
# Total GULP energy -111584.255723 kJ/mol
# GULP energy per Si atom -5579.212786 kJ/mol
# Density = 2.515485 g / cm^3
# Si number density = 25.212235 Si / 1000 Ang^3
#
#
#
# Elastic Constant Matrix: (Units=GPa)
#
#
# Indices 1 2 3 4 5 6 
#
# 1 116.0146 39.2374 14.5119 0.0000 -27.4362 0.0000
# 2 39.2374 110.2540 -0.2207 0.0000 -16.3107 0.0000
# 3 14.5119 -0.2207 44.2631 0.0000 -3.0512 0.0000
# 4 0.0000 0.0000 0.0000 22.9980 0.0000 -9.4841
# 5 -27.4362 -16.3107 -3.0512 0.0000 39.6752 0.0000
# 6 0.0000 0.0000 0.0000 -9.4841 0.0000 29.6137
#
#
#
# Elastic Compliance Matrix: (Units=1/GPa)
#
#
# Indices 1 2 3 4 5 6 
#
# 1 0.011659 -0.003196 -0.003391 0.000000 0.006488 0.000000
# 2 -0.003196 0.010538 0.001253 0.000000 0.002218 0.000000
# 3 -0.003391 0.001253 0.023710 0.000000 -0.000006 0.000000
# 4 0.000000 0.000000 0.000000 0.050099 0.000000 0.016045
# 5 0.006488 0.002218 -0.000006 0.000000 0.030603 0.000000
# 6 0.000000 0.000000 0.000000 0.016045 0.000000 0.038907
#
#
# Mechanical properties :
#
#
# Convention : Reuss Voigt Hill
#
# Bulk Modulus (GPa) = 28.37779 41.95435 35.16607
# Shear Modulus (GPa) = 26.60573 32.92424 29.76499
#
# Velocity S-wave (km/s) = 3.25202 3.61762 3.43968
# Velocity P-wave (km/s) = 5.03794 5.84176 5.45468
#
# Compressibility (1/GPa) = 0.03523883
#
# Stress axis : x y z
#
# Youngs Moduli (GPa) = 85.77004 94.89325 42.17663
#
# Poissons Ratio (x) = 0.30330 0.14303
# Poissons Ratio (y) = 0.27414 -0.05286
# Poissons Ratio (z) = 0.29086 -0.11894
#
# Static dielectric constant tensor:
#      x y z
#    x 1.999120 0.000000 0.007040 
#    y 0.000000 2.101370 0.000000 
#    z 0.007040 0.000000 2.126960 
# 
# From -- ./inp_files/202227.got.cif
#   From: 2010.05.17/outbox.cif.g08.bks.cpg/sg15_102_cif.got.tgz:202227.got - 2010.06.03 18:47:42.
