data_PCOD9259380
_publ_section_title
;
Structure prediction by ZEFSAII (Michael W. Deem and Ramdas Pophale) SiO2 
 PCOD9259380
Probable space group: C 2/C
;
_chemical_formula_sum "Si O2"
_cell_formula_units_Z 40
_cell_length_a 16.089466
_cell_length_b 12.335059
_cell_length_c 8.541071
_cell_angle_alpha 90.000000
_cell_angle_beta 81.908244
_cell_angle_gamma 90.000000
_cell_volume 1678.222947
_symmetry_space_group_name_H-M "C 2/C"
_symmetry_group_IT_number 15
_symmetry_cell_setting 'monoclinic'
loop_
_space_group_symop_operation_xyz
x,y,z
-x,y,1/2-z
-x,-y,-z
x,-y,1/2+z
1/2+x,1/2+y,z
1/2-x,1/2+y,1/2-z
1/2-x,1/2-y,-z
1/2+x,1/2-y,1/2+z
loop_
_atom_site_type_symbol
_atom_site_label
_atom_site_fract_x
_atom_site_fract_y
_atom_site_fract_z
Si Si1 0.263213 0.178047 0.150754
Si Si2 0.091110 0.082788 0.159975
Si Si3 0.667216 0.949289 0.324049
Si Si4 0.648756 0.628950 0.793466
Si Si5 0.442938 0.933665 0.892276
O O1 0.168363 0.145518 0.227150
O O2 0.306754 0.064091 0.107441
O O3 0.250000 0.250000 0.000000
O O4 0.169003 0.255893 0.763453
O O5 0.000000 0.113033 0.250000
O O6 0.105020 0.953560 0.184760
O O7 0.104118 0.109275 0.972910
O O8 0.603767 0.978199 0.203498
O O9 0.753962 0.908182 0.233071
O O10 0.624354 0.879893 0.472659
O O11 0.500000 0.870891 0.750000
O O12 0.500000 0.000000 0.000000
#
# Coordination Sequence:
#
# PCOD9259380 Si02
#       5
#     8   8   8   8   8
#     4   9  19  35  56  81 111 150 195 235 285 354
#     4  10  20  37  59  85 114 149 192 242 287 334
#     4  10  18  35  56  77 109 152 193 235 291 356
#     4  10  20  37  59  81 110 150 192 235 287 349
#     4   9  18  32  52  78 108 143 182 229 287 347
#
# _framework density 23.834737000000001
#
# number of rings (size 3 to 8) (size 9 to 14) (size 15 to 20)
#    0.000    2.400    0.000    4.200    0.000    0.000 
#    0.000   31.000    0.000    0.000    0.000    0.000 
#    0.000    0.000    0.000    0.000    0.000    0.000 
#
# Total GULP energy -111376.296797 kJ/mol
# GULP energy per Si atom -5568.814840 kJ/mol
# Density = 2.378049 g / cm^3
# Si number density = 23.834737 Si / 1000 Ang^3
#
#
#
# Elastic Constant Matrix: (Units=GPa)
#
#
# Indices 1 2 3 4 5 6 
#
# 1 142.0866 7.8030 61.7117 0.0000 -35.0111 0.0000
# 2 7.8030 54.4776 10.9871 0.0000 -15.1124 0.0000
# 3 61.7117 10.9871 115.4616 0.0000 -23.7457 0.0000
# 4 0.0000 0.0000 0.0000 25.9909 0.0000 7.3222
# 5 -35.0111 -15.1124 -23.7457 0.0000 41.9075 0.0000
# 6 0.0000 0.0000 0.0000 7.3222 0.0000 12.5513
#
#
#
# Elastic Compliance Matrix: (Units=1/GPa)
#
#
# Indices 1 2 3 4 5 6 
#
# 1 0.010531 0.001251 -0.004353 0.000000 0.006783 0.000000
# 2 0.001251 0.020569 -0.001002 0.000000 0.007895 0.000000
# 3 -0.004353 -0.001002 0.011614 0.000000 0.002583 0.000000
# 4 0.000000 0.000000 0.000000 0.046042 0.000000 -0.026860
# 5 0.006783 0.007895 0.002583 0.000000 0.033839 0.000000
# 6 0.000000 0.000000 0.000000 -0.026860 0.000000 0.095343
#
#
# Mechanical properties :
#
#
# Convention : Reuss Voigt Hill
#
# Bulk Modulus (GPa) = 28.98039 52.55881 40.76960
# Shear Modulus (GPa) = 21.03950 31.52486 26.28218
#
# Velocity S-wave (km/s) = 2.97429 3.64076 3.32427
# Velocity P-wave (km/s) = 4.89699 6.30656 5.64594
#
# Compressibility (1/GPa) = 0.03450610
#
# Stress axis : x y z
#
# Youngs Moduli (GPa) = 94.95672 48.61643 86.10389
#
# Poissons Ratio (x) = -0.06082 0.37479
# Poissons Ratio (y) = -0.11880 0.08631
# Poissons Ratio (z) = 0.41332 0.04873
#
# Static dielectric constant tensor:
#      x y z
#    x 2.005880 0.000000 -0.013080 
#    y 0.000000 2.068400 0.000000 
#    z -0.013080 0.000000 1.958500 
# 
# From -- ./inp_files/47675.got.cif
#   From: 2010.05.17/outbox.cif.g08.bks.cpg/sg15_24_cif.got.tgz:47675.got - 2010.06.03 18:47:42.
