data_PCOD9259150
_publ_section_title
;
Structure prediction by ZEFSAII (Michael W. Deem and Ramdas Pophale) SiO2 
 PCOD9259150
Probable space group: C 2/C
;
_chemical_formula_sum "Si O2"
_cell_formula_units_Z 44
_cell_length_a 16.526802
_cell_length_b 8.812599
_cell_length_c 14.017218
_cell_angle_alpha 90.000000
_cell_angle_beta 121.106041
_cell_angle_gamma 90.000000
_cell_volume 1747.979298
_symmetry_space_group_name_H-M "C 2/C"
_symmetry_group_IT_number 15
_symmetry_cell_setting 'monoclinic'
loop_
_space_group_symop_operation_xyz
x,y,z
-x,y,1/2-z
-x,-y,-z
x,-y,1/2+z
1/2+x,1/2+y,z
1/2-x,1/2+y,1/2-z
1/2-x,1/2-y,-z
1/2+x,1/2-y,1/2+z
loop_
_atom_site_type_symbol
_atom_site_label
_atom_site_fract_x
_atom_site_fract_y
_atom_site_fract_z
Si Si1 0.799796 0.856503 0.327013
Si Si2 0.013367 0.398167 0.415082
Si Si3 0.284797 0.965392 0.039556
Si Si4 0.864735 0.804033 0.881443
Si Si5 0.411392 0.159228 0.250798
Si Si6 0.250000 0.250000 0.000000
O O1 0.702957 0.810856 0.216920
O O2 0.873746 0.744096 0.321026
O O3 0.770075 0.859096 0.421294
O O4 0.835009 0.027189 0.335300
O O5 0.969988 0.236059 0.412398
O O6 0.949520 0.493529 0.302434
O O7 0.000000 0.500000 0.500000
O O8 0.120451 0.400132 0.445544
O O9 0.322888 0.123459 0.123946
O O10 0.225664 0.072801 0.935475
O O11 0.843953 0.773369 0.979210
O O12 0.500000 0.232196 0.250000
#
# Coordination Sequence:
#
# PCOD9259150 Si02
#       6
#     8   8   8   8   8   4
#     4  11  20  39  60  87 115 158 197 248 288 366
#     4  11  21  38  62  87 114 159 200 246 296 361
#     4  10  20  35  64  82 119 151 204 233 299 357
#     4  11  21  36  65  86 120 152 204 242 300 350
#     4  10  21  39  59  83 116 159 196 236 301 361
#     4  10  18  34  60  92 108 158 194 242 286 368
#
# _framework density 25.171923
#
# number of rings (size 3 to 8) (size 9 to 14) (size 15 to 20)
#    0.000    1.455    7.273    0.000    0.000    0.000 
#    3.273    1.818    4.000    0.000    0.000    0.000 
#    0.000    0.000    0.000    0.000    0.000    0.000 
#
# Total GULP energy -122625.573675 kJ/mol
# GULP energy per Si atom -5573.889712 kJ/mol
# Density = 2.511463 g / cm^3
# Si number density = 25.171923 Si / 1000 Ang^3
#
#
#
# Elastic Constant Matrix: (Units=GPa)
#
#
# Indices 1 2 3 4 5 6 
#
# 1 224.9981 87.9357 27.0129 0.0000 -47.5874 0.0000
# 2 87.9357 103.5276 38.7457 0.0000 -12.8912 0.0000
# 3 27.0129 38.7457 73.1872 0.0000 -8.6226 0.0000
# 4 0.0000 0.0000 0.0000 32.7852 0.0000 -9.1383
# 5 -47.5874 -12.8912 -8.6226 0.0000 41.3357 0.0000
# 6 0.0000 0.0000 0.0000 -9.1383 0.0000 51.9557
#
#
#
# Elastic Compliance Matrix: (Units=1/GPa)
#
#
# Indices 1 2 3 4 5 6 
#
# 1 0.008695 -0.006895 0.001401 0.000000 0.008152 0.000000
# 2 -0.006895 0.017768 -0.007324 0.000000 -0.003924 0.000000
# 3 0.001401 -0.007324 0.017372 0.000000 0.002953 0.000000
# 4 0.000000 0.000000 0.000000 0.032074 0.000000 0.005641
# 5 0.008152 -0.003924 0.002953 0.000000 0.032970 0.000000
# 6 0.000000 0.000000 0.000000 0.005641 0.000000 0.020239
#
#
# Mechanical properties :
#
#
# Convention : Reuss Voigt Hill
#
# Bulk Modulus (GPa) = 54.94582 78.78905 66.86743
# Shear Modulus (GPa) = 31.09063 41.74991 36.42027
#
# Velocity S-wave (km/s) = 3.51826 4.07700 3.80789
# Velocity P-wave (km/s) = 6.19514 7.31648 6.77904
#
# Compressibility (1/GPa) = 0.01819975
#
# Stress axis : x y z
#
# Youngs Moduli (GPa) = 115.00538 56.28003 57.56508
#
# Poissons Ratio (x) = 0.38805 -0.08067
# Poissons Ratio (y) = 0.79297 0.42161
# Poissons Ratio (z) = -0.16117 0.41220
#
# Static dielectric constant tensor:
#      x y z
#    x 2.027260 0.000000 0.036670 
#    y 0.000000 2.114290 0.000000 
#    z 0.036670 0.000000 2.156810 
# 
# From -- ./inp_files/159378.got.cif
#   From: 2010.05.17/outbox.cif.g08.bks.cpg/sg15_80_cif.got.tgz:159378.got - 2010.06.03 18:47:42.
