data_PCOD9259389
_publ_section_title
;
Structure prediction by ZEFSAII (Michael W. Deem and Ramdas Pophale) SiO2 
 PCOD9259389
Probable space group: C 2/C
;
_chemical_formula_sum "Si O2"
_cell_formula_units_Z 60
_cell_length_a 27.738027
_cell_length_b 8.853696
_cell_length_c 26.318595
_cell_angle_alpha 90.000000
_cell_angle_beta 27.382063
_cell_angle_gamma 90.000000
_cell_volume 2972.671303
_symmetry_space_group_name_H-M "C 2/C"
_symmetry_group_IT_number 15
_symmetry_cell_setting 'monoclinic'
loop_
_space_group_symop_operation_xyz
x,y,z
-x,y,1/2-z
-x,-y,-z
x,-y,1/2+z
1/2+x,1/2+y,z
1/2-x,1/2+y,1/2-z
1/2-x,1/2-y,-z
1/2+x,1/2-y,1/2+z
loop_
_atom_site_type_symbol
_atom_site_label
_atom_site_fract_x
_atom_site_fract_y
_atom_site_fract_z
Si Si1 0.290441 0.345697 0.123880
Si Si2 0.543276 0.249326 0.463849
Si Si3 0.765642 0.004383 0.349917
Si Si4 0.829174 0.570107 0.334328
Si Si5 0.649148 0.783231 0.527436
Si Si6 0.000000 0.585781 0.250000
Si Si7 0.549444 0.319815 0.343944
Si Si8 0.164865 0.570372 0.840910
O O1 0.411147 0.329880 0.028758
O O2 0.247235 0.451789 0.120520
O O3 0.238926 0.407236 0.223912
O O4 0.251653 0.178741 0.145209
O O5 0.553140 0.334291 0.401201
O O6 0.424902 0.195373 0.580390
O O7 0.610681 0.094478 0.393257
O O8 0.693923 0.939687 0.462253
O O9 0.886462 0.955881 0.241932
O O10 0.724648 0.915446 0.338150
O O11 0.751224 0.680206 0.438016
O O12 0.920375 0.504732 0.285426
O O13 0.888639 0.670966 0.235627
O O14 0.576300 0.814106 0.643677
O O15 0.569721 0.704708 0.561786
#
# Coordination Sequence:
#
# PCOD9259389 Si02
#       8
#     8   8   8   8   8   4   8   8
#     4  11  22  35  56  87 127 161 200 236 291 354
#     4  10  19  31  53  79 117 167 201 226 281 334
#     4  10  21  34  56  86 124 158 197 239 290 349
#     4  10  22  39  63  87 116 151 201 250 298 353
#     4  10  21  39  63  90 115 147 199 250 305 351
#     4  10  22  42  72  86 104 150 204 262 306 350
#     4  10  18  35  56  83 118 159 194 240 285 340
#     4  10  19  33  52  80 121 168 197 231 268 354
#
# _framework density 20.183865000000001
#
# number of rings (size 3 to 8) (size 9 to 14) (size 15 to 20)
#    0.000    1.867    4.000    0.400    0.000    1.067 
#    0.000    2.000    0.000    8.000    0.000    0.000 
#    0.000    0.000    0.000    0.000    0.000    0.000 
#
# Total GULP energy -167354.492097 kJ/mol
# GULP energy per Si atom -5578.483070 kJ/mol
# Density = 2.013793 g / cm^3
# Si number density = 20.183865 Si / 1000 Ang^3
#
#
#
# Elastic Constant Matrix: (Units=GPa)
#
#
# Indices 1 2 3 4 5 6 
#
# 1 92.9606 28.6698 14.7862 0.0014 -8.0907 -0.0007
# 2 28.6698 38.3008 -2.4796 -0.0048 -6.9838 -0.0144
# 3 14.7862 -2.4796 38.5823 0.0019 -7.6219 -0.0011
# 4 0.0014 -0.0048 0.0019 3.0850 -0.0015 -15.8330
# 5 -8.0907 -6.9838 -7.6219 -0.0015 31.8079 0.0029
# 6 -0.0007 -0.0144 -0.0011 -15.8330 0.0029 7.8696
#
#
#
# Elastic Compliance Matrix: (Units=1/GPa)
#
#
# Indices 1 2 3 4 5 6 
#
# 1 0.015558 -0.012149 -0.006811 0.000014 -0.000342 0.000007
# 2 -0.012149 0.037036 0.008431 -0.000042 0.007062 -0.000020
# 3 -0.006811 0.008431 0.030540 -0.000009 0.007437 -0.000002
# 4 0.000014 -0.000042 -0.000009 -0.034758 -0.000003 -0.069932
# 5 -0.000342 0.007062 0.007437 -0.000003 0.034684 -0.000005
# 6 0.000007 -0.000020 -0.000002 -0.069932 -0.000005 -0.013626
#
#
# Mechanical properties :
#
#
# Convention : Reuss Voigt Hill
#
# Bulk Modulus (GPa) = 16.10894 27.97737 22.04316
# Shear Modulus (GPa) = 44.97121 17.14365 31.05743
#
# Velocity S-wave (km/s) = 4.72537 2.91756 3.92691
# Velocity P-wave (km/s) = 6.14578 5.02403 5.61300
#
# Compressibility (1/GPa) = 0.06207732
#
# Stress axis : x y z
#
# Youngs Moduli (GPa) = 64.27757 27.00043 32.74430
#
# Poissons Ratio (x) = 0.32802 0.22301
# Poissons Ratio (y) = 0.78089 -0.27607
# Poissons Ratio (z) = 0.43777 -0.22765
#
# Static dielectric constant tensor:
#      x y z
#    x 1.759740 0.000000 -0.021640 
#    y 0.000000 1.713600 0.000000 
#    z -0.021640 0.000000 1.709480 
# 
# From -- ./inp_files/125882.got.cif
#   From: 2010.05.17/outbox.cif.g08.bks.cpg/sg15_63_cif.got.tgz:125882.got - 2010.06.03 18:47:42.
