data_PCOD9259439
_publ_section_title
;
Structure prediction by ZEFSAII (Michael W. Deem and Ramdas Pophale) SiO2 
 PCOD9259439
Probable space group: C 2/C
;
_chemical_formula_sum "Si O2"
_cell_formula_units_Z 64
_cell_length_a 8.968017
_cell_length_b 17.543393
_cell_length_c 21.678333
_cell_angle_alpha 90.000000
_cell_angle_beta 114.413521
_cell_angle_gamma 90.000000
_cell_volume 3105.681665
_symmetry_space_group_name_H-M "C 2/C"
_symmetry_group_IT_number 15
_symmetry_cell_setting 'monoclinic'
loop_
_space_group_symop_operation_xyz
x,y,z
-x,y,1/2-z
-x,-y,-z
x,-y,1/2+z
1/2+x,1/2+y,z
1/2-x,1/2+y,1/2-z
1/2-x,1/2-y,-z
1/2+x,1/2-y,1/2+z
loop_
_atom_site_type_symbol
_atom_site_label
_atom_site_fract_x
_atom_site_fract_y
_atom_site_fract_z
Si Si1 0.807616 0.658554 0.900189
Si Si2 0.442890 0.309964 0.365200
Si Si3 0.921983 0.246777 0.994268
Si Si4 0.036701 0.505096 0.190949
Si Si5 0.174630 0.034145 0.597892
Si Si6 0.927253 0.087446 0.052055
Si Si7 0.152887 0.342236 0.232017
Si Si8 0.857817 0.481862 0.924693
O O1 0.633065 0.697554 0.881920
O O2 0.870256 0.679731 0.842717
O O3 0.785110 0.567395 0.902303
O O4 0.949529 0.687239 0.969592
O O5 0.398548 0.260219 0.417274
O O6 0.412429 0.395701 0.384394
O O7 0.316030 0.304778 0.287468
O O8 0.986916 0.167682 0.035123
O O9 0.750000 0.250000 0.000000
O O10 0.159100 0.435307 0.229153
O O11 0.086845 0.543356 0.134933
O O12 0.000000 0.546975 0.250000
O O13 0.865855 0.464945 0.143272
O O14 0.146733 0.043825 0.520268
O O15 0.084595 0.957675 0.603037
O O16 0.776967 0.077879 0.073599
O O17 0.000000 0.323527 0.250000
O O18 0.000000 0.500000 0.000000
#
# Coordination Sequence:
#
# PCOD9259439 Si02
#       8
#     8   8   8   8   8   8   8   8
#     4  11  23  37  58  93 119 157 206 260 307 366
#     4  11  20  37  59  90 122 153 203 258 308 364
#     4  11  24  39  60  86 124 163 211 254 311 383
#     4  10  19  32  56  89 123 150 194 253 309 362
#     4  10  18  35  57  86 118 153 195 243 317 358
#     4  10  21  36  58  86 119 157 193 255 307 365
#     4  10  19  34  60  89 119 154 198 258 302 363
#     4  11  20  33  58  88 119 150 205 252 303 357
#
# _framework density 20.607393999999999
#
# number of rings (size 3 to 8) (size 9 to 14) (size 15 to 20)
#    0.000    1.500    5.000    2.250    3.500    0.000 
#    0.000    0.625    0.000    7.500    0.000    0.000 
#    0.000    0.000    0.000    0.000    0.000    0.000 
#
# Total GULP energy -178374.903570 kJ/mol
# GULP energy per Si atom -5574.215737 kJ/mol
# Density = 2.056049 g / cm^3
# Si number density = 20.607394 Si / 1000 Ang^3
#
#
#
# Elastic Constant Matrix: (Units=GPa)
#
#
# Indices 1 2 3 4 5 6 
#
# 1 72.8425 -12.4826 9.7747 0.0000 -8.3296 0.0000
# 2 -12.4826 16.7132 -4.1768 0.0000 2.8058 0.0000
# 3 9.7747 -4.1768 86.4738 0.0000 -10.7144 0.0000
# 4 0.0000 0.0000 0.0000 25.7691 0.0000 0.1194
# 5 -8.3296 2.8058 -10.7144 0.0000 36.2095 0.0000
# 6 0.0000 0.0000 0.0000 0.1194 0.0000 22.8562
#
#
#
# Elastic Compliance Matrix: (Units=1/GPa)
#
#
# Indices 1 2 3 4 5 6 
#
# 1 0.016093 0.011354 -0.000956 0.000000 0.002539 0.000000
# 2 0.011354 0.069130 0.001781 0.000000 -0.002218 0.000000
# 3 -0.000956 0.001781 0.012160 0.000000 0.003240 0.000000
# 4 0.000000 0.000000 0.000000 0.038807 0.000000 -0.000203
# 5 0.002539 -0.002218 0.003240 0.000000 0.029332 0.000000
# 6 0.000000 0.000000 0.000000 -0.000203 0.000000 0.043753
#
#
# Mechanical properties :
#
#
# Convention : Reuss Voigt Hill
#
# Bulk Modulus (GPa) = 8.21424 18.02891 13.12158
# Shear Modulus (GPa) = 22.17327 29.16125 25.66726
#
# Velocity S-wave (km/s) = 3.28378 3.76584 3.53304
# Velocity P-wave (km/s) = 4.28630 5.26085 4.79838
#
# Compressibility (1/GPa) = 0.12173977
#
# Stress axis : x y z
#
# Youngs Moduli (GPa) = 62.14059 14.46547 82.23854
#
# Poissons Ratio (x) = -0.16424 0.07862
# Poissons Ratio (y) = -0.70553 -0.14645
# Poissons Ratio (z) = 0.05941 -0.02576
#
# Static dielectric constant tensor:
#      x y z
#    x 1.762980 0.000000 -0.020050 
#    y 0.000000 1.793570 0.000000 
#    z -0.020050 0.000000 1.754030 
# 
# From -- ./inp_files/233882.got.cif
#   From: 2010.05.17/outbox.cif.g08.bks.cpg/sg15_117_cif.got.tgz:233882.got - 2010.06.03 18:47:42.
