data_PCOD9259013
_publ_section_title
;
Structure prediction by ZEFSAII (Michael W. Deem and Ramdas Pophale) SiO2 
 PCOD9259013
Probable space group: C 2/C
;
_chemical_formula_sum "Si O2"
_cell_formula_units_Z 52
_cell_length_a 14.146644
_cell_length_b 15.127608
_cell_length_c 20.075516
_cell_angle_alpha 90.000000
_cell_angle_beta 40.125697
_cell_angle_gamma 90.000000
_cell_volume 2768.795232
_symmetry_space_group_name_H-M "C 2/C"
_symmetry_group_IT_number 15
_symmetry_cell_setting 'monoclinic'
loop_
_space_group_symop_operation_xyz
x,y,z
-x,y,1/2-z
-x,-y,-z
x,-y,1/2+z
1/2+x,1/2+y,z
1/2-x,1/2+y,1/2-z
1/2-x,1/2-y,-z
1/2+x,1/2-y,1/2+z
loop_
_atom_site_type_symbol
_atom_site_label
_atom_site_fract_x
_atom_site_fract_y
_atom_site_fract_z
Si Si1 0.424887 0.189646 0.977551
Si Si2 0.000171 0.610885 0.139898
Si Si3 0.306663 0.179059 0.897537
Si Si4 0.699828 0.869592 0.399710
Si Si5 0.000000 0.158166 0.250000
Si Si6 0.000000 0.238200 0.750000
Si Si7 0.243553 0.432255 0.825520
Si Si8 0.500000 0.035814 0.750000
O O1 0.370596 0.154743 0.935288
O O2 0.595039 0.183552 0.904573
O O3 0.360708 0.289545 0.016893
O O4 0.350304 0.124078 0.070591
O O5 0.004389 0.698119 0.182972
O O6 0.837077 0.592713 0.199138
O O7 0.031774 0.528149 0.171041
O O8 0.112428 0.618865 0.017145
O O9 0.386655 0.272811 0.842273
O O10 0.363064 0.103882 0.817433
O O11 0.853460 0.820635 0.327388
O O12 0.725471 0.965780 0.353901
O O13 0.089553 0.099259 0.254031
#
# Coordination Sequence:
#
# PCOD9259013 Si02
#       8
#     8   8   8   8   4   4   8   4
#     4   9  18  32  55  82 113 146 185 242 293 335
#     4  10  22  39  58  81 119 155 192 237 289 349
#     4   9  17  31  53  87 110 143 184 237 292 341
#     4  11  21  38  60  83 112 155 200 234 285 349
#     4   9  19  29  51  82 118 128 185 245 275 333
#     4  11  25  39  61  86 116 160 197 241 293 343
#     4  10  19  35  55  83 108 150 189 235 287 339
#     4  10  18  34  58  84 116 158 190 222 290 348
#
# _framework density 18.780730999999999
#
# number of rings (size 3 to 8) (size 9 to 14) (size 15 to 20)
#    0.000    2.154    0.000    4.615    2.154    0.000 
#    5.538    0.000    0.000    1.846    0.000    0.000 
#    0.000    0.000    0.000    0.000    0.000    0.000 
#
# Total GULP energy -144817.159263 kJ/mol
# GULP energy per Si atom -5569.890741 kJ/mol
# Density = 1.873799 g / cm^3
# Si number density = 18.780731 Si / 1000 Ang^3
#
#
#
# Elastic Constant Matrix: (Units=GPa)
#
#
# Indices 1 2 3 4 5 6 
#
# 1 116.3842 65.7087 31.2199 0.0000 -25.0096 0.0000
# 2 65.7087 89.3968 33.6639 -0.0001 -13.6195 0.0000
# 3 31.2199 33.6639 39.6603 -0.0003 -11.4861 0.0001
# 4 0.0000 -0.0001 -0.0003 13.6082 0.0001 0.0071
# 5 -25.0096 -13.6195 -11.4861 0.0001 32.0084 0.0000
# 6 0.0000 0.0000 0.0001 0.0071 0.0000 16.7674
#
#
#
# Elastic Compliance Matrix: (Units=1/GPa)
#
#
# Indices 1 2 3 4 5 6 
#
# 1 0.016625 -0.010216 -0.002134 0.000000 0.007877 0.000000
# 2 -0.010216 0.022861 -0.012117 0.000000 -0.002603 0.000000
# 3 -0.002134 -0.012117 0.039286 0.000001 0.007274 0.000000
# 4 0.000000 0.000000 0.000001 0.073485 0.000000 -0.000031
# 5 0.007877 -0.002603 0.007274 0.000000 0.038900 0.000000
# 6 0.000000 0.000000 0.000000 -0.000031 0.000000 0.059639
#
#
# Mechanical properties :
#
#
# Convention : Reuss Voigt Hill
#
# Bulk Modulus (GPa) = 33.51419 56.29178 44.90298
# Shear Modulus (GPa) = 16.14585 20.13339 18.13962
#
# Velocity S-wave (km/s) = 2.93525 3.27773 3.11121
# Velocity P-wave (km/s) = 5.41953 6.66055 6.07183
#
# Compressibility (1/GPa) = 0.02983811
#
# Stress axis : x y z
#
# Youngs Moduli (GPa) = 60.14880 43.74169 25.45456
#
# Poissons Ratio (x) = 0.44688 0.05433
# Poissons Ratio (y) = 0.61450 0.30843
# Poissons Ratio (z) = 0.12837 0.53001
#
# Static dielectric constant tensor:
#      x y z
#    x 1.721950 0.000000 -0.022090 
#    y 0.000000 1.637110 0.000000 
#    z -0.022090 0.000000 1.732820 
# 
# From -- ./inp_files/238679.got.cif
#   From: 2010.05.17/outbox.cif.g08.bks.cpg/sg15_120_cif.got.tgz:238679.got - 2010.06.03 18:47:42.
