data_PCOD9259820
_publ_section_title
;
Structure prediction by ZEFSAII (Michael W. Deem and Ramdas Pophale) SiO2 
 PCOD9259820
Probable space group: C 2/C
;
_chemical_formula_sum "Si O2"
_cell_formula_units_Z 56
_cell_length_a 8.776935
_cell_length_b 25.402013
_cell_length_c 16.316552
_cell_angle_alpha 90.000000
_cell_angle_beta 56.341587
_cell_angle_gamma 90.000000
_cell_volume 3027.951024
_symmetry_space_group_name_H-M "C 2/C"
_symmetry_group_IT_number 15
_symmetry_cell_setting 'monoclinic'
loop_
_space_group_symop_operation_xyz
x,y,z
-x,y,1/2-z
-x,-y,-z
x,-y,1/2+z
1/2+x,1/2+y,z
1/2-x,1/2+y,1/2-z
1/2-x,1/2-y,-z
1/2+x,1/2-y,1/2+z
loop_
_atom_site_type_symbol
_atom_site_label
_atom_site_fract_x
_atom_site_fract_y
_atom_site_fract_z
Si Si1 0.715342 0.403040 0.201948
Si Si2 0.907799 0.311484 0.687667
Si Si3 0.830218 0.961925 0.567871
Si Si4 0.243793 0.358892 0.486859
Si Si5 0.917535 0.806091 0.181637
Si Si6 0.318813 0.412973 0.751091
Si Si7 0.541026 0.997187 0.890626
O O1 0.500000 0.417227 0.250000
O O2 0.791344 0.377094 0.095806
O O3 0.710846 0.357760 0.273012
O O4 0.832275 0.455221 0.178687
O O5 0.845784 0.252083 0.685987
O O6 0.742843 0.352662 0.737430
O O7 0.000000 0.312319 0.750000
O O8 0.068312 0.332017 0.579732
O O9 0.810377 0.910915 0.515087
O O10 0.841377 0.939253 0.655741
O O11 0.645327 0.994144 0.604895
O O12 0.000000 0.000000 0.500000
O O13 0.415199 0.319255 0.428588
O O14 0.000000 0.803807 0.250000
O O15 0.500000 0.419254 0.750000
O O16 0.152000 0.443727 0.842925
O O17 0.500000 0.000000 0.000000
#
# Coordination Sequence:
#
# PCOD9259820 Si02
#       7
#     8   8   8   8   8   8   8
#     4   9  19  35  58  91 122 153 193 231 296 359
#     4  11  18  37  59  88 114 148 204 244 289 345
#     4  12  25  38  58  90 120 152 200 239 296 358
#     4  10  18  36  56  89 119 148 196 237 287 352
#     4   8  19  32  60  90 114 152 192 244 288 349
#     4  12  25  39  59  83 119 161 195 246 295 347
#     4  12  21  38  61  87 118 157 190 241 294 358
#
# _framework density 18.494354000000001
#
# number of rings (size 3 to 8) (size 9 to 14) (size 15 to 20)
#    0.000    1.714    4.286    2.143    4.000    0.000 
#    0.000    0.000    3.143    0.857    0.000    0.000 
#    0.000    0.000    0.000    0.000    0.000    0.000 
#
# Total GULP energy -156226.170583 kJ/mol
# GULP energy per Si atom -5579.506092 kJ/mol
# Density = 1.845226 g / cm^3
# Si number density = 18.494354 Si / 1000 Ang^3
#
#
#
# Elastic Constant Matrix: (Units=GPa)
#
#
# Indices 1 2 3 4 5 6 
#
# 1 95.9188 48.0111 24.5774 0.0000 -15.2939 0.0000
# 2 48.0111 143.4192 29.4992 0.0000 -19.0941 0.0000
# 3 24.5774 29.4992 83.9794 0.0000 -10.2197 0.0000
# 4 0.0000 0.0000 0.0000 21.2534 0.0000 -9.8550
# 5 -15.2939 -19.0941 -10.2197 0.0000 20.7176 0.0000
# 6 0.0000 0.0000 0.0000 -9.8550 0.0000 22.6001
#
#
#
# Elastic Compliance Matrix: (Units=1/GPa)
#
#
# Indices 1 2 3 4 5 6 
#
# 1 0.013568 -0.003325 -0.002082 0.000000 0.005924 0.000000
# 2 -0.003325 0.009099 -0.001597 0.000000 0.005144 0.000000
# 3 -0.002082 -0.001597 0.013524 0.000000 0.003662 0.000000
# 4 0.000000 0.000000 0.000000 0.058976 0.000000 0.025717
# 5 0.005924 0.005144 0.003662 0.000000 0.059189 0.000000
# 6 0.000000 0.000000 0.000000 0.025717 0.000000 0.055462
#
#
# Mechanical properties :
#
#
# Convention : Reuss Voigt Hill
#
# Bulk Modulus (GPa) = 45.08061 58.61030 51.84546
# Shear Modulus (GPa) = 21.62450 27.66286 24.64368
#
# Velocity S-wave (km/s) = 3.42314 3.87168 3.65430
# Velocity P-wave (km/s) = 6.32867 7.19349 6.77489
#
# Compressibility (1/GPa) = 0.02218249
#
# Stress axis : x y z
#
# Youngs Moduli (GPa) = 73.70357 109.90280 73.94469
#
# Poissons Ratio (x) = 0.36543 0.15394
# Poissons Ratio (y) = 0.24507 0.11810
# Poissons Ratio (z) = 0.15344 0.17553
#
# Static dielectric constant tensor:
#      x y z
#    x 1.605580 0.000000 0.000500 
#    y 0.000000 1.678130 0.000000 
#    z 0.000500 0.000000 1.651810 
# 
# From -- ./inp_files/137699.got.cif
#   From: 2010.05.17/outbox.cif.g08.bks.cpg/sg15_69_cif.got.tgz:137699.got - 2010.06.03 18:47:42.
