data_PCOD9259148
_publ_section_title
;
Structure prediction by ZEFSAII (Michael W. Deem and Ramdas Pophale) SiO2 
 PCOD9259148
Probable space group: C 2/C
;
_chemical_formula_sum "Si O2"
_cell_formula_units_Z 60
_cell_length_a 21.519376
_cell_length_b 9.124080
_cell_length_c 17.448734
_cell_angle_alpha 90.000000
_cell_angle_beta 106.094459
_cell_angle_gamma 90.000000
_cell_volume 3291.685790
_symmetry_space_group_name_H-M "C 2/C"
_symmetry_group_IT_number 15
_symmetry_cell_setting 'monoclinic'
loop_
_space_group_symop_operation_xyz
x,y,z
-x,y,1/2-z
-x,-y,-z
x,-y,1/2+z
1/2+x,1/2+y,z
1/2-x,1/2+y,1/2-z
1/2-x,1/2-y,-z
1/2+x,1/2-y,1/2+z
loop_
_atom_site_type_symbol
_atom_site_label
_atom_site_fract_x
_atom_site_fract_y
_atom_site_fract_z
Si Si1 0.500000 0.203115 0.250000
Si Si2 0.421080 0.233425 0.725410
Si Si3 0.416934 0.984424 0.607262
Si Si4 0.089136 0.021543 0.395721
Si Si5 0.446807 0.374876 0.352447
Si Si6 0.101804 0.816149 0.615358
Si Si7 0.325448 0.265725 0.011568
Si Si8 0.959597 0.730133 0.510932
O O1 0.529385 0.106713 0.327932
O O2 0.442915 0.300030 0.268252
O O3 0.500000 0.224737 0.750000
O O4 0.404339 0.388974 0.680831
O O5 0.397902 0.228290 0.804662
O O6 0.394654 0.105183 0.662149
O O7 0.363102 0.874819 0.558028
O O8 0.446058 0.075471 0.546031
O O9 0.081930 0.148813 0.456961
O O10 0.144323 0.907716 0.435891
O O11 0.020130 0.939017 0.375606
O O12 0.403457 0.513270 0.361177
O O13 0.442584 0.253203 0.417037
O O14 0.156531 0.784177 0.572113
O O15 0.034114 0.775249 0.550425
O O16 0.250000 0.250000 0.000000
#
# Coordination Sequence:
#
# PCOD9259148 Si02
#       8
#     4   8   8   8   8   8   8   8
#     4  12  20  30  54  96 128 142 184 260 336 362
#     4  11  19  35  64  97 128 147 179 257 343 363
#     4  11  23  37  56  95 130 152 187 258 320 368
#     4  10  18  36  58  88 119 153 200 241 296 370
#     4  11  18  30  60  96 118 147 192 257 316 368
#     4  11  19  36  63  91 119 156 202 249 306 370
#     4  12  26  43  59  80 125 178 213 237 274 359
#     4  10  18  34  60  91 121 147 189 260 325 355
#
# _framework density 18.227741999999999
#
# number of rings (size 3 to 8) (size 9 to 14) (size 15 to 20)
#    0.000    1.067    8.667    1.600    0.000    3.200 
#    0.000    4.000    0.000    0.000    0.000    0.000 
#    0.000    0.000    0.000    0.000    0.000    0.000 
#
# Total GULP energy -167471.965747 kJ/mol
# GULP energy per Si atom -5582.398858 kJ/mol
# Density = 1.818626 g / cm^3
# Si number density = 18.227742 Si / 1000 Ang^3
#
#
#
# Elastic Constant Matrix: (Units=GPa)
#
#
# Indices 1 2 3 4 5 6 
#
# 1 89.5986 45.4452 33.9869 0.0000 -18.4776 0.0000
# 2 45.4452 105.5316 43.8423 0.0000 -10.7073 0.0000
# 3 33.9869 43.8423 98.7289 0.0000 -34.8598 0.0000
# 4 0.0000 0.0000 0.0000 30.6184 0.0000 -4.6379
# 5 -18.4776 -10.7073 -34.8598 0.0000 20.3801 0.0000
# 6 0.0000 0.0000 0.0000 -4.6379 0.0000 12.4638
#
#
#
# Elastic Compliance Matrix: (Units=1/GPa)
#
#
# Indices 1 2 3 4 5 6 
#
# 1 0.017046 -0.007000 0.003532 0.000000 0.017819 0.000000
# 2 -0.007000 0.014888 -0.009293 0.000000 -0.014421 0.000000
# 3 0.003532 -0.009293 0.031426 0.000000 0.052074 0.000000
# 4 0.000000 0.000000 0.000000 0.034611 0.000000 0.012879
# 5 0.017819 -0.014421 0.052074 0.000000 0.146718 0.000000
# 6 0.000000 0.000000 0.000000 0.012879 0.000000 0.085025
#
#
# Mechanical properties :
#
#
# Convention : Reuss Voigt Hill
#
# Bulk Modulus (GPa) = 26.42875 60.04531 43.23703
# Shear Modulus (GPa) = 13.59251 24.06477 18.82864
#
# Velocity S-wave (km/s) = 2.73372 3.63744 3.21747
# Velocity P-wave (km/s) = 4.94924 7.11720 6.12982
#
# Compressibility (1/GPa) = 0.03783758
#
# Stress axis : x y z
#
# Youngs Moduli (GPa) = 58.66356 67.16817 31.82049
#
# Poissons Ratio (x) = 0.47019 -0.11239
# Poissons Ratio (y) = 0.41065 0.29572
# Poissons Ratio (z) = -0.20720 0.62422
#
# Static dielectric constant tensor:
#      x y z
#    x 1.581960 0.000000 -0.025280 
#    y 0.000000 1.696590 0.000000 
#    z -0.025280 0.000000 1.665220 
# 
# From -- ./inp_files/213926.got.cif
#   From: 2010.05.17/outbox.cif.g08.bks.cpg/sg15_107_cif.got.tgz:213926.got - 2010.06.03 18:47:42.
