data_PCOD9259581
_publ_section_title
;
Structure prediction by ZEFSAII (Michael W. Deem and Ramdas Pophale) SiO2 
 PCOD9259581
Probable space group: C 2/C
;
_chemical_formula_sum "Si O2"
_cell_formula_units_Z 64
_cell_length_a 14.670142
_cell_length_b 9.347573
_cell_length_c 23.219462
_cell_angle_alpha 90.000000
_cell_angle_beta 128.056385
_cell_angle_gamma 90.000000
_cell_volume 2507.166792
_symmetry_space_group_name_H-M "C 2/C"
_symmetry_group_IT_number 15
_symmetry_cell_setting 'monoclinic'
loop_
_space_group_symop_operation_xyz
x,y,z
-x,y,1/2-z
-x,-y,-z
x,-y,1/2+z
1/2+x,1/2+y,z
1/2-x,1/2+y,1/2-z
1/2-x,1/2-y,-z
1/2+x,1/2-y,1/2+z
loop_
_atom_site_type_symbol
_atom_site_label
_atom_site_fract_x
_atom_site_fract_y
_atom_site_fract_z
Si Si1 0.097509 0.521810 0.217720
Si Si2 0.999425 0.812743 0.506083
Si Si3 0.872201 0.967452 0.553420
Si Si4 0.767616 0.810501 0.846783
Si Si5 0.059088 0.198825 0.195649
Si Si6 0.361648 0.946800 0.996571
Si Si7 0.268484 0.493617 0.673685
Si Si8 0.040510 0.729409 0.406739
O O1 0.178195 0.561320 0.303131
O O2 0.041056 0.366232 0.201200
O O3 0.179827 0.515429 0.193060
O O4 0.014990 0.655652 0.170243
O O5 0.936427 0.934140 0.518553
O O6 0.960605 0.669747 0.526202
O O7 0.139058 0.819129 0.565882
O O8 0.956417 0.797103 0.423424
O O9 0.742003 0.912169 0.500321
O O10 0.946097 0.882604 0.629622
O O11 0.876926 0.135485 0.572012
O O12 0.851096 0.810231 0.823214
O O13 0.700327 0.660646 0.819727
O O14 0.126151 0.111902 0.271260
O O15 0.299636 0.958295 0.910884
O O16 0.409908 0.095347 0.038661
#
# Coordination Sequence:
#
# PCOD9259581 Si02
#       8
#     8   8   8   8   8   8   8   8
#     4  10  20  37  66  91 122 162 214 272 316 367
#     4  11  22  41  64  94 127 161 218 260 312 379
#     4  11  25  40  59  93 133 171 204 265 321 374
#     4   9  18  35  60  93 121 155 208 269 311 368
#     4   9  20  37  58  90 127 165 213 260 317 380
#     4  12  23  40  64  92 132 171 207 258 325 382
#     4  10  18  35  60  91 119 164 214 261 317 375
#     4  12  22  40  66  98 124 167 218 266 314 376
#
# _framework density 25.526821999999999
#
# number of rings (size 3 to 8) (size 9 to 14) (size 15 to 20)
#    0.000    1.500    2.500    4.500    0.000    3.500 
#    2.250    0.000    0.000    1.500    0.000    0.000 
#    0.000    0.000    0.000    0.000    0.000    0.000 
#
# Total GULP energy -179094.118009 kJ/mol
# GULP energy per Si atom -5596.691188 kJ/mol
# Density = 2.546872 g / cm^3
# Si number density = 25.526822 Si / 1000 Ang^3
#
#
#
# Elastic Constant Matrix: (Units=GPa)
#
#
# Indices 1 2 3 4 5 6 
#
# 1 70.8323 -1.0377 7.8792 0.0000 -5.4692 0.0000
# 2 -1.0377 164.1803 51.2066 0.0000 17.8541 0.0000
# 3 7.8792 51.2066 118.5806 0.0000 5.3644 0.0000
# 4 0.0000 0.0000 0.0000 46.4999 0.0000 -5.2258
# 5 -5.4692 17.8541 5.3644 0.0000 20.6434 0.0000
# 6 0.0000 0.0000 0.0000 -5.2258 0.0000 -1.6634
#
#
#
# Elastic Compliance Matrix: (Units=1/GPa)
#
#
# Indices 1 2 3 4 5 6 
#
# 1 0.014568 0.000000 -0.001156 0.000000 0.004160 0.000000
# 2 0.000000 0.007678 -0.003051 0.000000 -0.005848 0.000000
# 3 -0.001156 -0.003051 0.009838 0.000000 -0.000224 0.000000
# 4 0.000000 0.000000 0.000000 0.015894 0.000000 -0.049934
# 5 0.004160 -0.005848 -0.000224 0.000000 0.054660 0.000000
# 6 0.000000 0.000000 0.000000 -0.049934 0.000000 -0.444316
#
#
# Mechanical properties :
#
#
# Convention : Reuss Voigt Hill
#
# Bulk Modulus (GPa) = 42.24865 52.18773 47.21819
# Shear Modulus (GPa) = -15.36689 32.79899 8.71605
#
# Velocity S-wave (km/s) = -2.45621 3.58842 1.84983
# Velocity P-wave (km/s) = 2.92278 6.13658 4.80626
#
# Compressibility (1/GPa) = 0.02366940
#
# Stress axis : x y z
#
# Youngs Moduli (GPa) = 68.64518 130.23395 101.65018
#
# Poissons Ratio (x) = -0.00005 0.11754
# Poissons Ratio (y) = -0.00002 0.31016
# Poissons Ratio (z) = 0.07937 0.39738
#
# Static dielectric constant tensor:
#      x y z
#    x 2.047510 0.000000 -0.016760 
#    y 0.000000 2.056430 0.000000 
#    z -0.016760 0.000000 1.968650 
# 
# From -- ./inp_files/315763.got.cif
#   From: 2010.05.17/outbox.cif.g08.bks.cpg/sg15_158_cif.got.tgz:315763.got - 2010.06.03 18:47:42.
