data_PCOD9259132
_publ_section_title
;
Structure prediction by ZEFSAII (Michael W. Deem and Ramdas Pophale) SiO2 
 PCOD9259132
Probable space group: C 2/C
;
_chemical_formula_sum "Si O2"
_cell_formula_units_Z 40
_cell_length_a 16.935521
_cell_length_b 11.862988
_cell_length_c 25.207191
_cell_angle_alpha 90.000000
_cell_angle_beta 160.249171
_cell_angle_gamma 90.000000
_cell_volume 1711.371458
_symmetry_space_group_name_H-M "C 2/C"
_symmetry_group_IT_number 15
_symmetry_cell_setting 'monoclinic'
loop_
_space_group_symop_operation_xyz
x,y,z
-x,y,1/2-z
-x,-y,-z
x,-y,1/2+z
1/2+x,1/2+y,z
1/2-x,1/2+y,1/2-z
1/2-x,1/2-y,-z
1/2+x,1/2-y,1/2+z
loop_
_atom_site_type_symbol
_atom_site_label
_atom_site_fract_x
_atom_site_fract_y
_atom_site_fract_z
Si Si1 0.439526 0.179186 0.916246
Si Si2 0.676939 0.439865 0.902159
Si Si3 0.013767 0.502790 0.196112
Si Si4 0.141764 0.748920 0.748711
Si Si5 0.003276 0.250154 0.688136
O O1 0.411251 0.261598 0.847143
O O2 0.181972 0.161655 0.775399
O O3 0.588555 0.078800 0.984039
O O4 0.606148 0.216183 0.069895
O O5 0.500000 0.496789 0.750000
O O6 0.550185 0.322684 0.840095
O O7 0.760475 0.499150 0.007859
O O8 0.126179 0.384558 0.250320
O O9 0.000000 0.498383 0.250000
O O10 0.114428 0.625283 0.246048
O O11 0.750000 0.250000 0.500000
O O12 0.000000 0.242631 0.750000
#
# Coordination Sequence:
#
# PCOD9259132 Si02
#       5
#     8   8   8   8   8
#     4  10  19  34  56  80 110 148 184 224 277 326
#     4   9  18  34  59  89 116 140 174 232 295 339
#     4  10  19  34  58  86 113 146 184 229 279 328
#     4  10  18  34  60  88 116 138 176 237 292 337
#     4  11  25  42  57  76 113 160 197 226 262 325
#
# _framework density 23.373068
#
# number of rings (size 3 to 8) (size 9 to 14) (size 15 to 20)
#    0.000    2.000    0.000    6.600    0.000    1.600 
#    0.000   10.000    0.000   13.200    0.000    0.000 
#    0.000    0.000    0.000    0.000    0.000    0.000 
#
# Total GULP energy -111507.451601 kJ/mol
# GULP energy per Si atom -5575.372580 kJ/mol
# Density = 2.331987 g / cm^3
# Si number density = 23.373068 Si / 1000 Ang^3
#
#
#
# Elastic Constant Matrix: (Units=GPa)
#
#
# Indices 1 2 3 4 5 6 
#
# 1 97.3174 11.8984 66.9498 0.0095 -8.7975 0.0022
# 2 11.8984 74.4500 8.2144 0.0170 12.2079 -0.0189
# 3 66.9498 8.2144 167.0222 0.0239 -22.3874 -0.0162
# 4 0.0095 0.0170 0.0239 11.0882 0.0127 -8.8032
# 5 -8.7975 12.2079 -22.3874 0.0127 58.7925 -0.0061
# 6 0.0022 -0.0189 -0.0162 -8.8032 -0.0061 52.5302
#
#
#
# Elastic Compliance Matrix: (Units=1/GPa)
#
#
# Indices 1 2 3 4 5 6 
#
# 1 0.014400 -0.001740 -0.005637 0.000000 0.000370 -0.000003
# 2 -0.001740 0.014320 -0.000464 -0.000014 -0.003411 0.000002
# 3 -0.005637 -0.000464 0.008609 -0.000016 0.002531 0.000000
# 4 0.000000 -0.000014 -0.000016 0.104026 -0.000024 0.017433
# 5 0.000370 -0.003411 0.002531 -0.000024 0.018736 -0.000002
# 6 -0.000003 0.000002 0.000000 0.017433 -0.000002 0.021958
#
#
# Mechanical properties :
#
#
# Convention : Reuss Voigt Hill
#
# Bulk Modulus (GPa) = 46.19551 56.99055 51.59303
# Shear Modulus (GPa) = 24.39653 41.26397 32.83025
#
# Velocity S-wave (km/s) = 3.23428 4.20628 3.75189
# Velocity P-wave (km/s) = 5.80988 6.93011 6.39457
#
# Compressibility (1/GPa) = 0.02164712
#
# Stress axis : x y z
#
# Youngs Moduli (GPa) = 69.44564 69.83064 116.15976
#
# Poissons Ratio (x) = 0.12150 0.65479
# Poissons Ratio (y) = 0.12083 0.05390
# Poissons Ratio (z) = 0.39146 0.03240
#
# Static dielectric constant tensor:
#      x y z
#    x 1.887430 0.000000 -0.003220 
#    y 0.000000 1.952960 -0.000010 
#    z -0.003220 -0.000010 1.876970 
# 
# From -- ./inp_files/105032.got.cif
#   From: 2010.05.17/outbox.cif.g08.bks.cpg/sg15_53_cif.got.tgz:105032.got - 2010.06.03 18:47:42.
