data_PCOD9259779
_publ_section_title
;
Structure prediction by ZEFSAII (Michael W. Deem and Ramdas Pophale) SiO2 
 PCOD9259779
Probable space group: C 2/C
;
_chemical_formula_sum "Si O2"
_cell_formula_units_Z 60
_cell_length_a 25.074237
_cell_length_b 9.086370
_cell_length_c 20.294762
_cell_angle_alpha 90.000000
_cell_angle_beta 34.729305
_cell_angle_gamma 90.000000
_cell_volume 2634.197225
_symmetry_space_group_name_H-M "C 2/C"
_symmetry_group_IT_number 15
_symmetry_cell_setting 'monoclinic'
loop_
_space_group_symop_operation_xyz
x,y,z
-x,y,1/2-z
-x,-y,-z
x,-y,1/2+z
1/2+x,1/2+y,z
1/2-x,1/2+y,1/2-z
1/2-x,1/2-y,-z
1/2+x,1/2-y,1/2+z
loop_
_atom_site_type_symbol
_atom_site_label
_atom_site_fract_x
_atom_site_fract_y
_atom_site_fract_z
Si Si1 0.781336 0.787646 0.675860
Si Si2 0.000615 0.064027 0.365819
Si Si3 0.801065 0.023224 0.282429
Si Si4 0.398042 0.071591 0.184335
Si Si5 0.647160 0.018130 0.532186
Si Si6 0.037538 0.333994 0.025054
Si Si7 0.000000 0.288478 0.250000
Si Si8 0.056217 0.755639 0.087443
O O1 0.783008 0.847783 0.748233
O O2 0.738709 0.625742 0.709482
O O3 0.712154 0.894748 0.703565
O O4 0.885155 0.777726 0.540037
O O5 0.089964 0.008580 0.314657
O O6 0.945111 0.164743 0.474493
O O7 0.021189 0.184921 0.289841
O O8 0.956928 0.921643 0.376594
O O9 0.753567 0.042646 0.403052
O O10 0.459546 0.165959 0.173934
O O11 0.433949 0.902291 0.145204
O O12 0.432887 0.133350 0.078564
O O13 0.599304 0.067299 0.511431
O O14 0.591274 0.112798 0.641945
O O15 0.621062 0.847588 0.566719
#
# Coordination Sequence:
#
# PCOD9259779 Si02
#       8
#     8   8   8   8   8   8   4   8
#     4  11  23  35  59  96 130 171 190 238 302 379
#     4  11  23  40  61  91 119 157 209 269 299 343
#     4  11  23  37  60  92 132 159 204 238 301 369
#     4  10  18  36  55  83 129 169 197 229 293 387
#     4   9  20  41  60  83 115 164 202 253 300 373
#     4   9  19  33  56  84 120 166 202 236 296 358
#     4  10  24  44  68  84 108 162 214 256 324 338
#     4  10  22  37  60  90 128 154 201 249 311 360
#
# _framework density 22.777339000000001
#
# number of rings (size 3 to 8) (size 9 to 14) (size 15 to 20)
#    0.000    1.867    2.667    0.800    5.600    2.133 
#    0.000    0.000    2.933    2.400    0.000    0.000 
#    0.000    0.000    0.000    0.000    0.000    0.000 
#
# Total GULP energy -167437.928595 kJ/mol
# GULP energy per Si atom -5581.264286 kJ/mol
# Density = 2.272550 g / cm^3
# Si number density = 22.777339 Si / 1000 Ang^3
#
#
#
# Elastic Constant Matrix: (Units=GPa)
#
#
# Indices 1 2 3 4 5 6 
#
# 1 11.1677 -4.1305 0.8136 -0.0001 -0.2778 0.0000
# 2 -4.1305 114.4846 18.9476 -0.0004 9.8399 0.0001
# 3 0.8136 18.9476 45.4011 -0.0003 2.3908 0.0000
# 4 -0.0001 -0.0004 -0.0003 33.5590 0.0001 -7.9825
# 5 -0.2778 9.8399 2.3908 0.0001 32.5405 0.0001
# 6 0.0000 0.0001 0.0000 -7.9825 0.0001 13.3193
#
#
#
# Elastic Compliance Matrix: (Units=1/GPa)
#
#
# Indices 1 2 3 4 5 6 
#
# 1 0.091194 0.003837 -0.003228 0.000000 -0.000144 0.000000
# 2 0.003837 0.009762 -0.004004 0.000000 -0.002625 0.000000
# 3 -0.003228 -0.004004 0.023785 0.000000 -0.000564 0.000000
# 4 0.000000 0.000000 0.000000 0.034752 0.000000 0.020828
# 5 -0.000144 -0.002625 -0.000564 0.000000 0.031565 0.000000
# 6 0.000000 0.000000 0.000000 0.020828 0.000000 0.087562
#
#
# Mechanical properties :
#
#
# Convention : Reuss Voigt Hill
#
# Bulk Modulus (GPa) = 8.47818 22.47940 15.47879
# Shear Modulus (GPa) = 15.39755 26.24527 20.82141
#
# Velocity S-wave (km/s) = 2.60283 3.39817 3.02674
# Velocity P-wave (km/s) = 3.57256 5.02865 4.36180
#
# Compressibility (1/GPa) = 0.11794985
#
# Stress axis : x y z
#
# Youngs Moduli (GPa) = 10.96560 102.44242 42.04395
#
# Poissons Ratio (x) = -0.39306 0.13571
# Poissons Ratio (y) = -0.04207 0.16836
# Poissons Ratio (z) = 0.03539 0.41022
#
# Static dielectric constant tensor:
#      x y z
#    x 1.854920 0.000000 -0.022570 
#    y 0.000000 1.894060 0.000000 
#    z -0.022570 0.000000 1.930170 
# 
# From -- ./inp_files/284301.got.cif
#   From: 2010.05.17/outbox.cif.g08.bks.cpg/sg15_143_cif.got.tgz:284301.got - 2010.06.03 18:47:42.
