data_PCOD9259607
_publ_section_title
;
Structure prediction by ZEFSAII (Michael W. Deem and Ramdas Pophale) SiO2 
 PCOD9259607
Probable space group: C 2/C
;
_chemical_formula_sum "Si O2"
_cell_formula_units_Z 60
_cell_length_a 13.192162
_cell_length_b 11.571395
_cell_length_c 20.669301
_cell_angle_alpha 90.000000
_cell_angle_beta 124.243295
_cell_angle_gamma 90.000000
_cell_volume 2608.267317
_symmetry_space_group_name_H-M "C 2/C"
_symmetry_group_IT_number 15
_symmetry_cell_setting 'monoclinic'
loop_
_space_group_symop_operation_xyz
x,y,z
-x,y,1/2-z
-x,-y,-z
x,-y,1/2+z
1/2+x,1/2+y,z
1/2-x,1/2+y,1/2-z
1/2-x,1/2-y,-z
1/2+x,1/2-y,1/2+z
loop_
_atom_site_type_symbol
_atom_site_label
_atom_site_fract_x
_atom_site_fract_y
_atom_site_fract_z
Si Si1 0.756515 0.296387 0.188546
Si Si2 0.542043 0.999558 0.414268
Si Si3 0.118336 0.490080 0.758594
Si Si4 0.616226 0.869102 0.547137
Si Si5 0.500000 0.352856 0.750000
Si Si6 0.220061 0.138446 0.032979
Si Si7 0.639360 0.473083 0.381131
Si Si8 0.708303 0.253913 0.321379
O O1 0.769073 0.432303 0.180296
O O2 0.661074 0.239597 0.104506
O O3 0.738450 0.289348 0.259222
O O4 0.881864 0.225282 0.221273
O O5 0.417938 0.995147 0.328923
O O6 0.577955 0.875960 0.457813
O O7 0.503068 0.085282 0.457867
O O8 0.655616 0.059766 0.418918
O O9 0.125968 0.357274 0.777135
O O10 0.000000 0.542410 0.750000
O O11 0.731619 0.959330 0.586331
O O12 0.465893 0.439616 0.679131
O O13 0.192946 0.194997 0.093279
O O14 0.250000 0.250000 0.000000
O O15 0.132686 0.064706 0.954013
O O16 0.646385 0.358550 0.338676
#
# Coordination Sequence:
#
# PCOD9259607 Si02
#       8
#     8   8   8   8   4   8   8   8
#     4  11  23  41  58  88 125 161 201 250 306 367
#     4  10  18  35  61  89 117 155 206 250 299 361
#     4  12  23  38  59  92 123 158 201 252 303 363
#     4   9  19  37  61  87 117 161 204 243 301 369
#     4  10  22  40  60  82 118 168 194 244 308 368
#     4   9  19  35  56  90 121 149 192 261 304 347
#     4   9  20  38  62  87 118 154 207 250 300 360
#     4  11  22  36  62  87 117 154 204 254 300 352
#
# _framework density 23.003779000000002
#
# number of rings (size 3 to 8) (size 9 to 14) (size 15 to 20)
#    0.000    1.867    3.333    0.800    2.800    1.067 
#    0.000    2.667    0.000    0.000    0.000    0.000 
#    0.000    0.000    0.000    0.000    0.000    0.000 
#
# Total GULP energy -167094.567106 kJ/mol
# GULP energy per Si atom -5569.818904 kJ/mol
# Density = 2.295142 g / cm^3
# Si number density = 23.003779 Si / 1000 Ang^3
#
#
#
# Elastic Constant Matrix: (Units=GPa)
#
#
# Indices 1 2 3 4 5 6 
#
# 1 13.9753 1.7413 -13.3705 0.0000 -8.8052 0.0000
# 2 1.7413 91.1572 14.3806 0.0000 2.0825 0.0000
# 3 -13.3705 14.3806 55.8716 0.0000 -1.5057 0.0000
# 4 0.0000 0.0000 0.0000 20.9369 0.0000 2.2387
# 5 -8.8052 2.0825 -1.5057 0.0000 29.2192 0.0000
# 6 0.0000 0.0000 0.0000 2.2387 0.0000 13.9760
#
#
#
# Elastic Compliance Matrix: (Units=1/GPa)
#
#
# Indices 1 2 3 4 5 6 
#
# 1 0.133518 -0.009119 0.035450 0.000000 0.042712 0.000000
# 2 -0.009119 0.012085 -0.005397 0.000000 -0.003887 0.000000
# 3 0.035450 -0.005397 0.028108 0.000000 0.012516 0.000000
# 4 0.000000 0.000000 0.000000 0.048595 0.000000 -0.007784
# 5 0.042712 -0.003887 0.012516 0.000000 0.048018 0.000000
# 6 0.000000 0.000000 0.000000 -0.007784 0.000000 0.072798
#
#
# Mechanical properties :
#
#
# Convention : Reuss Voigt Hill
#
# Bulk Modulus (GPa) = 4.63869 18.50077 11.56973
# Shear Modulus (GPa) = 13.40078 23.37658 18.38868
#
# Velocity S-wave (km/s) = 2.41622 3.19126 2.83039
# Velocity P-wave (km/s) = 3.13130 4.65175 3.96509
#
# Compressibility (1/GPa) = 0.21557794
#
# Stress axis : x y z
#
# Youngs Moduli (GPa) = 7.48965 82.75054 35.57692
#
# Poissons Ratio (x) = 0.75458 -1.26120
# Poissons Ratio (y) = 0.06830 0.19202
# Poissons Ratio (z) = -0.26551 0.44663
#
# Static dielectric constant tensor:
#      x y z
#    x 1.870470 0.000000 -0.092080 
#    y 0.000000 1.871220 0.000000 
#    z -0.092080 0.000000 1.709030 
# 
# From -- ./inp_files/243771.got.cif
#   From: 2010.05.17/outbox.cif.g08.bks.cpg/sg15_122_cif.got.tgz:243771.got - 2010.06.03 18:47:42.
