data_PCOD9259598
_publ_section_title
;
Structure prediction by ZEFSAII (Michael W. Deem and Ramdas Pophale) SiO2 
 PCOD9259598
Probable space group: C 2/C
;
_chemical_formula_sum "Si O2"
_cell_formula_units_Z 52
_cell_length_a 11.791325
_cell_length_b 11.424191
_cell_length_c 21.518660
_cell_angle_alpha 90.000000
_cell_angle_beta 41.911424
_cell_angle_gamma 90.000000
_cell_volume 1936.276455
_symmetry_space_group_name_H-M "C 2/C"
_symmetry_group_IT_number 15
_symmetry_cell_setting 'monoclinic'
loop_
_space_group_symop_operation_xyz
x,y,z
-x,y,1/2-z
-x,-y,-z
x,-y,1/2+z
1/2+x,1/2+y,z
1/2-x,1/2+y,1/2-z
1/2-x,1/2-y,-z
1/2+x,1/2-y,1/2+z
loop_
_atom_site_type_symbol
_atom_site_label
_atom_site_fract_x
_atom_site_fract_y
_atom_site_fract_z
Si Si1 0.944238 0.365951 0.203905
Si Si2 0.500000 0.640817 0.250000
Si Si3 0.436180 0.083893 0.414347
Si Si4 0.089341 0.065133 0.886589
Si Si5 0.837827 0.833641 0.570966
Si Si6 0.660498 0.547131 0.612466
Si Si7 0.105584 0.739656 0.261018
O O1 0.978969 0.228046 0.199917
O O2 0.741601 0.384982 0.282368
O O3 0.000000 0.408217 0.250000
O O4 0.036296 0.449689 0.117662
O O5 0.351768 0.550359 0.329777
O O6 0.292908 0.153788 0.432874
O O7 0.350049 0.084893 0.517181
O O8 0.600006 0.155436 0.323234
O O9 0.934370 0.005402 0.911979
O O10 0.162347 0.961002 0.897316
O O11 0.017861 0.166483 0.961392
O O12 0.782407 0.748767 0.650506
O O13 0.525583 0.651991 0.678823
O O14 0.000000 0.668501 0.250000
#
# Coordination Sequence:
#
# PCOD9259598 Si02
#       7
#     8   4   8   8   8   8   8
#     4  10  19  39  62  80 120 159 202 238 299 357
#     4  10  24  42  56  82 132 164 190 244 316 360
#     4  10  18  35  62  90 104 152 208 249 288 363
#     4  10  19  34  60  90 114 150 203 249 287 358
#     4   9  17  32  58  89 114 141 193 257 295 340
#     4  11  23  36  57  90 123 153 195 247 313 357
#     4  10  18  35  61  82 117 149 189 246 305 354
#
# _framework density 26.85567
#
# number of rings (size 3 to 8) (size 9 to 14) (size 15 to 20)
#    0.462    1.538    3.846    0.923    0.000    1.846 
#    0.000    1.538    0.000    1.846    0.000    0.000 
#    0.000    0.000    0.000    0.000    0.000    0.000 
#
# Total GULP energy -144843.800477 kJ/mol
# GULP energy per Si atom -5570.915403 kJ/mol
# Density = 2.679455 g / cm^3
# Si number density = 26.855670 Si / 1000 Ang^3
#
#
#
# Elastic Constant Matrix: (Units=GPa)
#
#
# Indices 1 2 3 4 5 6 
#
# 1 37.2908 12.9195 -1.6611 0.0000 -6.0391 0.0000
# 2 12.9195 145.2491 79.4623 0.0000 15.0827 0.0000
# 3 -1.6611 79.4623 211.0864 0.0000 27.5816 0.0000
# 4 0.0000 0.0000 0.0000 55.9500 0.0000 4.7170
# 5 -6.0391 15.0827 27.5816 0.0000 30.2580 0.0000
# 6 0.0000 0.0000 0.0000 4.7170 0.0000 17.3800
#
#
#
# Elastic Compliance Matrix: (Units=1/GPa)
#
#
# Indices 1 2 3 4 5 6 
#
# 1 0.029281 -0.003726 0.000712 0.000000 0.007053 0.000000
# 2 -0.003726 0.009207 -0.003177 0.000000 -0.002437 0.000000
# 3 0.000712 -0.003177 0.006486 0.000000 -0.004187 0.000000
# 4 0.000000 0.000000 0.000000 0.018292 0.000000 -0.004964
# 5 0.007053 -0.002437 -0.004187 0.000000 0.039488 0.000000
# 6 0.000000 0.000000 0.000000 -0.004964 0.000000 0.058885
#
#
# Mechanical properties :
#
#
# Convention : Reuss Voigt Hill
#
# Bulk Modulus (GPa) = 30.68297 63.89643 47.28970
# Shear Modulus (GPa) = 27.04379 40.91131 33.97755
#
# Velocity S-wave (km/s) = 3.17678 3.90728 3.56081
# Velocity P-wave (km/s) = 4.99057 6.64831 5.87817
#
# Compressibility (1/GPa) = 0.03259137
#
# Stress axis : x y z
#
# Youngs Moduli (GPa) = 34.15178 108.61026 154.17922
#
# Poissons Ratio (x) = 0.40469 -0.10970
# Poissons Ratio (y) = 0.12725 0.48981
# Poissons Ratio (z) = -0.02430 0.34504
#
# Static dielectric constant tensor:
#      x y z
#    x 2.468720 0.000000 0.056370 
#    y 0.000000 2.151740 0.000000 
#    z 0.056370 0.000000 2.271290 
# 
# From -- ./inp_files/315955.got.cif
#   From: 2010.05.17/outbox.cif.g08.bks.cpg/sg15_158_cif.got.tgz:315955.got - 2010.06.03 18:47:42.
