data_PCOD9259538
_publ_section_title
;
Structure prediction by ZEFSAII (Michael W. Deem and Ramdas Pophale) SiO2 
 PCOD9259538
Probable space group: C 2/C
;
_chemical_formula_sum "Si O2"
_cell_formula_units_Z 48
_cell_length_a 15.077592
_cell_length_b 14.255752
_cell_length_c 9.347441
_cell_angle_alpha 90.000000
_cell_angle_beta 68.549977
_cell_angle_gamma 90.000000
_cell_volume 1870.000761
_symmetry_space_group_name_H-M "C 2/C"
_symmetry_group_IT_number 15
_symmetry_cell_setting 'monoclinic'
loop_
_space_group_symop_operation_xyz
x,y,z
-x,y,1/2-z
-x,-y,-z
x,-y,1/2+z
1/2+x,1/2+y,z
1/2-x,1/2+y,1/2-z
1/2-x,1/2-y,-z
1/2+x,1/2-y,1/2+z
loop_
_atom_site_type_symbol
_atom_site_label
_atom_site_fract_x
_atom_site_fract_y
_atom_site_fract_z
Si Si1 0.770555 0.518093 0.201227
Si Si2 0.088112 0.772932 0.970688
Si Si3 0.454050 0.918183 0.121919
Si Si4 0.355900 0.545093 0.960055
Si Si5 0.259800 0.227356 0.185980
Si Si6 0.098465 0.165800 0.064304
O O1 0.850326 0.456609 0.227790
O O2 0.680208 0.536262 0.355564
O O3 0.805532 0.623607 0.143925
O O4 0.736703 0.461097 0.083902
O O5 0.055516 0.665726 0.987977
O O6 0.086807 0.858143 0.084875
O O7 0.200423 0.765919 0.866214
O O8 0.010050 0.808047 0.899642
O O9 0.500000 0.894845 0.250000
O O10 0.500000 0.000000 0.000000
O O11 0.402651 0.444416 0.903493
O O12 0.338410 0.306479 0.114043
O O13 0.168493 0.223042 0.130916
#
# Coordination Sequence:
#
# PCOD9259538 Si02
#       6
#     8   8   8   8   8   8
#     4  10  21  40  61  91 130 168 215 265 322 384
#     4  11  22  38  62  93 126 167 216 264 321 388
#     4  12  25  42  66  93 126 169 216 269 326 391
#     4  10  22  39  64  92 127 170 212 265 323 382
#     4   9  19  34  61  91 123 166 209 259 318 379
#     4  10  18  35  59  91 125 161 213 264 311 375
#
# _framework density 25.668437999999998
#
# number of rings (size 3 to 8) (size 9 to 14) (size 15 to 20)
#    0.000    1.667    0.000    5.000    0.000    3.333 
#    0.000    5.833    0.000    0.000    0.000    0.000 
#    0.000    0.000    0.000    0.000    0.000    0.000 
#
# Total GULP energy -133854.870587 kJ/mol
# GULP energy per Si atom -5577.286274 kJ/mol
# Density = 2.561002 g / cm^3
# Si number density = 25.668438 Si / 1000 Ang^3
#
#
#
# Elastic Constant Matrix: (Units=GPa)
#
#
# Indices 1 2 3 4 5 6 
#
# 1 97.2037 58.1337 13.9996 0.0000 -6.1429 0.0000
# 2 58.1337 200.5923 15.4698 0.0000 4.6734 0.0000
# 3 13.9996 15.4698 60.4579 0.0000 -3.7562 0.0000
# 4 0.0000 0.0000 0.0000 17.1640 0.0000 2.9534
# 5 -6.1429 4.6734 -3.7562 0.0000 30.5066 0.0000
# 6 0.0000 0.0000 0.0000 2.9534 0.0000 38.4484
#
#
#
# Elastic Compliance Matrix: (Units=1/GPa)
#
#
# Indices 1 2 3 4 5 6 
#
# 1 0.012941 -0.003674 -0.001874 0.000000 0.002938 0.000000
# 2 -0.003674 0.006156 -0.000835 0.000000 -0.001786 0.000000
# 3 -0.001874 -0.000835 0.017305 0.000000 0.001881 0.000000
# 4 0.000000 0.000000 0.000000 0.059042 0.000000 -0.004535
# 5 0.002938 -0.001786 0.001881 0.000000 0.033877 0.000000
# 6 0.000000 0.000000 0.000000 -0.004535 0.000000 0.026357
#
#
# Mechanical properties :
#
#
# Convention : Reuss Voigt Hill
#
# Bulk Modulus (GPa) = 42.31043 59.27332 50.79187
# Shear Modulus (GPa) = 28.35711 35.26718 31.81214
#
# Velocity S-wave (km/s) = 3.32738 3.71071 3.52426
# Velocity P-wave (km/s) = 5.59296 6.44214 6.03251
#
# Compressibility (1/GPa) = 0.02363484
#
# Stress axis : x y z
#
# Youngs Moduli (GPa) = 77.27585 162.44036 57.78685
#
# Poissons Ratio (x) = 0.59685 0.10828
# Poissons Ratio (y) = 0.28393 0.04827
# Poissons Ratio (z) = 0.14480 0.13569
#
# Static dielectric constant tensor:
#      x y z
#    x 1.998180 0.000000 0.003610 
#    y 0.000000 2.078400 0.000000 
#    z 0.003610 0.000000 2.233010 
# 
# From -- ./inp_files/96201.got.cif
#   From: 2010.05.17/outbox.cif.g08.bks.cpg/sg15_49_cif.got.tgz:96201.got - 2010.06.03 18:47:42.
