data_PCOD9259288
_publ_section_title
;
Structure prediction by ZEFSAII (Michael W. Deem and Ramdas Pophale) SiO2 
 PCOD9259288
Probable space group: C 2/C
;
_chemical_formula_sum "Si O2"
_cell_formula_units_Z 64
_cell_length_a 29.043100
_cell_length_b 9.649425
_cell_length_c 14.364352
_cell_angle_alpha 90.000000
_cell_angle_beta 120.975945
_cell_angle_gamma 90.000000
_cell_volume 3451.481456
_symmetry_space_group_name_H-M "C 2/C"
_symmetry_group_IT_number 15
_symmetry_cell_setting 'monoclinic'
loop_
_space_group_symop_operation_xyz
x,y,z
-x,y,1/2-z
-x,-y,-z
x,-y,1/2+z
1/2+x,1/2+y,z
1/2-x,1/2+y,1/2-z
1/2-x,1/2-y,-z
1/2+x,1/2-y,1/2+z
loop_
_atom_site_type_symbol
_atom_site_label
_atom_site_fract_x
_atom_site_fract_y
_atom_site_fract_z
Si Si1 0.251757 0.552748 0.142715
Si Si2 0.838987 0.269594 0.209643
Si Si3 0.025393 0.983725 0.370128
Si Si4 0.140820 0.901624 0.952224
Si Si5 0.932738 0.095216 0.395686
Si Si6 0.233543 0.901300 0.519002
Si Si7 0.346950 0.360453 0.321177
Si Si8 0.315582 0.936049 0.756358
O O1 0.282124 0.700228 0.181262
O O2 0.297006 0.441954 0.223454
O O3 0.200145 0.538388 0.153252
O O4 0.240092 0.512198 0.024333
O O5 0.846822 0.212013 0.113267
O O6 0.887541 0.203487 0.319440
O O7 0.839438 0.431271 0.230600
O O8 0.045020 0.887568 0.476346
O O9 0.000000 0.920401 0.250000
O O10 0.077990 0.067002 0.392787
O O11 0.981456 0.082515 0.374080
O O12 0.160056 0.857564 0.074561
O O13 0.172380 0.044445 0.959385
O O14 0.900583 0.948732 0.358953
O O15 0.250000 0.750000 0.500000
O O16 0.258478 0.911204 0.646715
O O17 0.348521 0.205489 0.284068
#
# Coordination Sequence:
#
# PCOD9259288 Si02
#       8
#     8   8   8   8   8   8   8   8
#     4  10  21  36  51  75 116 153 198 231 275 326
#     4  10  22  36  55  84 114 152 195 236 277 346
#     4  10  18  34  65  90 103 145 193 247 286 334
#     4  10  21  37  59  84 113 151 198 238 280 342
#     4   9  20  37  58  91 113 139 191 248 288 332
#     4  11  23  35  55  86 119 157 191 242 280 337
#     4  10  20  37  56  81 118 152 189 238 280 340
#     4  12  23  35  56  82 119 161 186 228 289 344
#
# _framework density 18.542763000000001
#
# number of rings (size 3 to 8) (size 9 to 14) (size 15 to 20)
#    0.000    1.750    3.750    0.750    1.750    1.000 
#    0.000    0.000    0.000    6.750    3.250    0.000 
#    0.000    0.000    0.000    0.000    0.000    0.000 
#
# Total GULP energy -178492.476893 kJ/mol
# GULP energy per Si atom -5577.889903 kJ/mol
# Density = 1.850056 g / cm^3
# Si number density = 18.542763 Si / 1000 Ang^3
#
#
#
# Elastic Constant Matrix: (Units=GPa)
#
#
# Indices 1 2 3 4 5 6 
#
# 1 91.7241 33.6057 13.6021 0.0000 -0.9622 0.0000
# 2 33.6057 117.7425 17.5852 0.0000 6.5545 0.0000
# 3 13.6021 17.5852 73.2134 0.0000 -7.7777 0.0000
# 4 0.0000 0.0000 0.0000 14.6812 0.0000 -1.2464
# 5 -0.9622 6.5545 -7.7777 0.0000 23.6521 0.0000
# 6 0.0000 0.0000 0.0000 -1.2464 0.0000 8.7587
#
#
#
# Elastic Compliance Matrix: (Units=1/GPa)
#
#
# Indices 1 2 3 4 5 6 
#
# 1 0.012354 -0.003375 -0.001380 0.000000 0.000984 0.000000
# 2 -0.003375 0.009979 -0.002153 0.000000 -0.003611 0.000000
# 3 -0.001380 -0.002153 0.015014 0.000000 0.005478 0.000000
# 4 0.000000 0.000000 0.000000 0.068947 0.000000 0.009812
# 5 0.000984 -0.003611 0.005478 0.000000 0.045122 0.000000
# 6 0.000000 0.000000 0.000000 0.009812 0.000000 0.115568
#
#
# Mechanical properties :
#
#
# Convention : Reuss Voigt Hill
#
# Bulk Modulus (GPa) = 42.49799 45.80734 44.15266
# Shear Modulus (GPa) = 17.32241 23.94420 20.63330
#
# Velocity S-wave (km/s) = 3.05976 3.59736 3.33940
# Velocity P-wave (km/s) = 5.95412 6.48166 6.22348
#
# Compressibility (1/GPa) = 0.02353053
#
# Stress axis : x y z
#
# Youngs Moduli (GPa) = 80.94794 100.21136 66.60330
#
# Poissons Ratio (x) = 0.33817 0.09192
# Poissons Ratio (y) = 0.27317 0.14343
# Poissons Ratio (z) = 0.11171 0.21580
#
# Static dielectric constant tensor:
#      x y z
#    x 1.639850 0.000000 -0.019910 
#    y 0.000000 1.632020 0.000000 
#    z -0.019910 0.000000 1.681980 
# 
# From -- ./inp_files/180834.got.cif
#   From: 2010.05.17/outbox.cif.g08.bks.cpg/sg15_91_cif.got.tgz:180834.got - 2010.06.03 18:47:42.
