data_PCOD9259554
_publ_section_title
;
Structure prediction by ZEFSAII (Michael W. Deem and Ramdas Pophale) SiO2 
 PCOD9259554
Probable space group: C 2/C
;
_chemical_formula_sum "Si O2"
_cell_formula_units_Z 36
_cell_length_a 15.655745
_cell_length_b 6.764869
_cell_length_c 17.715903
_cell_angle_alpha 90.000000
_cell_angle_beta 112.524116
_cell_angle_gamma 90.000000
_cell_volume 1733.149427
_symmetry_space_group_name_H-M "C 2/C"
_symmetry_group_IT_number 15
_symmetry_cell_setting 'monoclinic'
loop_
_space_group_symop_operation_xyz
x,y,z
-x,y,1/2-z
-x,-y,-z
x,-y,1/2+z
1/2+x,1/2+y,z
1/2-x,1/2+y,1/2-z
1/2-x,1/2-y,-z
1/2+x,1/2-y,1/2+z
loop_
_atom_site_type_symbol
_atom_site_label
_atom_site_fract_x
_atom_site_fract_y
_atom_site_fract_z
Si Si1 0.000000 0.573082 0.750000
Si Si2 0.170845 0.399572 0.888961
Si Si3 0.382780 0.674182 0.324160
Si Si4 0.824113 0.411369 0.434658
Si Si5 0.206661 0.196350 0.666644
O O1 0.079656 0.435050 0.810168
O O2 0.041267 0.719447 0.700561
O O3 0.221458 0.187846 0.900316
O O4 0.242341 0.558519 0.877934
O O5 0.151394 0.440158 0.970124
O O6 0.387666 0.757847 0.410561
O O7 0.373535 0.437911 0.324200
O O8 0.283748 0.743507 0.254601
O O9 0.826397 0.609425 0.386862
#
# Coordination Sequence:
#
# PCOD9259554 Si02
#       5
#     4   8   8   8   8
#     4  10  22  40  56  92 132 156 194 260 320 352
#     4   9  21  37  59  88 122 154 201 253 304 363
#     4  10  20  34  59  85 121 157 205 247 300 359
#     4  10  19  37  62  87 114 163 209 243 293 369
#     4  10  18  35  60  84 114 158 208 247 288 366
#
# _framework density 20.771435
#
# number of rings (size 3 to 8) (size 9 to 14) (size 15 to 20)
#    0.000    2.222    2.222    0.667    0.000    0.889 
#    0.000   11.111    0.000    0.000    0.000    0.000 
#    0.000    0.000    0.000    0.000    0.000    0.000 
#
# Total GULP energy -100506.278013 kJ/mol
# GULP energy per Si atom -5583.682112 kJ/mol
# Density = 2.072416 g / cm^3
# Si number density = 20.771435 Si / 1000 Ang^3
#
#
#
# Elastic Constant Matrix: (Units=GPa)
#
#
# Indices 1 2 3 4 5 6 
#
# 1 46.0682 3.8664 11.0275 0.0000 -2.4088 0.0000
# 2 3.8664 95.8676 17.5437 0.0000 9.4041 0.0000
# 3 11.0275 17.5437 61.5606 0.0000 -25.9054 0.0000
# 4 0.0000 0.0000 0.0000 25.9736 0.0000 -8.2405
# 5 -2.4088 9.4041 -25.9054 0.0000 26.7171 0.0000
# 6 0.0000 0.0000 0.0000 -8.2405 0.0000 3.9296
#
#
#
# Elastic Compliance Matrix: (Units=1/GPa)
#
#
# Indices 1 2 3 4 5 6 
#
# 1 0.022862 0.000515 -0.005829 0.000000 -0.003772 0.000000
# 2 0.000515 0.013701 -0.010146 0.000000 -0.014614 0.000000
# 3 -0.005829 -0.010146 0.036254 0.000000 0.038199 0.000000
# 4 0.000000 0.000000 0.000000 0.115037 0.000000 0.241239
# 5 -0.003772 -0.014614 0.038199 0.000000 0.079271 0.000000
# 6 0.000000 0.000000 0.000000 0.241239 0.000000 0.760373
#
#
# Mechanical properties :
#
#
# Convention : Reuss Voigt Hill
#
# Bulk Modulus (GPa) = 23.86941 29.81907 26.84424
# Shear Modulus (GPa) = 4.66250 22.72799 13.69524
#
# Velocity S-wave (km/s) = 1.49985 3.31145 2.57053
# Velocity P-wave (km/s) = 3.80996 5.38590 4.66496
#
# Compressibility (1/GPa) = 0.04189462
#
# Stress axis : x y z
#
# Youngs Moduli (GPa) = 43.74090 72.98914 27.58287
#
# Poissons Ratio (x) = -0.03758 0.16079
# Poissons Ratio (y) = -0.02252 0.27987
# Poissons Ratio (z) = 0.25499 0.74058
#
# Static dielectric constant tensor:
#      x y z
#    x 1.747250 0.000000 -0.017850 
#    y 0.000000 1.756200 0.000000 
#    z -0.017850 0.000000 1.734380 
# 
# From -- ./inp_files/103073.got.cif
#   From: 2010.05.17/outbox.cif.g08.bks.cpg/sg15_52_cif.got.tgz:103073.got - 2010.06.03 18:47:42.
