data_PCOD9259055
_publ_section_title
;
Structure prediction by ZEFSAII (Michael W. Deem and Ramdas Pophale) SiO2 
 PCOD9259055
Probable space group: C 2/C
;
_chemical_formula_sum "Si O2"
_cell_formula_units_Z 60
_cell_length_a 20.138641
_cell_length_b 8.900757
_cell_length_c 23.602071
_cell_angle_alpha 90.000000
_cell_angle_beta 34.416693
_cell_angle_gamma 90.000000
_cell_volume 2391.195235
_symmetry_space_group_name_H-M "C 2/C"
_symmetry_group_IT_number 15
_symmetry_cell_setting 'monoclinic'
loop_
_space_group_symop_operation_xyz
x,y,z
-x,y,1/2-z
-x,-y,-z
x,-y,1/2+z
1/2+x,1/2+y,z
1/2-x,1/2+y,1/2-z
1/2-x,1/2-y,-z
1/2+x,1/2-y,1/2+z
loop_
_atom_site_type_symbol
_atom_site_label
_atom_site_fract_x
_atom_site_fract_y
_atom_site_fract_z
Si Si1 0.379931 0.700442 0.343305
Si Si2 0.638838 0.646564 0.010754
Si Si3 0.970163 0.844689 0.462499
Si Si4 0.786921 0.977838 0.230034
Si Si5 0.855357 0.649127 0.453162
Si Si6 0.091321 0.715945 0.872427
Si Si7 0.171746 0.093084 0.672313
Si Si8 0.500000 0.854142 0.750000
O O1 0.500000 0.789429 0.250000
O O2 0.360833 0.639877 0.420897
O O3 0.266148 0.792942 0.404976
O O4 0.398631 0.559051 0.288506
O O5 0.533959 0.758828 0.068089
O O6 0.606277 0.491722 0.001609
O O7 0.950779 0.745763 0.420349
O O8 0.929615 0.752809 0.546148
O O9 0.102649 0.901965 0.379538
O O10 0.654404 0.936111 0.307689
O O11 0.794155 0.905548 0.287010
O O12 0.818925 0.151941 0.209551
O O13 0.750000 0.750000 0.500000
O O14 0.783922 0.567008 0.552694
O O15 0.925065 0.571021 0.353321
O O16 0.097316 0.239012 0.708134
#
# Coordination Sequence:
#
# PCOD9259055 Si02
#       8
#     8   8   8   8   8   8   8   4
#     4  11  22  40  69  92 125 167 220 280 334 394
#     4  10  23  41  65  92 128 170 222 269 333 402
#     4  11  21  42  65  91 133 176 219 269 340 397
#     4  11  23  42  66  95 132 180 228 275 332 404
#     4  10  20  33  62  92 128 164 212 266 329 394
#     4  11  25  43  66  97 135 181 226 276 335 397
#     4  11  20  36  63  95 125 166 215 273 333 387
#     4  10  18  34  58  92 126 164 210 260 328 402
#
# _framework density 25.092054999999998
#
# number of rings (size 3 to 8) (size 9 to 14) (size 15 to 20)
#    0.000    1.333    3.333    4.800    0.000    4.267 
#    2.400    1.333   26.400    0.000    0.000    0.000 
#    0.000    0.000    0.000    0.000    0.000    0.000 
#
# Total GULP energy -167733.011840 kJ/mol
# GULP energy per Si atom -5591.100395 kJ/mol
# Density = 2.503494 g / cm^3
# Si number density = 25.092055 Si / 1000 Ang^3
#
#
#
# Elastic Constant Matrix: (Units=GPa)
#
#
# Indices 1 2 3 4 5 6 
#
# 1 72.3326 9.7798 6.3751 0.0000 -3.7417 0.0000
# 2 9.7798 19.3986 27.0641 0.0000 -9.6578 0.0001
# 3 6.3751 27.0641 125.8651 -0.0001 -8.4488 0.0000
# 4 0.0000 0.0000 -0.0001 24.9330 0.0000 -9.7675
# 5 -3.7417 -9.6578 -8.4488 0.0000 46.4982 0.0000
# 6 0.0000 0.0001 0.0000 -9.7675 0.0000 23.7075
#
#
#
# Elastic Compliance Matrix: (Units=1/GPa)
#
#
# Indices 1 2 3 4 5 6 
#
# 1 0.014982 -0.009600 0.001268 0.000000 -0.000558 0.000000
# 2 -0.009600 0.087847 -0.017443 0.000000 0.014304 0.000000
# 3 0.001268 -0.017443 0.011536 0.000000 -0.001425 0.000000
# 4 0.000000 0.000000 0.000000 0.047827 0.000000 0.019705
# 5 -0.000558 0.014304 -0.001425 0.000000 0.024173 0.000000
# 6 0.000000 0.000000 0.000000 0.019705 0.000000 0.050299
#
#
# Mechanical properties :
#
#
# Convention : Reuss Voigt Hill
#
# Bulk Modulus (GPa) = 15.91969 33.78158 24.85063
# Shear Modulus (GPa) = 16.17317 30.65288 23.41303
#
# Velocity S-wave (km/s) = 2.54156 3.49896 3.05796
# Velocity P-wave (km/s) = 3.86924 5.46039 4.73217
#
# Compressibility (1/GPa) = 0.06281530
#
# Stress axis : x y z
#
# Youngs Moduli (GPa) = 66.74490 11.38337 86.68658
#
# Poissons Ratio (x) = 0.10928 -0.10992
# Poissons Ratio (y) = 0.64076 1.51207
# Poissons Ratio (z) = -0.08463 0.19856
#
# Static dielectric constant tensor:
#      x y z
#    x 2.039810 0.000000 -0.054950 
#    y 0.000000 2.047160 0.000000 
#    z -0.054950 0.000000 2.084390 
# 
# From -- ./inp_files/280089.got.cif
#   From: 2010.05.17/outbox.cif.g08.bks.cpg/sg15_141_cif.got.tgz:280089.got - 2010.06.03 18:47:42.
