data_PCOD9259381
_publ_section_title
;
Structure prediction by ZEFSAII (Michael W. Deem and Ramdas Pophale) SiO2 
 PCOD9259381
Probable space group: C 2/C
;
_chemical_formula_sum "Si O2"
_cell_formula_units_Z 48
_cell_length_a 21.385461
_cell_length_b 12.454258
_cell_length_c 9.014018
_cell_angle_alpha 90.000000
_cell_angle_beta 66.111475
_cell_angle_gamma 90.000000
_cell_volume 2195.130161
_symmetry_space_group_name_H-M "C 2/C"
_symmetry_group_IT_number 15
_symmetry_cell_setting 'monoclinic'
loop_
_space_group_symop_operation_xyz
x,y,z
-x,y,1/2-z
-x,-y,-z
x,-y,1/2+z
1/2+x,1/2+y,z
1/2-x,1/2+y,1/2-z
1/2-x,1/2-y,-z
1/2+x,1/2-y,1/2+z
loop_
_atom_site_type_symbol
_atom_site_label
_atom_site_fract_x
_atom_site_fract_y
_atom_site_fract_z
Si Si1 0.575386 0.989845 0.494997
Si Si2 0.655162 0.112178 0.641098
Si Si3 0.172388 0.152774 0.761898
Si Si4 0.922601 0.275224 0.839132
Si Si5 0.690516 0.717165 0.317063
Si Si6 0.295857 0.495627 0.535002
O O1 0.622021 0.941447 0.319815
O O2 0.575044 0.900728 0.625764
O O3 0.500000 0.000000 0.500000
O O4 0.606436 0.093405 0.547512
O O5 0.672935 0.234226 0.672625
O O6 0.724753 0.046470 0.550261
O O7 0.119004 0.243304 0.766886
O O8 0.248305 0.204757 0.686033
O O9 0.169390 0.063687 0.635306
O O10 0.163109 0.090068 0.923417
O O11 0.000000 0.235458 0.750000
O O12 0.877879 0.229077 0.018359
O O13 0.715641 0.597456 0.329366
#
# Coordination Sequence:
#
# PCOD9259381 Si02
#       6
#     8   8   8   8   8   8
#     4  11  21  33  52  78 109 141 174 215 267 325
#     4  10  19  33  52  78 106 138 175 216 264 316
#     4  10  20  35  57  80 107 141 179 221 267 316
#     4  10  19  34  54  77 104 141 179 214 263 321
#     4   9  19  34  56  79 107 141 177 220 266 315
#     4  10  18  35  56  78 105 138 177 222 266 313
#
# _framework density 21.866585000000001
#
# number of rings (size 3 to 8) (size 9 to 14) (size 15 to 20)
#    0.000    2.000    0.000    7.500    0.000    0.000 
#    0.000   14.167    0.000    4.000    0.000    0.000 
#    0.000    0.000    0.000    0.000    0.000    0.000 
#
# Total GULP energy -134024.811633 kJ/mol
# GULP energy per Si atom -5584.367151 kJ/mol
# Density = 2.181682 g / cm^3
# Si number density = 21.866585 Si / 1000 Ang^3
#
#
#
# Elastic Constant Matrix: (Units=GPa)
#
#
# Indices 1 2 3 4 5 6 
#
# 1 140.7725 39.9865 40.7734 0.0000 19.4987 0.0000
# 2 39.9865 64.8089 37.9533 0.0000 28.8196 0.0000
# 3 40.7734 37.9533 74.2115 0.0000 11.1553 0.0000
# 4 0.0000 0.0000 0.0000 37.7118 0.0000 21.5164
# 5 19.4987 28.8196 11.1553 0.0000 39.9056 0.0000
# 6 0.0000 0.0000 0.0000 21.5164 0.0000 28.2466
#
#
#
# Elastic Compliance Matrix: (Units=1/GPa)
#
#
# Indices 1 2 3 4 5 6 
#
# 1 0.009107 -0.003202 -0.003178 0.000000 -0.001249 0.000000
# 2 -0.003202 0.032950 -0.012265 0.000000 -0.018803 0.000000
# 3 -0.003178 -0.012265 0.020803 0.000000 0.004596 0.000000
# 4 0.000000 0.000000 0.000000 0.046900 0.000000 -0.035725
# 5 -0.001249 -0.018803 0.004596 0.000000 0.037964 0.000000
# 6 0.000000 0.000000 0.000000 -0.035725 0.000000 0.062615
#
#
# Mechanical properties :
#
#
# Convention : Reuss Voigt Hill
#
# Bulk Modulus (GPa) = 39.11109 57.46880 48.28994
# Shear Modulus (GPa) = 19.51952 31.91145 25.71549
#
# Velocity S-wave (km/s) = 2.99099 3.82432 3.43303
# Velocity P-wave (km/s) = 5.46380 6.77046 6.15192
#
# Compressibility (1/GPa) = 0.02556820
#
# Stress axis : x y z
#
# Youngs Moduli (GPa) = 109.80893 30.34883 48.06986
#
# Poissons Ratio (x) = 0.09719 0.15276
# Poissons Ratio (y) = 0.35166 0.58960
# Poissons Ratio (z) = 0.34897 0.37224
#
# Static dielectric constant tensor:
#      x y z
#    x 1.780210 0.000000 0.028160 
#    y 0.000000 1.861800 0.000000 
#    z 0.028160 0.000000 1.854600 
# 
# From -- ./inp_files/55204.got.cif
#   From: 2010.05.17/outbox.cif.g08.bks.cpg/sg15_28_cif.got.tgz:55204.got - 2010.06.03 18:47:42.
