data_PCOD9259339
_publ_section_title
;
Structure prediction by ZEFSAII (Michael W. Deem and Ramdas Pophale) SiO2 
 PCOD9259339
Probable space group: C 2/C
;
_chemical_formula_sum "Si O2"
_cell_formula_units_Z 44
_cell_length_a 21.128003
_cell_length_b 10.287050
_cell_length_c 11.315118
_cell_angle_alpha 90.000000
_cell_angle_beta 56.487634
_cell_angle_gamma 90.000000
_cell_volume 2050.467656
_symmetry_space_group_name_H-M "C 2/C"
_symmetry_group_IT_number 15
_symmetry_cell_setting 'monoclinic'
loop_
_space_group_symop_operation_xyz
x,y,z
-x,y,1/2-z
-x,-y,-z
x,-y,1/2+z
1/2+x,1/2+y,z
1/2-x,1/2+y,1/2-z
1/2-x,1/2-y,-z
1/2+x,1/2-y,1/2+z
loop_
_atom_site_type_symbol
_atom_site_label
_atom_site_fract_x
_atom_site_fract_y
_atom_site_fract_z
Si Si1 0.174163 0.197828 0.466644
Si Si2 0.608395 0.443823 0.824381
Si Si3 0.162477 0.774916 0.243713
Si Si4 0.265033 0.572796 0.504290
Si Si5 0.500000 0.330045 0.750000
Si Si6 0.355659 0.189322 0.003094
O O1 0.115048 0.155562 0.426777
O O2 0.141387 0.241311 0.627285
O O3 0.245081 0.288042 0.356098
O O4 0.215165 0.059752 0.451753
O O5 0.618986 0.596876 0.837096
O O6 0.681348 0.417924 0.666195
O O7 0.536168 0.416625 0.816753
O O8 0.142704 0.663868 0.358998
O O9 0.293235 0.693991 0.552844
O O10 0.179845 0.581463 0.545313
O O11 0.566260 0.242380 0.627707
#
# Coordination Sequence:
#
# PCOD9259339 Si02
#       6
#     8   8   8   8   4   8
#     4  10  19  34  57  90 109 139 188 243 273 324
#     4  10  19  36  53  84 113 148 180 233 273 337
#     4  10  20  33  56  84 114 140 188 227 289 320
#     4   9  18  32  57  78 106 141 191 231 276 310
#     4  10  24  34  54  82 120 154 184 218 280 334
#     4  10  18  35  53  80 108 149 185 226 269 337
#
# _framework density 21.458518999999999
#
# number of rings (size 3 to 8) (size 9 to 14) (size 15 to 20)
#    0.000    2.182    3.636    0.000    0.000    0.727 
#    0.000    0.000    0.000    2.182    0.000    0.000 
#    0.000    0.000    0.000    0.000    0.000    0.000 
#
# Total GULP energy -122665.209537 kJ/mol
# GULP energy per Si atom -5575.691343 kJ/mol
# Density = 2.140968 g / cm^3
# Si number density = 21.458519 Si / 1000 Ang^3
#
#
#
# Elastic Constant Matrix: (Units=GPa)
#
#
# Indices 1 2 3 4 5 6 
#
# 1 143.2641 22.0756 33.2213 0.0000 18.3946 0.0000
# 2 22.0756 30.1256 -3.3589 0.0000 -2.1203 0.0000
# 3 33.2213 -3.3589 73.8253 0.0000 12.4959 0.0000
# 4 0.0000 0.0000 0.0000 18.9761 0.0000 7.9014
# 5 18.3946 -2.1203 12.4959 0.0000 36.7146 0.0000
# 6 0.0000 0.0000 0.0000 7.9014 0.0000 24.2293
#
#
#
# Elastic Compliance Matrix: (Units=1/GPa)
#
#
# Indices 1 2 3 4 5 6 
#
# 1 0.009608 -0.007763 -0.004018 0.000000 -0.003895 0.000000
# 2 -0.007763 0.039713 0.004514 0.000000 0.004646 0.000000
# 3 -0.004018 0.004514 0.016101 0.000000 -0.003207 0.000000
# 4 0.000000 0.000000 0.000000 0.060978 0.000000 -0.019886
# 5 -0.003895 0.004646 -0.003207 0.000000 0.030548 0.000000
# 6 0.000000 0.000000 0.000000 -0.019886 0.000000 0.047757
#
#
# Mechanical properties :
#
#
# Convention : Reuss Voigt Hill
#
# Bulk Modulus (GPa) = 19.65052 39.01011 29.33032
# Shear Modulus (GPa) = 21.16831 29.00246 25.08539
#
# Velocity S-wave (km/s) = 3.14423 3.68034 3.42280
# Velocity P-wave (km/s) = 4.72852 6.02318 5.41468
#
# Compressibility (1/GPa) = 0.05088923
#
# Stress axis : x y z
#
# Youngs Moduli (GPa) = 104.08055 25.18070 62.10605
#
# Poissons Ratio (x) = 0.19547 0.24951
# Poissons Ratio (y) = 0.80794 -0.28032
# Poissons Ratio (z) = 0.41815 -0.11365
#
# Static dielectric constant tensor:
#      x y z
#    x 1.833250 0.000000 0.068790 
#    y 0.000000 1.867670 0.000000 
#    z 0.068790 0.000000 1.807540 
# 
# From -- ./inp_files/104092.got.cif
#   From: 2010.05.17/outbox.cif.g08.bks.cpg/sg15_53_cif.got.tgz:104092.got - 2010.06.03 18:47:42.
