data_PCOD9259539
_publ_section_title
;
Structure prediction by ZEFSAII (Michael W. Deem and Ramdas Pophale) SiO2 
 PCOD9259539
Probable space group: C 2/C
;
_chemical_formula_sum "Si O2"
_cell_formula_units_Z 60
_cell_length_a 15.796184
_cell_length_b 8.443720
_cell_length_c 19.573137
_cell_angle_alpha 90.000000
_cell_angle_beta 67.326946
_cell_angle_gamma 90.000000
_cell_volume 2408.885355
_symmetry_space_group_name_H-M "C 2/C"
_symmetry_group_IT_number 15
_symmetry_cell_setting 'monoclinic'
loop_
_space_group_symop_operation_xyz
x,y,z
-x,y,1/2-z
-x,-y,-z
x,-y,1/2+z
1/2+x,1/2+y,z
1/2-x,1/2+y,1/2-z
1/2-x,1/2-y,-z
1/2+x,1/2-y,1/2+z
loop_
_atom_site_type_symbol
_atom_site_label
_atom_site_fract_x
_atom_site_fract_y
_atom_site_fract_z
Si Si1 0.151048 0.498672 0.281708
Si Si2 0.000000 0.957869 0.750000
Si Si3 0.584211 0.704273 0.104984
Si Si4 0.754808 0.236870 0.341576
Si Si5 0.868444 0.243001 0.815196
Si Si6 0.151256 0.701599 0.902724
Si Si7 0.646738 0.468193 0.457734
Si Si8 0.147169 0.449644 0.552837
O O1 0.192749 0.374923 0.215213
O O2 0.227073 0.601247 0.298282
O O3 0.100992 0.628245 0.250812
O O4 0.105926 0.399947 0.356835
O O5 0.005924 0.845703 0.682467
O O6 0.084168 0.078891 0.717341
O O7 0.679512 0.679932 0.118231
O O8 0.594123 0.886014 0.079278
O O9 0.587838 0.589171 0.039439
O O10 0.665918 0.320071 0.402212
O O11 0.758073 0.224111 0.848012
O O12 0.888352 0.314510 0.884024
O O13 0.114103 0.877111 0.928015
O O14 0.146065 0.609800 0.975907
O O15 0.747474 0.516270 0.456744
#
# Coordination Sequence:
#
# PCOD9259539 Si02
#       8
#     8   4   8   8   8   8   8   8
#     4  12  20  35  58  97 128 152 190 255 330 358
#     4  12  26  40  58  84 124 174 208 248 282 374
#     4  11  22  38  60  91 121 163 207 250 301 362
#     4  11  20  35  59  94 125 152 193 259 321 362
#     4  11  22  39  59  91 127 161 206 243 306 367
#     4  11  20  36  65  97 125 153 194 263 321 360
#     4  10  18  35  59  95 123 153 197 256 312 358
#     4  10  19  36  61  91 121 154 205 260 305 352
#
# _framework density 24.907786000000002
#
# number of rings (size 3 to 8) (size 9 to 14) (size 15 to 20)
#    0.000    1.067    5.333    7.200    0.000    0.533 
#    0.000    0.000    0.000    6.400    3.467    0.000 
#    0.000    0.000    0.000    0.000    0.000    0.000 
#
# Total GULP energy -168102.146774 kJ/mol
# GULP energy per Si atom -5603.404892 kJ/mol
# Density = 2.485109 g / cm^3
# Si number density = 24.907786 Si / 1000 Ang^3
#
#
#
# Elastic Constant Matrix: (Units=GPa)
#
#
# Indices 1 2 3 4 5 6 
#
# 1 69.8065 34.4842 41.7645 0.0000 -5.4835 0.0000
# 2 34.4842 144.7413 62.1544 0.0000 -1.2554 0.0000
# 3 41.7645 62.1544 158.6061 0.0000 13.3954 0.0000
# 4 0.0000 0.0000 0.0000 47.8367 0.0000 17.4433
# 5 -5.4835 -1.2554 13.3954 0.0000 30.6492 0.0000
# 6 0.0000 0.0000 0.0000 17.4433 0.0000 18.4689
#
#
#
# Elastic Compliance Matrix: (Units=1/GPa)
#
#
# Indices 1 2 3 4 5 6 
#
# 1 0.018563 -0.002517 -0.004333 0.000000 0.005112 0.000000
# 2 -0.002517 0.008748 -0.002863 0.000000 0.001159 0.000000
# 3 -0.004333 -0.002863 0.008975 0.000000 -0.004815 0.000000
# 4 0.000000 0.000000 0.000000 0.031886 0.000000 -0.030115
# 5 0.005112 0.001159 -0.004815 0.000000 0.035694 0.000000
# 6 0.000000 0.000000 0.000000 -0.030115 0.000000 0.082588
#
#
# Mechanical properties :
#
#
# Convention : Reuss Voigt Hill
#
# Bulk Modulus (GPa) = 59.31909 72.21780 65.76845
# Shear Modulus (GPa) = 23.64066 35.04104 29.34085
#
# Velocity S-wave (km/s) = 3.08413 3.75484 3.43589
# Velocity P-wave (km/s) = 6.04563 6.91777 6.49635
#
# Compressibility (1/GPa) = 0.01685798
#
# Stress axis : x y z
#
# Youngs Moduli (GPa) = 53.87052 114.30863 111.42463
#
# Poissons Ratio (x) = 0.28777 0.48283
# Poissons Ratio (y) = 0.13562 0.31904
# Poissons Ratio (z) = 0.23343 0.32729
#
# Static dielectric constant tensor:
#      x y z
#    x 2.026690 0.000000 -0.042560 
#    y 0.000000 1.951480 0.000000 
#    z -0.042560 0.000000 1.932650 
# 
# From -- ./inp_files/252106.got.cif
#   From: 2010.05.17/outbox.cif.g08.bks.cpg/sg15_127_cif.got.tgz:252106.got - 2010.06.03 18:47:42.
