data_PCOD9259491
_publ_section_title
;
Structure prediction by ZEFSAII (Michael W. Deem and Ramdas Pophale) SiO2 
 PCOD9259491
Probable space group: C 2/C
;
_chemical_formula_sum "Si O2"
_cell_formula_units_Z 52
_cell_length_a 28.827243
_cell_length_b 16.193614
_cell_length_c 13.893460
_cell_angle_alpha 90.000000
_cell_angle_beta 20.269585
_cell_angle_gamma 90.000000
_cell_volume 2246.893531
_symmetry_space_group_name_H-M "C 2/C"
_symmetry_group_IT_number 15
_symmetry_cell_setting 'monoclinic'
loop_
_space_group_symop_operation_xyz
x,y,z
-x,y,1/2-z
-x,-y,-z
x,-y,1/2+z
1/2+x,1/2+y,z
1/2-x,1/2+y,1/2-z
1/2-x,1/2-y,-z
1/2+x,1/2-y,1/2+z
loop_
_atom_site_type_symbol
_atom_site_label
_atom_site_fract_x
_atom_site_fract_y
_atom_site_fract_z
Si Si1 0.500000 0.977753 0.250000
Si Si2 0.380462 0.868033 0.310425
Si Si3 0.565430 0.270826 0.514565
Si Si4 0.502652 0.550038 0.359550
Si Si5 0.692749 0.019553 0.716458
Si Si6 0.810486 0.844818 0.529403
Si Si7 0.401129 0.373301 0.572323
O O1 0.389498 0.028249 0.524358
O O2 0.426069 0.919543 0.316340
O O3 0.473830 0.788412 0.127867
O O4 0.387666 0.932945 0.209509
O O5 0.226225 0.841315 0.622651
O O6 0.500000 0.269046 0.750000
O O7 0.567742 0.365147 0.477560
O O8 0.712309 0.231888 0.228259
O O9 0.500000 0.538376 0.250000
O O10 0.433505 0.468571 0.536157
O O11 0.659928 0.558032 0.071944
O O12 0.728297 0.921285 0.641893
O O13 0.851971 0.871464 0.556886
O O14 0.954847 0.829795 0.200499
#
# Coordination Sequence:
#
# PCOD9259491 Si02
#       7
#     4   8   8   8   8   8   8
#     4  12  20  38  60 100 124 158 208 274 298 362
#     4  12  21  36  67  94 119 166 212 260 305 366
#     4  11  20  35  61  89 126 167 206 247 322 372
#     4  10  20  37  60  87 125 174 200 248 322 374
#     4  11  22  36  64  94 124 160 216 255 307 370
#     4  10  18  35  58  89 118 163 202 259 296 368
#     4  10  18  37  62  85 123 156 212 261 296 363
#
# _framework density 23.143065
#
# number of rings (size 3 to 8) (size 9 to 14) (size 15 to 20)
#    0.000    1.231    8.462    0.462    0.000    3.077 
#    0.000    0.000   10.154    5.538    4.000    0.000 
#    0.000    0.000    0.000    0.000    0.000    0.000 
#
# Total GULP energy -145415.925934 kJ/mol
# GULP energy per Si atom -5592.920228 kJ/mol
# Density = 2.309039 g / cm^3
# Si number density = 23.143065 Si / 1000 Ang^3
#
#
#
# Elastic Constant Matrix: (Units=GPa)
#
#
# Indices 1 2 3 4 5 6 
#
# 1 74.7131 10.8496 26.8896 0.0000 4.1587 0.0000
# 2 10.8496 98.2924 73.0796 0.0000 -16.1622 0.0000
# 3 26.8896 73.0796 144.7373 0.0000 -22.1342 0.0000
# 4 0.0000 0.0000 0.0000 34.5593 0.0000 -2.4376
# 5 4.1587 -16.1622 -22.1342 0.0000 25.9505 0.0000
# 6 0.0000 0.0000 0.0000 -2.4376 0.0000 -11.4068
#
#
#
# Elastic Compliance Matrix: (Units=1/GPa)
#
#
# Indices 1 2 3 4 5 6 
#
# 1 0.014999 0.000224 -0.003733 0.000000 -0.005448 0.000000
# 2 0.000224 0.016589 -0.007870 0.000000 0.003584 0.000000
# 3 -0.003733 -0.007870 0.012556 0.000000 0.006406 0.000000
# 4 0.000000 0.000000 0.000000 0.028506 0.000000 -0.006092
# 5 -0.005448 0.003584 0.006406 0.000000 0.047104 0.000000
# 6 0.000000 0.000000 0.000000 -0.006092 0.000000 -0.086365
#
#
# Mechanical properties :
#
#
# Convention : Reuss Voigt Hill
#
# Bulk Modulus (GPa) = 46.75806 59.93117 53.34461
# Shear Modulus (GPa) = 79.02100 23.61554 51.31827
#
# Velocity S-wave (km/s) = 5.84967 3.19786 4.71407
# Velocity P-wave (km/s) = 8.11620 6.29184 7.26154
#
# Compressibility (1/GPa) = 0.02138669
#
# Stress axis : x y z
#
# Youngs Moduli (GPa) = 66.67262 60.27966 79.64528
#
# Poissons Ratio (x) = -0.01349 0.29729
# Poissons Ratio (y) = -0.01492 0.62678
# Poissons Ratio (z) = 0.24886 0.47438
#
# Static dielectric constant tensor:
#      x y z
#    x 1.943320 0.000000 0.011710 
#    y 0.000000 1.844490 0.000000 
#    z 0.011710 0.000000 1.870950 
# 
# From -- ./inp_files/182815.got.cif
#   From: 2010.05.17/outbox.cif.g08.bks.cpg/sg15_92_cif.got.tgz:182815.got - 2010.06.03 18:47:42.
