data_PCOD9259975
_publ_section_title
;
Structure prediction by ZEFSAII (Michael W. Deem and Ramdas Pophale) SiO2 
 PCOD9259975
Probable space group: C 2/C
;
_chemical_formula_sum "Si O2"
_cell_formula_units_Z 64
_cell_length_a 19.848819
_cell_length_b 9.785468
_cell_length_c 21.301117
_cell_angle_alpha 90.000000
_cell_angle_beta 60.404512
_cell_angle_gamma 90.000000
_cell_volume 3597.535853
_symmetry_space_group_name_H-M "C 2/C"
_symmetry_group_IT_number 15
_symmetry_cell_setting 'monoclinic'
loop_
_space_group_symop_operation_xyz
x,y,z
-x,y,1/2-z
-x,-y,-z
x,-y,1/2+z
1/2+x,1/2+y,z
1/2-x,1/2+y,1/2-z
1/2-x,1/2-y,-z
1/2+x,1/2-y,1/2+z
loop_
_atom_site_type_symbol
_atom_site_label
_atom_site_fract_x
_atom_site_fract_y
_atom_site_fract_z
Si Si1 0.186302 0.097761 0.157573
Si Si2 0.707910 0.963883 0.638147
Si Si3 0.924319 0.342037 0.531022
Si Si4 0.079036 0.666486 0.748153
Si Si5 0.765946 0.183765 0.813561
Si Si6 0.916032 0.625988 0.606025
Si Si7 0.282599 0.900092 0.501418
Si Si8 0.307578 0.680127 0.650756
O O1 0.195406 0.963648 0.194222
O O2 0.111213 0.187953 0.207102
O O3 0.212777 0.044794 0.077136
O O4 0.252711 0.209611 0.141232
O O5 0.637852 0.047080 0.701645
O O6 0.709163 0.009805 0.564972
O O7 0.781031 0.030491 0.641383
O O8 0.705029 0.804351 0.654644
O O9 0.921444 0.467360 0.582006
O O10 0.864583 0.384299 0.501460
O O11 0.890906 0.214205 0.584721
O O12 0.010313 0.314821 0.465693
O O13 0.071812 0.659370 0.826366
O O14 0.000000 0.638722 0.750000
O O15 0.672916 0.170140 0.865771
O O16 0.789192 0.213736 0.731098
O O17 0.250000 0.750000 0.500000
#
# Coordination Sequence:
#
# PCOD9259975 Si02
#       8
#     8   8   8   8   8   8   8   8
#     4  10  21  36  60  86 115 154 196 245 290 348
#     4  11  22  33  62  90 115 159 200 246 292 359
#     4  10  21  37  59  89 121 159 193 254 303 338
#     4  11  22  38  62  90 112 158 207 246 291 358
#     4  12  21  38  60  92 120 153 200 243 306 358
#     4  11  21  35  60  89 124 150 197 251 303 352
#     4  11  18  37  60  83 116 153 204 243 287 353
#     4  10  18  36  60  82 116 154 201 237 282 354
#
# _framework density 17.789956
#
# number of rings (size 3 to 8) (size 9 to 14) (size 15 to 20)
#    0.000    1.250    8.750    2.250    0.000    0.500 
#    0.000    1.250    2.750    0.000    0.000    0.000 
#    0.000    0.000    0.000    0.000    0.000    0.000 
#
# Total GULP energy -178150.385312 kJ/mol
# GULP energy per Si atom -5567.199541 kJ/mol
# Density = 1.774946 g / cm^3
# Si number density = 17.789956 Si / 1000 Ang^3
#
#
#
# Elastic Constant Matrix: (Units=GPa)
#
#
# Indices 1 2 3 4 5 6 
#
# 1 45.7615 13.3810 20.4350 0.0000 -19.6041 0.0000
# 2 13.3810 47.8529 5.1816 0.0000 -5.7238 0.0001
# 3 20.4350 5.1816 112.5335 0.0000 -12.6749 0.0000
# 4 0.0000 0.0000 0.0000 8.1960 0.0000 2.2461
# 5 -19.6041 -5.7238 -12.6749 0.0000 28.2358 0.0000
# 6 0.0000 0.0001 0.0000 2.2461 0.0000 13.0011
#
#
#
# Elastic Compliance Matrix: (Units=1/GPa)
#
#
# Indices 1 2 3 4 5 6 
#
# 1 0.034366 -0.006723 -0.003578 0.000000 0.020891 0.000000
# 2 -0.006723 0.022761 0.000176 0.000000 0.000025 0.000000
# 3 -0.003578 0.000176 0.009745 0.000000 0.001926 0.000000
# 4 0.000000 0.000000 0.000000 0.128075 0.000000 -0.022127
# 5 0.020891 0.000025 0.001926 0.000000 0.050790 0.000000
# 6 0.000000 0.000000 0.000000 -0.022127 0.000000 0.080739
#
#
# Mechanical properties :
#
#
# Convention : Reuss Voigt Hill
#
# Bulk Modulus (GPa) = 21.44972 31.57147 26.51059
# Shear Modulus (GPa) = 13.80194 21.02993 17.41593
#
# Velocity S-wave (km/s) = 2.78839 3.44193 3.13225
# Velocity P-wave (km/s) = 4.73817 5.79493 5.29299
#
# Compressibility (1/GPa) = 0.04662065
#
# Stress axis : x y z
#
# Youngs Moduli (GPa) = 29.09870 43.93410 102.61899
#
# Poissons Ratio (x) = 0.29539 0.36716
# Poissons Ratio (y) = 0.19564 -0.01803
# Poissons Ratio (z) = 0.10411 -0.00772
#
# Static dielectric constant tensor:
#      x y z
#    x 1.679370 0.000000 0.071480 
#    y 0.000000 1.648690 0.000000 
#    z 0.071480 0.000000 1.794730 
# 
# From -- ./inp_files/251865.got.cif
#   From: 2010.05.17/outbox.cif.g08.bks.cpg/sg15_126_cif.got.tgz:251865.got - 2010.06.03 18:47:42.
