data_PCOD9259468
_publ_section_title
;
Structure prediction by ZEFSAII (Michael W. Deem and Ramdas Pophale) SiO2 
 PCOD9259468
Probable space group: C 2/C
;
_chemical_formula_sum "Si O2"
_cell_formula_units_Z 56
_cell_length_a 17.229385
_cell_length_b 27.151267
_cell_length_c 5.986567
_cell_angle_alpha 90.000000
_cell_angle_beta 81.786777
_cell_angle_gamma 90.000000
_cell_volume 2771.789778
_symmetry_space_group_name_H-M "C 2/C"
_symmetry_group_IT_number 15
_symmetry_cell_setting 'monoclinic'
loop_
_space_group_symop_operation_xyz
x,y,z
-x,y,1/2-z
-x,-y,-z
x,-y,1/2+z
1/2+x,1/2+y,z
1/2-x,1/2+y,1/2-z
1/2-x,1/2-y,-z
1/2+x,1/2-y,1/2+z
loop_
_atom_site_type_symbol
_atom_site_label
_atom_site_fract_x
_atom_site_fract_y
_atom_site_fract_z
Si Si1 0.000000 0.974842 0.250000
Si Si2 0.712700 0.670800 0.874517
Si Si3 0.860333 0.329506 0.020752
Si Si4 0.923552 0.246634 0.661235
Si Si5 0.670449 0.429482 0.143873
Si Si6 0.737489 0.111652 0.265961
Si Si7 0.500000 0.186686 0.750000
Si Si8 0.812837 0.508692 0.077524
O O1 0.082622 0.946530 0.216062
O O2 0.000000 0.000000 0.500000
O O3 0.786906 0.687573 0.699068
O O4 0.640808 0.707287 0.881452
O O5 0.688852 0.616383 0.797632
O O6 0.743125 0.661093 0.110280
O O7 0.888066 0.285525 0.850980
O O8 0.827812 0.374660 0.889851
O O9 0.934432 0.343288 0.142946
O O10 0.953707 0.278257 0.439901
O O11 0.000000 0.223533 0.750000
O O12 0.734194 0.474104 0.129721
O O13 0.685440 0.407333 0.891759
O O14 0.707311 0.066507 0.423966
O O15 0.849161 0.502967 0.315857
#
# Coordination Sequence:
#
# PCOD9259468 Si02
#       8
#     4   8   8   8   8   8   4   8
#     4  12  26  40  61  86 126 188 232 279 336 380
#     4  11  22  39  62  92 125 167 221 268 322 389
#     4  10  22  40  64  92 121 164 213 270 331 402
#     4  10  23  41  61  87 128 170 212 266 330 393
#     4  10  23  38  56  85 126 170 222 271 319 381
#     4  10  21  36  61  91 121 161 217 271 323 386
#     4  10  22  42  63  88 126 162 204 265 344 402
#     4  10  18  35  58  83 124 164 206 264 315 373
#
# _framework density 20.203554
#
# number of rings (size 3 to 8) (size 9 to 14) (size 15 to 20)
#    0.000    1.714    1.429    3.000    3.000    6.857 
#    0.000    0.000    0.000    0.000    0.000    9.000 
#    2.143    0.714    0.000    0.000    0.000    0.000 
#
# Total GULP energy -156105.876905 kJ/mol
# GULP energy per Si atom -5575.209889 kJ/mol
# Density = 2.015757 g / cm^3
# Si number density = 20.203554 Si / 1000 Ang^3
#
#
#
# Elastic Constant Matrix: (Units=GPa)
#
#
# Indices 1 2 3 4 5 6 
#
# 1 101.7891 40.1615 47.7792 0.0000 -2.4864 0.0000
# 2 40.1615 47.8112 25.3239 0.0000 -2.5222 0.0000
# 3 47.7792 25.3239 127.6010 0.0000 2.2714 0.0000
# 4 0.0000 0.0000 0.0000 -3.3488 0.0000 0.8291
# 5 -2.4864 -2.5222 2.2714 0.0000 17.1545 0.0000
# 6 0.0000 0.0000 0.0000 0.8291 0.0000 17.3352
#
#
#
# Elastic Compliance Matrix: (Units=1/GPa)
#
#
# Indices 1 2 3 4 5 6 
#
# 1 0.016178 -0.011520 -0.003792 0.000000 0.001153 0.000000
# 2 -0.011520 0.031861 -0.002068 0.000000 0.003289 0.000000
# 3 -0.003792 -0.002068 0.009705 0.000000 -0.002139 0.000000
# 4 0.000000 0.000000 0.000000 -0.295120 0.000000 0.014115
# 5 0.001153 0.003289 -0.002139 0.000000 0.059227 0.000000
# 6 0.000000 0.000000 0.000000 0.014115 0.000000 0.057011
#
#
# Mechanical properties :
#
#
# Convention : Reuss Voigt Hill
#
# Bulk Modulus (GPa) = 43.50820 55.97005 49.73913
# Shear Modulus (GPa) = -63.51928 17.15730 -23.18099
#
# Velocity S-wave (km/s) = -5.61319 2.91730 -3.39096
# Velocity P-wave (km/s) = 4.51983 6.25386 3.05630
#
# Compressibility (1/GPa) = 0.02298417
#
# Stress axis : x y z
#
# Youngs Moduli (GPa) = 61.81419 31.38601 103.03675
#
# Poissons Ratio (x) = 0.36156 0.39070
# Poissons Ratio (y) = 0.71210 0.21310
# Poissons Ratio (z) = 0.23439 0.06491
#
# Static dielectric constant tensor:
#      x y z
#    x 1.703170 0.000000 0.042290 
#    y 0.000000 1.690630 0.000000 
#    z 0.042290 0.000000 1.826680 
# 
# From -- ./inp_files/9088.got.cif
#   From: 2010.05.17/outbox.cif.g08.bks.cpg/sg15_5_cif.got.tgz:9088.got - 2010.06.03 18:47:42.
