data_PCOD9259494
_publ_section_title
;
Structure prediction by ZEFSAII (Michael W. Deem and Ramdas Pophale) SiO2 
 PCOD9259494
Probable space group: C 2/C
;
_chemical_formula_sum "Si O2"
_cell_formula_units_Z 48
_cell_length_a 16.353639
_cell_length_b 12.637510
_cell_length_c 22.625795
_cell_angle_alpha 90.000000
_cell_angle_beta 152.988104
_cell_angle_gamma 90.000000
_cell_volume 2123.750309
_symmetry_space_group_name_H-M "C 2/C"
_symmetry_group_IT_number 15
_symmetry_cell_setting 'monoclinic'
loop_
_space_group_symop_operation_xyz
x,y,z
-x,y,1/2-z
-x,-y,-z
x,-y,1/2+z
1/2+x,1/2+y,z
1/2-x,1/2+y,1/2-z
1/2-x,1/2-y,-z
1/2+x,1/2-y,1/2+z
loop_
_atom_site_type_symbol
_atom_site_label
_atom_site_fract_x
_atom_site_fract_y
_atom_site_fract_z
Si Si1 0.760709 0.112556 0.862813
Si Si2 0.290473 0.736749 0.596688
Si Si3 0.221604 0.871881 0.996068
Si Si4 0.278099 0.498152 0.115111
Si Si5 0.801548 0.842037 0.730193
Si Si6 0.194217 0.113553 0.139417
O O1 0.700843 0.225061 0.798997
O O2 0.722901 0.003807 0.805226
O O3 0.695969 0.101736 0.888158
O O4 0.978209 0.114324 0.004506
O O5 0.500000 0.733588 0.750000
O O6 0.250000 0.750000 0.500000
O O7 0.218206 0.623473 0.573775
O O8 0.223362 0.831485 0.595013
O O9 0.290282 0.942786 0.987290
O O10 0.006994 0.882638 0.863987
O O11 0.250000 0.750000 0.000000
O O12 0.500000 0.499348 0.250000
O O13 0.218970 0.569705 0.132931
O O14 0.734782 0.832319 0.754687
#
# Coordination Sequence:
#
# PCOD9259494 Si02
#       6
#     8   8   8   8   8   8
#     4  10  21  40  61  82 123 160 201 253 313 369
#     4  11  25  45  67  94 127 170 215 264 318 381
#     4  10  18  35  58  91 118 152 201 253 307 370
#     4   9  19  37  63  85 122 163 204 247 318 379
#     4  10  21  36  60  91 114 165 202 253 316 371
#     4  10  24  40  62  86 119 167 210 253 313 383
#
# _framework density 22.601527999999998
#
# number of rings (size 3 to 8) (size 9 to 14) (size 15 to 20)
#    0.000    2.000    1.667    1.000    4.667    2.667 
#    6.000    0.833    0.000    0.000    0.000    0.000 
#    0.000    0.000    0.000    0.000    0.000    0.000 
#
# Total GULP energy -133885.849409 kJ/mol
# GULP energy per Si atom -5578.577059 kJ/mol
# Density = 2.255009 g / cm^3
# Si number density = 22.601528 Si / 1000 Ang^3
#
#
#
# Elastic Constant Matrix: (Units=GPa)
#
#
# Indices 1 2 3 4 5 6 
#
# 1 85.4502 31.4869 47.4089 -0.0022 -44.5097 -0.0028
# 2 31.4869 119.2932 30.7748 0.0012 -31.9080 0.0012
# 3 47.4089 30.7748 87.1911 0.0020 -25.2276 0.0002
# 4 -0.0022 0.0012 0.0020 24.9855 0.0000 -2.2641
# 5 -44.5097 -31.9080 -25.2276 0.0000 43.1665 -0.0018
# 6 -0.0028 0.0012 0.0002 -2.2641 -0.0018 21.5599
#
#
#
# Elastic Compliance Matrix: (Units=1/GPa)
#
#
# Indices 1 2 3 4 5 6 
#
# 1 0.030331 0.001617 -0.009228 0.000004 0.027077 0.000007
# 2 0.001617 0.010761 -0.002279 0.000000 0.008290 0.000000
# 3 -0.009228 -0.002279 0.016910 -0.000002 -0.001318 -0.000002
# 4 0.000004 0.000000 -0.000002 0.040408 0.000003 0.004243
# 5 0.027077 0.008290 -0.001318 0.000003 0.056443 0.000008
# 6 0.000007 0.000000 -0.000002 0.004243 0.000008 0.046828
#
#
# Mechanical properties :
#
#
# Convention : Reuss Voigt Hill
#
# Bulk Modulus (GPa) = 26.16311 56.80841 41.48576
# Shear Modulus (GPa) = 21.34913 30.09330 25.72121
#
# Velocity S-wave (km/s) = 3.07675 3.65289 3.37713
# Velocity P-wave (km/s) = 4.92167 6.55598 5.79671
#
# Compressibility (1/GPa) = 0.03822175
#
# Stress axis : x y z
#
# Youngs Moduli (GPa) = 32.97004 92.92660 59.13634
#
# Poissons Ratio (x) = -0.15030 0.54574
# Poissons Ratio (y) = -0.05333 0.13477
# Poissons Ratio (z) = 0.30426 0.21178
#
# Static dielectric constant tensor:
#      x y z
#    x 1.893870 0.000000 0.053360 
#    y 0.000000 1.838410 0.000000 
#    z 0.053360 0.000000 1.928240 
# 
# From -- ./inp_files/103651.got.cif
#   From: 2010.05.17/outbox.cif.g08.bks.cpg/sg15_52_cif.got.tgz:103651.got - 2010.06.03 18:47:42.
