data_PCOD9259123
_publ_section_title
;
Structure prediction by ZEFSAII (Michael W. Deem and Ramdas Pophale) SiO2 
 PCOD9259123
Probable space group: C 2/C
;
_chemical_formula_sum "Si O2"
_cell_formula_units_Z 36
_cell_length_a 6.286029
_cell_length_b 26.004533
_cell_length_c 10.772831
_cell_angle_alpha 90.000000
_cell_angle_beta 106.177362
_cell_angle_gamma 90.000000
_cell_volume 1691.255317
_symmetry_space_group_name_H-M "C 2/C"
_symmetry_group_IT_number 15
_symmetry_cell_setting 'monoclinic'
loop_
_space_group_symop_operation_xyz
x,y,z
-x,y,1/2-z
-x,-y,-z
x,-y,1/2+z
1/2+x,1/2+y,z
1/2-x,1/2+y,1/2-z
1/2-x,1/2-y,-z
1/2+x,1/2-y,1/2+z
loop_
_atom_site_type_symbol
_atom_site_label
_atom_site_fract_x
_atom_site_fract_y
_atom_site_fract_z
Si Si1 0.303385 0.978081 0.120203
Si Si2 0.010540 0.748489 0.898248
Si Si3 0.000000 0.025209 0.250000
Si Si4 0.432624 0.924713 0.915428
Si Si5 0.362097 0.815165 0.607385
O O1 0.500000 0.969688 0.250000
O O2 0.069681 0.988522 0.147537
O O3 0.383218 0.030471 0.064962
O O4 0.322611 0.929988 0.032419
O O5 0.888904 0.803742 0.892708
O O6 0.000000 0.734493 0.750000
O O7 0.887283 0.710523 0.975027
O O8 0.250000 0.750000 0.000000
O O9 0.220040 0.059210 0.299021
O O10 0.543818 0.871986 0.896230
O O11 0.500000 0.793006 0.750000
#
# Coordination Sequence:
#
# PCOD9259123 Si02
#       5
#     8   8   4   8   8
#     4   9  19  36  57  85 133 171 213 272 328 394
#     4  11  24  45  69  97 134 172 216 287 346 400
#     4  10  18  34  60  86 128 176 218 268 340 384
#     4  10  21  36  58  93 126 170 220 274 329 404
#     4  11  23  40  68  97 128 173 228 275 342 414
#
# _framework density 21.285962000000001
#
# number of rings (size 3 to 8) (size 9 to 14) (size 15 to 20)
#    0.000    1.778    2.222    2.667    0.000    4.444 
#    2.000    0.000    0.000    5.333    0.000    0.000 
#    0.000    0.000    0.000    0.000    0.000    0.000 
#
# Total GULP energy -100233.136036 kJ/mol
# GULP energy per Si atom -5568.507558 kJ/mol
# Density = 2.123751 g / cm^3
# Si number density = 21.285962 Si / 1000 Ang^3
#
#
#
# Elastic Constant Matrix: (Units=GPa)
#
#
# Indices 1 2 3 4 5 6 
#
# 1 125.9219 38.4909 45.8032 0.0000 1.5284 0.0000
# 2 38.4909 51.6799 48.2477 0.0000 -10.4714 0.0000
# 3 45.8032 48.2477 151.7573 0.0000 -17.4894 0.0000
# 4 0.0000 0.0000 0.0000 19.6804 0.0000 -8.1618
# 5 1.5284 -10.4714 -17.4894 0.0000 48.3680 0.0000
# 6 0.0000 0.0000 0.0000 -8.1618 0.0000 41.6185
#
#
#
# Elastic Compliance Matrix: (Units=1/GPa)
#
#
# Indices 1 2 3 4 5 6 
#
# 1 0.010623 -0.007310 -0.001151 0.000000 -0.002335 0.000000
# 2 -0.007310 0.032948 -0.007743 0.000000 0.004564 0.000000
# 3 -0.001151 -0.007743 0.009610 0.000000 0.001835 0.000000
# 4 0.000000 0.000000 0.000000 0.055310 0.000000 0.010847
# 5 -0.002335 0.004564 0.001835 0.000000 0.022400 0.000000
# 6 0.000000 0.000000 0.000000 0.010847 0.000000 0.026155
#
#
# Mechanical properties :
#
#
# Convention : Reuss Voigt Hill
#
# Bulk Modulus (GPa) = 48.14002 66.04917 57.09460
# Shear Modulus (GPa) = 25.46101 35.05455 30.25778
#
# Velocity S-wave (km/s) = 3.46228 4.06253 3.77436
# Velocity P-wave (km/s) = 6.21676 7.28713 6.77313
#
# Compressibility (1/GPa) = 0.02077274
#
# Stress axis : x y z
#
# Youngs Moduli (GPa) = 94.13480 30.35102 104.05891
#
# Poissons Ratio (x) = 0.22188 0.11979
# Poissons Ratio (y) = 0.68816 0.80568
# Poissons Ratio (z) = 0.10836 0.23499
#
# Static dielectric constant tensor:
#      x y z
#    x 1.820640 0.000000 -0.030360 
#    y 0.000000 1.770090 0.000000 
#    z -0.030360 0.000000 1.917830 
# 
# From -- ./inp_files/72697.got.cif
#   From: 2010.05.17/outbox.cif.g08.bks.cpg/sg15_37_cif.got.tgz:72697.got - 2010.06.03 18:47:42.
