data_PCOD9259681
_publ_section_title
;
Structure prediction by ZEFSAII (Michael W. Deem and Ramdas Pophale) SiO2 
 PCOD9259681
Probable space group: C 2/C
;
_chemical_formula_sum "Si O2"
_cell_formula_units_Z 56
_cell_length_a 26.994251
_cell_length_b 9.516371
_cell_length_c 17.026009
_cell_angle_alpha 90.000000
_cell_angle_beta 43.024243
_cell_angle_gamma 90.000000
_cell_volume 2984.254169
_symmetry_space_group_name_H-M "C 2/C"
_symmetry_group_IT_number 15
_symmetry_cell_setting 'monoclinic'
loop_
_space_group_symop_operation_xyz
x,y,z
-x,y,1/2-z
-x,-y,-z
x,-y,1/2+z
1/2+x,1/2+y,z
1/2-x,1/2+y,1/2-z
1/2-x,1/2-y,-z
1/2+x,1/2-y,1/2+z
loop_
_atom_site_type_symbol
_atom_site_label
_atom_site_fract_x
_atom_site_fract_y
_atom_site_fract_z
Si Si1 0.561190 0.135803 0.353137
Si Si2 0.924896 0.546020 0.798437
Si Si3 0.615889 0.342493 0.415217
Si Si4 0.898353 0.383478 0.075952
Si Si5 0.650421 0.396807 0.778034
Si Si6 0.023992 0.850391 0.811543
Si Si7 0.315369 0.905670 0.565468
O O1 0.592619 0.269043 0.360833
O O2 0.474365 0.154773 0.445236
O O3 0.597700 0.081005 0.231440
O O4 0.577614 0.007296 0.393204
O O5 0.950370 0.687224 0.723620
O O6 0.000000 0.498010 0.750000
O O7 0.865109 0.591507 0.930399
O O8 0.648386 0.489620 0.350677
O O9 0.545174 0.361691 0.551575
O O10 0.665415 0.232284 0.405163
O O11 0.867889 0.252174 0.159627
O O12 0.840906 0.456550 0.084502
O O13 0.590236 0.424342 0.780232
O O14 0.730231 0.401604 0.648818
O O15 0.000000 0.890299 0.750000
#
# Coordination Sequence:
#
# PCOD9259681 Si02
#       7
#     8   8   8   8   8   8   8
#     4  10  18  35  63  88 108 159 215 252 286 350
#     4  11  18  37  64  88 118 157 214 256 290 358
#     4  11  22  41  64  91 125 163 207 254 299 376
#     4  10  19  36  60  86 117 157 211 249 293 361
#     4  12  24  39  60  95 130 161 198 252 326 366
#     4  11  21  39  62  90 121 156 209 255 297 364
#     4  11  23  39  63  91 127 162 204 256 309 364
#
# _framework density 18.765158
#
# number of rings (size 3 to 8) (size 9 to 14) (size 15 to 20)
#    0.000    1.143    7.143    2.143    0.000    0.571 
#    0.000    2.857    0.000    0.000    0.000    0.000 
#    0.000    0.000    0.000    0.000    0.000    0.000 
#
# Total GULP energy -156141.060378 kJ/mol
# GULP energy per Si atom -5576.466442 kJ/mol
# Density = 1.872245 g / cm^3
# Si number density = 18.765158 Si / 1000 Ang^3
#
#
#
# Elastic Constant Matrix: (Units=GPa)
#
#
# Indices 1 2 3 4 5 6 
#
# 1 41.3750 -50.6811 -24.3488 0.0151 -30.6983 -0.0071
# 2 -50.6811 -122.8467 -133.3555 0.0554 -91.7491 -0.0289
# 3 -24.3488 -133.3555 -46.1206 0.0403 -87.4255 -0.0220
# 4 0.0151 0.0554 0.0403 -15.7329 0.0212 23.0776
# 5 -30.6983 -91.7491 -87.4255 0.0212 -23.1902 -0.0113
# 6 -0.0071 -0.0289 -0.0220 23.0776 -0.0113 -0.1776
#
#
#
# Elastic Compliance Matrix: (Units=1/GPa)
#
#
# Indices 1 2 3 4 5 6 
#
# 1 0.019051 -0.000533 -0.005742 -0.000001 -0.001464 0.000000
# 2 -0.000533 0.012391 -0.009119 0.000000 -0.013942 -0.000001
# 3 -0.005742 -0.009119 0.012216 -0.000003 -0.002374 0.000005
# 4 -0.000001 0.000000 -0.000003 0.000335 -0.000009 0.043561
# 5 -0.001464 -0.013942 -0.002374 -0.000009 0.022927 0.000011
# 6 0.000000 -0.000001 0.000005 0.043561 0.000011 0.029697
#
#
# Mechanical properties :
#
#
# Convention : Reuss Voigt Hill
#
# Bulk Modulus (GPa) = 77.69392 -60.48477 8.60457
# Shear Modulus (GPa) = 37.96641 -2.43394 17.76623
#
# Velocity S-wave (km/s) = 4.50292 -1.14012 3.08030
# Velocity P-wave (km/s) = 8.27818 5.83401 4.15287
#
# Compressibility (1/GPa) = 0.01287102
#
# Stress axis : x y z
#
# Youngs Moduli (GPa) = 52.49025 80.70193 81.86121
#
# Poissons Ratio (x) = 0.04298 0.47007
# Poissons Ratio (y) = 0.02795 0.74648
# Poissons Ratio (z) = 0.30141 0.73591
#
# Static dielectric constant tensor:
#      x y z
#    x 1.701540 0.000000 0.021010 
#    y 0.000000 1.648570 0.000000 
#    z 0.021010 0.000000 1.639440 
# 
# From -- ./inp_files/218682.got.cif
#   From: 2010.05.17/outbox.cif.g08.bks.cpg/sg15_110_cif.got.tgz:218682.got - 2010.06.03 18:47:42.
