data_PCOD9259767
_publ_section_title
;
Structure prediction by ZEFSAII (Michael W. Deem and Ramdas Pophale) SiO2 
 PCOD9259767
Probable space group: C 2/C
;
_chemical_formula_sum "Si O2"
_cell_formula_units_Z 52
_cell_length_a 6.722146
_cell_length_b 12.228223
_cell_length_c 28.056132
_cell_angle_alpha 90.000000
_cell_angle_beta 63.490383
_cell_angle_gamma 90.000000
_cell_volume 2063.734947
_symmetry_space_group_name_H-M "C 2/C"
_symmetry_group_IT_number 15
_symmetry_cell_setting 'monoclinic'
loop_
_space_group_symop_operation_xyz
x,y,z
-x,y,1/2-z
-x,-y,-z
x,-y,1/2+z
1/2+x,1/2+y,z
1/2-x,1/2+y,1/2-z
1/2-x,1/2-y,-z
1/2+x,1/2-y,1/2+z
loop_
_atom_site_type_symbol
_atom_site_label
_atom_site_fract_x
_atom_site_fract_y
_atom_site_fract_z
Si Si1 0.630699 0.094970 0.186726
Si Si2 0.729467 0.523990 0.567359
Si Si3 0.083831 0.368784 0.138474
Si Si4 0.798063 0.374002 0.481202
Si Si5 0.568787 0.326919 0.160939
Si Si6 0.648817 0.369663 0.658306
Si Si7 0.000000 0.025709 0.750000
O O1 0.500000 0.104325 0.250000
O O2 0.553229 0.196684 0.162197
O O3 0.891435 0.111952 0.169616
O O4 0.601800 0.977912 0.166466
O O5 0.655810 0.457282 0.528759
O O6 0.567688 0.608109 0.611516
O O7 0.782835 0.430761 0.601836
O O8 0.948231 0.594163 0.532532
O O9 0.823484 0.347752 0.152993
O O10 0.167639 0.260652 0.157014
O O11 0.207881 0.382436 0.074832
O O12 0.750000 0.250000 0.500000
O O13 0.423292 0.390621 0.216483
O O14 0.659577 0.440071 0.705538
#
# Coordination Sequence:
#
# PCOD9259767 Si02
#       7
#     8   8   8   8   8   8   4
#     4  11  22  38  59  88 123 158 198 246 302 362
#     4   9  19  36  62  88 117 157 205 247 299 362
#     4  10  21  36  57  87 118 156 199 246 297 358
#     4  10  18  36  65  89 118 162 202 249 310 353
#     4   9  19  37  58  81 119 156 193 249 303 352
#     4  10  21  37  59  87 122 154 199 250 296 360
#     4  10  18  36  54  80 112 162 188 240 310 354
#
# _framework density 25.197035
#
# number of rings (size 3 to 8) (size 9 to 14) (size 15 to 20)
#    0.000    2.154    2.308    0.923    1.077    0.000 
#    0.000    9.231    0.000    0.000    0.000    0.000 
#    0.000    0.000    0.000    0.000    0.000    0.000 
#
# Total GULP energy -145519.978159 kJ/mol
# GULP energy per Si atom -5596.922237 kJ/mol
# Density = 2.513969 g / cm^3
# Si number density = 25.197035 Si / 1000 Ang^3
#
#
#
# Elastic Constant Matrix: (Units=GPa)
#
#
# Indices 1 2 3 4 5 6 
#
# 1 73.0010 33.7676 12.7357 0.0000 1.7425 0.0000
# 2 33.7676 245.0861 58.0047 0.0000 -8.8879 0.0000
# 3 12.7357 58.0047 121.4330 0.0001 -3.0422 0.0000
# 4 0.0000 0.0000 0.0001 46.2212 0.0000 4.8360
# 5 1.7425 -8.8879 -3.0422 0.0000 24.1650 0.0000
# 6 0.0000 0.0000 0.0000 4.8360 0.0000 42.7942
#
#
#
# Elastic Compliance Matrix: (Units=1/GPa)
#
#
# Indices 1 2 3 4 5 6 
#
# 1 0.014758 -0.001943 -0.000666 0.000000 -0.001863 0.000000
# 2 -0.001943 0.004905 -0.002097 0.000000 0.001680 0.000000
# 3 -0.000666 -0.002097 0.009318 0.000000 0.000450 0.000000
# 4 0.000000 0.000000 0.000000 0.021894 0.000000 -0.002474
# 5 -0.001863 0.001680 0.000450 0.000000 0.042191 0.000000
# 6 0.000000 0.000000 0.000000 -0.002474 0.000000 0.023647
#
#
# Mechanical properties :
#
#
# Convention : Reuss Voigt Hill
#
# Bulk Modulus (GPa) = 51.10430 72.05957 61.58193
# Shear Modulus (GPa) = 37.69342 44.97024 41.33183
#
# Velocity S-wave (km/s) = 3.87194 4.22921 4.05451
# Velocity P-wave (km/s) = 6.34942 7.24629 6.81263
#
# Compressibility (1/GPa) = 0.01956783
#
# Stress axis : x y z
#
# Youngs Moduli (GPa) = 67.75992 203.86533 107.32051
#
# Poissons Ratio (x) = 0.39615 0.07150
# Poissons Ratio (y) = 0.13167 0.22507
# Poissons Ratio (z) = 0.04515 0.42754
#
# Static dielectric constant tensor:
#      x y z
#    x 2.181400 0.000000 -0.012300 
#    y 0.000000 1.936420 0.000000 
#    z -0.012300 0.000000 1.990940 
# 
# From -- ./inp_files/310618.got.cif
#   From: 2010.05.17/outbox.cif.g08.bks.cpg/sg15_156_cif.got.tgz:310618.got - 2010.06.03 18:47:42.
