data_PCOD9259223
_publ_section_title
;
Structure prediction by ZEFSAII (Michael W. Deem and Ramdas Pophale) SiO2 
 PCOD9259223
Probable space group: C 2/C
;
_chemical_formula_sum "Si O2"
_cell_formula_units_Z 48
_cell_length_a 13.443342
_cell_length_b 15.050897
_cell_length_c 29.967301
_cell_angle_alpha 90.000000
_cell_angle_beta 153.792260
_cell_angle_gamma 90.000000
_cell_volume 2677.767926
_symmetry_space_group_name_H-M "C 2/C"
_symmetry_group_IT_number 15
_symmetry_cell_setting 'monoclinic'
loop_
_space_group_symop_operation_xyz
x,y,z
-x,y,1/2-z
-x,-y,-z
x,-y,1/2+z
1/2+x,1/2+y,z
1/2-x,1/2+y,1/2-z
1/2-x,1/2-y,-z
1/2+x,1/2-y,1/2+z
loop_
_atom_site_type_symbol
_atom_site_label
_atom_site_fract_x
_atom_site_fract_y
_atom_site_fract_z
Si Si1 0.900212 0.933333 0.866736
Si Si2 0.234137 0.584314 0.867068
Si Si3 0.256306 0.599818 0.628153
Si Si4 0.933265 0.433334 0.633263
Si Si5 0.835497 0.499999 0.999999
Si Si6 0.374498 0.303098 0.937249
O O1 0.696714 0.934640 0.749999
O O2 0.872160 0.849942 0.888047
O O3 0.863018 0.020036 0.883702
O O4 0.138550 0.936042 0.938565
O O5 0.000000 0.611993 0.750000
O O6 0.171791 0.520037 0.883703
O O7 0.392577 0.664224 0.946288
O O8 0.500000 0.598713 0.750000
O O9 0.256017 0.550348 0.580329
O O10 0.171831 0.699911 0.585915
O O11 0.065296 0.550351 0.580329
O O12 0.884287 0.436043 0.561433
O O13 0.819970 0.349943 0.611952
#
# Coordination Sequence:
#
# PCOD9259223 Si02
#       6
#     8   8   8   8   8   8
#     4  10  18  34  62  89 115 151 192 233 284 344
#     4   9  17  32  58  92 125 149 179 233 292 338
#     4  11  26  42  57  81 118 157 190 239 294 335
#     4  10  18  34  62  89 115 151 192 233 284 344
#     4  11  22  41  60  78 112 157 198 235 278 348
#     4  11  19  38  59  90 121 146 187 237 292 337
#
# _framework density 17.925377000000001
#
# number of rings (size 3 to 8) (size 9 to 14) (size 15 to 20)
#    0.000    1.667    3.333    4.500    0.000    1.333 
#    0.000    5.000    0.000    0.000    0.000    0.000 
#    0.000    0.000    0.000    0.000    0.000    0.000 
#
# Total GULP energy -133976.045285 kJ/mol
# GULP energy per Si atom -5582.335220 kJ/mol
# Density = 1.788458 g / cm^3
# Si number density = 17.925377 Si / 1000 Ang^3
#
#
#
# Elastic Constant Matrix: (Units=GPa)
#
#
# Indices 1 2 3 4 5 6 
#
# 1 99.3519 25.1922 27.3901 0.0003 -0.7942 -0.0001
# 2 25.1922 82.1319 26.2361 0.0002 0.0284 0.0003
# 3 27.3901 26.2361 128.1693 -0.0004 1.5026 0.0003
# 4 0.0003 0.0002 -0.0004 25.0065 0.0003 0.6097
# 5 -0.7942 0.0284 1.5026 0.0003 19.6794 0.0008
# 6 -0.0001 0.0003 0.0003 0.6097 0.0008 0.0641
#
#
#
# Elastic Compliance Matrix: (Units=1/GPa)
#
#
# Indices 1 2 3 4 5 6 
#
# 1 0.011306 -0.002883 -0.001833 -0.000001 0.000600 0.000031
# 2 -0.002883 0.013763 -0.002202 0.000001 0.000032 -0.000061
# 3 -0.001833 -0.002202 0.008653 0.000001 -0.000731 -0.000033
# 4 -0.000001 0.000001 0.000001 0.052055 0.000019 -0.494830
# 5 0.000600 0.000032 -0.000731 0.000019 0.050895 -0.000804
# 6 0.000031 -0.000061 -0.000033 -0.494830 -0.000804 20.294758
#
#
# Mechanical properties :
#
#
# Convention : Reuss Voigt Hill
#
# Bulk Modulus (GPa) = 50.28229 51.92111 51.10170
# Shear Modulus (GPa) = 0.24448 24.33901 12.29174
#
# Velocity S-wave (km/s) = 0.36970 3.68883 2.62146
# Velocity P-wave (km/s) = 5.31921 6.86813 6.14269
#
# Compressibility (1/GPa) = 0.01988772
#
# Stress axis : x y z
#
# Youngs Moduli (GPa) = 88.44596 72.65870 115.56449
#
# Poissons Ratio (x) = 0.20945 0.21185
# Poissons Ratio (y) = 0.25495 0.25443
# Poissons Ratio (z) = 0.16214 0.15997
#
# Static dielectric constant tensor:
#      x y z
#    x 1.605060 0.000000 0.000700 
#    y 0.000000 1.580790 0.000000 
#    z 0.000700 0.000000 1.633880 
# 
# From -- ./inp_files/293137.got.cif
#   From: 2010.05.17/outbox.cif.g08.bks.cpg/sg15_147_cif.got.tgz:293137.got - 2010.06.03 18:47:42.
