data_PCOD9259367
_publ_section_title
;
Structure prediction by ZEFSAII (Michael W. Deem and Ramdas Pophale) SiO2 
 PCOD9259367
Probable space group: C 2/C
;
_chemical_formula_sum "Si O2"
_cell_formula_units_Z 40
_cell_length_a 24.518493
_cell_length_b 13.600977
_cell_length_c 4.921242
_cell_angle_alpha 90.000000
_cell_angle_beta 67.171960
_cell_angle_gamma 90.000000
_cell_volume 1512.570592
_symmetry_space_group_name_H-M "C 2/C"
_symmetry_group_IT_number 15
_symmetry_cell_setting 'monoclinic'
loop_
_space_group_symop_operation_xyz
x,y,z
-x,y,1/2-z
-x,-y,-z
x,-y,1/2+z
1/2+x,1/2+y,z
1/2-x,1/2+y,1/2-z
1/2-x,1/2-y,-z
1/2+x,1/2-y,1/2+z
loop_
_atom_site_type_symbol
_atom_site_label
_atom_site_fract_x
_atom_site_fract_y
_atom_site_fract_z
Si Si1 0.250723 0.568368 0.256063
Si Si2 0.382530 0.431989 0.398932
Si Si3 0.556550 0.903601 0.508767
Si Si4 0.128138 0.344693 0.895611
Si Si5 0.550854 0.697452 0.325315
O O1 0.245574 0.527118 0.570231
O O2 0.316402 0.608596 0.076688
O O3 0.197621 0.640479 0.286962
O O4 0.387669 0.471088 0.083825
O O5 0.428884 0.359695 0.448060
O O6 0.500000 0.958985 0.750000
O O7 0.602224 0.867929 0.651785
O O8 0.525299 0.803679 0.458720
O O9 0.597366 0.075579 0.663640
O O10 0.106444 0.238122 0.041065
O O11 0.500000 0.645745 0.250000
#
# Coordination Sequence:
#
# PCOD9259367 Si02
#       5
#     8   8   8   8   8
#     4  10  21  41  60  83 120 156 190 239 291 341
#     4  10  24  40  58  85 120 156 195 237 286 345
#     4  10  18  35  55  85 114 147 185 236 286 332
#     4  10  20  34  62  87 110 154 195 235 288 346
#     4  10  22  37  62  86 118 154 192 242 287 339
#
# _framework density 26.445048
#
# number of rings (size 3 to 8) (size 9 to 14) (size 15 to 20)
#    1.200    0.800    2.000    1.800    2.800    1.600 
#    0.000    1.000    0.000   20.400    0.000    0.000 
#    0.000    0.000    0.000    0.000    0.000    0.000 
#
# Total GULP energy -111863.866764 kJ/mol
# GULP energy per Si atom -5593.193338 kJ/mol
# Density = 2.638486 g / cm^3
# Si number density = 26.445048 Si / 1000 Ang^3
#
#
#
# Elastic Constant Matrix: (Units=GPa)
#
#
# Indices 1 2 3 4 5 6 
#
# 1 174.6206 13.5830 21.2241 0.0000 5.8280 0.0000
# 2 13.5830 57.7363 -6.2602 0.0000 -9.4147 0.0000
# 3 21.2241 -6.2602 101.1636 0.0000 24.8061 0.0000
# 4 0.0000 0.0000 0.0000 12.7182 0.0000 -0.4914
# 5 5.8280 -9.4147 24.8061 0.0000 47.5740 0.0000
# 6 0.0000 0.0000 0.0000 -0.4914 0.0000 36.5045
#
#
#
# Elastic Compliance Matrix: (Units=1/GPa)
#
#
# Indices 1 2 3 4 5 6 
#
# 1 0.006020 -0.001618 -0.001266 0.000000 -0.000398 0.000000
# 2 -0.001618 0.018339 0.000614 0.000000 0.003507 0.000000
# 3 -0.001266 0.000614 0.011604 0.000000 -0.005774 0.000000
# 4 0.000000 0.000000 0.000000 0.078668 0.000000 0.001059
# 5 -0.000398 0.003507 -0.005774 0.000000 0.024773 0.000000
# 6 0.000000 0.000000 0.000000 0.001059 0.000000 0.027408
#
#
# Mechanical properties :
#
#
# Convention : Reuss Voigt Hill
#
# Bulk Modulus (GPa) = 31.82219 43.40159 37.61189
# Shear Modulus (GPa) = 27.49870 39.69091 33.59480
#
# Velocity S-wave (km/s) = 3.22816 3.87833 3.56808
# Velocity P-wave (km/s) = 5.09452 6.04176 5.58824
#
# Compressibility (1/GPa) = 0.03142461
#
# Stress axis : x y z
#
# Youngs Moduli (GPa) = 166.12195 54.52755 86.17447
#
# Poissons Ratio (x) = 0.08824 0.10906
# Poissons Ratio (y) = 0.26883 -0.05295
# Poissons Ratio (z) = 0.21023 -0.03350
#
# Static dielectric constant tensor:
#      x y z
#    x 2.038940 0.000000 -0.005220 
#    y 0.000000 2.216930 0.000000 
#    z -0.005220 0.000000 2.192490 
# 
# From -- ./inp_files/15001.got.cif
#   From: 2010.05.17/outbox.cif.g08.bks.cpg/sg15_8_cif.got.tgz:15001.got - 2010.06.03 18:47:42.
