data_PCOD9259686
_publ_section_title
;
Structure prediction by ZEFSAII (Michael W. Deem and Ramdas Pophale) SiO2 
 PCOD9259686
Probable space group: C 2/C
;
_chemical_formula_sum "Si O2"
_cell_formula_units_Z 44
_cell_length_a 9.874230
_cell_length_b 17.787993
_cell_length_c 18.790687
_cell_angle_alpha 90.000000
_cell_angle_beta 39.270885
_cell_angle_gamma 90.000000
_cell_volume 2089.142305
_symmetry_space_group_name_H-M "C 2/C"
_symmetry_group_IT_number 15
_symmetry_cell_setting 'monoclinic'
loop_
_space_group_symop_operation_xyz
x,y,z
-x,y,1/2-z
-x,-y,-z
x,-y,1/2+z
1/2+x,1/2+y,z
1/2-x,1/2+y,1/2-z
1/2-x,1/2-y,-z
1/2+x,1/2-y,1/2+z
loop_
_atom_site_type_symbol
_atom_site_label
_atom_site_fract_x
_atom_site_fract_y
_atom_site_fract_z
Si Si1 0.000000 0.364456 0.750000
Si Si2 0.015313 0.842778 0.632340
Si Si3 0.492011 0.205179 0.958557
Si Si4 0.922943 0.289634 0.636160
Si Si5 0.384586 0.480558 0.619935
Si Si6 0.319497 0.862707 0.260764
O O1 0.024649 0.313691 0.669571
O O2 0.804388 0.421495 0.817992
O O3 0.236962 0.806978 0.566341
O O4 0.964258 0.790549 0.583857
O O5 0.810689 0.830594 0.765490
O O6 0.041047 0.930289 0.604823
O O7 0.579057 0.155391 0.857887
O O8 0.561397 0.188908 0.010871
O O9 0.857155 0.202382 0.656755
O O10 0.500000 0.500000 0.500000
O O11 0.286903 0.555751 0.692503
O O12 0.500000 0.857337 0.250000
#
# Coordination Sequence:
#
# PCOD9259686 Si02
#       6
#     4   8   8   8   8   8
#     4  10  24  42  62  88 126 170 210 252 320 378
#     4   9  19  33  58  93 120 154 208 259 311 361
#     4  10  18  35  63  91 118 160 210 266 298 363
#     4  10  20  38  62  88 122 162 213 262 307 368
#     4  11  21  38  62  88 126 166 200 253 317 381
#     4  11  21  36  64  95 122 160 217 255 308 377
#
# _framework density 21.061274999999998
#
# number of rings (size 3 to 8) (size 9 to 14) (size 15 to 20)
#    0.000    1.818    0.909    6.000    0.000    0.000 
#    0.000   18.182   16.000    0.000    0.000    0.000 
#    0.000    0.000    0.000    0.000    0.000    0.000 
#
# Total GULP energy -122781.364627 kJ/mol
# GULP energy per Si atom -5580.971119 kJ/mol
# Density = 2.101334 g / cm^3
# Si number density = 21.061275 Si / 1000 Ang^3
#
#
#
# Elastic Constant Matrix: (Units=GPa)
#
#
# Indices 1 2 3 4 5 6 
#
# 1 52.3174 34.4548 34.3041 0.0094 30.9984 0.0027
# 2 34.4548 162.6691 45.1502 0.0105 19.9561 -0.0027
# 3 34.3041 45.1502 130.9325 0.0239 48.7653 -0.0016
# 4 0.0094 0.0105 0.0239 9.8194 -0.0097 -5.9725
# 5 30.9984 19.9561 48.7653 -0.0097 47.0631 -0.0020
# 6 0.0027 -0.0027 -0.0016 -5.9725 -0.0020 30.5421
#
#
#
# Elastic Compliance Matrix: (Units=1/GPa)
#
#
# Indices 1 2 3 4 5 6 
#
# 1 0.034559 -0.004862 0.000541 -0.000060 -0.021261 -0.000017
# 2 -0.004862 0.007498 -0.002150 0.000005 0.002251 0.000002
# 3 0.000541 -0.002150 0.013077 -0.000049 -0.012995 -0.000010
# 4 -0.000060 0.000005 -0.000049 0.115588 0.000113 0.022603
# 5 -0.021261 0.002251 -0.012995 0.000113 0.047762 0.000027
# 6 -0.000017 0.000002 -0.000010 0.022603 0.000027 0.037162
#
#
# Mechanical properties :
#
#
# Convention : Reuss Voigt Hill
#
# Bulk Modulus (GPa) = 23.70122 63.74855 43.72488
# Shear Modulus (GPa) = 17.68967 32.95223 25.32095
#
# Velocity S-wave (km/s) = 2.90127 3.95978 3.47111
# Velocity P-wave (km/s) = 4.74353 7.15823 6.07212
#
# Compressibility (1/GPa) = 0.04219193
#
# Stress axis : x y z
#
# Youngs Moduli (GPa) = 28.93631 133.37178 76.46996
#
# Poissons Ratio (x) = 0.64840 -0.04136
# Poissons Ratio (y) = 0.14068 0.16441
# Poissons Ratio (z) = -0.01565 0.28675
#
# Static dielectric constant tensor:
#      x y z
#    x 1.872880 0.000000 0.021840 
#    y 0.000000 1.736320 0.000000 
#    z 0.021840 0.000000 1.785610 
# 
# From -- ./inp_files/190779.got.cif
#   From: 2010.05.17/outbox.cif.g08.bks.cpg/sg15_96_cif.got.tgz:190779.got - 2010.06.03 18:47:42.
