data_PCOD9259085
_publ_section_title
;
Structure prediction by ZEFSAII (Michael W. Deem and Ramdas Pophale) SiO2 
 PCOD9259085
Probable space group: C 2/C
;
_chemical_formula_sum "Si O2"
_cell_formula_units_Z 48
_cell_length_a 15.194767
_cell_length_b 25.719861
_cell_length_c 5.795447
_cell_angle_alpha 90.000000
_cell_angle_beta 118.884832
_cell_angle_gamma 90.000000
_cell_volume 1983.131907
_symmetry_space_group_name_H-M "C 2/C"
_symmetry_group_IT_number 15
_symmetry_cell_setting 'monoclinic'
loop_
_space_group_symop_operation_xyz
x,y,z
-x,y,1/2-z
-x,-y,-z
x,-y,1/2+z
1/2+x,1/2+y,z
1/2-x,1/2+y,1/2-z
1/2-x,1/2-y,-z
1/2+x,1/2-y,1/2+z
loop_
_atom_site_type_symbol
_atom_site_label
_atom_site_fract_x
_atom_site_fract_y
_atom_site_fract_z
Si Si1 0.169320 0.372576 0.538964
Si Si2 0.000000 0.783967 0.250000
Si Si3 0.809925 0.846521 0.098473
Si Si4 0.793192 0.942317 0.364791
Si Si5 0.000000 0.028636 0.250000
Si Si6 0.366491 0.022135 0.340100
Si Si7 0.336518 0.780942 0.252349
O O1 0.207635 0.410080 0.385746
O O2 0.117672 0.415632 0.635861
O O3 0.115965 0.323719 0.359573
O O4 0.266584 0.348149 0.786537
O O5 0.918007 0.820616 0.270964
O O6 0.073826 0.750694 0.510406
O O7 0.812156 0.907178 0.166703
O O8 0.728076 0.812997 0.138053
O O9 0.897218 0.940309 0.627167
O O10 0.749111 0.000185 0.289330
O O11 0.000000 0.000000 0.500000
O O12 0.401228 0.998363 0.632324
O O13 0.250000 0.750000 0.000000
#
# Coordination Sequence:
#
# PCOD9259085 Si02
#       7
#     8   4   8   8   4   8   8
#     4  10  21  40  61  90 135 174 225 287 336 411
#     4  12  26  43  74  94 132 188 228 291 372 410
#     4  11  24  43  66  99 136 174 237 289 344 435
#     4  10  23  36  58  88 134 179 228 272 348 418
#     4  12  26  35  52  86 136 188 238 285 324 420
#     4  10  18  34  59  89 127 180 224 262 341 412
#     4  11  25  46  66  98 133 178 235 300 354 423
#
# _framework density 24.204139999999999
#
# number of rings (size 3 to 8) (size 9 to 14) (size 15 to 20)
#    0.000    1.333    3.333    2.500    4.667    0.667 
#    0.000    0.000    0.000    0.000    0.000   10.500 
#    0.000    0.167    0.000    0.000    0.000    0.000 
#
# Total GULP energy -133725.664779 kJ/mol
# GULP energy per Si atom -5571.902699 kJ/mol
# Density = 2.414905 g / cm^3
# Si number density = 24.204140 Si / 1000 Ang^3
#
#
#
# Elastic Constant Matrix: (Units=GPa)
#
#
# Indices 1 2 3 4 5 6 
#
# 1 192.1909 114.6852 12.1731 0.0000 -24.1602 0.0000
# 2 114.6852 204.1730 42.2927 0.0000 -30.9542 0.0000
# 3 12.1731 42.2927 134.0843 0.0000 8.9266 0.0000
# 4 0.0000 0.0000 0.0000 39.8705 0.0000 -0.3165
# 5 -24.1602 -30.9542 8.9266 0.0000 54.3062 0.0000
# 6 0.0000 0.0000 0.0000 -0.3165 0.0000 3.2104
#
#
#
# Elastic Compliance Matrix: (Units=1/GPa)
#
#
# Indices 1 2 3 4 5 6 
#
# 1 0.007930 -0.004449 0.000624 0.000000 0.000890 0.000000
# 2 -0.004449 0.008392 -0.002457 0.000000 0.003208 0.000000
# 3 0.000624 -0.002457 0.008342 0.000000 -0.002494 0.000000
# 4 0.000000 0.000000 0.000000 0.025101 0.000000 0.002475
# 5 0.000890 0.003208 -0.002494 0.000000 0.021048 0.000000
# 6 0.000000 0.000000 0.000000 0.002475 0.000000 0.311730
#
#
# Mechanical properties :
#
#
# Convention : Reuss Voigt Hill
#
# Bulk Modulus (GPa) = 82.63400 96.52780 89.58090
# Shear Modulus (GPa) = 12.52694 43.56390 28.04542
#
# Velocity S-wave (km/s) = 2.27745 4.24707 3.40767
# Velocity P-wave (km/s) = 6.41329 8.00109 7.25078
#
# Compressibility (1/GPa) = 0.01210156
#
# Stress axis : x y z
#
# Youngs Moduli (GPa) = 126.10017 119.16155 119.87179
#
# Poissons Ratio (x) = 0.53013 -0.07481
# Poissons Ratio (y) = 0.56100 0.29448
# Poissons Ratio (z) = -0.07869 0.29274
#
# Static dielectric constant tensor:
#      x y z
#    x 2.121930 0.000000 -0.079960 
#    y 0.000000 2.005560 0.000000 
#    z -0.079960 0.000000 2.044960 
# 
# From -- ./inp_files/11399.got.cif
#   From: 2010.05.17/outbox.cif.g08.bks.cpg/sg15_6_cif.got.tgz:11399.got - 2010.06.03 18:47:42.
