data_PCOD9259118
_publ_section_title
;
Structure prediction by ZEFSAII (Michael W. Deem and Ramdas Pophale) SiO2 
 PCOD9259118
Probable space group: C 2/C
;
_chemical_formula_sum "Si O2"
_cell_formula_units_Z 40
_cell_length_a 14.701607
_cell_length_b 14.805596
_cell_length_c 8.901674
_cell_angle_alpha 90.000000
_cell_angle_beta 103.707468
_cell_angle_gamma 90.000000
_cell_volume 1882.406218
_symmetry_space_group_name_H-M "C 2/C"
_symmetry_group_IT_number 15
_symmetry_cell_setting 'monoclinic'
loop_
_space_group_symop_operation_xyz
x,y,z
-x,y,1/2-z
-x,-y,-z
x,-y,1/2+z
1/2+x,1/2+y,z
1/2-x,1/2+y,1/2-z
1/2-x,1/2-y,-z
1/2+x,1/2-y,1/2+z
loop_
_atom_site_type_symbol
_atom_site_label
_atom_site_fract_x
_atom_site_fract_y
_atom_site_fract_z
Si Si1 0.695517 0.460197 0.442026
Si Si2 0.069014 0.962099 0.654415
Si Si3 0.547325 0.121029 0.122308
Si Si4 0.788975 0.651218 0.510511
Si Si5 0.884974 0.585281 0.848835
O O1 0.651596 0.421286 0.579597
O O2 0.621444 0.461779 0.275879
O O3 0.716883 0.567627 0.473243
O O4 0.794699 0.421072 0.424295
O O5 0.000000 0.913729 0.750000
O O6 0.000000 0.000000 0.500000
O O7 0.500000 0.160109 0.250000
O O8 0.573354 0.015337 0.159372
O O9 0.645992 0.156005 0.109708
O O10 0.470487 0.133848 0.963098
O O11 0.750000 0.750000 0.500000
O O12 0.851350 0.626680 0.680118
#
# Coordination Sequence:
#
# PCOD9259118 Si02
#       5
#     8   8   8   8   8
#     4  10  18  34  60  85 112 156 207 251 299 354
#     4   9  18  32  53  84 112 147 204 256 282 345
#     4  10  20  36  64  93 118 152 205 257 299 354
#     4  11  23  38  57  88 129 160 189 242 314 376
#     4  10  19  35  64  93 119 154 203 257 304 359
#
# _framework density 21.249399
#
# number of rings (size 3 to 8) (size 9 to 14) (size 15 to 20)
#    0.000    2.000    2.000    4.200    2.800    0.000 
#    0.000    8.000    0.000    0.000    0.000    0.000 
#    0.000    0.000    0.000    0.000    0.000    0.000 
#
# Total GULP energy -111417.502885 kJ/mol
# GULP energy per Si atom -5570.875144 kJ/mol
# Density = 2.120103 g / cm^3
# Si number density = 21.249399 Si / 1000 Ang^3
#
#
#
# Elastic Constant Matrix: (Units=GPa)
#
#
# Indices 1 2 3 4 5 6 
#
# 1 125.1730 3.0851 32.6297 0.0000 -35.3091 0.0000
# 2 3.0851 20.7773 7.0645 0.0000 8.3154 0.0000
# 3 32.6297 7.0645 103.9712 0.0000 -8.1677 0.0000
# 4 0.0000 0.0000 0.0000 4.3747 0.0000 -4.1857
# 5 -35.3091 8.3154 -8.1677 0.0000 66.3003 0.0000
# 6 0.0000 0.0000 0.0000 -4.1857 0.0000 -18.2854
#
#
#
# Elastic Compliance Matrix: (Units=1/GPa)
#
#
# Indices 1 2 3 4 5 6 
#
# 1 0.010295 -0.002853 -0.002603 0.000000 0.005520 0.000000
# 2 -0.002853 0.053149 -0.003392 0.000000 -0.008603 0.000000
# 3 -0.002603 -0.003392 0.010694 0.000000 0.000356 0.000000
# 4 0.000000 0.000000 0.000000 0.187516 0.000000 -0.042925
# 5 0.005520 -0.008603 0.000356 0.000000 0.019145 0.000000
# 6 0.000000 0.000000 0.000000 -0.042925 0.000000 -0.044862
#
#
# Mechanical properties :
#
#
# Convention : Reuss Voigt Hill
#
# Bulk Modulus (GPa) = 17.71728 37.27558 27.49643
# Shear Modulus (GPa) = 18.35217 24.28739 21.31978
#
# Velocity S-wave (km/s) = 2.94199 3.38445 3.17095
# Velocity P-wave (km/s) = 4.46053 5.73173 5.13561
#
# Compressibility (1/GPa) = 0.05644208
#
# Stress axis : x y z
#
# Youngs Moduli (GPa) = 97.13516 18.81486 93.51421
#
# Poissons Ratio (x) = 0.05367 0.24346
# Poissons Ratio (y) = 0.27708 0.31720
# Poissons Ratio (z) = 0.25289 0.06382
#
# Static dielectric constant tensor:
#      x y z
#    x 1.850840 0.000000 -0.033840 
#    y 0.000000 1.634480 0.000000 
#    z -0.033840 0.000000 1.814040 
# 
# From -- ./inp_files/38706.got.cif
#   From: 2010.05.17/outbox.cif.g08.bks.cpg/sg15_20_cif.got.tgz:38706.got - 2010.06.03 18:47:42.
