data_PCOD9259350
_publ_section_title
;
Structure prediction by ZEFSAII (Michael W. Deem and Ramdas Pophale) SiO2 
 PCOD9259350
Probable space group: C 2/C
;
_chemical_formula_sum "Si O2"
_cell_formula_units_Z 56
_cell_length_a 9.355997
_cell_length_b 27.795893
_cell_length_c 14.207187
_cell_angle_alpha 90.000000
_cell_angle_beta 121.361904
_cell_angle_gamma 90.000000
_cell_volume 3154.890599
_symmetry_space_group_name_H-M "C 2/C"
_symmetry_group_IT_number 15
_symmetry_cell_setting 'monoclinic'
loop_
_space_group_symop_operation_xyz
x,y,z
-x,y,1/2-z
-x,-y,-z
x,-y,1/2+z
1/2+x,1/2+y,z
1/2-x,1/2+y,1/2-z
1/2-x,1/2-y,-z
1/2+x,1/2-y,1/2+z
loop_
_atom_site_type_symbol
_atom_site_label
_atom_site_fract_x
_atom_site_fract_y
_atom_site_fract_z
Si Si1 0.162008 0.177963 0.023132
Si Si2 0.831808 0.992299 0.379034
Si Si3 0.170949 0.176455 0.249137
Si Si4 0.450135 0.585347 0.630101
Si Si5 0.190501 0.071681 0.292351
Si Si6 0.681461 0.000654 0.017248
Si Si7 0.001055 0.266680 0.638676
O O1 0.131479 0.178366 0.124441
O O2 0.356480 0.192913 0.073727
O O3 0.112464 0.127022 0.960469
O O4 0.054347 0.219857 0.937364
O O5 0.882508 0.942363 0.347996
O O6 0.802126 0.033224 0.290404
O O7 0.686256 0.993885 0.406408
O O8 0.000000 0.000000 0.500000
O O9 0.259140 0.124094 0.293321
O O10 0.314188 0.214868 0.322815
O O11 0.000000 0.182684 0.250000
O O12 0.500000 0.604203 0.750000
O O13 0.302970 0.544456 0.584953
O O14 0.000000 0.081759 0.250000
O O15 0.247977 0.047610 0.408086
O O16 0.500000 0.000000 0.000000
O O17 0.000000 0.256176 0.750000
#
# Coordination Sequence:
#
# PCOD9259350 Si02
#       7
#     8   8   8   8   8   8   8
#     4  10  21  37  62  84 111 151 191 241 292 334
#     4  10  18  35  55  73 111 151 186 226 274 330
#     4  10  22  35  60  87 116 151 189 228 293 348
#     4  11  20  37  58  83 107 153 194 227 285 349
#     4  11  19  37  55  82 115 153 191 234 271 349
#     4  11  23  34  53  82 116 148 190 236 281 325
#     4   9  20  41  59  86 114 140 191 249 285 338
#
# _framework density 17.750219999999999
#
# number of rings (size 3 to 8) (size 9 to 14) (size 15 to 20)
#    0.000    1.714    4.286    2.143    4.000    1.143 
#    2.571    0.000    0.000    0.000    0.000    0.000 
#    0.000    0.000    0.000    0.000    0.000    0.000 
#
# Total GULP energy -155956.970662 kJ/mol
# GULP energy per Si atom -5569.891809 kJ/mol
# Density = 1.770982 g / cm^3
# Si number density = 17.750220 Si / 1000 Ang^3
#
#
#
# Elastic Constant Matrix: (Units=GPa)
#
#
# Indices 1 2 3 4 5 6 
#
# 1 113.3391 38.7791 25.2569 0.0000 -6.8512 0.0000
# 2 38.7791 84.8291 34.0176 0.0000 -1.8591 0.0000
# 3 25.2569 34.0176 66.8915 0.0000 -12.3196 0.0000
# 4 0.0000 0.0000 0.0000 3.0694 0.0000 -11.8230
# 5 -6.8512 -1.8591 -12.3196 0.0000 24.8099 0.0000
# 6 0.0000 0.0000 0.0000 -11.8230 0.0000 10.6913
#
#
#
# Elastic Compliance Matrix: (Units=1/GPa)
#
#
# Indices 1 2 3 4 5 6 
#
# 1 0.010734 -0.004245 -0.001549 0.000000 0.001877 0.000000
# 2 -0.004245 0.016678 -0.007556 0.000000 -0.003674 0.000000
# 3 -0.001549 -0.007556 0.021126 0.000000 0.009496 0.000000
# 4 0.000000 0.000000 0.000000 -0.099948 0.000000 -0.110528
# 5 0.001877 -0.003674 0.009496 0.000000 0.045265 0.000000
# 6 0.000000 0.000000 0.000000 -0.110528 0.000000 -0.028694
#
#
# Mechanical properties :
#
#
# Convention : Reuss Voigt Hill
#
# Bulk Modulus (GPa) = 45.78772 51.24076 48.51424
# Shear Modulus (GPa) = -5804.47914 18.84783 -2892.81566
#
# Velocity S-wave (km/s) = -57.24673 3.26212 -40.41377
# Velocity P-wave (km/s) = 65.90699 6.56650 46.37140
#
# Compressibility (1/GPa) = 0.02183992
#
# Stress axis : x y z
#
# Youngs Moduli (GPa) = 93.16170 59.95804 47.33581
#
# Poissons Ratio (x) = 0.25452 0.07330
# Poissons Ratio (y) = 0.39546 0.35765
# Poissons Ratio (z) = 0.14426 0.45302
#
# Static dielectric constant tensor:
#      x y z
#    x 1.622100 0.000000 0.002930 
#    y 0.000000 1.276660 0.000000 
#    z 0.002930 0.000000 1.652160 
# 
# From -- ./inp_files/81405.got.cif
#   From: 2010.05.17/outbox.cif.g08.bks.cpg/sg15_41_cif.got.tgz:81405.got - 2010.06.03 18:47:42.
