data_PCOD9259575
_publ_section_title
;
Structure prediction by ZEFSAII (Michael W. Deem and Ramdas Pophale) SiO2 
 PCOD9259575
Probable space group: C 2/C
;
_chemical_formula_sum "Si O2"
_cell_formula_units_Z 56
_cell_length_a 12.905008
_cell_length_b 14.345162
_cell_length_c 18.466757
_cell_angle_alpha 90.000000
_cell_angle_beta 43.501038
_cell_angle_gamma 90.000000
_cell_volume 2353.286829
_symmetry_space_group_name_H-M "C 2/C"
_symmetry_group_IT_number 15
_symmetry_cell_setting 'monoclinic'
loop_
_space_group_symop_operation_xyz
x,y,z
-x,y,1/2-z
-x,-y,-z
x,-y,1/2+z
1/2+x,1/2+y,z
1/2-x,1/2+y,1/2-z
1/2-x,1/2-y,-z
1/2+x,1/2-y,1/2+z
loop_
_atom_site_type_symbol
_atom_site_label
_atom_site_fract_x
_atom_site_fract_y
_atom_site_fract_z
Si Si1 0.225716 0.539338 0.539462
Si Si2 0.463101 0.851518 0.106054
Si Si3 0.595875 0.687600 0.134299
Si Si4 0.724255 0.560533 0.822478
Si Si5 0.874269 0.247468 0.587646
Si Si6 0.189583 0.663699 0.076155
Si Si7 0.829276 0.358047 0.751707
O O1 0.084511 0.567166 0.561166
O O2 0.356454 0.606159 0.443930
O O3 0.189099 0.556732 0.643168
O O4 0.270632 0.431936 0.512298
O O5 0.507209 0.768347 0.138315
O O6 0.308081 0.892806 0.212230
O O7 0.489052 0.808242 0.013949
O O8 0.500000 0.650963 0.250000
O O9 0.745013 0.736144 0.092501
O O10 0.598859 0.638389 0.907832
O O11 0.727887 0.451725 0.799959
O O12 0.808827 0.295854 0.691935
O O13 0.209639 0.684678 0.150939
O O14 0.012477 0.633904 0.159181
O O15 0.250000 0.750000 0.000000
#
# Coordination Sequence:
#
# PCOD9259575 Si02
#       7
#     8   8   8   8   8   8   8
#     4  10  18  35  60  89 110 157 204 244 292 359
#     4  11  18  33  61  92 121 153 192 247 304 354
#     4  11  19  34  58  93 129 153 187 244 317 361
#     4  11  19  37  65  85 123 162 201 246 297 361
#     4  11  22  35  56  95 128 146 198 258 299 355
#     4  10  22  45  67  80 115 162 214 247 289 360
#     4  10  24  42  63  90 114 163 210 246 301 357
#
# _framework density 23.796506000000001
#
# number of rings (size 3 to 8) (size 9 to 14) (size 15 to 20)
#    0.000    1.429    5.714    1.286    0.000    1.714 
#    7.714    0.000    0.000    4.286    0.000    0.000 
#    0.000    0.000    0.000    0.000    0.000    0.000 
#
# Total GULP energy -156299.818422 kJ/mol
# GULP energy per Si atom -5582.136372 kJ/mol
# Density = 2.374234 g / cm^3
# Si number density = 23.796506 Si / 1000 Ang^3
#
#
#
# Elastic Constant Matrix: (Units=GPa)
#
#
# Indices 1 2 3 4 5 6 
#
# 1 36.6609 17.8611 15.2595 -0.0001 4.8266 0.0000
# 2 17.8611 154.2746 75.1754 0.0000 17.9156 0.0000
# 3 15.2595 75.1754 129.3813 -0.0001 12.9125 0.0001
# 4 -0.0001 0.0000 -0.0001 43.1173 0.0001 0.4318
# 5 4.8266 17.9156 12.9125 0.0001 30.1469 -0.0001
# 6 0.0000 0.0000 0.0001 0.4318 -0.0001 14.2358
#
#
#
# Elastic Compliance Matrix: (Units=1/GPa)
#
#
# Indices 1 2 3 4 5 6 
#
# 1 0.029487 -0.002154 -0.001967 0.000000 -0.002599 0.000000
# 2 -0.002154 0.009517 -0.004958 0.000000 -0.003188 0.000000
# 3 -0.001967 -0.004958 0.010986 0.000000 -0.001444 0.000000
# 4 0.000000 0.000000 0.000000 0.023200 0.000000 -0.000704
# 5 -0.002599 -0.003188 -0.001444 0.000000 0.036100 0.000000
# 6 0.000000 0.000000 0.000000 -0.000704 0.000000 0.070267
#
#
# Mechanical properties :
#
#
# Convention : Reuss Voigt Hill
#
# Bulk Modulus (GPa) = 31.41356 59.65653 45.53504
# Shear Modulus (GPa) = 24.00098 31.63472 27.81785
#
# Velocity S-wave (km/s) = 3.17928 3.65003 3.42276
# Velocity P-wave (km/s) = 5.16785 6.54885 5.89890
#
# Compressibility (1/GPa) = 0.03183339
#
# Stress axis : x y z
#
# Youngs Moduli (GPa) = 33.91311 105.07198 91.02585
#
# Poissons Ratio (x) = 0.22628 0.17906
# Poissons Ratio (y) = 0.07303 0.45129
# Poissons Ratio (z) = 0.06671 0.52092
#
# Static dielectric constant tensor:
#      x y z
#    x 2.007980 0.000000 -0.068290 
#    y 0.000000 1.918220 0.000000 
#    z -0.068290 0.000000 1.906280 
# 
# From -- ./inp_files/210545.got.cif
#   From: 2010.05.17/outbox.cif.g08.bks.cpg/sg15_106_cif.got.tgz:210545.got - 2010.06.03 18:47:42.
