data_PCOD9259816
_publ_section_title
;
Structure prediction by ZEFSAII (Michael W. Deem and Ramdas Pophale) SiO2 
 PCOD9259816
Probable space group: C 2/C
;
_chemical_formula_sum "Si O2"
_cell_formula_units_Z 44
_cell_length_a 14.072348
_cell_length_b 9.479505
_cell_length_c 14.039120
_cell_angle_alpha 90.000000
_cell_angle_beta 100.017982
_cell_angle_gamma 90.000000
_cell_volume 1844.248827
_symmetry_space_group_name_H-M "C 2/C"
_symmetry_group_IT_number 15
_symmetry_cell_setting 'monoclinic'
loop_
_space_group_symop_operation_xyz
x,y,z
-x,y,1/2-z
-x,-y,-z
x,-y,1/2+z
1/2+x,1/2+y,z
1/2-x,1/2+y,1/2-z
1/2-x,1/2-y,-z
1/2+x,1/2-y,1/2+z
loop_
_atom_site_type_symbol
_atom_site_label
_atom_site_fract_x
_atom_site_fract_y
_atom_site_fract_z
Si Si1 0.942455 0.277770 0.418794
Si Si2 0.659423 0.506895 0.116221
Si Si3 0.887956 0.304311 0.926331
Si Si4 0.000000 0.639401 0.250000
Si Si5 0.269469 0.058131 0.829489
Si Si6 0.665552 0.826674 0.902256
O O1 0.932945 0.111360 0.394804
O O2 0.873901 0.361593 0.333159
O O3 0.886773 0.304307 0.508146
O O4 0.047048 0.334294 0.468299
O O5 0.644824 0.355250 0.069589
O O6 0.710256 0.492212 0.227517
O O7 0.737985 0.587017 0.067521
O O8 0.950223 0.294826 0.837425
O O9 0.805433 0.419760 0.893378
O O10 0.095852 0.586677 0.319110
O O11 0.198937 0.178528 0.861090
#
# Coordination Sequence:
#
# PCOD9259816 Si02
#       6
#     8   8   8   4   8   8
#     4  10  23  39  60  87 116 156 191 236 285 351
#     4  11  19  36  59  90 113 152 194 237 286 342
#     4  11  21  35  61  86 119 148 196 239 286 335
#     4  10  18  36  56  88 110 152 186 238 278 338
#     4  11  19  36  59  90 113 152 194 237 286 342
#     4  10  21  39  62  85 117 152 196 228 292 347
#
# _framework density 23.857952999999998
#
# number of rings (size 3 to 8) (size 9 to 14) (size 15 to 20)
#    0.000    1.455    3.636    4.364    0.000    0.000 
#    0.000    3.636    0.000   18.545    0.000    0.000 
#    0.000    0.000    0.000    0.000    0.000    0.000 
#
# Total GULP energy -122569.030866 kJ/mol
# GULP energy per Si atom -5571.319585 kJ/mol
# Density = 2.380365 g / cm^3
# Si number density = 23.857953 Si / 1000 Ang^3
#
#
#
# Elastic Constant Matrix: (Units=GPa)
#
#
# Indices 1 2 3 4 5 6 
#
# 1 35.6440 6.8986 30.3051 0.0000 11.3911 0.0000
# 2 6.8986 127.3598 29.9195 0.0000 -2.6569 0.0000
# 3 30.3051 29.9195 99.8737 0.0000 27.2044 0.0000
# 4 0.0000 0.0000 0.0000 43.9381 0.0000 10.8875
# 5 11.3911 -2.6569 27.2044 0.0000 37.4009 0.0000
# 6 0.0000 0.0000 0.0000 10.8875 0.0000 -2.1426
#
#
#
# Elastic Compliance Matrix: (Units=1/GPa)
#
#
# Indices 1 2 3 4 5 6 
#
# 1 0.038298 0.000351 -0.010670 0.000000 -0.003879 0.000000
# 2 0.000351 0.008737 -0.003571 0.000000 0.003111 0.000000
# 3 -0.010670 -0.003571 0.016841 0.000000 -0.009253 0.000000
# 4 0.000000 0.000000 0.000000 0.010074 0.000000 0.051192
# 5 -0.003879 0.003111 -0.009253 0.000000 0.034870 0.000000
# 6 0.000000 0.000000 0.000000 0.051192 0.000000 -0.206594
#
#
# Mechanical properties :
#
#
# Convention : Reuss Voigt Hill
#
# Bulk Modulus (GPa) = 27.70404 44.12488 35.91446
# Shear Modulus (GPa) = -86.26363 28.88958 -28.68702
#
# Velocity S-wave (km/s) = -6.01961 3.48357 -3.47134
# Velocity P-wave (km/s) = 6.05615 5.89197 0.99035
#
# Compressibility (1/GPa) = 0.03609582
#
# Stress axis : x y z
#
# Youngs Moduli (GPa) = 26.11076 114.46066 59.38033
#
# Poissons Ratio (x) = -0.04019 0.63357
# Poissons Ratio (y) = -0.00917 0.21207
# Poissons Ratio (z) = 0.27860 0.40877
#
# Static dielectric constant tensor:
#      x y z
#    x 2.030280 0.000000 0.023580 
#    y 0.000000 1.961970 0.000000 
#    z 0.023580 0.000000 1.950680 
# 
# From -- ./inp_files/159448.got.cif
#   From: 2010.05.17/outbox.cif.g08.bks.cpg/sg15_80_cif.got.tgz:159448.got - 2010.06.03 18:47:42.
