data_PCOD9259071
_publ_section_title
;
Structure prediction by ZEFSAII (Michael W. Deem and Ramdas Pophale) SiO2 
 PCOD9259071
Probable space group: C 2/C
;
_chemical_formula_sum "Si O2"
_cell_formula_units_Z 60
_cell_length_a 28.288922
_cell_length_b 7.008926
_cell_length_c 20.337685
_cell_angle_alpha 90.000000
_cell_angle_beta 142.299094
_cell_angle_gamma 90.000000
_cell_volume 2466.004926
_symmetry_space_group_name_H-M "C 2/C"
_symmetry_group_IT_number 15
_symmetry_cell_setting 'monoclinic'
loop_
_space_group_symop_operation_xyz
x,y,z
-x,y,1/2-z
-x,-y,-z
x,-y,1/2+z
1/2+x,1/2+y,z
1/2-x,1/2+y,1/2-z
1/2-x,1/2-y,-z
1/2+x,1/2-y,1/2+z
loop_
_atom_site_type_symbol
_atom_site_label
_atom_site_fract_x
_atom_site_fract_y
_atom_site_fract_z
Si Si1 0.727641 0.031853 0.464272
Si Si2 0.861519 0.560607 0.755447
Si Si3 0.847233 0.798352 0.870115
Si Si4 0.756420 0.967662 0.175079
Si Si5 0.489057 0.111398 0.057880
Si Si6 0.500000 0.407870 0.750000
Si Si7 0.871895 0.054951 0.194971
Si Si8 0.384255 0.115875 0.548528
O O1 0.750000 0.250000 0.500000
O O2 0.708072 0.991649 0.367862
O O3 0.803259 0.910484 0.567112
O O4 0.653775 0.991021 0.430148
O O5 0.842958 0.635111 0.807884
O O6 0.896735 0.749534 0.758328
O O7 0.923443 0.391654 0.822358
O O8 0.804958 0.977208 0.792773
O O9 0.795786 0.715734 0.871691
O O10 0.937712 0.799754 0.987906
O O11 0.822583 0.944629 0.194418
O O12 0.695341 0.131528 0.083504
O O13 0.439663 0.997832 0.058517
O O14 0.500000 0.000000 0.000000
O O15 0.554014 0.525847 0.760075
O O16 0.439231 0.279444 0.640579
#
# Coordination Sequence:
#
# PCOD9259071 Si02
#       8
#     8   8   8   8   8   4   8   8
#     4  11  23  37  57  86 121 151 189 241 301 356
#     4  10  18  34  59  84 110 149 199 237 286 348
#     4   9  19  32  56  80 110 152 189 243 286 348
#     4   9  20  35  56  84 116 147 205 239 288 346
#     4   9  17  32  54  86 112 141 194 240 288 338
#     4  12  20  34  66  88 112 148 202 250 292 338
#     4  10  21  36  60  89 110 150 200 248 283 351
#     4  10  19  34  59  87 110 156 196 243 291 349
#
# _framework density 24.330850999999999
#
# number of rings (size 3 to 8) (size 9 to 14) (size 15 to 20)
#    0.000    2.133    2.667    0.400    3.733    3.200 
#    0.000    2.000    2.933    0.800    0.000    0.000 
#    0.000    0.000    0.000    0.000    0.000    0.000 
#
# Total GULP energy -167276.183896 kJ/mol
# GULP energy per Si atom -5575.872797 kJ/mol
# Density = 2.427547 g / cm^3
# Si number density = 24.330851 Si / 1000 Ang^3
#
#
#
# Elastic Constant Matrix: (Units=GPa)
#
#
# Indices 1 2 3 4 5 6 
#
# 1 143.2551 13.5529 27.4002 0.0000 26.0130 0.0000
# 2 13.5529 15.8697 11.1606 -0.0001 7.2042 0.0001
# 3 27.4002 11.1606 89.9060 -0.0001 8.4083 0.0000
# 4 0.0000 -0.0001 -0.0001 22.0331 0.0000 -3.9849
# 5 26.0130 7.2042 8.4083 0.0000 36.3542 0.0000
# 6 0.0000 0.0001 0.0000 -3.9849 0.0000 19.8949
#
#
#
# Elastic Compliance Matrix: (Units=1/GPa)
#
#
# Indices 1 2 3 4 5 6 
#
# 1 0.008571 -0.003890 -0.001664 0.000000 -0.004977 0.000000
# 2 -0.003890 0.076297 -0.007290 0.000000 -0.010650 0.000000
# 3 -0.001664 -0.007290 0.012560 0.000000 -0.000270 0.000000
# 4 0.000000 0.000000 0.000000 0.047092 0.000000 0.009432
# 5 -0.004977 -0.010650 -0.000270 0.000000 0.033241 0.000000
# 6 0.000000 0.000000 0.000000 0.009432 0.000000 0.052154
#
#
# Mechanical properties :
#
#
# Convention : Reuss Voigt Hill
#
# Bulk Modulus (GPa) = 13.93913 39.25090 26.59501
# Shear Modulus (GPa) = 17.88818 28.78424 23.33621
#
# Velocity S-wave (km/s) = 2.71441 3.44326 3.10033
# Velocity P-wave (km/s) = 3.94531 5.65466 4.87548
#
# Compressibility (1/GPa) = 0.07174048
#
# Stress axis : x y z
#
# Youngs Moduli (GPa) = 116.67907 13.10673 79.61843
#
# Poissons Ratio (x) = 0.05099 0.13246
# Poissons Ratio (y) = 0.45389 0.58039
# Poissons Ratio (z) = 0.19411 0.09554
#
# Static dielectric constant tensor:
#      x y z
#    x 1.933610 0.000000 -0.043860 
#    y 0.000000 2.057680 0.000000 
#    z -0.043860 0.000000 2.007760 
# 
# From -- ./inp_files/257206.got.cif
#   From: 2010.05.17/outbox.cif.g08.bks.cpg/sg15_129_cif.got.tgz:257206.got - 2010.06.03 18:47:42.
