data_PCOD9259687
_publ_section_title
;
Structure prediction by ZEFSAII (Michael W. Deem and Ramdas Pophale) SiO2 
 PCOD9259687
Probable space group: C 2/C
;
_chemical_formula_sum "Si O2"
_cell_formula_units_Z 48
_cell_length_a 9.094000
_cell_length_b 11.321910
_cell_length_c 21.266885
_cell_angle_alpha 90.000000
_cell_angle_beta 91.196542
_cell_angle_gamma 90.000000
_cell_volume 2189.191840
_symmetry_space_group_name_H-M "C 2/C"
_symmetry_group_IT_number 15
_symmetry_cell_setting 'monoclinic'
loop_
_space_group_symop_operation_xyz
x,y,z
-x,y,1/2-z
-x,-y,-z
x,-y,1/2+z
1/2+x,1/2+y,z
1/2-x,1/2+y,1/2-z
1/2-x,1/2-y,-z
1/2+x,1/2-y,1/2+z
loop_
_atom_site_type_symbol
_atom_site_label
_atom_site_fract_x
_atom_site_fract_y
_atom_site_fract_z
Si Si1 0.705112 0.226126 0.294348
Si Si2 0.225224 0.839457 0.941485
Si Si3 0.806412 0.500529 0.133003
Si Si4 0.103661 0.210554 0.657134
Si Si5 0.542466 0.796621 0.112111
Si Si6 0.657901 0.066807 0.502314
O O1 0.566415 0.288607 0.326779
O O2 0.692490 0.256640 0.221299
O O3 0.853551 0.265289 0.329395
O O4 0.685627 0.086899 0.307862
O O5 0.356333 0.808583 0.894366
O O6 0.074767 0.804053 0.906229
O O7 0.232540 0.971870 0.965814
O O8 0.250000 0.750000 0.000000
O O9 0.666211 0.414267 0.134441
O O10 0.944317 0.411864 0.128195
O O11 0.800423 0.580299 0.070016
O O12 0.633799 0.826179 0.049589
O O13 0.500000 0.000000 0.500000
#
# Coordination Sequence:
#
# PCOD9259687 Si02
#       6
#     8   8   8   8   8   8
#     4  11  25  42  62  95 127 165 210 255 312 370
#     4  11  19  38  66  91 123 166 206 255 314 362
#     4  10  22  41  65  89 126 164 208 254 309 371
#     4  10  23  42  63  88 131 165 205 262 305 376
#     4  10  23  39  65  96 123 164 208 257 309 375
#     4  10  18  35  63  92 123 161 205 253 309 367
#
# _framework density 21.925901
#
# number of rings (size 3 to 8) (size 9 to 14) (size 15 to 20)
#    0.000    1.667    5.000    2.000    0.000    8.667 
#    0.000    6.667    0.000    0.000    0.000    0.000 
#    0.000    0.000    0.000    0.000    0.000    0.000 
#
# Total GULP energy -134218.782314 kJ/mol
# GULP energy per Si atom -5592.449263 kJ/mol
# Density = 2.187600 g / cm^3
# Si number density = 21.925901 Si / 1000 Ang^3
#
#
#
# Elastic Constant Matrix: (Units=GPa)
#
#
# Indices 1 2 3 4 5 6 
#
# 1 72.9102 23.9401 22.0078 0.0000 26.2128 0.0000
# 2 23.9401 52.0859 0.3607 0.0000 2.7203 0.0000
# 3 22.0078 0.3607 78.2989 0.0000 -0.4277 0.0000
# 4 0.0000 0.0000 0.0000 23.6998 0.0000 -1.0666
# 5 26.2128 2.7203 -0.4277 0.0000 36.1469 0.0000
# 6 0.0000 0.0000 0.0000 -1.0666 0.0000 21.9632
#
#
#
# Elastic Compliance Matrix: (Units=1/GPa)
#
#
# Indices 1 2 3 4 5 6 
#
# 1 0.026088 -0.010990 -0.007381 0.000000 -0.018178 0.000000
# 2 -0.010990 0.023905 0.003013 0.000000 0.006206 0.000000
# 3 -0.007381 0.003013 0.014861 0.000000 0.005302 0.000000
# 4 0.000000 0.000000 0.000000 0.042287 0.000000 0.002054
# 5 -0.018178 0.006206 0.005302 0.000000 0.040443 0.000000
# 6 0.000000 0.000000 0.000000 0.002054 0.000000 0.045630
#
#
# Mechanical properties :
#
#
# Convention : Reuss Voigt Hill
#
# Bulk Modulus (GPa) = 29.29342 32.87914 31.08628
# Shear Modulus (GPa) = 21.24850 26.82775 24.03812
#
# Velocity S-wave (km/s) = 3.11642 3.50174 3.31469
# Velocity P-wave (km/s) = 5.13212 5.60158 5.37198
#
# Compressibility (1/GPa) = 0.03413736
#
# Stress axis : x y z
#
# Youngs Moduli (GPa) = 38.33234 41.83154 67.28879
#
# Poissons Ratio (x) = 0.45973 0.49667
# Poissons Ratio (y) = 0.42128 -0.20273
# Poissons Ratio (z) = 0.28294 -0.12603
#
# Static dielectric constant tensor:
#      x y z
#    x 1.816210 0.000000 -0.020600 
#    y 0.000000 1.813720 0.000000 
#    z -0.020600 0.000000 1.787220 
# 
# From -- ./inp_files/263167.got.cif
#   From: 2010.05.17/outbox.cif.g08.bks.cpg/sg15_132_cif.got.tgz:263167.got - 2010.06.03 18:47:42.
