data_PCOD9259014
_publ_section_title
;
Structure prediction by ZEFSAII (Michael W. Deem and Ramdas Pophale) SiO2 
 PCOD9259014
Probable space group: C 2/C
;
_chemical_formula_sum "Si O2"
_cell_formula_units_Z 64
_cell_length_a 25.089289
_cell_length_b 18.576853
_cell_length_c 14.881535
_cell_angle_alpha 90.000000
_cell_angle_beta 154.010059
_cell_angle_gamma 90.000000
_cell_volume 3039.441774
_symmetry_space_group_name_H-M "C 2/C"
_symmetry_group_IT_number 15
_symmetry_cell_setting 'monoclinic'
loop_
_space_group_symop_operation_xyz
x,y,z
-x,y,1/2-z
-x,-y,-z
x,-y,1/2+z
1/2+x,1/2+y,z
1/2-x,1/2+y,1/2-z
1/2-x,1/2-y,-z
1/2+x,1/2-y,1/2+z
loop_
_atom_site_type_symbol
_atom_site_label
_atom_site_fract_x
_atom_site_fract_y
_atom_site_fract_z
Si Si1 0.135112 0.491491 0.245139
Si Si2 0.463674 0.249796 0.955955
Si Si3 0.268752 0.136599 0.701422
Si Si4 0.354156 0.127861 0.027632
Si Si5 0.786873 0.158563 0.301339
Si Si6 0.143995 0.545139 0.958884
Si Si7 0.071535 0.231238 0.436167
Si Si8 0.202160 0.657579 0.367243
O O1 0.209495 0.446286 0.285682
O O2 0.159940 0.447839 0.375113
O O3 0.167107 0.573586 0.310148
O O4 0.000000 0.500000 0.000000
O O5 0.362503 0.187181 0.789494
O O6 0.407476 0.309039 0.937835
O O7 0.494047 0.284298 0.906298
O O8 0.584917 0.207933 0.171194
O O9 0.132194 0.161891 0.482700
O O10 0.302833 0.153202 0.855812
O O11 0.500000 0.143061 0.250000
O O12 0.280647 0.164817 0.998688
O O13 0.341163 0.041117 0.005523
O O14 0.794871 0.159362 0.423011
O O15 0.730829 0.089827 0.159588
O O16 0.680540 0.216142 0.125359
O O17 0.000000 0.560967 0.750000
O O18 0.000000 0.270749 0.250000
#
# Coordination Sequence:
#
# PCOD9259014 Si02
#       8
#     8   8   8   8   8   8   8   8
#     4  11  19  31  57  84 117 146 185 251 293 350
#     4  10  21  37  54  79 119 150 193 236 285 347
#     4  11  21  35  58  85 114 155 197 236 304 339
#     4  10  18  34  58  84 117 147 187 256 296 341
#     4  10  21  34  56  82 115 158 195 234 288 354
#     4  10  20  29  53  88 114 146 187 239 312 343
#     4  10  24  37  53  80 121 160 194 235 281 362
#     4  10  19  36  55  85 116 144 193 247 294 341
#
# _framework density 21.056498000000001
#
# number of rings (size 3 to 8) (size 9 to 14) (size 15 to 20)
#    0.000    1.750    2.500    3.375    5.250    1.000 
#    0.000    6.875    0.000    3.000    0.000    0.000 
#    0.000    0.000    0.000    0.000    0.000    0.000 
#
# Total GULP energy -178222.534575 kJ/mol
# GULP energy per Si atom -5569.454205 kJ/mol
# Density = 2.100857 g / cm^3
# Si number density = 21.056498 Si / 1000 Ang^3
#
#
#
# Elastic Constant Matrix: (Units=GPa)
#
#
# Indices 1 2 3 4 5 6 
#
# 1 123.6866 31.6643 17.4616 0.0000 3.1606 0.0000
# 2 31.6643 63.2083 26.0757 0.0000 6.9798 0.0000
# 3 17.4616 26.0757 26.5691 0.0000 -0.6523 0.0000
# 4 0.0000 0.0000 0.0000 7.1620 0.0000 -33.1481
# 5 3.1606 6.9798 -0.6523 0.0000 21.6528 0.0000
# 6 0.0000 0.0000 0.0000 -33.1481 0.0000 -33.0108
#
#
#
# Elastic Compliance Matrix: (Units=1/GPa)
#
#
# Indices 1 2 3 4 5 6 
#
# 1 0.009383 -0.003562 -0.002678 0.000000 -0.000302 0.000000
# 2 -0.003562 0.029978 -0.027325 0.000000 -0.009967 0.000000
# 3 -0.002678 -0.027325 0.066490 0.000000 0.011202 0.000000
# 4 0.000000 0.000000 0.000000 0.024723 0.000000 -0.024826
# 5 -0.000302 -0.009967 0.011202 0.000000 0.049778 0.000000
# 6 0.000000 0.000000 0.000000 -0.024826 0.000000 -0.005364
#
#
# Mechanical properties :
#
#
# Convention : Reuss Voigt Hill
#
# Bulk Modulus (GPa) = 25.82581 40.42967 33.12774
# Shear Modulus (GPa) = 19.60591 8.37830 13.99210
#
# Velocity S-wave (km/s) = 3.05472 1.99690 2.58059
# Velocity P-wave (km/s) = 4.97327 4.95571 4.96450
#
# Compressibility (1/GPa) = 0.03872095
#
# Stress axis : x y z
#
# Youngs Moduli (GPa) = 106.57966 33.35733 15.03984
#
# Poissons Ratio (x) = 0.11883 0.04027
# Poissons Ratio (y) = 0.37967 0.41097
# Poissons Ratio (z) = 0.28539 0.91149
#
# Static dielectric constant tensor:
#      x y z
#    x 1.900180 0.000000 -0.014350 
#    y 0.000000 1.767240 0.000000 
#    z -0.014350 0.000000 1.845630 
# 
# From -- ./inp_files/174242.got.cif
#   From: 2010.05.17/outbox.cif.g08.bks.cpg/sg15_88_cif.got.tgz:174242.got - 2010.06.03 18:47:42.
