data_PCOD9259526
_publ_section_title
;
Structure prediction by ZEFSAII (Michael W. Deem and Ramdas Pophale) SiO2 
 PCOD9259526
Probable space group: C 2/C
;
_chemical_formula_sum "Si O2"
_cell_formula_units_Z 48
_cell_length_a 14.026430
_cell_length_b 12.122669
_cell_length_c 21.112298
_cell_angle_alpha 90.000000
_cell_angle_beta 40.105642
_cell_angle_gamma 90.000000
_cell_volume 2312.602099
_symmetry_space_group_name_H-M "C 2/C"
_symmetry_group_IT_number 15
_symmetry_cell_setting 'monoclinic'
loop_
_space_group_symop_operation_xyz
x,y,z
-x,y,1/2-z
-x,-y,-z
x,-y,1/2+z
1/2+x,1/2+y,z
1/2-x,1/2+y,1/2-z
1/2-x,1/2-y,-z
1/2+x,1/2-y,1/2+z
loop_
_atom_site_type_symbol
_atom_site_label
_atom_site_fract_x
_atom_site_fract_y
_atom_site_fract_z
Si Si1 0.500000 0.217364 0.750000
Si Si2 0.818009 0.124379 0.587308
Si Si3 0.967001 0.105620 0.374060
Si Si4 0.500000 0.200219 0.250000
Si Si5 0.822858 0.122283 0.924015
Si Si6 0.222073 0.893643 0.829888
Si Si7 0.916493 0.754241 0.499391
O O1 0.646492 0.147052 0.684792
O O2 0.538788 0.294161 0.670852
O O3 0.874496 0.126740 0.485979
O O4 0.912587 0.214100 0.579518
O O5 0.838234 0.000937 0.602896
O O6 0.141227 0.092367 0.303875
O O7 0.895570 0.996476 0.379549
O O8 0.591845 0.283811 0.159101
O O9 0.606044 0.126600 0.241325
O O10 0.848467 0.158452 0.983564
O O11 0.651554 0.139065 0.990308
O O12 0.149858 0.784996 0.898556
#
# Coordination Sequence:
#
# PCOD9259526 Si02
#       7
#     4   8   8   4   8   8   8
#     4  12  28  38  58  90 126 160 194 244 314 350
#     4  11  21  43  60  85 118 163 204 241 287 368
#     4  11  22  41  62  83 122 163 198 247 300 352
#     4  10  22  30  56  98 122 140 200 256 296 350
#     4  10  18  35  59  87 116 148 192 249 296 340
#     4  10  19  37  61  87 115 159 200 241 292 351
#     4   9  18  34  62  85 109 150 197 242 290 341
#
# _framework density 20.755841
#
# number of rings (size 3 to 8) (size 9 to 14) (size 15 to 20)
#    0.000    1.667    3.333    2.500    2.333    0.000 
#    0.000    0.833    0.000    0.000    0.000    0.000 
#    0.000    0.000    0.000    0.000    0.000    0.000 
#
# Total GULP energy -133703.471947 kJ/mol
# GULP energy per Si atom -5570.977998 kJ/mol
# Density = 2.070860 g / cm^3
# Si number density = 20.755841 Si / 1000 Ang^3
#
#
#
# Elastic Constant Matrix: (Units=GPa)
#
#
# Indices 1 2 3 4 5 6 
#
# 1 94.0825 37.0416 6.3685 0.0000 -36.4364 0.0000
# 2 37.0416 63.7864 7.7157 0.0000 -10.1326 0.0000
# 3 6.3685 7.7157 31.5697 0.0000 -16.5140 0.0000
# 4 0.0000 0.0000 0.0000 23.1349 0.0000 -4.6081
# 5 -36.4364 -10.1326 -16.5140 0.0000 43.2344 0.0000
# 6 0.0000 0.0000 0.0000 -4.6081 0.0000 26.0228
#
#
#
# Elastic Compliance Matrix: (Units=1/GPa)
#
#
# Indices 1 2 3 4 5 6 
#
# 1 0.021429 -0.010446 0.007994 0.000000 0.018665 0.000000
# 2 -0.010446 0.021533 -0.006399 0.000000 -0.006201 0.000000
# 3 0.007994 -0.006399 0.042948 0.000000 0.021642 0.000000
# 4 0.000000 0.000000 0.000000 0.044805 0.000000 0.007934
# 5 0.018665 -0.006201 0.021642 0.000000 0.045673 0.000000
# 6 0.000000 0.000000 0.000000 0.007934 0.000000 0.039833
#
#
# Mechanical properties :
#
#
# Convention : Reuss Voigt Hill
#
# Bulk Modulus (GPa) = 14.66142 32.41001 23.53572
# Shear Modulus (GPa) = 19.48108 27.69928 23.59018
#
# Velocity S-wave (km/s) = 3.06695 3.65708 3.37494
# Velocity P-wave (km/s) = 4.42953 5.78629 5.15276
#
# Compressibility (1/GPa) = 0.06820622
#
# Stress axis : x y z
#
# Youngs Moduli (GPa) = 46.66527 46.44141 23.28394
#
# Poissons Ratio (x) = 0.48514 -0.18612
# Poissons Ratio (y) = 0.48747 0.14900
# Poissons Ratio (z) = -0.37303 0.29719
#
# Static dielectric constant tensor:
#      x y z
#    x 1.844270 0.000000 -0.027460 
#    y 0.000000 1.707070 0.000000 
#    z -0.027460 0.000000 1.832450 
# 
# From -- ./inp_files/143846.got.cif
#   From: 2010.05.17/outbox.cif.g08.bks.cpg/sg15_72_cif.got.tgz:143846.got - 2010.06.03 18:47:42.
