data_PCOD9259239
_publ_section_title
;
Structure prediction by ZEFSAII (Michael W. Deem and Ramdas Pophale) SiO2 
 PCOD9259239
Probable space group: C 2/C
;
_chemical_formula_sum "Si O2"
_cell_formula_units_Z 60
_cell_length_a 19.975945
_cell_length_b 12.668698
_cell_length_c 11.402387
_cell_angle_alpha 90.000000
_cell_angle_beta 58.416788
_cell_angle_gamma 90.000000
_cell_volume 2458.180305
_symmetry_space_group_name_H-M "C 2/C"
_symmetry_group_IT_number 15
_symmetry_cell_setting 'monoclinic'
loop_
_space_group_symop_operation_xyz
x,y,z
-x,y,1/2-z
-x,-y,-z
x,-y,1/2+z
1/2+x,1/2+y,z
1/2-x,1/2+y,1/2-z
1/2-x,1/2-y,-z
1/2+x,1/2-y,1/2+z
loop_
_atom_site_type_symbol
_atom_site_label
_atom_site_fract_x
_atom_site_fract_y
_atom_site_fract_z
Si Si1 0.960305 0.262134 0.545444
Si Si2 0.328954 0.658878 0.961558
Si Si3 0.195324 0.370442 0.756462
Si Si4 0.500000 0.206817 0.750000
Si Si5 0.654140 0.096513 0.704025
Si Si6 0.111548 0.360095 0.489201
Si Si7 0.480228 0.557829 0.898415
Si Si8 0.241265 0.517853 0.427974
O O1 0.870753 0.295980 0.631824
O O2 0.983864 0.234798 0.389058
O O3 0.020718 0.354170 0.533740
O O4 0.973889 0.167864 0.624050
O O5 0.249103 0.677904 0.106887
O O6 0.374082 0.769970 0.927121
O O7 0.388318 0.584202 0.979004
O O8 0.300271 0.580430 0.885134
O O9 0.150836 0.474782 0.749383
O O10 0.253079 0.412034 0.804395
O O11 0.577813 0.137678 0.705472
O O12 0.656358 0.161812 0.823715
O O13 0.731319 0.091513 0.551247
O O14 0.153912 0.465477 0.493932
O O15 0.500000 0.485101 0.250000
O O16 0.500000 0.500000 0.000000
#
# Coordination Sequence:
#
# PCOD9259239 Si02
#       8
#     8   8   8   4   8   8   8   8
#     4  10  22  40  65  99 137 179 236 282 347 424
#     4  10  23  43  63  93 131 171 225 289 346 413
#     4  10  21  37  61 101 132 173 222 286 355 415
#     4  10  18  34  62  92 142 180 218 278 340 416
#     4   9  19  31  54  91 127 170 214 268 338 413
#     4   9  20  36  57  84 130 176 221 268 339 411
#     4  11  28  51  76 102 130 186 245 293 344 412
#     4  10  19  35  60  91 130 172 213 275 351 411
#
# _framework density 24.408297999999998
#
# number of rings (size 3 to 8) (size 9 to 14) (size 15 to 20)
#    0.000    2.133    1.333    0.400    4.667    6.933 
#    4.800    0.667    0.000    0.000    0.000    0.000 
#    0.000    0.000    0.000    0.000    0.000    0.000 
#
# Total GULP energy -167353.405100 kJ/mol
# GULP energy per Si atom -5578.446837 kJ/mol
# Density = 2.435274 g / cm^3
# Si number density = 24.408298 Si / 1000 Ang^3
#
#
#
# Elastic Constant Matrix: (Units=GPa)
#
#
# Indices 1 2 3 4 5 6 
#
# 1 72.4526 1.2281 24.3222 0.0000 14.4968 0.0000
# 2 1.2281 27.3953 11.1736 0.0000 6.0480 0.0000
# 3 24.3222 11.1736 105.9421 0.0000 16.3030 0.0000
# 4 0.0000 0.0000 0.0000 30.9746 0.0000 11.0200
# 5 14.4968 6.0480 16.3030 0.0000 35.9061 0.0000
# 6 0.0000 0.0000 0.0000 11.0200 0.0000 34.6319
#
#
#
# Elastic Compliance Matrix: (Units=1/GPa)
#
#
# Indices 1 2 3 4 5 6 
#
# 1 0.015844 0.001687 -0.002997 0.000000 -0.005320 0.000000
# 2 0.001687 0.039157 -0.003653 0.000000 -0.005618 0.000000
# 3 -0.002997 -0.003653 0.011000 0.000000 -0.003169 0.000000
# 4 0.000000 0.000000 0.000000 0.036406 0.000000 -0.011585
# 5 -0.005320 -0.005618 -0.003169 0.000000 0.032384 0.000000
# 6 0.000000 0.000000 0.000000 -0.011585 0.000000 0.032561
#
#
# Mechanical properties :
#
#
# Convention : Reuss Voigt Hill
#
# Bulk Modulus (GPa) = 17.83298 31.02641 24.42969
# Shear Modulus (GPa) = 25.51417 31.57360 28.54388
#
# Velocity S-wave (km/s) = 3.23663 3.60051 3.42341
# Velocity P-wave (km/s) = 4.61407 5.47941 5.06525
#
# Compressibility (1/GPa) = 0.05607588
#
# Stress axis : x y z
#
# Youngs Moduli (GPa) = 63.11523 25.53820 90.90867
#
# Poissons Ratio (x) = -0.04307 0.27242
# Poissons Ratio (y) = -0.10645 0.33205
# Poissons Ratio (z) = 0.18913 0.09328
#
# Static dielectric constant tensor:
#      x y z
#    x 1.931860 0.000000 0.040140 
#    y 0.000000 1.956710 0.000000 
#    z 0.040140 0.000000 2.054040 
# 
# From -- ./inp_files/105686.got.cif
#   From: 2010.05.17/outbox.cif.g08.bks.cpg/sg15_53_cif.got.tgz:105686.got - 2010.06.03 18:47:42.
