data_PCOD9259081
_publ_section_title
;
Structure prediction by ZEFSAII (Michael W. Deem and Ramdas Pophale) SiO2 
 PCOD9259081
Probable space group: C 2/C
;
_chemical_formula_sum "Si O2"
_cell_formula_units_Z 44
_cell_length_a 7.891823
_cell_length_b 15.829041
_cell_length_c 15.603048
_cell_angle_alpha 90.000000
_cell_angle_beta 87.615598
_cell_angle_gamma 90.000000
_cell_volume 1947.445025
_symmetry_space_group_name_H-M "C 2/C"
_symmetry_group_IT_number 15
_symmetry_cell_setting 'monoclinic'
loop_
_space_group_symop_operation_xyz
x,y,z
-x,y,1/2-z
-x,-y,-z
x,-y,1/2+z
1/2+x,1/2+y,z
1/2-x,1/2+y,1/2-z
1/2-x,1/2-y,-z
1/2+x,1/2-y,1/2+z
loop_
_atom_site_type_symbol
_atom_site_label
_atom_site_fract_x
_atom_site_fract_y
_atom_site_fract_z
Si Si1 0.000000 0.295998 0.250000
Si Si2 0.897753 0.980120 0.679832
Si Si3 0.087440 0.436186 0.120155
Si Si4 0.371252 0.099918 0.186406
Si Si5 0.894615 0.182204 0.096799
Si Si6 0.511733 0.821419 0.532860
O O1 0.102447 0.361479 0.189419
O O2 0.097157 0.239363 0.317500
O O3 0.782277 0.927738 0.750516
O O4 0.979446 0.906903 0.619819
O O5 0.000000 0.032466 0.750000
O O6 0.776641 0.028113 0.617206
O O7 0.962473 0.512463 0.152293
O O8 0.015552 0.394993 0.036245
O O9 0.500000 0.142313 0.250000
O O10 0.367356 0.163023 0.106766
O O11 0.698835 0.169431 0.071568
O O12 0.985159 0.233739 0.018771
#
# Coordination Sequence:
#
# PCOD9259081 Si02
#       6
#     4   8   8   8   8   8
#     4  10  18  36  60  88 124 162 198 246 296 372
#     4  11  21  37  60  87 122 167 204 253 306 356
#     4  10  19  36  64  87 117 154 218 245 292 363
#     4  10  18  34  59  87 113 158 207 250 287 365
#     4  10  20  33  60  93 121 155 196 255 310 361
#     4  10  20  35  61  94 117 156 208 254 302 364
#
# _framework density 22.593705
#
# number of rings (size 3 to 8) (size 9 to 14) (size 15 to 20)
#    0.000    1.818    7.273    0.545    0.000    0.000 
#    0.000    1.818    4.000    0.000    0.000    0.000 
#    0.000    0.000    0.000    0.000    0.000    0.000 
#
# Total GULP energy -122571.763728 kJ/mol
# GULP energy per Si atom -5571.443806 kJ/mol
# Density = 2.254228 g / cm^3
# Si number density = 22.593705 Si / 1000 Ang^3
#
#
#
# Elastic Constant Matrix: (Units=GPa)
#
#
# Indices 1 2 3 4 5 6 
#
# 1 27.9896 6.9722 16.3752 0.0000 13.9271 0.0000
# 2 6.9722 80.3383 31.3748 0.0000 12.1625 0.0000
# 3 16.3752 31.3748 124.6229 0.0000 15.5836 0.0000
# 4 0.0000 0.0000 0.0000 25.7025 0.0000 11.4025
# 5 13.9271 12.1625 15.5836 0.0000 40.6858 0.0000
# 6 0.0000 0.0000 0.0000 11.4025 0.0000 22.4260
#
#
#
# Elastic Compliance Matrix: (Units=1/GPa)
#
#
# Indices 1 2 3 4 5 6 
#
# 1 0.045058 -0.000206 -0.004146 0.000000 -0.013774 0.000000
# 2 -0.000206 0.014148 -0.003166 0.000000 -0.002946 0.000000
# 3 -0.004146 -0.003166 0.009527 0.000000 -0.001283 0.000000
# 4 0.000000 0.000000 0.000000 0.050239 0.000000 -0.025544
# 5 -0.013774 -0.002946 -0.001283 0.000000 0.030666 0.000000
# 6 0.000000 0.000000 0.000000 -0.025544 0.000000 0.057579
#
#
# Mechanical properties :
#
#
# Convention : Reuss Voigt Hill
#
# Bulk Modulus (GPa) = 18.62348 38.04390 28.33369
# Shear Modulus (GPa) = 20.82012 29.64477 25.23244
#
# Velocity S-wave (km/s) = 3.03892 3.62620 3.34547
# Velocity P-wave (km/s) = 4.53586 5.86577 5.24315
#
# Compressibility (1/GPa) = 0.05369565
#
# Stress axis : x y z
#
# Youngs Moduli (GPa) = 22.19344 70.68229 104.96898
#
# Poissons Ratio (x) = 0.01455 0.43524
# Poissons Ratio (y) = 0.00457 0.33237
# Poissons Ratio (z) = 0.09202 0.22381
#
# Static dielectric constant tensor:
#      x y z
#    x 1.936520 0.000000 0.027470 
#    y 0.000000 1.865000 0.000000 
#    z 0.027470 0.000000 1.892240 
# 
# From -- ./inp_files/134522.got.cif
#   From: 2010.05.17/outbox.cif.g08.bks.cpg/sg15_68_cif.got.tgz:134522.got - 2010.06.03 18:47:42.
