data_PCOD9259406
_publ_section_title
;
Structure prediction by ZEFSAII (Michael W. Deem and Ramdas Pophale) SiO2 
 PCOD9259406
Probable space group: C 2/C
;
_chemical_formula_sum "Si O2"
_cell_formula_units_Z 56
_cell_length_a 13.399723
_cell_length_b 12.109001
_cell_length_c 21.535260
_cell_angle_alpha 90.000000
_cell_angle_beta 133.102145
_cell_angle_gamma 90.000000
_cell_volume 2551.281804
_symmetry_space_group_name_H-M "C 2/C"
_symmetry_group_IT_number 15
_symmetry_cell_setting 'monoclinic'
loop_
_space_group_symop_operation_xyz
x,y,z
-x,y,1/2-z
-x,-y,-z
x,-y,1/2+z
1/2+x,1/2+y,z
1/2-x,1/2+y,1/2-z
1/2-x,1/2-y,-z
1/2+x,1/2-y,1/2+z
loop_
_atom_site_type_symbol
_atom_site_label
_atom_site_fract_x
_atom_site_fract_y
_atom_site_fract_z
Si Si1 0.480145 0.623530 0.335640
Si Si2 0.814321 0.292520 0.091323
Si Si3 0.459595 0.014814 0.160215
Si Si4 0.976798 0.134367 0.666400
Si Si5 0.750110 0.203154 0.410813
Si Si6 0.685247 0.816277 0.734779
Si Si7 0.531445 0.370742 0.003025
O O1 0.592808 0.692146 0.345982
O O2 0.504982 0.493320 0.340310
O O3 0.325668 0.663243 0.258998
O O4 0.505454 0.648393 0.419085
O O5 0.915320 0.394476 0.120200
O O6 0.750000 0.250000 0.000000
O O7 0.688746 0.336080 0.080043
O O8 0.500000 0.006331 0.250000
O O9 0.329538 0.095574 0.098144
O O10 0.587434 0.077427 0.184244
O O11 0.093393 0.208416 0.683297
O O12 0.000000 0.146062 0.750000
O O13 0.828239 0.190920 0.594809
O O14 0.720944 0.194874 0.323819
O O15 0.912230 0.195341 0.487893
O O16 0.500000 0.500000 0.000000
#
# Coordination Sequence:
#
# PCOD9259406 Si02
#       7
#     8   8   8   8   8   8   8
#     4  10  21  33  50  81 108 135 176 217 270 324
#     4  10  21  33  50  79 115 140 170 219 278 316
#     4   9  16  30  54  81 100 133 185 229 256 306
#     4   9  18  35  53  75 110 140 168 211 273 325
#     4   8  15  32  56  76  95 138 181 217 259 314
#     4   8  17  31  54  77 102 137 178 218 267 311
#     4  10  18  35  57  73  98 140 186 221 254 306
#
# _framework density 21.949750999999999
#
# number of rings (size 3 to 8) (size 9 to 14) (size 15 to 20)
#    0.000    2.857    1.429    1.714    2.000    0.571 
#    0.000    2.857    0.000    0.000    0.000    0.000 
#    0.000    0.000    0.000    0.000    0.000    0.000 
#
# Total GULP energy -156258.280071 kJ/mol
# GULP energy per Si atom -5580.652860 kJ/mol
# Density = 2.189979 g / cm^3
# Si number density = 21.949751 Si / 1000 Ang^3
#
#
#
# Elastic Constant Matrix: (Units=GPa)
#
#
# Indices 1 2 3 4 5 6 
#
# 1 105.1245 59.8282 50.1490 0.0000 39.2075 0.0000
# 2 59.8282 172.9833 61.6466 0.0000 53.9453 0.0000
# 3 50.1490 61.6466 86.4604 0.0000 35.3253 0.0000
# 4 0.0000 0.0000 0.0000 32.4410 0.0000 2.5005
# 5 39.2075 53.9453 35.3253 0.0000 55.1847 0.0000
# 6 0.0000 0.0000 0.0000 2.5005 0.0000 28.1989
#
#
#
# Elastic Compliance Matrix: (Units=1/GPa)
#
#
# Indices 1 2 3 4 5 6 
#
# 1 0.015071 -0.001506 -0.005274 0.000000 -0.005860 0.000000
# 2 -0.001506 0.009347 -0.003379 0.000000 -0.005905 0.000000
# 3 -0.005274 -0.003379 0.019166 0.000000 -0.005219 0.000000
# 4 0.000000 0.000000 0.000000 0.031037 0.000000 -0.002752
# 5 -0.005860 -0.005905 -0.005219 0.000000 0.031397 0.000000
# 6 0.000000 0.000000 0.000000 -0.002752 0.000000 0.035706
#
#
# Mechanical properties :
#
#
# Convention : Reuss Voigt Hill
#
# Bulk Modulus (GPa) = 42.97754 78.64620 60.81187
# Shear Modulus (GPa) = 29.44692 36.02790 32.73741
#
# Velocity S-wave (km/s) = 3.66671 4.05579 3.86615
# Velocity P-wave (km/s) = 6.12771 7.60529 6.90613
#
# Compressibility (1/GPa) = 0.02326797
#
# Stress axis : x y z
#
# Youngs Moduli (GPa) = 66.35427 106.98497 52.17475
#
# Poissons Ratio (x) = 0.16107 0.27515
# Poissons Ratio (y) = 0.09990 0.17629
# Poissons Ratio (z) = 0.34993 0.36148
#
# Static dielectric constant tensor:
#      x y z
#    x 1.937210 0.000000 -0.052060 
#    y 0.000000 1.798860 0.000000 
#    z -0.052060 0.000000 1.878150 
# 
# From -- ./inp_files/247981.got.cif
#   From: 2010.05.17/outbox.cif.g08.bks.cpg/sg15_124_cif.got.tgz:247981.got - 2010.06.03 18:47:42.
