data_PCOD9259157
_publ_section_title
;
Structure prediction by ZEFSAII (Michael W. Deem and Ramdas Pophale) SiO2 
 PCOD9259157
Probable space group: C 2/C
;
_chemical_formula_sum "Si O2"
_cell_formula_units_Z 52
_cell_length_a 14.979324
_cell_length_b 14.395023
_cell_length_c 14.893192
_cell_angle_alpha 90.000000
_cell_angle_beta 39.283869
_cell_angle_gamma 90.000000
_cell_volume 2033.330061
_symmetry_space_group_name_H-M "C 2/C"
_symmetry_group_IT_number 15
_symmetry_cell_setting 'monoclinic'
loop_
_space_group_symop_operation_xyz
x,y,z
-x,y,1/2-z
-x,-y,-z
x,-y,1/2+z
1/2+x,1/2+y,z
1/2-x,1/2+y,1/2-z
1/2-x,1/2-y,-z
1/2+x,1/2-y,1/2+z
loop_
_atom_site_type_symbol
_atom_site_label
_atom_site_fract_x
_atom_site_fract_y
_atom_site_fract_z
Si Si1 0.051814 0.143890 0.398546
Si Si2 0.000000 0.232534 0.750000
Si Si3 0.701322 0.425764 0.100083
Si Si4 0.460413 0.898642 0.655984
Si Si5 0.500000 0.579985 0.250000
Si Si6 0.691506 0.458056 0.312444
Si Si7 0.000000 0.553864 0.750000
Si Si8 0.010571 0.357693 0.424411
O O1 0.050516 0.252609 0.418949
O O2 0.059359 0.139107 0.285240
O O3 0.905618 0.101689 0.547025
O O4 0.162484 0.068157 0.351040
O O5 0.872614 0.166189 0.880064
O O6 0.057255 0.299289 0.783810
O O7 0.628646 0.515766 0.113703
O O8 0.643713 0.438365 0.246983
O O9 0.869116 0.418710 0.974174
O O10 0.425836 0.896184 0.576759
O O11 0.405684 0.977251 0.768458
O O12 0.843802 0.412582 0.191854
O O13 0.052360 0.619613 0.626230
#
# Coordination Sequence:
#
# PCOD9259157 Si02
#       8
#     8   4   8   8   4   8   4   8
#     4  10  20  41  64  93 124 163 213 259 308 376
#     4  10  18  34  60  94 120 164 206 256 316 376
#     4   9  18  35  57  87 124 159 205 257 312 370
#     4  10  22  39  59  89 126 163 207 263 316 371
#     4   9  19  33  59  86 122 156 206 258 298 370
#     4   9  21  40  63  92 126 166 211 258 315 362
#     4  11  25  43  61  88 130 170 210 258 322 376
#     4  11  23  44  64  93 125 168 211 261 317 380
#
# _framework density 25.573810999999999
#
# number of rings (size 3 to 8) (size 9 to 14) (size 15 to 20)
#    0.000    2.154    0.000    2.308    2.154    1.231 
#   22.154    1.538    0.000    0.000    0.000    0.000 
#    0.000    0.000    0.000    0.000    0.000    0.000 
#
# Total GULP energy -145096.033741 kJ/mol
# GULP energy per Si atom -5580.616682 kJ/mol
# Density = 2.551560 g / cm^3
# Si number density = 25.573811 Si / 1000 Ang^3
#
#
#
# Elastic Constant Matrix: (Units=GPa)
#
#
# Indices 1 2 3 4 5 6 
#
# 1 65.8522 16.8319 24.9241 0.0000 25.7499 0.0000
# 2 16.8319 175.2513 27.3054 0.0000 18.1835 0.0000
# 3 24.9241 27.3054 101.2148 0.0000 32.0673 0.0000
# 4 0.0000 0.0000 0.0000 29.6194 0.0000 12.5333
# 5 25.7499 18.1835 32.0673 0.0000 34.9374 0.0000
# 6 0.0000 0.0000 0.0000 12.5333 0.0000 22.7230
#
#
#
# Elastic Compliance Matrix: (Units=1/GPa)
#
#
# Indices 1 2 3 4 5 6 
#
# 1 0.021374 -0.000422 -0.000322 0.000000 -0.015238 0.000000
# 2 -0.000422 0.006098 -0.000894 0.000000 -0.002042 0.000000
# 3 -0.000322 -0.000894 0.014069 0.000000 -0.012211 0.000000
# 4 0.000000 0.000000 0.000000 0.044040 0.000000 -0.024291
# 5 -0.015238 -0.002042 -0.012211 0.000000 0.052124 0.000000
# 6 0.000000 0.000000 0.000000 -0.024291 0.000000 0.057407
#
#
# Mechanical properties :
#
#
# Convention : Reuss Voigt Hill
#
# Bulk Modulus (GPa) = 26.13316 53.38232 39.75774
# Shear Modulus (GPa) = 23.68074 35.67309 29.67692
#
# Velocity S-wave (km/s) = 3.04629 3.73890 3.41022
# Velocity P-wave (km/s) = 4.75542 6.28954 5.57550
#
# Compressibility (1/GPa) = 0.03826555
#
# Stress axis : x y z
#
# Youngs Moduli (GPa) = 46.78673 163.99355 71.07766
#
# Poissons Ratio (x) = 0.06914 0.02286
# Poissons Ratio (y) = 0.01973 0.06356
# Poissons Ratio (z) = 0.01505 0.14665
#
# Static dielectric constant tensor:
#      x y z
#    x 2.244580 0.000000 -0.002310 
#    y 0.000000 2.020220 0.000000 
#    z -0.002310 0.000000 2.063580 
# 
# From -- ./inp_files/105493.got.cif
#   From: 2010.05.17/outbox.cif.g08.bks.cpg/sg15_53_cif.got.tgz:105493.got - 2010.06.03 18:47:42.
