data_PCOD9259510
_publ_section_title
;
Structure prediction by ZEFSAII (Michael W. Deem and Ramdas Pophale) SiO2 
 PCOD9259510
Probable space group: C 2/C
;
_chemical_formula_sum "Si O2"
_cell_formula_units_Z 52
_cell_length_a 26.402407
_cell_length_b 8.976300
_cell_length_c 18.044442
_cell_angle_alpha 90.000000
_cell_angle_beta 136.690698
_cell_angle_gamma 90.000000
_cell_volume 2933.379476
_symmetry_space_group_name_H-M "C 2/C"
_symmetry_group_IT_number 15
_symmetry_cell_setting 'monoclinic'
loop_
_space_group_symop_operation_xyz
x,y,z
-x,y,1/2-z
-x,-y,-z
x,-y,1/2+z
1/2+x,1/2+y,z
1/2-x,1/2+y,1/2-z
1/2-x,1/2-y,-z
1/2+x,1/2-y,1/2+z
loop_
_atom_site_type_symbol
_atom_site_label
_atom_site_fract_x
_atom_site_fract_y
_atom_site_fract_z
Si Si1 0.747017 0.694241 0.894423
Si Si2 0.736642 0.301288 0.071195
Si Si3 0.500000 0.665653 0.750000
Si Si4 0.841501 0.069937 0.573964
Si Si5 0.163801 0.463452 0.587528
Si Si6 0.354886 0.971640 0.757961
Si Si7 0.989224 0.456906 0.654792
O O1 0.709512 0.571940 0.907539
O O2 0.782205 0.606327 0.864138
O O3 0.687302 0.824317 0.818050
O O4 0.814929 0.775831 0.007867
O O5 0.704904 0.174614 0.091392
O O6 0.808361 0.384778 0.180956
O O7 0.750000 0.250000 0.000000
O O8 0.677411 0.434498 0.999372
O O9 0.426580 0.573817 0.684173
O O10 0.486981 0.778944 0.667870
O O11 0.147077 0.449366 0.656169
O O12 0.086622 0.490286 0.462364
O O13 0.437572 0.985410 0.814903
O O14 0.000000 0.520199 0.750000
#
# Coordination Sequence:
#
# PCOD9259510 Si02
#       7
#     8   8   4   8   8   8   8
#     4  10  18  35  59  82 107 157 199 234 280 354
#     4  11  23  39  60  91 119 154 200 250 293 350
#     4  10  18  36  60  90 104 152 202 246 272 352
#     4  10  19  35  61  82 111 147 202 242 278 339
#     4  12  22  38  58  91 125 152 194 252 307 352
#     4  11  23  38  60  86 124 160 193 246 308 351
#     4  10  20  37  63  85 109 158 212 240 279 359
#
# _framework density 17.726993
#
# number of rings (size 3 to 8) (size 9 to 14) (size 15 to 20)
#    0.462    0.923    4.615    2.308    2.154    0.000 
#    4.154    0.000    0.000    0.923    0.000    0.000 
#    0.000    0.000    0.000    0.000    0.000    0.000 
#
# Total GULP energy -144877.467536 kJ/mol
# GULP energy per Si atom -5572.210290 kJ/mol
# Density = 1.768665 g / cm^3
# Si number density = 17.726993 Si / 1000 Ang^3
#
#
#
# Elastic Constant Matrix: (Units=GPa)
#
#
# Indices 1 2 3 4 5 6 
#
# 1 109.6735 44.0272 16.8730 0.0000 -4.6454 0.0000
# 2 44.0272 57.5075 28.2022 0.0000 8.4250 0.0000
# 3 16.8730 28.2022 50.1570 0.0000 0.9764 0.0000
# 4 0.0000 0.0000 0.0000 19.0498 0.0000 -2.9721
# 5 -4.6454 8.4250 0.9764 0.0000 40.8280 0.0000
# 6 0.0000 0.0000 0.0000 -2.9721 0.0000 23.9633
#
#
#
# Elastic Compliance Matrix: (Units=1/GPa)
#
#
# Indices 1 2 3 4 5 6 
#
# 1 0.013891 -0.012289 0.002157 0.000000 0.004065 0.000000
# 2 -0.012289 0.035790 -0.015826 0.000000 -0.008405 0.000000
# 3 0.002157 -0.015826 0.028055 0.000000 0.002840 0.000000
# 4 0.000000 0.000000 0.000000 0.053530 0.000000 0.006639
# 5 0.004065 -0.008405 0.002840 0.000000 0.026622 0.000000
# 6 0.000000 0.000000 0.000000 0.006639 0.000000 0.042554
#
#
# Mechanical properties :
#
#
# Convention : Reuss Voigt Hill
#
# Bulk Modulus (GPa) = 38.72776 43.94921 41.33848
# Shear Modulus (GPa) = 19.15973 25.31727 22.23850
#
# Velocity S-wave (km/s) = 3.29115 3.78322 3.54573
# Velocity P-wave (km/s) = 6.02797 6.62795 6.33507
#
# Compressibility (1/GPa) = 0.02582127
#
# Stress axis : x y z
#
# Youngs Moduli (GPa) = 71.98734 27.94096 35.64410
#
# Poissons Ratio (x) = 0.34335 -0.07690
# Poissons Ratio (y) = 0.88462 0.56411
# Poissons Ratio (z) = -0.15530 0.44220
#
# Static dielectric constant tensor:
#      x y z
#    x 1.601830 0.000000 -0.015570 
#    y 0.000000 1.620210 0.000000 
#    z -0.015570 0.000000 1.596590 
# 
# From -- ./inp_files/221829.got.cif
#   From: 2010.05.17/outbox.cif.g08.bks.cpg/sg15_111_cif.got.tgz:221829.got - 2010.06.03 18:47:42.
