data_PCOD9259293
_publ_section_title
;
Structure prediction by ZEFSAII (Michael W. Deem and Ramdas Pophale) SiO2 
 PCOD9259293
Probable space group: C 2/C
;
_chemical_formula_sum "Si O2"
_cell_formula_units_Z 48
_cell_length_a 9.361225
_cell_length_b 21.698891
_cell_length_c 12.720332
_cell_angle_alpha 90.000000
_cell_angle_beta 57.323919
_cell_angle_gamma 90.000000
_cell_volume 2174.927048
_symmetry_space_group_name_H-M "C 2/C"
_symmetry_group_IT_number 15
_symmetry_cell_setting 'monoclinic'
loop_
_space_group_symop_operation_xyz
x,y,z
-x,y,1/2-z
-x,-y,-z
x,-y,1/2+z
1/2+x,1/2+y,z
1/2-x,1/2+y,1/2-z
1/2-x,1/2-y,-z
1/2+x,1/2-y,1/2+z
loop_
_atom_site_type_symbol
_atom_site_label
_atom_site_fract_x
_atom_site_fract_y
_atom_site_fract_z
Si Si1 0.473353 0.913615 0.385529
Si Si2 0.449947 0.435544 0.467840
Si Si3 0.541477 0.182238 0.029350
Si Si4 0.758650 0.497111 0.604083
Si Si5 0.549528 0.314640 0.110052
Si Si6 0.659902 0.912284 0.743613
O O1 0.500000 0.910450 0.250000
O O2 0.485257 0.848346 0.441289
O O3 0.308523 0.953546 0.484651
O O4 0.606459 0.955064 0.400144
O O5 0.500000 0.500000 0.500000
O O6 0.383782 0.459223 0.382612
O O7 0.551131 0.373883 0.397006
O O8 0.301939 0.406847 0.599570
O O9 0.744924 0.175775 0.965467
O O10 0.509661 0.254451 0.057298
O O11 0.434367 0.144518 0.161045
O O12 0.743582 0.449716 0.704486
O O13 0.500000 0.303152 0.250000
O O14 0.500000 0.945980 0.750000
#
# Coordination Sequence:
#
# PCOD9259293 Si02
#       6
#     8   8   8   8   8   8
#     4  10  18  34  65  95 127 167 222 278 321 395
#     4  12  26  40  64  98 138 178 218 276 343 392
#     4  10  22  41  67  96 123 175 223 272 330 388
#     4  10  20  34  57  97 129 168 221 265 337 389
#     4  11  24  40  65  96 132 166 224 276 328 398
#     4  11  20  40  68  92 130 171 222 274 329 395
#
# _framework density 22.069706
#
# number of rings (size 3 to 8) (size 9 to 14) (size 15 to 20)
#    0.000    1.333    3.333    4.000    4.667    1.333 
#    0.000    0.000    3.667    3.000    0.000    0.000 
#    0.000    0.000    0.000    0.000    0.000    0.000 
#
# Total GULP energy -133708.629892 kJ/mol
# GULP energy per Si atom -5571.192912 kJ/mol
# Density = 2.201947 g / cm^3
# Si number density = 22.069706 Si / 1000 Ang^3
#
#
#
# Elastic Constant Matrix: (Units=GPa)
#
#
# Indices 1 2 3 4 5 6 
#
# 1 30.4053 36.2195 25.2899 0.0000 14.7836 0.0000
# 2 36.2195 180.2897 61.4687 0.0000 23.0765 0.0000
# 3 25.2899 61.4687 143.4678 0.0000 22.7671 0.0000
# 4 0.0000 0.0000 0.0000 15.2648 0.0000 8.8792
# 5 14.7836 23.0765 22.7671 0.0000 32.0097 0.0000
# 6 0.0000 0.0000 0.0000 8.8792 0.0000 3.5685
#
#
#
# Elastic Compliance Matrix: (Units=1/GPa)
#
#
# Indices 1 2 3 4 5 6 
#
# 1 0.052456 -0.007220 -0.003533 0.000000 -0.016508 0.000000
# 2 -0.007220 0.007764 -0.001910 0.000000 -0.000904 0.000000
# 3 -0.003533 -0.001910 0.008943 0.000000 -0.003352 0.000000
# 4 0.000000 0.000000 0.000000 -0.146437 0.000000 0.364371
# 5 -0.016508 -0.000904 -0.003352 0.000000 0.041900 0.000000
# 6 0.000000 0.000000 0.000000 0.364371 0.000000 -0.626414
#
#
# Mechanical properties :
#
#
# Convention : Reuss Voigt Hill
#
# Bulk Modulus (GPa) = 22.81288 66.67989 44.74638
# Shear Modulus (GPa) = -8.04057 25.58091 8.77017
#
# Velocity S-wave (km/s) = -1.91080 3.40824 1.99561
# Velocity P-wave (km/s) = 2.34328 6.76514 5.06251
#
# Compressibility (1/GPa) = 0.04383489
#
# Stress axis : x y z
#
# Youngs Moduli (GPa) = 19.06375 128.79618 111.81335
#
# Poissons Ratio (x) = 0.92997 0.39508
# Poissons Ratio (y) = 0.13765 0.21360
# Poissons Ratio (z) = 0.06736 0.24604
#
# Static dielectric constant tensor:
#      x y z
#    x 1.889580 0.000000 -0.099600 
#    y 0.000000 1.871590 0.000000 
#    z -0.099600 0.000000 1.823380 
# 
# From -- ./inp_files/88777.got.cif
#   From: 2010.05.17/outbox.cif.g08.bks.cpg/sg15_45_cif.got.tgz:88777.got - 2010.06.03 18:47:42.
