data_PCOD9259553
_publ_section_title
;
Structure prediction by ZEFSAII (Michael W. Deem and Ramdas Pophale) SiO2 
 PCOD9259553
Probable space group: C 2/C
;
_chemical_formula_sum "Si O2"
_cell_formula_units_Z 60
_cell_length_a 11.453600
_cell_length_b 15.829194
_cell_length_c 17.707344
_cell_angle_alpha 90.000000
_cell_angle_beta 118.295816
_cell_angle_gamma 90.000000
_cell_volume 2826.763683
_symmetry_space_group_name_H-M "C 2/C"
_symmetry_group_IT_number 15
_symmetry_cell_setting 'monoclinic'
loop_
_space_group_symop_operation_xyz
x,y,z
-x,y,1/2-z
-x,-y,-z
x,-y,1/2+z
1/2+x,1/2+y,z
1/2-x,1/2+y,1/2-z
1/2-x,1/2-y,-z
1/2+x,1/2-y,1/2+z
loop_
_atom_site_type_symbol
_atom_site_label
_atom_site_fract_x
_atom_site_fract_y
_atom_site_fract_z
Si Si1 0.657703 0.488596 0.559526
Si Si2 0.708222 0.651169 0.202437
Si Si3 0.411033 0.072340 0.652940
Si Si4 0.315322 0.442549 0.100673
Si Si5 0.129460 0.228188 0.833546
Si Si6 0.509437 0.115845 0.135719
Si Si7 0.000000 0.927073 0.750000
Si Si8 0.467042 0.092267 0.957223
O O1 0.500000 0.500000 0.500000
O O2 0.679573 0.411436 0.623475
O O3 0.753981 0.563108 0.620305
O O4 0.712653 0.475820 0.491425
O O5 0.745242 0.743838 0.179781
O O6 0.840836 0.625692 0.289341
O O7 0.588524 0.632264 0.223180
O O8 0.500000 0.101920 0.750000
O O9 0.446260 0.120757 0.586544
O O10 0.462601 0.976948 0.648086
O O11 0.355868 0.345026 0.100985
O O12 0.410133 0.508652 0.171849
O O13 0.185349 0.424552 0.111108
O O14 0.000000 0.194955 0.750000
O O15 0.081976 0.316915 0.850868
O O16 0.491444 0.141242 0.042360
O O17 0.500000 0.000000 0.000000
#
# Coordination Sequence:
#
# PCOD9259553 Si02
#       8
#     8   8   8   8   8   8   4   8
#     4  12  23  35  55  94 131 155 207 270 324 375
#     4  11  22  38  62  85 124 175 207 249 319 397
#     4  11  19  36  58  84 122 164 209 257 309 372
#     4  12  23  37  62  95 127 155 208 277 324 356
#     4  10  21  40  62  92 124 164 214 266 320 375
#     4  10  18  35  60  84 113 160 214 252 306 378
#     4  12  24  38  62  92 128 168 200 256 330 380
#     4  10  20  33  57  90 115 153 216 261 302 378
#
# _framework density 21.225687000000001
#
# number of rings (size 3 to 8) (size 9 to 14) (size 15 to 20)
#    0.000    1.067    7.333    2.000    0.000    2.133 
#    0.000    0.000    1.467    0.000    0.000    5.600 
#    0.000    0.000    0.000    0.000    0.000    0.000 
#
# Total GULP energy -167047.588582 kJ/mol
# GULP energy per Si atom -5568.252953 kJ/mol
# Density = 2.117738 g / cm^3
# Si number density = 21.225687 Si / 1000 Ang^3
#
#
#
# Elastic Constant Matrix: (Units=GPa)
#
#
# Indices 1 2 3 4 5 6 
#
# 1 110.6507 11.7952 39.0799 0.0000 11.4950 0.0000
# 2 11.7952 26.6523 1.5709 0.0000 0.7234 0.0000
# 3 39.0799 1.5709 106.5502 0.0000 2.8728 0.0000
# 4 0.0000 0.0000 0.0000 -1.8594 0.0000 -10.2432
# 5 11.4950 0.7234 2.8728 0.0000 37.3433 0.0000
# 6 0.0000 0.0000 0.0000 -10.2432 0.0000 -4.8497
#
#
#
# Elastic Compliance Matrix: (Units=1/GPa)
#
#
# Indices 1 2 3 4 5 6 
#
# 1 0.011258 -0.004665 -0.003978 0.000000 -0.003069 0.000000
# 2 -0.004665 0.039503 0.001113 0.000000 0.000585 0.000000
# 3 -0.003978 0.001113 0.010818 0.000000 0.000371 0.000000
# 4 0.000000 0.000000 0.000000 0.050567 0.000000 -0.106805
# 5 -0.003069 0.000585 0.000371 0.000000 0.027683 0.000000
# 6 0.000000 0.000000 0.000000 -0.106805 0.000000 0.019388
#
#
# Mechanical properties :
#
#
# Convention : Reuss Voigt Hill
#
# Bulk Modulus (GPa) = 21.49621 38.74946 30.12283
# Shear Modulus (GPa) = 26.34571 18.88734 22.61653
#
# Velocity S-wave (km/s) = 3.52691 2.98624 3.26778
# Velocity P-wave (km/s) = 5.17058 5.49416 5.33482
#
# Compressibility (1/GPa) = 0.04651984
#
# Stress axis : x y z
#
# Youngs Moduli (GPa) = 88.82234 25.31439 92.44031
#
# Poissons Ratio (x) = 0.11809 0.36771
# Poissons Ratio (y) = 0.41434 -0.10286
# Poissons Ratio (z) = 0.35332 -0.02817
#
# Static dielectric constant tensor:
#      x y z
#    x 1.876320 0.000000 -0.036360 
#    y 0.000000 1.695200 0.000000 
#    z -0.036360 0.000000 1.619250 
# 
# From -- ./inp_files/199550.got.cif
#   From: 2010.05.17/outbox.cif.g08.bks.cpg/sg15_100_cif.got.tgz:199550.got - 2010.06.03 18:47:42.
