data_PCOD9259738
_publ_section_title
;
Structure prediction by ZEFSAII (Michael W. Deem and Ramdas Pophale) SiO2 
 PCOD9259738
Probable space group: C 2/C
;
_chemical_formula_sum "Si O2"
_cell_formula_units_Z 44
_cell_length_a 11.006403
_cell_length_b 15.120645
_cell_length_c 14.001017
_cell_angle_alpha 90.000000
_cell_angle_beta 67.929880
_cell_angle_gamma 90.000000
_cell_volume 2159.364974
_symmetry_space_group_name_H-M "C 2/C"
_symmetry_group_IT_number 15
_symmetry_cell_setting 'monoclinic'
loop_
_space_group_symop_operation_xyz
x,y,z
-x,y,1/2-z
-x,-y,-z
x,-y,1/2+z
1/2+x,1/2+y,z
1/2-x,1/2+y,1/2-z
1/2-x,1/2-y,-z
1/2+x,1/2-y,1/2+z
loop_
_atom_site_type_symbol
_atom_site_label
_atom_site_fract_x
_atom_site_fract_y
_atom_site_fract_z
Si Si1 0.919699 0.421003 0.075866
Si Si2 0.255874 0.734665 0.385132
Si Si3 0.500000 0.148219 0.750000
Si Si4 0.978350 0.776058 0.483043
Si Si5 0.931052 0.095435 0.372428
Si Si6 0.114178 0.906694 0.136183
O O1 0.761192 0.426618 0.129202
O O2 0.977720 0.410968 0.164426
O O3 0.944118 0.323723 0.021983
O O4 0.000000 0.500000 0.000000
O O5 0.250000 0.750000 0.500000
O O6 0.374521 0.788615 0.304041
O O7 0.289125 0.631629 0.379852
O O8 0.118346 0.767231 0.387723
O O9 0.884020 0.825320 0.437708
O O10 0.003507 0.837752 0.570067
O O11 0.000000 0.094214 0.250000
O O12 0.925523 0.995735 0.409709
O O13 0.000000 0.894227 0.250000
#
# Coordination Sequence:
#
# PCOD9259738 Si02
#       6
#     8   8   4   8   8   8
#     4  12  26  46  69  98 135 178 234 276 342 411
#     4  10  18  35  68  98 123 169 233 270 322 390
#     4  12  22  44  72  96 132 184 226 288 328 402
#     4  11  22  41  68  94 133 174 218 284 335 395
#     4  10  19  37  63  98 124 172 227 268 318 406
#     4  11  25  42  63 101 141 168 215 278 352 402
#
# _framework density 20.376360999999999
#
# number of rings (size 3 to 8) (size 9 to 14) (size 15 to 20)
#    0.000    1.091    4.545    3.273    2.545    0.000 
#    8.182    0.000    0.000    0.000    0.000    0.000 
#    0.000    0.000    0.000    0.000    0.000    0.000 
#
# Total GULP energy -122535.038229 kJ/mol
# GULP energy per Si atom -5569.774465 kJ/mol
# Density = 2.032998 g / cm^3
# Si number density = 20.376361 Si / 1000 Ang^3
#
#
#
# Elastic Constant Matrix: (Units=GPa)
#
#
# Indices 1 2 3 4 5 6 
#
# 1 85.4425 35.4682 36.9968 0.0000 -7.0873 0.0000
# 2 35.4682 142.7483 58.8166 0.0000 12.6565 0.0000
# 3 36.9968 58.8166 89.1487 0.0000 -8.8846 0.0000
# 4 0.0000 0.0000 0.0000 30.2798 0.0000 4.2859
# 5 -7.0873 12.6565 -8.8846 0.0000 33.6057 0.0000
# 6 0.0000 0.0000 0.0000 4.2859 0.0000 25.5418
#
#
#
# Elastic Compliance Matrix: (Units=1/GPa)
#
#
# Indices 1 2 3 4 5 6 
#
# 1 0.014721 -0.002045 -0.004492 0.000000 0.002687 0.000000
# 2 -0.002045 0.010983 -0.007038 0.000000 -0.006429 0.000000
# 3 -0.004492 -0.007038 0.018379 0.000000 0.006562 0.000000
# 4 0.000000 0.000000 0.000000 0.033829 0.000000 -0.005676
# 5 0.002687 -0.006429 0.006562 0.000000 0.034480 0.000000
# 6 0.000000 0.000000 0.000000 -0.005676 0.000000 0.040104
#
#
# Mechanical properties :
#
#
# Convention : Reuss Voigt Hill
#
# Bulk Modulus (GPa) = 59.05899 64.43360 61.74630
# Shear Modulus (GPa) = 26.98460 30.28933 28.63696
#
# Velocity S-wave (km/s) = 3.64305 3.85969 3.75294
# Velocity P-wave (km/s) = 6.83687 7.18006 7.01057
#
# Compressibility (1/GPa) = 0.01693222
#
# Stress axis : x y z
#
# Youngs Moduli (GPa) = 67.93184 91.04581 54.40953
#
# Poissons Ratio (x) = 0.18618 0.24441
# Poissons Ratio (y) = 0.13892 0.38296
# Poissons Ratio (z) = 0.30516 0.64082
#
# Static dielectric constant tensor:
#      x y z
#    x 1.818680 0.000000 -0.060960 
#    y 0.000000 1.789550 0.000000 
#    z -0.060960 0.000000 1.692600 
# 
# From -- ./inp_files/143336.got.cif
#   From: 2010.05.17/outbox.cif.g08.bks.cpg/sg15_72_cif.got.tgz:143336.got - 2010.06.03 18:47:42.
