data_PCOD9259622
_publ_section_title
;
Structure prediction by ZEFSAII (Michael W. Deem and Ramdas Pophale) SiO2 
 PCOD9259622
Probable space group: C 2/C
;
_chemical_formula_sum "Si O2"
_cell_formula_units_Z 56
_cell_length_a 13.732272
_cell_length_b 7.896295
_cell_length_c 24.502871
_cell_angle_alpha 90.000000
_cell_angle_beta 124.521327
_cell_angle_gamma 90.000000
_cell_volume 2189.098500
_symmetry_space_group_name_H-M "C 2/C"
_symmetry_group_IT_number 15
_symmetry_cell_setting 'monoclinic'
loop_
_space_group_symop_operation_xyz
x,y,z
-x,y,1/2-z
-x,-y,-z
x,-y,1/2+z
1/2+x,1/2+y,z
1/2-x,1/2+y,1/2-z
1/2-x,1/2-y,-z
1/2+x,1/2-y,1/2+z
loop_
_atom_site_type_symbol
_atom_site_label
_atom_site_fract_x
_atom_site_fract_y
_atom_site_fract_z
Si Si1 0.489110 0.014176 0.885044
Si Si2 0.353864 0.689129 0.838393
Si Si3 0.635258 0.250190 0.275106
Si Si4 0.230007 0.471556 0.507271
Si Si5 0.390774 0.843758 0.252576
Si Si6 0.147692 0.307527 0.072869
Si Si7 0.106967 0.846939 0.024947
O O1 0.457628 0.822959 0.862220
O O2 0.433504 0.155517 0.828272
O O3 0.425573 0.039507 0.922346
O O4 0.627680 0.035616 0.929273
O O5 0.344435 0.628972 0.771878
O O6 0.221667 0.764791 0.799361
O O7 0.368977 0.611302 0.903536
O O8 0.500000 0.282884 0.250000
O O9 0.741391 0.271545 0.352228
O O10 0.639915 0.044672 0.266034
O O11 0.206588 0.635796 0.535545
O O12 0.191623 0.315184 0.534849
O O13 0.350949 0.462721 0.512766
O O14 0.500000 0.799656 0.250000
O O15 0.032838 0.188906 0.026180
#
# Coordination Sequence:
#
# PCOD9259622 Si02
#       7
#     8   8   8   8   8   8   8
#     4  10  18  35  61  92 123 171 206 271 348 389
#     4  11  19  38  65  90 122 165 222 274 327 395
#     4  10  24  43  62  84 130 181 214 256 344 408
#     4  10  19  35  63  96 136 167 216 276 347 408
#     4  10  21  37  61  88 125 165 217 271 324 406
#     4  11  19  41  62  94 132 176 211 281 340 404
#     4  10  20  34  64  98 127 168 224 275 334 404
#
# _framework density 25.581306000000001
#
# number of rings (size 3 to 8) (size 9 to 14) (size 15 to 20)
#    0.000    1.714    4.286    1.714    0.000    0.000 
#    2.571    2.143    0.000    0.000    0.000    0.000 
#    0.000    0.000    0.000    0.000    0.000    0.000 
#
# Total GULP energy -156051.852465 kJ/mol
# GULP energy per Si atom -5573.280445 kJ/mol
# Density = 2.552308 g / cm^3
# Si number density = 25.581306 Si / 1000 Ang^3
#
#
#
# Elastic Constant Matrix: (Units=GPa)
#
#
# Indices 1 2 3 4 5 6 
#
# 1 200.7824 35.3038 81.8222 0.0000 -5.7553 0.0000
# 2 35.3038 32.4286 20.3779 0.0000 -4.9425 0.0000
# 3 81.8222 20.3779 178.2159 0.0000 4.5427 0.0000
# 4 0.0000 0.0000 0.0000 23.7890 0.0000 1.2022
# 5 -5.7553 -4.9425 4.5427 0.0000 33.2967 0.0000
# 6 0.0000 0.0000 0.0000 1.2022 0.0000 36.1525
#
#
#
# Elastic Compliance Matrix: (Units=1/GPa)
#
#
# Indices 1 2 3 4 5 6 
#
# 1 0.007115 -0.006008 -0.002597 0.000000 0.000692 0.000000
# 2 -0.006008 0.039321 -0.001866 0.000000 0.005053 0.000000
# 3 -0.002597 -0.001866 0.007060 0.000000 -0.001689 0.000000
# 4 0.000000 0.000000 0.000000 0.042107 0.000000 -0.001400
# 5 0.000692 0.005053 -0.001689 0.000000 0.031133 0.000000
# 6 0.000000 0.000000 0.000000 -0.001400 0.000000 0.027707
#
#
# Mechanical properties :
#
#
# Convention : Reuss Voigt Hill
#
# Bulk Modulus (GPa) = 30.71994 76.27051 53.49523
# Shear Modulus (GPa) = 26.84724 36.90917 31.87821
#
# Velocity S-wave (km/s) = 3.24309 3.80257 3.53392
# Velocity P-wave (km/s) = 5.10474 7.01135 6.13259
#
# Compressibility (1/GPa) = 0.03255214
#
# Stress axis : x y z
#
# Youngs Moduli (GPa) = 140.54186 25.43168 141.64025
#
# Poissons Ratio (x) = 0.15281 0.36789
# Poissons Ratio (y) = 0.84444 0.26435
# Poissons Ratio (z) = 0.36504 0.04746
#
# Static dielectric constant tensor:
#      x y z
#    x 1.981250 0.000000 -0.039320 
#    y 0.000000 2.229860 0.000000 
#    z -0.039320 0.000000 2.134110 
# 
# From -- ./inp_files/268992.got.cif
#   From: 2010.05.17/outbox.cif.g08.bks.cpg/sg15_135_cif.got.tgz:268992.got - 2010.06.03 18:47:42.
