data_PCOD9259249
_publ_section_title
;
Structure prediction by ZEFSAII (Michael W. Deem and Ramdas Pophale) SiO2 
 PCOD9259249
Probable space group: C 2/C
;
_chemical_formula_sum "Si O2"
_cell_formula_units_Z 44
_cell_length_a 8.160863
_cell_length_b 17.875673
_cell_length_c 25.491510
_cell_angle_alpha 90.000000
_cell_angle_beta 30.945671
_cell_angle_gamma 90.000000
_cell_volume 1912.261531
_symmetry_space_group_name_H-M "C 2/C"
_symmetry_group_IT_number 15
_symmetry_cell_setting 'monoclinic'
loop_
_space_group_symop_operation_xyz
x,y,z
-x,y,1/2-z
-x,-y,-z
x,-y,1/2+z
1/2+x,1/2+y,z
1/2-x,1/2+y,1/2-z
1/2-x,1/2-y,-z
1/2+x,1/2-y,1/2+z
loop_
_atom_site_type_symbol
_atom_site_label
_atom_site_fract_x
_atom_site_fract_y
_atom_site_fract_z
Si Si1 0.500000 0.901415 0.250000
Si Si2 0.153903 0.853589 0.445472
Si Si3 0.961070 0.700086 0.482407
Si Si4 0.797190 0.950687 0.701342
Si Si5 0.450581 0.078906 0.116407
Si Si6 0.043606 0.422184 0.038249
O O1 0.321557 0.855234 0.342970
O O2 0.254416 0.960137 0.291217
O O3 0.384375 0.890342 0.424177
O O4 0.109050 0.767664 0.474230
O O5 0.822649 0.901178 0.529864
O O6 0.750000 0.750000 0.500000
O O7 0.157494 0.650823 0.386987
O O8 0.849828 0.636363 0.554653
O O9 0.500000 0.916758 0.750000
O O10 0.736850 0.933559 0.778593
O O11 0.112510 0.927333 0.584419
O O12 0.434751 0.006505 0.082417
#
# Coordination Sequence:
#
# PCOD9259249 Si02
#       6
#     4   8   8   8   8   8
#     4  10  18  34  62  98 122 158 208 272 324 372
#     4  11  20  39  64  91 127 168 206 265 329 388
#     4  10  26  40  58  90 135 164 211 270 326 371
#     4  10  19  33  63 100 117 154 219 269 313 378
#     4  11  20  40  62  92 127 166 210 272 312 377
#     4  12  20  39  68  91 118 177 219 256 321 391
#
# _framework density 23.009405000000001
#
# number of rings (size 3 to 8) (size 9 to 14) (size 15 to 20)
#    0.545    0.727    5.455    1.636    0.000    2.182 
#    0.000    0.000    0.000    7.636    0.000    0.000 
#    0.000    0.000    0.000    0.000    0.000    0.000 
#
# Total GULP energy -122683.239207 kJ/mol
# GULP energy per Si atom -5576.510873 kJ/mol
# Density = 2.295703 g / cm^3
# Si number density = 23.009405 Si / 1000 Ang^3
#
#
#
# Elastic Constant Matrix: (Units=GPa)
#
#
# Indices 1 2 3 4 5 6 
#
# 1 84.1589 32.4081 25.2797 0.1745 15.5897 0.1899
# 2 32.4081 153.2982 25.5660 -0.0066 7.5297 0.1040
# 3 25.2797 25.5660 128.6259 0.1369 21.5147 0.2351
# 4 0.1745 -0.0066 0.1369 17.0895 -0.1140 -3.8965
# 5 15.5897 7.5297 21.5147 -0.1140 28.7408 -0.1151
# 6 0.1899 0.1040 0.2351 -3.8965 -0.1151 22.7794
#
#
#
# Elastic Compliance Matrix: (Units=1/GPa)
#
#
# Indices 1 2 3 4 5 6 
#
# 1 0.014387 -0.002522 -0.001292 -0.000216 -0.006177 -0.000163
# 2 -0.002522 0.007208 -0.000972 0.000039 0.000207 0.000006
# 3 -0.001292 -0.000972 0.009216 -0.000131 -0.005945 -0.000132
# 4 -0.000216 0.000039 -0.000131 0.060898 0.000488 0.010422
# 5 -0.006177 0.000207 -0.005945 0.000488 0.042543 0.000410
# 6 -0.000163 0.000006 -0.000132 0.010422 0.000410 0.045687
#
#
# Mechanical properties :
#
#
# Convention : Reuss Voigt Hill
#
# Bulk Modulus (GPa) = 47.08459 59.17673 53.13066
# Shear Modulus (GPa) = 25.43328 32.57722 29.00525
#
# Velocity S-wave (km/s) = 3.32828 3.76682 3.55432
# Velocity P-wave (km/s) = 5.93949 6.68528 6.32339
#
# Compressibility (1/GPa) = 0.02123837
#
# Stress axis : x y z
#
# Youngs Moduli (GPa) = 69.50771 138.72775 108.50278
#
# Poissons Ratio (x) = 0.34993 0.14024
# Poissons Ratio (y) = 0.17533 0.10544
# Poissons Ratio (z) = 0.08984 0.13481
#
# Static dielectric constant tensor:
#      x y z
#    x 2.047110 0.000090 -0.072600 
#    y 0.000090 1.905490 -0.000160 
#    z -0.072600 -0.000160 1.811170 
# 
# From -- ./inp_files/265436.got.cif
#   From: 2010.05.17/outbox.cif.g08.bks.cpg/sg15_133_cif.got.tgz:265436.got - 2010.06.03 18:47:42.
