data_PCOD9259965
_publ_section_title
;
Structure prediction by ZEFSAII (Michael W. Deem and Ramdas Pophale) SiO2 
 PCOD9259965
Probable space group: C 2/C
;
_chemical_formula_sum "Si O2"
_cell_formula_units_Z 52
_cell_length_a 10.928414
_cell_length_b 12.593924
_cell_length_c 24.605355
_cell_angle_alpha 90.000000
_cell_angle_beta 36.723440
_cell_angle_gamma 90.000000
_cell_volume 2024.953103
_symmetry_space_group_name_H-M "C 2/C"
_symmetry_group_IT_number 15
_symmetry_cell_setting 'monoclinic'
loop_
_space_group_symop_operation_xyz
x,y,z
-x,y,1/2-z
-x,-y,-z
x,-y,1/2+z
1/2+x,1/2+y,z
1/2-x,1/2+y,1/2-z
1/2-x,1/2-y,-z
1/2+x,1/2-y,1/2+z
loop_
_atom_site_type_symbol
_atom_site_label
_atom_site_fract_x
_atom_site_fract_y
_atom_site_fract_z
Si Si1 0.562706 0.019107 0.038994
Si Si2 0.122985 0.294977 0.257715
Si Si3 0.548272 0.043908 0.309677
Si Si4 0.500000 0.604314 0.750000
Si Si5 0.658016 0.412370 0.887665
Si Si6 0.043787 0.706287 0.902796
Si Si7 0.519944 0.598822 0.618577
O O1 0.409032 0.053080 0.141657
O O2 0.603515 0.894962 0.040138
O O3 0.739419 0.106344 0.974538
O O4 0.500000 0.000000 0.000000
O O5 0.031389 0.251711 0.345709
O O6 0.370385 0.300053 0.167176
O O7 0.000000 0.254697 0.250000
O O8 0.081729 0.422178 0.279251
O O9 0.685509 0.109184 0.218990
O O10 0.311061 0.066478 0.382460
O O11 0.279373 0.665316 0.828831
O O12 0.496534 0.555538 0.689727
O O13 0.520998 0.309734 0.947740
O O14 0.542246 0.514310 0.905803
#
# Coordination Sequence:
#
# PCOD9259965 Si02
#       7
#     8   8   8   4   8   8   8
#     4  11  22  38  57  89 120 155 190 246 291 350
#     4   9  16  36  57  84 104 149 203 238 267 358
#     4   9  18  36  62  79 112 152 201 233 282 351
#     4  10  18  36  60  80 104 162 204 228 262 368
#     4  10  19  37  58  86 110 153 193 242 293 345
#     4  10  21  34  60  83 117 146 195 246 294 332
#     4  10  20  33  61  82 113 151 199 231 296 339
#
# _framework density 25.679607000000001
#
# number of rings (size 3 to 8) (size 9 to 14) (size 15 to 20)
#    0.000    2.154    4.615    1.846    0.000    1.231 
#    1.385    0.769    0.000    0.000    0.000    0.000 
#    0.000    0.000    0.000    0.000    0.000    0.000 
#
# Total GULP energy -144902.604979 kJ/mol
# GULP energy per Si atom -5573.177115 kJ/mol
# Density = 2.562116 g / cm^3
# Si number density = 25.679607 Si / 1000 Ang^3
#
#
#
# Elastic Constant Matrix: (Units=GPa)
#
#
# Indices 1 2 3 4 5 6 
#
# 1 113.9072 -18.7726 28.4344 -0.0001 15.4676 0.0000
# 2 -18.7726 52.7048 -15.2913 -0.0001 -2.6032 0.0001
# 3 28.4344 -15.2913 83.2256 0.0000 8.4859 -0.0002
# 4 -0.0001 -0.0001 0.0000 10.3141 -0.0001 -3.4404
# 5 15.4676 -2.6032 8.4859 -0.0001 39.5618 0.0001
# 6 0.0000 0.0001 -0.0002 -3.4404 0.0001 15.8011
#
#
#
# Elastic Compliance Matrix: (Units=1/GPa)
#
#
# Indices 1 2 3 4 5 6 
#
# 1 0.010351 0.002742 -0.002697 0.000000 -0.003288 0.000000
# 2 0.002742 0.020780 0.002915 0.000000 -0.000330 0.000000
# 3 -0.002697 0.002915 0.013644 0.000000 -0.001680 0.000000
# 4 0.000000 0.000000 0.000000 0.104548 0.000000 0.022764
# 5 -0.003288 -0.000330 -0.001680 0.000000 0.026901 0.000000
# 6 0.000000 0.000000 0.000000 0.022764 0.000000 0.068243
#
#
# Mechanical properties :
#
#
# Convention : Reuss Voigt Hill
#
# Bulk Modulus (GPa) = 19.72674 26.50874 23.11774
# Shear Modulus (GPa) = 19.57361 30.16652 24.87006
#
# Velocity S-wave (km/s) = 2.76384 3.43115 3.11541
# Velocity P-wave (km/s) = 4.22890 5.10317 4.68646
#
# Compressibility (1/GPa) = 0.05069262
#
# Stress axis : x y z
#
# Youngs Moduli (GPa) = 96.61149 48.12421 73.29245
#
# Poissons Ratio (x) = -0.13195 0.19770
# Poissons Ratio (y) = -0.26489 -0.21363
# Poissons Ratio (z) = 0.26060 -0.14027
#
# Static dielectric constant tensor:
#      x y z
#    x 2.104130 0.000000 -0.057390 
#    y 0.000000 2.048360 0.000000 
#    z -0.057390 0.000000 2.081060 
# 
# From -- ./inp_files/292658.got.cif
#   From: 2010.05.17/outbox.cif.g08.bks.cpg/sg15_147_cif.got.tgz:292658.got - 2010.06.03 18:47:42.
