data_PCOD9259794
_publ_section_title
;
Structure prediction by ZEFSAII (Michael W. Deem and Ramdas Pophale) SiO2 
 PCOD9259794
Probable space group: C 2/C
;
_chemical_formula_sum "Si O2"
_cell_formula_units_Z 52
_cell_length_a 11.643804
_cell_length_b 25.592291
_cell_length_c 13.602700
_cell_angle_alpha 90.000000
_cell_angle_beta 132.001303
_cell_angle_gamma 90.000000
_cell_volume 3012.268891
_symmetry_space_group_name_H-M "C 2/C"
_symmetry_group_IT_number 15
_symmetry_cell_setting 'monoclinic'
loop_
_space_group_symop_operation_xyz
x,y,z
-x,y,1/2-z
-x,-y,-z
x,-y,1/2+z
1/2+x,1/2+y,z
1/2-x,1/2+y,1/2-z
1/2-x,1/2-y,-z
1/2+x,1/2-y,1/2+z
loop_
_atom_site_type_symbol
_atom_site_label
_atom_site_fract_x
_atom_site_fract_y
_atom_site_fract_z
Si Si1 0.469872 0.945551 0.039369
Si Si2 0.121428 0.207237 0.903358
Si Si3 0.378397 0.575738 0.093157
Si Si4 0.538251 0.373013 0.054095
Si Si5 0.500000 0.996798 0.250000
Si Si6 0.750044 0.891731 0.138325
Si Si7 0.176891 0.037799 0.993048
O O1 0.545074 0.959001 0.187217
O O2 0.568400 0.900709 0.044919
O O3 0.293357 0.930090 0.958520
O O4 0.500000 0.000000 0.000000
O O5 0.204755 0.157975 0.899791
O O6 0.000000 0.225857 0.750000
O O7 0.034926 0.181880 0.949111
O O8 0.250000 0.250000 0.000000
O O9 0.500000 0.583437 0.250000
O O10 0.396946 0.619312 0.018643
O O11 0.401319 0.518917 0.054757
O O12 0.667510 0.386197 0.209937
O O13 0.409079 0.418065 0.994451
O O14 0.351790 0.029687 0.131775
O O15 0.814370 0.940990 0.113748
#
# Coordination Sequence:
#
# PCOD9259794 Si02
#       7
#     8   8   8   8   4   8   8
#     4  11  21  34  49  76 115 153 190 222 259 323
#     4   9  20  41  63  90 107 135 183 238 298 344
#     4  11  22  33  49  78 116 154 187 221 264 319
#     4  10  21  34  56  77 111 147 183 225 281 334
#     4  10  20  30  46  74 110 148 188 224 258 306
#     4  10  18  36  56  79 110 146 184 222 279 335
#     4  10  19  30  50  76 110 151 186 222 267 318
#
# _framework density 17.262736
#
# number of rings (size 3 to 8) (size 9 to 14) (size 15 to 20)
#    0.000    1.846    3.077    4.615    2.154    0.000 
#    8.308    0.000    0.000    0.923    2.000    0.000 
#    0.000    0.000    0.000    0.000    0.000    0.000 
#
# Total GULP energy -144879.697908 kJ/mol
# GULP energy per Si atom -5572.296073 kJ/mol
# Density = 1.722344 g / cm^3
# Si number density = 17.262736 Si / 1000 Ang^3
#
#
#
# Elastic Constant Matrix: (Units=GPa)
#
#
# Indices 1 2 3 4 5 6 
#
# 1 98.2314 25.1469 47.9155 0.0000 5.9141 0.0000
# 2 25.1469 53.1536 46.4263 0.0000 7.2827 0.0000
# 3 47.9155 46.4263 102.4137 0.0000 -0.6228 0.0000
# 4 0.0000 0.0000 0.0000 23.4569 0.0000 12.2500
# 5 5.9141 7.2827 -0.6228 0.0000 27.7192 0.0000
# 6 0.0000 0.0000 0.0000 12.2500 0.0000 21.0242
#
#
#
# Elastic Compliance Matrix: (Units=1/GPa)
#
#
# Indices 1 2 3 4 5 6 
#
# 1 0.013455 -0.000776 -0.005960 0.000000 -0.002801 0.000000
# 2 -0.000776 0.033331 -0.014801 0.000000 -0.008924 0.000000
# 3 -0.005960 -0.014801 0.019296 0.000000 0.005594 0.000000
# 4 0.000000 0.000000 0.000000 0.061277 0.000000 -0.035704
# 5 -0.002801 -0.008924 0.005594 0.000000 0.039144 0.000000
# 6 0.000000 0.000000 0.000000 -0.035704 0.000000 0.068368
#
#
# Mechanical properties :
#
#
# Convention : Reuss Voigt Hill
#
# Bulk Modulus (GPa) = 43.46302 54.75291 49.10796
# Shear Modulus (GPa) = 17.50615 23.39405 20.45010
#
# Velocity S-wave (km/s) = 3.18795 3.68527 3.44559
# Velocity P-wave (km/s) = 6.22758 7.06360 6.65872
#
# Compressibility (1/GPa) = 0.02300807
#
# Stress axis : x y z
#
# Youngs Moduli (GPa) = 74.32430 30.00237 51.82292
#
# Poissons Ratio (x) = 0.02327 0.30888
# Poissons Ratio (y) = 0.05765 0.76702
# Poissons Ratio (z) = 0.44299 0.44406
#
# Static dielectric constant tensor:
#      x y z
#    x 1.635760 0.000000 0.009630 
#    y 0.000000 1.567970 0.000000 
#    z 0.009630 0.000000 1.596680 
# 
# From -- ./inp_files/92421.got.cif
#   From: 2010.05.17/outbox.cif.g08.bks.cpg/sg15_47_cif.got.tgz:92421.got - 2010.06.03 18:47:42.
