data_PCOD9259508
_publ_section_title
;
Structure prediction by ZEFSAII (Michael W. Deem and Ramdas Pophale) SiO2 
 PCOD9259508
Probable space group: C 2/C
;
_chemical_formula_sum "Si O2"
_cell_formula_units_Z 40
_cell_length_a 12.211289
_cell_length_b 9.120921
_cell_length_c 14.823605
_cell_angle_alpha 90.000000
_cell_angle_beta 120.106332
_cell_angle_gamma 90.000000
_cell_volume 1428.296386
_symmetry_space_group_name_H-M "C 2/C"
_symmetry_group_IT_number 15
_symmetry_cell_setting 'monoclinic'
loop_
_space_group_symop_operation_xyz
x,y,z
-x,y,1/2-z
-x,-y,-z
x,-y,1/2+z
1/2+x,1/2+y,z
1/2-x,1/2+y,1/2-z
1/2-x,1/2-y,-z
1/2+x,1/2-y,1/2+z
loop_
_atom_site_type_symbol
_atom_site_label
_atom_site_fract_x
_atom_site_fract_y
_atom_site_fract_z
Si Si1 0.147435 0.475602 0.064001
Si Si2 0.632519 0.710977 0.357147
Si Si3 0.715256 0.953497 0.891214
Si Si4 0.051612 0.947835 0.416241
Si Si5 0.337549 0.315004 0.228706
O O1 0.238833 0.619405 0.114150
O O2 0.193846 0.369884 0.163689
O O3 0.169689 0.408219 0.973054
O O4 0.000000 0.500000 0.000000
O O5 0.500000 0.695179 0.250000
O O6 0.585919 0.620862 0.425724
O O7 0.671759 0.878817 0.372232
O O8 0.655884 0.856848 0.787181
O O9 0.864004 0.909191 0.962839
O O10 0.109404 0.884878 0.344244
O O11 0.912279 0.884663 0.342527
#
# Coordination Sequence:
#
# PCOD9259508 Si02
#       5
#     8   8   8   8   8
#     4  10  19  36  59  81 116 148 179 235 297 332
#     4  10  18  35  59  81 113 147 200 229 276 341
#     4  10  20  32  61  87 103 150 199 232 270 343
#     4   9  15  32  52  78 109 140 185 224 276 317
#     4   9  17  32  54  80 110 146 186 226 273 344
#
# _framework density 28.005390999999999
#
# number of rings (size 3 to 8) (size 9 to 14) (size 15 to 20)
#    0.000    2.800    4.000    4.800    2.800    0.000 
#    0.000    1.000   22.000    0.000    0.000    0.000 
#    0.000    0.000    0.000    0.000    0.000    0.000 
#
# Total GULP energy -111559.216658 kJ/mol
# GULP energy per Si atom -5577.960833 kJ/mol
# Density = 2.794165 g / cm^3
# Si number density = 28.005391 Si / 1000 Ang^3
#
#
#
# Elastic Constant Matrix: (Units=GPa)
#
#
# Indices 1 2 3 4 5 6 
#
# 1 92.7217 32.3937 64.3152 0.0000 8.4465 0.0000
# 2 32.3937 225.9660 67.3661 0.0000 16.0365 0.0000
# 3 64.3152 67.3661 192.9545 0.0000 50.8152 0.0000
# 4 0.0000 0.0000 0.0000 45.7455 0.0000 -2.4981
# 5 8.4465 16.0365 50.8152 0.0000 51.6554 0.0000
# 6 0.0000 0.0000 0.0000 -2.4981 0.0000 17.2294
#
#
#
# Elastic Compliance Matrix: (Units=1/GPa)
#
#
# Indices 1 2 3 4 5 6 
#
# 1 0.014504 -0.000685 -0.005434 0.000000 0.003187 0.000000
# 2 -0.000685 0.004974 -0.001526 0.000000 0.000070 0.000000
# 3 -0.005434 -0.001526 0.009674 0.000000 -0.008155 0.000000
# 4 0.000000 0.000000 0.000000 0.022035 0.000000 0.003195
# 5 0.003187 0.000070 -0.008155 0.000000 0.026838 0.000000
# 6 0.000000 0.000000 0.000000 0.003195 0.000000 0.058504
#
#
# Mechanical properties :
#
#
# Convention : Reuss Voigt Hill
#
# Bulk Modulus (GPa) = 72.15195 93.31023 82.73109
# Shear Modulus (GPa) = 31.96110 46.09720 39.02915
#
# Velocity S-wave (km/s) = 3.38190 4.06151 3.73719
# Velocity P-wave (km/s) = 6.40853 7.44214 6.94459
#
# Compressibility (1/GPa) = 0.01385964
#
# Stress axis : x y z
#
# Youngs Moduli (GPa) = 68.94872 201.05335 103.36552
#
# Poissons Ratio (x) = 0.13777 0.56173
# Poissons Ratio (y) = 0.04725 0.15778
# Poissons Ratio (z) = 0.37470 0.30689
#
# Static dielectric constant tensor:
#      x y z
#    x 2.496220 0.000000 0.160340 
#    y 0.000000 2.293790 0.000000 
#    z 0.160340 0.000000 2.295310 
# 
# From -- ./inp_files/272959.got.cif
#   From: 2010.05.17/outbox.cif.g08.bks.cpg/sg15_137_cif.got.tgz:272959.got - 2010.06.03 18:47:42.
