data_PCOD9259513
_publ_section_title
;
Structure prediction by ZEFSAII (Michael W. Deem and Ramdas Pophale) SiO2 
 PCOD9259513
Probable space group: C 2/C
;
_chemical_formula_sum "Si O2"
_cell_formula_units_Z 56
_cell_length_a 17.336403
_cell_length_b 9.269089
_cell_length_c 16.274640
_cell_angle_alpha 90.000000
_cell_angle_beta 108.868640
_cell_angle_gamma 90.000000
_cell_volume 2474.680124
_symmetry_space_group_name_H-M "C 2/C"
_symmetry_group_IT_number 15
_symmetry_cell_setting 'monoclinic'
loop_
_space_group_symop_operation_xyz
x,y,z
-x,y,1/2-z
-x,-y,-z
x,-y,1/2+z
1/2+x,1/2+y,z
1/2-x,1/2+y,1/2-z
1/2-x,1/2-y,-z
1/2+x,1/2-y,1/2+z
loop_
_atom_site_type_symbol
_atom_site_label
_atom_site_fract_x
_atom_site_fract_y
_atom_site_fract_z
Si Si1 0.000000 0.039741 0.750000
Si Si2 0.807875 0.834437 0.456382
Si Si3 0.939760 0.804874 0.626069
Si Si4 0.726033 0.115444 0.674375
Si Si5 0.204357 0.815321 0.791927
Si Si6 0.291608 0.903303 0.516630
Si Si7 0.619461 0.196844 0.308682
Si Si8 0.000000 0.540893 0.750000
O O1 0.928321 0.152803 0.708597
O O2 0.002862 0.931367 0.672791
O O3 0.750000 0.750000 0.500000
O O4 0.899442 0.814758 0.521988
O O5 0.781263 0.768781 0.360330
O O6 0.771747 0.993351 0.458085
O O7 0.863347 0.838827 0.660936
O O8 0.970914 0.650234 0.668024
O O9 0.666776 0.201481 0.714459
O O10 0.695310 0.061717 0.574700
O O11 0.791938 0.245531 0.686099
O O12 0.767453 0.973252 0.726253
O O13 0.250000 0.750000 0.500000
O O14 0.370642 0.878387 0.598913
O O15 0.570273 0.072301 0.244337
#
# Coordination Sequence:
#
# PCOD9259513 Si02
#       8
#     4   8   8   8   8   8   8   4
#     4  10  18  36  58  80 112 156 192 240 262 336
#     4  10  18  35  59  82 113 145 192 245 284 334
#     4  10  19  37  59  86 109 149 198 230 285 337
#     4  11  23  37  57  87 120 150 181 245 304 344
#     4  11  23  36  59  86 121 148 184 244 306 343
#     4  10  19  34  59  86 114 146 190 246 287 332
#     4  10  20  37  57  86 113 146 197 237 286 333
#     4  10  22  30  62  86 108 150 194 244 262 346
#
# _framework density 22.629187999999999
#
# number of rings (size 3 to 8) (size 9 to 14) (size 15 to 20)
#    0.000    1.714    4.286    2.571    6.000    0.000 
#    0.000    0.000    0.000   10.286    0.000    0.000 
#    0.000    0.000    0.000    0.000    0.000    0.000 
#
# Total GULP energy -155950.851300 kJ/mol
# GULP energy per Si atom -5569.673261 kJ/mol
# Density = 2.257768 g / cm^3
# Si number density = 22.629188 Si / 1000 Ang^3
#
#
#
# Elastic Constant Matrix: (Units=GPa)
#
#
# Indices 1 2 3 4 5 6 
#
# 1 14.8688 17.1276 10.6192 0.0000 5.6574 0.0000
# 2 17.1276 190.8014 43.2844 0.0000 11.8249 0.0000
# 3 10.6192 43.2844 109.6851 0.0000 15.3793 0.0000
# 4 0.0000 0.0000 0.0000 41.1818 0.0000 9.5101
# 5 5.6574 11.8249 15.3793 0.0000 28.8938 0.0000
# 6 0.0000 0.0000 0.0000 9.5101 0.0000 39.3321
#
#
#
# Elastic Compliance Matrix: (Units=1/GPa)
#
#
# Indices 1 2 3 4 5 6 
#
# 1 0.080969 -0.005652 -0.004009 0.000000 -0.011407 0.000000
# 2 -0.005652 0.006192 -0.001833 0.000000 -0.000452 0.000000
# 3 -0.004009 -0.001833 0.010821 0.000000 -0.004224 0.000000
# 4 0.000000 0.000000 0.000000 0.025719 0.000000 -0.006218
# 5 -0.011407 -0.000452 -0.004224 0.000000 0.039276 0.000000
# 6 0.000000 0.000000 0.000000 -0.006218 0.000000 0.026928
#
#
# Mechanical properties :
#
#
# Convention : Reuss Voigt Hill
#
# Bulk Modulus (GPa) = 13.33451 50.82419 32.07935
# Shear Modulus (GPa) = 21.01803 38.16980 29.59391
#
# Velocity S-wave (km/s) = 3.05093 4.11146 3.62024
# Velocity P-wave (km/s) = 4.27976 6.71172 5.62865
#
# Compressibility (1/GPa) = 0.07499338
#
# Stress axis : x y z
#
# Youngs Moduli (GPa) = 12.35046 161.49233 92.41414
#
# Poissons Ratio (x) = 0.91273 0.37052
# Poissons Ratio (y) = 0.06980 0.16940
# Poissons Ratio (z) = 0.04952 0.29603
#
# Static dielectric constant tensor:
#      x y z
#    x 1.915680 0.000000 -0.025980 
#    y 0.000000 1.796680 0.000000 
#    z -0.025980 0.000000 2.025320 
# 
# From -- ./inp_files/218704.got.cif
#   From: 2010.05.17/outbox.cif.g08.bks.cpg/sg15_110_cif.got.tgz:218704.got - 2010.06.03 18:47:42.
