data_PCOD9259125
_publ_section_title
;
Structure prediction by ZEFSAII (Michael W. Deem and Ramdas Pophale) SiO2 
 PCOD9259125
Probable space group: C 2/C
;
_chemical_formula_sum "Si O2"
_cell_formula_units_Z 44
_cell_length_a 10.810673
_cell_length_b 15.586976
_cell_length_c 15.882110
_cell_angle_alpha 90.000000
_cell_angle_beta 53.930826
_cell_angle_gamma 90.000000
_cell_volume 2163.211635
_symmetry_space_group_name_H-M "C 2/C"
_symmetry_group_IT_number 15
_symmetry_cell_setting 'monoclinic'
loop_
_space_group_symop_operation_xyz
x,y,z
-x,y,1/2-z
-x,-y,-z
x,-y,1/2+z
1/2+x,1/2+y,z
1/2-x,1/2+y,1/2-z
1/2-x,1/2-y,-z
1/2+x,1/2-y,1/2+z
loop_
_atom_site_type_symbol
_atom_site_label
_atom_site_fract_x
_atom_site_fract_y
_atom_site_fract_z
Si Si1 0.625518 0.576420 0.956920
Si Si2 0.547103 0.014417 0.632782
Si Si3 0.409111 0.173616 0.410180
Si Si4 0.500000 0.319060 0.250000
Si Si5 0.373772 0.287785 0.585319
Si Si6 0.779062 0.362538 0.219255
O O1 0.776288 0.544066 0.946260
O O2 0.698061 0.608763 0.838764
O O3 0.500000 0.500000 0.000000
O O4 0.525310 0.655799 0.032384
O O5 0.500000 0.011780 0.750000
O O6 0.429429 0.082527 0.642978
O O7 0.516623 0.918728 0.612796
O O8 0.490459 0.253428 0.331411
O O9 0.384432 0.211979 0.511868
O O10 0.263019 0.158710 0.405553
O O11 0.648328 0.375712 0.201706
O O12 0.325708 0.237809 0.689200
#
# Coordination Sequence:
#
# PCOD9259125 Si02
#       6
#     8   8   8   4   8   8
#     4  11  21  39  63  89 121 161 205 245 301 367
#     4  10  21  36  59  88 121 158 202 247 294 362
#     4  10  18  34  60  87 112 157 202 246 293 353
#     4  10  18  36  62  84 120 156 204 250 296 352
#     4  10  21  36  59  89 117 154 200 250 303 355
#     4  10  23  36  57  93 120 154 200 256 296 355
#
# _framework density 20.340128
#
# number of rings (size 3 to 8) (size 9 to 14) (size 15 to 20)
#    0.000    1.818    4.545    0.000    0.000    1.455 
#    0.000    0.000    0.000    2.182    0.000    0.000 
#    0.000    0.000    0.000    0.000    0.000    0.000 
#
# Total GULP energy -122486.665300 kJ/mol
# GULP energy per Si atom -5567.575695 kJ/mol
# Density = 2.029383 g / cm^3
# Si number density = 20.340128 Si / 1000 Ang^3
#
#
#
# Elastic Constant Matrix: (Units=GPa)
#
#
# Indices 1 2 3 4 5 6 
#
# 1 71.3410 41.6332 25.0519 0.0000 -38.0239 0.0000
# 2 41.6332 71.0696 23.9048 0.0000 -9.6480 0.0000
# 3 25.0519 23.9048 70.0187 0.0001 -12.3594 0.0000
# 4 0.0000 0.0000 0.0001 22.8211 0.0000 2.0915
# 5 -38.0239 -9.6480 -12.3594 0.0000 34.8295 0.0000
# 6 0.0000 0.0000 0.0000 2.0915 0.0000 17.3532
#
#
#
# Elastic Compliance Matrix: (Units=1/GPa)
#
#
# Indices 1 2 3 4 5 6 
#
# 1 0.064089 -0.028417 -0.002419 0.000000 0.061236 0.000000
# 2 -0.028417 0.028728 -0.003960 0.000000 -0.024471 0.000000
# 3 -0.002419 -0.003960 0.016898 0.000000 0.002258 0.000000
# 4 0.000000 0.000000 0.000000 0.044308 0.000000 -0.005340
# 5 0.061236 -0.024471 0.002258 0.000000 0.089587 0.000000
# 6 0.000000 0.000000 0.000000 -0.005340 0.000000 0.058270
#
#
# Mechanical properties :
#
#
# Convention : Reuss Voigt Hill
#
# Bulk Modulus (GPa) = 24.92397 43.73433 34.32915
# Shear Modulus (GPa) = 12.99222 23.12339 18.05781
#
# Velocity S-wave (km/s) = 2.53009 3.37536 2.98282
# Velocity P-wave (km/s) = 4.56238 6.06126 5.36443
#
# Compressibility (1/GPa) = 0.04012202
#
# Stress axis : x y z
#
# Youngs Moduli (GPa) = 15.60340 34.80978 59.17833
#
# Poissons Ratio (x) = 0.98918 0.14317
# Poissons Ratio (y) = 0.44340 0.23435
# Poissons Ratio (z) = 0.03775 0.13785
#
# Static dielectric constant tensor:
#      x y z
#    x 1.777410 0.000000 -0.013850 
#    y 0.000000 1.735700 0.000000 
#    z -0.013850 0.000000 1.850420 
# 
# From -- ./inp_files/182231.got.cif
#   From: 2010.05.17/outbox.cif.g08.bks.cpg/sg15_92_cif.got.tgz:182231.got - 2010.06.03 18:47:42.
