data_PCOD9259170
_publ_section_title
;
Structure prediction by ZEFSAII (Michael W. Deem and Ramdas Pophale) SiO2 
 PCOD9259170
Probable space group: C 2/C
;
_chemical_formula_sum "Si O2"
_cell_formula_units_Z 36
_cell_length_a 16.905531
_cell_length_b 24.935837
_cell_length_c 11.366737
_cell_angle_alpha 90.000000
_cell_angle_beta 156.543434
_cell_angle_gamma 90.000000
_cell_volume 1907.349638
_symmetry_space_group_name_H-M "C 2/C"
_symmetry_group_IT_number 15
_symmetry_cell_setting 'monoclinic'
loop_
_space_group_symop_operation_xyz
x,y,z
-x,y,1/2-z
-x,-y,-z
x,-y,1/2+z
1/2+x,1/2+y,z
1/2-x,1/2+y,1/2-z
1/2-x,1/2-y,-z
1/2+x,1/2-y,1/2+z
loop_
_atom_site_type_symbol
_atom_site_label
_atom_site_fract_x
_atom_site_fract_y
_atom_site_fract_z
Si Si1 0.278272 0.901471 0.388331
Si Si2 0.203248 0.811837 0.456511
Si Si3 0.054354 0.398064 0.574458
Si Si4 0.192867 0.013256 0.943151
Si Si5 0.000000 0.569966 0.750000
O O1 0.500000 0.909419 0.750000
O O2 0.202507 0.844656 0.332732
O O3 0.332783 0.905870 0.326409
O O4 0.145808 0.946773 0.269029
O O5 0.250000 0.750000 0.500000
O O6 0.363673 0.844030 0.753635
O O7 0.000000 0.817797 0.250000
O O8 0.070384 0.396126 0.457228
O O9 0.184054 0.448697 0.797785
O O10 0.000000 0.994919 0.750000
O O11 0.331395 0.968068 0.076422
#
# Coordination Sequence:
#
# PCOD9259170 Si02
#       5
#     8   8   8   8   4
#     4   8  15  31  51  76 105 132 177 228 258 308
#     4  10  18  34  61  84 100 131 180 235 280 315
#     4  10  20  35  53  79 115 142 182 228 269 325
#     4  10  19  34  54  78 107 152 194 223 261 311
#     4  12  22  36  50  76 122 156 174 222 274 318
#
# _framework density 18.874357
#
# number of rings (size 3 to 8) (size 9 to 14) (size 15 to 20)
#    0.000    2.667    3.333    5.333    0.000    0.889 
#    4.000    0.000    0.000    5.333    0.000    0.000 
#    0.000    0.000    0.000    0.000    0.000    0.000 
#
# Total GULP energy -100316.933554 kJ/mol
# GULP energy per Si atom -5573.162975 kJ/mol
# Density = 1.883140 g / cm^3
# Si number density = 18.874357 Si / 1000 Ang^3
#
#
#
# Elastic Constant Matrix: (Units=GPa)
#
#
# Indices 1 2 3 4 5 6 
#
# 1 153.4316 33.4984 44.3739 0.0000 14.3079 0.0000
# 2 33.4984 81.6064 20.0526 0.0000 1.3743 0.0000
# 3 44.3739 20.0526 30.6693 -0.0002 21.0318 0.0001
# 4 0.0000 0.0000 -0.0002 19.6269 0.0000 -1.7426
# 5 14.3079 1.3743 21.0318 0.0000 44.0711 0.0000
# 6 0.0000 0.0000 0.0001 -1.7426 0.0000 59.7630
#
#
#
# Elastic Compliance Matrix: (Units=1/GPa)
#
#
# Indices 1 2 3 4 5 6 
#
# 1 0.012440 0.000441 -0.023053 0.000000 0.006949 0.000000
# 2 0.000441 0.015806 -0.015662 0.000000 0.006838 0.000000
# 3 -0.023053 -0.015662 0.105142 0.000001 -0.042204 0.000000
# 4 0.000000 0.000000 0.000001 0.051083 0.000000 0.001489
# 5 0.006949 0.006838 -0.042204 0.000000 0.040362 0.000000
# 6 0.000000 0.000000 0.000000 0.001489 0.000000 0.016776
#
#
# Mechanical properties :
#
#
# Convention : Reuss Voigt Hill
#
# Bulk Modulus (GPa) = 17.59306 51.28411 34.43858
# Shear Modulus (GPa) = 14.83216 35.87770 25.35493
#
# Velocity S-wave (km/s) = 2.80632 4.36463 3.66915
# Velocity P-wave (km/s) = 4.45443 7.25467 6.01964
#
# Compressibility (1/GPa) = 0.05684061
#
# Stress axis : x y z
#
# Youngs Moduli (GPa) = 80.38305 63.26582 9.51092
#
# Poissons Ratio (x) = -0.02790 0.21926
# Poissons Ratio (y) = -0.03545 0.14896
# Poissons Ratio (z) = 1.85307 0.99088
#
# Static dielectric constant tensor:
#      x y z
#    x 1.739370 0.000000 -0.003810 
#    y 0.000000 1.666280 0.000000 
#    z -0.003810 0.000000 1.728990 
# 
# From -- ./inp_files/90517.got.cif
#   From: 2010.05.17/outbox.cif.g08.bks.cpg/sg15_46_cif.got.tgz:90517.got - 2010.06.03 18:47:42.
