data_PCOD9259660
_publ_section_title
;
Structure prediction by ZEFSAII (Michael W. Deem and Ramdas Pophale) SiO2 
 PCOD9259660
Probable space group: C 2/C
;
_chemical_formula_sum "Si O2"
_cell_formula_units_Z 48
_cell_length_a 11.998794
_cell_length_b 9.931156
_cell_length_c 17.394638
_cell_angle_alpha 90.000000
_cell_angle_beta 63.003938
_cell_angle_gamma 90.000000
_cell_volume 1846.923419
_symmetry_space_group_name_H-M "C 2/C"
_symmetry_group_IT_number 15
_symmetry_cell_setting 'monoclinic'
loop_
_space_group_symop_operation_xyz
x,y,z
-x,y,1/2-z
-x,-y,-z
x,-y,1/2+z
1/2+x,1/2+y,z
1/2-x,1/2+y,1/2-z
1/2-x,1/2-y,-z
1/2+x,1/2-y,1/2+z
loop_
_atom_site_type_symbol
_atom_site_label
_atom_site_fract_x
_atom_site_fract_y
_atom_site_fract_z
Si Si1 0.454145 0.881305 0.567863
Si Si2 0.108060 0.529965 0.164547
Si Si3 0.837955 0.073452 0.335213
Si Si4 0.955811 0.839007 0.634521
Si Si5 0.645124 0.391935 0.395242
Si Si6 0.216132 0.800241 0.199345
O O1 0.442253 0.726181 0.543550
O O2 0.500000 0.000000 0.500000
O O3 0.542101 0.898605 0.613820
O O4 0.308619 0.908418 0.627268
O O5 0.221904 0.431120 0.108258
O O6 0.164299 0.652417 0.197157
O O7 0.000000 0.460871 0.250000
O O8 0.896308 0.123377 0.237230
O O9 0.849921 0.910872 0.334629
O O10 0.899101 0.153007 0.386938
O O11 0.926174 0.968472 0.592642
O O12 0.866731 0.713716 0.640289
O O13 0.683352 0.345338 0.296133
#
# Coordination Sequence:
#
# PCOD9259660 Si02
#       6
#     8   8   8   8   8   8
#     4  12  25  41  57  88 134 172 210 252 318 394
#     4  11  21  38  66  93 121 165 214 267 323 367
#     4  10  20  34  55  87 118 157 199 255 318 361
#     4   9  18  34  60  88 113 148 205 269 310 357
#     4  10  20  37  59  88 119 160 209 259 316 376
#     4  10  18  35  62  91 120 145 209 275 314 363
#
# _framework density 25.989166999999998
#
# number of rings (size 3 to 8) (size 9 to 14) (size 15 to 20)
#    0.000    1.667    3.333    3.000    2.333    3.333 
#    0.000    3.333    0.000    4.000    0.000    0.000 
#    0.000    0.000    0.000    0.000    0.000    0.000 
#
# Total GULP energy -134265.154373 kJ/mol
# GULP energy per Si atom -5594.381432 kJ/mol
# Density = 2.593001 g / cm^3
# Si number density = 25.989167 Si / 1000 Ang^3
#
#
#
# Elastic Constant Matrix: (Units=GPa)
#
#
# Indices 1 2 3 4 5 6 
#
# 1 171.9674 50.8124 19.7869 0.0000 -8.8373 0.0000
# 2 50.8124 140.5673 35.0932 0.0000 -2.2363 0.0000
# 3 19.7869 35.0932 39.8298 0.0000 -11.2164 0.0000
# 4 0.0000 0.0000 0.0000 38.8411 0.0000 -7.5547
# 5 -8.8373 -2.2363 -11.2164 0.0000 11.1810 0.0000
# 6 0.0000 0.0000 0.0000 -7.5547 0.0000 45.7110
#
#
#
# Elastic Compliance Matrix: (Units=1/GPa)
#
#
# Indices 1 2 3 4 5 6 
#
# 1 0.006766 -0.002412 0.000187 0.000000 0.005053 0.000000
# 2 -0.002412 0.010629 -0.011297 0.000000 -0.011113 0.000000
# 3 0.000187 -0.011297 0.047906 0.000000 0.045946 0.000000
# 4 0.000000 0.000000 0.000000 0.026601 0.000000 0.004396
# 5 0.005053 -0.011113 0.045946 0.000000 0.137300 0.000000
# 6 0.000000 0.000000 0.000000 0.004396 0.000000 0.022603
#
#
# Mechanical properties :
#
#
# Convention : Reuss Voigt Hill
#
# Bulk Modulus (GPa) = 26.13837 62.63883 44.38860
# Shear Modulus (GPa) = 17.14670 35.59141 26.36905
#
# Velocity S-wave (km/s) = 2.57137 3.70465 3.18876
# Velocity P-wave (km/s) = 4.34686 6.51563 5.53844
#
# Compressibility (1/GPa) = 0.03825793
#
# Stress axis : x y z
#
# Youngs Moduli (GPa) = 147.79986 94.07912 20.87421
#
# Poissons Ratio (x) = 0.22692 -0.00390
# Poissons Ratio (y) = 0.35649 0.23581
# Poissons Ratio (z) = -0.02762 1.06277
#
# Static dielectric constant tensor:
#      x y z
#    x 2.103290 0.000000 -0.012440 
#    y 0.000000 2.120140 0.000000 
#    z -0.012440 0.000000 2.153970 
# 
# From -- ./inp_files/196113.got.cif
#   From: 2010.05.17/outbox.cif.g08.bks.cpg/sg15_99_cif.got.tgz:196113.got - 2010.06.03 18:47:42.
