data_PCOD9259409
_publ_section_title
;
Structure prediction by ZEFSAII (Michael W. Deem and Ramdas Pophale) SiO2 
 PCOD9259409
Probable space group: C 2/C
;
_chemical_formula_sum "Si O2"
_cell_formula_units_Z 64
_cell_length_a 13.231761
_cell_length_b 18.174259
_cell_length_c 19.494875
_cell_angle_alpha 90.000000
_cell_angle_beta 143.723923
_cell_angle_gamma 90.000000
_cell_volume 2773.826078
_symmetry_space_group_name_H-M "C 2/C"
_symmetry_group_IT_number 15
_symmetry_cell_setting 'monoclinic'
loop_
_space_group_symop_operation_xyz
x,y,z
-x,y,1/2-z
-x,-y,-z
x,-y,1/2+z
1/2+x,1/2+y,z
1/2-x,1/2+y,1/2-z
1/2-x,1/2-y,-z
1/2+x,1/2-y,1/2+z
loop_
_atom_site_type_symbol
_atom_site_label
_atom_site_fract_x
_atom_site_fract_y
_atom_site_fract_z
Si Si1 0.316056 0.961492 0.122395
Si Si2 0.177083 0.828654 0.975842
Si Si3 0.742018 0.935588 0.749738
Si Si4 0.655806 0.960871 0.994727
Si Si5 0.722280 0.113055 0.099618
Si Si6 0.621893 0.415610 0.155805
Si Si7 0.382845 0.331320 0.929846
Si Si8 0.834782 0.663371 0.892494
O O1 0.500000 0.982238 0.250000
O O2 0.320024 0.884148 0.083898
O O3 0.205248 0.942149 0.128433
O O4 0.260892 0.018904 0.033120
O O5 0.250000 0.750000 0.000000
O O6 0.143194 0.860172 0.882082
O O7 0.029018 0.826860 0.950668
O O8 0.547940 0.962332 0.631810
O O9 0.767766 0.877104 0.703267
O O10 0.760139 0.894110 0.831743
O O11 0.878470 0.001338 0.813564
O O12 0.703077 0.886488 0.060626
O O13 0.695493 0.026973 0.068512
O O14 0.536937 0.151022 0.988728
O O15 0.732716 0.368510 0.270941
O O16 0.471156 0.362549 0.046804
O O17 0.305652 0.249669 0.891483
#
# Coordination Sequence:
#
# PCOD9259409 Si02
#       8
#     8   8   8   8   8   8   8   8
#     4  10  19  33  57  84 104 147 205 241 286 331
#     4  10  20  35  48  78 126 157 183 227 284 366
#     4  11  20  36  55  80 114 153 199 243 291 352
#     4  10  19  36  59  84 108 150 208 250 273 340
#     4  10  18  35  57  78 108 157 205 232 272 341
#     4  11  21  39  57  82 121 157 194 249 296 354
#     4  11  26  33  53  90 123 159 182 239 314 361
#     4  11  20  36  58  85 117 153 200 241 292 347
#
# _framework density 23.072824000000001
#
# number of rings (size 3 to 8) (size 9 to 14) (size 15 to 20)
#    0.000    1.500    5.000    1.875    3.500    0.500 
#    0.000    0.000    0.000    0.750    0.000    0.000 
#    0.000    0.000    0.000    0.000    0.000    0.000 
#
# Total GULP energy -178561.395420 kJ/mol
# GULP energy per Si atom -5580.043607 kJ/mol
# Density = 2.302031 g / cm^3
# Si number density = 23.072824 Si / 1000 Ang^3
#
#
#
# Elastic Constant Matrix: (Units=GPa)
#
#
# Indices 1 2 3 4 5 6 
#
# 1 46.0534 11.9699 25.6877 0.0000 -16.6463 0.0000
# 2 11.9699 157.6347 56.9247 -0.0003 -8.2784 -0.0007
# 3 25.6877 56.9247 146.1075 -0.0007 -30.8231 -0.0011
# 4 0.0000 -0.0003 -0.0007 19.8125 -0.0002 -5.5424
# 5 -16.6463 -8.2784 -30.8231 -0.0002 30.1559 -0.0004
# 6 0.0000 -0.0007 -0.0011 -5.5424 -0.0004 28.1043
#
#
#
# Elastic Compliance Matrix: (Units=1/GPa)
#
#
# Indices 1 2 3 4 5 6 
#
# 1 0.027697 -0.000767 -0.001772 0.000000 0.013267 0.000000
# 2 -0.000767 0.007436 -0.003086 0.000000 -0.001537 0.000000
# 3 -0.001772 -0.003086 0.010165 0.000001 0.008565 0.000001
# 4 0.000000 0.000000 0.000001 0.053420 0.000001 0.010535
# 5 0.013267 -0.001537 0.008565 0.000001 0.048817 0.000001
# 6 0.000000 0.000000 0.000001 0.010535 0.000001 0.037659
#
#
# Mechanical properties :
#
#
# Convention : Reuss Voigt Hill
#
# Bulk Modulus (GPa) = 29.37018 59.88447 44.62733
# Shear Modulus (GPa) = 24.06231 32.62876 28.34554
#
# Velocity S-wave (km/s) = 3.23288 3.76462 3.50883
# Velocity P-wave (km/s) = 5.16646 6.70129 5.98330
#
# Compressibility (1/GPa) = 0.03404814
#
# Stress axis : x y z
#
# Youngs Moduli (GPa) = 36.10489 134.48330 98.37564
#
# Poissons Ratio (x) = 0.10308 0.17432
# Poissons Ratio (y) = 0.02768 0.30363
# Poissons Ratio (z) = 0.06398 0.41508
#
# Static dielectric constant tensor:
#      x y z
#    x 1.896360 0.000000 -0.110300 
#    y 0.000000 2.074400 0.000000 
#    z -0.110300 0.000000 1.297260 
# 
# From -- ./inp_files/249657.got.cif
#   From: 2010.05.17/outbox.cif.g08.bks.cpg/sg15_125_cif.got.tgz:249657.got - 2010.06.03 18:47:42.
