data_PCOD9259070
_publ_section_title
;
Structure prediction by ZEFSAII (Michael W. Deem and Ramdas Pophale) SiO2 
 PCOD9259070
Probable space group: C 2/C
;
_chemical_formula_sum "Si O2"
_cell_formula_units_Z 64
_cell_length_a 10.655591
_cell_length_b 9.996918
_cell_length_c 29.028742
_cell_angle_alpha 90.000000
_cell_angle_beta 81.686201
_cell_angle_gamma 90.000000
_cell_volume 3059.734429
_symmetry_space_group_name_H-M "C 2/C"
_symmetry_group_IT_number 15
_symmetry_cell_setting 'monoclinic'
loop_
_space_group_symop_operation_xyz
x,y,z
-x,y,1/2-z
-x,-y,-z
x,-y,1/2+z
1/2+x,1/2+y,z
1/2-x,1/2+y,1/2-z
1/2-x,1/2-y,-z
1/2+x,1/2-y,1/2+z
loop_
_atom_site_type_symbol
_atom_site_label
_atom_site_fract_x
_atom_site_fract_y
_atom_site_fract_z
Si Si1 0.277722 0.975090 0.295447
Si Si2 0.375478 0.621025 0.364575
Si Si3 0.627073 0.316131 0.465389
Si Si4 0.120478 0.469261 0.915026
Si Si5 0.059956 0.095067 0.871070
Si Si6 0.082880 0.310167 0.055552
Si Si7 0.773514 0.809215 0.769920
Si Si8 0.993712 0.641382 0.172840
O O1 0.199004 0.904616 0.340833
O O2 0.306449 0.847203 0.260883
O O3 0.197035 0.084607 0.271348
O O4 0.395370 0.056094 0.310274
O O5 0.269460 0.525146 0.394434
O O6 0.504943 0.544452 0.359944
O O7 0.395438 0.750601 0.394971
O O8 0.336746 0.649978 0.314709
O O9 0.566788 0.392035 0.425546
O O10 0.773814 0.362335 0.463283
O O11 0.564242 0.308007 0.518853
O O12 0.617031 0.162170 0.447489
O O13 0.034596 0.587955 0.939811
O O14 0.058013 0.436856 0.868933
O O15 0.978997 0.212770 0.850937
O O16 0.621996 0.829949 0.786094
#
# Coordination Sequence:
#
# PCOD9259070 Si02
#       8
#     8   8   8   8   8   8   8   8
#     4  11  22  41  63  86 116 155 201 248 303 362
#     4  10  22  37  52  84 121 151 187 248 295 359
#     4   9  19  34  57  86 109 151 201 242 290 357
#     4   9  17  34  57  80 111 150 195 238 289 353
#     4  10  22  38  57  83 122 157 191 241 307 357
#     4  10  18  34  59  82 114 150 198 247 291 347
#     4  10  23  40  60  88 114 151 204 245 298 360
#     4   9  19  38  61  79 113 155 191 243 297 351
#
# _framework density 20.916848000000002
#
# number of rings (size 3 to 8) (size 9 to 14) (size 15 to 20)
#    0.000    2.250    0.000    4.500    1.750    2.000 
#    6.750    0.625    0.000    0.000    0.000    0.000 
#    0.000    0.000    0.000    0.000    0.000    0.000 
#
# Total GULP energy -178275.858055 kJ/mol
# GULP energy per Si atom -5571.120564 kJ/mol
# Density = 2.086924 g / cm^3
# Si number density = 20.916848 Si / 1000 Ang^3
#
#
#
# Elastic Constant Matrix: (Units=GPa)
#
#
# Indices 1 2 3 4 5 6 
#
# 1 47.6370 31.1038 19.5243 0.0000 12.9270 0.0000
# 2 31.1038 53.8059 19.6370 0.0000 14.6214 0.0000
# 3 19.5243 19.6370 82.7639 0.0000 23.5969 0.0000
# 4 0.0000 0.0000 0.0000 18.5998 0.0000 3.4105
# 5 12.9270 14.6214 23.5969 0.0000 24.7060 0.0000
# 6 0.0000 0.0000 0.0000 3.4105 0.0000 37.9676
#
#
#
# Elastic Compliance Matrix: (Units=1/GPa)
#
#
# Indices 1 2 3 4 5 6 
#
# 1 0.035224 -0.017981 -0.002504 0.000000 -0.005396 0.000000
# 2 -0.017981 0.031592 -0.000832 0.000000 -0.008493 0.000000
# 3 -0.002504 -0.000832 0.016981 0.000000 -0.014416 0.000000
# 4 0.000000 0.000000 0.000000 0.054664 0.000000 -0.004910
# 5 -0.005396 -0.008493 -0.014416 0.000000 0.062095 0.000000
# 6 0.000000 0.000000 0.000000 -0.004910 0.000000 0.026779
#
#
# Mechanical properties :
#
#
# Convention : Reuss Voigt Hill
#
# Bulk Modulus (GPa) = 24.29545 36.08191 30.18868
# Shear Modulus (GPa) = 17.62484 23.85078 20.73781
#
# Velocity S-wave (km/s) = 2.90593 3.38045 3.15213
# Velocity P-wave (km/s) = 4.78536 5.70300 5.26421
#
# Compressibility (1/GPa) = 0.04115998
#
# Stress axis : x y z
#
# Youngs Moduli (GPa) = 28.39004 31.65400 58.88969
#
# Poissons Ratio (x) = 0.56918 0.14749
# Poissons Ratio (y) = 0.51049 0.04901
# Poissons Ratio (z) = 0.07110 0.02634
#
# Static dielectric constant tensor:
#      x y z
#    x 1.779880 0.000000 -0.071120 
#    y 0.000000 1.781470 0.000000 
#    z -0.071120 0.000000 1.871950 
# 
# From -- ./inp_files/310310.got.cif
#   From: 2010.05.17/outbox.cif.g08.bks.cpg/sg15_156_cif.got.tgz:310310.got - 2010.06.03 18:47:42.
