data_PCOD9259936
_publ_section_title
;
Structure prediction by ZEFSAII (Michael W. Deem and Ramdas Pophale) SiO2 
 PCOD9259936
Probable space group: C 2/C
;
_chemical_formula_sum "Si O2"
_cell_formula_units_Z 48
_cell_length_a 20.975221
_cell_length_b 8.530228
_cell_length_c 11.349315
_cell_angle_alpha 90.000000
_cell_angle_beta 104.334194
_cell_angle_gamma 90.000000
_cell_volume 1967.440079
_symmetry_space_group_name_H-M "C 2/C"
_symmetry_group_IT_number 15
_symmetry_cell_setting 'monoclinic'
loop_
_space_group_symop_operation_xyz
x,y,z
-x,y,1/2-z
-x,-y,-z
x,-y,1/2+z
1/2+x,1/2+y,z
1/2-x,1/2+y,1/2-z
1/2-x,1/2-y,-z
1/2+x,1/2-y,1/2+z
loop_
_atom_site_type_symbol
_atom_site_label
_atom_site_fract_x
_atom_site_fract_y
_atom_site_fract_z
Si Si1 0.338275 0.285475 0.862196
Si Si2 0.398563 0.341743 0.643313
Si Si3 0.549512 0.861242 0.536883
Si Si4 0.803481 0.553051 0.406823
Si Si5 0.224059 0.899029 0.089205
Si Si6 0.537258 0.615824 0.923819
O O1 0.376290 0.275454 0.756374
O O2 0.294705 0.129071 0.865977
O O3 0.298433 0.451315 0.846251
O O4 0.397647 0.306310 0.985542
O O5 0.442518 0.226364 0.585156
O O6 0.335365 0.379426 0.532577
O O7 0.435756 0.507173 0.667730
O O8 0.621896 0.919087 0.597792
O O9 0.517717 0.746664 0.617970
O O10 0.500000 0.000000 0.500000
O O11 0.771172 0.722776 0.356873
O O12 0.787234 0.555324 0.539744
O O13 0.500000 0.500000 0.000000
#
# Coordination Sequence:
#
# PCOD9259936 Si02
#       6
#     8   8   8   8   8   8
#     4  11  20  39  65  91 117 164 208 239 306 365
#     4   9  21  38  61  88 118 157 202 249 296 360
#     4  10  18  36  59  84 115 155 196 245 301 356
#     4  10  20  39  64  84 119 161 197 251 307 356
#     4   9  21  42  60  89 126 155 197 260 304 347
#     4   9  19  36  60  82 123 160 191 251 301 348
#
# _framework density 24.397186000000001
#
# number of rings (size 3 to 8) (size 9 to 14) (size 15 to 20)
#    0.000    2.333    1.667    1.500    0.000    2.667 
#   12.000    0.000    7.333    0.000    0.000    0.000 
#    0.000    0.000    0.000    0.000    0.000    0.000 
#
# Total GULP energy -133945.432519 kJ/mol
# GULP energy per Si atom -5581.059688 kJ/mol
# Density = 2.434166 g / cm^3
# Si number density = 24.397186 Si / 1000 Ang^3
#
#
#
# Elastic Constant Matrix: (Units=GPa)
#
#
# Indices 1 2 3 4 5 6 
#
# 1 90.4302 49.9758 18.0776 0.0000 -12.1560 0.0000
# 2 49.9758 189.6223 54.0595 0.0000 -19.9789 0.0000
# 3 18.0776 54.0595 75.5625 0.0000 -14.3830 0.0000
# 4 0.0000 0.0000 0.0000 41.1357 0.0000 -7.9975
# 5 -12.1560 -19.9789 -14.3830 0.0000 34.3253 0.0000
# 6 0.0000 0.0000 0.0000 -7.9975 0.0000 49.1908
#
#
#
# Elastic Compliance Matrix: (Units=1/GPa)
#
#
# Indices 1 2 3 4 5 6 
#
# 1 0.013207 -0.003068 -0.000451 0.000000 0.002703 0.000000
# 2 -0.003068 0.007470 -0.004336 0.000000 0.001445 0.000000
# 3 -0.000451 -0.004336 0.017314 0.000000 0.004572 0.000000
# 4 0.000000 0.000000 0.000000 0.025103 0.000000 0.004081
# 5 0.002703 0.001445 0.004572 0.000000 0.032847 0.000000
# 6 0.000000 0.000000 0.000000 0.004081 0.000000 0.020993
#
#
# Mechanical properties :
#
#
# Convention : Reuss Voigt Hill
#
# Bulk Modulus (GPa) = 44.87552 66.64899 55.76225
# Shear Modulus (GPa) = 35.69664 40.49718 38.09691
#
# Velocity S-wave (km/s) = 3.82926 4.07862 3.95591
# Velocity P-wave (km/s) = 6.16317 7.03973 6.61598
#
# Compressibility (1/GPa) = 0.02228387
#
# Stress axis : x y z
#
# Youngs Moduli (GPa) = 75.71801 133.86191 57.75711
#
# Poissons Ratio (x) = 0.41062 0.02602
# Poissons Ratio (y) = 0.23227 0.25041
# Poissons Ratio (z) = 0.03412 0.58037
#
# Static dielectric constant tensor:
#      x y z
#    x 1.993020 0.000000 0.073880 
#    y 0.000000 1.999100 0.000000 
#    z 0.073880 0.000000 1.966420 
# 
# From -- ./inp_files/116290.got.cif
#   From: 2010.05.17/outbox.cif.g08.bks.cpg/sg15_59_cif.got.tgz:116290.got - 2010.06.03 18:47:42.
