data_PCOD9259646
_publ_section_title
;
Structure prediction by ZEFSAII (Michael W. Deem and Ramdas Pophale) SiO2 
 PCOD9259646
Probable space group: C 2/C
;
_chemical_formula_sum "Si O2"
_cell_formula_units_Z 60
_cell_length_a 18.717177
_cell_length_b 6.532034
_cell_length_c 27.771859
_cell_angle_alpha 90.000000
_cell_angle_beta 110.135089
_cell_angle_gamma 90.000000
_cell_volume 3187.905906
_symmetry_space_group_name_H-M "C 2/C"
_symmetry_group_IT_number 15
_symmetry_cell_setting 'monoclinic'
loop_
_space_group_symop_operation_xyz
x,y,z
-x,y,1/2-z
-x,-y,-z
x,-y,1/2+z
1/2+x,1/2+y,z
1/2-x,1/2+y,1/2-z
1/2-x,1/2-y,-z
1/2+x,1/2-y,1/2+z
loop_
_atom_site_type_symbol
_atom_site_label
_atom_site_fract_x
_atom_site_fract_y
_atom_site_fract_z
Si Si1 0.000000 0.826810 0.750000
Si Si2 0.868881 0.853535 0.204950
Si Si3 0.529411 0.967332 0.829890
Si Si4 0.521621 0.903035 0.429904
Si Si5 0.284706 0.966434 0.368773
Si Si6 0.610380 0.417329 0.612148
Si Si7 0.099458 0.300834 0.544882
Si Si8 0.636515 0.767033 0.694510
O O1 0.013830 0.677123 0.798069
O O2 0.072546 0.974124 0.763464
O O3 0.916123 0.677711 0.188684
O O4 0.805266 0.948705 0.155862
O O5 0.830563 0.765605 0.244646
O O6 0.559269 0.010467 0.890435
O O7 0.447710 0.858814 0.817347
O O8 0.465400 0.719053 0.401457
O O9 0.578094 0.828325 0.484516
O O10 0.466026 0.075544 0.440437
O O11 0.321355 0.741627 0.379113
O O12 0.321542 0.093841 0.421021
O O13 0.315645 0.080804 0.328010
O O14 0.600771 0.570641 0.564883
O O15 0.626638 0.558831 0.661952
#
# Coordination Sequence:
#
# PCOD9259646 Si02
#       8
#     4   8   8   8   8   8   8   8
#     4  12  24  40  62  78 122 162 198 240 300 362
#     4  12  26  39  58  89 121 163 198 247 298 364
#     4  12  22  40  59  91 120 153 203 243 296 367
#     4  10  19  34  62  89 117 155 196 253 298 351
#     4  10  24  38  59  88 123 155 197 248 301 347
#     4  10  18  35  62  86 118 150 197 248 301 350
#     4   9  19  37  58  90 120 148 203 251 295 357
#     4  11  21  39  57  88 120 153 202 240 292 369
#
# _framework density 18.821134000000001
#
# number of rings (size 3 to 8) (size 9 to 14) (size 15 to 20)
#    0.000    1.333    6.667    1.200    1.867    2.133 
#    0.000    0.667    0.000    1.600    0.000    0.000 
#    0.000    0.000    0.000    0.000    0.000    0.000 
#
# Total GULP energy -167541.476810 kJ/mol
# GULP energy per Si atom -5584.715894 kJ/mol
# Density = 1.877830 g / cm^3
# Si number density = 18.821134 Si / 1000 Ang^3
#
#
#
# Elastic Constant Matrix: (Units=GPa)
#
#
# Indices 1 2 3 4 5 6 
#
# 1 45.2410 25.8289 24.8189 0.0000 14.4492 0.0000
# 2 25.8289 93.4045 12.9014 0.0000 -5.3327 0.0000
# 3 24.8189 12.9014 91.6349 0.0000 -10.3564 0.0000
# 4 0.0000 0.0000 0.0000 12.9651 0.0000 1.3172
# 5 14.4492 -5.3327 -10.3564 0.0000 27.3942 0.0000
# 6 0.0000 0.0000 0.0000 1.3172 0.0000 10.2198
#
#
#
# Elastic Compliance Matrix: (Units=1/GPa)
#
#
# Indices 1 2 3 4 5 6 
#
# 1 0.049109 -0.013426 -0.015286 0.000000 -0.034295 0.000000
# 2 -0.013426 0.014658 0.002816 0.000000 0.011000 0.000000
# 3 -0.015286 0.002816 0.016328 0.000000 0.014784 0.000000
# 4 0.000000 0.000000 0.000000 0.078154 0.000000 -0.010073
# 5 -0.034295 0.011000 0.014784 0.000000 0.062323 0.000000
# 6 0.000000 0.000000 0.000000 -0.010073 0.000000 0.099148
#
#
# Mechanical properties :
#
#
# Convention : Reuss Voigt Hill
#
# Bulk Modulus (GPa) = 35.33553 39.70873 37.52213
# Shear Modulus (GPa) = 13.12521 21.23122 17.17822
#
# Velocity S-wave (km/s) = 2.64363 3.36229 3.02439
# Velocity P-wave (km/s) = 5.30411 6.01806 5.67233
#
# Compressibility (1/GPa) = 0.02830013
#
# Stress axis : x y z
#
# Youngs Moduli (GPa) = 20.36305 68.22237 61.24632
#
# Poissons Ratio (x) = 0.91598 0.93624
# Poissons Ratio (y) = 0.27340 -0.17247
# Poissons Ratio (z) = 0.31128 -0.19211
#
# Static dielectric constant tensor:
#      x y z
#    x 1.630000 0.000000 -0.004470 
#    y 0.000000 1.659420 0.000000 
#    z -0.004470 0.000000 1.677670 
# 
# From -- ./inp_files/299894.got.cif
#   From: 2010.05.17/outbox.cif.g08.bks.cpg/sg15_150_cif.got.tgz:299894.got - 2010.06.03 18:47:42.
