data_PCOD9259395
_publ_section_title
;
Structure prediction by ZEFSAII (Michael W. Deem and Ramdas Pophale) SiO2 
 PCOD9259395
Probable space group: C 2/C
;
_chemical_formula_sum "Si O2"
_cell_formula_units_Z 56
_cell_length_a 16.723000
_cell_length_b 18.534722
_cell_length_c 11.929956
_cell_angle_alpha 90.000000
_cell_angle_beta 50.539286
_cell_angle_gamma 90.000000
_cell_volume 2854.897139
_symmetry_space_group_name_H-M "C 2/C"
_symmetry_group_IT_number 15
_symmetry_cell_setting 'monoclinic'
loop_
_space_group_symop_operation_xyz
x,y,z
-x,y,1/2-z
-x,-y,-z
x,-y,1/2+z
1/2+x,1/2+y,z
1/2-x,1/2+y,1/2-z
1/2-x,1/2-y,-z
1/2+x,1/2-y,1/2+z
loop_
_atom_site_type_symbol
_atom_site_label
_atom_site_fract_x
_atom_site_fract_y
_atom_site_fract_z
Si Si1 0.342885 0.551563 0.164483
Si Si2 0.822517 0.137261 0.408297
Si Si3 0.743243 0.845031 0.589031
Si Si4 0.908785 0.721200 0.423205
Si Si5 0.383808 0.205341 0.868920
Si Si6 0.080189 0.900896 0.448797
Si Si7 0.405606 0.237955 0.107037
O O1 0.309545 0.586594 0.312321
O O2 0.275798 0.581402 0.120091
O O3 0.350357 0.465510 0.160276
O O4 0.460292 0.579077 0.040070
O O5 0.713106 0.153928 0.567589
O O6 0.867423 0.215471 0.328764
O O7 0.897330 0.106594 0.437977
O O8 0.843189 0.794697 0.481358
O O9 0.671487 0.841229 0.542135
O O10 0.672947 0.802360 0.741839
O O11 0.000000 0.725688 0.250000
O O12 0.975789 0.713497 0.475826
O O13 0.500000 0.178015 0.750000
O O14 0.374436 0.221151 0.009148
O O15 0.100111 0.823976 0.374378
#
# Coordination Sequence:
#
# PCOD9259395 Si02
#       7
#     8   8   8   8   8   8   8
#     4  11  20  38  57  83 117 156 186 236 293 357
#     4  10  20  37  54  86 116 144 191 234 291 341
#     4  10  19  34  56  82 114 152 188 234 284 340
#     4   9  19  33  52  81 115 141 189 231 275 342
#     4  10  20  32  62  87 111 144 188 249 284 332
#     4  10  22  35  56  84 117 149 187 236 297 353
#     4  10  18  35  56  86 116 144 191 244 287 339
#
# _framework density 19.615417999999998
#
# number of rings (size 3 to 8) (size 9 to 14) (size 15 to 20)
#    0.000    2.000    2.857    2.143    0.000    0.000 
#    7.714    0.000    0.000    3.429    0.000    0.000 
#    0.000    0.000    0.000    0.000    0.000    0.000 
#
# Total GULP energy -156180.225820 kJ/mol
# GULP energy per Si atom -5577.865208 kJ/mol
# Density = 1.957077 g / cm^3
# Si number density = 19.615418 Si / 1000 Ang^3
#
#
#
# Elastic Constant Matrix: (Units=GPa)
#
#
# Indices 1 2 3 4 5 6 
#
# 1 106.0946 26.3486 2.1720 0.0000 -6.4442 0.0000
# 2 26.3486 68.2829 8.0806 0.0000 0.8036 0.0000
# 3 2.1720 8.0806 25.9385 0.0000 -13.6682 0.0000
# 4 0.0000 0.0000 0.0000 16.7324 0.0000 -2.8345
# 5 -6.4442 0.8036 -13.6682 0.0000 31.9364 0.0000
# 6 0.0000 0.0000 0.0000 -2.8345 0.0000 19.1849
#
#
#
# Elastic Compliance Matrix: (Units=1/GPa)
#
#
# Indices 1 2 3 4 5 6 
#
# 1 0.010670 -0.004411 0.002161 0.000000 0.003189 0.000000
# 2 -0.004411 0.017272 -0.007372 0.000000 -0.004480 0.000000
# 3 0.002161 -0.007372 0.052934 0.000000 0.023276 0.000000
# 4 0.000000 0.000000 0.000000 0.061299 0.000000 0.009057
# 5 0.003189 -0.004480 0.023276 0.000000 0.042030 0.000000
# 6 0.000000 0.000000 0.000000 0.009057 0.000000 0.053462
#
#
# Mechanical properties :
#
#
# Convention : Reuss Voigt Hill
#
# Bulk Modulus (GPa) = 16.22517 30.39095 23.30806
# Shear Modulus (GPa) = 18.02095 24.48506 21.25300
#
# Velocity S-wave (km/s) = 3.03432 3.53690 3.29520
# Velocity P-wave (km/s) = 4.53494 5.67508 5.13674
#
# Compressibility (1/GPa) = 0.06163264
#
# Stress axis : x y z
#
# Youngs Moduli (GPa) = 93.71725 57.89703 18.89158
#
# Poissons Ratio (x) = 0.25537 -0.04082
# Poissons Ratio (y) = 0.41336 0.13927
# Poissons Ratio (z) = -0.20252 0.42682
#
# Static dielectric constant tensor:
#      x y z
#    x 1.752210 0.000000 0.016150 
#    y 0.000000 1.668540 0.000000 
#    z 0.016150 0.000000 1.708380 
# 
# From -- ./inp_files/106625.got.cif
#   From: 2010.05.17/outbox.cif.g08.bks.cpg/sg15_54_cif.got.tgz:106625.got - 2010.06.03 18:47:42.
