data_PCOD9259833
_publ_section_title
;
Structure prediction by ZEFSAII (Michael W. Deem and Ramdas Pophale) SiO2 
 PCOD9259833
Probable space group: C 2/C
;
_chemical_formula_sum "Si O2"
_cell_formula_units_Z 64
_cell_length_a 9.849649
_cell_length_b 15.360295
_cell_length_c 27.038552
_cell_angle_alpha 90.000000
_cell_angle_beta 129.242633
_cell_angle_gamma 90.000000
_cell_volume 3168.185324
_symmetry_space_group_name_H-M "C 2/C"
_symmetry_group_IT_number 15
_symmetry_cell_setting 'monoclinic'
loop_
_space_group_symop_operation_xyz
x,y,z
-x,y,1/2-z
-x,-y,-z
x,-y,1/2+z
1/2+x,1/2+y,z
1/2-x,1/2+y,1/2-z
1/2-x,1/2-y,-z
1/2+x,1/2-y,1/2+z
loop_
_atom_site_type_symbol
_atom_site_label
_atom_site_fract_x
_atom_site_fract_y
_atom_site_fract_z
Si Si1 0.701613 0.364108 0.781555
Si Si2 0.138564 0.679012 0.075184
Si Si3 0.513232 0.364431 0.486261
Si Si4 0.406491 0.408454 0.572482
Si Si5 0.810484 0.963876 0.354382
Si Si6 0.333452 0.822177 0.248510
Si Si7 0.145496 0.452540 0.970479
Si Si8 0.038098 0.519327 0.668788
O O1 0.500000 0.384335 0.750000
O O2 0.797919 0.332566 0.854103
O O3 0.714533 0.277176 0.750823
O O4 0.809386 0.448211 0.788872
O O5 0.046225 0.769915 0.044458
O O6 0.310005 0.665363 0.081246
O O7 0.995272 0.604133 0.032785
O O8 0.467267 0.376639 0.532843
O O9 0.402054 0.430434 0.426190
O O10 0.715490 0.386918 0.523163
O O11 0.570290 0.456200 0.636054
O O12 0.261606 0.483251 0.529809
O O13 0.799321 0.883319 0.313665
O O14 0.616122 0.991270 0.326180
O O15 0.500000 0.813010 0.250000
O O16 0.390404 0.883163 0.306906
O O17 0.045986 0.504363 0.904229
#
# Coordination Sequence:
#
# PCOD9259833 Si02
#       8
#     8   8   8   8   8   8   8   8
#     4  10  22  38  57  86 116 150 195 245 292 354
#     4  11  23  35  56  87 121 152 187 245 305 338
#     4  11  19  37  59  84 119 150 202 237 280 353
#     4  11  21  34  58  84 121 151 195 236 286 355
#     4  10  18  36  57  84 106 156 198 239 281 343
#     4   9  19  35  60  83 104 149 202 236 284 344
#     4  10  20  38  58  85 118 153 192 236 299 354
#     4  10  19  36  63  83 113 149 199 244 287 338
#
# _framework density 20.200838000000001
#
# number of rings (size 3 to 8) (size 9 to 14) (size 15 to 20)
#    0.000    1.750    3.750    1.875    1.750    0.000 
#    0.000    0.000    0.000    3.750    0.000    0.000 
#    0.000    0.000    0.000    0.000    0.000    0.000 
#
# Total GULP energy -178690.052103 kJ/mol
# GULP energy per Si atom -5584.064128 kJ/mol
# Density = 2.015486 g / cm^3
# Si number density = 20.200838 Si / 1000 Ang^3
#
#
#
# Elastic Constant Matrix: (Units=GPa)
#
#
# Indices 1 2 3 4 5 6 
#
# 1 79.5223 25.7920 4.0499 0.0000 12.2546 0.0000
# 2 25.7920 75.7260 -0.0639 0.0000 12.9435 0.0000
# 3 4.0499 -0.0639 44.3324 0.0000 18.3800 0.0000
# 4 0.0000 0.0000 0.0000 24.4802 0.0000 7.3187
# 5 12.2546 12.9435 18.3800 0.0000 20.1542 0.0000
# 6 0.0000 0.0000 0.0000 7.3187 0.0000 19.5831
#
#
#
# Elastic Compliance Matrix: (Units=1/GPa)
#
#
# Indices 1 2 3 4 5 6 
#
# 1 0.014995 -0.003575 0.002337 0.000000 -0.008953 0.000000
# 2 -0.003575 0.016903 0.006352 0.000000 -0.014474 0.000000
# 3 0.002337 0.006352 0.039609 0.000000 -0.041623 0.000000
# 4 0.000000 0.000000 0.000000 0.045988 0.000000 -0.017187
# 5 -0.008953 -0.014474 -0.041623 0.000000 0.102316 0.000000
# 6 0.000000 0.000000 0.000000 -0.017187 0.000000 0.057488
#
#
# Mechanical properties :
#
#
# Convention : Reuss Voigt Hill
#
# Bulk Modulus (GPa) = 12.23477 28.79296 20.51386
# Shear Modulus (GPa) = 16.98859 24.16368 20.57613
#
# Velocity S-wave (km/s) = 2.90312 3.46232 3.19498
# Velocity P-wave (km/s) = 4.16019 5.50163 4.87725
#
# Compressibility (1/GPa) = 0.08173429
#
# Stress axis : x y z
#
# Youngs Moduli (GPa) = 66.68767 59.16270 25.24665
#
# Poissons Ratio (x) = 0.21151 -0.05900
# Poissons Ratio (y) = 0.23842 -0.16036
# Poissons Ratio (z) = -0.15584 -0.37580
#
# Static dielectric constant tensor:
#      x y z
#    x 1.703910 0.000000 0.012880 
#    y 0.000000 1.730170 0.000000 
#    z 0.012880 0.000000 1.746990 
# 
# From -- ./inp_files/308038.got.cif
#   From: 2010.05.17/outbox.cif.g08.bks.cpg/sg15_155_cif.got.tgz:308038.got - 2010.06.03 18:47:42.
