data_PCOD9259929
_publ_section_title
;
Structure prediction by ZEFSAII (Michael W. Deem and Ramdas Pophale) SiO2 
 PCOD9259929
Probable space group: C 2/C
;
_chemical_formula_sum "Si O2"
_cell_formula_units_Z 52
_cell_length_a 17.127359
_cell_length_b 6.649011
_cell_length_c 30.423595
_cell_angle_alpha 90.000000
_cell_angle_beta 141.155513
_cell_angle_gamma 90.000000
_cell_volume 2173.051814
_symmetry_space_group_name_H-M "C 2/C"
_symmetry_group_IT_number 15
_symmetry_cell_setting 'monoclinic'
loop_
_space_group_symop_operation_xyz
x,y,z
-x,y,1/2-z
-x,-y,-z
x,-y,1/2+z
1/2+x,1/2+y,z
1/2-x,1/2+y,1/2-z
1/2-x,1/2-y,-z
1/2+x,1/2-y,1/2+z
loop_
_atom_site_type_symbol
_atom_site_label
_atom_site_fract_x
_atom_site_fract_y
_atom_site_fract_z
Si Si1 0.447060 0.826216 0.395475
Si Si2 0.810999 0.043894 0.992260
Si Si3 0.225539 0.104292 0.112881
Si Si4 0.582663 0.706744 0.216875
Si Si5 0.178477 0.929162 0.906705
Si Si6 0.688050 0.860555 0.623621
Si Si7 0.500000 0.960350 0.750000
O O1 0.571921 0.697971 0.457380
O O2 0.344798 0.734435 0.382750
O O3 0.406013 0.787512 0.327610
O O4 0.438831 0.054537 0.410277
O O5 0.820123 0.885715 0.957288
O O6 0.697552 0.191673 0.928725
O O7 0.795823 0.967688 0.035231
O O8 0.190642 0.875349 0.112557
O O9 0.373175 0.145201 0.179810
O O10 0.467001 0.552409 0.168142
O O11 0.706424 0.616237 0.292498
O O12 0.543976 0.893086 0.230336
O O13 0.263890 0.956867 0.901511
#
# Coordination Sequence:
#
# PCOD9259929 Si02
#       7
#     8   8   8   8   8   8   4
#     4  11  24  35  59  93 118 147 197 239 300 341
#     4   9  18  35  63  84 117 155 193 237 287 349
#     4  10  21  40  60  86 118 156 190 243 285 348
#     4  10  18  36  59  82 113 155 192 238 283 346
#     4   9  16  34  60  85 105 160 198 222 288 348
#     4  10  21  37  59  83 120 153 190 243 288 340
#     4  10  18  38  60  78 114 154 198 228 288 340
#
# _framework density 23.929480999999999
#
# number of rings (size 3 to 8) (size 9 to 14) (size 15 to 20)
#    0.000    2.154    4.615    0.462    4.308    2.462 
#    2.769    0.769    3.385    0.000    0.000    0.000 
#    0.000    0.000    0.000    0.000    0.000    0.000 
#
# Total GULP energy -145212.146517 kJ/mol
# GULP energy per Si atom -5585.082558 kJ/mol
# Density = 2.387502 g / cm^3
# Si number density = 23.929481 Si / 1000 Ang^3
#
#
#
# Elastic Constant Matrix: (Units=GPa)
#
#
# Indices 1 2 3 4 5 6 
#
# 1 126.7977 20.9661 40.3636 -0.0004 -30.0656 0.0006
# 2 20.9661 44.5665 11.7880 -0.0004 -3.6861 0.0009
# 3 40.3636 11.7880 116.1055 -0.0002 -22.3117 0.0002
# 4 -0.0004 -0.0004 -0.0002 9.9557 0.0001 2.7531
# 5 -30.0656 -3.6861 -22.3117 0.0001 48.0855 -0.0001
# 6 0.0006 0.0009 0.0002 2.7531 -0.0001 35.0692
#
#
#
# Elastic Compliance Matrix: (Units=1/GPa)
#
#
# Indices 1 2 3 4 5 6 
#
# 1 0.010484 -0.003907 -0.002246 0.000000 0.005213 0.000000
# 2 -0.003907 0.024538 -0.001363 0.000001 -0.001194 -0.000001
# 3 -0.002246 -0.001363 0.010147 0.000000 0.003199 0.000000
# 4 0.000000 0.000001 0.000000 0.102673 0.000000 -0.008060
# 5 0.005213 -0.001194 0.003199 0.000000 0.025449 0.000000
# 6 0.000000 -0.000001 0.000000 -0.008060 0.000000 0.029148
#
#
# Mechanical properties :
#
#
# Convention : Reuss Voigt Hill
#
# Bulk Modulus (GPa) = 33.18112 48.18946 40.68529
# Shear Modulus (GPa) = 21.97655 32.91224 27.44439
#
# Velocity S-wave (km/s) = 3.03378 3.71264 3.39024
# Velocity P-wave (km/s) = 5.11547 6.20968 5.68894
#
# Compressibility (1/GPa) = 0.03013762
#
# Stress axis : x y z
#
# Youngs Moduli (GPa) = 95.38602 40.75329 98.55266
#
# Poissons Ratio (x) = 0.15921 0.22136
# Poissons Ratio (y) = 0.37264 0.13429
# Poissons Ratio (z) = 0.21425 0.05553
#
# Static dielectric constant tensor:
#      x y z
#    x 1.891350 0.000000 0.013540 
#    y 0.000000 2.044090 0.000000 
#    z 0.013540 0.000000 1.937510 
# 
# From -- ./inp_files/295300.got.cif
#   From: 2010.05.17/outbox.cif.g08.bks.cpg/sg15_148_cif.got.tgz:295300.got - 2010.06.03 18:47:42.
