data_PCOD9259271
_publ_section_title
;
Structure prediction by ZEFSAII (Michael W. Deem and Ramdas Pophale) SiO2 
 PCOD9259271
Probable space group: C 2/C
;
_chemical_formula_sum "Si O2"
_cell_formula_units_Z 60
_cell_length_a 18.601385
_cell_length_b 7.861400
_cell_length_c 17.404074
_cell_angle_alpha 90.000000
_cell_angle_beta 93.777072
_cell_angle_gamma 90.000000
_cell_volume 2539.520624
_symmetry_space_group_name_H-M "C 2/C"
_symmetry_group_IT_number 15
_symmetry_cell_setting 'monoclinic'
loop_
_space_group_symop_operation_xyz
x,y,z
-x,y,1/2-z
-x,-y,-z
x,-y,1/2+z
1/2+x,1/2+y,z
1/2-x,1/2+y,1/2-z
1/2-x,1/2-y,-z
1/2+x,1/2-y,1/2+z
loop_
_atom_site_type_symbol
_atom_site_label
_atom_site_fract_x
_atom_site_fract_y
_atom_site_fract_z
Si Si1 0.972798 0.214903 0.939257
Si Si2 0.199561 0.902479 0.662369
Si Si3 0.500000 0.598569 0.250000
Si Si4 0.579534 0.280715 0.324926
Si Si5 0.951727 0.820543 0.905244
Si Si6 0.315151 0.160479 0.456046
Si Si7 0.307317 0.220527 0.285760
Si Si8 0.688045 0.842465 0.949137
O O1 0.888823 0.234921 0.951875
O O2 0.007776 0.291142 0.863105
O O3 0.978737 0.013905 0.922089
O O4 0.016473 0.272213 0.018276
O O5 0.134302 0.822506 0.610037
O O6 0.233881 0.789514 0.731779
O O7 0.267338 0.938978 0.613401
O O8 0.177651 0.084057 0.692876
O O9 0.559258 0.462865 0.286252
O O10 0.521541 0.713313 0.179134
O O11 0.623949 0.175264 0.263549
O O12 0.634284 0.284649 0.401738
O O13 0.250000 0.250000 0.500000
O O14 0.295011 0.125215 0.365493
O O15 0.341113 0.990460 0.499901
O O16 0.750000 0.750000 0.000000
#
# Coordination Sequence:
#
# PCOD9259271 Si02
#       8
#     8   8   4   8   8   8   8   8
#     4  10  21  38  64  93 133 172 220 279 334 400
#     4  11  22  42  61  98 130 172 227 270 341 403
#     4  10  18  34  64  86 122 172 218 268 320 398
#     4  10  21  40  63  91 126 173 221 262 328 404
#     4  10  19  36  60  96 128 169 223 274 330 400
#     4  12  24  43  67  97 135 170 220 286 343 399
#     4  11  23  40  67  96 132 177 221 281 334 408
#     4  11  25  41  66  95 130 175 224 276 339 408
#
# _framework density 23.626508000000001
#
# number of rings (size 3 to 8) (size 9 to 14) (size 15 to 20)
#    0.000    1.333    4.000    1.600    3.733    3.733 
#    0.000    0.000    2.933    0.000    0.000    0.000 
#    0.000    0.000    0.000    0.000    0.000    0.000 
#
# Total GULP energy -167220.436852 kJ/mol
# GULP energy per Si atom -5574.014562 kJ/mol
# Density = 2.357273 g / cm^3
# Si number density = 23.626508 Si / 1000 Ang^3
#
#
#
# Elastic Constant Matrix: (Units=GPa)
#
#
# Indices 1 2 3 4 5 6 
#
# 1 116.2441 4.4812 65.7121 0.0000 0.8012 0.0000
# 2 4.4812 22.3056 18.3964 0.0000 -2.9756 0.0000
# 3 65.7121 18.3964 145.6547 0.0000 -5.9505 0.0000
# 4 0.0000 0.0000 0.0000 19.9010 0.0000 3.4060
# 5 0.8012 -2.9756 -5.9505 0.0000 64.1630 0.0000
# 6 0.0000 0.0000 0.0000 3.4060 0.0000 18.8834
#
#
#
# Elastic Compliance Matrix: (Units=1/GPa)
#
#
# Indices 1 2 3 4 5 6 
#
# 1 0.011666 0.002167 -0.005560 0.000000 -0.000561 0.000000
# 2 0.002167 0.050642 -0.007306 0.000000 0.001644 0.000000
# 3 -0.005560 -0.007306 0.010325 0.000000 0.000688 0.000000
# 4 0.000000 0.000000 0.000000 0.051849 0.000000 -0.009352
# 5 -0.000561 0.001644 0.000688 0.000000 0.015732 0.000000
# 6 0.000000 0.000000 0.000000 -0.009352 0.000000 0.054643
#
#
# Mechanical properties :
#
#
# Convention : Reuss Voigt Hill
#
# Bulk Modulus (GPa) = 19.51849 51.26486 35.39167
# Shear Modulus (GPa) = 21.42854 33.63044 27.52949
#
# Velocity S-wave (km/s) = 3.01486 3.77692 3.41720
# Velocity P-wave (km/s) = 4.51646 6.38477 5.53008
#
# Compressibility (1/GPa) = 0.05123348
#
# Stress axis : x y z
#
# Youngs Moduli (GPa) = 85.72129 19.74659 96.85532
#
# Poissons Ratio (x) = -0.04279 0.53847
# Poissons Ratio (y) = -0.18574 0.70767
# Poissons Ratio (z) = 0.47657 0.14428
#
# Static dielectric constant tensor:
#      x y z
#    x 1.984110 0.000000 -0.025100 
#    y 0.000000 1.911310 0.000000 
#    z -0.025100 0.000000 2.047050 
# 
# From -- ./inp_files/209581.got.cif
#   From: 2010.05.17/outbox.cif.g08.bks.cpg/sg15_105_cif.got.tgz:209581.got - 2010.06.03 18:47:42.
