data_PCOD9259844
_publ_section_title
;
Structure prediction by ZEFSAII (Michael W. Deem and Ramdas Pophale) SiO2 
 PCOD9259844
Probable space group: C 2/C
;
_chemical_formula_sum "Si O2"
_cell_formula_units_Z 48
_cell_length_a 16.017288
_cell_length_b 8.875654
_cell_length_c 19.891242
_cell_angle_alpha 90.000000
_cell_angle_beta 108.698905
_cell_angle_gamma 90.000000
_cell_volume 2678.554334
_symmetry_space_group_name_H-M "C 2/C"
_symmetry_group_IT_number 15
_symmetry_cell_setting 'monoclinic'
loop_
_space_group_symop_operation_xyz
x,y,z
-x,y,1/2-z
-x,-y,-z
x,-y,1/2+z
1/2+x,1/2+y,z
1/2-x,1/2+y,1/2-z
1/2-x,1/2-y,-z
1/2+x,1/2-y,1/2+z
loop_
_atom_site_type_symbol
_atom_site_label
_atom_site_fract_x
_atom_site_fract_y
_atom_site_fract_z
Si Si1 0.733634 0.173824 0.425193
Si Si2 0.150839 0.825236 0.667453
Si Si3 0.960859 0.154692 0.171860
Si Si4 0.269734 0.352042 0.289518
Si Si5 0.786819 0.683731 0.579066
Si Si6 0.904844 0.820316 0.206726
O O1 0.750000 0.250000 0.500000
O O2 0.817469 0.211259 0.399200
O O3 0.648648 0.240096 0.365580
O O4 0.719012 0.996051 0.428712
O O5 0.181431 0.696218 0.727273
O O6 0.048262 0.865357 0.648888
O O7 0.211949 0.969984 0.700442
O O8 0.884432 0.250930 0.117785
O O9 0.000000 0.227285 0.250000
O O10 0.920403 0.994156 0.186530
O O11 0.265405 0.284790 0.363768
O O12 0.347426 0.304475 0.259371
O O13 0.750000 0.750000 0.500000
O O14 0.000000 0.757741 0.250000
#
# Coordination Sequence:
#
# PCOD9259844 Si02
#       6
#     8   8   8   8   8   8
#     4  10  23  41  57  82 121 158 193 235 296 344
#     4  10  20  36  62  88 114 152 194 238 290 349
#     4  11  19  38  64  90 116 145 197 243 290 346
#     4  10  18  36  57  89 111 152 188 235 292 346
#     4  11  23  38  59  84 121 157 194 241 292 341
#     4  10  19  36  64  86 117 144 192 241 293 348
#
# _framework density 17.920114999999999
#
# number of rings (size 3 to 8) (size 9 to 14) (size 15 to 20)
#    0.000    1.667    5.000    1.000    0.000    2.000 
#    6.000    3.333    0.000    0.000    0.000    0.000 
#    0.000    0.000    0.000    0.000    0.000    0.000 
#
# Total GULP energy -133705.514051 kJ/mol
# GULP energy per Si atom -5571.063085 kJ/mol
# Density = 1.787933 g / cm^3
# Si number density = 17.920115 Si / 1000 Ang^3
#
#
#
# Elastic Constant Matrix: (Units=GPa)
#
#
# Indices 1 2 3 4 5 6 
#
# 1 135.9439 44.6346 79.8631 0.0000 -3.3392 0.0000
# 2 44.6346 53.9842 65.7044 0.0000 0.9460 0.0000
# 3 79.8631 65.7044 176.2100 0.0000 -10.7600 0.0000
# 4 0.0000 0.0000 0.0000 34.0355 0.0000 3.6035
# 5 -3.3392 0.9460 -10.7600 0.0000 26.1808 0.0000
# 6 0.0000 0.0000 0.0000 3.6035 0.0000 19.8451
#
#
#
# Elastic Compliance Matrix: (Units=1/GPa)
#
#
# Indices 1 2 3 4 5 6 
#
# 1 0.010843 -0.005534 -0.002825 0.000000 0.000422 0.000000
# 2 -0.005534 0.037886 -0.012048 0.000000 -0.007026 0.000000
# 3 -0.002825 -0.012048 0.011747 0.000000 0.004903 0.000000
# 4 0.000000 0.000000 0.000000 0.029957 0.000000 -0.005440
# 5 0.000422 -0.007026 0.004903 0.000000 0.040519 0.000000
# 6 0.000000 0.000000 0.000000 -0.005440 0.000000 0.051378
#
#
# Mechanical properties :
#
#
# Convention : Reuss Voigt Hill
#
# Bulk Modulus (GPa) = 50.85820 82.94913 66.90367
# Shear Modulus (GPa) = 21.76779 27.74133 24.75456
#
# Velocity S-wave (km/s) = 3.48905 3.93880 3.72073
# Velocity P-wave (km/s) = 6.68382 8.18989 7.47488
#
# Compressibility (1/GPa) = 0.01966251
#
# Stress axis : x y z
#
# Youngs Moduli (GPa) = 92.22557 26.39510 85.12774
#
# Poissons Ratio (x) = 0.14607 0.24049
# Poissons Ratio (y) = 0.51038 1.02558
# Poissons Ratio (z) = 0.26054 0.31800
#
# Static dielectric constant tensor:
#      x y z
#    x 1.663450 0.000000 -0.027770 
#    y 0.000000 1.646880 0.000000 
#    z -0.027770 0.000000 1.605620 
# 
# From -- ./inp_files/242584.got.cif
#   From: 2010.05.17/outbox.cif.g08.bks.cpg/sg15_122_cif.got.tgz:242584.got - 2010.06.03 18:47:42.
