data_PCOD9259619
_publ_section_title
;
Structure prediction by ZEFSAII (Michael W. Deem and Ramdas Pophale) SiO2 
 PCOD9259619
Probable space group: C 2/C
;
_chemical_formula_sum "Si O2"
_cell_formula_units_Z 52
_cell_length_a 8.063097
_cell_length_b 19.168908
_cell_length_c 15.951071
_cell_angle_alpha 90.000000
_cell_angle_beta 57.995698
_cell_angle_gamma 90.000000
_cell_volume 2090.687927
_symmetry_space_group_name_H-M "C 2/C"
_symmetry_group_IT_number 15
_symmetry_cell_setting 'monoclinic'
loop_
_space_group_symop_operation_xyz
x,y,z
-x,y,1/2-z
-x,-y,-z
x,-y,1/2+z
1/2+x,1/2+y,z
1/2-x,1/2+y,1/2-z
1/2-x,1/2-y,-z
1/2+x,1/2-y,1/2+z
loop_
_atom_site_type_symbol
_atom_site_label
_atom_site_fract_x
_atom_site_fract_y
_atom_site_fract_z
Si Si1 0.284372 0.309277 0.205430
Si Si2 0.420590 0.352238 0.950557
Si Si3 0.000000 0.890739 0.750000
Si Si4 0.562665 0.786909 0.959016
Si Si5 0.190474 0.504827 0.814991
Si Si6 0.232554 0.555923 0.621467
Si Si7 0.728739 0.644298 0.613280
O O1 0.187373 0.365432 0.169217
O O2 0.204572 0.313499 0.320542
O O3 0.507043 0.336547 0.155600
O O4 0.307845 0.234749 0.155698
O O5 0.527369 0.356295 0.833438
O O6 0.494485 0.288076 0.986633
O O7 0.200773 0.328845 0.984731
O O8 0.397837 0.424104 0.009126
O O9 0.800392 0.936172 0.815838
O O10 0.370250 0.832898 0.000665
O O11 0.276127 0.518186 0.698011
O O12 0.252663 0.565160 0.862717
O O13 0.956276 0.516342 0.866493
#
# Coordination Sequence:
#
# PCOD9259619 Si02
#       7
#     8   8   4   8   8   8   8
#     4   9  19  31  59  93 121 150 200 252 300 354
#     4  10  23  39  59  91 123 159 205 253 312 363
#     4  12  26  40  60  92 128 156 204 264 306 356
#     4  10  20  38  60  90 122 163 202 248 308 378
#     4  10  20  37  64  87 117 157 209 250 296 362
#     4   9  18  39  62  85 113 159 205 242 299 363
#     4  10  18  35  61  92 118 160 202 253 301 362
#
# _framework density 24.872195999999999
#
# number of rings (size 3 to 8) (size 9 to 14) (size 15 to 20)
#    0.000    2.154    1.538    2.308    2.154    1.231 
#    0.000    0.000   13.538    0.000    0.000    0.000 
#    0.000    0.000    0.000    0.000    0.000    0.000 
#
# Total GULP energy -145149.208377 kJ/mol
# GULP energy per Si atom -5582.661861 kJ/mol
# Density = 2.481559 g / cm^3
# Si number density = 24.872196 Si / 1000 Ang^3
#
#
#
# Elastic Constant Matrix: (Units=GPa)
#
#
# Indices 1 2 3 4 5 6 
#
# 1 67.3413 10.4438 -10.6987 0.0000 -2.1757 0.0000
# 2 10.4438 51.8293 23.2629 0.0000 9.2257 0.0000
# 3 -10.6987 23.2629 102.6844 0.0000 15.2289 0.0000
# 4 0.0000 0.0000 0.0000 27.6904 0.0000 1.3689
# 5 -2.1757 9.2257 15.2289 0.0000 32.3009 0.0000
# 6 0.0000 0.0000 0.0000 1.3689 0.0000 14.6664
#
#
#
# Elastic Compliance Matrix: (Units=1/GPa)
#
#
# Indices 1 2 3 4 5 6 
#
# 1 0.015998 -0.004569 0.002525 0.000000 0.001192 0.000000
# 2 -0.004569 0.023308 -0.005079 0.000000 -0.004570 0.000000
# 3 0.002525 -0.005079 0.011732 0.000000 -0.003911 0.000000
# 4 0.000000 0.000000 0.000000 0.036281 0.000000 -0.003386
# 5 0.001192 -0.004570 -0.003911 0.000000 0.034188 0.000000
# 6 0.000000 0.000000 0.000000 -0.003386 0.000000 0.068499
#
#
# Mechanical properties :
#
#
# Convention : Reuss Voigt Hill
#
# Bulk Modulus (GPa) = 27.17921 29.76346 28.47133
# Shear Modulus (GPa) = 23.09297 28.18800 25.64048
#
# Velocity S-wave (km/s) = 3.05038 3.37012 3.21423
# Velocity P-wave (km/s) = 4.83298 5.20924 5.02463
#
# Compressibility (1/GPa) = 0.03679283
#
# Stress axis : x y z
#
# Youngs Moduli (GPa) = 62.50761 42.90408 85.23537
#
# Poissons Ratio (x) = 0.19604 -0.21524
# Poissons Ratio (y) = 0.28561 0.43287
# Poissons Ratio (z) = -0.15784 0.21789
#
# Static dielectric constant tensor:
#      x y z
#    x 1.915150 0.000000 0.011620 
#    y 0.000000 1.993810 0.000000 
#    z 0.011620 0.000000 2.050260 
# 
# From -- ./inp_files/190838.got.cif
#   From: 2010.05.17/outbox.cif.g08.bks.cpg/sg15_96_cif.got.tgz:190838.got - 2010.06.03 18:47:42.
