data_PCOD9259806
_publ_section_title
;
Structure prediction by ZEFSAII (Michael W. Deem and Ramdas Pophale) SiO2 
 PCOD9259806
Probable space group: C 2/C
;
_chemical_formula_sum "Si O2"
_cell_formula_units_Z 52
_cell_length_a 12.304987
_cell_length_b 20.889717
_cell_length_c 11.645913
_cell_angle_alpha 90.000000
_cell_angle_beta 62.609439
_cell_angle_gamma 90.000000
_cell_volume 2657.951197
_symmetry_space_group_name_H-M "C 2/C"
_symmetry_group_IT_number 15
_symmetry_cell_setting 'monoclinic'
loop_
_space_group_symop_operation_xyz
x,y,z
-x,y,1/2-z
-x,-y,-z
x,-y,1/2+z
1/2+x,1/2+y,z
1/2-x,1/2+y,1/2-z
1/2-x,1/2-y,-z
1/2+x,1/2-y,1/2+z
loop_
_atom_site_type_symbol
_atom_site_label
_atom_site_fract_x
_atom_site_fract_y
_atom_site_fract_z
Si Si1 0.015558 0.887173 0.011251
Si Si2 0.117840 0.215066 0.618513
Si Si3 0.842261 0.648218 0.503784
Si Si4 0.806372 0.936132 0.972479
Si Si5 0.432636 0.068335 0.055298
Si Si6 0.500000 0.527071 0.750000
Si Si7 0.238791 0.449228 0.647093
O O1 0.078272 0.821301 0.021082
O O2 0.984758 0.927719 0.143463
O O3 0.125321 0.923761 0.891434
O O4 0.900088 0.885801 0.983002
O O5 0.143863 0.289398 0.583809
O O6 0.224941 0.174529 0.629034
O O7 0.000000 0.211885 0.750000
O O8 0.798953 0.588289 0.449884
O O9 0.966103 0.624204 0.500136
O O10 0.682639 0.916550 0.969589
O O11 0.886414 0.982303 0.847885
O O12 0.758302 0.978053 0.103041
O O13 0.367538 0.063076 0.210876
O O14 0.500000 0.000000 0.000000
#
# Coordination Sequence:
#
# PCOD9259806 Si02
#       7
#     8   8   8   8   8   4   8
#     4  10  20  34  57  87 111 147 193 238 283 326
#     4  10  20  38  63  82 108 147 200 246 267 324
#     4  10  22  38  58  86 111 149 195 239 282 325
#     4  11  21  33  54  84 119 150 179 233 291 349
#     4  12  23  35  54  80 119 155 184 226 297 352
#     4  10  18  36  56  84 114 144 198 232 280 336
#     4  10  20  36  54  80 113 148 192 238 277 335
#
# _framework density 19.563939999999999
#
# number of rings (size 3 to 8) (size 9 to 14) (size 15 to 20)
#    0.000    1.538    2.308    5.077    0.000    1.231 
#    0.000    0.769    0.000    0.000    0.000    4.308 
#    0.000    0.000    0.000    0.000    0.000    0.000 
#
# Total GULP energy -144845.497691 kJ/mol
# GULP energy per Si atom -5570.980680 kJ/mol
# Density = 1.951941 g / cm^3
# Si number density = 19.563940 Si / 1000 Ang^3
#
#
#
# Elastic Constant Matrix: (Units=GPa)
#
#
# Indices 1 2 3 4 5 6 
#
# 1 149.9948 23.8272 -4.5174 0.0000 -19.7862 0.0000
# 2 23.8272 46.1133 -8.4700 0.0000 -7.5258 0.0000
# 3 -4.5174 -8.4700 43.6226 0.0000 -19.1315 0.0000
# 4 0.0000 0.0000 0.0000 -5.3021 0.0000 -10.0621
# 5 -19.7862 -7.5258 -19.1315 0.0000 25.4243 0.0000
# 6 0.0000 0.0000 0.0000 -10.0621 0.0000 29.0279
#
#
#
# Elastic Compliance Matrix: (Units=1/GPa)
#
#
# Indices 1 2 3 4 5 6 
#
# 1 0.008353 -0.001936 0.004610 0.000000 0.009397 0.000000
# 2 -0.001936 0.027438 0.011983 0.000000 0.015633 0.000000
# 3 0.004610 0.011983 0.043072 0.000000 0.039546 0.000000
# 4 0.000000 0.000000 0.000000 -0.113765 0.000000 -0.039435
# 5 0.009397 0.015633 0.039546 0.000000 0.081030 0.000000
# 6 0.000000 0.000000 0.000000 -0.039435 0.000000 0.020780
#
#
# Mechanical properties :
#
#
# Convention : Reuss Voigt Hill
#
# Bulk Modulus (GPa) = 9.24400 29.04557 19.14479
# Shear Modulus (GPa) = 67.88750 25.08941 46.48846
#
# Velocity S-wave (km/s) = 5.89709 3.58499 4.87995
# Velocity P-wave (km/s) = 7.14862 5.65817 6.44662
#
# Compressibility (1/GPa) = 0.10817823
#
# Stress axis : x y z
#
# Youngs Moduli (GPa) = 119.72105 36.44550 23.21714
#
# Poissons Ratio (x) = 0.07054 -0.10704
# Poissons Ratio (y) = 0.23173 -0.27822
# Poissons Ratio (z) = -0.55194 -0.43673
#
# Static dielectric constant tensor:
#      x y z
#    x 1.758010 0.000000 -0.015500 
#    y 0.000000 1.701910 0.000000 
#    z -0.015500 0.000000 1.758750 
# 
# From -- ./inp_files/89510.got.cif
#   From: 2010.05.17/outbox.cif.g08.bks.cpg/sg15_45_cif.got.tgz:89510.got - 2010.06.03 18:47:42.
