data_PCOD9259195
_publ_section_title
;
Structure prediction by ZEFSAII (Michael W. Deem and Ramdas Pophale) SiO2 
 PCOD9259195
Probable space group: C 2/C
;
_chemical_formula_sum "Si O2"
_cell_formula_units_Z 64
_cell_length_a 30.199263
_cell_length_b 8.656345
_cell_length_c 15.801505
_cell_angle_alpha 90.000000
_cell_angle_beta 131.753527
_cell_angle_gamma 90.000000
_cell_volume 3081.610317
_symmetry_space_group_name_H-M "C 2/C"
_symmetry_group_IT_number 15
_symmetry_cell_setting 'monoclinic'
loop_
_space_group_symop_operation_xyz
x,y,z
-x,y,1/2-z
-x,-y,-z
x,-y,1/2+z
1/2+x,1/2+y,z
1/2-x,1/2+y,1/2-z
1/2-x,1/2-y,-z
1/2+x,1/2-y,1/2+z
loop_
_atom_site_type_symbol
_atom_site_label
_atom_site_fract_x
_atom_site_fract_y
_atom_site_fract_z
Si Si1 0.186901 0.302154 0.725679
Si Si2 0.601919 0.796953 0.918840
Si Si3 0.471160 0.386039 0.799277
Si Si4 0.189024 0.839134 0.403033
Si Si5 0.307239 0.857640 0.322245
Si Si6 0.573913 0.339971 0.063889
Si Si7 0.973901 0.245216 0.824020
Si Si8 0.860299 0.882786 0.755336
O O1 0.166310 0.261564 0.794452
O O2 0.244850 0.202715 0.778923
O O3 0.201790 0.478786 0.733068
O O4 0.130114 0.251469 0.598384
O O5 0.647874 0.676361 0.933297
O O6 0.544391 0.753830 0.901114
O O7 0.565215 0.853867 0.788023
O O8 0.645931 0.879308 0.041043
O O9 0.500000 0.325939 0.750000
O O10 0.458001 0.569866 0.774056
O O11 0.410113 0.313341 0.755747
O O12 0.522758 0.375570 0.933651
O O13 0.250000 0.750000 0.500000
O O14 0.185083 0.012210 0.358889
O O15 0.330501 0.736417 0.281541
O O16 0.543181 0.244602 0.100493
O O17 0.602048 0.496392 0.138829
#
# Coordination Sequence:
#
# PCOD9259195 Si02
#       8
#     8   8   8   8   8   8   8   8
#     4  11  24  43  62  90 123 170 213 263 325 389
#     4  11  19  35  65  92 122 162 216 261 305 378
#     4  11  18  33  61  93 129 159 207 262 315 366
#     4  11  20  40  66  90 127 170 218 264 314 372
#     4  12  25  41  64  91 128 167 218 265 326 380
#     4  10  20  37  63  89 128 160 210 264 317 373
#     4  10  18  34  61  99 115 164 218 253 299 384
#     4  10  21  37  61  95 123 166 216 263 312 376
#
# _framework density 20.768362
#
# number of rings (size 3 to 8) (size 9 to 14) (size 15 to 20)
#    0.000    1.250    6.250    4.500    0.000    0.000 
#    2.250    4.375    2.750    0.000    0.000    0.000 
#    0.000    0.000    0.000    0.000    0.000    0.000 
#
# Total GULP energy -178180.463512 kJ/mol
# GULP energy per Si atom -5568.139485 kJ/mol
# Density = 2.072109 g / cm^3
# Si number density = 20.768362 Si / 1000 Ang^3
#
#
#
# Elastic Constant Matrix: (Units=GPa)
#
#
# Indices 1 2 3 4 5 6 
#
# 1 128.5259 20.9750 26.2805 0.0000 15.0311 0.0000
# 2 20.9750 50.9414 13.3292 0.0000 -0.3489 0.0000
# 3 26.2805 13.3292 82.4417 0.0000 12.9042 0.0000
# 4 0.0000 0.0000 0.0000 19.2267 0.0000 8.0527
# 5 15.0311 -0.3489 12.9042 0.0000 37.1405 0.0000
# 6 0.0000 0.0000 0.0000 8.0527 0.0000 15.8631
#
#
#
# Elastic Compliance Matrix: (Units=1/GPa)
#
#
# Indices 1 2 3 4 5 6 
#
# 1 0.009052 -0.003255 -0.001884 0.000000 -0.003040 0.000000
# 2 -0.003255 0.021739 -0.002871 0.000000 0.002519 0.000000
# 3 -0.001884 -0.002871 0.013832 0.000000 -0.004070 0.000000
# 4 0.000000 0.000000 0.000000 0.066055 0.000000 -0.033532
# 5 -0.003040 0.002519 -0.004070 0.000000 0.029593 0.000000
# 6 0.000000 0.000000 0.000000 -0.033532 0.000000 0.080061
#
#
# Mechanical properties :
#
#
# Convention : Reuss Voigt Hill
#
# Bulk Modulus (GPa) = 34.96172 42.56427 38.76299
# Shear Modulus (GPa) = 20.33449 27.86770 24.10109
#
# Velocity S-wave (km/s) = 3.13247 3.66708 3.41027
# Velocity P-wave (km/s) = 5.47301 6.20236 5.84906
#
# Compressibility (1/GPa) = 0.02860272
#
# Stress axis : x y z
#
# Youngs Moduli (GPa) = 110.46759 45.99960 72.29824
#
# Poissons Ratio (x) = 0.14974 0.13618
# Poissons Ratio (y) = 0.35960 0.20760
# Poissons Ratio (z) = 0.20808 0.13209
#
# Static dielectric constant tensor:
#      x y z
#    x 1.796740 0.000000 0.026640 
#    y 0.000000 1.778330 0.000000 
#    z 0.026640 0.000000 1.820360 
# 
# From -- ./inp_files/181175.got.cif
#   From: 2010.05.17/outbox.cif.g08.bks.cpg/sg15_91_cif.got.tgz:181175.got - 2010.06.03 18:47:42.
