data_PCOD9259472
_publ_section_title
;
Structure prediction by ZEFSAII (Michael W. Deem and Ramdas Pophale) SiO2 
 PCOD9259472
Probable space group: C 2/C
;
_chemical_formula_sum "Si O2"
_cell_formula_units_Z 44
_cell_length_a 9.531581
_cell_length_b 14.542566
_cell_length_c 16.560028
_cell_angle_alpha 90.000000
_cell_angle_beta 48.635359
_cell_angle_gamma 90.000000
_cell_volume 1722.775826
_symmetry_space_group_name_H-M "C 2/C"
_symmetry_group_IT_number 15
_symmetry_cell_setting 'monoclinic'
loop_
_space_group_symop_operation_xyz
x,y,z
-x,y,1/2-z
-x,-y,-z
x,-y,1/2+z
1/2+x,1/2+y,z
1/2-x,1/2+y,1/2-z
1/2-x,1/2-y,-z
1/2+x,1/2-y,1/2+z
loop_
_atom_site_type_symbol
_atom_site_label
_atom_site_fract_x
_atom_site_fract_y
_atom_site_fract_z
Si Si1 0.326258 0.707554 0.193662
Si Si2 0.385326 0.874542 0.594507
Si Si3 0.500000 0.844939 0.250000
Si Si4 0.562349 0.036873 0.593849
Si Si5 0.409422 0.310119 0.485478
Si Si6 0.369918 0.395958 0.231187
O O1 0.273844 0.631216 0.278467
O O2 0.468558 0.773258 0.188314
O O3 0.360233 0.662468 0.094866
O O4 0.169092 0.786448 0.236935
O O5 0.355660 0.919208 0.518798
O O6 0.434470 0.769028 0.559864
O O7 0.553817 0.929044 0.576360
O O8 0.367616 0.918324 0.349510
O O9 0.337992 0.062098 0.684754
O O10 0.250000 0.250000 0.500000
O O11 0.502962 0.389303 0.396691
O O12 0.500000 0.436543 0.250000
#
# Coordination Sequence:
#
# PCOD9259472 Si02
#       6
#     8   8   4   8   8   8
#     4  10  21  36  58  90 114 157 198 246 299 354
#     4  10  21  38  60  85 119 153 206 242 298 362
#     4  10  20  40  56  84 126 152 204 236 304 368
#     4  10  21  39  57  87 117 165 192 242 305 357
#     4  11  19  35  62  91 114 149 202 257 298 349
#     4  10  18  35  58  84 117 148 197 251 292 347
#
# _framework density 25.540177
#
# number of rings (size 3 to 8) (size 9 to 14) (size 15 to 20)
#    0.000    1.818    5.455    0.000    0.000    2.182 
#    4.909    0.909    0.000    0.000    0.000    0.000 
#    0.000    0.000    0.000    0.000    0.000    0.000 
#
# Total GULP energy -122501.314855 kJ/mol
# GULP energy per Si atom -5568.241584 kJ/mol
# Density = 2.548205 g / cm^3
# Si number density = 25.540177 Si / 1000 Ang^3
#
#
#
# Elastic Constant Matrix: (Units=GPa)
#
#
# Indices 1 2 3 4 5 6 
#
# 1 81.3193 -14.8999 23.3024 0.0000 9.4085 0.0000
# 2 -14.8999 69.4613 19.6336 0.0000 6.1840 0.0000
# 3 23.3024 19.6336 207.0662 0.0000 39.5730 0.0000
# 4 0.0000 0.0000 0.0000 20.3019 0.0000 0.8350
# 5 9.4085 6.1840 39.5730 0.0000 35.6842 0.0000
# 6 0.0000 0.0000 0.0000 0.8350 0.0000 17.7104
#
#
#
# Elastic Compliance Matrix: (Units=1/GPa)
#
#
# Indices 1 2 3 4 5 6 
#
# 1 0.013650 0.003552 -0.001355 0.000000 -0.002712 0.000000
# 2 0.003552 0.015764 -0.001514 0.000000 -0.001989 0.000000
# 3 -0.001355 -0.001514 0.006354 0.000000 -0.006426 0.000000
# 4 0.000000 0.000000 0.000000 0.049352 0.000000 -0.002327
# 5 -0.002712 -0.001989 -0.006426 0.000000 0.036210 0.000000
# 6 0.000000 0.000000 0.000000 -0.002327 0.000000 0.056574
#
#
# Mechanical properties :
#
#
# Convention : Reuss Voigt Hill
#
# Bulk Modulus (GPa) = 26.92929 45.99099 36.46014
# Shear Modulus (GPa) = 26.46699 36.72667 31.59683
#
# Velocity S-wave (km/s) = 3.22264 3.79621 3.52112
# Velocity P-wave (km/s) = 4.94105 6.10420 5.55316
#
# Compressibility (1/GPa) = 0.03713429
#
# Stress axis : x y z
#
# Youngs Moduli (GPa) = 73.25959 63.43718 157.39190
#
# Poissons Ratio (x) = -0.22535 0.21320
# Poissons Ratio (y) = -0.26025 0.23834
# Poissons Ratio (z) = 0.09924 0.09606
#
# Static dielectric constant tensor:
#      x y z
#    x 2.197250 0.000000 -0.031250 
#    y 0.000000 2.048550 0.000000 
#    z -0.031250 0.000000 2.138890 
# 
# From -- ./inp_files/145230.got.cif
#   From: 2010.05.17/outbox.cif.g08.bks.cpg/sg15_73_cif.got.tgz:145230.got - 2010.06.03 18:47:42.
