data_PCOD9259812
_publ_section_title
;
Structure prediction by ZEFSAII (Michael W. Deem and Ramdas Pophale) SiO2 
 PCOD9259812
Probable space group: C 2/C
;
_chemical_formula_sum "Si O2"
_cell_formula_units_Z 52
_cell_length_a 8.772909
_cell_length_b 16.933832
_cell_length_c 24.121598
_cell_angle_alpha 90.000000
_cell_angle_beta 47.387779
_cell_angle_gamma 90.000000
_cell_volume 2637.271532
_symmetry_space_group_name_H-M "C 2/C"
_symmetry_group_IT_number 15
_symmetry_cell_setting 'monoclinic'
loop_
_space_group_symop_operation_xyz
x,y,z
-x,y,1/2-z
-x,-y,-z
x,-y,1/2+z
1/2+x,1/2+y,z
1/2-x,1/2+y,1/2-z
1/2-x,1/2-y,-z
1/2+x,1/2-y,1/2+z
loop_
_atom_site_type_symbol
_atom_site_label
_atom_site_fract_x
_atom_site_fract_y
_atom_site_fract_z
Si Si1 0.532098 0.665530 0.533813
Si Si2 0.685249 0.804838 0.964406
Si Si3 0.955360 0.032385 0.630680
Si Si4 0.940460 0.590945 0.384988
Si Si5 0.373873 0.402228 0.835464
Si Si6 0.253379 0.436614 0.022710
Si Si7 0.500000 0.038116 0.250000
O O1 0.471058 0.755911 0.535975
O O2 0.512947 0.622503 0.598820
O O3 0.750048 0.645071 0.451324
O O4 0.356629 0.619526 0.542139
O O5 0.884316 0.835197 0.880382
O O6 0.750000 0.750000 0.000000
O O7 0.620733 0.886710 0.010633
O O8 0.710848 0.014082 0.696628
O O9 0.059817 0.988039 0.657521
O O10 0.060357 0.981463 0.555071
O O11 0.874738 0.501565 0.414199
O O12 0.994943 0.591729 0.306619
O O13 0.137839 0.602296 0.374742
O O14 0.500000 0.383027 0.750000
#
# Coordination Sequence:
#
# PCOD9259812 Si02
#       7
#     8   8   8   8   8   8   4
#     4  10  18  36  56  86 113 152 200 238 284 353
#     4   9  21  37  59  81 117 159 192 236 292 359
#     4  10  19  33  58  83 117 143 197 245 289 347
#     4  11  21  33  61  86 115 148 201 252 295 343
#     4  11  23  38  56  90 121 152 192 251 307 346
#     4   9  17  35  56  87 110 149 196 242 286 340
#     4  12  18  32  58  88 106 154 188 248 300 348
#
# _framework density 19.717345999999999
#
# number of rings (size 3 to 8) (size 9 to 14) (size 15 to 20)
#    0.000    1.846    4.615    0.923    0.000    6.154 
#    1.385    0.000    0.000    0.000    4.000    0.000 
#    0.000    0.000    0.000    0.000    0.000    0.000 
#
# Total GULP energy -144770.071100 kJ/mol
# GULP energy per Si atom -5568.079658 kJ/mol
# Density = 1.967247 g / cm^3
# Si number density = 19.717346 Si / 1000 Ang^3
#
#
#
# Elastic Constant Matrix: (Units=GPa)
#
#
# Indices 1 2 3 4 5 6 
#
# 1 73.9127 47.9470 40.6345 -0.0010 2.4125 0.0004
# 2 47.9470 84.6057 32.7871 -0.0011 0.4028 0.0005
# 3 40.6345 32.7871 91.5120 -0.0009 10.0290 0.0007
# 4 -0.0010 -0.0011 -0.0009 1.2509 0.0009 5.4533
# 5 2.4125 0.4028 10.0290 0.0009 34.4786 -0.0005
# 6 0.0004 0.0005 0.0007 5.4533 -0.0005 45.4133
#
#
#
# Elastic Compliance Matrix: (Units=1/GPa)
#
#
# Indices 1 2 3 4 5 6 
#
# 1 0.024656 -0.011280 -0.006954 0.000009 0.000429 -0.000001
# 2 -0.011280 0.018943 -0.001901 0.000012 0.001121 -0.000001
# 3 -0.006954 -0.001901 0.015123 0.000015 -0.003890 -0.000002
# 4 0.000009 0.000012 0.000015 1.677707 -0.000050 -0.201461
# 5 0.000429 0.001121 -0.003890 -0.000050 0.030092 0.000006
# 6 -0.000001 -0.000001 -0.000002 -0.201461 0.000006 0.046212
#
#
# Mechanical properties :
#
#
# Convention : Reuss Voigt Hill
#
# Bulk Modulus (GPa) = 54.19424 54.75196 54.47310
# Shear Modulus (GPa) = 2.68940 24.80602 13.74771
#
# Velocity S-wave (km/s) = 1.16916 3.55079 2.64339
# Velocity P-wave (km/s) = 5.41921 6.68128 6.08306
#
# Compressibility (1/GPa) = 0.01845215
#
# Stress axis : x y z
#
# Youngs Moduli (GPa) = 40.55885 52.78873 66.12584
#
# Poissons Ratio (x) = 0.59545 0.45981
# Poissons Ratio (y) = 0.45750 0.12572
# Poissons Ratio (z) = 0.28203 0.10037
#
# Static dielectric constant tensor:
#      x y z
#    x 1.770220 0.000000 0.031050 
#    y 0.000000 1.757580 0.000000 
#    z 0.031050 0.000000 1.698180 
# 
# From -- ./inp_files/289528.got.cif
#   From: 2010.05.17/outbox.cif.g08.bks.cpg/sg15_145_cif.got.tgz:289528.got - 2010.06.03 18:47:42.
