data_PCOD9259200
_publ_section_title
;
Structure prediction by ZEFSAII (Michael W. Deem and Ramdas Pophale) SiO2 
 PCOD9259200
Probable space group: C 2/C
;
_chemical_formula_sum "Si O2"
_cell_formula_units_Z 60
_cell_length_a 10.907041
_cell_length_b 12.056000
_cell_length_c 22.302060
_cell_angle_alpha 90.000000
_cell_angle_beta 63.016363
_cell_angle_gamma 90.000000
_cell_volume 2613.359899
_symmetry_space_group_name_H-M "C 2/C"
_symmetry_group_IT_number 15
_symmetry_cell_setting 'monoclinic'
loop_
_space_group_symop_operation_xyz
x,y,z
-x,y,1/2-z
-x,-y,-z
x,-y,1/2+z
1/2+x,1/2+y,z
1/2-x,1/2+y,1/2-z
1/2-x,1/2-y,-z
1/2+x,1/2-y,1/2+z
loop_
_atom_site_type_symbol
_atom_site_label
_atom_site_fract_x
_atom_site_fract_y
_atom_site_fract_z
Si Si1 0.615282 0.182923 0.138259
Si Si2 0.925002 0.883372 0.205117
Si Si3 0.500000 0.219325 0.750000
Si Si4 0.817834 0.717124 0.686197
Si Si5 0.537574 0.499708 0.414117
Si Si6 0.396084 0.681826 0.016260
Si Si7 0.156680 0.567885 0.618384
Si Si8 0.005854 0.612223 0.538026
O O1 0.490986 0.269808 0.162588
O O2 0.700302 0.207267 0.181023
O O3 0.735111 0.204559 0.062480
O O4 0.584223 0.053237 0.139997
O O5 0.766282 0.871180 0.255359
O O6 0.961626 0.984980 0.155635
O O7 0.000000 0.898473 0.250000
O O8 0.407505 0.276177 0.718331
O O9 0.592076 0.145579 0.683556
O O10 0.891288 0.649058 0.614937
O O11 0.541125 0.623430 0.437142
O O12 0.420818 0.418438 0.465245
O O13 0.682747 0.449073 0.404384
O O14 0.485794 0.791865 0.992775
O O15 0.134942 0.607884 0.554673
O O16 0.000000 0.500000 0.500000
#
# Coordination Sequence:
#
# PCOD9259200 Si02
#       8
#     8   8   4   8   8   8   8   8
#     4   9  20  37  61  92 122 158 210 261 314 367
#     4  10  20  36  62  93 127 158 213 265 311 376
#     4  10  18  34  62  78 124 164 202 248 326 376
#     4   9  19  38  58  91 124 160 206 266 311 382
#     4  10  20  40  64  90 126 168 214 259 324 381
#     4   9  21  41  62  91 126 168 208 265 316 379
#     4  10  21  36  63  89 120 172 203 264 315 381
#     4  10  22  41  61  89 130 162 220 265 317 382
#
# _framework density 22.958952
#
# number of rings (size 3 to 8) (size 9 to 14) (size 15 to 20)
#    0.000    2.400    1.333    0.000    4.667    1.067 
#   19.200    0.000   23.467    0.000    0.000    0.000 
#    0.000    0.000    0.000    0.000    0.000    0.000 
#
# Total GULP energy -167120.552544 kJ/mol
# GULP energy per Si atom -5570.685085 kJ/mol
# Density = 2.290670 g / cm^3
# Si number density = 22.958952 Si / 1000 Ang^3
#
#
#
# Elastic Constant Matrix: (Units=GPa)
#
#
# Indices 1 2 3 4 5 6 
#
# 1 47.7773 0.2054 8.1992 0.0000 8.0542 0.0000
# 2 0.2054 79.0246 20.8543 0.0000 -7.7813 0.0000
# 3 8.1992 20.8543 94.5379 0.0000 6.9327 0.0000
# 4 0.0000 0.0000 0.0000 20.9089 0.0000 2.5545
# 5 8.0542 -7.7813 6.9327 0.0000 30.6571 0.0000
# 6 0.0000 0.0000 0.0000 2.5545 0.0000 14.6771
#
#
#
# Elastic Compliance Matrix: (Units=1/GPa)
#
#
# Indices 1 2 3 4 5 6 
#
# 1 0.022116 -0.000216 -0.001465 0.000000 -0.005534 0.000000
# 2 -0.000216 0.013979 -0.003385 0.000000 0.004370 0.000000
# 3 -0.001465 -0.003385 0.011680 0.000000 -0.003116 0.000000
# 4 0.000000 0.000000 0.000000 0.048866 0.000000 -0.008505
# 5 -0.005534 0.004370 -0.003116 0.000000 0.035887 0.000000
# 6 0.000000 0.000000 0.000000 -0.008505 0.000000 0.069614
#
#
# Mechanical properties :
#
#
# Convention : Reuss Voigt Hill
#
# Bulk Modulus (GPa) = 26.56570 31.09531 28.83050
# Shear Modulus (GPa) = 22.24010 26.05401 24.14705
#
# Velocity S-wave (km/s) = 3.11575 3.37235 3.24659
# Velocity P-wave (km/s) = 4.95378 5.36068 5.16124
#
# Compressibility (1/GPa) = 0.03764252
#
# Stress axis : x y z
#
# Youngs Moduli (GPa) = 45.21699 71.53824 85.61605
#
# Poissons Ratio (x) = 0.01544 0.12540
# Poissons Ratio (y) = 0.00976 0.28984
# Poissons Ratio (z) = 0.06623 0.24218
#
# Static dielectric constant tensor:
#      x y z
#    x 1.966450 0.000000 -0.008880 
#    y 0.000000 1.861550 0.000000 
#    z -0.008880 0.000000 1.982300 
# 
# From -- ./inp_files/268784.got.cif
#   From: 2010.05.17/outbox.cif.g08.bks.cpg/sg15_135_cif.got.tgz:268784.got - 2010.06.03 18:47:42.
