data_PCOD9259948
_publ_section_title
;
Structure prediction by ZEFSAII (Michael W. Deem and Ramdas Pophale) SiO2 
 PCOD9259948
Probable space group: C 2/C
;
_chemical_formula_sum "Si O2"
_cell_formula_units_Z 52
_cell_length_a 14.687575
_cell_length_b 26.767415
_cell_length_c 5.857653
_cell_angle_alpha 90.000000
_cell_angle_beta 104.184436
_cell_angle_gamma 90.000000
_cell_volume 2232.715242
_symmetry_space_group_name_H-M "C 2/C"
_symmetry_group_IT_number 15
_symmetry_cell_setting 'monoclinic'
loop_
_space_group_symop_operation_xyz
x,y,z
-x,y,1/2-z
-x,-y,-z
x,-y,1/2+z
1/2+x,1/2+y,z
1/2-x,1/2+y,1/2-z
1/2-x,1/2-y,-z
1/2+x,1/2-y,1/2+z
loop_
_atom_site_type_symbol
_atom_site_label
_atom_site_fract_x
_atom_site_fract_y
_atom_site_fract_z
Si Si1 0.500000 0.026910 0.750000
Si Si2 0.169923 0.117284 0.898904
Si Si3 0.931428 0.177159 0.019347
Si Si4 0.375355 0.512227 0.525298
Si Si5 0.961312 0.289912 0.973778
Si Si6 0.708384 0.067168 0.904167
Si Si7 0.244190 0.331068 0.669870
O O1 0.599554 0.054931 0.815248
O O2 0.500000 0.000000 0.500000
O O3 0.089400 0.137755 0.687436
O O4 0.133675 0.071230 0.024413
O O5 0.251920 0.092535 0.799841
O O6 0.210947 0.164881 0.053803
O O7 0.828097 0.186937 0.060738
O O8 0.000000 0.154426 0.250000
O O9 0.975616 0.230120 0.980813
O O10 0.414882 0.491332 0.309836
O O11 0.275894 0.480801 0.488790
O O12 0.850923 0.301196 0.905913
O O13 0.000000 0.309554 0.750000
O O14 0.000000 0.307418 0.250000
O O15 0.720738 0.111148 0.095605
#
# Coordination Sequence:
#
# PCOD9259948 Si02
#       7
#     4   8   8   8   8   8   8
#     4  12  26  38  60  92 138 192 238 286 342 414
#     4  10  22  38  71  96 132 183 236 290 347 420
#     4  10  25  47  71 103 138 183 240 303 366 429
#     4  10  18  36  59  89 129 171 222 273 338 394
#     4  11  28  48  72 106 149 186 229 298 361 429
#     4  10  23  39  59  96 138 184 233 287 340 418
#     4  11  24  43  73 104 136 194 236 290 357 431
#
# _framework density 23.290029000000001
#
# number of rings (size 3 to 8) (size 9 to 14) (size 15 to 20)
#    0.000    1.538    1.538    2.308   11.846    0.615 
#    0.000    0.000    0.000    8.308    0.000    0.000 
#    0.000    0.000    0.000    0.000    0.000    0.000 
#
# Total GULP energy -145118.349495 kJ/mol
# GULP energy per Si atom -5581.474981 kJ/mol
# Density = 2.323702 g / cm^3
# Si number density = 23.290029 Si / 1000 Ang^3
#
#
#
# Elastic Constant Matrix: (Units=GPa)
#
#
# Indices 1 2 3 4 5 6 
#
# 1 123.8235 0.0745 46.5931 0.0000 -9.0319 0.0000
# 2 0.0745 46.3161 25.1771 0.0000 5.7208 0.0000
# 3 46.5931 25.1771 152.7345 0.0000 0.6076 0.0000
# 4 0.0000 0.0000 0.0000 -2.6178 0.0000 21.2211
# 5 -9.0319 5.7208 0.6076 0.0000 22.4698 0.0000
# 6 0.0000 0.0000 0.0000 21.2211 0.0000 8.2318
#
#
#
# Elastic Compliance Matrix: (Units=1/GPa)
#
#
# Indices 1 2 3 4 5 6 
#
# 1 0.009511 0.001237 -0.003120 0.000000 0.003593 0.000000
# 2 0.001237 0.024695 -0.004425 0.000000 -0.005671 0.000000
# 3 -0.003120 -0.004425 0.008230 0.000000 -0.000350 0.000000
# 4 0.000000 0.000000 0.000000 -0.017445 0.000000 0.044971
# 5 0.003593 -0.005671 -0.000350 0.000000 0.047401 0.000000
# 6 0.000000 0.000000 0.000000 0.044971 0.000000 0.005548
#
#
# Mechanical properties :
#
#
# Convention : Reuss Voigt Hill
#
# Bulk Modulus (GPa) = 33.53542 51.84040 42.68791
# Shear Modulus (GPa) = 49.75282 22.35205 36.05243
#
# Velocity S-wave (km/s) = 4.62695 3.10131 3.93870
# Velocity P-wave (km/s) = 6.55555 5.92715 6.24925
#
# Compressibility (1/GPa) = 0.02981922
#
# Stress axis : x y z
#
# Youngs Moduli (GPa) = 105.13921 40.49424 121.50840
#
# Poissons Ratio (x) = -0.05008 0.37906
# Poissons Ratio (y) = -0.13003 0.53773
# Poissons Ratio (z) = 0.32800 0.17921
#
# Static dielectric constant tensor:
#      x y z
#    x 1.842620 0.000000 0.000160 
#    y 0.000000 1.838930 0.000000 
#    z 0.000160 0.000000 1.947030 
# 
# From -- ./inp_files/9114.got.cif
#   From: 2010.05.17/outbox.cif.g08.bks.cpg/sg15_5_cif.got.tgz:9114.got - 2010.06.03 18:47:42.
