data_PCOD9259420
_publ_section_title
;
Structure prediction by ZEFSAII (Michael W. Deem and Ramdas Pophale) SiO2 
 PCOD9259420
Probable space group: C 2/C
;
_chemical_formula_sum "Si O2"
_cell_formula_units_Z 56
_cell_length_a 7.287129
_cell_length_b 24.849451
_cell_length_c 19.413157
_cell_angle_alpha 90.000000
_cell_angle_beta 133.132663
_cell_angle_gamma 90.000000
_cell_volume 2565.411278
_symmetry_space_group_name_H-M "C 2/C"
_symmetry_group_IT_number 15
_symmetry_cell_setting 'monoclinic'
loop_
_space_group_symop_operation_xyz
x,y,z
-x,y,1/2-z
-x,-y,-z
x,-y,1/2+z
1/2+x,1/2+y,z
1/2-x,1/2+y,1/2-z
1/2-x,1/2-y,-z
1/2+x,1/2-y,1/2+z
loop_
_atom_site_type_symbol
_atom_site_label
_atom_site_fract_x
_atom_site_fract_y
_atom_site_fract_z
Si Si1 0.387156 0.355249 0.038617
Si Si2 0.428108 0.160817 0.312827
Si Si3 0.617988 0.279667 0.205480
Si Si4 0.124561 0.530892 0.924466
Si Si5 0.979010 0.026482 0.601766
Si Si6 0.314668 0.953546 0.769778
Si Si7 0.961613 0.630905 0.664913
O O1 0.417518 0.308193 0.102949
O O2 0.371916 0.413099 0.073809
O O3 0.670552 0.353764 0.078956
O O4 0.170952 0.349104 0.925463
O O5 0.500000 0.163839 0.250000
O O6 0.320817 0.219482 0.304020
O O7 0.252634 0.107991 0.270398
O O8 0.500000 0.275489 0.250000
O O9 0.856485 0.318565 0.278903
O O10 0.324648 0.529989 0.912175
O O11 0.978591 0.586508 0.877106
O O12 0.964188 0.478021 0.871512
O O13 0.280831 0.519904 0.031942
O O14 0.119082 0.000318 0.701561
O O15 0.500000 0.951295 0.750000
O O16 0.000000 0.602985 0.750000
#
# Coordination Sequence:
#
# PCOD9259420 Si02
#       7
#     8   8   8   8   8   8   8
#     4  10  18  35  57  82 103 137 175 220 266 312
#     4  10  20  31  49  77 110 140 175 215 262 313
#     4  10  21  37  52  74 105 144 187 215 252 309
#     4   9  14  24  43  75 108 123 158 203 270 317
#     4   9  16  24  46  79 107 128 157 206 276 322
#     4   9  15  24  40  69 108 135 150 205 262 312
#     4   9  18  31  53  79 103 132 175 220 265 309
#
# _framework density 21.828859000000001
#
# number of rings (size 3 to 8) (size 9 to 14) (size 15 to 20)
#    0.000    2.571    1.429    3.429    6.000    0.000 
#    0.000    2.857    0.000    0.857    0.000    3.000 
#    0.000    0.000    0.000    0.000    0.000    0.000 
#
# Total GULP energy -155900.584660 kJ/mol
# GULP energy per Si atom -5567.878024 kJ/mol
# Density = 2.177918 g / cm^3
# Si number density = 21.828859 Si / 1000 Ang^3
#
#
#
# Elastic Constant Matrix: (Units=GPa)
#
#
# Indices 1 2 3 4 5 6 
#
# 1 47.8333 12.9153 14.9382 0.0000 -2.9163 0.0000
# 2 12.9153 167.3596 49.1159 0.0000 2.4323 0.0000
# 3 14.9382 49.1159 97.9613 0.0000 0.9922 0.0000
# 4 0.0000 0.0000 0.0000 -2.2220 0.0000 -13.7591
# 5 -2.9163 2.4323 0.9922 0.0000 12.5739 0.0000
# 6 0.0000 0.0000 0.0000 -13.7591 0.0000 -0.5730
#
#
#
# Elastic Compliance Matrix: (Units=1/GPa)
#
#
# Indices 1 2 3 4 5 6 
#
# 1 0.022441 -0.000929 -0.003013 0.000000 0.005622 0.000000
# 2 -0.000929 0.007059 -0.003384 0.000000 -0.001314 0.000000
# 3 -0.003013 -0.003384 0.012375 0.000000 -0.001021 0.000000
# 4 0.000000 0.000000 0.000000 0.003047 0.000000 -0.073171
# 5 0.005622 -0.001314 -0.001021 0.000000 0.081169 0.000000
# 6 0.000000 0.000000 0.000000 -0.073171 0.000000 0.011816
#
#
# Mechanical properties :
#
#
# Convention : Reuss Voigt Hill
#
# Bulk Modulus (GPa) = 36.73589 51.89921 44.31755
# Shear Modulus (GPa) = 30.93411 17.70144 24.31777
#
# Velocity S-wave (km/s) = 3.76855 2.85075 3.34131
# Velocity P-wave (km/s) = 5.98344 5.88752 5.93567
#
# Compressibility (1/GPa) = 0.02722134
#
# Stress axis : x y z
#
# Youngs Moduli (GPa) = 44.56216 141.65954 80.80973
#
# Poissons Ratio (x) = 0.13163 0.24348
# Poissons Ratio (y) = 0.04141 0.27349
# Poissons Ratio (z) = 0.13427 0.47942
#
# Static dielectric constant tensor:
#      x y z
#    x 1.907830 0.000000 0.050930 
#    y 0.000000 1.850500 0.000000 
#    z 0.050930 0.000000 1.776550 
# 
# From -- ./inp_files/266439.got.cif
#   From: 2010.05.17/outbox.cif.g08.bks.cpg/sg15_134_cif.got.tgz:266439.got - 2010.06.03 18:47:42.
