data_PCOD9259248
_publ_section_title
;
Structure prediction by ZEFSAII (Michael W. Deem and Ramdas Pophale) SiO2 
 PCOD9259248
Probable space group: C 2/C
;
_chemical_formula_sum "Si O2"
_cell_formula_units_Z 60
_cell_length_a 21.447329
_cell_length_b 12.236249
_cell_length_c 16.017216
_cell_angle_alpha 90.000000
_cell_angle_beta 34.631931
_cell_angle_gamma 90.000000
_cell_volume 2388.845354
_symmetry_space_group_name_H-M "C 2/C"
_symmetry_group_IT_number 15
_symmetry_cell_setting 'monoclinic'
loop_
_space_group_symop_operation_xyz
x,y,z
-x,y,1/2-z
-x,-y,-z
x,-y,1/2+z
1/2+x,1/2+y,z
1/2-x,1/2+y,1/2-z
1/2-x,1/2-y,-z
1/2+x,1/2-y,1/2+z
loop_
_atom_site_type_symbol
_atom_site_label
_atom_site_fract_x
_atom_site_fract_y
_atom_site_fract_z
Si Si1 0.681404 0.625945 0.360800
Si Si2 0.729257 0.691618 0.934678
Si Si3 0.867480 0.408320 0.543366
Si Si4 0.966956 0.099985 0.691144
Si Si5 0.931308 0.304613 0.112706
Si Si6 0.668307 0.197090 0.157155
Si Si7 0.000000 0.535987 0.250000
Si Si8 0.990657 0.127236 0.348239
O O1 0.754502 0.555883 0.214265
O O2 0.565446 0.580843 0.518192
O O3 0.642666 0.751484 0.378155
O O4 0.759529 0.639764 0.353286
O O5 0.677518 0.791984 0.939531
O O6 0.843368 0.647571 0.774451
O O7 0.750000 0.750000 0.000000
O O8 0.637627 0.600955 0.019442
O O9 0.925633 0.470235 0.401392
O O10 0.963913 0.383323 0.505318
O O11 0.894910 0.197690 0.736313
O O12 0.000000 0.133761 0.750000
O O13 0.927883 0.975775 0.745682
O O14 0.975704 0.196599 0.110592
O O15 0.583377 0.113969 0.208750
O O16 0.750000 0.250000 0.000000
O O17 0.000000 0.193288 0.250000
#
# Coordination Sequence:
#
# PCOD9259248 Si02
#       8
#     8   8   8   8   8   8   4   8
#     4  11  24  44  71 102 138 182 238 290 360 410
#     4  10  18  34  62  97 133 176 214 266 344 419
#     4  10  24  41  67 103 144 182 223 290 358 428
#     4  11  23  45  69  97 129 177 238 294 335 404
#     4  10  21  41  62 101 141 175 214 282 350 425
#     4  12  25  48  74  99 133 192 246 297 347 411
#     4  12  26  46  70 104 144 188 240 288 352 430
#     4  10  21  36  64  97 134 173 221 277 342 417
#
# _framework density 25.116738000000002
#
# number of rings (size 3 to 8) (size 9 to 14) (size 15 to 20)
#    0.000    1.333    3.333    1.600    1.867    5.333 
#    0.000    9.333    0.000    0.000    0.000    0.000 
#    0.000    0.000    0.000    0.000    0.000    0.000 
#
# Total GULP energy -167287.446094 kJ/mol
# GULP energy per Si atom -5576.248203 kJ/mol
# Density = 2.505957 g / cm^3
# Si number density = 25.116738 Si / 1000 Ang^3
#
#
#
# Elastic Constant Matrix: (Units=GPa)
#
#
# Indices 1 2 3 4 5 6 
#
# 1 96.8163 10.7623 4.7426 0.0000 -13.9567 0.0000
# 2 10.7623 74.7795 19.5996 0.0000 -1.6625 0.0000
# 3 4.7426 19.5996 161.5791 0.0000 -4.6941 0.0000
# 4 0.0000 0.0000 0.0000 20.2335 0.0000 5.1947
# 5 -13.9567 -1.6625 -4.6941 0.0000 35.9657 0.0000
# 6 0.0000 0.0000 0.0000 5.1947 0.0000 20.6754
#
#
#
# Elastic Compliance Matrix: (Units=1/GPa)
#
#
# Indices 1 2 3 4 5 6 
#
# 1 0.011107 -0.001499 -0.000021 0.000000 0.004238 0.000000
# 2 -0.001499 0.014020 -0.001661 0.000000 -0.000150 0.000000
# 3 -0.000021 -0.001661 0.006413 0.000000 0.000752 0.000000
# 4 0.000000 0.000000 0.000000 0.052831 0.000000 -0.013274
# 5 0.004238 -0.000150 0.000752 0.000000 0.029540 0.000000
# 6 0.000000 0.000000 0.000000 -0.013274 0.000000 0.051702
#
#
# Mechanical properties :
#
#
# Convention : Reuss Voigt Hill
#
# Bulk Modulus (GPa) = 39.71601 44.82042 42.26822
# Shear Modulus (GPa) = 27.72107 35.24630 31.48369
#
# Velocity S-wave (km/s) = 3.32579 3.75013 3.54431
# Velocity P-wave (km/s) = 5.53125 6.05267 5.79783
#
# Compressibility (1/GPa) = 0.02517876
#
# Stress axis : x y z
#
# Youngs Moduli (GPa) = 90.02959 71.32479 155.93642
#
# Poissons Ratio (x) = 0.10690 0.00329
# Poissons Ratio (y) = 0.13494 0.25902
# Poissons Ratio (z) = 0.00190 0.11847
#
# Static dielectric constant tensor:
#      x y z
#    x 2.040870 0.000000 0.054420 
#    y 0.000000 2.081450 0.000000 
#    z 0.054420 0.000000 2.232490 
# 
# From -- ./inp_files/219588.got.cif
#   From: 2010.05.17/outbox.cif.g08.bks.cpg/sg15_110_cif.got.tgz:219588.got - 2010.06.03 18:47:42.
