data_PCOD9259996
_publ_section_title
;
Structure prediction by ZEFSAII (Michael W. Deem and Ramdas Pophale) SiO2 
 PCOD9259996
Probable space group: C 2/C
;
_chemical_formula_sum "Si O2"
_cell_formula_units_Z 60
_cell_length_a 14.739316
_cell_length_b 17.537987
_cell_length_c 11.991998
_cell_angle_alpha 90.000000
_cell_angle_beta 74.630096
_cell_angle_gamma 90.000000
_cell_volume 2989.037785
_symmetry_space_group_name_H-M "C 2/C"
_symmetry_group_IT_number 15
_symmetry_cell_setting 'monoclinic'
loop_
_space_group_symop_operation_xyz
x,y,z
-x,y,1/2-z
-x,-y,-z
x,-y,1/2+z
1/2+x,1/2+y,z
1/2-x,1/2+y,1/2-z
1/2-x,1/2-y,-z
1/2+x,1/2-y,1/2+z
loop_
_atom_site_type_symbol
_atom_site_label
_atom_site_fract_x
_atom_site_fract_y
_atom_site_fract_z
Si Si1 0.397973 0.624931 0.334567
Si Si2 0.103620 0.376547 0.680323
Si Si3 0.125675 0.392073 0.412950
Si Si4 0.500000 0.725961 0.750000
Si Si5 0.716358 0.953221 0.837507
Si Si6 0.415496 0.863394 0.450983
Si Si7 0.900586 0.800816 0.069825
Si Si8 0.685335 0.785710 0.217431
O O1 0.500000 0.613898 0.250000
O O2 0.325203 0.559007 0.328041
O O3 0.405005 0.642524 0.463955
O O4 0.351068 0.701262 0.296959
O O5 0.127147 0.394295 0.545780
O O6 0.180376 0.409240 0.739383
O O7 0.000000 0.408487 0.750000
O O8 0.085596 0.285601 0.698421
O O9 0.187402 0.459325 0.341887
O O10 0.163039 0.313306 0.348697
O O11 0.016858 0.401656 0.414053
O O12 0.530958 0.681278 0.849572
O O13 0.657562 0.914586 0.957471
O O14 0.427305 0.783715 0.515243
O O15 0.374765 0.840260 0.345148
O O16 0.793279 0.794349 0.146552
#
# Coordination Sequence:
#
# PCOD9259996 Si02
#       8
#     8   8   8   4   8   8   8   8
#     4  11  23  41  68  93 125 177 230 262 308 380
#     4  10  21  37  57  87 135 164 198 260 332 382
#     4  12  25  36  63  96 134 168 215 255 328 400
#     4  10  18  36  60  86 128 164 208 260 332 370
#     4  12  23  40  62  93 132 176 209 264 325 383
#     4  11  18  39  61  94 129 170 201 262 325 382
#     4  11  19  39  66  91 135 170 208 273 327 370
#     4  11  22  38  64  98 130 162 221 268 313 383
#
# _framework density 20.073349
#
# number of rings (size 3 to 8) (size 9 to 14) (size 15 to 20)
#    0.400    0.533    6.667    3.200    1.867    0.000 
#    2.400    1.333    1.467    1.600    0.000    0.000 
#    0.000    0.000    0.000    0.000    0.000    0.000 
#
# Total GULP energy -167687.732476 kJ/mol
# GULP energy per Si atom -5589.591083 kJ/mol
# Density = 2.002766 g / cm^3
# Si number density = 20.073349 Si / 1000 Ang^3
#
#
#
# Elastic Constant Matrix: (Units=GPa)
#
#
# Indices 1 2 3 4 5 6 
#
# 1 126.8254 24.3619 65.8834 0.0000 -1.2148 0.0000
# 2 24.3619 18.6931 20.9534 0.0000 8.9506 0.0000
# 3 65.8834 20.9534 106.8048 0.0000 5.0179 0.0000
# 4 0.0000 0.0000 0.0000 0.3659 0.0000 -2.6620
# 5 -1.2148 8.9506 5.0179 0.0000 36.3405 0.0000
# 6 0.0000 0.0000 0.0000 -2.6620 0.0000 10.2623
#
#
#
# Elastic Compliance Matrix: (Units=1/GPa)
#
#
# Indices 1 2 3 4 5 6 
#
# 1 0.013568 -0.013105 -0.006010 0.000000 0.004511 0.000000
# 2 -0.013105 0.090633 -0.008684 0.000000 -0.021562 0.000000
# 3 -0.006010 -0.008684 0.014779 0.000000 -0.000103 0.000000
# 4 0.000000 0.000000 0.000000 -3.080699 0.000000 -0.799126
# 5 0.004511 -0.021562 -0.000103 0.000000 0.032993 0.000000
# 6 0.000000 0.000000 0.000000 -0.799126 0.000000 -0.109847
#
#
# Mechanical properties :
#
#
# Convention : Reuss Voigt Hill
#
# Bulk Modulus (GPa) = 15.77754 52.74674 34.26214
# Shear Modulus (GPa) = -1.68813 18.80206 8.55696
#
# Velocity S-wave (km/s) = -0.91805 3.06382 2.06691
# Velocity P-wave (km/s) = 2.59870 6.23298 4.77511
#
# Compressibility (1/GPa) = 0.06338124
#
# Stress axis : x y z
#
# Youngs Moduli (GPa) = 73.70472 11.03349 67.66471
#
# Poissons Ratio (x) = 0.14460 0.40668
# Poissons Ratio (y) = 0.96592 0.58758
# Poissons Ratio (z) = 0.44298 0.09581
#
# Static dielectric constant tensor:
#      x y z
#    x 1.699340 0.000000 0.015200 
#    y 0.000000 1.709660 0.000000 
#    z 0.015200 0.000000 1.719130 
# 
# From -- ./inp_files/98758.got.cif
#   From: 2010.05.17/outbox.cif.g08.bks.cpg/sg15_50_cif.got.tgz:98758.got - 2010.06.03 18:47:42.
