data_PCOD9259682
_publ_section_title
;
Structure prediction by ZEFSAII (Michael W. Deem and Ramdas Pophale) SiO2 
 PCOD9259682
Probable space group: C 2/C
;
_chemical_formula_sum "Si O2"
_cell_formula_units_Z 64
_cell_length_a 18.228544
_cell_length_b 14.215433
_cell_length_c 20.589002
_cell_angle_alpha 90.000000
_cell_angle_beta 40.949094
_cell_angle_gamma 90.000000
_cell_volume 3496.600422
_symmetry_space_group_name_H-M "C 2/C"
_symmetry_group_IT_number 15
_symmetry_cell_setting 'monoclinic'
loop_
_space_group_symop_operation_xyz
x,y,z
-x,y,1/2-z
-x,-y,-z
x,-y,1/2+z
1/2+x,1/2+y,z
1/2-x,1/2+y,1/2-z
1/2-x,1/2-y,-z
1/2+x,1/2-y,1/2+z
loop_
_atom_site_type_symbol
_atom_site_label
_atom_site_fract_x
_atom_site_fract_y
_atom_site_fract_z
Si Si1 0.931339 0.787456 0.858107
Si Si2 0.809001 0.299449 0.755281
Si Si3 0.902382 0.309680 0.151278
Si Si4 0.544829 0.792275 0.530642
Si Si5 0.755026 0.302492 0.928481
Si Si6 0.230899 0.385071 0.055834
Si Si7 0.895278 0.548653 0.409571
Si Si8 0.849602 0.491304 0.263067
O O1 0.842874 0.709572 0.891453
O O2 0.000000 0.825100 0.750000
O O3 0.016924 0.733975 0.848483
O O4 0.855930 0.860142 0.949733
O O5 0.706964 0.254411 0.785292
O O6 0.814131 0.258737 0.825562
O O7 0.793669 0.411671 0.776781
O O8 0.923933 0.280366 0.642253
O O9 0.864628 0.413643 0.197097
O O10 0.960454 0.310039 0.042117
O O11 0.625800 0.703019 0.491371
O O12 0.596862 0.883712 0.532934
O O13 0.828425 0.392409 0.899330
O O14 0.750000 0.250000 0.000000
O O15 0.174108 0.452583 0.039632
O O16 0.213500 0.437954 0.136098
O O17 0.021995 0.521165 0.306477
#
# Coordination Sequence:
#
# PCOD9259682 Si02
#       8
#     8   8   8   8   8   8   8   8
#     4  11  23  40  59  87 120 158 198 252 308 350
#     4  10  22  37  61  87 121 164 200 245 306 363
#     4  11  23  41  56  88 128 152 206 250 296 372
#     4   9  22  36  57  90 120 158 188 248 311 354
#     4   9  18  34  59  88 120 148 194 249 294 353
#     4  11  21  36  65  90 110 152 207 256 293 356
#     4  10  18  35  63  88 116 144 205 248 287 355
#     4  11  21  38  64  90 114 158 212 248 296 363
#
# _framework density 18.303491999999999
#
# number of rings (size 3 to 8) (size 9 to 14) (size 15 to 20)
#    0.000    1.750    3.750    0.375    3.500    3.500 
#    2.250    1.875    5.500    0.000    0.000    0.000 
#    0.000    0.000    0.000    0.000    0.000    0.000 
#
# Total GULP energy -178218.502122 kJ/mol
# GULP energy per Si atom -5569.328191 kJ/mol
# Density = 1.826183 g / cm^3
# Si number density = 18.303492 Si / 1000 Ang^3
#
#
#
# Elastic Constant Matrix: (Units=GPa)
#
#
# Indices 1 2 3 4 5 6 
#
# 1 48.3565 23.1640 46.3419 0.0000 10.9389 0.0000
# 2 23.1640 65.1926 38.0870 0.0000 -12.3725 0.0000
# 3 46.3419 38.0870 151.7842 0.0000 3.2949 0.0000
# 4 0.0000 0.0000 0.0000 30.1737 0.0000 -4.4537
# 5 10.9389 -12.3725 3.2949 0.0000 22.9511 0.0000
# 6 0.0000 0.0000 0.0000 -4.4537 0.0000 30.7414
#
#
#
# Elastic Compliance Matrix: (Units=1/GPa)
#
#
# Indices 1 2 3 4 5 6 
#
# 1 0.042216 -0.015179 -0.008492 0.000000 -0.027084 0.000000
# 2 -0.015179 0.026282 -0.002433 0.000000 0.021752 0.000000
# 3 -0.008492 -0.002433 0.009763 0.000000 0.001335 0.000000
# 4 0.000000 0.000000 0.000000 0.033866 0.000000 0.004906
# 5 -0.027084 0.021752 0.001335 0.000000 0.068014 0.000000
# 6 0.000000 0.000000 0.000000 0.004906 0.000000 0.033240
#
#
# Mechanical properties :
#
#
# Convention : Reuss Voigt Hill
#
# Bulk Modulus (GPa) = 38.38375 53.39101 45.88738
# Shear Modulus (GPa) = 18.23001 27.28926 22.75963
#
# Velocity S-wave (km/s) = 3.15935 3.86545 3.53010
# Velocity P-wave (km/s) = 5.85874 7.01109 6.46066
#
# Compressibility (1/GPa) = 0.02605269
#
# Stress axis : x y z
#
# Youngs Moduli (GPa) = 23.68756 38.04911 102.43111
#
# Poissons Ratio (x) = 0.57754 0.86990
# Poissons Ratio (y) = 0.35955 0.24919
# Poissons Ratio (z) = 0.20117 0.09256
#
# Static dielectric constant tensor:
#      x y z
#    x 1.630620 0.000000 0.015750 
#    y 0.000000 1.659730 0.000000 
#    z 0.015750 0.000000 1.656730 
# 
# From -- ./inp_files/211394.got.cif
#   From: 2010.05.17/outbox.cif.g08.bks.cpg/sg15_106_cif.got.tgz:211394.got - 2010.06.03 18:47:42.
