data_PCOD9259675
_publ_section_title
;
Structure prediction by ZEFSAII (Michael W. Deem and Ramdas Pophale) SiO2 
 PCOD9259675
Probable space group: C 2/C
;
_chemical_formula_sum "Si O2"
_cell_formula_units_Z 52
_cell_length_a 19.410820
_cell_length_b 8.834772
_cell_length_c 27.856009
_cell_angle_alpha 90.000000
_cell_angle_beta 32.674553
_cell_angle_gamma 90.000000
_cell_volume 2578.959493
_symmetry_space_group_name_H-M "C 2/C"
_symmetry_group_IT_number 15
_symmetry_cell_setting 'monoclinic'
loop_
_space_group_symop_operation_xyz
x,y,z
-x,y,1/2-z
-x,-y,-z
x,-y,1/2+z
1/2+x,1/2+y,z
1/2-x,1/2+y,1/2-z
1/2-x,1/2-y,-z
1/2+x,1/2-y,1/2+z
loop_
_atom_site_type_symbol
_atom_site_label
_atom_site_fract_x
_atom_site_fract_y
_atom_site_fract_z
Si Si1 0.372316 0.030720 0.964183
Si Si2 0.369589 0.581344 0.017375
Si Si3 0.500000 0.344252 0.750000
Si Si4 0.583088 0.426700 0.119386
Si Si5 0.530721 0.136254 0.445880
Si Si6 0.584363 0.098618 0.155014
Si Si7 0.217536 0.760962 0.402690
O O1 0.484472 0.933071 0.922806
O O2 0.410454 0.039114 0.886121
O O3 0.343899 0.173376 0.014948
O O4 0.235112 0.946231 0.041427
O O5 0.227257 0.634160 0.088145
O O6 0.341885 0.427262 0.061527
O O7 0.433708 0.548073 0.927746
O O8 0.444479 0.712983 0.000763
O O9 0.483315 0.454013 0.806245
O O10 0.631226 0.252735 0.679861
O O11 0.540645 0.256121 0.156408
O O12 0.671521 0.183376 0.380097
O O13 0.500000 0.000000 0.500000
O O14 0.500000 0.065605 0.250000
#
# Coordination Sequence:
#
# PCOD9259675 Si02
#       7
#     8   8   4   8   8   8   8
#     4   9  18  37  58  90 114 158 209 239 307 373
#     4  11  21  38  60  90 121 160 210 251 312 373
#     4  10  22  38  58  90 126 160 212 256 326 364
#     4  10  18  35  63  83 119 158 201 259 306 369
#     4  10  19  36  66  87 116 162 209 248 298 379
#     4  11  20  32  62  92 119 155 205 268 302 355
#     4  10  23  37  62  87 128 164 197 258 311 374
#
# _framework density 20.163170999999998
#
# number of rings (size 3 to 8) (size 9 to 14) (size 15 to 20)
#    0.000    1.846    3.846    1.385    1.077    5.538 
#    0.000    0.000    6.769    0.000    0.000    0.000 
#    0.000    0.000    0.000    0.000    0.000    0.000 
#
# Total GULP energy -144884.153084 kJ/mol
# GULP energy per Si atom -5572.467426 kJ/mol
# Density = 2.011728 g / cm^3
# Si number density = 20.163171 Si / 1000 Ang^3
#
#
#
# Elastic Constant Matrix: (Units=GPa)
#
#
# Indices 1 2 3 4 5 6 
#
# 1 98.2396 36.8590 38.5495 -0.0003 -10.8109 -0.0013
# 2 36.8590 74.6495 25.6864 -0.0024 -6.4343 -0.0123
# 3 38.5495 25.6864 90.8749 0.0004 13.6218 0.0021
# 4 -0.0003 -0.0024 0.0004 5.5476 0.0001 -58.6744
# 5 -10.8109 -6.4343 13.6218 0.0001 28.1146 0.0005
# 6 -0.0013 -0.0123 0.0021 -58.6744 0.0005 -309.9960
#
#
#
# Elastic Compliance Matrix: (Units=1/GPa)
#
#
# Indices 1 2 3 4 5 6 
#
# 1 0.015296 -0.004690 -0.006344 0.000000 0.007882 0.000000
# 2 -0.004690 0.017228 -0.003451 0.000000 0.003812 -0.000001
# 3 -0.006344 -0.003451 0.016342 0.000000 -0.011147 0.000000
# 4 0.000000 0.000000 0.000000 0.060048 0.000000 -0.011366
# 5 0.007882 0.003812 -0.011147 0.000000 0.044873 0.000000
# 6 0.000000 -0.000001 0.000000 -0.011366 0.000000 -0.001075
#
#
# Mechanical properties :
#
#
# Convention : Reuss Voigt Hill
#
# Bulk Modulus (GPa) = 50.26637 51.77264 51.01950
# Shear Modulus (GPa) = 26.55119 -44.42215 -8.93548
#
# Velocity S-wave (km/s) = 3.63273 -4.69885 -2.10742
# Velocity P-wave (km/s) = 6.52530 1.92518 4.40870
#
# Compressibility (1/GPa) = 0.01989402
#
# Stress axis : x y z
#
# Youngs Moduli (GPa) = 65.37712 58.04573 61.19211
#
# Poissons Ratio (x) = 0.27224 0.38823
# Poissons Ratio (y) = 0.30662 0.21120
# Poissons Ratio (z) = 0.41478 0.20034
#
# Static dielectric constant tensor:
#      x y z
#    x 1.746080 0.000000 0.011440 
#    y 0.000000 1.772010 0.000000 
#    z 0.011440 0.000000 1.692510 
# 
# From -- ./inp_files/317365.got.cif
#   From: 2010.05.17/outbox.cif.g08.bks.cpg/sg15_159_cif.got.tgz:317365.got - 2010.06.03 18:47:42.
