data_PCOD9259847
_publ_section_title
;
Structure prediction by ZEFSAII (Michael W. Deem and Ramdas Pophale) SiO2 
 PCOD9259847
Probable space group: C 2/C
;
_chemical_formula_sum "Si O2"
_cell_formula_units_Z 56
_cell_length_a 11.880577
_cell_length_b 16.742066
_cell_length_c 16.100896
_cell_angle_alpha 90.000000
_cell_angle_beta 115.393686
_cell_angle_gamma 90.000000
_cell_volume 2893.132528
_symmetry_space_group_name_H-M "C 2/C"
_symmetry_group_IT_number 15
_symmetry_cell_setting 'monoclinic'
loop_
_space_group_symop_operation_xyz
x,y,z
-x,y,1/2-z
-x,-y,-z
x,-y,1/2+z
1/2+x,1/2+y,z
1/2-x,1/2+y,1/2-z
1/2-x,1/2-y,-z
1/2+x,1/2-y,1/2+z
loop_
_atom_site_type_symbol
_atom_site_label
_atom_site_fract_x
_atom_site_fract_y
_atom_site_fract_z
Si Si1 0.974397 0.588889 0.099679
Si Si2 0.756706 0.057763 0.774472
Si Si3 0.239023 0.378239 0.721738
Si Si4 0.500000 0.043474 0.750000
Si Si5 0.488216 0.464688 0.087671
Si Si6 0.250068 0.611242 0.583248
Si Si7 0.870402 0.734784 0.177403
Si Si8 0.500000 0.583159 0.250000
O O1 0.974818 0.513120 0.161732
O O2 0.919516 0.663032 0.135355
O O3 0.118744 0.606915 0.125587
O O4 0.882731 0.584081 0.993400
O O5 0.766211 0.075545 0.680176
O O6 0.748053 0.960723 0.778463
O O7 0.627634 0.089663 0.770786
O O8 0.884848 0.085009 0.856652
O O9 0.201934 0.305955 0.769441
O O10 0.371485 0.369254 0.720065
O O11 0.358997 0.418907 0.057216
O O12 0.487083 0.528481 0.163369
O O13 0.500000 0.500000 0.000000
O O14 0.277954 0.704780 0.603286
O O15 0.000000 0.775615 0.250000
#
# Coordination Sequence:
#
# PCOD9259847 Si02
#       8
#     8   8   8   4   8   8   8   4
#     4  10  19  34  54  84 110 145 192 234 286 350
#     4  10  19  37  52  81 117 147 192 239 279 351
#     4   9  18  36  59  76 111 153 190 227 287 348
#     4  10  18  36  58  74 114 158 192 234 284 352
#     4  11  21  35  56  87 120 147 192 242 297 343
#     4  12  22  33  58  90 119 144 192 252 300 335
#     4  10  19  36  58  82 111 150 189 240 290 343
#     4  10  20  40  58  82 116 152 196 240 282 362
#
# _framework density 19.356180999999999
#
# number of rings (size 3 to 8) (size 9 to 14) (size 15 to 20)
#    0.000    1.714    6.429    2.143    2.000    2.286 
#    2.571    0.714    0.000    0.857    0.000    0.000 
#    0.000    0.000    0.000    0.000    0.000    0.000 
#
# Total GULP energy -156135.048453 kJ/mol
# GULP energy per Si atom -5576.251730 kJ/mol
# Density = 1.931213 g / cm^3
# Si number density = 19.356181 Si / 1000 Ang^3
#
#
#
# Elastic Constant Matrix: (Units=GPa)
#
#
# Indices 1 2 3 4 5 6 
#
# 1 164.8259 12.9105 25.2339 0.0000 14.3519 0.0000
# 2 12.9105 25.4495 1.9314 0.0000 -1.7315 0.0000
# 3 25.2339 1.9314 89.4051 0.0000 6.3547 0.0000
# 4 0.0000 0.0000 0.0000 14.7111 0.0000 -3.3387
# 5 14.3519 -1.7315 6.3547 0.0000 36.7028 0.0000
# 6 0.0000 0.0000 0.0000 -3.3387 0.0000 12.9352
#
#
#
# Elastic Compliance Matrix: (Units=1/GPa)
#
#
# Indices 1 2 3 4 5 6 
#
# 1 0.006818 -0.003505 -0.001668 0.000000 -0.002543 0.000000
# 2 -0.003505 0.041310 -0.000141 0.000000 0.003344 0.000000
# 3 -0.001668 -0.000141 0.011758 0.000000 -0.001390 0.000000
# 4 0.000000 0.000000 0.000000 0.072206 0.000000 0.018637
# 5 -0.002543 0.003344 -0.001390 0.000000 0.028639 0.000000
# 6 0.000000 0.000000 0.000000 0.018637 0.000000 0.082119
#
#
# Mechanical properties :
#
#
# Convention : Reuss Voigt Hill
#
# Bulk Modulus (GPa) = 20.30134 39.98135 30.14134
# Shear Modulus (GPa) = 18.52564 28.84346 23.68455
#
# Velocity S-wave (km/s) = 3.09705 3.86442 3.50182
# Velocity P-wave (km/s) = 4.82701 6.37276 5.65297
#
# Compressibility (1/GPa) = 0.04925784
#
# Stress axis : x y z
#
# Youngs Moduli (GPa) = 146.66338 24.20724 85.05095
#
# Poissons Ratio (x) = 0.08485 0.14186
# Poissons Ratio (y) = 0.51411 0.01197
# Poissons Ratio (z) = 0.24463 0.00341
#
# Static dielectric constant tensor:
#      x y z
#    x 1.713310 0.000000 0.038480 
#    y 0.000000 1.702850 0.000000 
#    z 0.038480 0.000000 1.717040 
# 
# From -- ./inp_files/146187.got.cif
#   From: 2010.05.17/outbox.cif.g08.bks.cpg/sg15_74_cif.got.tgz:146187.got - 2010.06.03 18:47:42.
