data_PCOD9259783
_publ_section_title
;
Structure prediction by ZEFSAII (Michael W. Deem and Ramdas Pophale) SiO2 
 PCOD9259783
Probable space group: C 2/C
;
_chemical_formula_sum "Si O2"
_cell_formula_units_Z 56
_cell_length_a 15.406551
_cell_length_b 11.194940
_cell_length_c 18.852241
_cell_angle_alpha 90.000000
_cell_angle_beta 120.294586
_cell_angle_gamma 90.000000
_cell_volume 2807.527140
_symmetry_space_group_name_H-M "C 2/C"
_symmetry_group_IT_number 15
_symmetry_cell_setting 'monoclinic'
loop_
_space_group_symop_operation_xyz
x,y,z
-x,y,1/2-z
-x,-y,-z
x,-y,1/2+z
1/2+x,1/2+y,z
1/2-x,1/2+y,1/2-z
1/2-x,1/2-y,-z
1/2+x,1/2-y,1/2+z
loop_
_atom_site_type_symbol
_atom_site_label
_atom_site_fract_x
_atom_site_fract_y
_atom_site_fract_z
Si Si1 0.045951 0.316141 0.377071
Si Si2 0.266357 0.611384 0.522886
Si Si3 0.000000 0.889496 0.750000
Si Si4 0.000000 0.306027 0.750000
Si Si5 0.639385 0.395758 0.291136
Si Si6 0.106532 0.562797 0.033600
Si Si7 0.162114 0.534037 0.694694
Si Si8 0.329394 0.981576 0.642973
O O1 0.090882 0.324267 0.475537
O O2 0.123149 0.394048 0.362208
O O3 0.033014 0.193830 0.329355
O O4 0.939313 0.387429 0.337121
O O5 0.250000 0.750000 0.500000
O O6 0.350056 0.608290 0.618451
O O7 0.176318 0.534112 0.521798
O O8 0.265333 0.552670 0.444479
O O9 0.086834 0.977477 0.757342
O O10 0.071487 0.214104 0.738004
O O11 0.076584 0.388476 0.825925
O O12 0.748093 0.388304 0.300990
O O13 0.146983 0.570808 0.130165
O O14 0.000000 0.500000 0.000000
O O15 0.192350 0.484780 0.783206
#
# Coordination Sequence:
#
# PCOD9259783 Si02
#       8
#     8   8   4   4   8   8   8   8
#     4  10  18  36  59  81 109 158 185 224 280 345
#     4  10  19  36  57  83 112 146 187 235 285 333
#     4  11  21  40  58  74 123 159 186 216 298 355
#     4  11  19  36  58  82 111 149 188 232 284 333
#     4  10  24  36  55  85 116 150 184 236 290 338
#     4   8  18  31  54  82 111 136 187 233 276 323
#     4  10  18  36  55  88 111 136 199 238 273 327
#     4  11  19  34  65  86 106 146 200 235 274 338
#
# _framework density 19.946379
#
# number of rings (size 3 to 8) (size 9 to 14) (size 15 to 20)
#    0.000    2.000    4.286    0.000    0.000    1.143 
#    2.571    6.429    0.000    1.714    0.000    0.000 
#    0.000    0.000    0.000    0.000    0.000    0.000 
#
# Total GULP energy -155868.693973 kJ/mol
# GULP energy per Si atom -5566.739070 kJ/mol
# Density = 1.990098 g / cm^3
# Si number density = 19.946379 Si / 1000 Ang^3
#
#
#
# Elastic Constant Matrix: (Units=GPa)
#
#
# Indices 1 2 3 4 5 6 
#
# 1 20.4435 -17.5655 8.7778 0.0000 -7.8217 0.0000
# 2 -17.5655 64.0706 5.3519 0.0000 -4.6703 0.0000
# 3 8.7778 5.3519 96.6979 0.0000 -29.7145 0.0000
# 4 0.0000 0.0000 0.0000 31.4902 0.0000 8.9944
# 5 -7.8217 -4.6703 -29.7145 0.0000 27.3979 0.0000
# 6 0.0000 0.0000 0.0000 8.9944 0.0000 5.4247
#
#
#
# Elastic Compliance Matrix: (Units=1/GPa)
#
#
# Indices 1 2 3 4 5 6 
#
# 1 0.079595 0.023776 -0.000470 0.000000 0.026267 0.000000
# 2 0.023776 0.022906 -0.000211 0.000000 0.010464 0.000000
# 3 -0.000470 -0.000211 0.015514 0.000000 0.016656 0.000000
# 4 0.000000 0.000000 0.000000 0.060324 0.000000 -0.100020
# 5 0.026267 0.010464 0.016656 0.000000 0.063846 0.000000
# 6 0.000000 0.000000 0.000000 -0.100020 0.000000 0.350180
#
#
# Mechanical properties :
#
#
# Convention : Reuss Voigt Hill
#
# Bulk Modulus (GPa) = 6.08991 19.37116 12.73053
# Shear Modulus (GPa) = 8.32071 25.17239 16.74655
#
# Velocity S-wave (km/s) = 2.04465 3.55632 2.90069
# Velocity P-wave (km/s) = 2.93835 5.15712 4.19701
#
# Compressibility (1/GPa) = 0.16420616
#
# Stress axis : x y z
#
# Youngs Moduli (GPa) = 12.56356 43.65592 64.45818
#
# Poissons Ratio (x) = -1.03795 0.03028
# Poissons Ratio (y) = -0.29871 0.01357
# Poissons Ratio (z) = 0.00590 0.00919
#
# Static dielectric constant tensor:
#      x y z
#    x 1.704260 0.000000 -0.004920 
#    y 0.000000 1.705060 0.000000 
#    z -0.004920 0.000000 1.770800 
# 
# From -- ./inp_files/248207.got.cif
#   From: 2010.05.17/outbox.cif.g08.bks.cpg/sg15_125_cif.got.tgz:248207.got - 2010.06.03 18:47:42.
