data_PCOD9259311
_publ_section_title
;
Structure prediction by ZEFSAII (Michael W. Deem and Ramdas Pophale) SiO2 
 PCOD9259311
Probable space group: C 2/C
;
_chemical_formula_sum "Si O2"
_cell_formula_units_Z 52
_cell_length_a 17.202266
_cell_length_b 18.837525
_cell_length_c 8.316018
_cell_angle_alpha 90.000000
_cell_angle_beta 122.232412
_cell_angle_gamma 90.000000
_cell_volume 2279.500153
_symmetry_space_group_name_H-M "C 2/C"
_symmetry_group_IT_number 15
_symmetry_cell_setting 'monoclinic'
loop_
_space_group_symop_operation_xyz
x,y,z
-x,y,1/2-z
-x,-y,-z
x,-y,1/2+z
1/2+x,1/2+y,z
1/2-x,1/2+y,1/2-z
1/2-x,1/2-y,-z
1/2+x,1/2-y,1/2+z
loop_
_atom_site_type_symbol
_atom_site_label
_atom_site_fract_x
_atom_site_fract_y
_atom_site_fract_z
Si Si1 0.365811 0.191311 0.220781
Si Si2 0.500000 0.714323 0.750000
Si Si3 0.193833 0.744923 0.703237
Si Si4 0.408620 0.572199 0.569714
Si Si5 0.724489 0.093915 0.847918
Si Si6 0.202161 0.453920 0.958552
Si Si7 0.403848 0.626062 0.225080
O O1 0.462628 0.232406 0.346217
O O2 0.293006 0.221575 0.267246
O O3 0.339331 0.216802 0.009267
O O4 0.358025 0.106100 0.199406
O O5 0.420529 0.655310 0.635427
O O6 0.194596 0.675287 0.814543
O O7 0.137963 0.804565 0.735757
O O8 0.500000 0.538241 0.750000
O O9 0.306551 0.552134 0.507500
O O10 0.414664 0.571264 0.384651
O O11 0.709003 0.065386 0.651988
O O12 0.831377 0.097953 0.015570
O O13 0.675483 0.035848 0.905625
O O14 0.500000 0.640995 0.250000
#
# Coordination Sequence:
#
# PCOD9259311 Si02
#       7
#     8   4   8   8   8   8   8
#     4  10  19  36  71  89 119 162 208 265 298 375
#     4  10  18  34  66  98 112 152 210 256 308 354
#     4  10  20  40  63  93 120 161 213 250 313 359
#     4  10  20  37  61  88 125 154 201 253 306 366
#     4  11  25  38  62  89 124 172 204 255 305 382
#     4  11  22  42  61  88 128 168 210 246 321 370
#     4  12  23  38  60  97 128 158 203 261 311 363
#
# _framework density 22.812017999999998
#
# number of rings (size 3 to 8) (size 9 to 14) (size 15 to 20)
#    0.462    0.923    3.077    4.154    2.154    0.615 
#    0.000    3.077    1.692    1.846    0.000    0.000 
#    0.000    0.000    0.000    0.000    0.000    0.000 
#
# Total GULP energy -145095.782108 kJ/mol
# GULP energy per Si atom -5580.607004 kJ/mol
# Density = 2.276010 g / cm^3
# Si number density = 22.812018 Si / 1000 Ang^3
#
#
#
# Elastic Constant Matrix: (Units=GPa)
#
#
# Indices 1 2 3 4 5 6 
#
# 1 46.6556 1.5841 -4.0686 0.0000 -12.0287 0.0000
# 2 1.5841 128.0047 26.5347 0.0000 2.0073 0.0000
# 3 -4.0686 26.5347 50.8924 0.0000 -13.9109 0.0000
# 4 0.0000 0.0000 0.0000 5.5785 0.0000 -34.5657
# 5 -12.0287 2.0073 -13.9109 0.0000 18.8156 0.0000
# 6 0.0000 0.0000 0.0000 -34.5657 0.0000 -4.3321
#
#
#
# Elastic Compliance Matrix: (Units=1/GPa)
#
#
# Indices 1 2 3 4 5 6 
#
# 1 0.029813 -0.003247 0.011756 0.000000 0.028097 0.000000
# 2 -0.003247 0.009574 -0.007642 0.000000 -0.008747 0.000000
# 3 0.011756 -0.007642 0.033651 0.000000 0.033210 0.000000
# 4 0.000000 0.000000 0.000000 0.003554 0.000000 -0.028357
# 5 0.028097 -0.008747 0.033210 0.000000 0.096596 0.000000
# 6 0.000000 0.000000 0.000000 -0.028357 0.000000 -0.004576
#
#
# Mechanical properties :
#
#
# Convention : Reuss Voigt Hill
#
# Bulk Modulus (GPa) = 13.37375 30.40591 21.88983
# Shear Modulus (GPa) = 26.06874 17.44589 21.75731
#
# Velocity S-wave (km/s) = 3.38415 2.76844 3.09166
# Velocity P-wave (km/s) = 4.59840 4.85560 4.72875
#
# Compressibility (1/GPa) = 0.07477333
#
# Stress axis : x y z
#
# Youngs Moduli (GPa) = 33.54227 104.45306 29.71669
#
# Poissons Ratio (x) = 0.33911 -0.34935
# Poissons Ratio (y) = 0.10890 0.22709
# Poissons Ratio (z) = -0.39433 0.79822
#
# Static dielectric constant tensor:
#      x y z
#    x 1.848900 0.000000 0.088800 
#    y 0.000000 1.962060 0.000000 
#    z 0.088800 0.000000 1.981600 
# 
# From -- ./inp_files/48664.got.cif
#   From: 2010.05.17/outbox.cif.g08.bks.cpg/sg15_25_cif.got.tgz:48664.got - 2010.06.03 18:47:42.
