data_PCOD9259026
_publ_section_title
;
Structure prediction by ZEFSAII (Michael W. Deem and Ramdas Pophale) SiO2 
 PCOD9259026
Probable space group: C 2/C
;
_chemical_formula_sum "Si O2"
_cell_formula_units_Z 52
_cell_length_a 23.858833
_cell_length_b 10.839318
_cell_length_c 13.605886
_cell_angle_alpha 90.000000
_cell_angle_beta 33.513290
_cell_angle_gamma 90.000000
_cell_volume 1942.762168
_symmetry_space_group_name_H-M "C 2/C"
_symmetry_group_IT_number 15
_symmetry_cell_setting 'monoclinic'
loop_
_space_group_symop_operation_xyz
x,y,z
-x,y,1/2-z
-x,-y,-z
x,-y,1/2+z
1/2+x,1/2+y,z
1/2-x,1/2+y,1/2-z
1/2-x,1/2-y,-z
1/2+x,1/2-y,1/2+z
loop_
_atom_site_type_symbol
_atom_site_label
_atom_site_fract_x
_atom_site_fract_y
_atom_site_fract_z
Si Si1 0.773910 0.975099 0.357346
Si Si2 0.076335 0.022372 0.527157
Si Si3 0.135077 0.109379 0.119369
Si Si4 0.628632 0.997136 0.890043
Si Si5 0.000000 0.247304 0.750000
Si Si6 0.372970 0.221607 0.246882
Si Si7 0.949369 0.322919 0.142274
O O1 0.770318 0.064048 0.455930
O O2 0.684555 0.986441 0.410312
O O3 0.797752 0.837185 0.359403
O O4 0.870134 0.024734 0.154378
O O5 0.140275 0.922338 0.497709
O O6 0.960673 0.976643 0.706987
O O7 0.074828 0.155937 0.580066
O O8 0.101992 0.245491 0.197505
O O9 0.670323 0.893740 0.752179
O O10 0.620310 0.123685 0.842289
O O11 0.516518 0.940749 0.076445
O O12 0.070940 0.307309 0.731294
O O13 0.466266 0.260518 0.037337
#
# Coordination Sequence:
#
# PCOD9259026 Si02
#       7
#     8   8   8   8   4   8   8
#     4  12  20  36  62  92 118 151 196 265 297 347
#     4  10  19  33  56  95 116 145 199 253 297 355
#     4  10  19  34  62  86 115 154 202 241 301 356
#     4   9  23  37  59  87 119 158 201 234 314 365
#     4  10  18  34  58  86 118 148 200 244 284 372
#     4  10  19  38  61  84 115 155 203 239 299 351
#     4   9  19  41  60  78 115 165 196 232 296 381
#
# _framework density 26.766013999999998
#
# number of rings (size 3 to 8) (size 9 to 14) (size 15 to 20)
#    0.923    1.231    4.615    1.385    2.154    0.000 
#    0.000    4.615    3.385    0.000    0.000    0.000 
#    0.000    0.000    0.000    0.000    0.000    0.000 
#
# Total GULP energy -145454.463222 kJ/mol
# GULP energy per Si atom -5594.402432 kJ/mol
# Density = 2.670509 g / cm^3
# Si number density = 26.766014 Si / 1000 Ang^3
#
#
#
# Elastic Constant Matrix: (Units=GPa)
#
#
# Indices 1 2 3 4 5 6 
#
# 1 221.0997 39.8414 16.9912 0.0000 11.3717 0.0000
# 2 39.8414 94.7896 25.9182 0.0000 10.9709 0.0000
# 3 16.9912 25.9182 57.9588 0.0000 13.0792 0.0000
# 4 0.0000 0.0000 0.0000 25.9671 0.0000 8.0418
# 5 11.3717 10.9709 13.0792 0.0000 37.9326 0.0000
# 6 0.0000 0.0000 0.0000 8.0418 0.0000 41.0322
#
#
#
# Elastic Compliance Matrix: (Units=1/GPa)
#
#
# Indices 1 2 3 4 5 6 
#
# 1 0.004933 -0.001863 -0.000435 0.000000 -0.000790 0.000000
# 2 -0.001863 0.012832 -0.004859 0.000000 -0.001478 0.000000
# 3 -0.000435 -0.004859 0.020828 0.000000 -0.005646 0.000000
# 4 0.000000 0.000000 0.000000 0.040999 0.000000 -0.008035
# 5 -0.000790 -0.001478 -0.005646 0.000000 0.028973 0.000000
# 6 0.000000 0.000000 0.000000 -0.008035 0.000000 0.025946
#
#
# Mechanical properties :
#
#
# Convention : Reuss Voigt Hill
#
# Bulk Modulus (GPa) = 41.18631 59.92774 50.55702
# Shear Modulus (GPa) = 31.86397 40.39285 36.12841
#
# Velocity S-wave (km/s) = 3.45405 3.88894 3.67793
# Velocity P-wave (km/s) = 5.59716 6.52712 6.07995
#
# Compressibility (1/GPa) = 0.02427991
#
# Stress axis : x y z
#
# Youngs Moduli (GPa) = 202.73364 77.92868 48.01245
#
# Poissons Ratio (x) = 0.14518 0.02087
# Poissons Ratio (y) = 0.37768 0.23328
# Poissons Ratio (z) = 0.08812 0.37864
#
# Static dielectric constant tensor:
#      x y z
#    x 2.107670 0.000000 -0.077680 
#    y 0.000000 2.061430 0.000000 
#    z -0.077680 0.000000 2.133590 
# 
# From -- ./inp_files/172925.got.cif
#   From: 2010.05.17/outbox.cif.g08.bks.cpg/sg15_87_cif.got.tgz:172925.got - 2010.06.03 18:47:42.
