data_PCOD9259572
_publ_section_title
;
Structure prediction by ZEFSAII (Michael W. Deem and Ramdas Pophale) SiO2 
 PCOD9259572
Probable space group: C 2/C
;
_chemical_formula_sum "Si O2"
_cell_formula_units_Z 44
_cell_length_a 12.651172
_cell_length_b 25.118566
_cell_length_c 8.665892
_cell_angle_alpha 90.000000
_cell_angle_beta 133.471271
_cell_angle_gamma 90.000000
_cell_volume 1998.515986
_symmetry_space_group_name_H-M "C 2/C"
_symmetry_group_IT_number 15
_symmetry_cell_setting 'monoclinic'
loop_
_space_group_symop_operation_xyz
x,y,z
-x,y,1/2-z
-x,-y,-z
x,-y,1/2+z
1/2+x,1/2+y,z
1/2-x,1/2+y,1/2-z
1/2-x,1/2-y,-z
1/2+x,1/2-y,1/2+z
loop_
_atom_site_type_symbol
_atom_site_label
_atom_site_fract_x
_atom_site_fract_y
_atom_site_fract_z
Si Si1 0.685912 0.571411 0.699410
Si Si2 0.000000 0.903271 0.750000
Si Si3 0.000000 0.729147 0.250000
Si Si4 0.186648 0.114299 0.157657
Si Si5 0.500000 0.535177 0.750000
Si Si6 0.491915 0.940524 0.929231
Si Si7 0.209276 0.181288 0.882513
O O1 0.601518 0.559655 0.457393
O O2 0.638706 0.525715 0.772728
O O3 0.650938 0.631076 0.727829
O O4 0.856134 0.579493 0.851495
O O5 0.893025 0.873904 0.760724
O O6 0.105198 0.768049 0.256901
O O7 0.119353 0.694856 0.463809
O O8 0.348161 0.090410 0.337278
O O9 0.195332 0.163064 0.047408
O O10 0.092827 0.069626 0.971544
O O11 0.500000 0.938158 0.750000
O O12 0.500000 0.000000 0.000000
#
# Coordination Sequence:
#
# PCOD9259572 Si02
#       7
#     8   4   4   8   4   8   8
#     4  10  20  39  62  83 122 165 201 243 308 352
#     4  10  22  36  61  91 110 160 218 231 272 388
#     4  10  19  28  60 101 112 138 216 257 282 360
#     4  10  20  39  62  83 122 165 201 243 308 352
#     4   8  15  34  61  78 100 158 204 236 290 348
#     4  12  25  41  62  88 122 158 200 259 305 354
#     4  10  18  35  60  88 120 156 195 256 299 349
#
# _framework density 22.016335000000002
#
# number of rings (size 3 to 8) (size 9 to 14) (size 15 to 20)
#    0.000    1.818    3.636    4.364    2.545    0.000 
#    0.000    5.455    0.000   17.455    0.000    0.000 
#    0.000    0.000    0.000    0.000    0.000    0.000 
#
# Total GULP energy -122529.737891 kJ/mol
# GULP energy per Si atom -5569.533541 kJ/mol
# Density = 2.196622 g / cm^3
# Si number density = 22.016335 Si / 1000 Ang^3
#
#
#
# Elastic Constant Matrix: (Units=GPa)
#
#
# Indices 1 2 3 4 5 6 
#
# 1 134.7658 17.6936 51.1114 0.0000 11.6584 0.0000
# 2 17.6936 45.3594 -13.6896 0.0000 -6.3792 0.0000
# 3 51.1114 -13.6896 85.5266 0.0000 11.4518 0.0000
# 4 0.0000 0.0000 0.0000 1.0316 0.0000 5.5845
# 5 11.6584 -6.3792 11.4518 0.0000 46.9361 0.0000
# 6 0.0000 0.0000 0.0000 5.5845 0.0000 29.1504
#
#
#
# Elastic Compliance Matrix: (Units=1/GPa)
#
#
# Indices 1 2 3 4 5 6 
#
# 1 0.011436 -0.007056 -0.007706 0.000000 -0.001919 0.000000
# 2 -0.007056 0.027766 0.008189 0.000000 0.003529 0.000000
# 3 -0.007706 0.008189 0.017784 0.000000 -0.001312 0.000000
# 4 0.000000 0.000000 0.000000-26.119593 0.000000 5.003852
# 5 -0.001919 0.003529 -0.001312 0.000000 0.022582 0.000000
# 6 0.000000 0.000000 0.000000 5.003852 0.000000 -0.924306
#
#
# Mechanical properties :
#
#
# Convention : Reuss Voigt Hill
#
# Bulk Modulus (GPa) = 22.81131 41.76473 32.28802
# Shear Modulus (GPa) = -0.18562 29.45936 14.63687
#
# Velocity S-wave (km/s) = -0.29068 3.66193 2.58121
# Velocity P-wave (km/s) = 3.20483 6.07377 4.85601
#
# Compressibility (1/GPa) = 0.04383791
#
# Stress axis : x y z
#
# Youngs Moduli (GPa) = 87.44693 36.01480 56.23009
#
# Poissons Ratio (x) = 0.25414 0.43333
# Poissons Ratio (y) = 0.61706 -0.46046
# Poissons Ratio (z) = 0.67390 -0.29492
#
# Static dielectric constant tensor:
#      x y z
#    x 2.019100 0.000000 0.093720 
#    y 0.000000 2.315550 0.000000 
#    z 0.093720 0.000000 1.921050 
# 
# From -- ./inp_files/34516.got.cif
#   From: 2010.05.17/outbox.cif.g08.bks.cpg/sg15_18_cif.got.tgz:34516.got - 2010.06.03 18:47:42.
