data_PCOD9259776
_publ_section_title
;
Structure prediction by ZEFSAII (Michael W. Deem and Ramdas Pophale) SiO2 
 PCOD9259776
Probable space group: C 2/C
;
_chemical_formula_sum "Si O2"
_cell_formula_units_Z 56
_cell_length_a 10.909153
_cell_length_b 26.557122
_cell_length_c 14.063952
_cell_angle_alpha 90.000000
_cell_angle_beta 42.044773
_cell_angle_gamma 90.000000
_cell_volume 2728.769979
_symmetry_space_group_name_H-M "C 2/C"
_symmetry_group_IT_number 15
_symmetry_cell_setting 'monoclinic'
loop_
_space_group_symop_operation_xyz
x,y,z
-x,y,1/2-z
-x,-y,-z
x,-y,1/2+z
1/2+x,1/2+y,z
1/2-x,1/2+y,1/2-z
1/2-x,1/2-y,-z
1/2+x,1/2-y,1/2+z
loop_
_atom_site_type_symbol
_atom_site_label
_atom_site_fract_x
_atom_site_fract_y
_atom_site_fract_z
Si Si1 0.580575 0.318403 0.599797
Si Si2 0.522537 0.793618 0.123672
Si Si3 0.243351 0.631212 0.814741
Si Si4 0.149882 0.101167 0.540268
Si Si5 0.068058 0.445773 0.998949
Si Si6 0.176306 0.091838 0.319221
Si Si7 0.901998 0.982220 0.907069
O O1 0.500000 0.312848 0.750000
O O2 0.559889 0.263070 0.564499
O O3 0.463010 0.362807 0.623361
O O4 0.795277 0.327147 0.491777
O O5 0.500000 0.791731 0.250000
O O6 0.352852 0.818984 0.169165
O O7 0.443193 0.622750 0.655504
O O8 0.262042 0.627536 0.918578
O O9 0.107147 0.585662 0.868343
O O10 0.250505 0.104036 0.381268
O O11 0.129348 0.041567 0.571014
O O12 0.174694 0.418291 0.849275
O O13 0.207739 0.455063 0.005381
O O14 0.000000 0.500000 0.000000
O O15 0.043185 0.042671 0.399142
O O16 0.000000 0.971751 0.750000
#
# Coordination Sequence:
#
# PCOD9259776 Si02
#       7
#     8   8   8   8   8   8   8
#     4  10  20  39  60  91 118 146 192 260 313 353
#     4  10  21  37  64  90 116 148 202 254 304 363
#     4  11  21  38  58  81 120 161 191 245 306 349
#     4  11  22  38  54  81 123 159 200 237 293 366
#     4  11  21  37  58  82 116 153 201 250 305 358
#     4  11  22  35  60  85 114 157 202 240 301 366
#     4  10  18  36  55  79 111 153 191 241 293 348
#
# _framework density 20.522068000000001
#
# number of rings (size 3 to 8) (size 9 to 14) (size 15 to 20)
#    0.000    1.429    2.857    5.143    0.000    0.571 
#    0.000    2.143    0.000    1.714    0.000    0.000 
#    0.000    0.000    0.000    0.000    0.000    0.000 
#
# Total GULP energy -156272.375952 kJ/mol
# GULP energy per Si atom -5581.156284 kJ/mol
# Density = 2.047536 g / cm^3
# Si number density = 20.522068 Si / 1000 Ang^3
#
#
#
# Elastic Constant Matrix: (Units=GPa)
#
#
# Indices 1 2 3 4 5 6 
#
# 1 74.1267 24.7754 21.3851 0.0000 -3.8956 0.0000
# 2 24.7754 84.4087 2.2457 0.0000 -6.3278 0.0000
# 3 21.3851 2.2457 52.3832 0.0000 -2.9628 0.0000
# 4 0.0000 0.0000 0.0000 24.5947 0.0000 -7.3674
# 5 -3.8956 -6.3278 -2.9628 0.0000 34.6428 0.0000
# 6 0.0000 0.0000 0.0000 -7.3674 0.0000 30.7315
#
#
#
# Elastic Compliance Matrix: (Units=1/GPa)
#
#
# Indices 1 2 3 4 5 6 
#
# 1 0.017059 -0.004793 -0.006732 0.000000 0.000467 0.000000
# 2 -0.004793 0.013366 0.001499 0.000000 0.002031 0.000000
# 3 -0.006732 0.001499 0.021853 0.000000 0.001386 0.000000
# 4 0.000000 0.000000 0.000000 0.043805 0.000000 0.010502
# 5 0.000467 0.002031 0.001386 0.000000 0.029408 0.000000
# 6 0.000000 0.000000 0.000000 0.010502 0.000000 0.035057
#
#
# Mechanical properties :
#
#
# Convention : Reuss Voigt Hill
#
# Bulk Modulus (GPa) = 31.03235 34.19232 32.61234
# Shear Modulus (GPa) = 26.13097 28.82797 27.47947
#
# Velocity S-wave (km/s) = 3.57222 3.75204 3.66323
# Velocity P-wave (km/s) = 5.67174 5.95549 5.81534
#
# Compressibility (1/GPa) = 0.03222444
#
# Stress axis : x y z
#
# Youngs Moduli (GPa) = 58.61932 74.81487 45.76093
#
# Poissons Ratio (x) = 0.35859 0.30808
# Poissons Ratio (y) = 0.28097 -0.06858
# Poissons Ratio (z) = 0.39465 -0.11212
#
# Static dielectric constant tensor:
#      x y z
#    x 1.769580 0.000000 0.006710 
#    y 0.000000 1.759530 0.000000 
#    z 0.006710 0.000000 1.722250 
# 
# From -- ./inp_files/148529.got.cif
#   From: 2010.05.17/outbox.cif.g08.bks.cpg/sg15_75_cif.got.tgz:148529.got - 2010.06.03 18:47:42.
