data_PCOD9259981
_publ_section_title
;
Structure prediction by ZEFSAII (Michael W. Deem and Ramdas Pophale) SiO2 
 PCOD9259981
Probable space group: C 2/C
;
_chemical_formula_sum "Si O2"
_cell_formula_units_Z 52
_cell_length_a 8.609458
_cell_length_b 17.768684
_cell_length_c 17.070506
_cell_angle_alpha 90.000000
_cell_angle_beta 124.127787
_cell_angle_gamma 90.000000
_cell_volume 2161.706736
_symmetry_space_group_name_H-M "C 2/C"
_symmetry_group_IT_number 15
_symmetry_cell_setting 'monoclinic'
loop_
_space_group_symop_operation_xyz
x,y,z
-x,y,1/2-z
-x,-y,-z
x,-y,1/2+z
1/2+x,1/2+y,z
1/2-x,1/2+y,1/2-z
1/2-x,1/2-y,-z
1/2+x,1/2-y,1/2+z
loop_
_atom_site_type_symbol
_atom_site_label
_atom_site_fract_x
_atom_site_fract_y
_atom_site_fract_z
Si Si1 0.625226 0.935509 0.412443
Si Si2 0.586640 0.914518 0.686674
Si Si3 0.000000 0.908941 0.750000
Si Si4 0.607089 0.481930 0.411621
Si Si5 0.714364 0.368152 0.191795
Si Si6 0.935479 0.737753 0.139724
Si Si7 0.645856 0.850219 0.088408
O O1 0.814743 0.979297 0.488703
O O2 0.652200 0.884337 0.343629
O O3 0.566222 0.878019 0.464769
O O4 0.470549 0.002938 0.362461
O O5 0.500000 0.921434 0.750000
O O6 0.804441 0.884508 0.741742
O O7 0.466797 0.845490 0.616641
O O8 0.893654 0.954752 0.653752
O O9 0.404869 0.444836 0.344818
O O10 0.742357 0.414486 0.425254
O O11 0.574503 0.297939 0.138921
O O12 0.790199 0.356198 0.301147
O O13 0.724836 0.770810 0.081076
O O14 0.000000 0.736433 0.250000
#
# Coordination Sequence:
#
# PCOD9259981 Si02
#       7
#     8   8   4   8   8   8   8
#     4  12  22  33  64  97 123 151 218 264 308 364
#     4  11  23  41  62  98 126 163 209 263 311 371
#     4  12  22  40  68  84 132 162 208 260 324 364
#     4  11  20  36  59  93 121 165 203 262 317 368
#     4  10  19  37  60  89 121 164 209 256 303 379
#     4   8  19  39  60  82 125 163 206 239 311 374
#     4  10  18  36  60  84 121 165 203 248 306 380
#
# _framework density 24.055067000000001
#
# number of rings (size 3 to 8) (size 9 to 14) (size 15 to 20)
#    0.000    1.538    3.077    4.154    0.000    0.000 
#    8.308    3.077    0.000    4.615    0.000    0.000 
#    0.000    0.000    0.000    0.000    0.000    0.000 
#
# Total GULP energy -144834.851790 kJ/mol
# GULP energy per Si atom -5570.571223 kJ/mol
# Density = 2.400032 g / cm^3
# Si number density = 24.055067 Si / 1000 Ang^3
#
#
#
# Elastic Constant Matrix: (Units=GPa)
#
#
# Indices 1 2 3 4 5 6 
#
# 1 116.4307 34.0999 18.7508 0.0000 -0.3652 0.0000
# 2 34.0999 103.3745 10.6847 0.0000 -4.0001 0.0000
# 3 18.7508 10.6847 68.4281 0.0000 3.4845 0.0000
# 4 0.0000 0.0000 0.0000 27.9861 0.0000 -0.1257
# 5 -0.3652 -4.0001 3.4845 0.0000 28.8224 0.0000
# 6 0.0000 0.0000 0.0000 -0.1257 0.0000 12.2974
#
#
#
# Elastic Compliance Matrix: (Units=1/GPa)
#
#
# Indices 1 2 3 4 5 6 
#
# 1 0.009829 -0.003014 -0.002222 0.000000 -0.000025 0.000000
# 2 -0.003014 0.010826 -0.000945 0.000000 0.001579 0.000000
# 3 -0.002222 -0.000945 0.015474 0.000000 -0.002030 0.000000
# 4 0.000000 0.000000 0.000000 0.035734 0.000000 0.000365
# 5 -0.000025 0.001579 -0.002030 0.000000 0.035159 0.000000
# 6 0.000000 0.000000 0.000000 0.000365 0.000000 0.081322
#
#
# Mechanical properties :
#
#
# Convention : Reuss Voigt Hill
#
# Bulk Modulus (GPa) = 42.07235 46.14491 44.10863
# Shear Modulus (GPa) = 23.96619 28.80104 26.38361
#
# Velocity S-wave (km/s) = 3.15985 3.46395 3.31539
# Velocity P-wave (km/s) = 5.55346 5.93492 5.74735
#
# Compressibility (1/GPa) = 0.02376858
#
# Stress axis : x y z
#
# Youngs Moduli (GPa) = 101.73845 92.36647 64.62629
#
# Poissons Ratio (x) = 0.27836 0.14357
# Poissons Ratio (y) = 0.30661 0.06108
# Poissons Ratio (z) = 0.22602 0.08729
#
# Static dielectric constant tensor:
#      x y z
#    x 2.083440 0.000000 0.015930 
#    y 0.000000 1.926770 0.000000 
#    z 0.015930 0.000000 1.995740 
# 
# From -- ./inp_files/190839.got.cif
#   From: 2010.05.17/outbox.cif.g08.bks.cpg/sg15_96_cif.got.tgz:190839.got - 2010.06.03 18:47:42.
