data_PCOD9259335
_publ_section_title
;
Structure prediction by ZEFSAII (Michael W. Deem and Ramdas Pophale) SiO2 
 PCOD9259335
Probable space group: C 2/C
;
_chemical_formula_sum "Si O2"
_cell_formula_units_Z 48
_cell_length_a 16.969054
_cell_length_b 14.755059
_cell_length_c 16.583542
_cell_angle_alpha 90.000000
_cell_angle_beta 153.469533
_cell_angle_gamma 90.000000
_cell_volume 1854.668056
_symmetry_space_group_name_H-M "C 2/C"
_symmetry_group_IT_number 15
_symmetry_cell_setting 'monoclinic'
loop_
_space_group_symop_operation_xyz
x,y,z
-x,y,1/2-z
-x,-y,-z
x,-y,1/2+z
1/2+x,1/2+y,z
1/2-x,1/2+y,1/2-z
1/2-x,1/2-y,-z
1/2+x,1/2-y,1/2+z
loop_
_atom_site_type_symbol
_atom_site_label
_atom_site_fract_x
_atom_site_fract_y
_atom_site_fract_z
Si Si1 0.418630 0.694984 0.377522
Si Si2 0.861990 0.338986 0.004096
Si Si3 0.659714 0.987037 0.238737
Si Si4 0.299647 0.638963 0.746761
Si Si5 0.407492 0.885246 0.590871
Si Si6 0.813531 0.050274 0.036711
O O1 0.287125 0.641573 0.199514
O O2 0.560984 0.741004 0.447520
O O3 0.508759 0.647937 0.537083
O O4 0.308374 0.778959 0.311912
O O5 0.778238 0.358288 0.014350
O O6 0.016938 0.410998 0.133206
O O7 0.721085 0.956450 0.207025
O O8 0.818605 0.966086 0.446168
O O9 0.563151 0.081443 0.171521
O O10 0.251813 0.651156 0.609666
O O11 0.500000 0.833140 0.750000
O O12 0.317035 0.971201 0.551662
O O13 0.000000 0.041258 0.250000
#
# Coordination Sequence:
#
# PCOD9259335 Si02
#       6
#     8   8   8   8   8   8
#     4   9  19  32  51  75 103 135 171 201 237 295
#     4   9  17  33  49  70 104 137 164 202 242 286
#     4   9  18  33  54  76 101 132 163 204 253 297
#     4  10  18  35  53  75 102 131 165 207 248 295
#     4   9  19  35  55  75  98 130 167 207 254 298
#     4  10  19  34  51  75 104 129 164 211 250 295
#
# _framework density 25.880642000000002
#
# number of rings (size 3 to 8) (size 9 to 14) (size 15 to 20)
#    0.000    2.667    0.000    3.000    0.000    0.000 
#    0.000   39.167    0.000    0.000    0.000    0.000 
#    0.000    0.000    0.000    0.000    0.000    0.000 
#
# Total GULP energy -134113.621820 kJ/mol
# GULP energy per Si atom -5588.067576 kJ/mol
# Density = 2.582174 g / cm^3
# Si number density = 25.880642 Si / 1000 Ang^3
#
#
#
# Elastic Constant Matrix: (Units=GPa)
#
#
# Indices 1 2 3 4 5 6 
#
# 1 35.8819 24.4186 18.9660 0.0020 -10.8615 -0.0005
# 2 24.4186 44.4666 -0.3399 0.0032 -3.0650 0.0018
# 3 18.9660 -0.3399 175.5356 0.0032 -18.6648 0.0016
# 4 0.0020 0.0032 0.0032 14.9290 0.0018 0.9468
# 5 -10.8615 -3.0650 -18.6648 0.0018 41.9846 0.0001
# 6 -0.0005 0.0018 0.0016 0.9468 0.0001 16.3805
#
#
#
# Elastic Compliance Matrix: (Units=1/GPa)
#
#
# Indices 1 2 3 4 5 6 
#
# 1 0.052352 -0.028137 -0.004712 -0.000001 0.009395 0.000005
# 2 -0.028137 0.037734 0.002763 -0.000004 -0.003296 -0.000005
# 3 -0.004712 0.002763 0.006406 -0.000001 0.001831 -0.000001
# 4 -0.000001 -0.000004 -0.000001 0.067230 -0.000004 -0.003886
# 5 0.009395 -0.003296 0.001831 -0.000004 0.026822 0.000000
# 6 0.000005 -0.000005 -0.000001 -0.003886 0.000000 0.061273
#
#
# Mechanical properties :
#
#
# Convention : Reuss Voigt Hill
#
# Bulk Modulus (GPa) = 27.53389 37.99706 32.76548
# Shear Modulus (GPa) = 15.42754 28.84812 22.13783
#
# Velocity S-wave (km/s) = 2.44417 3.34227 2.92786
# Velocity P-wave (km/s) = 4.31592 5.44132 4.91096
#
# Compressibility (1/GPa) = 0.03631888
#
# Stress axis : x y z
#
# Youngs Moduli (GPa) = 19.10159 26.50122 156.10484
#
# Poissons Ratio (x) = 0.74567 0.73556
# Poissons Ratio (y) = 0.53746 -0.43127
# Poissons Ratio (z) = 0.09001 -0.07321
#
# Static dielectric constant tensor:
#      x y z
#    x 2.067550 0.000000 -0.017440 
#    y 0.000000 2.025090 0.000000 
#    z -0.017440 0.000000 2.067480 
# 
# From -- ./inp_files/40677.got.cif
#   From: 2010.05.17/outbox.cif.g08.bks.cpg/sg15_21_cif.got.tgz:40677.got - 2010.06.03 18:47:42.
