data_PCOD9259509
_publ_section_title
;
Structure prediction by ZEFSAII (Michael W. Deem and Ramdas Pophale) SiO2 
 PCOD9259509
Probable space group: C 2/C
;
_chemical_formula_sum "Si O2"
_cell_formula_units_Z 56
_cell_length_a 12.015111
_cell_length_b 16.544649
_cell_length_c 13.036373
_cell_angle_alpha 90.000000
_cell_angle_beta 111.855373
_cell_angle_gamma 90.000000
_cell_volume 2405.189453
_symmetry_space_group_name_H-M "C 2/C"
_symmetry_group_IT_number 15
_symmetry_cell_setting 'monoclinic'
loop_
_space_group_symop_operation_xyz
x,y,z
-x,y,1/2-z
-x,-y,-z
x,-y,1/2+z
1/2+x,1/2+y,z
1/2-x,1/2+y,1/2-z
1/2-x,1/2-y,-z
1/2+x,1/2-y,1/2+z
loop_
_atom_site_type_symbol
_atom_site_label
_atom_site_fract_x
_atom_site_fract_y
_atom_site_fract_z
Si Si1 0.896773 0.746473 0.860711
Si Si2 0.763819 0.431526 0.073691
Si Si3 0.883492 0.651996 0.063603
Si Si4 0.000000 0.221271 0.750000
Si Si5 0.670367 0.284943 0.138364
Si Si6 0.634742 0.099286 0.108682
Si Si7 0.687750 0.584160 0.135936
Si Si8 0.500000 0.127507 0.750000
O O1 0.788573 0.731839 0.744904
O O2 0.907525 0.843487 0.877436
O O3 0.996974 0.689761 0.844383
O O4 0.865059 0.703110 0.955395
O O5 0.700656 0.344405 0.057803
O O6 0.668520 0.492436 0.093744
O O7 0.881281 0.425501 0.189002
O O8 0.813226 0.442682 0.975199
O O9 0.912796 0.716757 0.162056
O O10 0.764712 0.611223 0.063413
O O11 0.993952 0.588341 0.088671
O O12 0.073286 0.178658 0.685179
O O13 0.630108 0.196549 0.091011
O O14 0.723640 0.083138 0.234529
#
# Coordination Sequence:
#
# PCOD9259509 Si02
#       8
#     8   8   8   4   8   8   8   4
#     4  10  20  38  59  88 117 156 196 243 282 364
#     4  11  23  37  58  89 118 154 193 250 300 347
#     4  11  18  35  60  84 111 157 193 228 297 349
#     4  10  18  35  59  82 106 148 200 234 262 349
#     4   9  20  37  60  84 112 153 205 235 283 359
#     4  10  20  39  59  81 116 162 189 239 295 362
#     4  11  23  36  57  87 128 146 196 245 304 343
#     4  10  22  37  59  90 120 156 202 236 296 367
#
# _framework density 23.282986999999999
#
# number of rings (size 3 to 8) (size 9 to 14) (size 15 to 20)
#    0.000    1.714    5.714    0.857    2.000    2.857 
#    0.000    0.714    0.000    3.429    0.000    0.000 
#    0.000    0.000    0.000    0.000    0.000    0.000 
#
# Total GULP energy -156174.241188 kJ/mol
# GULP energy per Si atom -5577.651471 kJ/mol
# Density = 2.322999 g / cm^3
# Si number density = 23.282987 Si / 1000 Ang^3
#
#
#
# Elastic Constant Matrix: (Units=GPa)
#
#
# Indices 1 2 3 4 5 6 
#
# 1 32.1859 -4.9692 0.0816 0.0000 -12.8091 0.0000
# 2 -4.9692 62.2485 23.8559 0.0000 -14.4170 0.0000
# 3 0.0816 23.8559 90.1349 0.0000 -17.1919 0.0000
# 4 0.0000 0.0000 0.0000 16.8878 0.0000 -5.4392
# 5 -12.8091 -14.4170 -17.1919 0.0000 31.5314 0.0000
# 6 0.0000 0.0000 0.0000 -5.4392 0.0000 28.0423
#
#
#
# Elastic Compliance Matrix: (Units=1/GPa)
#
#
# Indices 1 2 3 4 5 6 
#
# 1 0.040506 0.007299 0.002016 0.000000 0.020891 0.000000
# 2 0.007299 0.020367 -0.003410 0.000000 0.010418 0.000000
# 3 0.002016 -0.003410 0.013230 0.000000 0.006473 0.000000
# 4 0.000000 0.000000 0.000000 0.063160 0.000000 0.012251
# 5 0.020891 0.010418 0.006473 0.000000 0.048494 0.000000
# 6 0.000000 0.000000 0.000000 0.012251 0.000000 0.038037
#
#
# Mechanical properties :
#
#
# Convention : Reuss Voigt Hill
#
# Bulk Modulus (GPa) = 11.63960 24.72286 18.18123
# Shear Modulus (GPa) = 20.77966 26.33238 23.55602
#
# Velocity S-wave (km/s) = 2.99069 3.36664 3.18422
# Velocity P-wave (km/s) = 4.11529 5.07482 4.62004
#
# Compressibility (1/GPa) = 0.08591357
#
# Stress axis : x y z
#
# Youngs Moduli (GPa) = 24.68800 49.09877 75.58664
#
# Poissons Ratio (x) = -0.35839 -0.15240
# Poissons Ratio (y) = -0.18021 0.25775
# Poissons Ratio (z) = -0.04978 0.16743
#
# Static dielectric constant tensor:
#      x y z
#    x 1.986230 0.000000 -0.037530 
#    y 0.000000 1.966770 0.000000 
#    z -0.037530 0.000000 1.998600 
# 
# From -- ./inp_files/98420.got.cif
#   From: 2010.05.17/outbox.cif.g08.bks.cpg/sg15_50_cif.got.tgz:98420.got - 2010.06.03 18:47:42.
