data_PCOD9259636
_publ_section_title
;
Structure prediction by ZEFSAII (Michael W. Deem and Ramdas Pophale) SiO2 
 PCOD9259636
Probable space group: C 2/C
;
_chemical_formula_sum "Si O2"
_cell_formula_units_Z 40
_cell_length_a 13.081672
_cell_length_b 13.919022
_cell_length_c 8.297096
_cell_angle_alpha 90.000000
_cell_angle_beta 102.928040
_cell_angle_gamma 90.000000
_cell_volume 1472.473849
_symmetry_space_group_name_H-M "C 2/C"
_symmetry_group_IT_number 15
_symmetry_cell_setting 'monoclinic'
loop_
_space_group_symop_operation_xyz
x,y,z
-x,y,1/2-z
-x,-y,-z
x,-y,1/2+z
1/2+x,1/2+y,z
1/2-x,1/2+y,1/2-z
1/2-x,1/2-y,-z
1/2+x,1/2-y,1/2+z
loop_
_atom_site_type_symbol
_atom_site_label
_atom_site_fract_x
_atom_site_fract_y
_atom_site_fract_z
Si Si1 0.849251 0.397771 0.922401
Si Si2 0.392192 0.400723 0.663842
Si Si3 0.365069 0.679959 0.808298
Si Si4 0.628804 0.905680 0.207341
Si Si5 0.632847 0.269748 0.526647
O O1 0.727355 0.436074 0.894781
O O2 0.849569 0.293954 0.840020
O O3 0.896069 0.484860 0.839335
O O4 0.897686 0.386869 0.116583
O O5 0.500000 0.455878 0.750000
O O6 0.412203 0.357696 0.493509
O O7 0.621944 0.326326 0.691148
O O8 0.253116 0.624518 0.757021
O O9 0.411000 0.675426 0.643714
O O10 0.588351 0.834823 0.053074
O O11 0.750000 0.250000 0.500000
#
# Coordination Sequence:
#
# PCOD9259636 Si02
#       5
#     8   8   8   8   8
#     4  11  19  35  58  90 114 154 197 244 283 344
#     4  11  22  38  57  86 125 156 186 240 302 344
#     4  10  20  38  59  84 114 153 203 240 281 345
#     4  10  19  31  59  89 111 145 204 240 281 330
#     4  10  18  35  62  82 108 149 204 239 276 336
#
# _framework density 27.165168000000001
#
# number of rings (size 3 to 8) (size 9 to 14) (size 15 to 20)
#    0.000    1.600    6.000    2.400    2.800    0.800 
#    0.000    4.000    0.000    1.200    0.000    0.000 
#    0.000    0.000    0.000    0.000    0.000    0.000 
#
# Total GULP energy -111646.330686 kJ/mol
# GULP energy per Si atom -5582.316534 kJ/mol
# Density = 2.710334 g / cm^3
# Si number density = 27.165168 Si / 1000 Ang^3
#
#
#
# Elastic Constant Matrix: (Units=GPa)
#
#
# Indices 1 2 3 4 5 6 
#
# 1 101.7002 4.9070 51.0161 0.0000 -0.7353 0.0000
# 2 4.9070 109.8955 51.4228 0.0000 -22.2168 0.0000
# 3 51.0161 51.4228 231.5188 0.0000 -35.6882 0.0000
# 4 0.0000 0.0000 0.0000 25.8649 0.0000 3.3811
# 5 -0.7353 -22.2168 -35.6882 0.0000 45.9274 0.0000
# 6 0.0000 0.0000 0.0000 3.3811 0.0000 5.7383
#
#
#
# Elastic Compliance Matrix: (Units=1/GPa)
#
#
# Indices 1 2 3 4 5 6 
#
# 1 0.011231 0.000469 -0.002859 0.000000 -0.001815 0.000000
# 2 0.000469 0.010724 -0.001914 0.000000 0.003708 0.000000
# 3 -0.002859 -0.001914 0.005936 0.000000 0.003641 0.000000
# 4 0.000000 0.000000 0.000000 0.041889 0.000000 -0.024682
# 5 -0.001815 0.003708 0.003641 0.000000 0.026367 0.000000
# 6 0.000000 0.000000 0.000000 -0.024682 0.000000 0.188811
#
#
# Mechanical properties :
#
#
# Convention : Reuss Voigt Hill
#
# Bulk Modulus (GPa) = 51.85631 73.08958 62.47295
# Shear Modulus (GPa) = 16.66711 37.89069 27.27890
#
# Velocity S-wave (km/s) = 2.47968 3.73879 3.17233
# Velocity P-wave (km/s) = 5.22772 6.75293 6.03867
#
# Compressibility (1/GPa) = 0.01928406
#
# Stress axis : x y z
#
# Youngs Moduli (GPa) = 89.03833 93.25173 168.47731
#
# Poissons Ratio (x) = -0.04377 0.48164
# Poissons Ratio (y) = -0.04179 0.32242
# Poissons Ratio (z) = 0.25454 0.17846
#
# Static dielectric constant tensor:
#      x y z
#    x -17.926840 0.000000 3.696950 
#    y 0.000000 2.058790 0.000000 
#    z 3.696950 0.000000 1.419210 
# 
# From -- ./inp_files/37982.got.cif
#   From: 2010.05.17/outbox.cif.g08.bks.cpg/sg15_19_cif.got.tgz:37982.got - 2010.06.03 18:47:42.
