data_PCOD9259161
_publ_section_title
;
Structure prediction by ZEFSAII (Michael W. Deem and Ramdas Pophale) SiO2 
 PCOD9259161
Probable space group: C 2/C
;
_chemical_formula_sum "Si O2"
_cell_formula_units_Z 40
_cell_length_a 9.537251
_cell_length_b 23.173760
_cell_length_c 16.954710
_cell_angle_alpha 90.000000
_cell_angle_beta 148.528520
_cell_angle_gamma 90.000000
_cell_volume 1956.330463
_symmetry_space_group_name_H-M "C 2/C"
_symmetry_group_IT_number 15
_symmetry_cell_setting 'monoclinic'
loop_
_space_group_symop_operation_xyz
x,y,z
-x,y,1/2-z
-x,-y,-z
x,-y,1/2+z
1/2+x,1/2+y,z
1/2-x,1/2+y,1/2-z
1/2-x,1/2-y,-z
1/2+x,1/2-y,1/2+z
loop_
_atom_site_type_symbol
_atom_site_label
_atom_site_fract_x
_atom_site_fract_y
_atom_site_fract_z
Si Si1 0.292191 0.954910 0.861951
Si Si2 0.435154 0.157881 0.956535
Si Si3 0.528794 0.371216 0.137826
Si Si4 0.292200 0.275634 0.932858
Si Si5 0.764098 0.010370 0.825307
O O1 0.000000 0.972972 0.750000
O O2 0.302823 0.961276 0.771937
O O3 0.344770 0.890681 0.921331
O O4 0.500000 0.000000 0.000000
O O5 0.294085 0.155311 0.804172
O O6 0.484434 0.225931 0.990295
O O7 0.207722 0.137484 0.911475
O O8 0.618248 0.436021 0.166916
O O9 0.427578 0.337576 0.011570
O O10 0.000000 0.277788 0.750000
O O11 0.250000 0.250000 0.000000
O O12 0.500000 0.023420 0.750000
O O13 0.000000 0.000000 0.000000
#
# Coordination Sequence:
#
# PCOD9259161 Si02
#       5
#     8   8   8   8   8
#     4  12  24  42  70  93 124 173 221 258 316 392
#     4  10  19  37  65  94 120 165 221 258 302 382
#     4  10  20  37  64  90 128 167 208 265 312 373
#     4  10  18  34  60  97 126 163 213 261 312 377
#     4  12  26  42  60  96 133 164 206 270 327 373
#
# _framework density 20.446442000000001
#
# number of rings (size 3 to 8) (size 9 to 14) (size 15 to 20)
#    0.000    1.200    6.000    3.600    0.000    4.000 
#    0.000    1.000    0.000    2.400    0.000    0.000 
#    0.000    0.000    0.000    0.000    0.000    0.000 
#
# Total GULP energy -111437.184240 kJ/mol
# GULP energy per Si atom -5571.859212 kJ/mol
# Density = 2.039991 g / cm^3
# Si number density = 20.446442 Si / 1000 Ang^3
#
#
#
# Elastic Constant Matrix: (Units=GPa)
#
#
# Indices 1 2 3 4 5 6 
#
# 1 37.2546 -0.0804 22.4794 0.0017 9.6618 0.0008
# 2 -0.0804 58.5452 36.5552 0.0043 9.6230 -0.0001
# 3 22.4794 36.5552 144.5966 0.0349 -3.2354 0.0013
# 4 0.0017 0.0043 0.0349 30.5724 0.0074 -5.5926
# 5 9.6618 9.6230 -3.2354 0.0074 32.6220 0.0015
# 6 0.0008 -0.0001 0.0013 -5.5926 0.0015 22.6635
#
#
#
# Elastic Compliance Matrix: (Units=1/GPa)
#
#
# Indices 1 2 3 4 5 6 
#
# 1 0.034706 0.006815 -0.007410 0.000009 -0.013024 0.000002
# 2 0.006815 0.023099 -0.007112 0.000007 -0.009538 0.000003
# 3 -0.007410 -0.007112 0.009984 -0.000012 0.005283 -0.000004
# 4 0.000009 0.000007 -0.000012 0.034256 -0.000014 0.008453
# 5 -0.013024 -0.009538 0.005283 -0.000014 0.037849 -0.000006
# 6 0.000002 0.000003 -0.000004 0.008453 -0.000006 0.046210
#
#
# Mechanical properties :
#
#
# Convention : Reuss Voigt Hill
#
# Bulk Modulus (GPa) = 19.09332 39.81165 29.45249
# Shear Modulus (GPa) = 22.83358 29.26773 26.05065
#
# Velocity S-wave (km/s) = 3.34541 3.78753 3.57332
# Velocity P-wave (km/s) = 4.92756 6.21616 5.60899
#
# Compressibility (1/GPa) = 0.05237433
#
# Stress axis : x y z
#
# Youngs Moduli (GPa) = 28.81357 43.29223 100.15991
#
# Poissons Ratio (x) = -0.29504 0.74217
# Poissons Ratio (y) = -0.19637 0.71238
# Poissons Ratio (z) = 0.21350 0.30791
#
# Static dielectric constant tensor:
#      x y z
#    x 1.638700 0.000210 0.025600 
#    y 0.000210 1.980140 -0.000050 
#    z 0.025600 -0.000050 1.703960 
# 
# From -- ./inp_files/137618.got.cif
#   From: 2010.05.17/outbox.cif.g08.bks.cpg/sg15_69_cif.got.tgz:137618.got - 2010.06.03 18:47:42.
