data_PCOD9259444
_publ_section_title
;
Structure prediction by ZEFSAII (Michael W. Deem and Ramdas Pophale) SiO2 
 PCOD9259444
Probable space group: C 2/C
;
_chemical_formula_sum "Si O2"
_cell_formula_units_Z 52
_cell_length_a 10.740049
_cell_length_b 29.536002
_cell_length_c 9.488188
_cell_angle_alpha 90.000000
_cell_angle_beta 62.804552
_cell_angle_gamma 90.000000
_cell_volume 2677.096977
_symmetry_space_group_name_H-M "C 2/C"
_symmetry_group_IT_number 15
_symmetry_cell_setting 'monoclinic'
loop_
_space_group_symop_operation_xyz
x,y,z
-x,y,1/2-z
-x,-y,-z
x,-y,1/2+z
1/2+x,1/2+y,z
1/2-x,1/2+y,1/2-z
1/2-x,1/2-y,-z
1/2+x,1/2-y,1/2+z
loop_
_atom_site_type_symbol
_atom_site_label
_atom_site_fract_x
_atom_site_fract_y
_atom_site_fract_z
Si Si1 0.331365 0.445197 0.846785
Si Si2 0.000000 0.768896 0.750000
Si Si3 0.352801 0.520036 0.630024
Si Si4 0.000000 0.092352 0.750000
Si Si5 0.000000 0.760740 0.250000
Si Si6 0.767064 0.840234 0.836647
Si Si7 0.294524 0.666085 0.984746
Si Si8 0.484785 0.801123 0.011745
O O1 0.500000 0.450066 0.750000
O O2 0.277724 0.479969 0.755056
O O3 0.304854 0.392437 0.840119
O O4 0.281035 0.461562 0.026248
O O5 0.873359 0.803560 0.849620
O O6 0.953003 0.735050 0.649984
O O7 0.500000 0.500000 0.500000
O O8 0.400513 0.560694 0.707014
O O9 0.105557 0.123811 0.605845
O O10 0.120085 0.791173 0.119936
O O11 0.046891 0.728951 0.352029
O O12 0.774706 0.833098 0.662971
O O13 0.614701 0.832621 0.982139
O O14 0.146190 0.670679 0.980975
#
# Coordination Sequence:
#
# PCOD9259444 Si02
#       8
#     8   4   8   4   4   8   8   8
#     4  10  20  34  59  88 121 147 198 249 306 351
#     4  12  26  39  60  91 126 161 212 257 300 346
#     4  10  18  35  57  91 117 151 190 255 306 360
#     4  11  22  33  64  94 120 148 202 259 308 353
#     4  11  20  40  62  83 116 161 214 254 290 349
#     4  12  23  39  63  91 125 162 207 254 303 364
#     4  11  23  38  63  91 117 161 212 253 297 368
#     4  12  24  42  60  86 125 168 202 251 309 360
#
# _framework density 19.424025
#
# number of rings (size 3 to 8) (size 9 to 14) (size 15 to 20)
#    0.000    0.923    6.154    3.692    0.000    1.231 
#    0.000    0.000    0.000    0.923    4.000    0.000 
#    0.000    0.000    0.000    0.000    0.000    0.000 
#
# Total GULP energy -145027.111292 kJ/mol
# GULP energy per Si atom -5577.965819 kJ/mol
# Density = 1.937981 g / cm^3
# Si number density = 19.424025 Si / 1000 Ang^3
#
#
#
# Elastic Constant Matrix: (Units=GPa)
#
#
# Indices 1 2 3 4 5 6 
#
# 1 45.1193 5.0652 -3.2919 0.0000 -6.9626 0.0000
# 2 5.0652 84.4827 26.3141 0.0000 2.0229 0.0000
# 3 -3.2919 26.3141 43.7783 0.0000 10.8832 0.0000
# 4 0.0000 0.0000 0.0000 23.1902 0.0000 8.4690
# 5 -6.9626 2.0229 10.8832 0.0000 28.7743 0.0000
# 6 0.0000 0.0000 0.0000 8.4690 0.0000 23.1422
#
#
#
# Elastic Compliance Matrix: (Units=1/GPa)
#
#
# Indices 1 2 3 4 5 6 
#
# 1 0.023312 -0.002053 0.001710 0.000000 0.005138 0.000000
# 2 -0.002053 0.014912 -0.009640 0.000000 0.002101 0.000000
# 3 0.001710 -0.009640 0.031451 0.000000 -0.010804 0.000000
# 4 0.000000 0.000000 0.000000 0.049774 0.000000 -0.018215
# 5 0.005138 0.002101 -0.010804 0.000000 0.039935 0.000000
# 6 0.000000 0.000000 0.000000 -0.018215 0.000000 0.049877
#
#
# Mechanical properties :
#
#
# Convention : Reuss Voigt Hill
#
# Bulk Modulus (GPa) = 20.11754 25.50613 22.81183
# Shear Modulus (GPa) = 20.34194 24.70754 22.52474
#
# Velocity S-wave (km/s) = 3.23965 3.57039 3.40903
# Velocity P-wave (km/s) = 4.93693 5.49151 5.22159
#
# Compressibility (1/GPa) = 0.04970786
#
# Stress axis : x y z
#
# Youngs Moduli (GPa) = 42.89705 67.05947 31.79524
#
# Poissons Ratio (x) = 0.13769 -0.05436
# Poissons Ratio (y) = 0.08808 0.30651
# Poissons Ratio (z) = -0.07334 0.64645
#
# Static dielectric constant tensor:
#      x y z
#    x 1.714200 0.000000 0.039630 
#    y 0.000000 1.724210 0.000000 
#    z 0.039630 0.000000 1.698230 
# 
# From -- ./inp_files/35130.got.cif
#   From: 2010.05.17/outbox.cif.g08.bks.cpg/sg15_18_cif.got.tgz:35130.got - 2010.06.03 18:47:42.
