data_PCOD9259346
_publ_section_title
;
Structure prediction by ZEFSAII (Michael W. Deem and Ramdas Pophale) SiO2 
 PCOD9259346
Probable space group: C 2/C
;
_chemical_formula_sum "Si O2"
_cell_formula_units_Z 60
_cell_length_a 8.473369
_cell_length_b 11.106161
_cell_length_c 25.725118
_cell_angle_alpha 90.000000
_cell_angle_beta 103.258177
_cell_angle_gamma 90.000000
_cell_volume 2356.377941
_symmetry_space_group_name_H-M "C 2/C"
_symmetry_group_IT_number 15
_symmetry_cell_setting 'monoclinic'
loop_
_space_group_symop_operation_xyz
x,y,z
-x,y,1/2-z
-x,-y,-z
x,-y,1/2+z
1/2+x,1/2+y,z
1/2-x,1/2+y,1/2-z
1/2-x,1/2-y,-z
1/2+x,1/2-y,1/2+z
loop_
_atom_site_type_symbol
_atom_site_label
_atom_site_fract_x
_atom_site_fract_y
_atom_site_fract_z
Si Si1 0.000000 0.076177 0.750000
Si Si2 0.202449 0.801515 0.051186
Si Si3 0.228923 0.236879 0.080104
Si Si4 0.552480 0.880074 0.974516
Si Si5 0.249577 0.670600 0.808714
Si Si6 0.003815 0.057192 0.902791
Si Si7 0.722271 0.563738 0.349761
Si Si8 0.477653 0.852596 0.359429
O O1 0.150183 0.152687 0.736848
O O2 0.091733 0.994846 0.799419
O O3 0.074700 0.911246 0.047502
O O4 0.366166 0.838504 0.091909
O O5 0.099361 0.686169 0.063490
O O6 0.250000 0.750000 0.000000
O O7 0.309777 0.120168 0.059800
O O8 0.373015 0.332616 0.097973
O O9 0.137285 0.243646 0.128244
O O10 0.118600 0.294084 0.025932
O O11 0.500000 0.000000 0.000000
O O12 0.351982 0.579590 0.853436
O O13 0.059901 0.647323 0.808780
O O14 0.265554 0.807910 0.828952
O O15 0.116426 0.945793 0.895597
O O16 0.875134 0.473012 0.361934
#
# Coordination Sequence:
#
# PCOD9259346 Si02
#       8
#     4   8   8   8   8   8   8   8
#     4  10  24  44  66  98 126 152 192 252 310 386
#     4  10  18  35  54  82 124 161 208 264 295 337
#     4   9  18  35  55  75 119 153 197 263 303 336
#     4  10  20  34  55  79 110 163 215 259 308 351
#     4  10  22  42  66  94 126 155 203 247 310 387
#     4   8  19  37  58  84 125 162 201 256 306 357
#     4  10  22  43  67  92 124 163 194 249 319 372
#     4  10  21  38  61  89 123 163 208 254 305 362
#
# _framework density 25.462807999999999
#
# number of rings (size 3 to 8) (size 9 to 14) (size 15 to 20)
#    0.000    2.400    1.333    0.000    0.000    9.067 
#    2.400   10.000    0.000    0.000    0.000    0.000 
#    0.000    0.000    0.000    0.000    0.000    0.000 
#
# Total GULP energy -167254.828042 kJ/mol
# GULP energy per Si atom -5575.160935 kJ/mol
# Density = 2.540485 g / cm^3
# Si number density = 25.462808 Si / 1000 Ang^3
#
#
#
# Elastic Constant Matrix: (Units=GPa)
#
#
# Indices 1 2 3 4 5 6 
#
# 1 165.4913 48.2552 22.4297 0.0000 -36.6848 0.0000
# 2 48.2552 116.6699 3.4847 0.0000 -12.5573 0.0000
# 3 22.4297 3.4847 61.5478 0.0000 -15.8295 0.0000
# 4 0.0000 0.0000 0.0000 20.1304 0.0000 1.6478
# 5 -36.6848 -12.5573 -15.8295 0.0000 50.8417 0.0000
# 6 0.0000 0.0000 0.0000 1.6478 0.0000 50.3584
#
#
#
# Elastic Compliance Matrix: (Units=1/GPa)
#
#
# Indices 1 2 3 4 5 6 
#
# 1 0.008110 -0.002805 -0.001598 0.000000 0.004662 0.000000
# 2 -0.002805 0.009776 0.000619 0.000000 0.000583 0.000000
# 3 -0.001598 0.000619 0.017977 0.000000 0.004597 0.000000
# 4 0.000000 0.000000 0.000000 0.049810 0.000000 -0.001630
# 5 0.004662 0.000583 0.004597 0.000000 0.024608 0.000000
# 6 0.000000 0.000000 0.000000 -0.001630 0.000000 0.019911
#
#
# Mechanical properties :
#
#
# Convention : Reuss Voigt Hill
#
# Bulk Modulus (GPa) = 35.34210 54.67201 45.00706
# Shear Modulus (GPa) = 33.96927 42.23538 38.10232
#
# Velocity S-wave (km/s) = 3.65646 4.07714 3.87252
# Velocity P-wave (km/s) = 5.63350 6.60924 6.14078
#
# Compressibility (1/GPa) = 0.02829487
#
# Stress axis : x y z
#
# Youngs Moduli (GPa) = 123.29713 102.29488 55.62621
#
# Poissons Ratio (x) = 0.28694 0.08889
# Poissons Ratio (y) = 0.34585 -0.03442
# Poissons Ratio (z) = 0.19702 -0.06329
#
# Static dielectric constant tensor:
#      x y z
#    x 2.103600 0.000000 -0.019760 
#    y 0.000000 2.053860 0.000000 
#    z -0.019760 0.000000 2.235890 
# 
# From -- ./inp_files/307216.got.cif
#   From: 2010.05.17/outbox.cif.g08.bks.cpg/sg15_154_cif.got.tgz:307216.got - 2010.06.03 18:47:42.
