data_PCOD9259558
_publ_section_title
;
Structure prediction by ZEFSAII (Michael W. Deem and Ramdas Pophale) SiO2 
 PCOD9259558
Probable space group: C 2/C
;
_chemical_formula_sum "Si O2"
_cell_formula_units_Z 52
_cell_length_a 14.258641
_cell_length_b 7.578377
_cell_length_c 19.903293
_cell_angle_alpha 90.000000
_cell_angle_beta 85.203581
_cell_angle_gamma 90.000000
_cell_volume 2143.165683
_symmetry_space_group_name_H-M "C 2/C"
_symmetry_group_IT_number 15
_symmetry_cell_setting 'monoclinic'
loop_
_space_group_symop_operation_xyz
x,y,z
-x,y,1/2-z
-x,-y,-z
x,-y,1/2+z
1/2+x,1/2+y,z
1/2-x,1/2+y,1/2-z
1/2-x,1/2-y,-z
1/2+x,1/2-y,1/2+z
loop_
_atom_site_type_symbol
_atom_site_label
_atom_site_fract_x
_atom_site_fract_y
_atom_site_fract_z
Si Si1 0.631761 0.919669 0.266555
Si Si2 0.402086 0.270925 0.850009
Si Si3 0.500000 0.545440 0.750000
Si Si4 0.291196 0.940512 0.615107
Si Si5 0.670020 0.521187 0.311319
Si Si6 0.593719 0.925136 0.025712
Si Si7 0.234310 0.317412 0.576539
O O1 0.573345 0.894019 0.200793
O O2 0.636196 0.715396 0.289513
O O3 0.625925 0.028465 0.335877
O O4 0.732054 0.986030 0.231704
O O5 0.451942 0.437491 0.814040
O O6 0.289500 0.304626 0.858747
O O7 0.429161 0.238608 0.925046
O O8 0.407548 0.613356 0.714989
O O9 0.334019 0.893305 0.539974
O O10 0.238271 0.131528 0.615229
O O11 0.691381 0.554816 0.389122
O O12 0.641176 0.067333 0.073088
O O13 0.500000 0.000000 0.000000
O O14 0.250000 0.250000 0.500000
#
# Coordination Sequence:
#
# PCOD9259558 Si02
#       7
#     8   8   4   8   8   8   8
#     4  10  18  35  60  85 110 159 194 237 297 360
#     4  11  22  38  61  85 123 158 203 244 305 355
#     4  10  22  34  60  92 112 158 202 250 290 358
#     4  10  21  41  62  84 122 164 195 241 311 367
#     4  10  19  36  60  82 118 149 202 238 300 354
#     4  11  24  39  63  92 119 154 208 254 294 355
#     4   9  20  37  61  83 116 161 193 235 307 360
#
# _framework density 24.263172999999998
#
# number of rings (size 3 to 8) (size 9 to 14) (size 15 to 20)
#    0.000    1.846    4.615    0.462    8.615    0.000 
#    0.000    2.308    0.000    3.692    0.000    0.000 
#    0.000    0.000    0.000    0.000    0.000    0.000 
#
# Total GULP energy -144780.042647 kJ/mol
# GULP energy per Si atom -5568.463179 kJ/mol
# Density = 2.420795 g / cm^3
# Si number density = 24.263173 Si / 1000 Ang^3
#
#
#
# Elastic Constant Matrix: (Units=GPa)
#
#
# Indices 1 2 3 4 5 6 
#
# 1 54.2831 -4.5500 23.0175 0.0000 6.2122 0.0000
# 2 -4.5500 61.2624 26.5969 0.0000 1.3231 0.0000
# 3 23.0175 26.5969 136.3333 0.0000 3.5023 0.0000
# 4 0.0000 0.0000 0.0000 27.3927 0.0000 5.5596
# 5 6.2122 1.3231 3.5023 0.0000 49.9390 0.0000
# 6 0.0000 0.0000 0.0000 5.5596 0.0000 22.0118
#
#
#
# Elastic Compliance Matrix: (Units=1/GPa)
#
#
# Indices 1 2 3 4 5 6 
#
# 1 0.020712 0.003366 -0.004092 0.000000 -0.002379 0.000000
# 2 0.003366 0.018383 -0.004139 0.000000 -0.000616 0.000000
# 3 -0.004092 -0.004139 0.008833 0.000000 -0.000001 0.000000
# 4 0.000000 0.000000 0.000000 0.038478 0.000000 -0.009719
# 5 -0.002379 -0.000616 -0.000001 0.000000 0.020337 0.000000
# 6 0.000000 0.000000 0.000000 -0.009719 0.000000 0.047885
#
#
# Mechanical properties :
#
#
# Convention : Reuss Voigt Hill
#
# Bulk Modulus (GPa) = 26.17908 38.00085 32.08996
# Shear Modulus (GPa) = 28.23405 33.65634 30.94519
#
# Velocity S-wave (km/s) = 3.41494 3.72847 3.57515
# Velocity P-wave (km/s) = 5.13441 5.85075 5.50425
#
# Compressibility (1/GPa) = 0.03819844
#
# Stress axis : x y z
#
# Youngs Moduli (GPa) = 48.28213 54.39680 113.20709
#
# Poissons Ratio (x) = -0.18312 0.46329
# Poissons Ratio (y) = -0.16253 0.46855
# Poissons Ratio (z) = 0.19759 0.22514
#
# Static dielectric constant tensor:
#      x y z
#    x 2.084170 0.000000 0.065120 
#    y 0.000000 2.063700 0.000000 
#    z 0.065120 0.000000 1.988250 
# 
# From -- ./inp_files/242473.got.cif
#   From: 2010.05.17/outbox.cif.g08.bks.cpg/sg15_122_cif.got.tgz:242473.got - 2010.06.03 18:47:42.
