data_PCOD9259375
_publ_section_title
;
Structure prediction by ZEFSAII (Michael W. Deem and Ramdas Pophale) SiO2 
 PCOD9259375
Probable space group: C 2/C
;
_chemical_formula_sum "Si O2"
_cell_formula_units_Z 64
_cell_length_a 22.441286
_cell_length_b 17.351241
_cell_length_c 10.595357
_cell_angle_alpha 90.000000
_cell_angle_beta 123.004126
_cell_angle_gamma 90.000000
_cell_volume 3459.911320
_symmetry_space_group_name_H-M "C 2/C"
_symmetry_group_IT_number 15
_symmetry_cell_setting 'monoclinic'
loop_
_space_group_symop_operation_xyz
x,y,z
-x,y,1/2-z
-x,-y,-z
x,-y,1/2+z
1/2+x,1/2+y,z
1/2-x,1/2+y,1/2-z
1/2-x,1/2-y,-z
1/2+x,1/2-y,1/2+z
loop_
_atom_site_type_symbol
_atom_site_label
_atom_site_fract_x
_atom_site_fract_y
_atom_site_fract_z
Si Si1 0.719229 0.703529 0.587565
Si Si2 0.877877 0.426018 0.834273
Si Si3 0.651518 0.899972 0.219157
Si Si4 0.574534 0.133237 0.873244
Si Si5 0.963818 0.801858 0.331052
Si Si6 0.189168 0.271080 0.829249
Si Si7 0.558571 0.310854 0.917131
Si Si8 0.022560 0.630915 0.413037
O O1 0.750000 0.750000 0.500000
O O2 0.770586 0.633869 0.686292
O O3 0.712170 0.752032 0.710825
O O4 0.639506 0.673025 0.471102
O O5 0.854670 0.509368 0.763763
O O6 0.838226 0.359331 0.710876
O O7 0.963269 0.411723 0.928089
O O8 0.870111 0.412393 0.975567
O O9 0.610878 0.853139 0.281286
O O10 0.603094 0.886064 0.040598
O O11 0.500000 0.094249 0.750000
O O12 0.558372 0.216284 0.917464
O O13 0.881810 0.776890 0.216219
O O14 0.961280 0.839982 0.466106
O O15 0.000000 0.840049 0.250000
O O16 0.008140 0.722240 0.399789
O O17 0.250000 0.250000 0.000000
O O18 0.500000 0.335878 0.750000
O O19 0.000000 0.603823 0.250000
#
# Coordination Sequence:
#
# PCOD9259375 Si02
#       8
#     8   8   8   8   8   8   8   8
#     4  11  22  37  53  80 109 144 188 229 280 324
#     4  11  22  36  49  78 110 147 187 218 266 322
#     4  12  24  31  56  79 109 152 185 226 263 330
#     4  11  19  35  51  74 112 149 182 222 264 316
#     4   9  18  32  51  78 104 137 185 218 258 327
#     4  10  22  38  54  73 112 149 178 232 272 317
#     4  10  18  35  56  74 106 141 182 231 279 318
#     4  10  20  32  47  78 111 147 182 205 250 327
#
# _framework density 18.497584
#
# number of rings (size 3 to 8) (size 9 to 14) (size 15 to 20)
#    0.000    1.500    6.250    1.125    7.000    0.000 
#    0.000    0.000    0.000    0.000    0.000    0.875 
#    0.000    6.250    0.000    0.250    0.000    0.000 
#
# Total GULP energy -178251.549708 kJ/mol
# GULP energy per Si atom -5570.360928 kJ/mol
# Density = 1.845548 g / cm^3
# Si number density = 18.497584 Si / 1000 Ang^3
#
#
#
# Elastic Constant Matrix: (Units=GPa)
#
#
# Indices 1 2 3 4 5 6 
#
# 1 95.3026 -0.7301 53.4933 0.0000 0.5672 0.0000
# 2 -0.7301 25.0331 21.1856 0.0000 15.8831 0.0000
# 3 53.4933 21.1856 155.7121 0.0000 18.7878 0.0000
# 4 0.0000 0.0000 0.0000 8.1500 0.0000 1.3920
# 5 0.5672 15.8831 18.7878 0.0000 38.4049 0.0000
# 6 0.0000 0.0000 0.0000 1.3920 0.0000 4.7606
#
#
#
# Elastic Compliance Matrix: (Units=1/GPa)
#
#
# Indices 1 2 3 4 5 6 
#
# 1 0.013515 0.004577 -0.005328 0.000000 0.000514 0.000000
# 2 0.004577 0.059568 -0.007117 0.000000 -0.021222 0.000000
# 3 -0.005328 -0.007117 0.009412 0.000000 -0.001582 0.000000
# 4 0.000000 0.000000 0.000000 0.129150 0.000000 -0.037764
# 5 0.000514 -0.021222 -0.001582 0.000000 0.035582 0.000000
# 6 0.000000 0.000000 0.000000 -0.037764 0.000000 0.221098
#
#
# Mechanical properties :
#
#
# Convention : Reuss Voigt Hill
#
# Bulk Modulus (GPa) = 14.97883 47.10506 31.04194
# Shear Modulus (GPa) = 9.87531 23.73637 16.80584
#
# Velocity S-wave (km/s) = 2.31307 3.58608 3.01747
# Velocity P-wave (km/s) = 3.90500 6.53203 5.38129
#
# Compressibility (1/GPa) = 0.06676090
#
# Stress axis : x y z
#
# Youngs Moduli (GPa) = 73.98961 16.78746 106.25194
#
# Poissons Ratio (x) = -0.07684 0.56609
# Poissons Ratio (y) = -0.33866 0.75614
# Poissons Ratio (z) = 0.39420 0.11947
#
# Static dielectric constant tensor:
#      x y z
#    x 1.803890 0.000000 -0.081800 
#    y 0.000000 1.629270 0.000000 
#    z -0.081800 0.000000 1.723700 
# 
# From -- ./inp_files/114099.got.cif
#   From: 2010.05.17/outbox.cif.g08.bks.cpg/sg15_58_cif.got.tgz:114099.got - 2010.06.03 18:47:42.
