data_PCOD9259810
_publ_section_title
;
Structure prediction by ZEFSAII (Michael W. Deem and Ramdas Pophale) SiO2 
 PCOD9259810
Probable space group: C 2/C
;
_chemical_formula_sum "Si O2"
_cell_formula_units_Z 48
_cell_length_a 7.255377
_cell_length_b 19.208868
_cell_length_c 19.065839
_cell_angle_alpha 90.000000
_cell_angle_beta 44.055225
_cell_angle_gamma 90.000000
_cell_volume 1847.659775
_symmetry_space_group_name_H-M "C 2/C"
_symmetry_group_IT_number 15
_symmetry_cell_setting 'monoclinic'
loop_
_space_group_symop_operation_xyz
x,y,z
-x,y,1/2-z
-x,-y,-z
x,-y,1/2+z
1/2+x,1/2+y,z
1/2-x,1/2+y,1/2-z
1/2-x,1/2-y,-z
1/2+x,1/2-y,1/2+z
loop_
_atom_site_type_symbol
_atom_site_label
_atom_site_fract_x
_atom_site_fract_y
_atom_site_fract_z
Si Si1 0.989845 0.242825 0.117572
Si Si2 0.148436 0.389094 0.285708
Si Si3 0.927655 0.845285 0.418128
Si Si4 0.123973 0.311742 0.875505
Si Si5 0.349713 0.432982 0.014373
Si Si6 0.264546 0.610519 0.200691
O O1 0.870480 0.316453 0.167862
O O2 0.119877 0.208461 0.150333
O O3 0.776016 0.185123 0.155719
O O4 0.250000 0.250000 0.000000
O O5 0.963833 0.438025 0.384131
O O6 0.000000 0.383311 0.250000
O O7 0.449895 0.394696 0.175955
O O8 0.021219 0.765322 0.379642
O O9 0.047084 0.871956 0.460243
O O10 0.613289 0.841877 0.511857
O O11 0.198630 0.369234 0.797923
O O12 0.500000 0.500000 0.000000
O O13 0.464977 0.421736 0.904400
O O14 0.000000 0.569276 0.250000
#
# Coordination Sequence:
#
# PCOD9259810 Si02
#       6
#     8   8   8   8   8   8
#     4  12  21  35  62  96 131 162 206 266 349 397
#     4  10  18  36  56  84 121 163 204 258 327 372
#     4  10  20  37  59  87 126 170 206 264 335 378
#     4  11  21  37  61  93 135 155 207 277 333 399
#     4  11  23  40  61  91 128 171 225 268 307 394
#     4  12  23  37  61  98 126 164 218 266 332 389
#
# _framework density 25.978808999999998
#
# number of rings (size 3 to 8) (size 9 to 14) (size 15 to 20)
#    0.000    1.000    8.333    0.500    2.333    2.000 
#    0.000    0.000    0.000    1.000    0.000    2.333 
#    0.000    0.000    0.000    0.000    0.000    0.000 
#
# Total GULP energy -133986.541608 kJ/mol
# GULP energy per Si atom -5582.772567 kJ/mol
# Density = 2.591968 g / cm^3
# Si number density = 25.978809 Si / 1000 Ang^3
#
#
#
# Elastic Constant Matrix: (Units=GPa)
#
#
# Indices 1 2 3 4 5 6 
#
# 1 42.5836 -3.1177 22.8471 0.0000 -0.3343 0.0000
# 2 -3.1177 56.4921 32.8956 0.0000 5.0570 0.0000
# 3 22.8471 32.8956 262.4653 0.0000 -6.0956 0.0000
# 4 0.0000 0.0000 0.0000 16.3360 0.0000 3.7984
# 5 -0.3343 5.0570 -6.0956 0.0000 44.5553 0.0000
# 6 0.0000 0.0000 0.0000 3.7984 0.0000 29.2937
#
#
#
# Elastic Compliance Matrix: (Units=1/GPa)
#
#
# Indices 1 2 3 4 5 6 
#
# 1 0.025066 0.002918 -0.002559 0.000000 -0.000493 0.000000
# 2 0.002918 0.019717 -0.002786 0.000000 -0.002597 0.000000
# 3 -0.002559 -0.002786 0.004403 0.000000 0.000899 0.000000
# 4 0.000000 0.000000 0.000000 0.063118 0.000000 -0.008184
# 5 -0.000493 -0.002597 0.000899 0.000000 0.022858 0.000000
# 6 0.000000 0.000000 0.000000 -0.008184 0.000000 0.035198
#
#
# Mechanical properties :
#
#
# Convention : Reuss Voigt Hill
#
# Bulk Modulus (GPa) = 22.55705 51.86567 37.21136
# Shear Modulus (GPa) = 26.31706 38.63141 32.47423
#
# Velocity S-wave (km/s) = 3.18625 3.86039 3.53941
# Velocity P-wave (km/s) = 4.71572 6.31491 5.57298
#
# Compressibility (1/GPa) = 0.04433203
#
# Stress axis : x y z
#
# Youngs Moduli (GPa) = 39.89473 50.71740 227.12862
#
# Poissons Ratio (x) = -0.14798 0.58124
# Poissons Ratio (y) = -0.11640 0.63267
# Poissons Ratio (z) = 0.10209 0.14127
#
# Static dielectric constant tensor:
#      x y z
#    x 2.310800 0.000000 0.022270 
#    y 0.000000 2.103100 0.000000 
#    z 0.022270 0.000000 2.129930 
# 
# From -- ./inp_files/293305.got.cif
#   From: 2010.05.17/outbox.cif.g08.bks.cpg/sg15_147_cif.got.tgz:293305.got - 2010.06.03 18:47:42.
