data_PCOD9259100
_publ_section_title
;
Structure prediction by ZEFSAII (Michael W. Deem and Ramdas Pophale) SiO2 
 PCOD9259100
Probable space group: C 2/C
;
_chemical_formula_sum "Si O2"
_cell_formula_units_Z 56
_cell_length_a 7.891507
_cell_length_b 19.441425
_cell_length_c 15.093803
_cell_angle_alpha 90.000000
_cell_angle_beta 67.161351
_cell_angle_gamma 90.000000
_cell_volume 2134.174422
_symmetry_space_group_name_H-M "C 2/C"
_symmetry_group_IT_number 15
_symmetry_cell_setting 'monoclinic'
loop_
_space_group_symop_operation_xyz
x,y,z
-x,y,1/2-z
-x,-y,-z
x,-y,1/2+z
1/2+x,1/2+y,z
1/2-x,1/2+y,1/2-z
1/2-x,1/2-y,-z
1/2+x,1/2-y,1/2+z
loop_
_atom_site_type_symbol
_atom_site_label
_atom_site_fract_x
_atom_site_fract_y
_atom_site_fract_z
Si Si1 0.297347 0.266117 0.742410
Si Si2 0.072419 0.389772 0.455298
Si Si3 0.797066 0.171842 0.509410
Si Si4 0.794374 0.608144 0.752773
Si Si5 0.815191 0.841167 0.550485
Si Si6 0.276367 0.031058 0.313410
Si Si7 0.220736 0.604889 0.357813
O O1 0.500000 0.269450 0.750000
O O2 0.233206 0.187371 0.762417
O O3 0.299253 0.291654 0.639885
O O4 0.172919 0.321670 0.820489
O O5 0.905197 0.356777 0.432861
O O6 0.950222 0.429228 0.554599
O O7 0.199873 0.417657 0.351437
O O8 0.179559 0.335458 0.494757
O O9 0.750000 0.250000 0.500000
O O10 0.851240 0.128254 0.410644
O O11 0.979088 0.166594 0.528304
O O12 0.708435 0.547407 0.829984
O O13 0.000000 0.609598 0.750000
O O14 0.776758 0.918265 0.596854
O O15 0.500000 0.033943 0.250000
O O16 0.201547 0.062096 0.237284
#
# Coordination Sequence:
#
# PCOD9259100 Si02
#       7
#     8   8   8   8   8   8   8
#     4  10  18  34  60 100 129 174 218 274 339 393
#     4  10  22  40  65 100 125 173 226 274 330 402
#     4  10  21  36  61 102 127 167 218 278 323 391
#     4  10  23  38  64  95 138 173 219 282 344 393
#     4  11  21  39  72  95 134 175 228 270 334 404
#     4  10  19  40  63  98 127 183 227 265 334 414
#     4   9  20  35  61  92 126 163 226 262 313 407
#
# _framework density 26.239657000000001
#
# number of rings (size 3 to 8) (size 9 to 14) (size 15 to 20)
#    0.857    1.143    2.857    0.857    2.000    2.857 
#    0.000    0.000    0.000   17.143    0.000    0.000 
#    0.000    0.000    0.000    0.000    0.000    0.000 
#
# Total GULP energy -156031.855619 kJ/mol
# GULP energy per Si atom -5572.566272 kJ/mol
# Density = 2.617993 g / cm^3
# Si number density = 26.239657 Si / 1000 Ang^3
#
#
#
# Elastic Constant Matrix: (Units=GPa)
#
#
# Indices 1 2 3 4 5 6 
#
# 1 95.8208 6.6304 45.4701 0.0000 -2.2612 0.0000
# 2 6.6304 152.7498 38.4940 0.0000 -1.1528 0.0000
# 3 45.4701 38.4940 106.5407 0.0000 22.4638 0.0000
# 4 0.0000 0.0000 0.0000 38.4604 0.0000 -1.5476
# 5 -2.2612 -1.1528 22.4638 0.0000 29.7067 0.0000
# 6 0.0000 0.0000 0.0000 -1.5476 0.0000 -1.3207
#
#
#
# Elastic Compliance Matrix: (Units=1/GPa)
#
#
# Indices 1 2 3 4 5 6 
#
# 1 0.014429 0.001513 -0.008267 0.000000 0.007408 0.000000
# 2 0.001513 0.007544 -0.004113 0.000000 0.003518 0.000000
# 3 -0.008267 -0.004113 0.017330 0.000000 -0.013893 0.000000
# 4 0.000000 0.000000 0.000000 0.024830 0.000000 -0.029097
# 5 0.007408 0.003518 -0.013893 0.000000 0.044869 0.000000
# 6 0.000000 0.000000 0.000000 -0.029097 0.000000 -0.723092
#
#
# Mechanical properties :
#
#
# Convention : Reuss Voigt Hill
#
# Bulk Modulus (GPa) = 56.91938 59.58893 58.25415
# Shear Modulus (GPa) = -8.52516 31.00373 11.23929
#
# Velocity S-wave (km/s) = -1.80444 3.44111 2.07186
# Velocity P-wave (km/s) = 4.17107 6.20863 5.28890
#
# Compressibility (1/GPa) = 0.01756871
#
# Stress axis : x y z
#
# Youngs Moduli (GPa) = 69.30410 132.55381 57.70415
#
# Poissons Ratio (x) = -0.20054 0.47703
# Poissons Ratio (y) = -0.10485 0.23735
# Poissons Ratio (z) = 0.57292 0.54523
#
# Static dielectric constant tensor:
#      x y z
#    x 2.105200 0.000000 0.007260 
#    y 0.000000 2.103070 0.000000 
#    z 0.007260 0.000000 2.123750 
# 
# From -- ./inp_files/270190.got.cif
#   From: 2010.05.17/outbox.cif.g08.bks.cpg/sg15_136_cif.got.tgz:270190.got - 2010.06.03 18:47:42.
