data_PCOD9259054
_publ_section_title
;
Structure prediction by ZEFSAII (Michael W. Deem and Ramdas Pophale) SiO2 
 PCOD9259054
Probable space group: C 2/C
;
_chemical_formula_sum "Si O2"
_cell_formula_units_Z 44
_cell_length_a 11.758857
_cell_length_b 12.614751
_cell_length_c 18.339523
_cell_angle_alpha 90.000000
_cell_angle_beta 134.245304
_cell_angle_gamma 90.000000
_cell_volume 1948.779170
_symmetry_space_group_name_H-M "C 2/C"
_symmetry_group_IT_number 15
_symmetry_cell_setting 'monoclinic'
loop_
_space_group_symop_operation_xyz
x,y,z
-x,y,1/2-z
-x,-y,-z
x,-y,1/2+z
1/2+x,1/2+y,z
1/2-x,1/2+y,1/2-z
1/2-x,1/2-y,-z
1/2+x,1/2-y,1/2+z
loop_
_atom_site_type_symbol
_atom_site_label
_atom_site_fract_x
_atom_site_fract_y
_atom_site_fract_z
Si Si1 0.222863 0.941617 0.530757
Si Si2 0.689292 0.978174 0.092028
Si Si3 0.728721 0.601234 0.718643
Si Si4 0.000000 0.486617 0.750000
Si Si5 0.655898 0.694576 0.276347
Si Si6 0.975661 0.096435 0.423559
O O1 0.243129 0.931065 0.453516
O O2 0.106757 0.882250 0.536034
O O3 0.391661 0.924203 0.644598
O O4 0.160411 0.065130 0.511595
O O5 0.734366 0.901782 0.179151
O O6 0.773751 0.089948 0.152952
O O7 0.500000 0.000000 0.000000
O O8 0.882619 0.553393 0.747621
O O9 0.710543 0.717219 0.676810
O O10 0.594255 0.515103 0.640617
O O11 0.500000 0.729731 0.250000
O O12 0.582733 0.675209 0.163381
#
# Coordination Sequence:
#
# PCOD9259054 Si02
#       6
#     8   8   8   4   8   8
#     4  10  19  38  62  88 122 174 206 250 324 375
#     4  11  22  40  65  94 130 168 211 260 321 381
#     4  10  21  37  62  95 128 155 208 273 318 361
#     4  10  18  34  58  92 126 154 208 274 304 358
#     4  11  21  40  67  98 121 165 217 265 310 376
#     4   9  21  39  62  90 128 166 206 260 323 373
#
# _framework density 22.578236
#
# number of rings (size 3 to 8) (size 9 to 14) (size 15 to 20)
#    0.000    1.818    4.545    0.000    0.000    0.000 
#    9.818    6.364    4.000    0.000    0.000    0.000 
#    0.000    0.000    0.000    0.000    0.000    0.000 
#
# Total GULP energy -122576.307129 kJ/mol
# GULP energy per Si atom -5571.650324 kJ/mol
# Density = 2.252685 g / cm^3
# Si number density = 22.578236 Si / 1000 Ang^3
#
#
#
# Elastic Constant Matrix: (Units=GPa)
#
#
# Indices 1 2 3 4 5 6 
#
# 1 108.2978 5.8844 60.0059 0.0000 -46.4052 0.0000
# 2 5.8844 52.3778 12.1613 0.0000 -10.7420 0.0000
# 3 60.0059 12.1613 112.8361 0.0000 -26.6163 0.0000
# 4 0.0000 0.0000 0.0000 10.5930 0.0000 5.2095
# 5 -46.4052 -10.7420 -26.6163 0.0000 60.3959 0.0000
# 6 0.0000 0.0000 0.0000 5.2095 0.0000 13.8937
#
#
#
# Elastic Compliance Matrix: (Units=1/GPa)
#
#
# Indices 1 2 3 4 5 6 
#
# 1 0.017665 0.001867 -0.007048 0.000000 0.010799 0.000000
# 2 0.001867 0.020229 -0.002216 0.000000 0.004055 0.000000
# 3 -0.007048 -0.002216 0.012811 0.000000 -0.000164 0.000000
# 4 0.000000 0.000000 0.000000 0.115744 0.000000 -0.043399
# 5 0.010799 0.004055 -0.000164 0.000000 0.025504 0.000000
# 6 0.000000 0.000000 0.000000 -0.043399 0.000000 0.088248
#
#
# Mechanical properties :
#
#
# Convention : Reuss Voigt Hill
#
# Bulk Modulus (GPa) = 27.84841 47.73499 37.79170
# Shear Modulus (GPa) = 16.28852 30.00720 23.14786
#
# Velocity S-wave (km/s) = 2.68885 3.64954 3.20539
# Velocity P-wave (km/s) = 4.69051 6.24074 5.52031
#
# Compressibility (1/GPa) = 0.03590870
#
# Stress axis : x y z
#
# Youngs Moduli (GPa) = 56.60995 49.43488 78.05960
#
# Poissons Ratio (x) = -0.09227 0.55016
# Poissons Ratio (y) = -0.10567 0.17300
# Poissons Ratio (z) = 0.39899 0.10956
#
# Static dielectric constant tensor:
#      x y z
#    x 1.870270 0.000000 0.062510 
#    y 0.000000 1.861900 0.000000 
#    z 0.062510 0.000000 1.981330 
# 
# From -- ./inp_files/198085.got.cif
#   From: 2010.05.17/outbox.cif.g08.bks.cpg/sg15_100_cif.got.tgz:198085.got - 2010.06.03 18:47:42.
