data_PCOD9259719
_publ_section_title
;
Structure prediction by ZEFSAII (Michael W. Deem and Ramdas Pophale) SiO2 
 PCOD9259719
Probable space group: C 2/C
;
_chemical_formula_sum "Si O2"
_cell_formula_units_Z 56
_cell_length_a 11.499622
_cell_length_b 30.369764
_cell_length_c 10.584147
_cell_angle_alpha 90.000000
_cell_angle_beta 50.343417
_cell_angle_gamma 90.000000
_cell_volume 2845.809242
_symmetry_space_group_name_H-M "C 2/C"
_symmetry_group_IT_number 15
_symmetry_cell_setting 'monoclinic'
loop_
_space_group_symop_operation_xyz
x,y,z
-x,y,1/2-z
-x,-y,-z
x,-y,1/2+z
1/2+x,1/2+y,z
1/2-x,1/2+y,1/2-z
1/2-x,1/2-y,-z
1/2+x,1/2-y,1/2+z
loop_
_atom_site_type_symbol
_atom_site_label
_atom_site_fract_x
_atom_site_fract_y
_atom_site_fract_z
Si Si1 0.893882 0.467585 0.446194
Si Si2 0.833856 0.359140 0.924453
Si Si3 0.297296 0.698576 0.188101
Si Si4 0.212525 0.898888 0.433317
Si Si5 0.034333 0.286253 0.490999
Si Si6 0.676980 0.060947 0.891883
Si Si7 0.500000 0.833814 0.250000
Si Si8 0.000000 0.844346 0.750000
O O1 0.757786 0.437815 0.495869
O O2 0.826853 0.510364 0.560934
O O3 0.000000 0.479620 0.250000
O O4 0.005336 0.437577 0.454526
O O5 0.719517 0.341739 0.897950
O O6 0.000000 0.364437 0.750000
O O7 0.856624 0.321195 0.014549
O O8 0.796342 0.405410 0.013724
O O9 0.392913 0.738415 0.065211
O O10 0.372003 0.684148 0.268554
O O11 0.125909 0.714508 0.327650
O O12 0.214033 0.922242 0.295601
O O13 0.353183 0.864838 0.340554
O O14 0.071658 0.873378 0.588238
O O15 0.001168 0.304105 0.373820
#
# Coordination Sequence:
#
# PCOD9259719 Si02
#       8
#     8   8   8   8   8   8   4   4
#     4   9  18  33  62 103 127 154 206 263 301 358
#     4  10  21  38  61  93 127 164 203 261 317 373
#     4  11  26  41  62  90 124 165 211 261 320 374
#     4  11  21  40  62  93 125 162 207 261 306 366
#     4  11  23  40  62  93 122 159 208 261 319 378
#     4  10  18  35  65  96 125 161 206 254 312 364
#     4  12  19  38  70  88 124 160 208 264 309 374
#     4  12  27  44  60  92 126 168 212 262 311 382
#
# _framework density 19.678058
#
# number of rings (size 3 to 8) (size 9 to 14) (size 15 to 20)
#    0.000    1.429    5.000    1.286    4.000    1.143 
#    0.000    2.857    0.000    0.000    0.000    0.000 
#    0.000    0.000    0.000    0.000    0.000    0.000 
#
# Total GULP energy -156254.704999 kJ/mol
# GULP energy per Si atom -5580.525179 kJ/mol
# Density = 1.963327 g / cm^3
# Si number density = 19.678058 Si / 1000 Ang^3
#
#
#
# Elastic Constant Matrix: (Units=GPa)
#
#
# Indices 1 2 3 4 5 6 
#
# 1 58.6444 14.9753 3.7113 0.0000 9.0741 0.0000
# 2 14.9753 62.6574 19.1199 0.0000 -6.7473 0.0000
# 3 3.7113 19.1199 48.6005 0.0000 -7.9002 0.0000
# 4 0.0000 0.0000 0.0000 -7.2374 0.0000 6.0290
# 5 9.0741 -6.7473 -7.9002 0.0000 23.9913 0.0000
# 6 0.0000 0.0000 0.0000 6.0290 0.0000 7.0974
#
#
#
# Elastic Compliance Matrix: (Units=1/GPa)
#
#
# Indices 1 2 3 4 5 6 
#
# 1 0.019970 -0.005515 -0.000882 0.000000 -0.009395 0.000000
# 2 -0.005515 0.019854 -0.006490 0.000000 0.005533 0.000000
# 3 -0.000882 -0.006490 0.024252 0.000000 0.006495 0.000000
# 4 0.000000 0.000000 0.000000 -0.080914 0.000000 0.068734
# 5 -0.009395 0.005533 0.006495 0.000000 0.048930 0.000000
# 6 0.000000 0.000000 0.000000 0.068734 0.000000 0.082510
#
#
# Mechanical properties :
#
#
# Convention : Reuss Voigt Hill
#
# Bulk Modulus (GPa) = 26.10930 27.27946 26.69438
# Shear Modulus (GPa) = 32.64891 13.57666 23.11278
#
# Velocity S-wave (km/s) = 4.07769 2.62952 3.43088
# Velocity P-wave (km/s) = 5.95543 4.80751 5.41199
#
# Compressibility (1/GPa) = 0.03830052
#
# Stress axis : x y z
#
# Youngs Moduli (GPa) = 50.07570 50.36694 41.23307
#
# Poissons Ratio (x) = 0.27779 0.03638
# Poissons Ratio (y) = 0.27618 0.26762
# Poissons Ratio (z) = 0.04418 0.32690
#
# Static dielectric constant tensor:
#      x y z
#    x 1.695250 0.000000 0.030830 
#    y 0.000000 1.672190 0.000000 
#    z 0.030830 0.000000 1.711370 
# 
# From -- ./inp_files/92035.got.cif
#   From: 2010.05.17/outbox.cif.g08.bks.cpg/sg15_47_cif.got.tgz:92035.got - 2010.06.03 18:47:42.
