data_PCOD9259120
_publ_section_title
;
Structure prediction by ZEFSAII (Michael W. Deem and Ramdas Pophale) SiO2 
 PCOD9259120
Probable space group: C 2/C
;
_chemical_formula_sum "Si O2"
_cell_formula_units_Z 52
_cell_length_a 11.693412
_cell_length_b 14.548322
_cell_length_c 19.523950
_cell_angle_alpha 90.000000
_cell_angle_beta 126.256848
_cell_angle_gamma 90.000000
_cell_volume 2678.294437
_symmetry_space_group_name_H-M "C 2/C"
_symmetry_group_IT_number 15
_symmetry_cell_setting 'monoclinic'
loop_
_space_group_symop_operation_xyz
x,y,z
-x,y,1/2-z
-x,-y,-z
x,-y,1/2+z
1/2+x,1/2+y,z
1/2-x,1/2+y,1/2-z
1/2-x,1/2-y,-z
1/2+x,1/2-y,1/2+z
loop_
_atom_site_type_symbol
_atom_site_label
_atom_site_fract_x
_atom_site_fract_y
_atom_site_fract_z
Si Si1 0.228452 0.473483 0.571754
Si Si2 0.966895 0.649972 0.971476
Si Si3 0.500000 0.784472 0.750000
Si Si4 0.419983 0.729957 0.864323
Si Si5 0.856103 0.149882 0.235518
Si Si6 0.565727 0.562195 0.965745
Si Si7 0.816215 0.169272 0.370172
O O1 0.137762 0.564196 0.557042
O O2 0.294765 0.430112 0.664452
O O3 0.346134 0.507192 0.559569
O O4 0.118128 0.396047 0.503327
O O5 0.890148 0.729429 0.899801
O O6 0.002013 0.700043 0.056050
O O7 0.499122 0.729204 0.819807
O O8 0.352089 0.836507 0.700808
O O9 0.261064 0.768913 0.803673
O O10 0.438553 0.626579 0.895032
O O11 0.879668 0.123128 0.323612
O O12 0.000000 0.180652 0.250000
O O13 0.500000 0.500000 0.000000
O O14 0.663447 0.628449 0.046989
#
# Coordination Sequence:
#
# PCOD9259120 Si02
#       7
#     8   8   4   8   8   8   8
#     4  10  20  36  62  88 115 148 196 243 290 337
#     4   9  19  38  61  85 113 154 194 238 288 352
#     4  10  18  34  60  86 108 142 186 244 284 340
#     4   9  20  37  60  83 114 153 196 236 289 350
#     4  10  21  39  56  84 120 156 188 239 294 351
#     4  11  22  38  57  85 114 155 198 241 283 342
#     4  10  21  38  59  83 120 154 194 237 295 349
#
# _framework density 19.415341000000002
#
# number of rings (size 3 to 8) (size 9 to 14) (size 15 to 20)
#    0.000    2.154    0.000    2.769    0.000    4.923 
#   16.615    4.615    1.692    0.000    0.000    0.000 
#    0.000    0.000    0.000    0.000    0.000    0.000 
#
# Total GULP energy -144750.045681 kJ/mol
# GULP energy per Si atom -5567.309449 kJ/mol
# Density = 1.937115 g / cm^3
# Si number density = 19.415341 Si / 1000 Ang^3
#
#
#
# Elastic Constant Matrix: (Units=GPa)
#
#
# Indices 1 2 3 4 5 6 
#
# 1 98.5194 46.9872 31.8198 0.0000 -3.9534 0.0000
# 2 46.9872 85.9183 23.0229 0.0000 -1.9895 0.0000
# 3 31.8198 23.0229 60.6546 0.0000 1.2454 0.0000
# 4 0.0000 0.0000 0.0000 -2.7936 0.0000 -12.0794
# 5 -3.9534 -1.9895 1.2454 0.0000 28.7851 0.0000
# 6 0.0000 0.0000 0.0000 -12.0794 0.0000 22.2378
#
#
#
# Elastic Compliance Matrix: (Units=1/GPa)
#
#
# Indices 1 2 3 4 5 6 
#
# 1 0.015241 -0.006835 -0.005440 0.000000 0.001856 0.000000
# 2 -0.006835 0.016057 -0.002515 0.000000 0.000280 0.000000
# 3 -0.005440 -0.002515 0.020332 0.000000 -0.001801 0.000000
# 4 0.000000 0.000000 0.000000 -0.106893 0.000000 -0.058064
# 5 0.001856 0.000280 -0.001801 0.000000 0.035092 0.000000
# 6 0.000000 0.000000 0.000000 -0.058064 0.000000 0.013429
#
#
# Mechanical properties :
#
#
# Convention : Reuss Voigt Hill
#
# Bulk Modulus (GPa) = 45.34757 49.86134 47.60446
# Shear Modulus (GPa) = 165.63282 19.19668 92.41475
#
# Velocity S-wave (km/s) = 9.24638 3.14783 6.90668
# Velocity P-wave (km/s) = 11.72183 6.24091 9.39016
#
# Compressibility (1/GPa) = 0.02205190
#
# Stress axis : x y z
#
# Youngs Moduli (GPa) = 65.61122 62.27762 49.18346
#
# Poissons Ratio (x) = 0.42564 0.26754
# Poissons Ratio (y) = 0.44843 0.12370
# Poissons Ratio (z) = 0.35690 0.15664
#
# Static dielectric constant tensor:
#      x y z
#    x 1.596420 0.000000 0.115890 
#    y 0.000000 1.907810 0.000000 
#    z 0.115890 0.000000 1.773800 
# 
# From -- ./inp_files/197315.got.cif
#   From: 2010.05.17/outbox.cif.g08.bks.cpg/sg15_99_cif.got.tgz:197315.got - 2010.06.03 18:47:42.
