data_PCOD9259511
_publ_section_title
;
Structure prediction by ZEFSAII (Michael W. Deem and Ramdas Pophale) SiO2 
 PCOD9259511
Probable space group: C 2/C
;
_chemical_formula_sum "Si O2"
_cell_formula_units_Z 48
_cell_length_a 21.164091
_cell_length_b 17.129833
_cell_length_c 11.524832
_cell_angle_alpha 90.000000
_cell_angle_beta 150.911059
_cell_angle_gamma 90.000000
_cell_volume 2031.293030
_symmetry_space_group_name_H-M "C 2/C"
_symmetry_group_IT_number 15
_symmetry_cell_setting 'monoclinic'
loop_
_space_group_symop_operation_xyz
x,y,z
-x,y,1/2-z
-x,-y,-z
x,-y,1/2+z
1/2+x,1/2+y,z
1/2-x,1/2+y,1/2-z
1/2-x,1/2-y,-z
1/2+x,1/2-y,1/2+z
loop_
_atom_site_type_symbol
_atom_site_label
_atom_site_fract_x
_atom_site_fract_y
_atom_site_fract_z
Si Si1 0.552587 0.373483 0.596767
Si Si2 0.743082 0.128232 0.878664
Si Si3 0.398480 0.737928 0.982816
Si Si4 0.546266 0.103008 0.010904
Si Si5 0.097985 0.456103 0.826338
Si Si6 0.849095 0.994015 0.379966
O O1 0.459580 0.298144 0.462813
O O2 0.466366 0.437694 0.528485
O O3 0.597210 0.418026 0.551497
O O4 0.678971 0.355898 0.877793
O O5 0.593114 0.131225 0.666839
O O6 0.793525 0.044789 0.908496
O O7 0.775396 0.190235 0.829695
O O8 0.500000 0.721267 0.250000
O O9 0.387196 0.830307 0.956717
O O10 0.501374 0.025730 0.871441
O O11 0.630889 0.085289 0.259220
O O12 0.000000 0.406870 0.750000
O O13 0.228560 0.483823 0.097464
#
# Coordination Sequence:
#
# PCOD9259511 Si02
#       6
#     8   8   8   8   8   8
#     4   9  19  35  59  83 108 144 186 234 274 318
#     4  10  19  37  59  82 113 146 179 237 280 320
#     4   9  20  37  55  83 111 144 186 228 279 324
#     4  11  22  37  57  83 114 146 188 225 279 332
#     4  11  22  37  57  83 114 149 180 230 277 330
#     4  10  18  35  59  82 108 146 187 222 278 332
#
# _framework density 23.630268000000001
#
# number of rings (size 3 to 8) (size 9 to 14) (size 15 to 20)
#    0.000    2.000    3.333    2.000    0.000    2.667 
#    3.000    3.333    0.000    2.000    0.000    0.000 
#    0.000    0.000    0.000    0.000    0.000    0.000 
#
# Total GULP energy -133948.278594 kJ/mol
# GULP energy per Si atom -5581.178275 kJ/mol
# Density = 2.357648 g / cm^3
# Si number density = 23.630268 Si / 1000 Ang^3
#
#
#
# Elastic Constant Matrix: (Units=GPa)
#
#
# Indices 1 2 3 4 5 6 
#
# 1 66.5334 15.4595 1.9483 0.0000 14.8806 0.0000
# 2 15.4595 52.9253 -11.4272 0.0000 4.2093 0.0000
# 3 1.9483 -11.4272 59.2240 0.0000 10.5161 0.0000
# 4 0.0000 0.0000 0.0000 11.3334 0.0000 -5.7562
# 5 14.8806 4.2093 10.5161 0.0000 28.0084 0.0000
# 6 0.0000 0.0000 0.0000 -5.7562 0.0000 27.3134
#
#
#
# Elastic Compliance Matrix: (Units=1/GPa)
#
#
# Indices 1 2 3 4 5 6 
#
# 1 0.018089 -0.004544 0.000122 0.000000 -0.008973 0.000000
# 2 -0.004544 0.021454 0.004749 0.000000 -0.002593 0.000000
# 3 0.000122 0.004749 0.019217 0.000000 -0.007994 0.000000
# 4 0.000000 0.000000 0.000000 0.098811 0.000000 0.020824
# 5 -0.008973 -0.002593 -0.007994 0.000000 0.043862 0.000000
# 6 0.000000 0.000000 0.000000 0.020824 0.000000 0.041001
#
#
# Mechanical properties :
#
#
# Convention : Reuss Voigt Hill
#
# Bulk Modulus (GPa) = 16.83119 21.18265 19.00692
# Shear Modulus (GPa) = 19.11429 24.84451 21.97940
#
# Velocity S-wave (km/s) = 2.84718 3.24602 3.05312
# Velocity P-wave (km/s) = 4.23637 4.79923 4.52655
#
# Compressibility (1/GPa) = 0.05941350
#
# Stress axis : x y z
#
# Youngs Moduli (GPa) = 55.28144 46.61238 52.03777
#
# Poissons Ratio (x) = 0.21180 -0.00632
# Poissons Ratio (y) = 0.25120 -0.24715
# Poissons Ratio (z) = -0.00672 -0.22138
#
# Static dielectric constant tensor:
#      x y z
#    x 1.972820 0.000000 -0.029460 
#    y 0.000000 1.990580 0.000000 
#    z -0.029460 0.000000 1.853040 
# 
# From -- ./inp_files/119482.got.cif
#   From: 2010.05.17/outbox.cif.g08.bks.cpg/sg15_60_cif.got.tgz:119482.got - 2010.06.03 18:47:42.
