data_PCOD9259777
_publ_section_title
;
Structure prediction by ZEFSAII (Michael W. Deem and Ramdas Pophale) SiO2 
 PCOD9259777
Probable space group: C 2/C
;
_chemical_formula_sum "Si O2"
_cell_formula_units_Z 40
_cell_length_a 14.575669
_cell_length_b 12.205764
_cell_length_c 12.033264
_cell_angle_alpha 90.000000
_cell_angle_beta 97.911183
_cell_angle_gamma 90.000000
_cell_volume 2120.429166
_symmetry_space_group_name_H-M "C 2/C"
_symmetry_group_IT_number 15
_symmetry_cell_setting 'monoclinic'
loop_
_space_group_symop_operation_xyz
x,y,z
-x,y,1/2-z
-x,-y,-z
x,-y,1/2+z
1/2+x,1/2+y,z
1/2-x,1/2+y,1/2-z
1/2-x,1/2-y,-z
1/2+x,1/2-y,1/2+z
loop_
_atom_site_type_symbol
_atom_site_label
_atom_site_fract_x
_atom_site_fract_y
_atom_site_fract_z
Si Si1 0.766663 0.095758 0.458636
Si Si2 0.360074 0.264124 0.151785
Si Si3 0.307606 0.641703 0.039769
Si Si4 0.936477 0.847912 0.370911
Si Si5 0.903140 0.903689 0.783509
O O1 0.673441 0.146304 0.393495
O O2 0.790334 0.151938 0.580165
O O3 0.849382 0.131226 0.387111
O O4 0.763562 0.966359 0.475997
O O5 0.365397 0.277104 0.284812
O O6 0.461907 0.299784 0.128701
O O7 0.406058 0.650834 0.992495
O O8 0.250000 0.750000 0.000000
O O9 0.330188 0.614911 0.171302
O O10 0.927057 0.969875 0.318703
O O11 0.000000 0.856838 0.750000
#
# Coordination Sequence:
#
# PCOD9259777 Si02
#       5
#     8   8   8   8   8
#     4  10  21  33  56  81 109 141 176 231 272 324
#     4  10  18  36  55  82 105 137 185 226 272 320
#     4  11  22  36  54  81 115 145 181 226 274 324
#     4  10  19  34  58  81 106 143 183 229 266 321
#     4  11  19  34  57  83 108 138 186 227 270 316
#
# _framework density 18.864104000000001
#
# number of rings (size 3 to 8) (size 9 to 14) (size 15 to 20)
#    0.000    1.600    4.000    2.400    0.000    3.200 
#    0.000    1.000    4.400    0.000    0.000    0.000 
#    0.000    0.000    0.000    0.000    0.000    0.000 
#
# Total GULP energy -111417.318660 kJ/mol
# GULP energy per Si atom -5570.865933 kJ/mol
# Density = 1.882117 g / cm^3
# Si number density = 18.864104 Si / 1000 Ang^3
#
#
#
# Elastic Constant Matrix: (Units=GPa)
#
#
# Indices 1 2 3 4 5 6 
#
# 1 47.0944 25.7451 9.9925 0.0000 6.8129 0.0000
# 2 25.7451 76.3240 12.3776 0.0000 3.0146 0.0000
# 3 9.9925 12.3776 88.3165 0.0000 1.4670 0.0000
# 4 0.0000 0.0000 0.0000 18.3599 0.0000 7.1281
# 5 6.8129 3.0146 1.4670 0.0000 21.0169 0.0000
# 6 0.0000 0.0000 0.0000 7.1281 0.0000 29.6939
#
#
#
# Elastic Compliance Matrix: (Units=1/GPa)
#
#
# Indices 1 2 3 4 5 6 
#
# 1 0.027438 -0.008672 -0.001764 0.000000 -0.007527 0.000000
# 2 -0.008672 0.016215 -0.001301 0.000000 0.000576 0.000000
# 3 -0.001764 -0.001301 0.011706 0.000000 -0.000059 0.000000
# 4 0.000000 0.000000 0.000000 0.060064 0.000000 -0.014419
# 5 -0.007527 0.000576 -0.000059 0.000000 0.049942 0.000000
# 6 0.000000 0.000000 0.000000 -0.014419 0.000000 0.037138
#
#
# Mechanical properties :
#
#
# Convention : Reuss Voigt Hill
#
# Bulk Modulus (GPa) = 31.36233 34.21837 32.79035
# Shear Modulus (GPa) = 21.13219 24.72212 22.92716
#
# Velocity S-wave (km/s) = 3.35062 3.62406 3.49002
# Velocity P-wave (km/s) = 5.62409 5.97416 5.80176
#
# Compressibility (1/GPa) = 0.03188539
#
# Stress axis : x y z
#
# Youngs Moduli (GPa) = 36.44611 61.66995 85.42765
#
# Poissons Ratio (x) = 0.53479 0.15070
# Poissons Ratio (y) = 0.31605 0.11114
# Poissons Ratio (z) = 0.06429 0.08023
#
# Static dielectric constant tensor:
#      x y z
#    x 1.682790 0.000000 -0.017650 
#    y 0.000000 1.663780 0.000000 
#    z -0.017650 0.000000 1.687610 
# 
# From -- ./inp_files/94518.got.cif
#   From: 2010.05.17/outbox.cif.g08.bks.cpg/sg15_48_cif.got.tgz:94518.got - 2010.06.03 18:47:42.
