data_PCOD9259863
_publ_section_title
;
Structure prediction by ZEFSAII (Michael W. Deem and Ramdas Pophale) SiO2 
 PCOD9259863
Probable space group: C 2/C
;
_chemical_formula_sum "Si O2"
_cell_formula_units_Z 52
_cell_length_a 10.388384
_cell_length_b 26.735493
_cell_length_c 8.803932
_cell_angle_alpha 90.000000
_cell_angle_beta 108.337834
_cell_angle_gamma 90.000000
_cell_volume 2321.019586
_symmetry_space_group_name_H-M "C 2/C"
_symmetry_group_IT_number 15
_symmetry_cell_setting 'monoclinic'
loop_
_space_group_symop_operation_xyz
x,y,z
-x,y,1/2-z
-x,-y,-z
x,-y,1/2+z
1/2+x,1/2+y,z
1/2-x,1/2+y,1/2-z
1/2-x,1/2-y,-z
1/2+x,1/2-y,1/2+z
loop_
_atom_site_type_symbol
_atom_site_label
_atom_site_fract_x
_atom_site_fract_y
_atom_site_fract_z
Si Si1 0.286539 0.668914 0.779352
Si Si2 0.500000 0.868733 0.250000
Si Si3 0.113593 0.435807 0.523470
Si Si4 0.668026 0.738923 0.311229
Si Si5 0.342713 0.434972 0.157560
Si Si6 0.129746 0.867245 0.885514
Si Si7 0.797189 0.485397 0.664013
O O1 0.257686 0.726858 0.727907
O O2 0.306690 0.623662 0.670106
O O3 0.138764 0.660696 0.802083
O O4 0.393063 0.657460 0.955480
O O5 0.502118 0.901288 0.404441
O O6 0.259578 0.409717 0.548903
O O7 0.121274 0.447566 0.700891
O O8 0.112515 0.485667 0.424237
O O9 0.500000 0.745702 0.250000
O O10 0.750000 0.750000 0.500000
O O11 0.681849 0.678973 0.301830
O O12 0.500000 0.440425 0.250000
O O13 0.266762 0.472034 0.249376
O O14 0.308849 0.454798 0.977343
O O15 0.000000 0.887794 0.750000
#
# Coordination Sequence:
#
# PCOD9259863 Si02
#       7
#     8   4   8   8   8   8   8
#     4  10  19  35  56  86 115 151 187 239 303 342
#     4  10  18  36  58  80 118 150 190 244 286 354
#     4  10  21  36  56  83 114 152 192 240 291 343
#     4   9  17  31  56  90 115 147 190 247 298 346
#     4  11  22  37  56  83 118 155 195 241 292 354
#     4   9  18  31  54  85 115 139 188 243 285 341
#     4  10  22  38  53  83 112 156 198 238 296 337
#
# _framework density 22.403946999999999
#
# number of rings (size 3 to 8) (size 9 to 14) (size 15 to 20)
#    0.000    2.154    3.846    0.462    2.154    3.077 
#    0.000    0.000    0.000    0.923    0.000    0.000 
#    0.000    0.000    0.000    0.000    0.000    0.000 
#
# Total GULP energy -144811.533311 kJ/mol
# GULP energy per Si atom -5569.674358 kJ/mol
# Density = 2.235295 g / cm^3
# Si number density = 22.403947 Si / 1000 Ang^3
#
#
#
# Elastic Constant Matrix: (Units=GPa)
#
#
# Indices 1 2 3 4 5 6 
#
# 1 46.3614 -7.0603 25.5734 0.0000 19.3450 0.0000
# 2 -7.0603 63.9590 31.5084 0.0000 1.8931 0.0000
# 3 25.5734 31.5084 119.5885 0.0000 27.8023 0.0000
# 4 0.0000 0.0000 0.0000 14.8508 0.0000 7.5847
# 5 19.3450 1.8931 27.8023 0.0000 36.6200 0.0000
# 6 0.0000 0.0000 0.0000 7.5847 0.0000 11.4408
#
#
#
# Elastic Compliance Matrix: (Units=1/GPa)
#
#
# Indices 1 2 3 4 5 6 
#
# 1 0.030705 0.006393 -0.005346 0.000000 -0.012492 0.000000
# 2 0.006393 0.019620 -0.006698 0.000000 0.000693 0.000000
# 3 -0.005346 -0.006698 0.012790 0.000000 -0.006540 0.000000
# 4 0.000000 0.000000 0.000000 0.101807 0.000000 -0.067494
# 5 -0.012492 0.000693 -0.006540 0.000000 0.038836 0.000000
# 6 0.000000 0.000000 0.000000 -0.067494 0.000000 0.132152
#
#
# Mechanical properties :
#
#
# Convention : Reuss Voigt Hill
#
# Bulk Modulus (GPa) = 19.30024 36.66130 27.98077
# Shear Modulus (GPa) = 13.71808 24.57481 19.14645
#
# Velocity S-wave (km/s) = 2.47717 3.31554 2.92653
# Velocity P-wave (km/s) = 4.10063 5.57282 4.89242
#
# Compressibility (1/GPa) = 0.05181282
#
# Stress axis : x y z
#
# Youngs Moduli (GPa) = 32.56834 50.96937 78.18381
#
# Poissons Ratio (x) = -0.32584 0.41799
# Poissons Ratio (y) = -0.20821 0.52364
# Poissons Ratio (z) = 0.17412 0.34137
#
# Static dielectric constant tensor:
#      x y z
#    x 1.855280 0.000000 -0.006950 
#    y 0.000000 1.970470 0.000000 
#    z -0.006950 0.000000 1.829660 
# 
# From -- ./inp_files/33708.got.cif
#   From: 2010.05.17/outbox.cif.g08.bks.cpg/sg15_17_cif.got.tgz:33708.got - 2010.06.03 18:47:42.
