data_PCOD9259962
_publ_section_title
;
Structure prediction by ZEFSAII (Michael W. Deem and Ramdas Pophale) SiO2 
 PCOD9259962
Probable space group: C 2/C
;
_chemical_formula_sum "Si O2"
_cell_formula_units_Z 44
_cell_length_a 27.438390
_cell_length_b 17.321992
_cell_length_c 16.585943
_cell_angle_alpha 90.000000
_cell_angle_beta 19.195962
_cell_angle_gamma 90.000000
_cell_volume 2591.961547
_symmetry_space_group_name_H-M "C 2/C"
_symmetry_group_IT_number 15
_symmetry_cell_setting 'monoclinic'
loop_
_space_group_symop_operation_xyz
x,y,z
-x,y,1/2-z
-x,-y,-z
x,-y,1/2+z
1/2+x,1/2+y,z
1/2-x,1/2+y,1/2-z
1/2-x,1/2-y,-z
1/2+x,1/2-y,1/2+z
loop_
_atom_site_type_symbol
_atom_site_label
_atom_site_fract_x
_atom_site_fract_y
_atom_site_fract_z
Si Si1 0.000000 0.441576 0.750000
Si Si2 0.261556 0.665703 0.152332
Si Si3 0.408061 0.447602 0.971110
Si Si4 0.538290 0.387655 0.309091
Si Si5 0.196839 0.156073 0.725423
Si Si6 0.084811 0.480972 0.950744
O O1 0.145007 0.387557 0.526060
O O2 0.007788 0.491285 0.654632
O O3 0.218842 0.753046 0.201759
O O4 0.126629 0.609628 0.386093
O O5 0.342018 0.629794 0.947700
O O6 0.389889 0.659890 0.019262
O O7 0.500000 0.422956 0.750000
O O8 0.490029 0.522921 0.879880
O O9 0.389406 0.381052 0.065058
O O10 0.244107 0.475874 0.201894
O O11 0.607472 0.363299 0.284638
O O12 0.000000 0.500000 0.000000
#
# Coordination Sequence:
#
# PCOD9259962 Si02
#       6
#     4   8   8   8   8   8
#     4  10  22  34  54  88 108 144 194 230 272 350
#     4  10  20  35  55  85 113 140 185 237 275 329
#     4  10  20  38  56  82 110 150 192 222 266 351
#     4  10  18  36  60  77 110 149 187 224 280 328
#     4  11  22  34  58  87 109 141 189 238 275 321
#     4  10  20  37  58  80 115 151 183 233 285 330
#
# _framework density 16.975560999999999
#
# number of rings (size 3 to 8) (size 9 to 14) (size 15 to 20)
#    0.000    1.818    3.636    3.273    0.000    2.909 
#    1.636    0.000    0.000    2.182    0.000    0.000 
#    0.000    0.000    0.000    0.000    0.000    0.000 
#
# Total GULP energy -122755.394098 kJ/mol
# GULP energy per Si atom -5579.790641 kJ/mol
# Density = 1.693692 g / cm^3
# Si number density = 16.975561 Si / 1000 Ang^3
#
#
#
# Elastic Constant Matrix: (Units=GPa)
#
#
# Indices 1 2 3 4 5 6 
#
# 1 123.5193 42.2604 47.0789 0.0007 -4.9079 -0.0004
# 2 42.2604 96.7494 52.6270 0.0012 3.2047 -0.0007
# 3 47.0789 52.6270 69.6840 0.0007 16.7577 0.0000
# 4 0.0007 0.0012 0.0007 28.6026 0.0001 -8.1329
# 5 -4.9079 3.2047 16.7577 0.0001 24.0521 0.0000
# 6 -0.0004 -0.0007 0.0000 -8.1329 0.0000 16.2247
#
#
#
# Elastic Compliance Matrix: (Units=1/GPa)
#
#
# Indices 1 2 3 4 5 6 
#
# 1 0.012732 0.000232 -0.011285 0.000000 0.010430 0.000000
# 2 0.000232 0.019036 -0.016739 0.000000 0.009173 0.000001
# 3 -0.011285 -0.016739 0.041605 0.000000 -0.029060 -0.000001
# 4 0.000000 0.000000 0.000000 0.040773 0.000000 0.020438
# 5 0.010430 0.009173 -0.029060 0.000000 0.062729 0.000001
# 6 0.000000 0.000001 -0.000001 0.020438 0.000001 0.071879
#
#
# Mechanical properties :
#
#
# Convention : Reuss Voigt Hill
#
# Bulk Modulus (GPa) = 56.21727 63.76502 59.99114
# Shear Modulus (GPa) = 16.11502 23.64164 19.87833
#
# Velocity S-wave (km/s) = 3.08443 3.73592 3.42570
# Velocity P-wave (km/s) = 6.77299 7.50026 7.14588
#
# Compressibility (1/GPa) = 0.01778813
#
# Stress axis : x y z
#
# Youngs Moduli (GPa) = 78.53990 52.53144 24.03568
#
# Poissons Ratio (x) = -0.01216 0.27125
# Poissons Ratio (y) = -0.01819 0.40233
# Poissons Ratio (z) = 0.88633 0.87933
#
# Static dielectric constant tensor:
#      x y z
#    x 1.582040 0.000000 0.004800 
#    y 0.000000 1.557040 0.000000 
#    z 0.004800 0.000000 1.575190 
# 
# From -- ./inp_files/86057.got.cif
#   From: 2010.05.17/outbox.cif.g08.bks.cpg/sg15_44_cif.got.tgz:86057.got - 2010.06.03 18:47:42.
