data_PCOD9259192
_publ_section_title
;
Structure prediction by ZEFSAII (Michael W. Deem and Ramdas Pophale) SiO2 
 PCOD9259192
Probable space group: C 2/C
;
_chemical_formula_sum "Si O2"
_cell_formula_units_Z 48
_cell_length_a 14.408353
_cell_length_b 12.768071
_cell_length_c 27.628219
_cell_angle_alpha 90.000000
_cell_angle_beta 158.189634
_cell_angle_gamma 90.000000
_cell_volume 1888.396558
_symmetry_space_group_name_H-M "C 2/C"
_symmetry_group_IT_number 15
_symmetry_cell_setting 'monoclinic'
loop_
_space_group_symop_operation_xyz
x,y,z
-x,y,1/2-z
-x,-y,-z
x,-y,1/2+z
1/2+x,1/2+y,z
1/2-x,1/2+y,1/2-z
1/2-x,1/2-y,-z
1/2+x,1/2-y,1/2+z
loop_
_atom_site_type_symbol
_atom_site_label
_atom_site_fract_x
_atom_site_fract_y
_atom_site_fract_z
Si Si1 0.610779 0.933292 0.702261
Si Si2 0.500000 0.068330 0.250000
Si Si3 0.133831 0.637130 0.659495
Si Si4 0.573805 0.258139 0.530416
Si Si5 0.818821 0.872202 0.062981
Si Si6 0.097580 0.880592 0.897545
Si Si7 0.000000 0.239552 0.250000
O O1 0.560826 0.989164 0.729254
O O2 0.361040 0.869860 0.570209
O O3 0.872139 0.872481 0.826851
O O4 0.642142 0.012268 0.672758
O O5 0.740389 0.143801 0.373352
O O6 0.114138 0.681344 0.596109
O O7 0.401026 0.669217 0.810064
O O8 0.859245 0.657698 0.547548
O O9 0.674855 0.187476 0.535390
O O10 0.280844 0.289233 0.383725
O O11 0.854133 0.996212 0.090770
O O12 0.021845 0.826468 0.810622
#
# Coordination Sequence:
#
# PCOD9259192 Si02
#       7
#     8   4   8   8   8   8   4
#     4  10  22  39  59  91 129 170 209 259 318 370
#     4  12  26  43  60  88 135 178 208 252 314 391
#     4   9  19  36  61  95 122 158 213 268 306 370
#     4  11  21  38  62  96 128 163 209 261 324 375
#     4  10  18  34  61  94 121 161 207 259 310 376
#     4   9  19  32  59  91 126 155 204 263 314 359
#     4  10  20  33  58  96 123 160 202 270 318 367
#
# _framework density 25.418389000000001
#
# number of rings (size 3 to 8) (size 9 to 14) (size 15 to 20)
#    0.000    2.000    3.333    0.000    4.667    2.667 
#    0.000   12.500    0.000    0.000    0.000    0.000 
#    0.000    0.000    0.000    0.000    0.000    0.000 
#
# Total GULP energy -133941.769883 kJ/mol
# GULP energy per Si atom -5580.907078 kJ/mol
# Density = 2.536054 g / cm^3
# Si number density = 25.418389 Si / 1000 Ang^3
#
#
#
# Elastic Constant Matrix: (Units=GPa)
#
#
# Indices 1 2 3 4 5 6 
#
# 1 101.3969 9.4268 31.2486 0.0020 3.6438 0.0007
# 2 9.4268 61.6036 19.9467 -0.0042 -0.4176 0.0005
# 3 31.2486 19.9467 231.8612 -0.0005 37.6761 0.0020
# 4 0.0020 -0.0042 -0.0005 0.3512 0.0007 10.6653
# 5 3.6438 -0.4176 37.6761 0.0007 37.7444 0.0010
# 6 0.0007 0.0005 0.0020 10.6653 0.0010 28.5574
#
#
#
# Elastic Compliance Matrix: (Units=1/GPa)
#
#
# Indices 1 2 3 4 5 6 
#
# 1 0.010374 -0.001147 -0.001354 0.000007 0.000338 -0.000003
# 2 -0.001147 0.016944 -0.001613 -0.000020 0.001908 0.000007
# 3 -0.001354 -0.001613 0.005510 -0.000001 -0.005387 0.000000
# 4 0.000007 -0.000020 -0.000001 -0.275338 0.000003 0.102830
# 5 0.000338 0.001908 -0.005387 0.000003 0.031859 -0.000002
# 6 -0.000003 0.000007 0.000000 0.102830 -0.000002 -0.003387
#
#
# Mechanical properties :
#
#
# Convention : Reuss Voigt Hill
#
# Bulk Modulus (GPa) = 40.65252 57.34510 48.99881
# Shear Modulus (GPa) = -25.30236 35.61326 5.15545
#
# Velocity S-wave (km/s) = -3.15847 3.74716 1.42571
# Velocity P-wave (km/s) = 1.65130 6.42893 4.69350
#
# Compressibility (1/GPa) = 0.02459872
#
# Stress axis : x y z
#
# Youngs Moduli (GPa) = 96.39392 59.01945 181.50328
#
# Poissons Ratio (x) = 0.06768 0.24583
# Poissons Ratio (y) = 0.11053 0.29280
# Poissons Ratio (z) = 0.13055 0.09521
#
# Static dielectric constant tensor:
#      x y z
#    x 1.963340 0.000000 0.033560 
#    y 0.000000 2.085660 -0.000010 
#    z 0.033560 -0.000010 2.052110 
# 
# From -- ./inp_files/244889.got.cif
#   From: 2010.05.17/outbox.cif.g08.bks.cpg/sg15_123_cif.got.tgz:244889.got - 2010.06.03 18:47:42.
