data_PCOD9259091
_publ_section_title
;
Structure prediction by ZEFSAII (Michael W. Deem and Ramdas Pophale) SiO2 
 PCOD9259091
Probable space group: C 2/C
;
_chemical_formula_sum "Si O2"
_cell_formula_units_Z 40
_cell_length_a 15.012649
_cell_length_b 18.483283
_cell_length_c 14.033383
_cell_angle_alpha 90.000000
_cell_angle_beta 149.038954
_cell_angle_gamma 90.000000
_cell_volume 2003.301766
_symmetry_space_group_name_H-M "C 2/C"
_symmetry_group_IT_number 15
_symmetry_cell_setting 'monoclinic'
loop_
_space_group_symop_operation_xyz
x,y,z
-x,y,1/2-z
-x,-y,-z
x,-y,1/2+z
1/2+x,1/2+y,z
1/2-x,1/2+y,1/2-z
1/2-x,1/2-y,-z
1/2+x,1/2-y,1/2+z
loop_
_atom_site_type_symbol
_atom_site_label
_atom_site_fract_x
_atom_site_fract_y
_atom_site_fract_z
Si Si1 0.823167 0.434243 0.047853
Si Si2 0.672007 0.696581 0.509989
Si Si3 0.000000 0.960499 0.250000
Si Si4 0.000000 0.287402 0.750000
Si Si5 0.716307 0.327576 0.791953
Si Si6 0.648178 0.660998 0.009302
O O1 0.772090 0.377187 0.084353
O O2 0.000000 0.467641 0.250000
O O3 0.668214 0.489978 0.890930
O O4 0.829029 0.384520 0.957189
O O5 0.750000 0.750000 0.500000
O O6 0.470579 0.677220 0.327432
O O7 0.705235 0.746732 0.631622
O O8 0.038321 0.906979 0.372542
O O9 0.167460 0.333556 0.875793
O O10 0.950287 0.233715 0.616665
O O11 0.683967 0.346172 0.653460
#
# Coordination Sequence:
#
# PCOD9259091 Si02
#       6
#     8   8   4   4   8   8
#     4  11  22  40  60  89 129 170 203 248 318 382
#     4  10  18  34  59  91 126 157 200 254 313 362
#     4  11  24  44  60  90 129 176 202 248 327 376
#     4   9  20  42  62  92 119 158 214 262 323 352
#     4  11  20  36  62  95 123 158 216 262 303 365
#     4  10  22  39  67  90 122 162 208 266 307 373
#
# _framework density 19.967036
#
# number of rings (size 3 to 8) (size 9 to 14) (size 15 to 20)
#    0.000    1.600    2.000    5.400    1.400    0.800 
#    0.000    1.000    0.000    0.000    0.000    0.000 
#    0.000    0.000    0.000    0.000    0.000    0.000 
#
# Total GULP energy -111530.856288 kJ/mol
# GULP energy per Si atom -5576.542814 kJ/mol
# Density = 1.992159 g / cm^3
# Si number density = 19.967036 Si / 1000 Ang^3
#
#
#
# Elastic Constant Matrix: (Units=GPa)
#
#
# Indices 1 2 3 4 5 6 
#
# 1 67.1145 27.6613 44.0535 0.0000 -21.0203 0.0000
# 2 27.6613 89.2634 50.3611 0.0000 -8.9821 0.0000
# 3 44.0535 50.3611 141.1373 0.0000 -11.4131 0.0000
# 4 0.0000 0.0000 0.0000 39.7484 0.0000 3.9521
# 5 -21.0203 -8.9821 -11.4131 0.0000 46.3162 0.0000
# 6 0.0000 0.0000 0.0000 3.9521 0.0000 3.4570
#
#
#
# Elastic Compliance Matrix: (Units=1/GPa)
#
#
# Indices 1 2 3 4 5 6 
#
# 1 0.022113 -0.003142 -0.005121 0.000000 0.008165 0.000000
# 2 -0.003142 0.014578 -0.004191 0.000000 0.000368 0.000000
# 3 -0.005121 -0.004191 0.010127 0.000000 -0.000641 0.000000
# 4 0.000000 0.000000 0.000000 0.028385 0.000000 -0.032450
# 5 0.008165 0.000368 -0.000641 0.000000 0.025210 0.000000
# 6 0.000000 0.000000 0.000000 -0.032450 0.000000 0.326363
#
#
# Mechanical properties :
#
#
# Convention : Reuss Voigt Hill
#
# Bulk Modulus (GPa) = 45.63984 60.18521 52.91253
# Shear Modulus (GPa) = 10.89352 29.60028 20.24690
#
# Velocity S-wave (km/s) = 2.33829 3.85445 3.18782
# Velocity P-wave (km/s) = 5.49521 7.07225 6.33301
#
# Compressibility (1/GPa) = 0.02191068
#
# Stress axis : x y z
#
# Youngs Moduli (GPa) = 45.22142 68.59564 98.74166
#
# Poissons Ratio (x) = 0.21551 0.50565
# Poissons Ratio (y) = 0.14208 0.41386
# Poissons Ratio (z) = 0.23158 0.28751
#
# Static dielectric constant tensor:
#      x y z
#    x 1.718610 0.000000 -0.019820 
#    y 0.000000 1.730910 0.000000 
#    z -0.019820 0.000000 1.782700 
# 
# From -- ./inp_files/48324.got.cif
#   From: 2010.05.17/outbox.cif.g08.bks.cpg/sg15_25_cif.got.tgz:48324.got - 2010.06.03 18:47:42.
