data_PCOD9259610
_publ_section_title
;
Structure prediction by ZEFSAII (Michael W. Deem and Ramdas Pophale) SiO2 
 PCOD9259610
Probable space group: C 2/C
;
_chemical_formula_sum "Si O2"
_cell_formula_units_Z 40
_cell_length_a 18.902051
_cell_length_b 11.076558
_cell_length_c 8.204638
_cell_angle_alpha 90.000000
_cell_angle_beta 110.139179
_cell_angle_gamma 90.000000
_cell_volume 1612.774216
_symmetry_space_group_name_H-M "C 2/C"
_symmetry_group_IT_number 15
_symmetry_cell_setting 'monoclinic'
loop_
_space_group_symop_operation_xyz
x,y,z
-x,y,1/2-z
-x,-y,-z
x,-y,1/2+z
1/2+x,1/2+y,z
1/2-x,1/2+y,1/2-z
1/2-x,1/2-y,-z
1/2+x,1/2-y,1/2+z
loop_
_atom_site_type_symbol
_atom_site_label
_atom_site_fract_x
_atom_site_fract_y
_atom_site_fract_z
Si Si1 0.787090 0.561011 0.961730
Si Si2 0.680742 0.419800 0.112105
Si Si3 0.613762 0.919651 0.674134
Si Si4 0.467409 0.823821 0.405820
Si Si5 0.081714 0.907417 0.742090
O O1 0.725794 0.520732 0.045608
O O2 0.852253 0.616954 0.125526
O O3 0.745112 0.633218 0.783794
O O4 0.821735 0.436247 0.911777
O O5 0.621029 0.480945 0.185564
O O6 0.633607 0.356405 0.931896
O O7 0.539397 0.845601 0.575544
O O8 0.584626 0.058706 0.647394
O O9 0.500000 0.812748 0.250000
O O10 0.426694 0.697821 0.398156
O O11 0.000000 0.940420 0.750000
#
# Coordination Sequence:
#
# PCOD9259610 Si02
#       5
#     8   8   8   8   8
#     4   9  18  34  63  82 121 160 187 241 302 357
#     4   9  19  37  60  88 110 163 199 240 297 342
#     4  10  18  35  61  89 121 158 188 240 310 345
#     4  10  20  33  59  91 119 154 199 240 296 367
#     4  10  20  37  64  84 115 152 206 248 293 342
#
# _framework density 24.801981999999999
#
# number of rings (size 3 to 8) (size 9 to 14) (size 15 to 20)
#    0.000    2.400    2.000    0.600    0.000    0.000 
#    0.000   10.000   39.600    0.000    0.000    0.000 
#    0.000    0.000    0.000    0.000    0.000    0.000 
#
# Total GULP energy -111604.618160 kJ/mol
# GULP energy per Si atom -5580.230908 kJ/mol
# Density = 2.474553 g / cm^3
# Si number density = 24.801982 Si / 1000 Ang^3
#
#
#
# Elastic Constant Matrix: (Units=GPa)
#
#
# Indices 1 2 3 4 5 6 
#
# 1 83.7170 15.1800 40.0043 0.0000 17.3098 0.0000
# 2 15.1800 39.5119 11.3683 0.0000 13.2056 0.0000
# 3 40.0043 11.3683 168.8077 0.0000 49.6620 0.0000
# 4 0.0000 0.0000 0.0000 9.4118 0.0000 -8.0192
# 5 17.3098 13.2056 49.6620 0.0000 52.3475 0.0000
# 6 0.0000 0.0000 0.0000 -8.0192 0.0000 1.3303
#
#
#
# Elastic Compliance Matrix: (Units=1/GPa)
#
#
# Indices 1 2 3 4 5 6 
#
# 1 0.014275 -0.004356 -0.002808 0.000000 -0.000958 0.000000
# 2 -0.004356 0.028977 0.001120 0.000000 -0.006932 0.000000
# 3 -0.002808 0.001120 0.008772 0.000000 -0.007676 0.000000
# 4 0.000000 0.000000 0.000000 -0.025689 0.000000 -0.154851
# 5 -0.000958 -0.006932 -0.007676 0.000000 0.028451 0.000000
# 6 0.000000 0.000000 0.000000 -0.154851 0.000000 -0.181742
#
#
# Mechanical properties :
#
#
# Convention : Reuss Voigt Hill
#
# Bulk Modulus (GPa) = 25.03977 47.23797 36.13887
# Shear Modulus (GPa) = -49.23341 27.65019 -10.79161
#
# Velocity S-wave (km/s) = -4.46023 3.34254 -2.08819
# Velocity P-wave (km/s) = 4.05057 5.82959 2.96454
#
# Compressibility (1/GPa) = 0.03993647
#
# Stress axis : x y z
#
# Youngs Moduli (GPa) = 70.05465 34.51008 113.99710
#
# Poissons Ratio (x) = 0.15033 0.32007
# Poissons Ratio (y) = 0.30518 -0.12772
# Poissons Ratio (z) = 0.19669 -0.03866
#
# Static dielectric constant tensor:
#      x y z
#    x 2.059830 0.000000 0.047160 
#    y 0.000000 2.027710 0.000000 
#    z 0.047160 0.000000 2.007020 
# 
# From -- ./inp_files/54071.got.cif
#   From: 2010.05.17/outbox.cif.g08.bks.cpg/sg15_28_cif.got.tgz:54071.got - 2010.06.03 18:47:42.
