data_PCOD9259643
_publ_section_title
;
Structure prediction by ZEFSAII (Michael W. Deem and Ramdas Pophale) SiO2 
 PCOD9259643
Probable space group: C 2/C
;
_chemical_formula_sum "Si O2"
_cell_formula_units_Z 44
_cell_length_a 5.522209
_cell_length_b 15.983771
_cell_length_c 24.082461
_cell_angle_alpha 90.000000
_cell_angle_beta 51.963413
_cell_angle_gamma 90.000000
_cell_volume 1674.203655
_symmetry_space_group_name_H-M "C 2/C"
_symmetry_group_IT_number 15
_symmetry_cell_setting 'monoclinic'
loop_
_space_group_symop_operation_xyz
x,y,z
-x,y,1/2-z
-x,-y,-z
x,-y,1/2+z
1/2+x,1/2+y,z
1/2-x,1/2+y,1/2-z
1/2-x,1/2-y,-z
1/2+x,1/2-y,1/2+z
loop_
_atom_site_type_symbol
_atom_site_label
_atom_site_fract_x
_atom_site_fract_y
_atom_site_fract_z
Si Si1 0.177238 0.132064 0.624534
Si Si2 0.781516 0.210234 0.584802
Si Si3 0.341573 0.153833 0.215540
Si Si4 0.182604 0.890064 0.935961
Si Si5 0.888352 0.405656 0.539075
Si Si6 0.500000 0.487403 0.250000
O O1 0.430114 0.185885 0.623171
O O2 0.390759 0.096682 0.544677
O O3 0.050651 0.068053 0.688180
O O4 0.908895 0.176216 0.625658
O O5 0.824237 0.309204 0.567304
O O6 0.986541 0.164983 0.507362
O O7 0.500000 0.180103 0.250000
O O8 0.600113 0.164832 0.133073
O O9 0.000000 0.189115 0.250000
O O10 0.273310 0.053634 0.224399
O O11 0.418903 0.944207 0.938108
O O12 0.944291 0.938237 0.930923
#
# Coordination Sequence:
#
# PCOD9259643 Si02
#       6
#     8   8   8   8   8   4
#     4  10  20  35  60  86 114 158 189 236 293 352
#     4  10  20  36  64  89 118 147 190 244 299 342
#     4  10  23  40  60  78 115 165 196 243 294 338
#     4  10  18  35  62  86 111 152 194 238 291 348
#     4  10  19  36  64  89 118 147 187 245 300 342
#     4  10  26  40  62  76 124 160 204 236 296 342
#
# _framework density 26.281151999999999
#
# number of rings (size 3 to 8) (size 9 to 14) (size 15 to 20)
#    0.545    1.455    0.000    6.545    2.545    0.000 
#    0.000    7.273   34.000    0.000    0.000    0.000 
#    0.000    0.000    0.000    0.000    0.000    0.000 
#
# Total GULP energy -123074.634398 kJ/mol
# GULP energy per Si atom -5594.301564 kJ/mol
# Density = 2.622133 g / cm^3
# Si number density = 26.281152 Si / 1000 Ang^3
#
#
#
# Elastic Constant Matrix: (Units=GPa)
#
#
# Indices 1 2 3 4 5 6 
#
# 1 291.4906 39.7834 49.4865 -0.0001 -0.9660 0.0002
# 2 39.7834 50.0695 16.0005 0.0000 -16.0252 0.0000
# 3 49.4865 16.0005 86.8787 0.0000 6.6919 0.0001
# 4 -0.0001 0.0000 0.0000 26.1834 0.0000 -6.2697
# 5 -0.9660 -16.0252 6.6919 0.0000 34.8195 -0.0001
# 6 0.0002 0.0000 0.0001 -6.2697 -0.0001 -2.6127
#
#
#
# Elastic Compliance Matrix: (Units=1/GPa)
#
#
# Indices 1 2 3 4 5 6 
#
# 1 0.004135 -0.003040 -0.001722 0.000000 -0.000954 0.000000
# 2 -0.003040 0.028250 -0.004533 0.000000 0.013788 -0.000001
# 3 -0.001722 -0.004533 0.013693 0.000000 -0.004766 0.000001
# 4 0.000000 0.000000 0.000000 0.024255 0.000000 -0.058204
# 5 -0.000954 0.013788 -0.004766 0.000000 0.035955 -0.000001
# 6 0.000000 -0.000001 0.000001 -0.058204 -0.000001 -0.243070
#
#
# Mechanical properties :
#
#
# Convention : Reuss Voigt Hill
#
# Bulk Modulus (GPa) = 36.38068 70.99773 53.68920
# Shear Modulus (GPa) = -45.85894 33.22259 -6.31817
#
# Velocity S-wave (km/s) = -4.18178 3.55931 -1.55219
# Velocity P-wave (km/s) = 3.07301 6.63060 4.15461
#
# Compressibility (1/GPa) = 0.02748712
#
# Stress axis : x y z
#
# Youngs Moduli (GPa) = 241.85314 35.39863 73.03015
#
# Poissons Ratio (x) = 0.10762 0.12574
# Poissons Ratio (y) = 0.73531 0.33105
# Poissons Ratio (z) = 0.41642 0.16046
#
# Static dielectric constant tensor:
#      x y z
#    x 2.128400 0.000000 0.043410 
#    y 0.000000 2.113080 0.000000 
#    z 0.043410 0.000000 2.021730 
# 
# From -- ./inp_files/285966.got.cif
#   From: 2010.05.17/outbox.cif.g08.bks.cpg/sg15_143_cif.got.tgz:285966.got - 2010.06.03 18:47:42.
