data_PCOD9259785
_publ_section_title
;
Structure prediction by ZEFSAII (Michael W. Deem and Ramdas Pophale) SiO2 
 PCOD9259785
Probable space group: C 2/C
;
_chemical_formula_sum "Si O2"
_cell_formula_units_Z 56
_cell_length_a 27.952790
_cell_length_b 9.809941
_cell_length_c 16.773025
_cell_angle_alpha 90.000000
_cell_angle_beta 40.957794
_cell_angle_gamma 90.000000
_cell_volume 3014.932360
_symmetry_space_group_name_H-M "C 2/C"
_symmetry_group_IT_number 15
_symmetry_cell_setting 'monoclinic'
loop_
_space_group_symop_operation_xyz
x,y,z
-x,y,1/2-z
-x,-y,-z
x,-y,1/2+z
1/2+x,1/2+y,z
1/2-x,1/2+y,1/2-z
1/2-x,1/2-y,-z
1/2+x,1/2-y,1/2+z
loop_
_atom_site_type_symbol
_atom_site_label
_atom_site_fract_x
_atom_site_fract_y
_atom_site_fract_z
Si Si1 0.841272 0.111758 0.615490
Si Si2 0.378053 0.691790 0.058874
Si Si3 0.253353 0.314023 0.378237
Si Si4 0.084984 0.387566 0.949697
Si Si5 0.510246 0.879868 0.869584
Si Si6 0.836713 0.580565 0.373445
Si Si7 0.684587 0.104939 0.743614
O O1 0.806278 0.118440 0.747819
O O2 0.889791 0.245933 0.545930
O O3 0.770732 0.118470 0.647134
O O4 0.882562 0.969919 0.555255
O O5 0.309329 0.732639 0.090347
O O6 0.357825 0.763052 0.169381
O O7 0.451024 0.762110 0.934699
O O8 0.210645 0.421102 0.487268
O O9 0.299859 0.205166 0.370293
O O10 0.045003 0.363831 0.915000
O O11 0.154171 0.483282 0.839534
O O12 0.033034 0.477610 0.070662
O O13 0.578006 0.884574 0.724392
O O14 0.832607 0.446850 0.323291
#
# Coordination Sequence:
#
# PCOD9259785 Si02
#       7
#     8   8   8   8   8   8   8
#     4  11  17  31  51  85 106 133 180 231 271 315
#     4  10  20  30  53  84 111 131 182 231 278 311
#     4  10  20  33  54  81 104 142 178 230 265 327
#     4   9  17  31  51  75 109 140 181 215 270 319
#     4   9  18  33  51  78 104 145 174 220 266 328
#     4  10  18  36  56  74 106 144 188 216 267 326
#     4   9  16  32  52  76 104 141 179 226 262 319
#
# _framework density 18.574214000000001
#
# number of rings (size 3 to 8) (size 9 to 14) (size 15 to 20)
#    0.000    2.286    4.286    1.714    0.000    1.143 
#    0.000    0.714    0.000    0.000    0.000    6.000 
#    0.000    0.000    0.000    0.000    0.000    0.000 
#
# Total GULP energy -156184.269293 kJ/mol
# GULP energy per Si atom -5578.009618 kJ/mol
# Density = 1.853194 g / cm^3
# Si number density = 18.574214 Si / 1000 Ang^3
#
#
#
# Elastic Constant Matrix: (Units=GPa)
#
#
# Indices 1 2 3 4 5 6 
#
# 1 29.9047 35.9039 26.4903 -0.0001 -16.6198 0.0001
# 2 35.9039 94.1986 12.6540 -0.0016 -30.7506 0.0005
# 3 26.4903 12.6540 70.7817 -0.0010 -23.4696 0.0004
# 4 -0.0001 -0.0016 -0.0010 17.9838 -0.0001 -6.8635
# 5 -16.6198 -30.7506 -23.4696 -0.0001 23.6554 0.0000
# 6 0.0001 0.0005 0.0004 -6.8635 0.0000 18.2991
#
#
#
# Elastic Compliance Matrix: (Units=1/GPa)
#
#
# Indices 1 2 3 4 5 6 
#
# 1 0.108012 -0.041054 -0.038177 -0.000006 -0.015358 -0.000001
# 2 -0.041054 0.036651 0.022423 0.000005 0.041047 0.000000
# 3 -0.038177 0.022423 0.037522 0.000004 0.039553 0.000000
# 4 -0.000006 0.000005 0.000004 0.064895 0.000007 0.024341
# 5 -0.015358 0.041047 0.039553 0.000007 0.124085 0.000000
# 6 -0.000001 0.000000 0.000000 0.024341 0.000000 0.063777
#
#
# Mechanical properties :
#
#
# Convention : Reuss Voigt Hill
#
# Bulk Modulus (GPa) = 14.58381 38.33127 26.45754
# Shear Modulus (GPa) = 8.75019 19.97679 14.36349
#
# Velocity S-wave (km/s) = 2.17282 3.28306 2.78385
# Velocity P-wave (km/s) = 3.76345 5.92055 4.96067
#
# Compressibility (1/GPa) = 0.06856919
#
# Stress axis : x y z
#
# Youngs Moduli (GPa) = 9.25820 27.28419 26.65093
#
# Poissons Ratio (x) = 1.12013 1.01745
# Poissons Ratio (y) = 0.38009 -0.59759
# Poissons Ratio (z) = 0.35345 -0.61178
#
# Static dielectric constant tensor:
#      x y z
#    x 1.678020 0.000000 0.006000 
#    y 0.000000 1.631210 0.000000 
#    z 0.006000 0.000000 1.653280 
# 
# From -- ./inp_files/224394.got.cif
#   From: 2010.05.17/outbox.cif.g08.bks.cpg/sg15_113_cif.got.tgz:224394.got - 2010.06.03 18:47:42.
