data_PCOD9259276
_publ_section_title
;
Structure prediction by ZEFSAII (Michael W. Deem and Ramdas Pophale) SiO2 
 PCOD9259276
Probable space group: C 2/C
;
_chemical_formula_sum "Si O2"
_cell_formula_units_Z 56
_cell_length_a 11.682355
_cell_length_b 15.983197
_cell_length_c 23.815246
_cell_angle_alpha 90.000000
_cell_angle_beta 34.595740
_cell_angle_gamma 90.000000
_cell_volume 2524.824285
_symmetry_space_group_name_H-M "C 2/C"
_symmetry_group_IT_number 15
_symmetry_cell_setting 'monoclinic'
loop_
_space_group_symop_operation_xyz
x,y,z
-x,y,1/2-z
-x,-y,-z
x,-y,1/2+z
1/2+x,1/2+y,z
1/2-x,1/2+y,1/2-z
1/2-x,1/2-y,-z
1/2+x,1/2-y,1/2+z
loop_
_atom_site_type_symbol
_atom_site_label
_atom_site_fract_x
_atom_site_fract_y
_atom_site_fract_z
Si Si1 0.908324 0.115395 0.147248
Si Si2 0.147469 0.169865 0.144364
Si Si3 0.688066 0.470520 0.384899
Si Si4 0.519802 0.341352 0.113014
Si Si5 0.071957 0.321485 0.512104
Si Si6 0.170412 0.352288 0.083883
Si Si7 0.791690 0.699873 0.670067
O O1 0.806697 0.205573 0.186848
O O2 0.003759 0.103574 0.170542
O O3 0.766451 0.050212 0.172742
O O4 0.119178 0.124056 0.029205
O O5 0.199051 0.254652 0.089312
O O6 0.000000 0.206774 0.250000
O O7 0.357864 0.137382 0.083866
O O8 0.500000 0.500000 0.500000
O O9 0.602555 0.403828 0.375840
O O10 0.845731 0.420259 0.359845
O O11 0.749248 0.371423 0.029817
O O12 0.408093 0.332898 0.218092
O O13 0.528203 0.256124 0.072091
O O14 0.171055 0.295957 0.411866
O O15 0.979041 0.352046 0.120505
#
# Coordination Sequence:
#
# PCOD9259276 Si02
#       7
#     8   8   8   8   8   8   8
#     4  10  19  35  62  90 125 159 207 278 322 369
#     4  11  19  34  64  91 120 164 222 267 310 386
#     4  10  21  39  61  90 129 166 206 274 341 373
#     4  11  24  37  65  92 133 179 215 261 331 401
#     4  11  20  39  61  93 128 163 224 268 311 385
#     4  10  18  34  64  90 118 162 214 268 315 381
#     4  11  20  38  67  97 122 173 230 260 316 391
#
# _framework density 22.179760999999999
#
# number of rings (size 3 to 8) (size 9 to 14) (size 15 to 20)
#    0.000    1.429    4.286    3.857    0.000    0.000 
#    0.000    2.143   34.571    0.000    0.000    0.000 
#    0.000    0.000    0.000    0.000    0.000    0.000 
#
# Total GULP energy -156024.952042 kJ/mol
# GULP energy per Si atom -5572.319716 kJ/mol
# Density = 2.212928 g / cm^3
# Si number density = 22.179761 Si / 1000 Ang^3
#
#
#
# Elastic Constant Matrix: (Units=GPa)
#
#
# Indices 1 2 3 4 5 6 
#
# 1 67.6853 2.2720 2.6606 0.0001 -2.1399 -0.0003
# 2 2.2720 33.9189 -10.0656 0.0011 -3.8208 -0.0006
# 3 2.6606 -10.0656 82.1473 0.0007 5.4821 -0.0010
# 4 0.0001 0.0011 0.0007 12.4195 -0.0004 7.3809
# 5 -2.1399 -3.8208 5.4821 -0.0004 25.6134 0.0004
# 6 -0.0003 -0.0006 -0.0010 7.3809 0.0004 27.0824
#
#
#
# Elastic Compliance Matrix: (Units=1/GPa)
#
#
# Indices 1 2 3 4 5 6 
#
# 1 0.014876 -0.001064 -0.000694 0.000000 0.001233 0.000000
# 2 -0.001064 0.031043 0.003586 -0.000004 0.003774 0.000002
# 3 -0.000694 0.003586 0.012786 -0.000002 -0.002260 0.000001
# 4 0.000000 -0.000004 -0.000002 0.096081 0.000002 -0.026186
# 5 0.001233 0.003774 -0.002260 0.000002 0.040192 -0.000001
# 6 0.000000 0.000002 0.000001 -0.026186 -0.000001 0.044061
#
#
# Mechanical properties :
#
#
# Convention : Reuss Voigt Hill
#
# Bulk Modulus (GPa) = 16.03560 19.27619 17.65590
# Shear Modulus (GPa) = 19.51835 25.61536 22.56685
#
# Velocity S-wave (km/s) = 2.96971 3.40207 3.19321
# Velocity P-wave (km/s) = 4.35941 4.91343 4.64469
#
# Compressibility (1/GPa) = 0.06236123
#
# Stress axis : x y z
#
# Youngs Moduli (GPa) = 67.22134 32.21371 78.21072
#
# Poissons Ratio (x) = 0.03426 0.05431
# Poissons Ratio (y) = 0.07150 -0.28048
# Poissons Ratio (z) = 0.04668 -0.11553
#
# Static dielectric constant tensor:
#      x y z
#    x 1.956850 0.000000 0.134860 
#    y 0.000000 1.845550 0.000000 
#    z 0.134860 0.000000 2.010270 
# 
# From -- ./inp_files/270347.got.cif
#   From: 2010.05.17/outbox.cif.g08.bks.cpg/sg15_136_cif.got.tgz:270347.got - 2010.06.03 18:47:42.
