data_PCOD9259878
_publ_section_title
;
Structure prediction by ZEFSAII (Michael W. Deem and Ramdas Pophale) SiO2 
 PCOD9259878
Probable space group: C 2/C
;
_chemical_formula_sum "Si O2"
_cell_formula_units_Z 48
_cell_length_a 17.627678
_cell_length_b 7.129585
_cell_length_c 20.012329
_cell_angle_alpha 90.000000
_cell_angle_beta 54.922026
_cell_angle_gamma 90.000000
_cell_volume 2058.292389
_symmetry_space_group_name_H-M "C 2/C"
_symmetry_group_IT_number 15
_symmetry_cell_setting 'monoclinic'
loop_
_space_group_symop_operation_xyz
x,y,z
-x,y,1/2-z
-x,-y,-z
x,-y,1/2+z
1/2+x,1/2+y,z
1/2-x,1/2+y,1/2-z
1/2-x,1/2-y,-z
1/2+x,1/2-y,1/2+z
loop_
_atom_site_type_symbol
_atom_site_label
_atom_site_fract_x
_atom_site_fract_y
_atom_site_fract_z
Si Si1 0.757768 0.141503 0.601997
Si Si2 0.491532 0.236642 0.833406
Si Si3 0.374272 0.726943 0.655399
Si Si4 0.455540 0.793879 0.844671
Si Si5 0.182218 0.982915 0.564361
Si Si6 0.174935 0.378134 0.280663
O O1 0.853935 0.136828 0.594143
O O2 0.760529 0.027416 0.532848
O O3 0.733572 0.356918 0.594341
O O4 0.685636 0.072778 0.695426
O O5 0.500000 0.281520 0.750000
O O6 0.408765 0.357235 0.903650
O O7 0.590426 0.267617 0.819816
O O8 0.462021 0.017350 0.853780
O O9 0.471866 0.700876 0.640186
O O10 0.280116 0.675111 0.745032
O O11 0.359684 0.950841 0.658310
O O12 0.500000 0.761698 0.750000
O O13 0.358518 0.684775 0.897273
#
# Coordination Sequence:
#
# PCOD9259878 Si02
#       6
#     8   8   8   8   8   8
#     4   9  22  37  58  86 120 155 195 239 305 361
#     4  10  18  36  58  83 114 152 198 242 286 346
#     4   9  20  37  56  85 115 151 198 247 290 347
#     4  10  23  34  60  90 111 151 208 241 287 359
#     4  11  21  38  60  85 122 157 190 246 305 349
#     4   9  19  35  58  81 114 151 197 248 286 347
#
# _framework density 23.320301000000001
#
# number of rings (size 3 to 8) (size 9 to 14) (size 15 to 20)
#    1.000    1.333    1.667    0.500    4.667    0.667 
#    0.000    8.333    0.000    0.000    0.000    0.000 
#    0.000    0.000    0.000    0.000    0.000    0.000 
#
# Total GULP energy -133797.318359 kJ/mol
# GULP energy per Si atom -5574.888265 kJ/mol
# Density = 2.326722 g / cm^3
# Si number density = 23.320301 Si / 1000 Ang^3
#
#
#
# Elastic Constant Matrix: (Units=GPa)
#
#
# Indices 1 2 3 4 5 6 
#
# 1 72.0915 18.1781 15.4321 -0.0008 -4.0878 0.0021
# 2 18.1781 80.2824 18.9444 -0.0008 -7.1439 0.0038
# 3 15.4321 18.9444 55.8551 0.0000 -1.2669 0.0000
# 4 -0.0008 -0.0008 0.0000 10.3497 0.0002 -22.2212
# 5 -4.0878 -7.1439 -1.2669 0.0002 25.2690 -0.0004
# 6 0.0021 0.0038 0.0000 -22.2212 -0.0004 24.2103
#
#
#
# Elastic Compliance Matrix: (Units=1/GPa)
#
#
# Indices 1 2 3 4 5 6 
#
# 1 0.015316 -0.002539 -0.003334 0.000001 0.001593 0.000000
# 2 -0.002539 0.014296 -0.004070 0.000003 0.003427 0.000001
# 3 -0.003334 -0.004070 0.020190 -0.000001 -0.000678 0.000000
# 4 0.000001 0.000003 -0.000001 -0.099544 0.000000 -0.091365
# 5 0.001593 0.003427 -0.000678 0.000000 0.040767 0.000000
# 6 0.000000 0.000001 0.000000 -0.091365 0.000000 -0.042554
#
#
# Mechanical properties :
#
#
# Convention : Reuss Voigt Hill
#
# Bulk Modulus (GPa) = 33.42770 34.81535 34.12152
# Shear Modulus (GPa) = -230.71421 22.34409 -104.18506
#
# Velocity S-wave (km/s) = -9.95729 3.09874 -6.69124
# Velocity P-wave (km/s) = 10.85502 5.26921 6.71070
#
# Compressibility (1/GPa) = 0.02991531
#
# Stress axis : x y z
#
# Youngs Moduli (GPa) = 65.29297 69.94843 49.53067
#
# Poissons Ratio (x) = 0.17763 0.16514
# Poissons Ratio (y) = 0.16581 0.20157
# Poissons Ratio (z) = 0.21769 0.28466
#
# Static dielectric constant tensor:
#      x y z
#    x 1.912490 0.000000 -0.053400 
#    y 0.000000 1.939470 0.000000 
#    z -0.053400 0.000000 1.879900 
# 
# From -- ./inp_files/279305.got.cif
#   From: 2010.05.17/outbox.cif.g08.bks.cpg/sg15_140_cif.got.tgz:279305.got - 2010.06.03 18:47:42.
