data_PCOD9259284
_publ_section_title
;
Structure prediction by ZEFSAII (Michael W. Deem and Ramdas Pophale) SiO2 
 PCOD9259284
Probable space group: C 2/C
;
_chemical_formula_sum "Si O2"
_cell_formula_units_Z 60
_cell_length_a 22.662466
_cell_length_b 8.429240
_cell_length_c 28.099329
_cell_angle_alpha 90.000000
_cell_angle_beta 147.950376
_cell_angle_gamma 90.000000
_cell_volume 2848.410760
_symmetry_space_group_name_H-M "C 2/C"
_symmetry_group_IT_number 15
_symmetry_cell_setting 'monoclinic'
loop_
_space_group_symop_operation_xyz
x,y,z
-x,y,1/2-z
-x,-y,-z
x,-y,1/2+z
1/2+x,1/2+y,z
1/2-x,1/2+y,1/2-z
1/2-x,1/2-y,-z
1/2+x,1/2-y,1/2+z
loop_
_atom_site_type_symbol
_atom_site_label
_atom_site_fract_x
_atom_site_fract_y
_atom_site_fract_z
Si Si1 0.870917 0.682932 0.597552
Si Si2 0.344239 0.935536 0.772183
Si Si3 0.663260 0.429379 0.212346
Si Si4 0.299684 0.937041 0.142927
Si Si5 0.946243 0.415450 0.045226
Si Si6 0.000000 0.931350 0.750000
Si Si7 0.456521 0.555476 0.021413
Si Si8 0.785767 0.940669 0.653484
O O1 0.750000 0.750000 0.500000
O O2 0.853134 0.553777 0.627183
O O3 0.920538 0.622804 0.582577
O O4 0.948179 0.819742 0.673082
O O5 0.322506 0.750655 0.762433
O O6 0.237245 0.032911 0.716907
O O7 0.362664 0.982439 0.729806
O O8 0.443665 0.980524 0.876089
O O9 0.537125 0.474571 0.114714
O O10 0.704679 0.535590 0.284170
O O11 0.295234 0.746683 0.148595
O O12 0.171322 0.989741 0.056626
O O13 0.966453 0.246535 0.033388
O O14 0.835369 0.492723 0.947512
O O15 0.107337 0.016856 0.800277
O O16 0.500000 0.500000 0.000000
#
# Coordination Sequence:
#
# PCOD9259284 Si02
#       8
#     8   8   8   8   8   4   8   8
#     4  11  18  36  66 101 126 166 213 272 317 384
#     4  12  26  43  62  89 131 172 218 272 324 396
#     4  12  26  42  64  90 129 177 216 266 334 392
#     4  10  21  39  66  97 127 165 215 266 325 380
#     4  11  23  41  66  98 131 167 222 270 327 385
#     4  10  18  34  64  96 134 160 218 264 322 388
#     4  11  21  38  66  94 129 165 214 266 329 389
#     4  10  22  39  67  97 126 167 218 267 321 391
#
# _framework density 21.064378000000001
#
# number of rings (size 3 to 8) (size 9 to 14) (size 15 to 20)
#    0.000    1.067    5.333    4.800    1.867    1.600 
#    0.000    1.333    0.000    2.400    0.000    0.000 
#    0.000    0.000    0.000    0.000    0.000    0.000 
#
# Total GULP energy -167659.377085 kJ/mol
# GULP energy per Si atom -5588.645903 kJ/mol
# Density = 2.101643 g / cm^3
# Si number density = 21.064378 Si / 1000 Ang^3
#
#
#
# Elastic Constant Matrix: (Units=GPa)
#
#
# Indices 1 2 3 4 5 6 
#
# 1 98.3886 10.4898 16.0097 0.0000 -12.8394 -0.0001
# 2 10.4898 23.5877 8.1973 0.0000 1.2828 -0.0002
# 3 16.0097 8.1973 137.2608 0.0001 0.6011 0.0000
# 4 0.0000 0.0000 0.0001 11.8762 0.0000 2.2708
# 5 -12.8394 1.2828 0.6011 0.0000 41.6341 0.0000
# 6 -0.0001 -0.0002 0.0000 2.2708 0.0000 8.6565
#
#
#
# Elastic Compliance Matrix: (Units=1/GPa)
#
#
# Indices 1 2 3 4 5 6 
#
# 1 0.011331 -0.004875 -0.001047 0.000000 0.003660 0.000000
# 2 -0.004875 0.045461 -0.002134 0.000000 -0.002873 0.000001
# 3 -0.001047 -0.002134 0.007537 0.000000 -0.000366 0.000000
# 4 0.000000 0.000000 0.000000 0.088648 0.000000 -0.023255
# 5 0.003660 -0.002873 -0.000366 0.000000 0.025241 0.000000
# 6 0.000000 0.000001 0.000000 -0.023255 0.000000 0.121620
#
#
# Mechanical properties :
#
#
# Convention : Reuss Voigt Hill
#
# Bulk Modulus (GPa) = 20.73887 36.51450 28.62668
# Shear Modulus (GPa) = 15.05929 27.40273 21.23101
#
# Velocity S-wave (km/s) = 2.67669 3.61072 3.17820
# Velocity P-wave (km/s) = 4.40679 5.89537 5.20457
#
# Compressibility (1/GPa) = 0.04821864
#
# Stress axis : x y z
#
# Youngs Moduli (GPa) = 88.25059 21.99708 132.68754
#
# Poissons Ratio (x) = 0.10723 0.13887
# Poissons Ratio (y) = 0.43018 0.28313
# Poissons Ratio (z) = 0.09236 0.04694
#
# Static dielectric constant tensor:
#      x y z
#    x 1.814820 0.000000 0.034450 
#    y 0.000000 1.729930 0.000000 
#    z 0.034450 0.000000 1.784560 
# 
# From -- ./inp_files/302099.got.cif
#   From: 2010.05.17/outbox.cif.g08.bks.cpg/sg15_152_cif.got.tgz:302099.got - 2010.06.03 18:47:42.
