data_PCOD9259126
_publ_section_title
;
Structure prediction by ZEFSAII (Michael W. Deem and Ramdas Pophale) SiO2 
 PCOD9259126
Probable space group: C 2/C
;
_chemical_formula_sum "Si O2"
_cell_formula_units_Z 52
_cell_length_a 13.371642
_cell_length_b 8.902493
_cell_length_c 26.266809
_cell_angle_alpha 90.000000
_cell_angle_beta 126.229910
_cell_angle_gamma 90.000000
_cell_volume 2522.260003
_symmetry_space_group_name_H-M "C 2/C"
_symmetry_group_IT_number 15
_symmetry_cell_setting 'monoclinic'
loop_
_space_group_symop_operation_xyz
x,y,z
-x,y,1/2-z
-x,-y,-z
x,-y,1/2+z
1/2+x,1/2+y,z
1/2-x,1/2+y,1/2-z
1/2-x,1/2-y,-z
1/2+x,1/2-y,1/2+z
loop_
_atom_site_type_symbol
_atom_site_label
_atom_site_fract_x
_atom_site_fract_y
_atom_site_fract_z
Si Si1 0.767871 0.394706 0.812270
Si Si2 0.502075 0.602098 0.424068
Si Si3 0.500000 0.920128 0.250000
Si Si4 0.232811 0.037286 0.691983
Si Si5 0.104759 0.193954 0.349921
Si Si6 0.752441 0.396325 0.037322
Si Si7 0.500101 0.042599 0.940144
O O1 0.783096 0.216387 0.808783
O O2 0.729093 0.469267 0.747624
O O3 0.659757 0.406301 0.822020
O O4 0.890870 0.464521 0.875096
O O5 0.371644 0.523503 0.377425
O O6 0.559379 0.602252 0.384196
O O7 0.614153 0.537879 0.492579
O O8 0.482824 0.776949 0.432175
O O9 0.629179 0.003931 0.286649
O O10 0.499714 0.805881 0.297730
O O11 0.209677 0.314088 0.399316
O O12 0.867601 0.489198 0.048550
O O13 0.750000 0.250000 0.000000
O O14 0.500000 0.000000 0.000000
#
# Coordination Sequence:
#
# PCOD9259126 Si02
#       7
#     8   8   4   8   8   8   8
#     4  11  21  37  59  86 112 147 193 239 289 339
#     4  10  19  36  59  86 113 148 193 233 275 338
#     4  10  20  36  52  74 108 148 182 220 292 350
#     4  11  23  38  58  82 112 150 191 238 287 343
#     4   9  17  34  59  80 104 151 194 225 268 350
#     4   8  16  31  54  82 112 145 186 224 271 336
#     4  10  18  34  60  87 116 152 192 236 280 339
#
# _framework density 20.616430999999999
#
# number of rings (size 3 to 8) (size 9 to 14) (size 15 to 20)
#    0.000    2.462    0.000    7.385    0.000    0.000 
#    0.000   12.308    0.000    0.923    0.000    0.000 
#    0.000    0.000    0.000    0.000    0.000    0.000 
#
# Total GULP energy -144914.083333 kJ/mol
# GULP energy per Si atom -5573.618590 kJ/mol
# Density = 2.056951 g / cm^3
# Si number density = 20.616431 Si / 1000 Ang^3
#
#
#
# Elastic Constant Matrix: (Units=GPa)
#
#
# Indices 1 2 3 4 5 6 
#
# 1 85.0211 16.0592 20.8868 0.0000 20.7636 0.0000
# 2 16.0592 61.2861 18.7937 0.0000 6.0027 0.0000
# 3 20.8868 18.7937 112.0394 0.0000 26.6017 0.0000
# 4 0.0000 0.0000 0.0000 41.9491 0.0000 6.6526
# 5 20.7636 6.0027 26.6017 0.0000 49.9574 0.0000
# 6 0.0000 0.0000 0.0000 6.6526 0.0000 27.3515
#
#
#
# Elastic Compliance Matrix: (Units=1/GPa)
#
#
# Indices 1 2 3 4 5 6 
#
# 1 0.013713 -0.002833 -0.000926 0.000000 -0.004866 0.000000
# 2 -0.002833 0.017803 -0.002553 0.000000 0.000397 0.000000
# 3 -0.000926 -0.002553 0.010717 0.000000 -0.005015 0.000000
# 4 0.000000 0.000000 0.000000 0.024795 0.000000 -0.006031
# 5 -0.004866 0.000397 -0.005015 0.000000 0.024662 0.000000
# 6 0.000000 0.000000 0.000000 -0.006031 0.000000 0.038028
#
#
# Mechanical properties :
#
#
# Convention : Reuss Voigt Hill
#
# Bulk Modulus (GPa) = 33.77200 41.09176 37.43188
# Shear Modulus (GPa) = 32.84938 37.35874 35.10406
#
# Velocity S-wave (km/s) = 3.99602 4.26148 4.13088
# Velocity P-wave (km/s) = 6.14065 6.64744 6.39906
#
# Compressibility (1/GPa) = 0.02961033
#
# Stress axis : x y z
#
# Youngs Moduli (GPa) = 72.92539 56.17023 93.31012
#
# Poissons Ratio (x) = 0.15911 0.08639
# Poissons Ratio (y) = 0.20657 0.23818
# Poissons Ratio (z) = 0.06752 0.14338
#
# Static dielectric constant tensor:
#      x y z
#    x 1.813350 0.000000 0.026640 
#    y 0.000000 1.705520 0.000000 
#    z 0.026640 0.000000 1.862520 
# 
# From -- ./inp_files/312716.got.cif
#   From: 2010.05.17/outbox.cif.g08.bks.cpg/sg15_157_cif.got.tgz:312716.got - 2010.06.03 18:47:42.
