data_PCOD9259296
_publ_section_title
;
Structure prediction by ZEFSAII (Michael W. Deem and Ramdas Pophale) SiO2 
 PCOD9259296
Probable space group: C 2/C
;
_chemical_formula_sum "Si O2"
_cell_formula_units_Z 60
_cell_length_a 8.326862
_cell_length_b 13.017252
_cell_length_c 23.539007
_cell_angle_alpha 90.000000
_cell_angle_beta 97.565043
_cell_angle_gamma 90.000000
_cell_volume 2529.252525
_symmetry_space_group_name_H-M "C 2/C"
_symmetry_group_IT_number 15
_symmetry_cell_setting 'monoclinic'
loop_
_space_group_symop_operation_xyz
x,y,z
-x,y,1/2-z
-x,-y,-z
x,-y,1/2+z
1/2+x,1/2+y,z
1/2-x,1/2+y,1/2-z
1/2-x,1/2-y,-z
1/2+x,1/2-y,1/2+z
loop_
_atom_site_type_symbol
_atom_site_label
_atom_site_fract_x
_atom_site_fract_y
_atom_site_fract_z
Si Si1 0.341077 0.167547 0.894729
Si Si2 0.122961 0.657524 0.999211
Si Si3 0.240895 0.839356 0.816403
Si Si4 0.000000 0.007183 0.250000
Si Si5 0.159539 0.960969 0.922940
Si Si6 0.617233 0.433830 0.133188
Si Si7 0.068287 0.375167 0.308672
Si Si8 0.972544 0.711485 0.108458
O O1 0.494849 0.167271 0.943326
O O2 0.414630 0.162976 0.836069
O O3 0.214795 0.260316 0.895071
O O4 0.244026 0.062517 0.901730
O O5 0.250000 0.750000 0.000000
O O6 0.246663 0.563460 0.014931
O O7 0.014660 0.656819 0.051522
O O8 0.182545 0.869897 0.877864
O O9 0.172932 0.726818 0.798157
O O10 0.434879 0.840505 0.834002
O O11 0.153919 0.921075 0.772182
O O12 0.045278 0.947449 0.194206
O O13 0.970255 0.985964 0.912201
O O14 0.809397 0.441839 0.147981
O O15 0.566833 0.321337 0.109337
O O16 0.000000 0.428506 0.250000
#
# Coordination Sequence:
#
# PCOD9259296 Si02
#       8
#     8   8   8   4   8   8   8   8
#     4  11  22  39  62  92 125 164 206 265 318 372
#     4  11  21  40  68  90 122 165 210 258 323 388
#     4   9  18  38  58  86 118 159 205 251 313 379
#     4  10  18  34  66  82 120 168 202 272 314 374
#     4   9  20  38  63  89 122 156 197 263 317 369
#     4   9  20  36  59  85 121 155 211 246 322 368
#     4  11  23  38  61  88 125 167 214 256 309 385
#     4   9  20  38  60  89 124 158 204 257 316 381
#
# _framework density 23.722425000000001
#
# number of rings (size 3 to 8) (size 9 to 14) (size 15 to 20)
#    0.000    2.133    0.667    3.200    5.600    0.000 
#    0.000   15.333    2.933    0.000    0.000    0.000 
#    0.000    0.000    0.000    0.000    0.000    0.000 
#
# Total GULP energy -167543.658536 kJ/mol
# GULP energy per Si atom -5584.788618 kJ/mol
# Density = 2.366843 g / cm^3
# Si number density = 23.722425 Si / 1000 Ang^3
#
#
#
# Elastic Constant Matrix: (Units=GPa)
#
#
# Indices 1 2 3 4 5 6 
#
# 1 113.5770 17.2700 49.0640 0.0000 23.1490 0.0000
# 2 17.2700 37.6887 8.1887 0.0000 15.2811 0.0000
# 3 49.0640 8.1887 90.7119 0.0000 27.7521 0.0000
# 4 0.0000 0.0000 0.0000 25.1831 0.0000 13.0973
# 5 23.1490 15.2811 27.7521 0.0000 38.6152 0.0000
# 6 0.0000 0.0000 0.0000 13.0973 0.0000 36.9207
#
#
#
# Elastic Compliance Matrix: (Units=1/GPa)
#
#
# Indices 1 2 3 4 5 6 
#
# 1 0.012188 -0.003629 -0.005728 0.000000 -0.001754 0.000000
# 2 -0.003629 0.032795 0.002958 0.000000 -0.012928 0.000000
# 3 -0.005728 0.002958 0.016873 0.000000 -0.009862 0.000000
# 4 0.000000 0.000000 0.000000 0.048693 0.000000 -0.017273
# 5 -0.001754 -0.012928 -0.009862 0.000000 0.039152 0.000000
# 6 0.000000 0.000000 0.000000 -0.017273 0.000000 0.033213
#
#
# Mechanical properties :
#
#
# Convention : Reuss Voigt Hill
#
# Bulk Modulus (GPa) = 20.38476 43.44698 31.91587
# Shear Modulus (GPa) = 23.57762 31.30747 27.44254
#
# Velocity S-wave (km/s) = 3.15603 3.63677 3.40489
# Velocity P-wave (km/s) = 4.67893 5.99910 5.37967
#
# Compressibility (1/GPa) = 0.04905626
#
# Stress axis : x y z
#
# Youngs Moduli (GPa) = 82.04476 30.49211 59.26792
#
# Poissons Ratio (x) = 0.11067 0.33951
# Poissons Ratio (y) = 0.29778 -0.17530
# Poissons Ratio (z) = 0.46998 -0.09019
#
# Static dielectric constant tensor:
#      x y z
#    x 1.916110 0.000000 0.053030 
#    y 0.000000 1.933060 0.000000 
#    z 0.053030 0.000000 1.907820 
# 
# From -- ./inp_files/264749.got.cif
#   From: 2010.05.17/outbox.cif.g08.bks.cpg/sg15_133_cif.got.tgz:264749.got - 2010.06.03 18:47:42.
