data_PCOD9259465
_publ_section_title
;
Structure prediction by ZEFSAII (Michael W. Deem and Ramdas Pophale) SiO2 
 PCOD9259465
Probable space group: C 2/C
;
_chemical_formula_sum "Si O2"
_cell_formula_units_Z 64
_cell_length_a 13.157611
_cell_length_b 16.169757
_cell_length_c 17.955730
_cell_angle_alpha 90.000000
_cell_angle_beta 49.349868
_cell_angle_gamma 90.000000
_cell_volume 2898.375218
_symmetry_space_group_name_H-M "C 2/C"
_symmetry_group_IT_number 15
_symmetry_cell_setting 'monoclinic'
loop_
_space_group_symop_operation_xyz
x,y,z
-x,y,1/2-z
-x,-y,-z
x,-y,1/2+z
1/2+x,1/2+y,z
1/2-x,1/2+y,1/2-z
1/2-x,1/2-y,-z
1/2+x,1/2-y,1/2+z
loop_
_atom_site_type_symbol
_atom_site_label
_atom_site_fract_x
_atom_site_fract_y
_atom_site_fract_z
Si Si1 0.231350 0.155468 0.443229
Si Si2 0.929312 0.832482 0.100792
Si Si3 0.740343 0.941425 0.433183
Si Si4 0.095550 0.537755 0.374968
Si Si5 0.650537 0.065606 0.572860
Si Si6 0.719061 0.302181 0.178903
Si Si7 0.456903 0.811444 0.489842
Si Si8 0.279194 0.494950 0.152085
O O1 0.303181 0.125300 0.483531
O O2 0.309111 0.222433 0.357957
O O3 0.085723 0.184416 0.539893
O O4 0.199729 0.077262 0.405927
O O5 0.840366 0.799642 0.211053
O O6 0.903735 0.778561 0.038886
O O7 0.898060 0.929975 0.108690
O O8 0.833271 0.885540 0.336665
O O9 0.635859 0.978121 0.424088
O O10 0.773201 0.021362 0.468109
O O11 0.075895 0.626419 0.424562
O O12 0.215985 0.528006 0.258698
O O13 0.973485 0.495782 0.387898
O O14 0.612646 0.149867 0.549953
O O15 0.680212 0.059606 0.645785
O O16 0.882605 0.306969 0.101821
#
# Coordination Sequence:
#
# PCOD9259465 Si02
#       8
#     8   8   8   8   8   8   8   8
#     4  10  24  37  57  82 118 153 187 231 282 337
#     4  11  23  38  58  82 118 154 191 228 280 336
#     4  10  18  35  58  83 115 145 182 228 289 337
#     4  11  18  36  63  87 116 140 188 240 285 332
#     4  10  19  34  60  86 111 147 186 236 284 324
#     4  11  19  38  57  85 115 146 189 232 283 342
#     4  10  20  36  61  86 113 149 184 242 290 323
#     4  11  22  37  56  84 117 156 192 222 272 346
#
# _framework density 22.081337000000001
#
# number of rings (size 3 to 8) (size 9 to 14) (size 15 to 20)
#    0.000    1.500    3.750    2.625    0.000    1.000 
#    0.000    0.000    0.000    0.000    0.000    0.000 
#    0.000    0.000    0.000    0.000    0.000    0.000 
#
# Total GULP energy -178285.702007 kJ/mol
# GULP energy per Si atom -5571.428188 kJ/mol
# Density = 2.203108 g / cm^3
# Si number density = 22.081337 Si / 1000 Ang^3
#
#
#
# Elastic Constant Matrix: (Units=GPa)
#
#
# Indices 1 2 3 4 5 6 
#
# 1 42.2709 2.6622 12.2380 0.0000 13.4847 0.0000
# 2 2.6622 71.8034 28.8192 0.0000 -8.4767 0.0000
# 3 12.2380 28.8192 96.8705 0.0000 3.6318 0.0000
# 4 0.0000 0.0000 0.0000 32.8091 0.0000 10.5398
# 5 13.4847 -8.4767 3.6318 0.0000 22.3065 0.0000
# 6 0.0000 0.0000 0.0000 10.5398 0.0000 31.2432
#
#
#
# Elastic Compliance Matrix: (Units=1/GPa)
#
#
# Indices 1 2 3 4 5 6 
#
# 1 0.030574 -0.002398 -0.002437 0.000000 -0.018997 0.000000
# 2 -0.002398 0.017106 -0.005115 0.000000 0.008783 0.000000
# 3 -0.002437 -0.005115 0.012245 0.000000 -0.002464 0.000000
# 4 0.000000 0.000000 0.000000 0.034184 0.000000 -0.011532
# 5 -0.018997 0.008783 -0.002464 0.000000 0.060053 0.000000
# 6 0.000000 0.000000 0.000000 -0.011532 0.000000 0.035897
#
#
# Mechanical properties :
#
#
# Convention : Reuss Voigt Hill
#
# Bulk Modulus (GPa) = 24.98504 33.15372 29.06938
# Shear Modulus (GPa) = 22.39139 28.42014 25.40577
#
# Velocity S-wave (km/s) = 3.18786 3.59146 3.39566
# Velocity P-wave (km/s) = 4.98894 5.67848 5.34484
#
# Compressibility (1/GPa) = 0.04002395
#
# Stress axis : x y z
#
# Youngs Moduli (GPa) = 32.70796 58.45976 81.66523
#
# Poissons Ratio (x) = 0.14020 0.19900
# Poissons Ratio (y) = 0.07844 0.41774
# Poissons Ratio (z) = 0.07970 0.29904
#
# Static dielectric constant tensor:
#      x y z
#    x 1.862250 0.000000 -0.047220 
#    y 0.000000 1.887090 0.000000 
#    z -0.047220 0.000000 1.878500 
# 
# From -- ./inp_files/205714.got.cif
#   From: 2010.05.17/outbox.cif.g08.bks.cpg/sg15_103_cif.got.tgz:205714.got - 2010.06.03 18:47:42.
