data_PCOD9259092
_publ_section_title
;
Structure prediction by ZEFSAII (Michael W. Deem and Ramdas Pophale) SiO2 
 PCOD9259092
Probable space group: C 2/C
;
_chemical_formula_sum "Si O2"
_cell_formula_units_Z 56
_cell_length_a 19.816841
_cell_length_b 8.413100
_cell_length_c 16.573767
_cell_angle_alpha 90.000000
_cell_angle_beta 105.299243
_cell_angle_gamma 90.000000
_cell_volume 2665.270916
_symmetry_space_group_name_H-M "C 2/C"
_symmetry_group_IT_number 15
_symmetry_cell_setting 'monoclinic'
loop_
_space_group_symop_operation_xyz
x,y,z
-x,y,1/2-z
-x,-y,-z
x,-y,1/2+z
1/2+x,1/2+y,z
1/2-x,1/2+y,1/2-z
1/2-x,1/2-y,-z
1/2+x,1/2-y,1/2+z
loop_
_atom_site_type_symbol
_atom_site_label
_atom_site_fract_x
_atom_site_fract_y
_atom_site_fract_z
Si Si1 0.471468 0.170133 0.156033
Si Si2 0.863447 0.921963 0.764967
Si Si3 0.835900 0.874021 0.095612
Si Si4 0.111667 0.235194 0.649478
Si Si5 0.824817 0.178757 0.002891
Si Si6 0.614618 0.140762 0.831659
Si Si7 0.219679 0.619052 0.315512
O O1 0.500000 0.237671 0.250000
O O2 0.408621 0.280713 0.106457
O O3 0.539446 0.169015 0.121811
O O4 0.439486 0.999431 0.167808
O O5 0.899998 0.760198 0.747144
O O6 0.793729 0.889508 0.795047
O O7 0.841061 0.008369 0.674589
O O8 0.905559 0.055019 0.827356
O O9 0.782160 0.740014 0.109535
O O10 0.821634 0.989962 0.017051
O O11 0.151394 0.224614 0.578261
O O12 0.162685 0.312481 0.732870
O O13 0.876653 0.257958 0.084454
O O14 0.750000 0.250000 0.000000
O O15 0.687607 0.049774 0.832771
#
# Coordination Sequence:
#
# PCOD9259092 Si02
#       7
#     8   8   8   8   8   8   8
#     4  11  20  43  62  85 122 159 210 252 303 352
#     4  10  18  34  59  92 112 154 213 245 293 358
#     4   9  20  37  60  82 122 164 189 253 307 354
#     4  11  22  38  64  84 122 169 194 249 307 355
#     4  11  23  41  60  92 129 159 199 253 311 363
#     4  10  21  37  61  92 122 158 201 259 296 358
#     4  10  18  36  62  89 120 157 207 252 299 354
#
# _framework density 21.010995999999999
#
# number of rings (size 3 to 8) (size 9 to 14) (size 15 to 20)
#    0.000    1.714    4.286    4.286    0.000    1.143 
#    5.143    9.286    0.000    0.000    0.000    0.000 
#    0.000    0.000    0.000    0.000    0.000    0.000 
#
# Total GULP energy -156363.276853 kJ/mol
# GULP energy per Si atom -5584.402745 kJ/mol
# Density = 2.096317 g / cm^3
# Si number density = 21.010996 Si / 1000 Ang^3
#
#
#
# Elastic Constant Matrix: (Units=GPa)
#
#
# Indices 1 2 3 4 5 6 
#
# 1 106.0606 45.0395 22.3689 0.0000 -19.1689 0.0000
# 2 45.0395 109.9913 26.2202 0.0000 -6.0668 0.0000
# 3 22.3689 26.2202 61.6405 0.0000 -20.5479 0.0000
# 4 0.0000 0.0000 0.0000 32.1721 0.0000 4.4121
# 5 -19.1689 -6.0668 -20.5479 0.0000 28.6881 0.0000
# 6 0.0000 0.0000 0.0000 4.4121 0.0000 19.6104
#
#
#
# Elastic Compliance Matrix: (Units=1/GPa)
#
#
# Indices 1 2 3 4 5 6 
#
# 1 0.012854 -0.004822 -0.000118 0.000000 0.007484 0.000000
# 2 -0.004822 0.011960 -0.004688 0.000000 -0.004051 0.000000
# 3 -0.000118 -0.004688 0.023519 0.000000 0.015775 0.000000
# 4 0.000000 0.000000 0.000000 0.032072 0.000000 -0.007216
# 5 0.007484 -0.004051 0.015775 0.000000 0.050301 0.000000
# 6 0.000000 0.000000 0.000000 -0.007216 0.000000 0.052617
#
#
# Mechanical properties :
#
#
# Convention : Reuss Voigt Hill
#
# Bulk Modulus (GPa) = 34.39307 51.66107 43.02707
# Shear Modulus (GPa) = 23.55460 28.36504 25.95982
#
# Velocity S-wave (km/s) = 3.35186 3.67823 3.51883
# Velocity P-wave (km/s) = 5.60219 6.53301 6.08542
#
# Compressibility (1/GPa) = 0.02907562
#
# Stress axis : x y z
#
# Youngs Moduli (GPa) = 77.79602 83.60891 42.51929
#
# Poissons Ratio (x) = 0.40320 0.00504
# Poissons Ratio (y) = 0.37517 0.19933
# Poissons Ratio (z) = 0.00921 0.39195
#
# Static dielectric constant tensor:
#      x y z
#    x 1.763760 0.000000 0.009410 
#    y 0.000000 1.801110 0.000000 
#    z 0.009410 0.000000 1.763820 
# 
# From -- ./inp_files/213406.got.cif
#   From: 2010.05.17/outbox.cif.g08.bks.cpg/sg15_107_cif.got.tgz:213406.got - 2010.06.03 18:47:42.
