data_PCOD9259647
_publ_section_title
;
Structure prediction by ZEFSAII (Michael W. Deem and Ramdas Pophale) SiO2 
 PCOD9259647
Probable space group: C 2/C
;
_chemical_formula_sum "Si O2"
_cell_formula_units_Z 60
_cell_length_a 10.759000
_cell_length_b 22.258198
_cell_length_c 14.543177
_cell_angle_alpha 90.000000
_cell_angle_beta 111.444443
_cell_angle_gamma 90.000000
_cell_volume 3241.639730
_symmetry_space_group_name_H-M "C 2/C"
_symmetry_group_IT_number 15
_symmetry_cell_setting 'monoclinic'
loop_
_space_group_symop_operation_xyz
x,y,z
-x,y,1/2-z
-x,-y,-z
x,-y,1/2+z
1/2+x,1/2+y,z
1/2-x,1/2+y,1/2-z
1/2-x,1/2-y,-z
1/2+x,1/2-y,1/2+z
loop_
_atom_site_type_symbol
_atom_site_label
_atom_site_fract_x
_atom_site_fract_y
_atom_site_fract_z
Si Si1 0.322048 0.997877 0.614614
Si Si2 0.936258 0.329879 0.333571
Si Si3 0.615420 0.867616 0.853114
Si Si4 0.000000 0.123994 0.250000
Si Si5 0.781585 0.056790 0.079793
Si Si6 0.728936 0.713780 0.243564
Si Si7 0.123938 0.533910 0.662819
Si Si8 0.088587 0.328858 0.551302
O O1 0.297816 0.926677 0.605382
O O2 0.220224 0.035395 0.525573
O O3 0.471515 0.009504 0.614041
O O4 0.328827 0.019918 0.720830
O O5 0.825522 0.278982 0.294248
O O6 0.883713 0.394668 0.351973
O O7 0.000000 0.338568 0.250000
O O8 0.043785 0.308190 0.438562
O O9 0.500000 0.888711 0.750000
O O10 0.690836 0.815504 0.819073
O O11 0.541946 0.844731 0.923946
O O12 0.080957 0.081999 0.342526
O O13 0.107314 0.168093 0.231686
O O14 0.675899 0.110987 0.063101
O O15 0.721323 0.001418 0.121494
O O16 0.822352 0.713711 0.359611
#
# Coordination Sequence:
#
# PCOD9259647 Si02
#       8
#     8   8   8   4   8   8   8   8
#     4  11  17  31  58  92 111 132 183 246 290 319
#     4  12  22  37  56  87 118 145 188 239 286 332
#     4  10  18  35  62  87 111 144 195 241 273 329
#     4  10  22  40  56  78 118 162 190 222 270 360
#     4  11  20  36  59  87 117 148 183 232 294 340
#     4  10  23  40  56  81 114 156 194 227 273 343
#     4  11  19  32  57  92 114 134 180 247 291 323
#     4  10  20  36  62  86 108 150 194 239 279 326
#
# _framework density 18.509150999999999
#
# number of rings (size 3 to 8) (size 9 to 14) (size 15 to 20)
#    0.000    1.333    6.000    2.800    0.000    1.067 
#    2.400    2.667    4.400    0.000    0.000    0.000 
#    0.000    0.000    0.000    0.000    0.000    0.000 
#
# Total GULP energy -167525.903741 kJ/mol
# GULP energy per Si atom -5584.196791 kJ/mol
# Density = 1.846702 g / cm^3
# Si number density = 18.509151 Si / 1000 Ang^3
#
#
#
# Elastic Constant Matrix: (Units=GPa)
#
#
# Indices 1 2 3 4 5 6 
#
# 1 21.8501 0.4758 24.2746 0.0000 1.5735 0.0000
# 2 0.4758 84.2509 15.2726 0.0000 11.4442 0.0000
# 3 24.2746 15.2726 105.6129 0.0000 1.1148 0.0000
# 4 0.0000 0.0000 0.0000 13.9325 0.0000 13.4530
# 5 1.5735 11.4442 1.1148 0.0000 16.6167 0.0000
# 6 0.0000 0.0000 0.0000 13.4530 0.0000 19.1006
#
#
#
# Elastic Compliance Matrix: (Units=1/GPa)
#
#
# Indices 1 2 3 4 5 6 
#
# 1 0.062662 0.003311 -0.014805 0.000000 -0.007221 0.000000
# 2 0.003311 0.013620 -0.002630 0.000000 -0.009518 0.000000
# 3 -0.014805 -0.002630 0.013227 0.000000 0.002326 0.000000
# 4 0.000000 0.000000 0.000000 0.224354 0.000000 -0.158018
# 5 -0.007221 -0.009518 0.002326 0.000000 0.067263 0.000000
# 6 0.000000 0.000000 0.000000 -0.158018 0.000000 0.163650
#
#
# Mechanical properties :
#
#
# Convention : Reuss Voigt Hill
#
# Bulk Modulus (GPa) = 16.32368 32.41774 24.37071
# Shear Modulus (GPa) = 8.42536 21.37602 14.90069
#
# Velocity S-wave (km/s) = 2.13586 3.40205 2.84041
# Velocity P-wave (km/s) = 3.86276 5.74321 4.89415
#
# Compressibility (1/GPa) = 0.06126069
#
# Stress axis : x y z
#
# Youngs Moduli (GPa) = 15.95859 73.42037 75.60172
#
# Poissons Ratio (x) = -0.24308 1.11929
# Poissons Ratio (y) = -0.05284 0.19884
# Poissons Ratio (z) = 0.23627 0.19310
#
# Static dielectric constant tensor:
#      x y z
#    x 1.632480 0.000000 -0.002040 
#    y 0.000000 1.625450 0.000000 
#    z -0.002040 0.000000 1.670270 
# 
# From -- ./inp_files/147088.got.cif
#   From: 2010.05.17/outbox.cif.g08.bks.cpg/sg15_74_cif.got.tgz:147088.got - 2010.06.03 18:47:42.
