data_PCOD9259158
_publ_section_title
;
Structure prediction by ZEFSAII (Michael W. Deem and Ramdas Pophale) SiO2 
 PCOD9259158
Probable space group: C 2/C
;
_chemical_formula_sum "Si O2"
_cell_formula_units_Z 60
_cell_length_a 14.433261
_cell_length_b 13.823042
_cell_length_c 14.554041
_cell_angle_alpha 90.000000
_cell_angle_beta 115.861579
_cell_angle_gamma 90.000000
_cell_volume 2612.895503
_symmetry_space_group_name_H-M "C 2/C"
_symmetry_group_IT_number 15
_symmetry_cell_setting 'monoclinic'
loop_
_space_group_symop_operation_xyz
x,y,z
-x,y,1/2-z
-x,-y,-z
x,-y,1/2+z
1/2+x,1/2+y,z
1/2-x,1/2+y,1/2-z
1/2-x,1/2-y,-z
1/2+x,1/2-y,1/2+z
loop_
_atom_site_type_symbol
_atom_site_label
_atom_site_fract_x
_atom_site_fract_y
_atom_site_fract_z
Si Si1 0.302918 0.668260 0.821082
Si Si2 0.000000 0.903103 0.750000
Si Si3 0.602416 0.145466 0.854168
Si Si4 0.775027 0.152705 0.605524
Si Si5 0.266330 0.385547 0.719308
Si Si6 0.821968 0.854271 0.931781
Si Si7 0.456902 0.665164 0.049822
Si Si8 0.117443 0.497500 0.021436
O O1 0.193629 0.647867 0.820423
O O2 0.317436 0.626282 0.724829
O O3 0.295307 0.784466 0.806603
O O4 0.386902 0.641646 0.932850
O O5 0.118290 0.869077 0.771218
O O6 0.032902 0.920943 0.870886
O O7 0.500000 0.138177 0.750000
O O8 0.587517 0.240700 0.913807
O O9 0.622681 0.055070 0.928848
O O10 0.835172 0.113954 0.542604
O O11 0.761320 0.267813 0.598527
O O12 0.661148 0.110115 0.540228
O O13 0.281369 0.421172 0.831124
O O14 0.196533 0.451964 0.625689
O O15 0.929678 0.814179 0.940040
O O16 0.000000 0.500000 0.000000
#
# Coordination Sequence:
#
# PCOD9259158 Si02
#       8
#     8   4   8   8   8   8   8   8
#     4  11  21  36  64  93 121 160 217 270 308 374
#     4  10  18  34  60  94 122 154 200 268 312 372
#     4  12  21  36  62  99 130 159 204 266 332 378
#     4  10  23  42  56  83 125 173 212 254 300 379
#     4  10  20  38  63  92 122 163 210 263 327 374
#     4   9  21  41  63  79 119 172 219 251 296 380
#     4  11  18  33  63  95 117 149 210 265 316 358
#     4  12  25  39  62  95 137 164 199 261 335 388
#
# _framework density 22.96303
#
# number of rings (size 3 to 8) (size 9 to 14) (size 15 to 20)
#    0.000    1.333    3.333    4.400    0.000    2.667 
#    0.000    1.333    0.000    4.000    0.000    0.000 
#    0.000    0.000    0.000    0.000    0.000    0.000 
#
# Total GULP energy -167093.954029 kJ/mol
# GULP energy per Si atom -5569.798468 kJ/mol
# Density = 2.291076 g / cm^3
# Si number density = 22.963030 Si / 1000 Ang^3
#
#
#
# Elastic Constant Matrix: (Units=GPa)
#
#
# Indices 1 2 3 4 5 6 
#
# 1 69.3046 -7.1522 56.9711 0.0000 -29.8642 0.0000
# 2 -7.1522 33.4606 23.2498 0.0000 -3.3916 0.0000
# 3 56.9711 23.2498 219.1758 0.0000 -32.2357 0.0000
# 4 0.0000 0.0000 0.0000 5.6534 0.0000 5.3986
# 5 -29.8642 -3.3916 -32.2357 0.0000 38.2604 0.0000
# 6 0.0000 0.0000 0.0000 5.3986 0.0000 13.0210
#
#
#
# Elastic Compliance Matrix: (Units=1/GPa)
#
#
# Indices 1 2 3 4 5 6 
#
# 1 0.028472 0.012105 -0.006002 0.000000 0.018240 0.000000
# 2 0.012105 0.037411 -0.005978 0.000000 0.007728 0.000000
# 3 -0.006002 -0.005978 0.006837 0.000000 0.000545 0.000000
# 4 0.000000 0.000000 0.000000 0.292818 0.000000 -0.121404
# 5 0.018240 0.007728 0.000545 0.000000 0.041519 0.000000
# 6 0.000000 0.000000 0.000000 -0.121404 0.000000 0.127134
#
#
# Mechanical properties :
#
#
# Convention : Reuss Voigt Hill
#
# Bulk Modulus (GPa) = 13.70433 52.00871 32.85652
# Shear Modulus (GPa) = 8.95632 27.97845 18.46739
#
# Velocity S-wave (km/s) = 1.97707 3.49436 2.83896
# Velocity P-wave (km/s) = 3.34555 6.24330 5.00857
#
# Compressibility (1/GPa) = 0.07296963
#
# Stress axis : x y z
#
# Youngs Moduli (GPa) = 35.12177 26.73025 146.25953
#
# Poissons Ratio (x) = -0.32358 0.87790
# Poissons Ratio (y) = -0.42516 0.87440
# Poissons Ratio (z) = 0.21081 0.15981
#
# Static dielectric constant tensor:
#      x y z
#    x 1.843610 0.000000 -0.042780 
#    y 0.000000 2.022320 0.000000 
#    z -0.042780 0.000000 1.881520 
# 
# From -- ./inp_files/154271.got.cif
#   From: 2010.05.17/outbox.cif.g08.bks.cpg/sg15_78_cif.got.tgz:154271.got - 2010.06.03 18:47:42.
