data_PCOD9259673
_publ_section_title
;
Structure prediction by ZEFSAII (Michael W. Deem and Ramdas Pophale) SiO2 
 PCOD9259673
Probable space group: C 2/C
;
_chemical_formula_sum "Si O2"
_cell_formula_units_Z 48
_cell_length_a 15.675455
_cell_length_b 9.297318
_cell_length_c 15.384346
_cell_angle_alpha 90.000000
_cell_angle_beta 122.832196
_cell_angle_gamma 90.000000
_cell_volume 1883.959837
_symmetry_space_group_name_H-M "C 2/C"
_symmetry_group_IT_number 15
_symmetry_cell_setting 'monoclinic'
loop_
_space_group_symop_operation_xyz
x,y,z
-x,y,1/2-z
-x,-y,-z
x,-y,1/2+z
1/2+x,1/2+y,z
1/2-x,1/2+y,1/2-z
1/2-x,1/2-y,-z
1/2+x,1/2-y,1/2+z
loop_
_atom_site_type_symbol
_atom_site_label
_atom_site_fract_x
_atom_site_fract_y
_atom_site_fract_z
Si Si1 0.661520 0.011214 0.570603
Si Si2 0.081966 0.732398 0.109955
Si Si3 0.500000 0.744914 0.250000
Si Si4 0.637165 0.482667 0.910828
Si Si5 0.117084 0.165220 0.049585
Si Si6 0.187262 0.681351 0.748934
Si Si7 0.000000 0.225932 0.750000
O O1 0.758312 0.943926 0.577848
O O2 0.641000 0.172264 0.524196
O O3 0.685582 0.044954 0.684507
O O4 0.574773 0.892730 0.532922
O O5 0.196449 0.787075 0.167177
O O6 0.001802 0.850360 0.034741
O O7 0.048280 0.698187 0.191297
O O8 0.446131 0.640668 0.148888
O O9 0.403387 0.831455 0.232480
O O10 0.667034 0.540238 0.022008
O O11 0.589069 0.620951 0.834655
O O12 0.150474 0.185884 0.166239
#
# Coordination Sequence:
#
# PCOD9259673 Si02
#       7
#     8   8   4   8   8   8   4
#     4  10  20  36  59  86 118 151 193 241 293 345
#     4  11  19  37  61  87 119 161 189 245 297 341
#     4  11  22  39  60  86 116 167 190 239 298 352
#     4  10  18  35  63  82 114 151 203 243 281 338
#     4   9  22  36  60  89 120 144 204 245 289 340
#     4  10  23  38  58  86 124 149 199 243 290 351
#     4   9  18  31  56  90 108 149 204 235 282 338
#
# _framework density 25.478249000000002
#
# number of rings (size 3 to 8) (size 9 to 14) (size 15 to 20)
#    1.000    1.000    3.333    1.000    0.000    1.333 
#    0.000    0.833    0.000    0.000    0.000    0.000 
#    0.000    0.000    0.000    0.000    0.000    0.000 
#
# Total GULP energy -133949.245461 kJ/mol
# GULP energy per Si atom -5581.218561 kJ/mol
# Density = 2.542026 g / cm^3
# Si number density = 25.478249 Si / 1000 Ang^3
#
#
#
# Elastic Constant Matrix: (Units=GPa)
#
#
# Indices 1 2 3 4 5 6 
#
# 1 170.9491 39.8837 21.6504 0.0000 16.7411 0.0000
# 2 39.8837 51.8676 3.9493 0.0000 -10.6895 0.0000
# 3 21.6504 3.9493 54.0849 0.0000 11.0660 0.0000
# 4 0.0000 0.0000 0.0000 20.2337 0.0000 -4.8949
# 5 16.7411 -10.6895 11.0660 0.0000 29.2586 0.0000
# 6 0.0000 0.0000 0.0000 -4.8949 0.0000 32.5510
#
#
#
# Elastic Compliance Matrix: (Units=1/GPa)
#
#
# Indices 1 2 3 4 5 6 
#
# 1 0.008617 -0.008038 -0.001358 0.000000 -0.007354 0.000000
# 2 -0.008038 0.028920 -0.002164 0.000000 0.015984 0.000000
# 3 -0.001358 -0.002164 0.020804 0.000000 -0.007882 0.000000
# 4 0.000000 0.000000 0.000000 0.051288 0.000000 0.007713
# 5 -0.007354 0.015984 -0.007882 0.000000 0.047206 0.000000
# 6 0.000000 0.000000 0.000000 0.007713 0.000000 0.031881
#
#
# Mechanical properties :
#
#
# Convention : Reuss Voigt Hill
#
# Bulk Modulus (GPa) = 28.39320 45.31873 36.85597
# Shear Modulus (GPa) = 22.36359 30.50321 26.43340
#
# Velocity S-wave (km/s) = 2.96590 3.46385 3.22450
# Velocity P-wave (km/s) = 4.78509 5.81580 5.32544
#
# Compressibility (1/GPa) = 0.03521969
#
# Stress axis : x y z
#
# Youngs Moduli (GPa) = 116.04601 34.57817 48.06825
#
# Poissons Ratio (x) = 0.27796 0.06527
# Poissons Ratio (y) = 0.93283 0.10403
# Poissons Ratio (z) = 0.15758 0.07484
#
# Static dielectric constant tensor:
#      x y z
#    x 2.012560 0.000000 -0.051770 
#    y 0.000000 2.079610 0.000000 
#    z -0.051770 0.000000 2.053810 
# 
# From -- ./inp_files/243157.got.cif
#   From: 2010.05.17/outbox.cif.g08.bks.cpg/sg15_122_cif.got.tgz:243157.got - 2010.06.03 18:47:42.
