data_PCOD9259116
_publ_section_title
;
Structure prediction by ZEFSAII (Michael W. Deem and Ramdas Pophale) SiO2 
 PCOD9259116
Probable space group: C 2/C
;
_chemical_formula_sum "Si O2"
_cell_formula_units_Z 56
_cell_length_a 8.461055
_cell_length_b 11.306473
_cell_length_c 32.007992
_cell_angle_alpha 90.000000
_cell_angle_beta 113.185595
_cell_angle_gamma 90.000000
_cell_volume 2814.727421
_symmetry_space_group_name_H-M "C 2/C"
_symmetry_group_IT_number 15
_symmetry_cell_setting 'monoclinic'
loop_
_space_group_symop_operation_xyz
x,y,z
-x,y,1/2-z
-x,-y,-z
x,-y,1/2+z
1/2+x,1/2+y,z
1/2-x,1/2+y,1/2-z
1/2-x,1/2-y,-z
1/2+x,1/2-y,1/2+z
loop_
_atom_site_type_symbol
_atom_site_label
_atom_site_fract_x
_atom_site_fract_y
_atom_site_fract_z
Si Si1 0.053981 0.006877 0.053900
Si Si2 0.878861 0.248919 0.806141
Si Si3 0.884467 0.504369 0.807327
Si Si4 0.086682 0.758322 0.090839
Si Si5 0.622974 0.752700 0.446965
Si Si6 0.500000 0.429096 0.250000
Si Si7 0.500000 0.181405 0.750000
Si Si8 0.460161 0.999848 0.586609
O O1 0.260138 0.009915 0.078574
O O2 0.981791 0.130407 0.063863
O O3 0.995444 0.881118 0.067566
O O4 0.000000 0.000000 0.000000
O O5 0.955886 0.375886 0.803005
O O6 0.893643 0.233586 0.857308
O O7 0.968130 0.149928 0.787804
O O8 0.677590 0.249025 0.773766
O O9 0.680971 0.507397 0.776916
O O10 0.975512 0.601175 0.788452
O O11 0.924193 0.519293 0.860258
O O12 0.264561 0.756768 0.083602
O O13 0.004911 0.629304 0.072526
O O14 0.750000 0.750000 0.500000
O O15 0.524491 0.879112 0.438528
#
# Coordination Sequence:
#
# PCOD9259116 Si02
#       8
#     8   8   8   8   8   4   4   8
#     4  11  22  42  61  87 124 162 208 258 305 365
#     4  10  21  38  58  89 122 154 203 244 305 363
#     4  10  21  38  58  89 122 154 203 244 305 363
#     4  10  23  40  61  91 123 162 207 258 306 369
#     4  11  22  42  61  87 124 162 208 258 305 365
#     4  10  22  38  64  88 124 158 194 250 300 372
#     4  10  18  34  60  84 116 162 190 242 304 360
#     4  10  23  40  61  91 123 162 207 258 306 369
#
# _framework density 19.895354999999999
#
# number of rings (size 3 to 8) (size 9 to 14) (size 15 to 20)
#    0.000    1.714    2.857    2.571    0.000    6.857 
#    0.000    7.143    0.000    0.000    0.000    0.000 
#    0.000    0.000    0.000    0.000    0.000    0.000 
#
# Total GULP energy -156094.949679 kJ/mol
# GULP energy per Si atom -5574.819631 kJ/mol
# Density = 1.985007 g / cm^3
# Si number density = 19.895355 Si / 1000 Ang^3
#
#
#
# Elastic Constant Matrix: (Units=GPa)
#
#
# Indices 1 2 3 4 5 6 
#
# 1 44.4796 26.9366 -2.3814 0.0000 -6.5171 0.0000
# 2 26.9366 186.6325 36.9931 0.0000 -0.5807 0.0000
# 3 -2.3814 36.9931 76.0906 0.0000 -0.6837 0.0000
# 4 0.0000 0.0000 0.0000 18.8447 0.0000 -2.8557
# 5 -6.5171 -0.5807 -0.6837 0.0000 24.9996 0.0000
# 6 0.0000 0.0000 0.0000 -2.8557 0.0000 -2.3097
#
#
#
# Elastic Compliance Matrix: (Units=1/GPa)
#
#
# Indices 1 2 3 4 5 6 
#
# 1 0.026291 -0.004370 0.003009 0.000000 0.006835 0.000000
# 2 -0.004370 0.006656 -0.003382 0.000000 -0.001077 0.000000
# 3 0.003009 -0.003382 0.014891 0.000000 0.001113 0.000000
# 4 0.000000 0.000000 0.000000 0.044692 0.000000 -0.055256
# 5 0.006835 -0.001077 0.001113 0.000000 0.041788 0.000000
# 6 0.000000 0.000000 0.000000 -0.055256 0.000000 -0.364631
#
#
# Mechanical properties :
#
#
# Convention : Reuss Voigt Hill
#
# Bulk Modulus (GPa) = 26.07502 47.81105 36.94304
# Shear Modulus (GPa) = -24.03339 24.68387 0.32524
#
# Velocity S-wave (km/s) = -3.47939 3.52616 0.40476
# Velocity P-wave (km/s) = 1.73406 6.37666 4.33906
#
# Compressibility (1/GPa) = 0.03835087
#
# Stress axis : x y z
#
# Youngs Moduli (GPa) = 38.03594 150.24341 67.15566
#
# Poissons Ratio (x) = 0.65651 -0.20205
# Poissons Ratio (y) = 0.16620 0.22714
# Poissons Ratio (z) = -0.11444 0.50817
#
# Static dielectric constant tensor:
#      x y z
#    x 1.680710 0.000000 0.007560 
#    y 0.000000 1.741430 0.000000 
#    z 0.007560 0.000000 1.674090 
# 
# From -- ./inp_files/307263.got.cif
#   From: 2010.05.17/outbox.cif.g08.bks.cpg/sg15_154_cif.got.tgz:307263.got - 2010.06.03 18:47:42.
