data_PCOD9259046
_publ_section_title
;
Structure prediction by ZEFSAII (Michael W. Deem and Ramdas Pophale) SiO2 
 PCOD9259046
Probable space group: C 2/C
;
_chemical_formula_sum "Si O2"
_cell_formula_units_Z 64
_cell_length_a 19.751167
_cell_length_b 14.850467
_cell_length_c 29.800574
_cell_angle_alpha 90.000000
_cell_angle_beta 158.430521
_cell_angle_gamma 90.000000
_cell_volume 3213.420201
_symmetry_space_group_name_H-M "C 2/C"
_symmetry_group_IT_number 15
_symmetry_cell_setting 'monoclinic'
loop_
_space_group_symop_operation_xyz
x,y,z
-x,y,1/2-z
-x,-y,-z
x,-y,1/2+z
1/2+x,1/2+y,z
1/2-x,1/2+y,1/2-z
1/2-x,1/2-y,-z
1/2+x,1/2-y,1/2+z
loop_
_atom_site_type_symbol
_atom_site_label
_atom_site_fract_x
_atom_site_fract_y
_atom_site_fract_z
Si Si1 0.003626 0.228018 0.199287
Si Si2 0.884387 0.193489 0.386252
Si Si3 0.686198 0.109561 0.449716
Si Si4 0.325346 0.982944 0.743930
Si Si5 0.967100 0.211094 0.840330
Si Si6 0.354656 0.346148 0.525163
Si Si7 0.847719 0.173512 0.865791
Si Si8 0.300253 0.998324 0.625035
O O1 0.191806 0.268039 0.295109
O O2 0.000000 0.207605 0.250000
O O3 0.943529 0.147915 0.128798
O O4 0.846913 0.303654 0.095006
O O5 0.771645 0.106834 0.297520
O O6 0.736876 0.272030 0.305008
O O7 0.023834 0.218153 0.432098
O O8 0.998608 0.166245 0.500669
O O9 0.547847 0.031682 0.383450
O O10 0.901504 0.127479 0.592903
O O11 0.580371 0.200685 0.395840
O O12 0.680862 0.090096 0.393182
O O13 0.245837 0.079493 0.708259
O O14 0.264393 0.980432 0.654088
O O15 0.935855 0.212012 0.874761
O O16 0.336437 0.437839 0.485964
O O17 0.500000 0.045675 0.750000
#
# Coordination Sequence:
#
# PCOD9259046 Si02
#       8
#     8   8   8   8   8   8   8   8
#     4  11  21  36  52  77 117 162 198 239 299 368
#     4  11  21  34  53  90 119 151 197 245 305 361
#     4   9  20  38  56  77 119 166 200 234 290 372
#     4  10  20  32  57  89 120 146 189 247 315 360
#     4  10  22  38  55  84 122 166 202 237 300 368
#     4  11  21  32  54  83 118 154 198 242 307 368
#     4  12  21  35  57  89 123 156 189 255 308 366
#     4  10  18  34  58  91 116 147 187 249 310 358
#
# _framework density 19.916474000000001
#
# number of rings (size 3 to 8) (size 9 to 14) (size 15 to 20)
#    0.000    1.500    3.750    3.000    1.750    1.000 
#    0.000    1.875    0.000    1.500    0.000    3.500 
#    0.000    0.000    0.000    0.000    0.000    0.000 
#
# Total GULP energy -178188.977785 kJ/mol
# GULP energy per Si atom -5568.405556 kJ/mol
# Density = 1.987114 g / cm^3
# Si number density = 19.916474 Si / 1000 Ang^3
#
#
#
# Elastic Constant Matrix: (Units=GPa)
#
#
# Indices 1 2 3 4 5 6 
#
# 1 49.0037 27.7405 27.6269 -0.0042 7.5516 0.0024
# 2 27.7405 46.2070 31.0950 -0.0015 -2.6343 0.0018
# 3 27.6269 31.0950 107.5207 0.0016 15.5056 0.0024
# 4 -0.0042 -0.0015 0.0016 27.9525 -0.0014 -2.0375
# 5 7.5516 -2.6343 15.5056 -0.0014 26.7119 0.0015
# 6 0.0024 0.0018 0.0024 -2.0375 0.0015 27.6362
#
#
#
# Elastic Compliance Matrix: (Units=1/GPa)
#
#
# Indices 1 2 3 4 5 6 
#
# 1 0.034378 -0.020335 -0.001377 0.000004 -0.010925 -0.000001
# 2 -0.020335 0.040483 -0.008608 0.000000 0.014738 -0.000001
# 3 -0.001377 -0.008608 0.013326 -0.000002 -0.008195 0.000000
# 4 0.000004 0.000000 -0.000002 0.035968 0.000002 0.002652
# 5 -0.010925 0.014738 -0.008195 0.000002 0.046735 -0.000002
# 6 -0.000001 -0.000001 0.000000 0.002652 -0.000002 0.036380
#
#
# Mechanical properties :
#
#
# Convention : Reuss Voigt Hill
#
# Bulk Modulus (GPa) = 36.30235 41.73956 39.02095
# Shear Modulus (GPa) = 18.04451 24.21138 21.12795
#
# Velocity S-wave (km/s) = 3.01326 3.49039 3.26057
# Velocity P-wave (km/s) = 5.51119 6.10300 5.81463
#
# Compressibility (1/GPa) = 0.02754643
#
# Stress axis : x y z
#
# Youngs Moduli (GPa) = 29.08842 24.70167 75.04399
#
# Poissons Ratio (x) = 0.50231 0.10332
# Poissons Ratio (y) = 0.59152 0.64598
# Poissons Ratio (z) = 0.04005 0.21263
#
# Static dielectric constant tensor:
#      x y z
#    x 1.731350 0.000000 0.059570 
#    y 0.000000 1.770600 -0.000010 
#    z 0.059570 -0.000010 1.778610 
# 
# From -- ./inp_files/318010.got.cif
#   From: 2010.05.17/outbox.cif.g08.bks.cpg/sg15_160_cif.got.tgz:318010.got - 2010.06.03 18:47:42.
