data_PCOD9259182
_publ_section_title
;
Structure prediction by ZEFSAII (Michael W. Deem and Ramdas Pophale) SiO2 
 PCOD9259182
Probable space group: C 2/C
;
_chemical_formula_sum "Si O2"
_cell_formula_units_Z 60
_cell_length_a 20.865527
_cell_length_b 7.776593
_cell_length_c 17.684985
_cell_angle_alpha 90.000000
_cell_angle_beta 103.132607
_cell_angle_gamma 90.000000
_cell_volume 2794.564099
_symmetry_space_group_name_H-M "C 2/C"
_symmetry_group_IT_number 15
_symmetry_cell_setting 'monoclinic'
loop_
_space_group_symop_operation_xyz
x,y,z
-x,y,1/2-z
-x,-y,-z
x,-y,1/2+z
1/2+x,1/2+y,z
1/2-x,1/2+y,1/2-z
1/2-x,1/2-y,-z
1/2+x,1/2-y,1/2+z
loop_
_atom_site_type_symbol
_atom_site_label
_atom_site_fract_x
_atom_site_fract_y
_atom_site_fract_z
Si Si1 0.323901 0.961791 0.322433
Si Si2 0.754992 0.294404 0.589617
Si Si3 0.056201 0.328153 0.610510
Si Si4 0.301655 0.663672 0.209274
Si Si5 0.000000 0.811882 0.250000
Si Si6 0.448668 0.347133 0.998011
Si Si7 0.850024 0.002557 0.871670
Si Si8 0.875004 0.919649 0.132622
O O1 0.286278 0.843000 0.372731
O O2 0.321405 0.851741 0.244117
O O3 0.396097 0.010795 0.369341
O O4 0.276463 0.129655 0.305179
O O5 0.750000 0.250000 0.500000
O O6 0.717710 0.472025 0.599509
O O7 0.829626 0.250055 0.633726
O O8 0.025516 0.294427 0.685074
O O9 0.994780 0.311067 0.536397
O O10 0.108178 0.174466 0.606626
O O11 0.331256 0.533656 0.280498
O O12 0.331878 0.588836 0.140010
O O13 0.939151 0.920642 0.202214
O O14 0.401590 0.400537 0.055006
O O15 0.500000 0.500000 0.000000
O O16 0.401584 0.355808 0.913375
#
# Coordination Sequence:
#
# PCOD9259182 Si02
#       8
#     8   8   8   8   4   8   8   8
#     4  10  22  37  61  88 120 153 201 251 310 350
#     4  10  20  36  61  86 119 155 198 252 305 357
#     4  10  20  37  58  85 117 161 202 242 295 360
#     4  10  20  35  60  89 115 150 196 257 298 354
#     4  10  20  34  60  82 118 160 200 236 296 364
#     4   9  19  34  60  85 120 158 200 234 292 363
#     4  10  18  34  61  89 113 156 200 246 297 353
#     4  10  19  36  59  91 115 157 204 236 304 360
#
# _framework density 21.470254000000001
#
# number of rings (size 3 to 8) (size 9 to 14) (size 15 to 20)
#    0.000    2.133    2.667    0.800    3.733    0.000 
#    0.000    4.000   11.733    0.000    0.000    0.000 
#    0.000    0.000    0.000    0.000    0.000    0.000 
#
# Total GULP energy -167178.693218 kJ/mol
# GULP energy per Si atom -5572.623107 kJ/mol
# Density = 2.142139 g / cm^3
# Si number density = 21.470254 Si / 1000 Ang^3
#
#
#
# Elastic Constant Matrix: (Units=GPa)
#
#
# Indices 1 2 3 4 5 6 
#
# 1 119.5663 30.4829 16.0607 0.0000 -4.2671 0.0000
# 2 30.4829 63.4389 4.3666 0.0000 -6.3630 0.0000
# 3 16.0607 4.3666 41.4241 0.0000 5.6743 0.0000
# 4 0.0000 0.0000 0.0000 12.6833 0.0000 7.6804
# 5 -4.2671 -6.3630 5.6743 0.0000 46.2064 0.0000
# 6 0.0000 0.0000 0.0000 7.6804 0.0000 35.7002
#
#
#
# Elastic Compliance Matrix: (Units=1/GPa)
#
#
# Indices 1 2 3 4 5 6 
#
# 1 0.010006 -0.004493 -0.003507 0.000000 0.000736 0.000000
# 2 -0.004493 0.018169 -0.000467 0.000000 0.002144 0.000000
# 3 -0.003507 -0.000467 0.026041 0.000000 -0.003586 0.000000
# 4 0.000000 0.000000 0.000000 0.090654 0.000000 -0.019503
# 5 0.000736 0.002144 -0.003586 0.000000 0.022446 0.000000
# 6 0.000000 0.000000 0.000000 -0.019503 0.000000 0.032207
#
#
# Mechanical properties :
#
#
# Convention : Reuss Voigt Hill
#
# Bulk Modulus (GPa) = 26.82209 36.24996 31.53603
# Shear Modulus (GPa) = 21.84512 30.48592 26.16552
#
# Velocity S-wave (km/s) = 3.19323 3.77226 3.49476
# Velocity P-wave (km/s) = 5.11032 5.99114 5.56817
#
# Compressibility (1/GPa) = 0.03728270
#
# Stress axis : x y z
#
# Youngs Moduli (GPa) = 99.93682 55.03784 38.40155
#
# Poissons Ratio (x) = 0.24728 0.13467
# Poissons Ratio (y) = 0.44901 0.01794
# Poissons Ratio (z) = 0.35046 0.02571
#
# Static dielectric constant tensor:
#      x y z
#    x 1.808960 0.000000 0.021640 
#    y 0.000000 1.841350 0.000000 
#    z 0.021640 0.000000 1.802840 
# 
# From -- ./inp_files/213957.got.cif
#   From: 2010.05.17/outbox.cif.g08.bks.cpg/sg15_107_cif.got.tgz:213957.got - 2010.06.03 18:47:42.
