data_PCOD9259488
_publ_section_title
;
Structure prediction by ZEFSAII (Michael W. Deem and Ramdas Pophale) SiO2 
 PCOD9259488
Probable space group: C 2/C
;
_chemical_formula_sum "Si O2"
_cell_formula_units_Z 64
_cell_length_a 9.369465
_cell_length_b 18.144832
_cell_length_c 30.466967
_cell_angle_alpha 90.000000
_cell_angle_beta 139.679319
_cell_angle_gamma 90.000000
_cell_volume 3351.543744
_symmetry_space_group_name_H-M "C 2/C"
_symmetry_group_IT_number 15
_symmetry_cell_setting 'monoclinic'
loop_
_space_group_symop_operation_xyz
x,y,z
-x,y,1/2-z
-x,-y,-z
x,-y,1/2+z
1/2+x,1/2+y,z
1/2-x,1/2+y,1/2-z
1/2-x,1/2-y,-z
1/2+x,1/2-y,1/2+z
loop_
_atom_site_type_symbol
_atom_site_label
_atom_site_fract_x
_atom_site_fract_y
_atom_site_fract_z
Si Si1 0.336552 0.316322 0.072426
Si Si2 0.051719 0.653629 0.431477
Si Si3 0.068344 0.160272 0.313291
Si Si4 0.779491 0.926039 0.911494
Si Si5 0.014483 0.288233 0.433121
Si Si6 0.250109 0.905939 0.067771
Si Si7 0.694224 0.831412 0.324923
Si Si8 0.754483 0.837810 0.819781
O O1 0.415613 0.240993 0.067128
O O2 0.573178 0.340786 0.146274
O O3 0.142644 0.300971 0.061593
O O4 0.229108 0.368256 0.009953
O O5 0.102850 0.622816 0.395789
O O6 0.804622 0.632975 0.386055
O O7 0.113666 0.247651 0.315861
O O8 0.000000 0.129233 0.250000
O O9 0.880808 0.146585 0.304451
O O10 0.773435 0.904432 0.859246
O O11 0.725279 0.008946 0.912999
O O12 0.016226 0.902930 0.987467
O O13 0.250000 0.250000 0.500000
O O14 0.074824 0.364306 0.422431
O O15 0.879140 0.231899 0.370764
O O16 0.258642 0.864233 0.116149
O O17 0.500000 0.865654 0.250000
O O18 0.500000 0.821899 0.750000
#
# Coordination Sequence:
#
# PCOD9259488 Si02
#       8
#     8   8   8   8   8   8   8   8
#     4  10  20  32  60  91 118 154 205 262 313 368
#     4  10  18  35  58  87 122 158 204 255 318 369
#     4  10  21  35  59  92 124 160 204 267 317 373
#     4  11  23  41  62  90 131 170 213 261 325 397
#     4  12  22  38  63  96 127 162 218 276 319 374
#     4  11  23  41  62  90 130 173 210 260 326 395
#     4  10  21  37  59  86 123 163 204 256 322 377
#     4  12  24  38  65  98 130 163 219 274 324 384
#
# _framework density 19.095677999999999
#
# number of rings (size 3 to 8) (size 9 to 14) (size 15 to 20)
#    0.000    1.250    5.000    1.500    5.250    0.500 
#    0.000    1.875    0.000    3.750    0.000    0.000 
#    0.000    0.000    0.000    0.000    0.000    0.000 
#
# Total GULP energy -178360.574917 kJ/mol
# GULP energy per Si atom -5573.767966 kJ/mol
# Density = 1.905222 g / cm^3
# Si number density = 19.095678 Si / 1000 Ang^3
#
#
#
# Elastic Constant Matrix: (Units=GPa)
#
#
# Indices 1 2 3 4 5 6 
#
# 1 130.8958 -6.6822 64.9339 0.0000 14.2524 0.0000
# 2 -6.6822 24.5134 27.6342 0.0000 3.9707 0.0000
# 3 64.9339 27.6342 144.3847 -0.0001 17.8215 0.0000
# 4 0.0000 0.0000 -0.0001 12.0737 0.0000 -1.3743
# 5 14.2524 3.9707 17.8215 0.0000 34.5468 0.0000
# 6 0.0000 0.0000 0.0000 -1.3743 0.0000 18.4503
#
#
#
# Elastic Compliance Matrix: (Units=1/GPa)
#
#
# Indices 1 2 3 4 5 6 
#
# 1 0.012305 0.012307 -0.007570 0.000000 -0.002586 0.000000
# 2 0.012307 0.064352 -0.017421 0.000000 -0.003487 0.000000
# 3 -0.007570 -0.017421 0.013918 0.000000 -0.002055 0.000000
# 4 0.000000 0.000000 0.000000 0.083533 0.000000 0.006222
# 5 -0.002586 -0.003487 -0.002055 0.000000 0.031474 0.000000
# 6 0.000000 0.000000 0.000000 0.006222 0.000000 0.054663
#
#
# Mechanical properties :
#
#
# Convention : Reuss Voigt Hill
#
# Bulk Modulus (GPa) = 15.33576 52.39621 33.86598
# Shear Modulus (GPa) = 16.26813 27.27469 21.77141
#
# Velocity S-wave (km/s) = 2.92195 3.78341 3.38023
# Velocity P-wave (km/s) = 4.40819 6.82524 5.74526
#
# Compressibility (1/GPa) = 0.06520709
#
# Stress axis : x y z
#
# Youngs Moduli (GPa) = 81.26902 15.53945 71.84794
#
# Poissons Ratio (x) = -0.19124 0.54390
# Poissons Ratio (y) = -1.00017 1.25166
# Poissons Ratio (z) = 0.61522 0.27071
#
# Static dielectric constant tensor:
#      x y z
#    x 1.341290 0.000000 0.485180 
#    y 0.000000 1.684890 0.000000 
#    z 0.485180 0.000000 1.039970 
# 
# From -- ./inp_files/308795.got.cif
#   From: 2010.05.17/outbox.cif.g08.bks.cpg/sg15_155_cif.got.tgz:308795.got - 2010.06.03 18:47:42.
