data_PCOD9259824
_publ_section_title
;
Structure prediction by ZEFSAII (Michael W. Deem and Ramdas Pophale) SiO2 
 PCOD9259824
Probable space group: C 2/C
;
_chemical_formula_sum "Si O2"
_cell_formula_units_Z 44
_cell_length_a 16.065643
_cell_length_b 10.331753
_cell_length_c 11.455134
_cell_angle_alpha 90.000000
_cell_angle_beta 97.110975
_cell_angle_gamma 90.000000
_cell_volume 1886.769731
_symmetry_space_group_name_H-M "C 2/C"
_symmetry_group_IT_number 15
_symmetry_cell_setting 'monoclinic'
loop_
_space_group_symop_operation_xyz
x,y,z
-x,y,1/2-z
-x,-y,-z
x,-y,1/2+z
1/2+x,1/2+y,z
1/2-x,1/2+y,1/2-z
1/2-x,1/2-y,-z
1/2+x,1/2-y,1/2+z
loop_
_atom_site_type_symbol
_atom_site_label
_atom_site_fract_x
_atom_site_fract_y
_atom_site_fract_z
Si Si1 0.785121 0.093097 0.295615
Si Si2 0.091000 0.073626 0.783065
Si Si3 0.649180 0.753058 0.001647
Si Si4 0.000000 0.475792 0.750000
Si Si5 0.130541 0.706086 0.138674
Si Si6 0.648967 0.039977 0.927356
O O1 0.854413 0.173814 0.379146
O O2 0.711891 0.182401 0.233015
O O3 0.732698 0.993066 0.368531
O O4 0.831449 0.022653 0.197964
O O5 0.103317 0.149989 0.662715
O O6 0.000000 0.013618 0.750000
O O7 0.101115 0.176127 0.890619
O O8 0.750000 0.750000 0.000000
O O9 0.628826 0.905234 0.994297
O O10 0.944817 0.384449 0.825746
O O11 0.930307 0.556857 0.670483
O O12 0.153580 0.659030 0.014978
#
# Coordination Sequence:
#
# PCOD9259824 Si02
#       6
#     8   8   8   4   8   8
#     4  10  22  36  61  91 121 167 208 251 309 376
#     4  12  23  40  64  90 127 164 209 255 315 374
#     4  10  18  39  61  84 121 167 200 247 313 370
#     4  10  18  36  56  94 118 160 194 256 312 366
#     4  11  20  36  64  92 121 159 210 254 309 375
#     4  10  20  35  63  92 120 159 210 259 312 366
#
# _framework density 23.320281000000001
#
# number of rings (size 3 to 8) (size 9 to 14) (size 15 to 20)
#    0.000    1.455    6.364    2.727    0.000    1.455 
#    0.000    0.000    2.000    0.000    0.000    0.000 
#    0.000    0.000    0.000    0.000    0.000    0.000 
#
# Total GULP energy -122895.858738 kJ/mol
# GULP energy per Si atom -5586.175397 kJ/mol
# Density = 2.326720 g / cm^3
# Si number density = 23.320281 Si / 1000 Ang^3
#
#
#
# Elastic Constant Matrix: (Units=GPa)
#
#
# Indices 1 2 3 4 5 6 
#
# 1 94.5778 12.7830 27.9842 0.0000 10.9526 0.0000
# 2 12.7830 16.3909 7.0052 0.0000 -7.0392 0.0000
# 3 27.9842 7.0052 46.5783 0.0000 20.4865 0.0000
# 4 0.0000 0.0000 0.0000 29.9449 0.0000 -1.7966
# 5 10.9526 -7.0392 20.4865 0.0000 22.1394 0.0000
# 6 0.0000 0.0000 0.0000 -1.7966 0.0000 26.8709
#
#
#
# Elastic Compliance Matrix: (Units=1/GPa)
#
#
# Indices 1 2 3 4 5 6 
#
# 1 0.014265 -0.014252 -0.002243 0.000000 -0.009513 0.000000
# 2 -0.014252 0.146932 -0.062703 0.000000 0.111789 0.000000
# 3 -0.002243 -0.062703 0.068342 0.000000 -0.082067 0.000000
# 4 0.000000 0.000000 0.000000 0.033529 0.000000 0.002242
# 5 -0.009513 0.111789 -0.082067 0.000000 0.161357 0.000000
# 6 0.000000 0.000000 0.000000 0.002242 0.000000 0.037365
#
#
# Mechanical properties :
#
#
# Convention : Reuss Voigt Hill
#
# Bulk Modulus (GPa) = 14.05629 28.12131 21.08880
# Shear Modulus (GPa) = 7.76517 23.10934 15.43726
#
# Velocity S-wave (km/s) = 1.82675 3.15136 2.57566
# Velocity P-wave (km/s) = 3.23882 5.03253 4.23180
#
# Compressibility (1/GPa) = 0.07114255
#
# Stress axis : x y z
#
# Youngs Moduli (GPa) = 70.10243 6.80589 14.63222
#
# Poissons Ratio (x) = 0.09700 0.03282
# Poissons Ratio (y) = 0.99909 0.91749
# Poissons Ratio (z) = 0.15722 0.42675
#
# Static dielectric constant tensor:
#      x y z
#    x 1.845070 0.000000 -0.053320 
#    y 0.000000 1.927420 0.000000 
#    z -0.053320 0.000000 1.946740 
# 
# From -- ./inp_files/95004.got.cif
#   From: 2010.05.17/outbox.cif.g08.bks.cpg/sg15_48_cif.got.tgz:95004.got - 2010.06.03 18:47:42.
