data_PCOD9259337
_publ_section_title
;
Structure prediction by ZEFSAII (Michael W. Deem and Ramdas Pophale) SiO2 
 PCOD9259337
Probable space group: C 2/C
;
_chemical_formula_sum "Si O2"
_cell_formula_units_Z 64
_cell_length_a 20.018345
_cell_length_b 18.712677
_cell_length_c 15.337584
_cell_angle_alpha 90.000000
_cell_angle_beta 33.124402
_cell_angle_gamma 90.000000
_cell_volume 3139.629372
_symmetry_space_group_name_H-M "C 2/C"
_symmetry_group_IT_number 15
_symmetry_cell_setting 'monoclinic'
loop_
_space_group_symop_operation_xyz
x,y,z
-x,y,1/2-z
-x,-y,-z
x,-y,1/2+z
1/2+x,1/2+y,z
1/2-x,1/2+y,1/2-z
1/2-x,1/2-y,-z
1/2+x,1/2-y,1/2+z
loop_
_atom_site_type_symbol
_atom_site_label
_atom_site_fract_x
_atom_site_fract_y
_atom_site_fract_z
Si Si1 0.389514 0.512530 0.230782
Si Si2 0.841579 0.044028 0.588255
Si Si3 0.463205 0.702298 0.634791
Si Si4 0.769831 0.805426 0.192936
Si Si5 0.171513 0.419003 0.738688
Si Si6 0.215292 0.109146 0.558874
Si Si7 0.189483 0.154764 0.267622
Si Si8 0.429094 0.147413 0.456587
O O1 0.359644 0.468294 0.173611
O O2 0.317381 0.472904 0.385083
O O3 0.351713 0.594086 0.254527
O O4 0.534628 0.511054 0.085805
O O5 0.830738 0.127489 0.578561
O O6 0.724228 0.998437 0.690099
O O7 0.361374 0.716099 0.671416
O O8 0.397116 0.653796 0.778935
O O9 0.576574 0.666888 0.458790
O O10 0.505648 0.776682 0.629257
O O11 0.729134 0.732702 0.190832
O O12 0.652002 0.839680 0.368739
O O13 0.253545 0.380310 0.575224
O O14 0.200108 0.379517 0.797719
O O15 0.032503 0.411054 0.861310
O O16 0.336319 0.128616 0.481333
#
# Coordination Sequence:
#
# PCOD9259337 Si02
#       8
#     8   8   8   8   8   8   8   8
#     4  10  18  35  57  77 102 143 181 225 274 309
#     4  10  19  35  58  77 104 138 184 233 265 315
#     4  10  18  35  53  77 107 146 178 217 268 318
#     4  10  18  36  56  80 108 137 180 228 269 321
#     4  11  23  34  51  81 108 145 185 218 267 322
#     4  11  22  38  51  76 114 150 183 220 265 324
#     4  10  20  34  56  80 108 135 178 230 271 323
#     4  10  21  36  51  75 113 151 175 212 267 333
#
# _framework density 20.384571000000001
#
# number of rings (size 3 to 8) (size 9 to 14) (size 15 to 20)
#    0.000    1.750    5.000    1.875    0.000    3.000 
#    4.500    0.000    0.000    0.750    0.000    0.000 
#    0.000    0.000    0.000    0.000    0.000    0.000 
#
# Total GULP energy -178755.446029 kJ/mol
# GULP energy per Si atom -5586.107688 kJ/mol
# Density = 2.033818 g / cm^3
# Si number density = 20.384571 Si / 1000 Ang^3
#
#
#
# Elastic Constant Matrix: (Units=GPa)
#
#
# Indices 1 2 3 4 5 6 
#
# 1 35.6539 27.3900 20.1640 -0.0001 -17.6354 0.0001
# 2 27.3900 121.4792 25.1070 -0.0001 -24.2708 0.0001
# 3 20.1640 25.1070 53.2639 -0.0002 -20.1480 0.0002
# 4 -0.0001 -0.0001 -0.0002 35.0987 0.0001 -12.4414
# 5 -17.6354 -24.2708 -20.1480 0.0001 18.4746 -0.0001
# 6 0.0001 0.0001 0.0002 -12.4414 -0.0001 11.9686
#
#
#
# Elastic Compliance Matrix: (Units=1/GPa)
#
#
# Indices 1 2 3 4 5 6 
#
# 1 0.053795 -0.002561 -0.001712 0.000000 0.046120 0.000000
# 2 -0.002561 0.011291 0.000568 0.000000 0.013008 0.000000
# 3 -0.001712 0.000568 0.032034 0.000000 0.034047 0.000000
# 4 0.000000 0.000000 0.000000 0.045114 0.000000 0.046897
# 5 0.046120 0.013008 0.034047 0.000000 0.152372 0.000000
# 6 0.000000 0.000000 0.000000 0.046897 0.000000 0.132301
#
#
# Mechanical properties :
#
#
# Convention : Reuss Voigt Hill
#
# Bulk Modulus (GPa) = 11.14718 39.52434 25.33576
# Shear Modulus (GPa) = 10.77073 22.29079 16.53076
#
# Velocity S-wave (km/s) = 2.30114 3.31042 2.85080
# Velocity P-wave (km/s) = 3.54127 5.83466 4.82617
#
# Compressibility (1/GPa) = 0.08970876
#
# Stress axis : x y z
#
# Youngs Moduli (GPa) = 18.58897 88.56767 31.21699
#
# Poissons Ratio (x) = 0.22681 0.05346
# Poissons Ratio (y) = 0.04760 -0.01772
# Poissons Ratio (z) = 0.03183 -0.05028
#
# Static dielectric constant tensor:
#      x y z
#    x 1.711280 0.000000 -0.006400 
#    y 0.000000 1.768660 0.000000 
#    z -0.006400 0.000000 1.741600 
# 
# From -- ./inp_files/216138.got.cif
#   From: 2010.05.17/outbox.cif.g08.bks.cpg/sg15_109_cif.got.tgz:216138.got - 2010.06.03 18:47:42.
