data_PCOD9259870
_publ_section_title
;
Structure prediction by ZEFSAII (Michael W. Deem and Ramdas Pophale) SiO2 
 PCOD9259870
Probable space group: C 2/C
;
_chemical_formula_sum "Si O2"
_cell_formula_units_Z 56
_cell_length_a 21.018675
_cell_length_b 8.421025
_cell_length_c 15.083092
_cell_angle_alpha 90.000000
_cell_angle_beta 90.084229
_cell_angle_gamma 90.000000
_cell_volume 2669.686113
_symmetry_space_group_name_H-M "C 2/C"
_symmetry_group_IT_number 15
_symmetry_cell_setting 'monoclinic'
loop_
_space_group_symop_operation_xyz
x,y,z
-x,y,1/2-z
-x,-y,-z
x,-y,1/2+z
1/2+x,1/2+y,z
1/2-x,1/2+y,1/2-z
1/2-x,1/2-y,-z
1/2+x,1/2-y,1/2+z
loop_
_atom_site_type_symbol
_atom_site_label
_atom_site_fract_x
_atom_site_fract_y
_atom_site_fract_z
Si Si1 0.535035 0.498941 0.593270
Si Si2 0.149376 0.168631 0.521684
Si Si3 0.313686 0.956875 0.268606
Si Si4 0.067019 0.718761 0.702920
Si Si5 0.289870 0.048811 0.566770
Si Si6 0.401745 0.515154 0.161192
Si Si7 0.296523 0.743950 0.666330
O O1 0.500000 0.500000 0.500000
O O2 0.594805 0.617704 0.591247
O O3 0.555447 0.317342 0.613547
O O4 0.475709 0.534325 0.656870
O O5 0.216518 0.086746 0.545504
O O6 0.166568 0.352557 0.501472
O O7 0.122493 0.095841 0.429775
O O8 0.385147 0.927043 0.300146
O O9 0.305522 0.892095 0.167179
O O10 0.265337 0.865694 0.331731
O O11 0.295000 0.138706 0.251474
O O12 0.000000 0.680286 0.750000
O O13 0.101497 0.853621 0.762503
O O14 0.299848 0.860609 0.581339
O O15 0.357184 0.366112 0.175294
#
# Coordination Sequence:
#
# PCOD9259870 Si02
#       7
#     8   8   8   8   8   8   8
#     4   9  20  34  59  83 108 146 191 232 280 343
#     4  10  18  36  58  81 115 152 190 230 292 337
#     4  10  20  36  56  83 114 146 189 240 280 339
#     4  10  19  36  61  82 108 149 191 235 287 340
#     4   9  21  33  56  84 115 152 186 238 285 341
#     4  10  19  35  57  84 114 147 193 239 273 339
#     4  10  21  34  58  83 117 145 194 235 285 328
#
# _framework density 20.976248999999999
#
# number of rings (size 3 to 8) (size 9 to 14) (size 15 to 20)
#    0.857    1.429    1.429    1.714    2.000    0.571 
#    0.000    2.857    0.000    0.000    0.000    0.000 
#    0.000    0.000    0.000    0.000    0.000    0.000 
#
# Total GULP energy -156048.300944 kJ/mol
# GULP energy per Si atom -5573.153605 kJ/mol
# Density = 2.092851 g / cm^3
# Si number density = 20.976249 Si / 1000 Ang^3
#
#
#
# Elastic Constant Matrix: (Units=GPa)
#
#
# Indices 1 2 3 4 5 6 
#
# 1 103.6021 34.2593 -1.0787 0.0000 1.5454 0.0000
# 2 34.2593 70.7049 -11.0886 0.0000 -10.6453 0.0000
# 3 -1.0787 -11.0886 34.9544 0.0000 19.1019 0.0000
# 4 0.0000 0.0000 0.0000 -0.1664 0.0000 5.3214
# 5 1.5454 -10.6453 19.1019 0.0000 29.9194 0.0000
# 6 0.0000 0.0000 0.0000 5.3214 0.0000 32.3958
#
#
#
# Elastic Compliance Matrix: (Units=1/GPa)
#
#
# Indices 1 2 3 4 5 6 
#
# 1 0.011708 -0.006096 -0.000087 0.000000 -0.002718 0.000000
# 2 -0.006096 0.018301 0.002898 0.000000 0.004976 0.000000
# 3 -0.000087 0.002898 0.044477 0.000000 -0.027361 0.000000
# 4 0.000000 0.000000 0.000000 -0.961052 0.000000 0.157866
# 5 -0.002718 0.004976 -0.027361 0.000000 0.052802 0.000000
# 6 0.000000 0.000000 0.000000 0.157866 0.000000 0.004937
#
#
# Mechanical properties :
#
#
# Convention : Reuss Voigt Hill
#
# Bulk Modulus (GPa) = 14.72399 28.16060 21.44230
# Shear Modulus (GPa) = -6.25298 24.90771 9.32737
#
# Velocity S-wave (km/s) = -1.72842 3.44964 2.11099
# Velocity P-wave (km/s) = 1.74681 5.41487 4.02319
#
# Compressibility (1/GPa) = 0.06791635
#
# Stress axis : x y z
#
# Youngs Moduli (GPa) = 85.41399 54.64304 22.48329
#
# Poissons Ratio (x) = 0.33309 0.00196
# Poissons Ratio (y) = 0.52066 -0.06516
# Poissons Ratio (z) = 0.00744 -0.15836
#
# Static dielectric constant tensor:
#      x y z
#    x 1.751710 0.000000 -0.028170 
#    y 0.000000 1.765620 0.000000 
#    z -0.028170 0.000000 1.853520 
# 
# From -- ./inp_files/213431.got.cif
#   From: 2010.05.17/outbox.cif.g08.bks.cpg/sg15_107_cif.got.tgz:213431.got - 2010.06.03 18:47:42.
