data_PCOD9259340
_publ_section_title
;
Structure prediction by ZEFSAII (Michael W. Deem and Ramdas Pophale) SiO2 
 PCOD9259340
Probable space group: C 2/C
;
_chemical_formula_sum "Si O2"
_cell_formula_units_Z 64
_cell_length_a 15.263145
_cell_length_b 15.561485
_cell_length_c 25.583353
_cell_angle_alpha 90.000000
_cell_angle_beta 148.494434
_cell_angle_gamma 90.000000
_cell_volume 3175.458733
_symmetry_space_group_name_H-M "C 2/C"
_symmetry_group_IT_number 15
_symmetry_cell_setting 'monoclinic'
loop_
_space_group_symop_operation_xyz
x,y,z
-x,y,1/2-z
-x,-y,-z
x,-y,1/2+z
1/2+x,1/2+y,z
1/2-x,1/2+y,1/2-z
1/2-x,1/2-y,-z
1/2+x,1/2-y,1/2+z
loop_
_atom_site_type_symbol
_atom_site_label
_atom_site_fract_x
_atom_site_fract_y
_atom_site_fract_z
Si Si1 0.808174 0.391545 0.528419
Si Si2 0.161550 0.800405 0.607425
Si Si3 0.646925 0.079117 0.968208
Si Si4 0.152489 0.304331 0.203952
Si Si5 0.820503 0.539389 0.152611
Si Si6 0.694534 0.624082 0.561803
Si Si7 0.025064 0.774807 0.421273
Si Si8 0.105433 0.790968 0.849716
O O1 0.829343 0.478862 0.505850
O O2 0.814745 0.423110 0.591471
O O3 0.949500 0.321363 0.587325
O O4 0.632405 0.338958 0.438578
O O5 0.198194 0.729596 0.669134
O O6 0.296150 0.876891 0.675107
O O7 0.113936 0.773315 0.523847
O O8 0.990936 0.844059 0.539038
O O9 0.745285 0.147404 0.054637
O O10 0.044535 0.390938 0.139357
O O11 0.737969 0.092339 0.959262
O O12 0.331573 0.304446 0.324522
O O13 0.019598 0.242506 0.167747
O O14 0.696886 0.460185 0.099176
O O15 0.000000 0.496920 0.250000
O O16 0.810889 0.705648 0.633054
O O17 0.000000 0.834257 0.750000
#
# Coordination Sequence:
#
# PCOD9259340 Si02
#       8
#     8   8   8   8   8   8   8   8
#     4   9  21  42  58  78 121 156 196 238 284 342
#     4  11  20  35  57  84 116 146 191 241 291 349
#     4  10  20  39  59  83 119 152 185 242 290 340
#     4  11  21  37  61  89 118 149 195 241 295 346
#     4  10  20  32  55  86 111 145 190 240 294 344
#     4  10  18  35  53  82 114 147 180 236 296 347
#     4  10  22  40  61  84 113 162 195 235 291 344
#     4  11  20  35  60  83 117 156 190 233 296 353
#
# _framework density 20.154568999999999
#
# number of rings (size 3 to 8) (size 9 to 14) (size 15 to 20)
#    0.000    1.750    2.500    3.000    0.000    2.000 
#    2.250    1.875    0.000    0.000    0.000    0.000 
#    0.000    0.000    0.000    0.000    0.000    0.000 
#
# Total GULP energy -178248.038436 kJ/mol
# GULP energy per Si atom -5570.251201 kJ/mol
# Density = 2.010870 g / cm^3
# Si number density = 20.154569 Si / 1000 Ang^3
#
#
#
# Elastic Constant Matrix: (Units=GPa)
#
#
# Indices 1 2 3 4 5 6 
#
# 1 47.6514 26.3740 6.5585 0.0000 0.6623 0.0000
# 2 26.3740 115.1642 19.6360 0.0000 0.1608 0.0000
# 3 6.5585 19.6360 57.4669 0.0000 9.3084 -0.0002
# 4 0.0000 0.0000 0.0000 12.3191 0.0000 0.8817
# 5 0.6623 0.1608 9.3084 0.0000 26.5393 0.0000
# 6 0.0000 0.0000 -0.0002 0.8817 0.0000 2.7312
#
#
#
# Elastic Compliance Matrix: (Units=1/GPa)
#
#
# Indices 1 2 3 4 5 6 
#
# 1 0.024079 -0.005365 -0.000872 0.000000 -0.000262 0.000000
# 2 -0.005365 0.010447 -0.003148 0.000000 0.001175 0.000000
# 3 -0.000872 -0.003148 0.019688 0.000000 -0.006865 0.000001
# 4 0.000000 0.000000 0.000000 0.083095 0.000000 -0.026825
# 5 -0.000262 0.001175 -0.006865 0.000000 0.040087 0.000000
# 6 0.000000 0.000000 0.000001 -0.026825 0.000000 0.374803
#
#
# Mechanical properties :
#
#
# Convention : Reuss Voigt Hill
#
# Bulk Modulus (GPa) = 28.21350 36.15771 32.18560
# Shear Modulus (GPa) = 8.57950 19.49885 14.03918
#
# Velocity S-wave (km/s) = 2.06545 3.11379 2.64213
# Velocity P-wave (km/s) = 4.44039 5.55938 5.03109
#
# Compressibility (1/GPa) = 0.03544402
#
# Stress axis : x y z
#
# Youngs Moduli (GPa) = 41.52990 95.72124 50.79158
#
# Poissons Ratio (x) = 0.51357 0.04430
# Poissons Ratio (y) = 0.22282 0.15987
# Poissons Ratio (z) = 0.03623 0.30129
#
# Static dielectric constant tensor:
#      x y z
#    x 1.751790 0.000000 -0.017190 
#    y 0.000000 1.797950 0.000000 
#    z -0.017190 0.000000 1.774310 
# 
# From -- ./inp_files/316388.got.cif
#   From: 2010.05.17/outbox.cif.g08.bks.cpg/sg15_159_cif.got.tgz:316388.got - 2010.06.03 18:47:42.
