data_PCOD9259320
_publ_section_title
;
Structure prediction by ZEFSAII (Michael W. Deem and Ramdas Pophale) SiO2 
 PCOD9259320
Probable space group: C 2/C
;
_chemical_formula_sum "Si O2"
_cell_formula_units_Z 40
_cell_length_a 13.015954
_cell_length_b 8.167866
_cell_length_c 19.475786
_cell_angle_alpha 90.000000
_cell_angle_beta 119.126744
_cell_angle_gamma 90.000000
_cell_volume 1808.693365
_symmetry_space_group_name_H-M "C 2/C"
_symmetry_group_IT_number 15
_symmetry_cell_setting 'monoclinic'
loop_
_space_group_symop_operation_xyz
x,y,z
-x,y,1/2-z
-x,-y,-z
x,-y,1/2+z
1/2+x,1/2+y,z
1/2-x,1/2+y,1/2-z
1/2-x,1/2-y,-z
1/2+x,1/2-y,1/2+z
loop_
_atom_site_type_symbol
_atom_site_label
_atom_site_fract_x
_atom_site_fract_y
_atom_site_fract_z
Si Si1 0.431548 0.334019 0.997109
Si Si2 0.571021 0.855583 0.449429
Si Si3 0.306513 0.481269 0.563194
Si Si4 0.871830 0.948345 0.234625
Si Si5 0.157248 0.244015 0.172892
O O1 0.523329 0.190067 0.010368
O O2 0.336696 0.313043 0.904953
O O3 0.500000 0.500000 0.000000
O O4 0.377894 0.369185 0.053068
O O5 0.632200 0.688723 0.440359
O O6 0.675135 0.983205 0.489863
O O7 0.452333 0.872449 0.366116
O O8 0.307868 0.487212 0.645058
O O9 0.882534 0.094484 0.292505
O O10 0.000000 0.893370 0.250000
O O11 0.782105 0.814976 0.235336
#
# Coordination Sequence:
#
# PCOD9259320 Si02
#       5
#     8   8   8   8   8
#     4   8  16  37  58  87 119 152 199 262 302 360
#     4   8  18  37  58  93 115 162 205 256 309 367
#     4  10  18  34  69  86 119 161 213 253 315 364
#     4  12  24  44  61  93 132 173 205 263 319 379
#     4  10  24  43  62  90 135 165 210 261 320 374
#
# _framework density 22.115414000000001
#
# number of rings (size 3 to 8) (size 9 to 14) (size 15 to 20)
#    1.200    1.200    2.000    0.000    0.000    8.000 
#    3.600    0.000    0.000    0.000    0.000    0.000 
#    0.000    0.000    0.000    0.000    0.000    0.000 
#
# Total GULP energy -111427.493436 kJ/mol
# GULP energy per Si atom -5571.374672 kJ/mol
# Density = 2.206508 g / cm^3
# Si number density = 22.115414 Si / 1000 Ang^3
#
#
#
# Elastic Constant Matrix: (Units=GPa)
#
#
# Indices 1 2 3 4 5 6 
#
# 1 99.8512 16.6919 6.9286 0.0000 25.8003 0.0000
# 2 16.6919 29.0177 5.6419 0.0000 10.9985 0.0000
# 3 6.9286 5.6419 61.1333 0.0000 2.2955 0.0000
# 4 0.0000 0.0000 0.0000 28.6024 0.0000 9.2128
# 5 25.8003 10.9985 2.2955 0.0000 49.7623 0.0000
# 6 0.0000 0.0000 0.0000 9.2128 0.0000 33.2348
#
#
#
# Elastic Compliance Matrix: (Units=1/GPa)
#
#
# Indices 1 2 3 4 5 6 
#
# 1 0.012238 -0.004916 -0.000737 0.000000 -0.005224 0.000000
# 2 -0.004916 0.040209 -0.002921 0.000000 -0.006203 0.000000
# 3 -0.000737 -0.002921 0.016701 0.000000 0.000257 0.000000
# 4 0.000000 0.000000 0.000000 0.038390 0.000000 -0.010642
# 5 -0.005224 -0.006203 0.000257 0.000000 0.024163 0.000000
# 6 0.000000 0.000000 0.000000 -0.010642 0.000000 0.033039
#
#
# Mechanical properties :
#
#
# Convention : Reuss Voigt Hill
#
# Bulk Modulus (GPa) = 19.23081 27.61410 23.42246
# Shear Modulus (GPa) = 25.09779 33.03590 29.06684
#
# Velocity S-wave (km/s) = 3.37242 3.86916 3.62930
# Velocity P-wave (km/s) = 4.88659 5.69859 5.30814
#
# Compressibility (1/GPa) = 0.05199988
#
# Stress axis : x y z
#
# Youngs Moduli (GPa) = 81.71433 24.87022 59.87626
#
# Poissons Ratio (x) = 0.12226 0.04414
# Poissons Ratio (y) = 0.40171 0.17488
# Poissons Ratio (z) = 0.06023 0.07264
#
# Static dielectric constant tensor:
#      x y z
#    x 1.863010 0.000000 0.032940 
#    y 0.000000 1.864600 0.000000 
#    z 0.032940 0.000000 1.784840 
# 
# From -- ./inp_files/242088.got.cif
#   From: 2010.05.17/outbox.cif.g08.bks.cpg/sg15_122_cif.got.tgz:242088.got - 2010.06.03 18:47:42.
