data_PCOD9259565
_publ_section_title
;
Structure prediction by ZEFSAII (Michael W. Deem and Ramdas Pophale) SiO2 
 PCOD9259565
Probable space group: C 2/C
;
_chemical_formula_sum "Si O2"
_cell_formula_units_Z 44
_cell_length_a 23.933299
_cell_length_b 21.615122
_cell_length_c 15.482916
_cell_angle_alpha 90.000000
_cell_angle_beta 15.892023
_cell_angle_gamma 90.000000
_cell_volume 2193.242311
_symmetry_space_group_name_H-M "C 2/C"
_symmetry_group_IT_number 15
_symmetry_cell_setting 'monoclinic'
loop_
_space_group_symop_operation_xyz
x,y,z
-x,y,1/2-z
-x,-y,-z
x,-y,1/2+z
1/2+x,1/2+y,z
1/2-x,1/2+y,1/2-z
1/2-x,1/2-y,-z
1/2+x,1/2-y,1/2+z
loop_
_atom_site_type_symbol
_atom_site_label
_atom_site_fract_x
_atom_site_fract_y
_atom_site_fract_z
Si Si1 0.748860 0.075372 0.377793
Si Si2 0.714859 0.069549 0.615809
Si Si3 0.242825 0.525543 0.209567
Si Si4 0.000000 0.134310 0.750000
Si Si5 0.906420 0.712470 0.705534
Si Si6 0.148338 0.200489 0.368871
O O1 0.821965 0.059588 0.364636
O O2 0.814682 0.031727 0.201216
O O3 0.822685 0.142772 0.238805
O O4 0.500000 0.078334 0.750000
O O5 0.673359 0.142339 0.685003
O O6 0.797322 0.036664 0.578578
O O7 0.498903 0.034638 0.925459
O O8 0.320866 0.585214 0.038743
O O9 0.996457 0.177967 0.670853
O O10 0.915183 0.743347 0.597958
O O11 0.130548 0.712128 0.415793
O O12 0.750000 0.750000 0.000000
#
# Coordination Sequence:
#
# PCOD9259565 Si02
#       6
#     8   8   8   4   8   8
#     4   9  14  33  56  80 111 151 192 236 303 346
#     4  10  18  35  60  87 114 150 203 256 297 352
#     4   9  19  34  59  83 111 160 197 239 302 375
#     4  10  20  42  58  80 126 166 202 228 324 382
#     4  12  21  38  64  92 121 153 211 253 308 347
#     4  11  22  37  61  88 120 169 195 251 300 372
#
# _framework density 20.061622
#
# number of rings (size 3 to 8) (size 9 to 14) (size 15 to 20)
#    0.000    1.818    7.273    0.545    0.000    0.727 
#    3.273    5.455    6.000    0.000    0.000    0.000 
#    0.000    0.000    0.000    0.000    0.000    0.000 
#
# Total GULP energy -122629.185114 kJ/mol
# GULP energy per Si atom -5574.053869 kJ/mol
# Density = 2.001596 g / cm^3
# Si number density = 20.061622 Si / 1000 Ang^3
#
#
#
# Elastic Constant Matrix: (Units=GPa)
#
#
# Indices 1 2 3 4 5 6 
#
# 1 151.1663 79.0891 36.3972 -0.0280 42.5784 0.0212
# 2 79.0891 102.9443 10.1354 -0.0242 26.0448 0.0244
# 3 36.3972 10.1354 53.5823 -0.0641 23.2771 0.0007
# 4 -0.0280 -0.0242 -0.0641 23.4960 0.0376 9.1101
# 5 42.5784 26.0448 23.2771 0.0376 36.2578 -0.0156
# 6 0.0212 0.0244 0.0007 9.1101 -0.0156 40.3166
#
#
#
# Elastic Compliance Matrix: (Units=1/GPa)
#
#
# Indices 1 2 3 4 5 6 
#
# 1 0.014513 -0.008740 -0.004893 0.000010 -0.007624 -0.000008
# 2 -0.008740 0.017294 0.004997 0.000036 -0.005368 -0.000016
# 3 -0.004893 0.004997 0.027880 0.000113 -0.015742 -0.000033
# 4 0.000010 0.000036 0.000113 0.046648 -0.000163 -0.010541
# 5 -0.007624 -0.005368 -0.015742 -0.000163 0.050496 0.000064
# 6 -0.000008 -0.000016 -0.000033 -0.010541 0.000064 0.027186
#
#
# Mechanical properties :
#
#
# Convention : Reuss Voigt Hill
#
# Bulk Modulus (GPa) = 23.57545 62.10405 42.83975
# Shear Modulus (GPa) = 23.20959 32.15216 27.68087
#
# Velocity S-wave (km/s) = 3.40504 4.00768 3.71859
# Velocity P-wave (km/s) = 5.21882 7.24149 6.31170
#
# Compressibility (1/GPa) = 0.04241701
#
# Stress axis : x y z
#
# Youngs Moduli (GPa) = 68.90210 57.82197 35.86746
#
# Poissons Ratio (x) = 0.50534 0.17551
# Poissons Ratio (y) = 0.60217 -0.17924
# Poissons Ratio (z) = 0.33716 -0.28895
#
# Static dielectric constant tensor:
#      x y z
#    x 1.774060 -0.000010 0.000040 
#    y -0.000010 1.703210 0.000030 
#    z 0.000040 0.000030 1.745480 
# 
# From -- ./inp_files/174406.got.cif
#   From: 2010.05.17/outbox.cif.g08.bks.cpg/sg15_88_cif.got.tgz:174406.got - 2010.06.03 18:47:42.
