data_PCOD9259958
_publ_section_title
;
Structure prediction by ZEFSAII (Michael W. Deem and Ramdas Pophale) SiO2 
 PCOD9259958
Probable space group: C 2/C
;
_chemical_formula_sum "Si O2"
_cell_formula_units_Z 60
_cell_length_a 8.837775
_cell_length_b 16.799726
_cell_length_c 18.926720
_cell_angle_alpha 90.000000
_cell_angle_beta 84.687405
_cell_angle_gamma 90.000000
_cell_volume 2798.020610
_symmetry_space_group_name_H-M "C 2/C"
_symmetry_group_IT_number 15
_symmetry_cell_setting 'monoclinic'
loop_
_space_group_symop_operation_xyz
x,y,z
-x,y,1/2-z
-x,-y,-z
x,-y,1/2+z
1/2+x,1/2+y,z
1/2-x,1/2+y,1/2-z
1/2-x,1/2-y,-z
1/2+x,1/2-y,1/2+z
loop_
_atom_site_type_symbol
_atom_site_label
_atom_site_fract_x
_atom_site_fract_y
_atom_site_fract_z
Si Si1 0.823172 0.389655 0.769246
Si Si2 0.751892 0.144411 0.379134
Si Si3 0.320392 0.061344 0.787293
Si Si4 0.500000 0.365799 0.250000
Si Si5 0.547407 0.794056 0.166104
Si Si6 0.968286 0.907804 0.984673
Si Si7 0.809336 0.787422 0.604159
Si Si8 0.503459 0.722446 0.899711
O O1 0.767027 0.404647 0.691917
O O2 0.796569 0.471459 0.812252
O O3 0.741842 0.321062 0.816448
O O4 0.000000 0.370549 0.750000
O O5 0.871437 0.212324 0.353781
O O6 0.819999 0.096812 0.441137
O O7 0.607504 0.199311 0.401391
O O8 0.500000 0.055595 0.750000
O O9 0.165517 0.087375 0.750516
O O10 0.343871 0.130316 0.843676
O O11 0.503936 0.311609 0.179660
O O12 0.500000 0.790861 0.250000
O O13 0.409699 0.790448 0.117844
O O14 0.947837 0.850694 0.053130
O O15 0.102013 0.859385 0.937466
O O16 0.000000 0.000000 0.000000
O O17 0.660722 0.755937 0.572619
#
# Coordination Sequence:
#
# PCOD9259958 Si02
#       8
#     8   8   8   4   8   8   8   8
#     4  11  22  40  69 107 140 166 226 292 354 415
#     4  11  22  41  70  93 134 181 221 281 343 415
#     4  10  23  37  59 106 148 169 215 287 358 412
#     4  12  24  38  80 104 138 178 234 298 362 418
#     4  10  18  36  59  98 132 166 214 273 337 408
#     4  11  29  46  63  94 139 183 235 284 347 428
#     4  11  23  41  74  95 133 180 225 292 343 414
#     4  12  23  45  67 100 128 177 242 278 352 423
#
# _framework density 21.443729999999999
#
# number of rings (size 3 to 8) (size 9 to 14) (size 15 to 20)
#    0.000    1.067    4.000    3.200    3.733    1.067 
#    0.000    0.667    0.000    0.000    0.000    0.000 
#    0.000    0.000    0.000    0.000    0.000    0.000 
#
# Total GULP energy -167144.932977 kJ/mol
# GULP energy per Si atom -5571.497766 kJ/mol
# Density = 2.139492 g / cm^3
# Si number density = 21.443730 Si / 1000 Ang^3
#
#
#
# Elastic Constant Matrix: (Units=GPa)
#
#
# Indices 1 2 3 4 5 6 
#
# 1 100.6097 18.8264 25.7890 0.0000 0.9178 0.0000
# 2 18.8264 99.1208 28.7715 0.0000 10.3051 0.0000
# 3 25.7890 28.7715 93.7134 0.0000 2.9288 0.0000
# 4 0.0000 0.0000 0.0000 32.1871 0.0000 7.9286
# 5 0.9178 10.3051 2.9288 0.0000 24.9101 0.0000
# 6 0.0000 0.0000 0.0000 7.9286 0.0000 20.0802
#
#
#
# Elastic Compliance Matrix: (Units=1/GPa)
#
#
# Indices 1 2 3 4 5 6 
#
# 1 0.010852 -0.001360 -0.002583 0.000000 0.000466 0.000000
# 2 -0.001360 0.011701 -0.003080 0.000000 -0.004429 0.000000
# 3 -0.002583 -0.003080 0.012330 0.000000 -0.000080 0.000000
# 4 0.000000 0.000000 0.000000 0.034416 0.000000 -0.013589
# 5 0.000466 -0.004429 -0.000080 0.000000 0.041969 0.000000
# 6 0.000000 0.000000 0.000000 -0.013589 0.000000 0.055166
#
#
# Mechanical properties :
#
#
# Convention : Reuss Voigt Hill
#
# Bulk Modulus (GPa) = 47.99184 48.91307 48.45246
# Shear Modulus (GPa) = 26.67734 30.10593 28.39164
#
# Velocity S-wave (km/s) = 3.53095 3.75100 3.64264
# Velocity P-wave (km/s) = 6.24920 6.45131 6.35106
#
# Compressibility (1/GPa) = 0.02083688
#
# Stress axis : x y z
#
# Youngs Moduli (GPa) = 92.15080 85.46008 81.10390
#
# Poissons Ratio (x) = 0.11620 0.20953
# Poissons Ratio (y) = 0.12530 0.24979
# Poissons Ratio (z) = 0.23806 0.26321
#
# Static dielectric constant tensor:
#      x y z
#    x 1.917560 0.000000 0.030720 
#    y 0.000000 1.755360 0.000000 
#    z 0.030720 0.000000 1.776130 
# 
# From -- ./inp_files/190990.got.cif
#   From: 2010.05.17/outbox.cif.g08.bks.cpg/sg15_96_cif.got.tgz:190990.got - 2010.06.03 18:47:42.
