data_PCOD9259447
_publ_section_title
;
Structure prediction by ZEFSAII (Michael W. Deem and Ramdas Pophale) SiO2 
 PCOD9259447
Probable space group: C 2/C
;
_chemical_formula_sum "Si O2"
_cell_formula_units_Z 44
_cell_length_a 28.026046
_cell_length_b 5.033285
_cell_length_c 16.133852
_cell_angle_alpha 90.000000
_cell_angle_beta 129.952945
_cell_angle_gamma 90.000000
_cell_volume 1744.634357
_symmetry_space_group_name_H-M "C 2/C"
_symmetry_group_IT_number 15
_symmetry_cell_setting 'monoclinic'
loop_
_space_group_symop_operation_xyz
x,y,z
-x,y,1/2-z
-x,-y,-z
x,-y,1/2+z
1/2+x,1/2+y,z
1/2-x,1/2+y,1/2-z
1/2-x,1/2-y,-z
1/2+x,1/2-y,1/2+z
loop_
_atom_site_type_symbol
_atom_site_label
_atom_site_fract_x
_atom_site_fract_y
_atom_site_fract_z
Si Si1 0.539359 0.791600 0.134148
Si Si2 0.872162 0.179376 0.572810
Si Si3 0.681909 0.177762 0.079783
Si Si4 0.721586 0.499436 0.919305
Si Si5 0.412292 0.725878 0.892105
Si Si6 0.000000 0.982579 0.750000
O O1 0.578513 0.579087 0.123260
O O2 0.532664 0.699543 0.219413
O O3 0.570756 0.076752 0.163197
O O4 0.469107 0.787966 0.019290
O O5 0.853714 0.471153 0.521218
O O6 0.835512 0.972101 0.472024
O O7 0.849117 0.070810 0.637537
O O8 0.945669 0.149840 0.646780
O O9 0.752570 0.071442 0.143328
O O10 0.651609 0.181006 0.136530
O O11 0.750000 0.250000 0.000000
O O12 0.750000 0.750000 0.000000
#
# Coordination Sequence:
#
# PCOD9259447 Si02
#       6
#     8   8   8   8   8   4
#     4  10  23  34  54  76 113 144 181 225 268 338
#     4  10  21  32  53  83 111 143 177 225 279 329
#     4  10  18  35  58  78 105 141 189 230 266 317
#     4   8  16  31  51  78 104 134 182 231 264 309
#     4  10  20  38  54  78 104 146 190 222 267 322
#     4  12  24  38  54  84 120 148 174 226 294 338
#
# _framework density 25.220182000000001
#
# number of rings (size 3 to 8) (size 9 to 14) (size 15 to 20)
#    0.000    2.182    1.818    1.091    5.091    2.909 
#    0.000    0.000    0.000    2.182    0.000    0.000 
#    0.000    0.000    0.000    0.000    0.000    0.000 
#
# Total GULP energy -122858.460042 kJ/mol
# GULP energy per Si atom -5584.475456 kJ/mol
# Density = 2.516278 g / cm^3
# Si number density = 25.220182 Si / 1000 Ang^3
#
#
#
# Elastic Constant Matrix: (Units=GPa)
#
#
# Indices 1 2 3 4 5 6 
#
# 1 134.6695 12.9362 9.9242 0.0000 -7.3289 -0.0002
# 2 12.9362 129.8956 8.6638 0.0020 8.9803 0.0010
# 3 9.9242 8.6638 32.2944 0.0001 5.6485 -0.0001
# 4 0.0000 0.0020 0.0001 18.8459 -0.0002 -4.1759
# 5 -7.3289 8.9803 5.6485 -0.0002 16.3176 -0.0001
# 6 -0.0002 0.0010 -0.0001 -4.1759 -0.0001 23.0785
#
#
#
# Elastic Compliance Matrix: (Units=1/GPa)
#
#
# Indices 1 2 3 4 5 6 
#
# 1 0.008031 -0.000952 -0.003124 0.000000 0.005212 0.000000
# 2 -0.000952 0.008181 -0.001107 -0.000001 -0.004547 -0.000001
# 3 -0.003124 -0.001107 0.034447 0.000000 -0.012718 0.000000
# 4 0.000000 -0.000001 0.000000 0.055278 0.000001 0.010002
# 5 0.005212 -0.004547 -0.012718 0.000001 0.070529 0.000001
# 6 0.000000 -0.000001 0.000000 0.010002 0.000001 0.045140
#
#
# Mechanical properties :
#
#
# Convention : Reuss Voigt Hill
#
# Bulk Modulus (GPa) = 24.81837 39.98976 32.40407
# Shear Modulus (GPa) = 20.37457 29.33743 24.85600
#
# Velocity S-wave (km/s) = 2.84538 3.41435 3.14277
# Velocity P-wave (km/s) = 4.54500 5.60664 5.10350
#
# Compressibility (1/GPa) = 0.04029273
#
# Stress axis : x y z
#
# Youngs Moduli (GPa) = 124.51902 122.22747 29.03041
#
# Poissons Ratio (x) = 0.11633 0.09070
# Poissons Ratio (y) = 0.11851 0.03214
# Poissons Ratio (z) = 0.38903 0.13532
#
# Static dielectric constant tensor:
#      x y z
#    x 1.978700 0.000000 -0.036870 
#    y 0.000000 1.951070 0.000000 
#    z -0.036870 0.000000 2.015040 
# 
# From -- ./inp_files/220698.got.cif
#   From: 2010.05.17/outbox.cif.g08.bks.cpg/sg15_111_cif.got.tgz:220698.got - 2010.06.03 18:47:42.
