data_PCOD9259638
_publ_section_title
;
Structure prediction by ZEFSAII (Michael W. Deem and Ramdas Pophale) SiO2 
 PCOD9259638
Probable space group: C 2/C
;
_chemical_formula_sum "Si O2"
_cell_formula_units_Z 48
_cell_length_a 12.948713
_cell_length_b 30.801778
_cell_length_c 5.701996
_cell_angle_alpha 90.000000
_cell_angle_beta 75.919197
_cell_angle_gamma 90.000000
_cell_volume 2205.871716
_symmetry_space_group_name_H-M "C 2/C"
_symmetry_group_IT_number 15
_symmetry_cell_setting 'monoclinic'
loop_
_space_group_symop_operation_xyz
x,y,z
-x,y,1/2-z
-x,-y,-z
x,-y,1/2+z
1/2+x,1/2+y,z
1/2-x,1/2+y,1/2-z
1/2-x,1/2-y,-z
1/2+x,1/2-y,1/2+z
loop_
_atom_site_type_symbol
_atom_site_label
_atom_site_fract_x
_atom_site_fract_y
_atom_site_fract_z
Si Si1 0.382899 0.858114 0.697552
Si Si2 0.340192 0.302749 0.204784
Si Si3 0.000000 0.831019 0.750000
Si Si4 0.500000 0.172707 0.750000
Si Si5 0.130839 0.724660 0.998748
Si Si6 0.838941 0.114953 0.011918
Si Si7 0.878745 0.984464 0.523123
O O1 0.500000 0.868941 0.750000
O O2 0.406361 0.856241 0.407575
O O3 0.281670 0.886692 0.820548
O O4 0.343188 0.810802 0.814220
O O5 0.222581 0.282166 0.253743
O O6 0.380826 0.272097 0.394256
O O7 0.335746 0.352799 0.289640
O O8 0.418109 0.301989 0.944286
O O9 0.923779 0.861447 0.634923
O O10 0.527727 0.204523 0.943538
O O11 0.875788 0.066087 0.956589
O O12 0.832154 0.008370 0.314723
O O13 0.000000 0.000000 0.500000
#
# Coordination Sequence:
#
# PCOD9259638 Si02
#       7
#     8   8   4   4   8   8   8
#     4   9  20  38  61  90 120 165 216 268 305 378
#     4  10  23  38  56  86 128 166 209 267 316 387
#     4  12  24  35  58  92 124 166 206 266 322 386
#     4  10  18  35  62  82 110 164 220 258 312 362
#     4   9  20  39  56  82 123 169 215 259 316 369
#     4  11  24  39  62  93 128 161 211 260 332 390
#     4  10  23  42  67  95 131 172 210 263 331 418
#
# _framework density 21.760104999999999
#
# number of rings (size 3 to 8) (size 9 to 14) (size 15 to 20)
#    0.000    2.000    0.000    2.500    7.000    6.667 
#    0.000    5.000    0.000    6.000    0.000    0.000 
#    0.000    0.000    0.000    0.000    0.000    0.000 
#
# Total GULP energy -133838.057673 kJ/mol
# GULP energy per Si atom -5576.585736 kJ/mol
# Density = 2.171058 g / cm^3
# Si number density = 21.760105 Si / 1000 Ang^3
#
#
#
# Elastic Constant Matrix: (Units=GPa)
#
#
# Indices 1 2 3 4 5 6 
#
# 1 63.0537 11.7006 14.1998 0.0000 -25.5631 0.0000
# 2 11.7006 117.9852 28.6975 0.0000 -10.5900 0.0000
# 3 14.1998 28.6975 115.8283 0.0000 -23.3532 0.0000
# 4 0.0000 0.0000 0.0000 18.9854 0.0000 -3.7407
# 5 -25.5631 -10.5900 -23.3532 0.0000 44.4812 0.0000
# 6 0.0000 0.0000 0.0000 -3.7407 0.0000 23.3568
#
#
#
# Elastic Compliance Matrix: (Units=1/GPa)
#
#
# Indices 1 2 3 4 5 6 
#
# 1 0.020795 -0.001026 0.000073 0.000000 0.011745 0.000000
# 2 -0.001026 0.009117 -0.002029 0.000000 0.000516 0.000000
# 3 0.000073 -0.002029 0.010108 0.000000 0.004866 0.000000
# 4 0.000000 0.000000 0.000000 0.054388 0.000000 0.008711
# 5 0.011745 0.000516 0.004866 0.000000 0.031908 0.000000
# 6 0.000000 0.000000 0.000000 0.008711 0.000000 0.044209
#
#
# Mechanical properties :
#
#
# Convention : Reuss Voigt Hill
#
# Bulk Modulus (GPa) = 29.36318 45.11813 37.24065
# Shear Modulus (GPa) = 26.61802 33.51598 30.06700
#
# Velocity S-wave (km/s) = 3.50129 3.92886 3.72122
# Velocity P-wave (km/s) = 5.46523 6.43122 5.96780
#
# Compressibility (1/GPa) = 0.03405626
#
# Stress axis : x y z
#
# Youngs Moduli (GPa) = 48.08851 109.68276 98.92864
#
# Poissons Ratio (x) = 0.11251 -0.00720
# Poissons Ratio (y) = 0.04933 0.20074
# Poissons Ratio (z) = -0.00350 0.22256
#
# Static dielectric constant tensor:
#      x y z
#    x 1.923070 0.000000 -0.000820 
#    y 0.000000 1.755080 0.000000 
#    z -0.000820 0.000000 1.969750 
# 
# From -- ./inp_files/8982.got.cif
#   From: 2010.05.17/outbox.cif.g08.bks.cpg/sg15_5_cif.got.tgz:8982.got - 2010.06.03 18:47:42.
