data_PCOD9259838
_publ_section_title
;
Structure prediction by ZEFSAII (Michael W. Deem and Ramdas Pophale) SiO2 
 PCOD9259838
Probable space group: C 2/C
;
_chemical_formula_sum "Si O2"
_cell_formula_units_Z 52
_cell_length_a 17.169503
_cell_length_b 26.977774
_cell_length_c 5.689913
_cell_angle_alpha 90.000000
_cell_angle_beta 124.807141
_cell_angle_gamma 90.000000
_cell_volume 2163.983356
_symmetry_space_group_name_H-M "C 2/C"
_symmetry_group_IT_number 15
_symmetry_cell_setting 'monoclinic'
loop_
_space_group_symop_operation_xyz
x,y,z
-x,y,1/2-z
-x,-y,-z
x,-y,1/2+z
1/2+x,1/2+y,z
1/2-x,1/2+y,1/2-z
1/2-x,1/2-y,-z
1/2+x,1/2-y,1/2+z
loop_
_atom_site_type_symbol
_atom_site_label
_atom_site_fract_x
_atom_site_fract_y
_atom_site_fract_z
Si Si1 0.873271 0.521115 0.165600
Si Si2 0.000000 0.972277 0.750000
Si Si3 0.817963 0.130190 0.465484
Si Si4 0.684116 0.202379 0.941480
Si Si5 0.798264 0.046454 0.090332
Si Si6 0.500000 0.695199 0.750000
Si Si7 0.329640 0.881738 0.403608
Si Si8 0.000000 0.748738 0.750000
O O1 0.908385 0.496958 0.980851
O O2 0.759470 0.504887 0.963375
O O3 0.887920 0.580636 0.170391
O O4 0.107425 0.949886 0.910367
O O5 0.000000 0.000000 0.500000
O O6 0.752906 0.163539 0.183789
O O7 0.831241 0.075744 0.380622
O O8 0.764507 0.130837 0.616892
O O9 0.913819 0.159198 0.652480
O O10 0.750000 0.250000 0.000000
O O11 0.637754 0.170133 0.648268
O O12 0.596718 0.218481 0.951441
O O13 0.707985 0.079534 0.854494
O O14 0.483228 0.723622 0.472476
#
# Coordination Sequence:
#
# PCOD9259838 Si02
#       8
#     8   4   8   8   8   4   8   4
#     4  10  18  36  57  86 127 171 227 271 328 396
#     4  12  26  36  54  82 128 188 232 282 326 390
#     4  11  24  41  68  97 136 183 234 282 343 414
#     4  11  24  47  70 100 140 178 232 293 352 418
#     4  10  23  37  57  87 133 181 230 283 332 404
#     4  12  28  43  70  98 143 181 232 280 345 414
#     4  10  22  38  63  94 128 181 229 284 339 404
#     4  12  28  49  74 104 131 191 226 292 359 414
#
# _framework density 24.029761000000001
#
# number of rings (size 3 to 8) (size 9 to 14) (size 15 to 20)
#    0.000    1.231    3.077    2.769    8.615    1.231 
#    0.000    0.000    0.000    0.000    0.000    9.692 
#    0.000    0.154    0.000    0.000    0.000    0.000 
#
# Total GULP energy -144869.225637 kJ/mol
# GULP energy per Si atom -5571.893294 kJ/mol
# Density = 2.397507 g / cm^3
# Si number density = 24.029761 Si / 1000 Ang^3
#
#
#
# Elastic Constant Matrix: (Units=GPa)
#
#
# Indices 1 2 3 4 5 6 
#
# 1 89.0805 22.4876 -0.7755 0.0000 -17.7322 0.0000
# 2 22.4876 108.1091 14.7163 0.0000 -13.1572 0.0000
# 3 -0.7755 14.7163 72.4937 0.0000 -12.9652 0.0000
# 4 0.0000 0.0000 0.0000 53.3778 0.0000 -19.5878
# 5 -17.7322 -13.1572 -12.9652 0.0000 44.4386 0.0000
# 6 0.0000 0.0000 0.0000 -19.5878 0.0000 36.9631
#
#
#
# Elastic Compliance Matrix: (Units=1/GPa)
#
#
# Indices 1 2 3 4 5 6 
#
# 1 0.012777 -0.002266 0.001465 0.000000 0.004855 0.000000
# 2 -0.002266 0.010159 -0.001804 0.000000 0.001577 0.000000
# 3 0.001465 -0.001804 0.014966 0.000000 0.004417 0.000000
# 4 0.000000 0.000000 0.000000 0.023257 0.000000 0.012325
# 5 0.004855 0.001577 0.004417 0.000000 0.026196 0.000000
# 6 0.000000 0.000000 0.000000 0.012325 0.000000 0.033585
#
#
# Mechanical properties :
#
#
# Convention : Reuss Voigt Hill
#
# Bulk Modulus (GPa) = 30.58984 38.06001 34.32492
# Shear Modulus (GPa) = 36.48344 42.50623 39.49483
#
# Velocity S-wave (km/s) = 3.90071 4.21039 4.05851
# Velocity P-wave (km/s) = 5.74848 6.28567 6.02307
#
# Compressibility (1/GPa) = 0.03269060
#
# Stress axis : x y z
#
# Youngs Moduli (GPa) = 78.26531 98.43602 66.81722
#
# Poissons Ratio (x) = 0.22309 -0.09789
# Poissons Ratio (y) = 0.17737 0.12057
# Poissons Ratio (z) = -0.11466 0.17762
#
# Static dielectric constant tensor:
#      x y z
#    x 1.946610 0.000000 0.046910 
#    y 0.000000 1.870560 0.000000 
#    z 0.046910 0.000000 1.999340 
# 
# From -- ./inp_files/9139.got.cif
#   From: 2010.05.17/outbox.cif.g08.bks.cpg/sg15_5_cif.got.tgz:9139.got - 2010.06.03 18:47:42.
