data_PCOD9259780
_publ_section_title
;
Structure prediction by ZEFSAII (Michael W. Deem and Ramdas Pophale) SiO2 
 PCOD9259780
Probable space group: C 2/C
;
_chemical_formula_sum "Si O2"
_cell_formula_units_Z 48
_cell_length_a 9.327203
_cell_length_b 14.953429
_cell_length_c 19.204865
_cell_angle_alpha 90.000000
_cell_angle_beta 61.119524
_cell_angle_gamma 90.000000
_cell_volume 2345.436589
_symmetry_space_group_name_H-M "C 2/C"
_symmetry_group_IT_number 15
_symmetry_cell_setting 'monoclinic'
loop_
_space_group_symop_operation_xyz
x,y,z
-x,y,1/2-z
-x,-y,-z
x,-y,1/2+z
1/2+x,1/2+y,z
1/2-x,1/2+y,1/2-z
1/2-x,1/2-y,-z
1/2+x,1/2-y,1/2+z
loop_
_atom_site_type_symbol
_atom_site_label
_atom_site_fract_x
_atom_site_fract_y
_atom_site_fract_z
Si Si1 0.373970 0.475763 0.383071
Si Si2 0.170997 0.475993 0.795398
Si Si3 0.657316 0.001063 0.560533
Si Si4 0.933756 0.152869 0.187290
Si Si5 0.127650 0.299718 0.080623
Si Si6 0.204556 0.093811 0.847891
O O1 0.289455 0.486028 0.328199
O O2 0.240424 0.460340 0.473905
O O3 0.456367 0.574019 0.372672
O O4 0.524739 0.407478 0.356903
O O5 0.256314 0.390844 0.739214
O O6 0.171428 0.554733 0.738383
O O7 0.997064 0.453099 0.869063
O O8 0.591579 0.101670 0.559691
O O9 0.790610 0.022280 0.589157
O O10 0.000000 0.166914 0.250000
O O11 0.968983 0.241152 0.135065
O O12 0.225894 0.319049 0.130087
O O13 0.250000 0.250000 0.000000
#
# Coordination Sequence:
#
# PCOD9259780 Si02
#       6
#     8   8   8   8   8   8
#     4  10  18  36  55  84 114 161 194 245 291 362
#     4  10  20  34  54  88 118 159 197 245 296 351
#     4  10  20  31  56  88 117 147 205 248 291 349
#     4   9  18  32  53  79 111 150 194 234 288 344
#     4  10  20  33  55  86 117 148 199 246 296 344
#     4   9  20  32  56  85 115 151 203 242 290 346
#
# _framework density 20.465273
#
# number of rings (size 3 to 8) (size 9 to 14) (size 15 to 20)
#    1.000    1.333    1.667    3.000    2.333    0.000 
#    0.000    0.000    0.000    1.000   34.667    0.000 
#    0.000    0.000    0.000    0.000    0.000    0.000 
#
# Total GULP energy -133683.870919 kJ/mol
# GULP energy per Si atom -5570.161288 kJ/mol
# Density = 2.041869 g / cm^3
# Si number density = 20.465273 Si / 1000 Ang^3
#
#
#
# Elastic Constant Matrix: (Units=GPa)
#
#
# Indices 1 2 3 4 5 6 
#
# 1 58.2518 12.4908 26.2416 0.0000 0.8546 0.0000
# 2 12.4908 31.3173 22.1579 0.0000 -11.3103 0.0000
# 3 26.2416 22.1579 130.6941 0.0000 -23.0021 0.0000
# 4 0.0000 0.0000 0.0000 21.8317 0.0000 -0.9266
# 5 0.8546 -11.3103 -23.0021 0.0000 34.8857 0.0000
# 6 0.0000 0.0000 0.0000 -0.9266 0.0000 20.6515
#
#
#
# Elastic Compliance Matrix: (Units=1/GPa)
#
#
# Indices 1 2 3 4 5 6 
#
# 1 0.020570 -0.007466 -0.003823 0.000000 -0.005445 0.000000
# 2 -0.007466 0.041500 -0.003548 0.000000 0.011298 0.000000
# 3 -0.003823 -0.003548 0.009994 0.000000 0.005533 0.000000
# 4 0.000000 0.000000 0.000000 0.045892 0.000000 0.002059
# 5 -0.005445 0.011298 0.005533 0.000000 0.036110 0.000000
# 6 0.000000 0.000000 0.000000 0.002059 0.000000 0.048515
#
#
# Mechanical properties :
#
#
# Convention : Reuss Voigt Hill
#
# Bulk Modulus (GPa) = 23.59051 38.00488 30.79770
# Shear Modulus (GPa) = 20.29344 26.09863 23.19603
#
# Velocity S-wave (km/s) = 3.15239 3.57496 3.37030
# Velocity P-wave (km/s) = 4.98018 5.97086 5.49788
#
# Compressibility (1/GPa) = 0.04238992
#
# Stress axis : x y z
#
# Youngs Moduli (GPa) = 48.61530 24.09648 100.05607
#
# Poissons Ratio (x) = 0.17990 0.38248
# Poissons Ratio (y) = 0.36296 0.35504
# Poissons Ratio (z) = 0.18584 0.08550
#
# Static dielectric constant tensor:
#      x y z
#    x 1.774190 0.000000 0.001290 
#    y 0.000000 1.747640 0.000000 
#    z 0.001290 0.000000 1.743490 
# 
# From -- ./inp_files/264943.got.cif
#   From: 2010.05.17/outbox.cif.g08.bks.cpg/sg15_133_cif.got.tgz:264943.got - 2010.06.03 18:47:42.
