data_PCOD9259716
_publ_section_title
;
Structure prediction by ZEFSAII (Michael W. Deem and Ramdas Pophale) SiO2 
 PCOD9259716
Probable space group: C 2/C
;
_chemical_formula_sum "Si O2"
_cell_formula_units_Z 52
_cell_length_a 11.068557
_cell_length_b 14.968091
_cell_length_c 18.407686
_cell_angle_alpha 90.000000
_cell_angle_beta 136.251419
_cell_angle_gamma 90.000000
_cell_volume 2108.850370
_symmetry_space_group_name_H-M "C 2/C"
_symmetry_group_IT_number 15
_symmetry_cell_setting 'monoclinic'
loop_
_space_group_symop_operation_xyz
x,y,z
-x,y,1/2-z
-x,-y,-z
x,-y,1/2+z
1/2+x,1/2+y,z
1/2-x,1/2+y,1/2-z
1/2-x,1/2-y,-z
1/2+x,1/2-y,1/2+z
loop_
_atom_site_type_symbol
_atom_site_label
_atom_site_fract_x
_atom_site_fract_y
_atom_site_fract_z
Si Si1 0.119976 0.270813 0.611391
Si Si2 0.662625 0.497989 0.474223
Si Si3 0.500000 0.772450 0.250000
Si Si4 0.975321 0.578910 0.862343
Si Si5 0.896367 0.117498 0.772534
Si Si6 0.400816 0.892086 0.777493
Si Si7 0.922431 0.139036 0.442054
O O1 0.319108 0.281773 0.672784
O O2 0.116737 0.187700 0.667174
O O3 0.042628 0.353730 0.620943
O O4 0.994922 0.234957 0.494446
O O5 0.517465 0.464673 0.353760
O O6 0.582265 0.575579 0.489913
O O7 0.679155 0.412948 0.536645
O O8 0.845607 0.539282 0.526817
O O9 0.490643 0.836616 0.174900
O O10 0.802210 0.594076 0.834734
O O11 0.908000 0.498194 0.781437
O O12 0.000000 0.156591 0.750000
O O13 0.500000 0.858367 0.750000
O O14 0.205084 0.857762 0.681090
#
# Coordination Sequence:
#
# PCOD9259716 Si02
#       7
#     8   8   4   8   8   8   8
#     4  10  23  38  61  89 126 163 200 253 322 369
#     4  10  18  35  65  92 112 159 223 259 294 369
#     4  10  18  40  66  84 116 166 212 242 292 386
#     4  11  19  36  67  90 113 162 218 253 293 369
#     4  10  22  39  58  87 126 164 200 261 321 367
#     4  12  22  37  60  96 125 154 208 266 305 366
#     4  10  19  37  62  89 121 158 209 260 306 369
#
# _framework density 24.657983000000002
#
# number of rings (size 3 to 8) (size 9 to 14) (size 15 to 20)
#    0.000    1.538    5.385    0.462    0.000    1.231 
#    4.154    0.769    0.000    0.000    0.000    0.000 
#    0.000    0.000    0.000    0.000    0.000    0.000 
#
# Total GULP energy -145352.516444 kJ/mol
# GULP energy per Si atom -5590.481402 kJ/mol
# Density = 2.460186 g / cm^3
# Si number density = 24.657983 Si / 1000 Ang^3
#
#
#
# Elastic Constant Matrix: (Units=GPa)
#
#
# Indices 1 2 3 4 5 6 
#
# 1 106.0950 18.6222 19.1042 0.0000 33.0248 0.0000
# 2 18.6222 40.4347 10.1281 0.0000 3.9288 0.0000
# 3 19.1042 10.1281 65.5560 0.0000 18.5797 0.0000
# 4 0.0000 0.0000 0.0000 23.6159 0.0000 -8.0823
# 5 33.0248 3.9288 18.5797 0.0000 35.1203 0.0000
# 6 0.0000 0.0000 0.0000 -8.0823 0.0000 13.4257
#
#
#
# Elastic Compliance Matrix: (Units=1/GPa)
#
#
# Indices 1 2 3 4 5 6 
#
# 1 0.014402 -0.005449 0.000365 0.000000 -0.013126 0.000000
# 2 -0.005449 0.027813 -0.003858 0.000000 0.004053 0.000000
# 3 0.000365 -0.003858 0.018491 0.000000 -0.009694 0.000000
# 4 0.000000 0.000000 0.000000 0.053332 0.000000 0.032106
# 5 -0.013126 0.004053 -0.009694 0.000000 0.045492 0.000000
# 6 0.000000 0.000000 0.000000 0.032106 0.000000 0.093812
#
#
# Mechanical properties :
#
#
# Convention : Reuss Voigt Hill
#
# Bulk Modulus (GPa) = 23.35192 34.19941 28.77566
# Shear Modulus (GPa) = 17.51311 25.38113 21.44712
#
# Velocity S-wave (km/s) = 2.66793 3.21179 2.95241
# Velocity P-wave (km/s) = 4.35676 5.25869 4.82882
#
# Compressibility (1/GPa) = 0.04282304
#
# Stress axis : x y z
#
# Youngs Moduli (GPa) = 69.43418 35.95410 54.07957
#
# Poissons Ratio (x) = 0.19591 -0.01974
# Poissons Ratio (y) = 0.37834 0.20863
# Poissons Ratio (z) = -0.02535 0.13871
#
# Static dielectric constant tensor:
#      x y z
#    x 1.949030 0.000000 -0.010570 
#    y 0.000000 1.931820 0.000000 
#    z -0.010570 0.000000 2.044470 
# 
# From -- ./inp_files/146831.got.cif
#   From: 2010.05.17/outbox.cif.g08.bks.cpg/sg15_74_cif.got.tgz:146831.got - 2010.06.03 18:47:42.
