data_PCOD9259373
_publ_section_title
;
Structure prediction by ZEFSAII (Michael W. Deem and Ramdas Pophale) SiO2 
 PCOD9259373
Probable space group: C 2/C
;
_chemical_formula_sum "Si O2"
_cell_formula_units_Z 44
_cell_length_a 13.156901
_cell_length_b 22.548777
_cell_length_c 8.863304
_cell_angle_alpha 90.000000
_cell_angle_beta 53.999213
_cell_angle_gamma 90.000000
_cell_volume 2127.284394
_symmetry_space_group_name_H-M "C 2/C"
_symmetry_group_IT_number 15
_symmetry_cell_setting 'monoclinic'
loop_
_space_group_symop_operation_xyz
x,y,z
-x,y,1/2-z
-x,-y,-z
x,-y,1/2+z
1/2+x,1/2+y,z
1/2-x,1/2+y,1/2-z
1/2-x,1/2-y,-z
1/2+x,1/2-y,1/2+z
loop_
_atom_site_type_symbol
_atom_site_label
_atom_site_fract_x
_atom_site_fract_y
_atom_site_fract_z
Si Si1 0.000000 0.334831 0.750000
Si Si2 0.377522 0.539796 0.658984
Si Si3 0.500000 0.217587 0.750000
Si Si4 0.628959 0.737026 0.430392
Si Si5 0.673329 0.160787 0.355023
Si Si6 0.348292 0.570826 0.365931
Si Si7 0.500000 0.360002 0.250000
O O1 0.910991 0.366843 0.705412
O O2 0.088615 0.293981 0.563822
O O3 0.500000 0.500000 0.500000
O O4 0.306553 0.564295 0.575365
O O5 0.312909 0.491733 0.820790
O O6 0.418069 0.595897 0.720613
O O7 0.434523 0.256273 0.677772
O O8 0.595329 0.177608 0.571124
O O9 0.772811 0.721980 0.265134
O O10 0.578987 0.681902 0.570957
O O11 0.786058 0.120381 0.316602
O O12 0.500000 0.579759 0.250000
#
# Coordination Sequence:
#
# PCOD9259373 Si02
#       7
#     4   8   4   8   8   8   4
#     4   9  22  42  58  87 127 160 216 249 292 370
#     4  10  18  35  55  93 130 151 191 257 312 380
#     4  10  24  42  59  91 131 161 218 254 290 368
#     4  10  21  37  62  92 121 164 202 255 313 370
#     4  11  22  41  64  86 124 170 205 256 307 362
#     4  10  21  36  63  93 126 153 197 256 328 367
#     4  11  20  34  61  96 134 155 190 251 334 372
#
# _framework density 20.683647000000001
#
# number of rings (size 3 to 8) (size 9 to 14) (size 15 to 20)
#    0.000    1.818    2.727    3.273    3.818    0.000 
#    9.818    0.000    0.000    3.273    0.000    0.000 
#    0.000    0.000    0.000    0.000    0.000    0.000 
#
# Total GULP energy -122674.815001 kJ/mol
# GULP energy per Si atom -5576.127955 kJ/mol
# Density = 2.063657 g / cm^3
# Si number density = 20.683647 Si / 1000 Ang^3
#
#
#
# Elastic Constant Matrix: (Units=GPa)
#
#
# Indices 1 2 3 4 5 6 
#
# 1 115.6485 28.6212 41.5988 0.0000 41.9299 0.0000
# 2 28.6212 46.9495 10.8541 0.0000 16.9290 0.0000
# 3 41.5988 10.8541 111.6596 0.0000 30.1341 0.0000
# 4 0.0000 0.0000 0.0000 146.3644 0.0000 -8.7370
# 5 41.9299 16.9290 30.1341 0.0000 47.0800 0.0000
# 6 0.0000 0.0000 0.0000 -8.7370 0.0000 4.9556
#
#
#
# Elastic Compliance Matrix: (Units=1/GPa)
#
#
# Indices 1 2 3 4 5 6 
#
# 1 0.013994 -0.004637 -0.002235 0.000000 -0.009365 0.000000
# 2 -0.004637 0.026009 0.000736 0.000000 -0.005693 0.000000
# 3 -0.002235 0.000736 0.011183 0.000000 -0.005431 0.000000
# 4 0.000000 0.000000 0.000000 0.007636 0.000000 0.013463
# 5 -0.009365 -0.005693 -0.005431 0.000000 0.035105 0.000000
# 6 0.000000 0.000000 0.000000 0.013463 0.000000 0.225528
#
#
# Mechanical properties :
#
#
# Convention : Reuss Voigt Hill
#
# Bulk Modulus (GPa) = 25.69874 48.48954 37.09414
# Shear Modulus (GPa) = 14.50541 52.55891 33.53216
#
# Velocity S-wave (km/s) = 2.65108 5.04639 4.03077
# Velocity P-wave (km/s) = 4.67146 7.57951 6.29570
#
# Compressibility (1/GPa) = 0.03891241
#
# Stress axis : x y z
#
# Youngs Moduli (GPa) = 71.45921 38.44784 89.42265
#
# Poissons Ratio (x) = 0.17830 0.19989
# Poissons Ratio (y) = 0.33138 -0.06580
# Poissons Ratio (z) = 0.15973 -0.02829
#
# Static dielectric constant tensor:
#      x y z
#    x 1.708130 0.000000 -0.144750 
#    y 0.000000 1.743660 0.000000 
#    z -0.144750 0.000000 1.643340 
# 
# From -- ./inp_files/31865.got.cif
#   From: 2010.05.17/outbox.cif.g08.bks.cpg/sg15_16_cif.got.tgz:31865.got - 2010.06.03 18:47:42.
