data_PCOD9259926
_publ_section_title
;
Structure prediction by ZEFSAII (Michael W. Deem and Ramdas Pophale) SiO2 
 PCOD9259926
Probable space group: C 2/C
;
_chemical_formula_sum "Si O2"
_cell_formula_units_Z 60
_cell_length_a 18.978941
_cell_length_b 11.399560
_cell_length_c 25.339570
_cell_angle_alpha 90.000000
_cell_angle_beta 142.311399
_cell_angle_gamma 90.000000
_cell_volume 3351.684687
_symmetry_space_group_name_H-M "C 2/C"
_symmetry_group_IT_number 15
_symmetry_cell_setting 'monoclinic'
loop_
_space_group_symop_operation_xyz
x,y,z
-x,y,1/2-z
-x,-y,-z
x,-y,1/2+z
1/2+x,1/2+y,z
1/2-x,1/2+y,1/2-z
1/2-x,1/2-y,-z
1/2+x,1/2-y,1/2+z
loop_
_atom_site_type_symbol
_atom_site_label
_atom_site_fract_x
_atom_site_fract_y
_atom_site_fract_z
Si Si1 0.020077 0.543162 0.141494
Si Si2 0.500000 0.369130 0.250000
Si Si3 0.404037 0.935829 0.979449
Si Si4 0.822387 0.824084 0.902478
Si Si5 0.787866 0.073423 0.684483
Si Si6 0.925063 0.750253 0.409988
Si Si7 0.729715 0.524935 0.705831
Si Si8 0.833229 0.688847 0.092669
O O1 0.060489 0.653820 0.128276
O O2 0.136873 0.487041 0.233038
O O3 0.923407 0.596619 0.122132
O O4 0.957920 0.445613 0.068616
O O5 0.580634 0.433975 0.255843
O O6 0.411779 0.289478 0.165012
O O7 0.384187 0.813388 0.939343
O O8 0.289657 0.011867 0.905874
O O9 0.500000 0.000000 0.000000
O O10 0.760714 0.706869 0.842561
O O11 0.743318 0.862155 0.905058
O O12 0.831471 0.920869 0.862480
O O13 0.946577 0.794175 0.000267
O O14 0.768752 0.013700 0.729663
O O15 0.838128 0.854200 0.344303
O O16 0.750000 0.750000 0.000000
#
# Coordination Sequence:
#
# PCOD9259926 Si02
#       8
#     8   4   8   8   8   8   8   8
#     4  11  19  37  60  87 113 154 194 235 303 351
#     4  10  22  34  54  90 120 142 188 246 296 360
#     4  10  18  36  59  82 109 151 195 235 277 353
#     4  11  22  37  57  89 118 147 192 241 301 353
#     4  11  20  37  58  84 115 148 189 240 296 346
#     4  11  20  37  53  83 119 145 196 236 280 353
#     4  12  23  32  56  86 118 154 186 242 293 337
#     4  11  20  36  61  86 120 153 183 249 311 347
#
# _framework density 17.901446
#
# number of rings (size 3 to 8) (size 9 to 14) (size 15 to 20)
#    0.000    1.067    6.667    4.400    0.000    0.000 
#    0.000    0.000    0.000    2.400    0.000    0.000 
#    0.000    0.000    0.000    0.000    0.000    0.000 
#
# Total GULP energy -167317.905183 kJ/mol
# GULP energy per Si atom -5577.263506 kJ/mol
# Density = 1.786070 g / cm^3
# Si number density = 17.901446 Si / 1000 Ang^3
#
#
#
# Elastic Constant Matrix: (Units=GPa)
#
#
# Indices 1 2 3 4 5 6 
#
# 1 66.6386 25.7271 14.9645 0.0000 3.8334 0.0000
# 2 25.7271 50.0573 28.2849 0.0000 9.0327 0.0000
# 3 14.9645 28.2849 85.9310 0.0000 7.1949 0.0000
# 4 0.0000 0.0000 0.0000 30.4597 0.0000 -1.8633
# 5 3.8334 9.0327 7.1949 0.0000 21.8063 0.0000
# 6 0.0000 0.0000 0.0000 -1.8633 0.0000 28.7775
#
#
#
# Elastic Compliance Matrix: (Units=1/GPa)
#
#
# Indices 1 2 3 4 5 6 
#
# 1 0.018734 -0.009689 -0.000137 0.000000 0.000765 0.000000
# 2 -0.009689 0.030882 -0.007764 0.000000 -0.008527 0.000000
# 3 -0.000137 -0.007764 0.014342 0.000000 -0.001492 0.000000
# 4 0.000000 0.000000 0.000000 0.032961 0.000000 0.002134
# 5 0.000765 -0.008527 -0.001492 0.000000 0.049748 0.000000
# 6 0.000000 0.000000 0.000000 0.002134 0.000000 0.034888
#
#
# Mechanical properties :
#
#
# Convention : Reuss Voigt Hill
#
# Bulk Modulus (GPa) = 34.74917 37.84219 36.29568
# Shear Modulus (GPa) = 22.09195 25.11874 23.60534
#
# Velocity S-wave (km/s) = 3.51677 3.74995 3.63523
# Velocity P-wave (km/s) = 5.99531 6.31938 6.15948
#
# Compressibility (1/GPa) = 0.02877767
#
# Stress axis : x y z
#
# Youngs Moduli (GPa) = 53.37989 32.38089 69.72702
#
# Poissons Ratio (x) = 0.31373 0.00958
# Poissons Ratio (y) = 0.51718 0.54136
# Poissons Ratio (z) = 0.00733 0.25140
#
# Static dielectric constant tensor:
#      x y z
#    x 1.643450 0.000000 -0.003860 
#    y 0.000000 1.625900 0.000000 
#    z -0.003860 0.000000 1.647540 
# 
# From -- ./inp_files/160909.got.cif
#   From: 2010.05.17/outbox.cif.g08.bks.cpg/sg15_81_cif.got.tgz:160909.got - 2010.06.03 18:47:42.
