data_PCOD9259186
_publ_section_title
;
Structure prediction by ZEFSAII (Michael W. Deem and Ramdas Pophale) SiO2 
 PCOD9259186
Probable space group: C 2/C
;
_chemical_formula_sum "Si O2"
_cell_formula_units_Z 64
_cell_length_a 8.909240
_cell_length_b 26.772075
_cell_length_c 23.781309
_cell_angle_alpha 90.000000
_cell_angle_beta 147.469782
_cell_angle_gamma 90.000000
_cell_volume 3050.241996
_symmetry_space_group_name_H-M "C 2/C"
_symmetry_group_IT_number 15
_symmetry_cell_setting 'monoclinic'
loop_
_space_group_symop_operation_xyz
x,y,z
-x,y,1/2-z
-x,-y,-z
x,-y,1/2+z
1/2+x,1/2+y,z
1/2-x,1/2+y,1/2-z
1/2-x,1/2-y,-z
1/2+x,1/2-y,1/2+z
loop_
_atom_site_type_symbol
_atom_site_label
_atom_site_fract_x
_atom_site_fract_y
_atom_site_fract_z
Si Si1 0.541993 0.238690 0.986486
Si Si2 0.658556 0.620472 0.028577
Si Si3 0.264225 0.442161 0.045767
Si Si4 0.315100 0.359597 0.745455
Si Si5 0.602723 0.536653 0.343712
Si Si6 0.328361 0.705999 0.861008
Si Si7 0.687321 0.330514 0.641069
Si Si8 0.876380 0.840663 0.148406
O O1 0.312572 0.280456 0.895428
O O2 0.429797 0.183218 0.944734
O O3 0.750000 0.250000 0.000000
O O4 0.606978 0.250795 0.072460
O O5 0.560229 0.626383 0.061772
O O6 0.983637 0.639533 0.127691
O O7 0.656585 0.569463 0.993682
O O8 0.455191 0.657864 0.932029
O O9 0.401484 0.491991 0.113373
O O10 0.358767 0.394446 0.112981
O O11 0.927349 0.446630 0.942572
O O12 0.500000 0.347857 0.750000
O O13 0.409885 0.415268 0.794313
O O14 0.410294 0.323770 0.826270
O O15 0.500000 0.518213 0.250000
O O16 0.462382 0.699185 0.841358
O O17 0.000000 0.704215 0.750000
O O18 0.000000 0.348201 0.750000
O O19 0.000000 0.843338 0.250000
#
# Coordination Sequence:
#
# PCOD9259186 Si02
#       8
#     8   8   8   8   8   8   8   8
#     4  11  23  38  60  88 122 161 213 255 307 378
#     4   9  18  37  59  85 119 156 202 246 313 373
#     4  10  20  35  59  90 121 162 198 257 309 375
#     4  10  18  34  61  91 117 154 201 257 307 375
#     4  10  19  34  59  90 125 150 204 256 312 363
#     4  10  22  41  61  86 124 172 209 260 310 365
#     4   9  20  35  56  82 118 157 190 249 310 357
#     4  11  23  40  62  88 127 161 211 259 315 373
#
# _framework density 20.981943000000001
#
# number of rings (size 3 to 8) (size 9 to 14) (size 15 to 20)
#    0.000    2.000    2.500    1.875    1.750    0.000 
#    0.000    6.875    0.000    9.000    0.000    0.000 
#    0.000    0.000    0.000    0.000    0.000    0.000 
#
# Total GULP energy -178276.638188 kJ/mol
# GULP energy per Si atom -5571.144943 kJ/mol
# Density = 2.093419 g / cm^3
# Si number density = 20.981943 Si / 1000 Ang^3
#
#
#
# Elastic Constant Matrix: (Units=GPa)
#
#
# Indices 1 2 3 4 5 6 
#
# 1 86.4796 12.9916 18.4705 -0.0004 -34.0381 -0.0004
# 2 12.9916 63.7638 19.3624 -0.0008 -13.8408 -0.0001
# 3 18.4705 19.3624 109.9576 -0.0039 -25.4130 -0.0007
# 4 -0.0004 -0.0008 -0.0039 23.0992 -0.0003 -0.8454
# 5 -34.0381 -13.8408 -25.4130 -0.0003 34.8769 -0.0002
# 6 -0.0004 -0.0001 -0.0007 -0.8454 -0.0002 26.8772
#
#
#
# Elastic Compliance Matrix: (Units=1/GPa)
#
#
# Indices 1 2 3 4 5 6 
#
# 1 0.018932 -0.000042 0.001315 0.000001 0.019418 0.000000
# 2 -0.000042 0.017443 -0.001773 0.000000 0.005590 0.000000
# 3 0.001315 -0.001773 0.011207 0.000002 0.008746 0.000000
# 4 0.000001 0.000000 0.000002 0.043341 0.000003 0.001363
# 5 0.019418 0.005590 0.008746 0.000003 0.056214 0.000001
# 6 0.000000 0.000000 0.000000 0.001363 0.000001 0.037249
#
#
# Mechanical properties :
#
#
# Convention : Reuss Voigt Hill
#
# Bulk Modulus (GPa) = 21.46696 40.20556 30.83626
# Shear Modulus (GPa) = 24.88644 30.92910 27.90777
#
# Velocity S-wave (km/s) = 3.44770 3.84354 3.65099
# Velocity P-wave (km/s) = 5.10903 6.23704 5.70100
#
# Compressibility (1/GPa) = 0.04658322
#
# Stress axis : x y z
#
# Youngs Moduli (GPa) = 52.82156 57.32959 89.23014
#
# Poissons Ratio (x) = 0.00239 -0.11734
# Poissons Ratio (y) = 0.00220 0.15817
# Poissons Ratio (z) = -0.06946 0.10162
#
# Static dielectric constant tensor:
#      x y z
#    x 1.913310 0.000000 -0.002290 
#    y 0.000000 1.754370 0.000000 
#    z -0.002290 0.000000 1.768310 
# 
# From -- ./inp_files/266761.got.cif
#   From: 2010.05.17/outbox.cif.g08.bks.cpg/sg15_134_cif.got.tgz:266761.got - 2010.06.03 18:47:42.
