data_PCOD9259205
_publ_section_title
;
Structure prediction by ZEFSAII (Michael W. Deem and Ramdas Pophale) SiO2 
 PCOD9259205
Probable space group: C 2/C
;
_chemical_formula_sum "Si O2"
_cell_formula_units_Z 28
_cell_length_a 9.009219
_cell_length_b 11.628652
_cell_length_c 11.085972
_cell_angle_alpha 90.000000
_cell_angle_beta 79.230089
_cell_angle_gamma 90.000000
_cell_volume 1140.964803
_symmetry_space_group_name_H-M "C 2/C"
_symmetry_group_IT_number 15
_symmetry_cell_setting 'monoclinic'
loop_
_space_group_symop_operation_xyz
x,y,z
-x,y,1/2-z
-x,-y,-z
x,-y,1/2+z
1/2+x,1/2+y,z
1/2-x,1/2+y,1/2-z
1/2-x,1/2-y,-z
1/2+x,1/2-y,1/2+z
loop_
_atom_site_type_symbol
_atom_site_label
_atom_site_fract_x
_atom_site_fract_y
_atom_site_fract_z
Si Si1 0.691642 0.533044 0.042287
Si Si2 0.617718 0.825953 0.456393
Si Si3 0.500000 0.306475 0.750000
Si Si4 0.450540 0.336172 0.119393
O O1 0.838341 0.458712 0.051474
O O2 0.617101 0.613633 0.156570
O O3 0.573226 0.426633 0.049280
O O4 0.697749 0.604414 0.915646
O O5 0.750000 0.750000 0.500000
O O6 0.591164 0.771955 0.329593
O O7 0.472129 0.788063 0.556549
O O8 0.500000 0.330113 0.250000
#
# Coordination Sequence:
#
# PCOD9259205 Si02
#       4
#     8   8   4   8
#     4   9  17  30  54  87 114 146 191 236 284 339
#     4   9  19  32  54  93 112 146 198 233 283 347
#     4  10  18  34  62  86 114 150 190 232 286 348
#     4   9  16  29  54  84 115 146 190 236 282 345
#
# _framework density 24.540634000000001
#
# number of rings (size 3 to 8) (size 9 to 14) (size 15 to 20)
#    0.000    2.857    1.429    1.714    0.000    0.000 
#    0.000    0.000    0.000   44.571    0.000    0.000 
#    0.000    0.000    0.000    0.000    0.000    0.000 
#
# Total GULP energy -78016.292392 kJ/mol
# GULP energy per Si atom -5572.592314 kJ/mol
# Density = 2.448478 g / cm^3
# Si number density = 24.540634 Si / 1000 Ang^3
#
#
#
# Elastic Constant Matrix: (Units=GPa)
#
#
# Indices 1 2 3 4 5 6 
#
# 1 67.5328 71.0857 47.6968 0.0000 20.7251 0.0000
# 2 71.0857 184.1403 109.8983 0.0000 21.6085 0.0000
# 3 47.6968 109.8983 179.7689 0.0000 40.6197 0.0000
# 4 0.0000 0.0000 0.0000 18.6008 0.0000 11.6273
# 5 20.7251 21.6085 40.6197 0.0000 38.2986 0.0000
# 6 0.0000 0.0000 0.0000 11.6273 0.0000 40.7073
#
#
#
# Elastic Compliance Matrix: (Units=1/GPa)
#
#
# Indices 1 2 3 4 5 6 
#
# 1 0.028089 -0.010366 0.001312 0.000000 -0.010743 0.000000
# 2 -0.010366 0.012402 -0.005942 0.000000 0.004914 0.000000
# 3 0.001312 -0.005942 0.010850 0.000000 -0.008865 0.000000
# 4 0.000000 0.000000 0.000000 0.065446 0.000000 -0.018694
# 5 -0.010743 0.004914 -0.008865 0.000000 0.038554 0.000000
# 6 0.000000 0.000000 0.000000 -0.018694 0.000000 0.029905
#
#
# Mechanical properties :
#
#
# Convention : Reuss Voigt Hill
#
# Bulk Modulus (GPa) = 46.83923 98.75595 72.79759
# Shear Modulus (GPa) = 22.48661 33.03876 27.76269
#
# Velocity S-wave (km/s) = 3.03033 3.67316 3.36712
# Velocity P-wave (km/s) = 5.60105 7.63666 6.69665
#
# Compressibility (1/GPa) = 0.02134962
#
# Stress axis : x y z
#
# Youngs Moduli (GPa) = 35.60079 80.63456 92.16533
#
# Poissons Ratio (x) = 0.83584 -0.12088
# Poissons Ratio (y) = 0.36903 0.54761
# Poissons Ratio (z) = -0.04669 0.47909
#
# Static dielectric constant tensor:
#      x y z
#    x -1.458430 0.000000 -0.558250 
#    y 0.000000 1.947730 0.000000 
#    z -0.558250 0.000000 1.898350 
# 
# From -- ./inp_files/83500.got.cif
#   From: 2010.05.17/outbox.cif.g08.bks.cpg/sg15_42_cif.got.tgz:83500.got - 2010.06.03 18:47:42.
