data_PCOD9259196
_publ_section_title
;
Structure prediction by ZEFSAII (Michael W. Deem and Ramdas Pophale) SiO2 
 PCOD9259196
Probable space group: C 2/C
;
_chemical_formula_sum "Si O2"
_cell_formula_units_Z 52
_cell_length_a 13.320413
_cell_length_b 14.822698
_cell_length_c 11.978404
_cell_angle_alpha 90.000000
_cell_angle_beta 100.101471
_cell_angle_gamma 90.000000
_cell_volume 2328.407794
_symmetry_space_group_name_H-M "C 2/C"
_symmetry_group_IT_number 15
_symmetry_cell_setting 'monoclinic'
loop_
_space_group_symop_operation_xyz
x,y,z
-x,y,1/2-z
-x,-y,-z
x,-y,1/2+z
1/2+x,1/2+y,z
1/2-x,1/2+y,1/2-z
1/2-x,1/2-y,-z
1/2+x,1/2-y,1/2+z
loop_
_atom_site_type_symbol
_atom_site_label
_atom_site_fract_x
_atom_site_fract_y
_atom_site_fract_z
Si Si1 0.807978 0.111046 0.062496
Si Si2 0.837041 0.474459 0.575372
Si Si3 0.815958 0.355014 0.348009
Si Si4 0.000000 0.437989 0.250000
Si Si5 0.698145 0.347447 0.698767
Si Si6 0.983664 0.893754 0.971217
Si Si7 0.608137 0.577728 0.829270
O O1 0.776671 0.166504 0.165544
O O2 0.905443 0.151057 0.016650
O O3 0.856381 0.021573 0.129235
O O4 0.719849 0.067941 0.970212
O O5 0.835745 0.411077 0.465694
O O6 0.773028 0.420003 0.656583
O O7 0.946533 0.499915 0.645931
O O8 0.909663 0.378921 0.285827
O O9 0.802679 0.249121 0.360380
O O10 0.705042 0.386006 0.281735
O O11 0.583307 0.382185 0.652061
O O12 0.912678 0.865526 0.061438
O O13 0.000000 0.000000 0.000000
O O14 0.500000 0.577692 0.750000
#
# Coordination Sequence:
#
# PCOD9259196 Si02
#       7
#     8   8   8   4   8   8   8
#     4  10  21  35  68 101 129 169 228 274 346 410
#     4  11  23  47  72  94 132 191 240 270 335 435
#     4  11  26  44  66 103 137 176 230 291 349 397
#     4  12  28  46  74  94 140 196 234 278 342 434
#     4  12  22  41  68  98 141 172 222 297 345 397
#     4  10  18  34  62 101 126 170 212 276 341 414
#     4  10  20  38  66  96 132 170 222 277 336 419
#
# _framework density 22.332856
#
# number of rings (size 3 to 8) (size 9 to 14) (size 15 to 20)
#    0.000    1.231    4.615    5.077    4.308    0.000 
#    1.385    2.308    0.000    0.000    0.000    0.000 
#    0.000    0.000    0.000    0.000    0.000    0.000 
#
# Total GULP energy -145120.789962 kJ/mol
# GULP energy per Si atom -5581.568845 kJ/mol
# Density = 2.228203 g / cm^3
# Si number density = 22.332856 Si / 1000 Ang^3
#
#
#
# Elastic Constant Matrix: (Units=GPa)
#
#
# Indices 1 2 3 4 5 6 
#
# 1 128.4246 17.1389 37.2472 0.0000 8.7073 0.0000
# 2 17.1389 41.3530 7.7695 0.0000 12.4233 0.0000
# 3 37.2472 7.7695 78.9446 0.0000 13.6934 0.0000
# 4 0.0000 0.0000 0.0000 14.9326 0.0000 -0.5961
# 5 8.7073 12.4233 13.6934 0.0000 52.2922 0.0000
# 6 0.0000 0.0000 0.0000 -0.5961 0.0000 13.5300
#
#
#
# Elastic Compliance Matrix: (Units=1/GPa)
#
#
# Indices 1 2 3 4 5 6 
#
# 1 0.009404 -0.003200 -0.004172 0.000000 0.000287 0.000000
# 2 -0.003200 0.027314 -0.000152 0.000000 -0.005917 0.000000
# 3 -0.004172 -0.000152 0.015215 0.000000 -0.003253 0.000000
# 4 0.000000 0.000000 0.000000 0.067086 0.000000 0.002955
# 5 0.000287 -0.005917 -0.003253 0.000000 0.021333 0.000000
# 6 0.000000 0.000000 0.000000 0.002955 0.000000 0.074040
#
#
# Mechanical properties :
#
#
# Convention : Reuss Voigt Hill
#
# Bulk Modulus (GPa) = 27.11102 41.44817 34.27960
# Shear Modulus (GPa) = 20.68376 28.58871 24.63624
#
# Velocity S-wave (km/s) = 3.04659 3.58176 3.32496
# Velocity P-wave (km/s) = 4.95393 5.97536 5.48846
#
# Compressibility (1/GPa) = 0.03688537
#
# Stress axis : x y z
#
# Youngs Moduli (GPa) = 106.33482 36.61080 65.72568
#
# Poissons Ratio (x) = 0.11715 0.27420
# Poissons Ratio (y) = 0.34027 0.01000
# Poissons Ratio (z) = 0.44362 0.00557
#
# Static dielectric constant tensor:
#      x y z
#    x 1.924750 0.000000 -0.052920 
#    y 0.000000 1.851210 0.000000 
#    z -0.052920 0.000000 1.933680 
# 
# From -- ./inp_files/97124.got.cif
#   From: 2010.05.17/outbox.cif.g08.bks.cpg/sg15_49_cif.got.tgz:97124.got - 2010.06.03 18:47:42.
