data_PCOD9259319
_publ_section_title
;
Structure prediction by ZEFSAII (Michael W. Deem and Ramdas Pophale) SiO2 
 PCOD9259319
Probable space group: C 2/C
;
_chemical_formula_sum "Si O2"
_cell_formula_units_Z 56
_cell_length_a 7.588406
_cell_length_b 19.455911
_cell_length_c 22.331059
_cell_angle_alpha 90.000000
_cell_angle_beta 51.693501
_cell_angle_gamma 90.000000
_cell_volume 2587.131226
_symmetry_space_group_name_H-M "C 2/C"
_symmetry_group_IT_number 15
_symmetry_cell_setting 'monoclinic'
loop_
_space_group_symop_operation_xyz
x,y,z
-x,y,1/2-z
-x,-y,-z
x,-y,1/2+z
1/2+x,1/2+y,z
1/2-x,1/2+y,1/2-z
1/2-x,1/2-y,-z
1/2+x,1/2-y,1/2+z
loop_
_atom_site_type_symbol
_atom_site_label
_atom_site_fract_x
_atom_site_fract_y
_atom_site_fract_z
Si Si1 0.713191 0.539999 0.109292
Si Si2 0.837751 0.344910 0.677107
Si Si3 0.000000 0.414446 0.750000
Si Si4 0.187543 0.991143 0.899938
Si Si5 0.819131 0.137435 0.015801
Si Si6 0.690090 0.148084 0.596276
Si Si7 0.500000 0.777599 0.250000
Si Si8 0.898094 0.600746 0.557207
O O1 0.715738 0.597055 0.161252
O O2 0.503356 0.526059 0.109350
O O3 0.784901 0.463650 0.115343
O O4 0.907003 0.568196 0.024876
O O5 0.711893 0.273272 0.703637
O O6 0.832587 0.367593 0.747599
O O7 0.095044 0.337094 0.597835
O O8 0.095570 0.461295 0.678329
O O9 0.247737 0.068905 0.902019
O O10 0.841858 0.058544 0.036255
O O11 0.768917 0.134046 0.955664
O O12 0.058268 0.175604 0.972997
O O13 0.552294 0.177360 0.680884
O O14 0.523756 0.150957 0.575329
#
# Coordination Sequence:
#
# PCOD9259319 Si02
#       8
#     8   8   4   8   8   8   4   8
#     4  10  18  34  69 100 128 154 207 268 322 383
#     4  10  23  44  65  89 127 177 223 258 306 373
#     4  10  21  38  64  92 125 168 216 264 322 382
#     4  11  19  35  66 103 132 159 198 269 339 382
#     4  10  21  40  71 101 126 160 214 273 323 385
#     4  12  23  41  64  94 138 167 204 264 329 381
#     4  12  29  48  58  84 133 184 222 258 300 386
#     4  10  19  35  64 107 129 153 197 271 338 374
#
# _framework density 21.645596999999999
#
# number of rings (size 3 to 8) (size 9 to 14) (size 15 to 20)
#    0.000    1.429    2.857    5.143    0.000    0.571 
#    2.571    2.857    0.000    0.000    0.000    0.000 
#    0.000    0.000    0.000    0.000    0.000    0.000 
#
# Total GULP energy -156148.288973 kJ/mol
# GULP energy per Si atom -5576.724606 kJ/mol
# Density = 2.159633 g / cm^3
# Si number density = 21.645597 Si / 1000 Ang^3
#
#
#
# Elastic Constant Matrix: (Units=GPa)
#
#
# Indices 1 2 3 4 5 6 
#
# 1 121.7815 27.8359 26.9297 0.0000 9.1766 0.0000
# 2 27.8359 41.0302 41.9940 0.0000 4.4777 0.0000
# 3 26.9297 41.9940 89.8753 0.0000 8.4516 0.0000
# 4 0.0000 0.0000 0.0000 13.0718 0.0000 -8.9958
# 5 9.1766 4.4777 8.4516 0.0000 28.3758 0.0000
# 6 0.0000 0.0000 0.0000 -8.9958 0.0000 2.9276
#
#
#
# Elastic Compliance Matrix: (Units=1/GPa)
#
#
# Indices 1 2 3 4 5 6 
#
# 1 0.009860 -0.006970 0.000513 0.000000 -0.002242 0.000000
# 2 -0.006970 0.051659 -0.022114 0.000000 0.000689 0.000000
# 3 0.000513 -0.022114 0.021598 0.000000 -0.003109 0.000000
# 4 0.000000 0.000000 0.000000 -0.068635 0.000000 -0.210896
# 5 -0.002242 0.000689 -0.003109 0.000000 0.036784 0.000000
# 6 0.000000 0.000000 0.000000 -0.210896 0.000000 -0.306451
#
#
# Mechanical properties :
#
#
# Convention : Reuss Voigt Hill
#
# Bulk Modulus (GPa) = 38.49774 49.57847 44.03811
# Shear Modulus (GPa) = -26.40109 19.27021 -3.56544
#
# Velocity S-wave (km/s) = -3.49621 2.98696 -1.28482
# Velocity P-wave (km/s) = 1.23538 5.90341 4.26476
#
# Compressibility (1/GPa) = 0.02597555
#
# Stress axis : x y z
#
# Youngs Moduli (GPa) = 101.42012 19.35780 46.30091
#
# Poissons Ratio (x) = 0.13492 -0.02375
# Poissons Ratio (y) = 0.70686 1.02389
# Poissons Ratio (z) = -0.05202 0.42808
#
# Static dielectric constant tensor:
#      x y z
#    x 1.893340 0.000000 -0.021560 
#    y 0.000000 1.826270 0.000000 
#    z -0.021560 0.000000 1.846700 
# 
# From -- ./inp_files/233807.got.cif
#   From: 2010.05.17/outbox.cif.g08.bks.cpg/sg15_117_cif.got.tgz:233807.got - 2010.06.03 18:47:42.
