data_PCOD9259822
_publ_section_title
;
Structure prediction by ZEFSAII (Michael W. Deem and Ramdas Pophale) SiO2 
 PCOD9259822
Probable space group: C 2/C
;
_chemical_formula_sum "Si O2"
_cell_formula_units_Z 52
_cell_length_a 15.302763
_cell_length_b 7.393843
_cell_length_c 28.016992
_cell_angle_alpha 90.000000
_cell_angle_beta 133.128880
_cell_angle_gamma 90.000000
_cell_volume 2313.534722
_symmetry_space_group_name_H-M "C 2/C"
_symmetry_group_IT_number 15
_symmetry_cell_setting 'monoclinic'
loop_
_space_group_symop_operation_xyz
x,y,z
-x,y,1/2-z
-x,-y,-z
x,-y,1/2+z
1/2+x,1/2+y,z
1/2-x,1/2+y,1/2-z
1/2-x,1/2-y,-z
1/2+x,1/2-y,1/2+z
loop_
_atom_site_type_symbol
_atom_site_label
_atom_site_fract_x
_atom_site_fract_y
_atom_site_fract_z
Si Si1 0.298070 0.475883 0.907131
Si Si2 0.231967 0.007936 0.795818
Si Si3 0.968545 0.767582 0.519484
Si Si4 0.000000 0.991658 0.750000
Si Si5 0.669209 0.068439 0.269618
Si Si6 0.929424 0.284430 0.645200
Si Si7 0.508225 0.097146 0.074486
O O1 0.417038 0.392363 0.926491
O O2 0.215543 0.538862 0.832500
O O3 0.207806 0.341500 0.900388
O O4 0.350381 0.619230 0.963865
O O5 0.116207 0.901050 0.771007
O O6 0.257871 0.987127 0.749734
O O7 0.202518 0.220272 0.792670
O O8 0.351220 0.944320 0.866440
O O9 0.950699 0.602924 0.549121
O O10 0.008102 0.688838 0.482559
O O11 0.047506 0.109709 0.813293
O O12 0.528243 0.074061 0.204041
O O13 0.963478 0.284104 0.602142
#
# Coordination Sequence:
#
# PCOD9259822 Si02
#       7
#     8   8   8   4   8   8   8
#     4  11  20  38  58  85 114 150 193 236 269 355
#     4  10  20  36  60  83 115 140 192 232 289 333
#     4  10  23  37  59  79 117 160 193 223 284 325
#     4  10  18  36  56  92 106 148 178 242 288 344
#     4  10  20  35  61  85 110 149 179 240 289 335
#     4  10  19  35  62  83 113 143 188 238 293 321
#     4  10  21  40  57  84 114 158 187 237 275 343
#
# _framework density 22.476431000000002
#
# number of rings (size 3 to 8) (size 9 to 14) (size 15 to 20)
#    0.000    1.846    4.615    0.000    6.462    1.231 
#    0.000    3.077    0.000    0.000    0.000    0.000 
#    0.000    0.000    0.000    0.000    0.000    0.000 
#
# Total GULP energy -145062.426798 kJ/mol
# GULP energy per Si atom -5579.324108 kJ/mol
# Density = 2.242527 g / cm^3
# Si number density = 22.476431 Si / 1000 Ang^3
#
#
#
# Elastic Constant Matrix: (Units=GPa)
#
#
# Indices 1 2 3 4 5 6 
#
# 1 66.3107 -9.3266 10.9213 0.0000 5.4628 0.0000
# 2 -9.3266 35.0940 -9.2663 0.0000 7.2375 0.0000
# 3 10.9213 -9.2663 59.2860 0.0000 5.0345 0.0000
# 4 0.0000 0.0000 0.0000 18.1405 0.0000 0.3212
# 5 5.4628 7.2375 5.0345 0.0000 33.8423 0.0000
# 6 0.0000 0.0000 0.0000 0.3212 0.0000 18.1929
#
#
#
# Elastic Compliance Matrix: (Units=1/GPa)
#
#
# Indices 1 2 3 4 5 6 
#
# 1 0.016315 0.004480 -0.002026 0.000000 -0.003290 0.000000
# 2 0.004480 0.032757 0.005014 0.000000 -0.008474 0.000000
# 3 -0.002026 0.005014 0.018319 0.000000 -0.003471 0.000000
# 4 0.000000 0.000000 0.000000 0.055143 0.000000 -0.000974
# 5 -0.003290 -0.008474 -0.003471 0.000000 0.032409 0.000000
# 6 0.000000 0.000000 0.000000 -0.000974 0.000000 0.054984
#
#
# Mechanical properties :
#
#
# Convention : Reuss Voigt Hill
#
# Bulk Modulus (GPa) = 12.14663 16.14971 14.14817
# Shear Modulus (GPa) = 22.47869 25.25928 23.86899
#
# Velocity S-wave (km/s) = 3.16587 3.35597 3.26230
# Velocity P-wave (km/s) = 4.33353 4.71354 4.52753
#
# Compressibility (1/GPa) = 0.08232737
#
# Stress axis : x y z
#
# Youngs Moduli (GPa) = 61.29216 30.52773 54.58797
#
# Poissons Ratio (x) = -0.13675 0.11059
# Poissons Ratio (y) = -0.27456 -0.27372
# Poissons Ratio (z) = 0.12417 -0.15308
#
# Static dielectric constant tensor:
#      x y z
#    x 1.825150 0.000000 -0.002120 
#    y 0.000000 1.915220 0.000000 
#    z -0.002120 0.000000 1.824660 
# 
# From -- ./inp_files/272301.got.cif
#   From: 2010.05.17/outbox.cif.g08.bks.cpg/sg15_137_cif.got.tgz:272301.got - 2010.06.03 18:47:42.
