data_PCOD9259888
_publ_section_title
;
Structure prediction by ZEFSAII (Michael W. Deem and Ramdas Pophale) SiO2 
 PCOD9259888
Probable space group: C 2/C
;
_chemical_formula_sum "Si O2"
_cell_formula_units_Z 60
_cell_length_a 23.355197
_cell_length_b 9.312154
_cell_length_c 17.411252
_cell_angle_alpha 90.000000
_cell_angle_beta 120.460097
_cell_angle_gamma 90.000000
_cell_volume 3264.089772
_symmetry_space_group_name_H-M "C 2/C"
_symmetry_group_IT_number 15
_symmetry_cell_setting 'monoclinic'
loop_
_space_group_symop_operation_xyz
x,y,z
-x,y,1/2-z
-x,-y,-z
x,-y,1/2+z
1/2+x,1/2+y,z
1/2-x,1/2+y,1/2-z
1/2-x,1/2-y,-z
1/2+x,1/2-y,1/2+z
loop_
_atom_site_type_symbol
_atom_site_label
_atom_site_fract_x
_atom_site_fract_y
_atom_site_fract_z
Si Si1 0.949823 0.164050 0.878088
Si Si2 0.082661 0.884537 0.554530
Si Si3 0.000000 0.902509 0.250000
Si Si4 0.180880 0.341519 0.668582
Si Si5 0.247021 0.598193 0.537288
Si Si6 0.383144 0.451865 0.580527
Si Si7 0.700017 0.834324 0.175172
Si Si8 0.816339 0.326779 0.013580
O O1 0.970390 0.181071 0.803199
O O2 0.886825 0.262786 0.852899
O O3 0.930982 0.998201 0.886402
O O4 0.014289 0.186720 0.976817
O O5 0.108205 0.980910 0.499203
O O6 0.136182 0.765980 0.615623
O O7 0.056694 0.998220 0.326708
O O8 0.245238 0.255241 0.741418
O O9 0.182895 0.508010 0.696898
O O10 0.184277 0.334577 0.578741
O O11 0.250000 0.750000 0.500000
O O12 0.316473 0.519524 0.570358
O O13 0.233256 0.628208 0.616362
O O14 0.189917 0.492099 0.465431
O O15 0.375330 0.280336 0.574649
O O16 0.750000 0.250000 0.000000
#
# Coordination Sequence:
#
# PCOD9259888 Si02
#       8
#     8   8   4   8   8   8   8   8
#     4  10  21  39  60  84 117 156 197 244 294 357
#     4  10  20  36  61  84 114 159 199 238 298 352
#     4  10  22  36  62  86 112 154 202 244 290 358
#     4  11  22  37  59  88 121 152 195 244 296 349
#     4  10  19  34  58  88 115 154 191 239 294 344
#     4  10  18  36  58  84 119 153 196 240 289 348
#     4  11  23  36  59  91 117 154 196 247 292 353
#     4   9  20  34  56  84 115 153 186 236 284 346
#
# _framework density 18.381848000000002
#
# number of rings (size 3 to 8) (size 9 to 14) (size 15 to 20)
#    0.000    1.867    2.667    1.600    0.000    2.667 
#    0.000    0.000    0.000    1.600    0.000    0.000 
#    0.000    0.000    0.000    0.000    0.000    0.000 
#
# Total GULP energy -167240.809074 kJ/mol
# GULP energy per Si atom -5574.693636 kJ/mol
# Density = 1.834001 g / cm^3
# Si number density = 18.381848 Si / 1000 Ang^3
#
#
#
# Elastic Constant Matrix: (Units=GPa)
#
#
# Indices 1 2 3 4 5 6 
#
# 1 100.5078 49.3322 46.6031 0.0000 10.2638 0.0000
# 2 49.3322 136.9081 51.1313 0.0000 20.8330 0.0000
# 3 46.6031 51.1313 51.7814 0.0000 11.5370 0.0000
# 4 0.0000 0.0000 0.0000 15.5766 0.0000 0.3960
# 5 10.2638 20.8330 11.5370 0.0000 33.0820 0.0000
# 6 0.0000 0.0000 0.0000 0.3960 0.0000 28.9187
#
#
#
# Elastic Compliance Matrix: (Units=1/GPa)
#
#
# Indices 1 2 3 4 5 6 
#
# 1 0.017114 -0.000687 -0.014787 0.000000 0.000280 0.000000
# 2 -0.000687 0.012004 -0.010407 0.000000 -0.003717 0.000000
# 3 -0.014787 -0.010407 0.043819 0.000000 -0.004140 0.000000
# 4 0.000000 0.000000 0.000000 0.064221 0.000000 -0.000879
# 5 0.000280 -0.003717 -0.004140 0.000000 0.033926 0.000000
# 6 0.000000 0.000000 0.000000 -0.000879 0.000000 0.034592
#
#
# Mechanical properties :
#
#
# Convention : Reuss Voigt Hill
#
# Bulk Modulus (GPa) = 47.22396 64.81451 56.01923
# Shear Modulus (GPa) = 18.90389 24.99084 21.94736
#
# Velocity S-wave (km/s) = 3.21035 3.69119 3.45913
# Velocity P-wave (km/s) = 6.28395 7.31458 6.81877
#
# Compressibility (1/GPa) = 0.02117569
#
# Stress axis : x y z
#
# Youngs Moduli (GPa) = 58.43011 83.30587 22.82126
#
# Poissons Ratio (x) = 0.05722 0.33746
# Poissons Ratio (y) = 0.04014 0.23750
# Poissons Ratio (z) = 0.86400 0.86695
#
# Static dielectric constant tensor:
#      x y z
#    x 1.656200 0.000000 0.004830 
#    y 0.000000 1.660720 0.000000 
#    z 0.004830 0.000000 1.639370 
# 
# From -- ./inp_files/218626.got.cif
#   From: 2010.05.17/outbox.cif.g08.bks.cpg/sg15_110_cif.got.tgz:218626.got - 2010.06.03 18:47:42.
