data_PCOD9259666
_publ_section_title
;
Structure prediction by ZEFSAII (Michael W. Deem and Ramdas Pophale) SiO2 
 PCOD9259666
Probable space group: C 2/C
;
_chemical_formula_sum "Si O2"
_cell_formula_units_Z 32
_cell_length_a 14.302325
_cell_length_b 18.124897
_cell_length_c 7.611379
_cell_angle_alpha 90.000000
_cell_angle_beta 142.077710
_cell_angle_gamma 90.000000
_cell_volume 1212.641802
_symmetry_space_group_name_H-M "C 2/C"
_symmetry_group_IT_number 15
_symmetry_cell_setting 'monoclinic'
loop_
_space_group_symop_operation_xyz
x,y,z
-x,y,1/2-z
-x,-y,-z
x,-y,1/2+z
1/2+x,1/2+y,z
1/2-x,1/2+y,1/2-z
1/2-x,1/2-y,-z
1/2+x,1/2-y,1/2+z
loop_
_atom_site_type_symbol
_atom_site_label
_atom_site_fract_x
_atom_site_fract_y
_atom_site_fract_z
Si Si1 0.324684 0.408144 0.303601
Si Si2 0.000000 0.346014 0.250000
Si Si3 0.343136 0.981391 0.163725
Si Si4 0.500000 0.359361 0.250000
Si Si5 0.116485 0.718497 0.565597
O O1 0.305930 0.460365 0.443044
O O2 0.460081 0.401935 0.367779
O O3 0.194290 0.445033 0.992477
O O4 0.271363 0.327240 0.285232
O O5 0.132204 0.408729 0.420681
O O6 0.963107 0.295137 0.364228
O O7 0.500000 0.000000 0.500000
O O8 0.630244 0.301585 0.511302
O O9 0.000000 0.686069 0.250000
#
# Coordination Sequence:
#
# PCOD9259666 Si02
#       5
#     8   4   8   4   8
#     4  11  21  37  59  87 119 155 199 249 303 357
#     4  10  18  35  62  95 104 146 204 258 294 336
#     4  11  20  35  64  91 112 145 204 265 298 347
#     4  10  24  39  54  81 126 172 186 236 316 356
#     4   9  21  37  62  84 119 155 203 248 290 353
#
# _framework density 26.388667000000002
#
# number of rings (size 3 to 8) (size 9 to 14) (size 15 to 20)
#    0.750    1.000    2.500    3.750    0.000    1.000 
#    0.000    7.500    0.000    0.000    0.000    0.000 
#    0.000    0.000    0.000    0.000    0.000    0.000 
#
# Total GULP energy -89118.096901 kJ/mol
# GULP energy per Si atom -5569.881056 kJ/mol
# Density = 2.632861 g / cm^3
# Si number density = 26.388667 Si / 1000 Ang^3
#
#
#
# Elastic Constant Matrix: (Units=GPa)
#
#
# Indices 1 2 3 4 5 6 
#
# 1 226.8202 30.4122 -3.4719 0.0000 -9.1430 0.0000
# 2 30.4122 68.4972 19.2855 0.0000 2.5422 0.0000
# 3 -3.4719 19.2855 27.4283 0.0000 -9.0208 0.0000
# 4 0.0000 0.0000 0.0000 -12.7493 0.0000 -3.9030
# 5 -9.1430 2.5422 -9.0208 0.0000 29.2764 0.0000
# 6 0.0000 0.0000 0.0000 -3.9030 0.0000 41.8606
#
#
#
# Elastic Compliance Matrix: (Units=1/GPa)
#
#
# Indices 1 2 3 4 5 6 
#
# 1 0.005077 -0.003551 0.004187 0.000000 0.003184 0.000000
# 2 -0.003551 0.021738 -0.018605 0.000000 -0.008729 0.000000
# 3 0.004187 -0.018605 0.056787 0.000000 0.020421 0.000000
# 4 0.000000 0.000000 0.000000 -0.076259 0.000000 -0.007110
# 5 0.003184 -0.008729 0.020421 0.000000 0.042202 0.000000
# 6 0.000000 0.000000 0.000000 -0.007110 0.000000 0.023226
#
#
# Mechanical properties :
#
#
# Convention : Reuss Voigt Hill
#
# Bulk Modulus (GPa) = 20.98064 46.13304 33.55684
# Shear Modulus (GPa) = 40.12914 30.11219 35.12067
#
# Velocity S-wave (km/s) = 3.90384 3.38169 3.65211
# Velocity P-wave (km/s) = 5.31863 5.72432 5.52520
#
# Compressibility (1/GPa) = 0.04766299
#
# Stress axis : x y z
#
# Youngs Moduli (GPa) = 196.95169 46.00192 17.60979
#
# Poissons Ratio (x) = 0.16337 -0.07373
# Poissons Ratio (y) = 0.69944 0.32763
# Poissons Ratio (z) = -0.82463 0.85588
#
# Static dielectric constant tensor:
#      x y z
#    x 2.128530 0.000000 0.074320 
#    y 0.000000 2.041280 0.000000 
#    z 0.074320 0.000000 1.982000 
# 
# From -- ./inp_files/30068.got.cif
#   From: 2010.05.17/outbox.cif.g08.bks.cpg/sg15_16_cif.got.tgz:30068.got - 2010.06.03 18:47:42.
