data_PCOD9259386
_publ_section_title
;
Structure prediction by ZEFSAII (Michael W. Deem and Ramdas Pophale) SiO2 
 PCOD9259386
Probable space group: C 2/C
;
_chemical_formula_sum "Si O2"
_cell_formula_units_Z 40
_cell_length_a 12.753175
_cell_length_b 8.093210
_cell_length_c 19.818561
_cell_angle_alpha 90.000000
_cell_angle_beta 128.396499
_cell_angle_gamma 90.000000
_cell_volume 1603.166020
_symmetry_space_group_name_H-M "C 2/C"
_symmetry_group_IT_number 15
_symmetry_cell_setting 'monoclinic'
loop_
_space_group_symop_operation_xyz
x,y,z
-x,y,1/2-z
-x,-y,-z
x,-y,1/2+z
1/2+x,1/2+y,z
1/2-x,1/2+y,1/2-z
1/2-x,1/2-y,-z
1/2+x,1/2-y,1/2+z
loop_
_atom_site_type_symbol
_atom_site_label
_atom_site_fract_x
_atom_site_fract_y
_atom_site_fract_z
Si Si1 0.941916 0.164680 0.121701
Si Si2 0.505830 0.298868 0.999317
Si Si3 0.858251 0.660319 0.712488
Si Si4 0.504592 0.281286 0.148307
Si Si5 0.215091 0.680496 0.342564
O O1 0.844641 0.221164 0.142908
O O2 0.913013 0.236183 0.036597
O O3 0.089813 0.234026 0.203866
O O4 0.952887 0.968878 0.125657
O O5 0.354271 0.244043 0.921939
O O6 0.500000 0.500000 0.000000
O O7 0.544500 0.231424 0.088234
O O8 0.760288 0.507282 0.674622
O O9 0.000000 0.571886 0.750000
O O10 0.628447 0.268003 0.249520
O O11 0.380162 0.180284 0.129260
#
# Coordination Sequence:
#
# PCOD9259386 Si02
#       5
#     8   8   8   8   8
#     4   8  17  34  54  78 111 138 177 224 264 319
#     4  10  22  35  53  84 114 138 178 227 273 316
#     4   8  16  34  56  75 107 143 180 213 266 319
#     4  10  18  35  56  83 104 145 186 220 262 324
#     4  11  19  35  59  79 108 146 181 224 264 318
#
# _framework density 24.950631000000001
#
# number of rings (size 3 to 8) (size 9 to 14) (size 15 to 20)
#    1.200    1.200    2.000    3.000    0.000    3.200 
#    0.000    8.000    0.000   14.400    0.000    0.000 
#    0.000    0.000    0.000    0.000    0.000    0.000 
#
# Total GULP energy -111525.643697 kJ/mol
# GULP energy per Si atom -5576.282185 kJ/mol
# Density = 2.489384 g / cm^3
# Si number density = 24.950631 Si / 1000 Ang^3
#
#
#
# Elastic Constant Matrix: (Units=GPa)
#
#
# Indices 1 2 3 4 5 6 
#
# 1 63.1299 5.8156 48.7578 0.0000 -21.4241 0.0000
# 2 5.8156 57.2994 0.7049 0.0000 -13.9508 0.0000
# 3 48.7578 0.7049 150.2832 0.0000 -35.3340 0.0000
# 4 0.0000 0.0000 0.0000 19.5192 0.0000 -2.7783
# 5 -21.4241 -13.9508 -35.3340 0.0000 61.0829 0.0000
# 6 0.0000 0.0000 0.0000 -2.7783 0.0000 24.2455
#
#
#
# Elastic Compliance Matrix: (Units=1/GPa)
#
#
# Indices 1 2 3 4 5 6 
#
# 1 0.022092 -0.001228 -0.006257 0.000000 0.003849 0.000000
# 2 -0.001228 0.018692 0.001404 0.000000 0.004651 0.000000
# 3 -0.006257 0.001404 0.009534 0.000000 0.003641 0.000000
# 4 0.000000 0.000000 0.000000 0.052081 0.000000 0.005968
# 5 0.003849 0.004651 0.003641 0.000000 0.020889 0.000000
# 6 0.000000 0.000000 0.000000 0.005968 0.000000 0.041929
#
#
# Mechanical properties :
#
#
# Convention : Reuss Voigt Hill
#
# Bulk Modulus (GPa) = 26.20841 42.36324 34.28582
# Shear Modulus (GPa) = 26.30236 35.33179 30.81708
#
# Velocity S-wave (km/s) = 3.25033 3.76715 3.51824
# Velocity P-wave (km/s) = 4.96116 5.99480 5.50230
#
# Compressibility (1/GPa) = 0.03815570
#
# Stress axis : x y z
#
# Youngs Moduli (GPa) = 45.26515 53.49925 104.89262
#
# Poissons Ratio (x) = 0.06571 0.65630
# Poissons Ratio (y) = 0.05560 -0.14729
# Poissons Ratio (z) = 0.28322 -0.07513
#
# Static dielectric constant tensor:
#      x y z
#    x 2.113330 0.000000 0.011680 
#    y 0.000000 1.937170 0.000000 
#    z 0.011680 0.000000 2.023230 
# 
# From -- ./inp_files/247692.got.cif
#   From: 2010.05.17/outbox.cif.g08.bks.cpg/sg15_124_cif.got.tgz:247692.got - 2010.06.03 18:47:42.
