data_PCOD9259450
_publ_section_title
;
Structure prediction by ZEFSAII (Michael W. Deem and Ramdas Pophale) SiO2 
 PCOD9259450
Probable space group: C 2/C
;
_chemical_formula_sum "Si O2"
_cell_formula_units_Z 48
_cell_length_a 16.269920
_cell_length_b 8.884149
_cell_length_c 22.176763
_cell_angle_alpha 90.000000
_cell_angle_beta 131.187354
_cell_angle_gamma 90.000000
_cell_volume 2412.352091
_symmetry_space_group_name_H-M "C 2/C"
_symmetry_group_IT_number 15
_symmetry_cell_setting 'monoclinic'
loop_
_space_group_symop_operation_xyz
x,y,z
-x,y,1/2-z
-x,-y,-z
x,-y,1/2+z
1/2+x,1/2+y,z
1/2-x,1/2+y,1/2-z
1/2-x,1/2-y,-z
1/2+x,1/2-y,1/2+z
loop_
_atom_site_type_symbol
_atom_site_label
_atom_site_fract_x
_atom_site_fract_y
_atom_site_fract_z
Si Si1 0.564068 0.147199 0.478479
Si Si2 0.481146 0.706302 0.059318
Si Si3 0.542907 0.057496 0.672320
Si Si4 0.172773 0.590352 0.848136
Si Si5 0.849437 0.944482 0.018202
Si Si6 0.775339 0.609812 0.436909
O O1 0.510596 0.241272 0.506582
O O2 0.632504 0.267463 0.473068
O O3 0.483934 0.063924 0.392711
O O4 0.642682 0.020901 0.546639
O O5 0.558914 0.785661 0.144685
O O6 0.462852 0.531155 0.059365
O O7 0.361925 0.783283 0.014013
O O8 0.640186 0.033355 0.766209
O O9 0.434097 0.072709 0.661205
O O10 0.267182 0.492341 0.924969
O O11 0.210676 0.766556 0.866498
O O12 0.803124 0.017028 0.056900
#
# Coordination Sequence:
#
# PCOD9259450 Si02
#       6
#     8   8   8   8   8   8
#     4  11  22  33  58  87 117 141 182 240 283 326
#     4  10  19  37  56  80 110 153 183 216 280 349
#     4  10  19  35  56  80 109 147 189 233 281 326
#     4  10  19  34  58  80 106 150 189 234 275 331
#     4  11  19  36  57  86 110 146 190 226 273 335
#     4  10  18  35  58  80 103 145 197 219 259 341
#
# _framework density 19.897593000000001
#
# number of rings (size 3 to 8) (size 9 to 14) (size 15 to 20)
#    0.000    1.667    5.000    4.000    0.000    0.000 
#    0.000    6.667    0.000    0.000    0.000    0.000 
#    0.000    0.000    0.000    0.000    0.000    0.000 
#
# Total GULP energy -133703.827544 kJ/mol
# GULP energy per Si atom -5570.992814 kJ/mol
# Density = 1.985231 g / cm^3
# Si number density = 19.897593 Si / 1000 Ang^3
#
#
#
# Elastic Constant Matrix: (Units=GPa)
#
#
# Indices 1 2 3 4 5 6 
#
# 1 34.5429 1.5192 6.7292 0.0000 -15.0548 0.0000
# 2 1.5192 85.8814 11.8772 0.0000 3.2729 0.0000
# 3 6.7292 11.8772 97.3621 0.0000 -12.8684 0.0000
# 4 0.0000 0.0000 0.0000 16.5356 0.0000 -4.5232
# 5 -15.0548 3.2729 -12.8684 0.0000 18.1915 0.0000
# 6 0.0000 0.0000 0.0000 -4.5232 0.0000 28.1214
#
#
#
# Elastic Compliance Matrix: (Units=1/GPa)
#
#
# Indices 1 2 3 4 5 6 
#
# 1 0.046242 -0.002706 0.002489 0.000000 0.040516 0.000000
# 2 -0.002706 0.012205 -0.002083 0.000000 -0.005909 0.000000
# 3 0.002489 -0.002083 0.011776 0.000000 0.010765 0.000000
# 4 0.000000 0.000000 0.000000 0.063259 0.000000 0.010175
# 5 0.040516 -0.005909 0.010765 0.000000 0.097179 0.000000
# 6 0.000000 0.000000 0.000000 0.010175 0.000000 0.037197
#
#
# Mechanical properties :
#
#
# Convention : Reuss Voigt Hill
#
# Bulk Modulus (GPa) = 15.23863 28.67083 21.95473
# Shear Modulus (GPa) = 16.98766 25.74707 21.36737
#
# Velocity S-wave (km/s) = 2.92508 3.60109 3.28055
# Velocity P-wave (km/s) = 4.36844 5.63303 5.04055
#
# Compressibility (1/GPa) = 0.06562271
#
# Stress axis : x y z
#
# Youngs Moduli (GPa) = 21.62546 81.93310 84.92023
#
# Poissons Ratio (x) = 0.22174 -0.21138
# Poissons Ratio (y) = 0.05853 0.17687
# Poissons Ratio (z) = -0.05383 0.17065
#
# Static dielectric constant tensor:
#      x y z
#    x 1.801230 0.000000 0.012230 
#    y 0.000000 1.739980 0.000000 
#    z 0.012230 0.000000 1.695730 
# 
# From -- ./inp_files/247109.got.cif
#   From: 2010.05.17/outbox.cif.g08.bks.cpg/sg15_124_cif.got.tgz:247109.got - 2010.06.03 18:47:42.
