data_PCOD9259163
_publ_section_title
;
Structure prediction by ZEFSAII (Michael W. Deem and Ramdas Pophale) SiO2 
 PCOD9259163
Probable space group: C 2/C
;
_chemical_formula_sum "Si O2"
_cell_formula_units_Z 40
_cell_length_a 7.897856
_cell_length_b 18.654012
_cell_length_c 18.101608
_cell_angle_alpha 90.000000
_cell_angle_beta 50.058642
_cell_angle_gamma 90.000000
_cell_volume 2044.679188
_symmetry_space_group_name_H-M "C 2/C"
_symmetry_group_IT_number 15
_symmetry_cell_setting 'monoclinic'
loop_
_space_group_symop_operation_xyz
x,y,z
-x,y,1/2-z
-x,-y,-z
x,-y,1/2+z
1/2+x,1/2+y,z
1/2-x,1/2+y,1/2-z
1/2-x,1/2-y,-z
1/2+x,1/2-y,1/2+z
loop_
_atom_site_type_symbol
_atom_site_label
_atom_site_fract_x
_atom_site_fract_y
_atom_site_fract_z
Si Si1 0.331486 0.162570 0.033395
Si Si2 0.878112 0.925545 0.043538
Si Si3 0.000000 0.609457 0.750000
Si Si4 0.943275 0.739862 0.660773
Si Si5 0.209628 0.333502 0.535908
Si Si6 0.000000 0.316750 0.750000
O O1 0.521339 0.134340 0.034578
O O2 0.136830 0.205105 0.131491
O O3 0.218194 0.108104 0.006248
O O4 0.467200 0.219274 0.945245
O O5 0.684076 0.935301 0.157183
O O6 0.051312 0.869916 0.030652
O O7 0.000000 0.000000 0.000000
O O8 0.922452 0.665979 0.710033
O O9 0.703988 0.773073 0.726253
O O10 0.250000 0.250000 0.500000
O O11 0.115623 0.348982 0.644790
#
# Coordination Sequence:
#
# PCOD9259163 Si02
#       6
#     8   8   4   8   8   4
#     4  10  20  39  61  91 136 166 212 283 333 382
#     4  11  25  45  63  93 139 181 223 273 340 412
#     4  10  22  39  68  88 127 178 220 272 336 410
#     4  10  18  34  60  99 126 159 216 278 336 382
#     4  12  22  39  67  97 131 169 223 286 334 398
#     4  12  20  31  64 100 131 166 212 274 352 388
#
# _framework density 19.56297
#
# number of rings (size 3 to 8) (size 9 to 14) (size 15 to 20)
#    0.000    1.200    4.000    4.800    0.000    1.600 
#    0.000    0.000    0.000    2.400    0.000    0.000 
#    0.000    0.000    0.000    0.000    0.000    0.000 
#
# Total GULP energy -111417.877309 kJ/mol
# GULP energy per Si atom -5570.893865 kJ/mol
# Density = 1.951844 g / cm^3
# Si number density = 19.562970 Si / 1000 Ang^3
#
#
#
# Elastic Constant Matrix: (Units=GPa)
#
#
# Indices 1 2 3 4 5 6 
#
# 1 119.8697 26.9229 21.2070 0.0000 -8.4267 0.0000
# 2 26.9229 69.8045 24.7997 0.0000 -5.7165 0.0000
# 3 21.2070 24.7997 119.0190 0.0000 -10.1159 0.0000
# 4 0.0000 0.0000 0.0000 22.7146 0.0000 -7.1757
# 5 -8.4267 -5.7165 -10.1159 0.0000 28.5674 0.0000
# 6 0.0000 0.0000 0.0000 -7.1757 0.0000 -9.6998
#
#
#
# Elastic Compliance Matrix: (Units=1/GPa)
#
#
# Indices 1 2 3 4 5 6 
#
# 1 0.009328 -0.003146 -0.000852 0.000000 0.001820 0.000000
# 2 -0.003146 0.016645 -0.002787 0.000000 0.001416 0.000000
# 3 -0.000852 -0.002787 0.009347 0.000000 0.002501 0.000000
# 4 0.000000 0.000000 0.000000 0.035685 0.000000 -0.026399
# 5 0.001820 0.001416 0.002501 0.000000 0.036711 0.000000
# 6 0.000000 0.000000 0.000000 -0.026399 0.000000 -0.083566
#
#
# Mechanical properties :
#
#
# Convention : Reuss Voigt Hill
#
# Bulk Modulus (GPa) = 45.97739 50.50582 48.24160
# Shear Modulus (GPa) = 111.18471 24.03402 67.60937
#
# Velocity S-wave (km/s) = 7.54703 3.50887 5.88514
# Velocity P-wave (km/s) = 9.97481 6.50302 8.41980
#
# Compressibility (1/GPa) = 0.02174982
#
# Stress axis : x y z
#
# Youngs Moduli (GPa) = 107.20839 60.07695 106.98426
#
# Poissons Ratio (x) = 0.18900 0.09113
# Poissons Ratio (y) = 0.33727 0.29821
# Poissons Ratio (z) = 0.09132 0.16746
#
# Static dielectric constant tensor:
#      x y z
#    x 1.743310 0.000000 0.034540 
#    y 0.000000 1.697810 0.000000 
#    z 0.034540 0.000000 1.722470 
# 
# From -- ./inp_files/133870.got.cif
#   From: 2010.05.17/outbox.cif.g08.bks.cpg/sg15_67_cif.got.tgz:133870.got - 2010.06.03 18:47:42.
