data_PCOD9259817
_publ_section_title
;
Structure prediction by ZEFSAII (Michael W. Deem and Ramdas Pophale) SiO2 
 PCOD9259817
Probable space group: C 2/C
;
_chemical_formula_sum "Si O2"
_cell_formula_units_Z 40
_cell_length_a 11.538540
_cell_length_b 14.156384
_cell_length_c 11.588931
_cell_angle_alpha 90.000000
_cell_angle_beta 59.211026
_cell_angle_gamma 90.000000
_cell_volume 1626.182450
_symmetry_space_group_name_H-M "C 2/C"
_symmetry_group_IT_number 15
_symmetry_cell_setting 'monoclinic'
loop_
_space_group_symop_operation_xyz
x,y,z
-x,y,1/2-z
-x,-y,-z
x,-y,1/2+z
1/2+x,1/2+y,z
1/2-x,1/2+y,1/2-z
1/2-x,1/2-y,-z
1/2+x,1/2-y,1/2+z
loop_
_atom_site_type_symbol
_atom_site_label
_atom_site_fract_x
_atom_site_fract_y
_atom_site_fract_z
Si Si1 0.413818 0.241209 0.412159
Si Si2 0.255171 0.897343 0.505533
Si Si3 0.000000 0.391245 0.250000
Si Si4 0.500000 0.412863 0.750000
Si Si5 0.852090 0.423660 0.101465
Si Si6 0.407226 0.582841 0.640626
O O1 0.500000 0.223256 0.250000
O O2 0.250000 0.250000 0.500000
O O3 0.435987 0.152499 0.486499
O O4 0.477892 0.338520 0.427341
O O5 0.380468 0.842249 0.384644
O O6 0.136074 0.858282 0.647455
O O7 0.172154 0.931483 0.436450
O O8 0.316970 0.985280 0.544027
O O9 0.923322 0.446888 0.186965
O O10 0.457039 0.485754 0.670821
O O11 0.707106 0.380327 0.211967
#
# Coordination Sequence:
#
# PCOD9259817 Si02
#       6
#     8   8   4   4   8   8
#     4  12  22  41  66  94 133 178 224 268 332 409
#     4  10  21  38  62  90 127 167 218 273 335 387
#     4  10  22  42  62  90 134 168 216 292 338 382
#     4  10  18  36  56  88 124 164 218 268 326 388
#     4  10  22  41  65  94 129 175 223 276 340 399
#     4  10  20  40  62  89 134 174 213 276 332 393
#
# _framework density 24.597484999999999
#
# number of rings (size 3 to 8) (size 9 to 14) (size 15 to 20)
#    0.000    1.600    3.000    2.400    1.400    0.000 
#    3.600    5.000    0.000    0.000    0.000    0.000 
#    0.000    0.000    0.000    0.000    0.000    0.000 
#
# Total GULP energy -111485.990911 kJ/mol
# GULP energy per Si atom -5574.299546 kJ/mol
# Density = 2.454150 g / cm^3
# Si number density = 24.597485 Si / 1000 Ang^3
#
#
#
# Elastic Constant Matrix: (Units=GPa)
#
#
# Indices 1 2 3 4 5 6 
#
# 1 155.6863 61.9710 68.8363 0.0000 3.1182 0.0000
# 2 61.9710 114.6007 64.1719 0.0000 12.7878 0.0000
# 3 68.8363 64.1719 186.4853 0.0000 -53.6601 0.0000
# 4 0.0000 0.0000 0.0000 -16.4047 0.0000 -7.0872
# 5 3.1182 12.7878 -53.6601 0.0000 82.1943 0.0000
# 6 0.0000 0.0000 0.0000 -7.0872 0.0000 2.4152
#
#
#
# Elastic Compliance Matrix: (Units=1/GPa)
#
#
# Indices 1 2 3 4 5 6 
#
# 1 0.008876 -0.003140 -0.002650 0.000000 -0.001578 0.000000
# 2 -0.003140 0.013950 -0.005210 0.000000 -0.005453 0.000000
# 3 -0.002650 -0.005210 0.010338 0.000000 0.007660 0.000000
# 4 0.000000 0.000000 0.000000 -0.026881 0.000000 -0.078879
# 5 -0.001578 -0.005453 0.007660 0.000000 0.018075 0.000000
# 6 0.000000 0.000000 0.000000 -0.078879 0.000000 0.182580
#
#
# Mechanical properties :
#
#
# Convention : Reuss Voigt Hill
#
# Bulk Modulus (GPa) = 89.58004 94.08117 91.83060
# Shear Modulus (GPa) = 21.49056 31.09385 26.29221
#
# Velocity S-wave (km/s) = 2.95903 3.55929 3.27295
# Velocity P-wave (km/s) = 6.94060 7.43120 7.19008
#
# Compressibility (1/GPa) = 0.01116320
#
# Stress axis : x y z
#
# Youngs Moduli (GPa) = 112.65854 71.68545 96.73329
#
# Poissons Ratio (x) = 0.22508 0.25637
# Poissons Ratio (y) = 0.35372 0.50401
# Poissons Ratio (z) = 0.29857 0.37350
#
# Static dielectric constant tensor:
#      x y z
#    x 1.991870 0.000000 -0.105890 
#    y 0.000000 1.859500 0.000000 
#    z -0.105890 0.000000 2.377110 
# 
# From -- ./inp_files/87104.got.cif
#   From: 2010.05.17/outbox.cif.g08.bks.cpg/sg15_44_cif.got.tgz:87104.got - 2010.06.03 18:47:42.
