data_PCOD9259866
_publ_section_title
;
Structure prediction by ZEFSAII (Michael W. Deem and Ramdas Pophale) SiO2 
 PCOD9259866
Probable space group: C 2/C
;
_chemical_formula_sum "Si O2"
_cell_formula_units_Z 48
_cell_length_a 21.454515
_cell_length_b 17.106531
_cell_length_c 11.668566
_cell_angle_alpha 90.000000
_cell_angle_beta 138.544797
_cell_angle_gamma 90.000000
_cell_volume 2835.166762
_symmetry_space_group_name_H-M "C 2/C"
_symmetry_group_IT_number 15
_symmetry_cell_setting 'monoclinic'
loop_
_space_group_symop_operation_xyz
x,y,z
-x,y,1/2-z
-x,-y,-z
x,-y,1/2+z
1/2+x,1/2+y,z
1/2-x,1/2+y,1/2-z
1/2-x,1/2-y,-z
1/2+x,1/2-y,1/2+z
loop_
_atom_site_type_symbol
_atom_site_label
_atom_site_fract_x
_atom_site_fract_y
_atom_site_fract_z
Si Si1 0.855428 0.827944 0.827383
Si Si2 0.893413 0.090299 0.140604
Si Si3 0.286828 0.301242 0.319649
Si Si4 0.442086 0.272912 0.342569
Si Si5 0.651274 0.408931 0.436512
Si Si6 0.809578 0.672672 0.040560
O O1 0.872399 0.880072 0.739394
O O2 0.764517 0.772336 0.693278
O O3 0.846849 0.878774 0.931068
O O4 0.949667 0.776903 0.975761
O O5 0.000000 0.110146 0.250000
O O6 0.881601 0.997261 0.117387
O O7 0.822788 0.134537 0.957405
O O8 0.376486 0.275914 0.365399
O O9 0.210983 0.332786 0.121916
O O10 0.414561 0.350491 0.229917
O O11 0.411278 0.197861 0.225004
O O12 0.756214 0.397331 0.529690
O O13 0.750000 0.750000 0.000000
#
# Coordination Sequence:
#
# PCOD9259866 Si02
#       6
#     8   8   8   8   8   8
#     4  12  21  35  60  78 110 150 181 222 270 330
#     4  12  25  34  50  83 121 144 169 224 286 335
#     4  10  20  38  51  79 112 143 186 218 266 324
#     4  10  18  36  58  81 106 139 190 226 255 316
#     4  10  21  34  54  85 112 143 175 220 287 322
#     4   8  16  35  55  76 105 141 181 230 245 313
#
# _framework density 16.930222000000001
#
# number of rings (size 3 to 8) (size 9 to 14) (size 15 to 20)
#    0.000    2.000    6.667    2.000    4.667    1.333 
#    0.000    0.000    0.000    1.000    0.000    2.333 
#    0.000    0.000    0.000    0.000    0.000    0.000 
#
# Total GULP energy -133781.271033 kJ/mol
# GULP energy per Si atom -5574.219626 kJ/mol
# Density = 1.689169 g / cm^3
# Si number density = 16.930222 Si / 1000 Ang^3
#
#
#
# Elastic Constant Matrix: (Units=GPa)
#
#
# Indices 1 2 3 4 5 6 
#
# 1 78.5008 41.8875 12.5788 0.0000 -0.1519 0.0000
# 2 41.8875 62.1404 32.3601 0.0000 6.6172 0.0000
# 3 12.5788 32.3601 55.6307 0.0000 7.4009 0.0000
# 4 0.0000 0.0000 0.0000 19.2560 0.0000 3.1096
# 5 -0.1519 6.6172 7.4009 0.0000 16.1645 0.0000
# 6 0.0000 0.0000 0.0000 3.1096 0.0000 12.2253
#
#
#
# Elastic Compliance Matrix: (Units=1/GPa)
#
#
# Indices 1 2 3 4 5 6 
#
# 1 0.021199 -0.017195 0.004521 0.000000 0.005168 0.000000
# 2 -0.017195 0.037222 -0.016734 0.000000 -0.007737 0.000000
# 3 0.004521 -0.016734 0.027442 0.000000 -0.005671 0.000000
# 4 0.000000 0.000000 0.000000 0.054157 0.000000 -0.013775
# 5 0.005168 -0.007737 -0.005671 0.000000 0.067676 0.000000
# 6 0.000000 0.000000 0.000000 -0.013775 0.000000 0.085302
#
#
# Mechanical properties :
#
#
# Convention : Reuss Voigt Hill
#
# Bulk Modulus (GPa) = 36.97252 41.10276 39.03764
# Shear Modulus (GPa) = 13.85698 16.82552 15.34125
#
# Velocity S-wave (km/s) = 2.86401 3.15590 3.01349
# Velocity P-wave (km/s) = 5.72907 6.13271 5.93432
#
# Compressibility (1/GPa) = 0.02704711
#
# Stress axis : x y z
#
# Youngs Moduli (GPa) = 47.17156 26.86617 36.44024
#
# Poissons Ratio (x) = 0.46195 -0.16475
# Poissons Ratio (y) = 0.81110 0.60980
# Poissons Ratio (z) = -0.21327 0.44959
#
# Static dielectric constant tensor:
#      x y z
#    x 1.622460 0.000000 0.020090 
#    y 0.000000 1.552220 0.000000 
#    z 0.020090 0.000000 1.605910 
# 
# From -- ./inp_files/119118.got.cif
#   From: 2010.05.17/outbox.cif.g08.bks.cpg/sg15_60_cif.got.tgz:119118.got - 2010.06.03 18:47:42.
