data_PCOD9259032
_publ_section_title
;
Structure prediction by ZEFSAII (Michael W. Deem and Ramdas Pophale) SiO2 
 PCOD9259032
Probable space group: C 2/C
;
_chemical_formula_sum "Si O2"
_cell_formula_units_Z 60
_cell_length_a 9.425305
_cell_length_b 18.727356
_cell_length_c 17.910067
_cell_angle_alpha 90.000000
_cell_angle_beta 102.851212
_cell_angle_gamma 90.000000
_cell_volume 3082.136384
_symmetry_space_group_name_H-M "C 2/C"
_symmetry_group_IT_number 15
_symmetry_cell_setting 'monoclinic'
loop_
_space_group_symop_operation_xyz
x,y,z
-x,y,1/2-z
-x,-y,-z
x,-y,1/2+z
1/2+x,1/2+y,z
1/2-x,1/2+y,1/2-z
1/2-x,1/2-y,-z
1/2+x,1/2-y,1/2+z
loop_
_atom_site_type_symbol
_atom_site_label
_atom_site_fract_x
_atom_site_fract_y
_atom_site_fract_z
Si Si1 0.003665 0.606506 0.063723
Si Si2 0.500000 0.556473 0.750000
Si Si3 0.547074 0.333732 0.377578
Si Si4 0.633784 0.193344 0.318739
Si Si5 0.816927 0.047971 0.134728
Si Si6 0.082712 0.748463 0.003571
Si Si7 0.207715 0.057176 0.999214
Si Si8 0.427137 0.638628 0.380567
O O1 0.151317 0.575240 0.115950
O O2 0.042273 0.665215 0.005919
O O3 0.909908 0.653378 0.110791
O O4 0.881714 0.550367 0.025498
O O5 0.532601 0.608194 0.683665
O O6 0.632534 0.507098 0.794931
O O7 0.630913 0.277350 0.335462
O O8 0.442071 0.288421 0.419593
O O9 0.661852 0.375377 0.442612
O O10 0.500000 0.177580 0.250000
O O11 0.790560 0.163677 0.315345
O O12 0.935257 0.110482 0.148316
O O13 0.839092 0.010002 0.056067
O O14 0.250000 0.750000 0.000000
O O15 0.981893 0.794033 0.935934
O O16 0.132154 0.076448 0.069352
#
# Coordination Sequence:
#
# PCOD9259032 Si02
#       8
#     8   4   8   8   8   8   8   8
#     4  10  20  34  55  85 110 140 184 231 282 320
#     4  10  22  36  52  78 108 156 194 216 262 348
#     4   9  18  36  58  78 106 147 190 227 273 336
#     4  10  20  34  57  78 106 142 182 229 271 333
#     4  11  21  34  55  79 114 149 180 224 268 334
#     4  10  18  34  58  87 114 135 180 247 299 322
#     4   9  19  35  56  80 107 145 187 223 268 325
#     4  10  20  34  54  86 109 140 181 232 283 326
#
# _framework density 19.467016000000001
#
# number of rings (size 3 to 8) (size 9 to 14) (size 15 to 20)
#    0.000    2.133    2.000    1.600    1.867    3.200 
#    0.000    0.000    0.000    0.000    6.933    0.000 
#    0.000    0.000    0.000    0.000    0.000    0.000 
#
# Total GULP energy -167143.890133 kJ/mol
# GULP energy per Si atom -5571.463004 kJ/mol
# Density = 1.942271 g / cm^3
# Si number density = 19.467016 Si / 1000 Ang^3
#
#
#
# Elastic Constant Matrix: (Units=GPa)
#
#
# Indices 1 2 3 4 5 6 
#
# 1 119.5728 27.5467 23.2764 0.0000 35.2090 0.0000
# 2 27.5467 55.9678 11.8157 0.0000 15.9386 0.0000
# 3 23.2764 11.8157 50.9316 0.0000 21.1345 0.0000
# 4 0.0000 0.0000 0.0000 17.3255 0.0000 -4.0307
# 5 35.2090 15.9386 21.1345 0.0000 26.2259 0.0000
# 6 0.0000 0.0000 0.0000 -4.0307 0.0000 7.2009
#
#
#
# Elastic Compliance Matrix: (Units=1/GPa)
#
#
# Indices 1 2 3 4 5 6 
#
# 1 0.014132 -0.001832 0.002069 0.000000 -0.019527 0.000000
# 2 -0.001832 0.021859 0.000388 0.000000 -0.011138 0.000000
# 3 0.002069 0.000388 0.029821 0.000000 -0.027046 0.000000
# 4 0.000000 0.000000 0.000000 0.066360 0.000000 0.037145
# 5 -0.019527 -0.011138 -0.027046 0.000000 0.092911 0.000000
# 6 0.000000 0.000000 0.000000 0.037145 0.000000 0.159664
#
#
# Mechanical properties :
#
#
# Convention : Reuss Voigt Hill
#
# Bulk Modulus (GPa) = 14.91113 39.08331 26.99722
# Shear Modulus (GPa) = 12.31979 21.07266 16.69623
#
# Velocity S-wave (km/s) = 2.51839 3.29368 2.93177
# Velocity P-wave (km/s) = 4.01655 5.88087 5.03574
#
# Compressibility (1/GPa) = 0.06706401
#
# Stress axis : x y z
#
# Youngs Moduli (GPa) = 70.76046 45.74772 33.53303
#
# Poissons Ratio (x) = 0.08379 -0.06939
# Poissons Ratio (y) = 0.12960 -0.01301
# Poissons Ratio (z) = -0.14643 -0.01775
#
# Static dielectric constant tensor:
#      x y z
#    x 1.679610 0.000000 0.005530 
#    y 0.000000 1.727640 0.000000 
#    z 0.005530 0.000000 1.747050 
# 
# From -- ./inp_files/232638.got.cif
#   From: 2010.05.17/outbox.cif.g08.bks.cpg/sg15_117_cif.got.tgz:232638.got - 2010.06.03 18:47:42.
