data_PCOD9259087
_publ_section_title
;
Structure prediction by ZEFSAII (Michael W. Deem and Ramdas Pophale) SiO2 
 PCOD9259087
Probable space group: C 2/C
;
_chemical_formula_sum "Si O2"
_cell_formula_units_Z 48
_cell_length_a 23.041655
_cell_length_b 8.857614
_cell_length_c 17.922616
_cell_angle_alpha 90.000000
_cell_angle_beta 145.300111
_cell_angle_gamma 90.000000
_cell_volume 2082.361703
_symmetry_space_group_name_H-M "C 2/C"
_symmetry_group_IT_number 15
_symmetry_cell_setting 'monoclinic'
loop_
_space_group_symop_operation_xyz
x,y,z
-x,y,1/2-z
-x,-y,-z
x,-y,1/2+z
1/2+x,1/2+y,z
1/2-x,1/2+y,1/2-z
1/2-x,1/2-y,-z
1/2+x,1/2-y,1/2+z
loop_
_atom_site_type_symbol
_atom_site_label
_atom_site_fract_x
_atom_site_fract_y
_atom_site_fract_z
Si Si1 0.157133 0.708400 0.598933
Si Si2 0.498738 0.008537 0.906140
Si Si3 0.889877 0.900756 0.672032
Si Si4 0.302258 0.919324 0.113985
Si Si5 0.301949 0.536496 0.854440
Si Si6 0.519058 0.337835 0.586221
O O1 0.079830 0.615526 0.465902
O O2 0.233565 0.585107 0.713038
O O3 0.089007 0.775048 0.594855
O O4 0.209302 0.863670 0.629863
O O5 0.392873 0.986456 0.749814
O O6 0.522447 0.184193 0.917952
O O7 0.500000 0.000000 0.000000
O O8 0.788977 0.983413 0.533909
O O9 0.856869 0.723427 0.632576
O O10 0.913134 0.928272 0.783312
O O11 0.000000 0.928878 0.750000
O O12 0.238162 0.864002 0.118828
O O13 0.418169 0.573464 0.959246
#
# Coordination Sequence:
#
# PCOD9259087 Si02
#       6
#     8   8   8   8   8   8
#     4  11  23  36  56  90 125 158 192 251 303 366
#     4   9  17  36  53  78 122 150 184 245 299 349
#     4  10  18  34  59  90 117 148 203 255 279 337
#     4  10  20  33  57  89 115 153 194 245 300 345
#     4  12  21  35  58  90 119 159 197 242 311 356
#     4  10  20  36  57  88 119 151 203 252 290 354
#
# _framework density 23.050749
#
# number of rings (size 3 to 8) (size 9 to 14) (size 15 to 20)
#    0.000    1.667    6.667    1.500    2.333    0.000 
#    0.000    0.000    0.000    1.000   21.667    0.000 
#    0.000    0.000    0.000    0.000    0.000    0.000 
#
# Total GULP energy -133626.148828 kJ/mol
# GULP energy per Si atom -5567.756201 kJ/mol
# Density = 2.299828 g / cm^3
# Si number density = 23.050749 Si / 1000 Ang^3
#
#
#
# Elastic Constant Matrix: (Units=GPa)
#
#
# Indices 1 2 3 4 5 6 
#
# 1 26.0937 5.2729 11.5277 0.0000 6.1165 0.0000
# 2 5.2729 77.5119 52.0143 0.0000 11.5945 0.0000
# 3 11.5277 52.0143 229.3871 0.0000 16.0970 0.0000
# 4 0.0000 0.0000 0.0000 35.7681 0.0000 7.0631
# 5 6.1165 11.5945 16.0970 0.0000 23.8297 0.0000
# 6 0.0000 0.0000 0.0000 7.0631 0.0000 14.2481
#
#
#
# Elastic Compliance Matrix: (Units=1/GPa)
#
#
# Indices 1 2 3 4 5 6 
#
# 1 0.041215 -0.000525 -0.001289 0.000000 -0.009453 0.000000
# 2 -0.000525 0.015896 -0.003196 0.000000 -0.005440 0.000000
# 3 -0.001289 -0.003196 0.005266 0.000000 -0.001671 0.000000
# 4 0.000000 0.000000 0.000000 0.030992 0.000000 -0.015363
# 5 -0.009453 -0.005440 -0.001671 0.000000 0.048167 0.000000
# 6 0.000000 0.000000 0.000000 -0.015363 0.000000 0.077801
#
#
# Mechanical properties :
#
#
# Convention : Reuss Voigt Hill
#
# Bulk Modulus (GPa) = 19.09977 52.29139 35.69558
# Shear Modulus (GPa) = 20.25867 32.38103 26.31985
#
# Velocity S-wave (km/s) = 2.96779 3.75209 3.38275
# Velocity P-wave (km/s) = 4.47747 6.44248 5.54767
#
# Compressibility (1/GPa) = 0.05235665
#
# Stress axis : x y z
#
# Youngs Moduli (GPa) = 24.26320 62.91069 189.88812
#
# Poissons Ratio (x) = 0.03302 0.24474
# Poissons Ratio (y) = 0.01273 0.60693
# Poissons Ratio (z) = 0.03127 0.20108
#
# Static dielectric constant tensor:
#      x y z
#    x 1.957750 0.000000 0.006050 
#    y 0.000000 2.001020 0.000000 
#    z 0.006050 0.000000 1.940440 
# 
# From -- ./inp_files/257230.got.cif
#   From: 2010.05.17/outbox.cif.g08.bks.cpg/sg15_129_cif.got.tgz:257230.got - 2010.06.03 18:47:42.
