data_PCOD9259563
_publ_section_title
;
Structure prediction by ZEFSAII (Michael W. Deem and Ramdas Pophale) SiO2 
 PCOD9259563
Probable space group: C 2/C
;
_chemical_formula_sum "Si O2"
_cell_formula_units_Z 52
_cell_length_a 11.296460
_cell_length_b 16.031450
_cell_length_c 16.619229
_cell_angle_alpha 90.000000
_cell_angle_beta 64.539268
_cell_angle_gamma 90.000000
_cell_volume 2717.416069
_symmetry_space_group_name_H-M "C 2/C"
_symmetry_group_IT_number 15
_symmetry_cell_setting 'monoclinic'
loop_
_space_group_symop_operation_xyz
x,y,z
-x,y,1/2-z
-x,-y,-z
x,-y,1/2+z
1/2+x,1/2+y,z
1/2-x,1/2+y,1/2-z
1/2-x,1/2-y,-z
1/2+x,1/2-y,1/2+z
loop_
_atom_site_type_symbol
_atom_site_label
_atom_site_fract_x
_atom_site_fract_y
_atom_site_fract_z
Si Si1 0.235271 0.277961 0.883906
Si Si2 0.733174 0.614306 0.972677
Si Si3 0.271473 0.930230 0.962717
Si Si4 0.454180 0.391701 0.356499
Si Si5 0.000000 0.848370 0.750000
Si Si6 0.504646 0.803760 0.653003
Si Si7 0.056635 0.055994 0.389249
O O1 0.221583 0.179837 0.904037
O O2 0.386216 0.293986 0.821086
O O3 0.138805 0.311119 0.843762
O O4 0.205623 0.330934 0.972959
O O5 0.809821 0.527486 0.941385
O O6 0.586131 0.586706 0.039951
O O7 0.389963 0.866004 0.917308
O O8 0.165940 0.917192 0.920997
O O9 0.191505 0.918763 0.070160
O O10 0.500000 0.401222 0.250000
O O11 0.459710 0.293395 0.372570
O O12 0.545575 0.456589 0.378948
O O13 0.930857 0.904173 0.702271
O O14 0.500000 0.818169 0.750000
#
# Coordination Sequence:
#
# PCOD9259563 Si02
#       7
#     8   8   8   8   4   8   8
#     4  10  20  39  58  82 115 149 202 245 296 356
#     4   9  20  36  60  81 110 155 195 248 291 350
#     4  11  21  36  59  87 118 160 195 241 309 354
#     4  10  20  36  59  87 115 152 208 249 288 345
#     4  10  20  34  62  84 104 150 202 248 290 344
#     4  11  23  37  55  85 127 159 189 248 302 358
#     4  10  18  35  60  86 112 148 204 244 289 352
#
# _framework density 19.135825000000001
#
# number of rings (size 3 to 8) (size 9 to 14) (size 15 to 20)
#    0.000    1.846    0.769    5.077    0.000    0.615 
#    1.385    4.615    0.000    0.000    0.000    0.000 
#    0.000    0.000    0.000    0.000    0.000    0.000 
#
# Total GULP energy -144931.898294 kJ/mol
# GULP energy per Si atom -5574.303781 kJ/mol
# Density = 1.909227 g / cm^3
# Si number density = 19.135825 Si / 1000 Ang^3
#
#
#
# Elastic Constant Matrix: (Units=GPa)
#
#
# Indices 1 2 3 4 5 6 
#
# 1 73.9528 35.5977 22.8946 0.0000 4.5456 0.0000
# 2 35.5977 134.4831 41.7174 0.0000 -11.4121 0.0000
# 3 22.8946 41.7174 79.7042 0.0000 2.1985 0.0000
# 4 0.0000 0.0000 0.0000 20.5893 0.0000 5.2046
# 5 4.5456 -11.4121 2.1985 0.0000 25.8615 0.0000
# 6 0.0000 0.0000 0.0000 5.2046 0.0000 17.6838
#
#
#
# Elastic Compliance Matrix: (Units=1/GPa)
#
#
# Indices 1 2 3 4 5 6 
#
# 1 0.016483 -0.003949 -0.002546 0.000000 -0.004423 0.000000
# 2 -0.003949 0.010333 -0.004429 0.000000 0.005630 0.000000
# 3 -0.002546 -0.004429 0.015674 0.000000 -0.002840 0.000000
# 4 0.000000 0.000000 0.000000 0.052473 0.000000 -0.015443
# 5 -0.004423 0.005630 -0.002840 0.000000 0.042171 0.000000
# 6 0.000000 0.000000 0.000000 -0.015443 0.000000 0.061094
#
#
# Mechanical properties :
#
#
# Convention : Reuss Voigt Hill
#
# Bulk Modulus (GPa) = 48.44400 54.28437 51.36418
# Shear Modulus (GPa) = 22.03070 25.35563 23.69317
#
# Velocity S-wave (km/s) = 3.39673 3.64405 3.52256
# Velocity P-wave (km/s) = 6.38393 6.79227 6.59127
#
# Compressibility (1/GPa) = 0.02064239
#
# Stress axis : x y z
#
# Youngs Moduli (GPa) = 60.66909 96.77874 63.79859
#
# Poissons Ratio (x) = 0.38214 0.16242
# Poissons Ratio (y) = 0.23956 0.28258
# Poissons Ratio (z) = 0.15446 0.42866
#
# Static dielectric constant tensor:
#      x y z
#    x 1.654970 0.000000 0.034410 
#    y 0.000000 1.688950 0.000000 
#    z 0.034410 0.000000 1.706730 
# 
# From -- ./inp_files/197680.got.cif
#   From: 2010.05.17/outbox.cif.g08.bks.cpg/sg15_99_cif.got.tgz:197680.got - 2010.06.03 18:47:42.
