data_PCOD9259886
_publ_section_title
;
Structure prediction by ZEFSAII (Michael W. Deem and Ramdas Pophale) SiO2 
 PCOD9259886
Probable space group: C 2/C
;
_chemical_formula_sum "Si O2"
_cell_formula_units_Z 52
_cell_length_a 27.987254
_cell_length_b 7.953059
_cell_length_c 14.094774
_cell_angle_alpha 90.000000
_cell_angle_beta 37.694551
_cell_angle_gamma 90.000000
_cell_volume 1918.292508
_symmetry_space_group_name_H-M "C 2/C"
_symmetry_group_IT_number 15
_symmetry_cell_setting 'monoclinic'
loop_
_space_group_symop_operation_xyz
x,y,z
-x,y,1/2-z
-x,-y,-z
x,-y,1/2+z
1/2+x,1/2+y,z
1/2-x,1/2+y,1/2-z
1/2-x,1/2-y,-z
1/2+x,1/2-y,1/2+z
loop_
_atom_site_type_symbol
_atom_site_label
_atom_site_fract_x
_atom_site_fract_y
_atom_site_fract_z
Si Si1 0.322027 0.089630 0.286421
Si Si2 0.587253 0.376254 0.253912
Si Si3 0.115988 0.444931 0.138867
Si Si4 0.201274 0.279693 0.375988
Si Si5 0.415446 0.607543 0.081794
Si Si6 0.500000 0.194581 0.250000
Si Si7 0.626877 0.721160 0.957540
O O1 0.347253 0.252053 0.309160
O O2 0.234112 0.128303 0.391445
O O3 0.375224 0.116007 0.109514
O O4 0.344567 0.939211 0.320228
O O5 0.604015 0.552552 0.280224
O O6 0.502667 0.325539 0.432476
O O7 0.567364 0.332926 0.175257
O O8 0.035325 0.550838 0.266562
O O9 0.172035 0.562496 0.983777
O O10 0.105387 0.276199 0.096085
O O11 0.143417 0.224263 0.383484
O O12 0.282050 0.327855 0.196600
O O13 0.417873 0.431368 0.019388
#
# Coordination Sequence:
#
# PCOD9259886 Si02
#       7
#     8   8   8   8   8   4   8
#     4   8  20  34  59  91 113 157 209 242 292 358
#     4   9  18  35  59  83 113 151 204 241 282 361
#     4  11  19  38  61  84 121 160 200 253 294 362
#     4  10  19  35  61  88 116 157 206 245 295 361
#     4  10  18  36  58  84 116 153 193 247 300 347
#     4  10  20  36  62  88 112 164 210 238 286 370
#     4   9  21  34  58  88 124 151 196 251 303 351
#
# _framework density 27.107438999999999
#
# number of rings (size 3 to 8) (size 9 to 14) (size 15 to 20)
#    0.923    1.538    1.538    1.385    0.000    0.000 
#    0.000    8.462    3.385    0.000    0.000    0.000 
#    0.000    0.000    0.000    0.000    0.000    0.000 
#
# Total GULP energy -144795.378917 kJ/mol
# GULP energy per Si atom -5569.053035 kJ/mol
# Density = 2.704574 g / cm^3
# Si number density = 27.107439 Si / 1000 Ang^3
#
#
#
# Elastic Constant Matrix: (Units=GPa)
#
#
# Indices 1 2 3 4 5 6 
#
# 1 185.4802 33.5802 35.1602 0.0001 3.3032 0.0000
# 2 33.5802 68.2228 35.1888 -0.0007 15.1663 0.0000
# 3 35.1602 35.1888 55.1165 -0.0005 23.6956 0.0000
# 4 0.0001 -0.0007 -0.0005 29.2875 0.0002 25.6906
# 5 3.3032 15.1663 23.6956 0.0002 48.6171 0.0000
# 6 0.0000 0.0000 0.0000 25.6906 0.0000 41.9740
#
#
#
# Elastic Compliance Matrix: (Units=1/GPa)
#
#
# Indices 1 2 3 4 5 6 
#
# 1 0.006381 -0.001554 -0.003923 0.000000 0.001963 0.000000
# 2 -0.001554 0.022233 -0.012988 0.000001 -0.000500 0.000000
# 3 -0.003923 -0.012988 0.034260 0.000001 -0.012380 0.000000
# 4 0.000000 0.000001 0.000001 0.073728 -0.000001 -0.045126
# 5 0.001963 -0.000500 -0.012380 -0.000001 0.026625 0.000000
# 6 0.000000 0.000000 0.000000 -0.045126 0.000000 0.051444
#
#
# Mechanical properties :
#
#
# Convention : Reuss Voigt Hill
#
# Bulk Modulus (GPa) = 38.54339 57.40864 47.97602
# Shear Modulus (GPa) = 19.21218 37.63509 28.42363
#
# Velocity S-wave (km/s) = 2.66511 3.73012 3.24165
# Velocity P-wave (km/s) = 4.87032 6.30682 5.63453
#
# Compressibility (1/GPa) = 0.02594479
#
# Stress axis : x y z
#
# Youngs Moduli (GPa) = 156.70545 44.97768 29.18822
#
# Poissons Ratio (x) = 0.06990 0.11449
# Poissons Ratio (y) = 0.24355 0.37911
# Poissons Ratio (z) = 0.61469 0.58419
#
# Static dielectric constant tensor:
#      x y z
#    x 2.180360 0.000000 0.117800 
#    y 0.000000 2.233050 0.000000 
#    z 0.117800 0.000000 2.394820 
# 
# From -- ./inp_files/180476.got.cif
#   From: 2010.05.17/outbox.cif.g08.bks.cpg/sg15_91_cif.got.tgz:180476.got - 2010.06.03 18:47:42.
