data_PCOD9259809
_publ_section_title
;
Structure prediction by ZEFSAII (Michael W. Deem and Ramdas Pophale) SiO2 
 PCOD9259809
Probable space group: C 2/C
;
_chemical_formula_sum "Si O2"
_cell_formula_units_Z 36
_cell_length_a 6.978287
_cell_length_b 16.303809
_cell_length_c 12.437302
_cell_angle_alpha 90.000000
_cell_angle_beta 84.445603
_cell_angle_gamma 90.000000
_cell_volume 1408.381021
_symmetry_space_group_name_H-M "C 2/C"
_symmetry_group_IT_number 15
_symmetry_cell_setting 'monoclinic'
loop_
_space_group_symop_operation_xyz
x,y,z
-x,y,1/2-z
-x,-y,-z
x,-y,1/2+z
1/2+x,1/2+y,z
1/2-x,1/2+y,1/2-z
1/2-x,1/2-y,-z
1/2+x,1/2-y,1/2+z
loop_
_atom_site_type_symbol
_atom_site_label
_atom_site_fract_x
_atom_site_fract_y
_atom_site_fract_z
Si Si1 0.500000 0.162417 0.750000
Si Si2 0.964846 0.392769 0.914475
Si Si3 0.536029 0.415048 0.868787
Si Si4 0.274245 0.038784 0.641341
Si Si5 0.524867 0.256134 0.974220
O O1 0.489809 0.216930 0.858304
O O2 0.318366 0.100467 0.736884
O O3 0.764798 0.405945 0.865749
O O4 0.117951 0.452527 0.855605
O O5 0.893138 0.420835 0.036952
O O6 0.056495 0.302904 0.928330
O O7 0.500000 0.386148 0.750000
O O8 0.438457 0.505591 0.877798
O O9 0.466610 0.350672 0.963726
O O10 0.750000 0.250000 0.000000
#
# Coordination Sequence:
#
# PCOD9259809 Si02
#       5
#     4   8   8   8   8
#     4  10  18  36  56  84 120 158 192 248 304 346
#     4   9  20  37  54  81 113 150 195 239 293 349
#     4  11  20  33  56  84 110 151 194 237 291 354
#     4  10  20  34  58  81 113 152 192 242 293 348
#     4   9  19  35  57  83 118 159 196 240 302 356
#
# _framework density 25.561264000000001
#
# number of rings (size 3 to 8) (size 9 to 14) (size 15 to 20)
#    0.000    2.222    1.111    2.000    0.000    0.889 
#    0.000    0.000    0.000   10.667    0.000    0.000 
#    0.000    0.000    0.000    0.000    0.000    0.000 
#
# Total GULP energy -100285.422664 kJ/mol
# GULP energy per Si atom -5571.412370 kJ/mol
# Density = 2.550309 g / cm^3
# Si number density = 25.561264 Si / 1000 Ang^3
#
#
#
# Elastic Constant Matrix: (Units=GPa)
#
#
# Indices 1 2 3 4 5 6 
#
# 1 62.4094 14.3450 37.3029 0.0000 17.1141 0.0000
# 2 14.3450 128.4081 38.8257 0.0000 2.6724 0.0000
# 3 37.3029 38.8257 89.3327 0.0000 22.1814 0.0000
# 4 0.0000 0.0000 0.0000 57.4836 0.0000 25.9734
# 5 17.1141 2.6724 22.1814 0.0000 26.4268 0.0000
# 6 0.0000 0.0000 0.0000 25.9734 0.0000 2.1666
#
#
#
# Elastic Compliance Matrix: (Units=1/GPa)
#
#
# Indices 1 2 3 4 5 6 
#
# 1 0.022789 -0.000156 -0.007312 0.000000 -0.008606 0.000000
# 2 -0.000156 0.009158 -0.004687 0.000000 0.003109 0.000000
# 3 -0.007312 -0.004687 0.018938 0.000000 -0.010686 0.000000
# 4 0.000000 0.000000 0.000000 -0.003939 0.000000 0.047218
# 5 -0.008606 0.003109 -0.010686 0.000000 0.052069 0.000000
# 6 0.000000 0.000000 0.000000 0.047218 0.000000 -0.104501
#
#
# Mechanical properties :
#
#
# Convention : Reuss Voigt Hill
#
# Bulk Modulus (GPa) = 37.62858 51.23305 44.43081
# Shear Modulus (GPa) = 180.63071 29.86050 105.24561
#
# Velocity S-wave (km/s) = 8.41541 3.42159 6.42365
# Velocity P-wave (km/s) = 10.44885 5.97465 8.51102
#
# Compressibility (1/GPa) = 0.02657554
#
# Stress axis : x y z
#
# Youngs Moduli (GPa) = 43.88052 109.19987 52.80480
#
# Poissons Ratio (x) = 0.01704 0.38608
# Poissons Ratio (y) = 0.00685 0.24749
# Poissons Ratio (z) = 0.32083 0.51180
#
# Static dielectric constant tensor:
#      x y z
#    x 2.138460 0.000000 0.043260 
#    y 0.000000 2.161420 0.000000 
#    z 0.043260 0.000000 2.024550 
# 
# From -- ./inp_files/133778.got.cif
#   From: 2010.05.17/outbox.cif.g08.bks.cpg/sg15_67_cif.got.tgz:133778.got - 2010.06.03 18:47:42.
