data_PCOD9259944
_publ_section_title
;
Structure prediction by ZEFSAII (Michael W. Deem and Ramdas Pophale) SiO2 
 PCOD9259944
Probable space group: C 2/C
;
_chemical_formula_sum "Si O2"
_cell_formula_units_Z 60
_cell_length_a 12.457368
_cell_length_b 26.404633
_cell_length_c 11.259031
_cell_angle_alpha 90.000000
_cell_angle_beta 118.765808
_cell_angle_gamma 90.000000
_cell_volume 3246.429279
_symmetry_space_group_name_H-M "C 2/C"
_symmetry_group_IT_number 15
_symmetry_cell_setting 'monoclinic'
loop_
_space_group_symop_operation_xyz
x,y,z
-x,y,1/2-z
-x,-y,-z
x,-y,1/2+z
1/2+x,1/2+y,z
1/2-x,1/2+y,1/2-z
1/2-x,1/2-y,-z
1/2+x,1/2-y,1/2+z
loop_
_atom_site_type_symbol
_atom_site_label
_atom_site_fract_x
_atom_site_fract_y
_atom_site_fract_z
Si Si1 0.575850 0.812001 0.177124
Si Si2 0.469365 0.887817 0.942756
Si Si3 0.722349 0.602230 0.674798
Si Si4 0.882791 0.752731 0.015722
Si Si5 0.729856 0.070672 0.536344
Si Si6 0.960367 0.132009 0.591114
Si Si7 0.000000 0.330792 0.750000
Si Si8 0.385948 0.036030 0.594230
O O1 0.500000 0.795554 0.250000
O O2 0.694005 0.847439 0.264339
O O3 0.479598 0.846838 0.052506
O O4 0.616627 0.765718 0.118664
O O5 0.413734 0.866274 0.790227
O O6 0.609306 0.894700 0.973947
O O7 0.426827 0.938308 0.990084
O O8 0.733055 0.570582 0.804077
O O9 0.579640 0.614449 0.581990
O O10 0.786862 0.571847 0.604408
O O11 0.931256 0.809544 0.050528
O O12 0.951576 0.709452 0.127260
O O13 0.750000 0.750000 0.000000
O O14 0.840949 0.095978 0.522796
O O15 0.679757 0.017187 0.464402
O O16 0.000000 0.130280 0.750000
O O17 0.500000 0.032352 0.750000
#
# Coordination Sequence:
#
# PCOD9259944 Si02
#       8
#     8   8   8   8   8   8   4   8
#     4  10  18  36  59  87 117 154 193 244 293 360
#     4  10  19  36  54  87 123 142 190 244 301 343
#     4  10  20  38  59  79 119 155 190 244 298 353
#     4  11  21  37  61  86 118 158 199 244 299 348
#     4  10  22  34  56  84 112 157 201 245 285 351
#     4  10  20  39  56  81 117 156 201 244 292 353
#     4  10  22  32  58  92 116 148 190 248 294 352
#     4  12  21  36  61  86 121 158 192 241 308 357
#
# _framework density 18.481843999999999
#
# number of rings (size 3 to 8) (size 9 to 14) (size 15 to 20)
#    0.000    1.600    4.667    3.600    0.933    0.533 
#    0.000    2.000    0.000    0.000    0.000    0.000 
#    0.000    0.000    0.000    0.000    0.000    0.000 
#
# Total GULP energy -167065.984776 kJ/mol
# GULP energy per Si atom -5568.866159 kJ/mol
# Density = 1.843978 g / cm^3
# Si number density = 18.481844 Si / 1000 Ang^3
#
#
#
# Elastic Constant Matrix: (Units=GPa)
#
#
# Indices 1 2 3 4 5 6 
#
# 1 146.2117 63.1561 50.9323 0.0000 -6.4494 0.0000
# 2 63.1561 104.6119 36.8252 0.0000 1.6596 0.0000
# 3 50.9323 36.8252 44.8557 0.0000 -12.2462 0.0000
# 4 0.0000 0.0000 0.0000 26.9229 0.0000 -2.1956
# 5 -6.4494 1.6596 -12.2462 0.0000 20.4586 0.0000
# 6 0.0000 0.0000 0.0000 -2.1956 0.0000 26.2010
#
#
#
# Elastic Compliance Matrix: (Units=1/GPa)
#
#
# Indices 1 2 3 4 5 6 
#
# 1 0.012322 -0.003015 -0.012417 0.000000 -0.003304 0.000000
# 2 -0.003015 0.015806 -0.012148 0.000000 -0.009504 0.000000
# 3 -0.012417 -0.012148 0.054468 0.000000 0.029674 0.000000
# 4 0.000000 0.000000 0.000000 0.037399 0.000000 0.003134
# 5 -0.003304 -0.009504 0.029674 0.000000 0.066371 0.000000
# 6 0.000000 0.000000 0.000000 0.003134 0.000000 0.038429
#
#
# Mechanical properties :
#
#
# Convention : Reuss Voigt Hill
#
# Bulk Modulus (GPa) = 36.44973 66.38961 51.41967
# Shear Modulus (GPa) = 17.29502 24.36757 20.83129
#
# Velocity S-wave (km/s) = 3.06238 3.63500 3.36091
# Velocity P-wave (km/s) = 5.68058 7.32237 6.55309
#
# Compressibility (1/GPa) = 0.02743505
#
# Stress axis : x y z
#
# Youngs Moduli (GPa) = 81.15788 63.26516 18.35948
#
# Poissons Ratio (x) = 0.19076 0.22798
# Poissons Ratio (y) = 0.24471 0.22303
# Poissons Ratio (z) = 1.00778 0.76853
#
# Static dielectric constant tensor:
#      x y z
#    x 1.627100 0.000000 0.012760 
#    y 0.000000 1.713170 0.000000 
#    z 0.012760 0.000000 1.716430 
# 
# From -- ./inp_files/92077.got.cif
#   From: 2010.05.17/outbox.cif.g08.bks.cpg/sg15_47_cif.got.tgz:92077.got - 2010.06.03 18:47:42.
