data_PCOD9259629
_publ_section_title
;
Structure prediction by ZEFSAII (Michael W. Deem and Ramdas Pophale) SiO2 
 PCOD9259629
Probable space group: C 2/C
;
_chemical_formula_sum "Si O2"
_cell_formula_units_Z 48
_cell_length_a 7.791337
_cell_length_b 14.384046
_cell_length_c 18.388009
_cell_angle_alpha 90.000000
_cell_angle_beta 76.880579
_cell_angle_gamma 90.000000
_cell_volume 2006.973871
_symmetry_space_group_name_H-M "C 2/C"
_symmetry_group_IT_number 15
_symmetry_cell_setting 'monoclinic'
loop_
_space_group_symop_operation_xyz
x,y,z
-x,y,1/2-z
-x,-y,-z
x,-y,1/2+z
1/2+x,1/2+y,z
1/2-x,1/2+y,1/2-z
1/2-x,1/2-y,-z
1/2+x,1/2-y,1/2+z
loop_
_atom_site_type_symbol
_atom_site_label
_atom_site_fract_x
_atom_site_fract_y
_atom_site_fract_z
Si Si1 0.279731 0.462103 0.980314
Si Si2 0.079922 0.150149 0.524059
Si Si3 0.842167 0.759812 0.150406
Si Si4 0.527014 0.184602 0.568957
Si Si5 0.824424 0.602619 0.721946
Si Si6 0.836511 0.082760 0.310287
O O1 0.265755 0.573687 0.992147
O O2 0.361235 0.443312 0.892610
O O3 0.414713 0.418836 0.025581
O O4 0.111086 0.396382 0.010468
O O5 0.026513 0.203125 0.602651
O O6 0.066362 0.231816 0.465787
O O7 0.691051 0.772713 0.101090
O O8 0.780422 0.820763 0.223513
O O9 0.827081 0.653210 0.173886
O O10 0.394409 0.139219 0.638552
O O11 0.709208 0.511626 0.725318
O O12 0.000000 0.579683 0.750000
O O13 0.000000 0.126746 0.250000
#
# Coordination Sequence:
#
# PCOD9259629 Si02
#       6
#     8   8   8   8   8   8
#     4  10  20  33  61  93 120 156 206 266 304 383
#     4  10  18  35  61  94 120 155 213 258 310 377
#     4  10  19  39  61  85 118 162 209 254 304 374
#     4  10  18  39  60  85 121 164 207 248 319 380
#     4  10  24  41  59  86 123 165 203 253 311 383
#     4  12  22  38  64  90 118 162 211 259 314 368
#
# _framework density 23.916605000000001
#
# number of rings (size 3 to 8) (size 9 to 14) (size 15 to 20)
#    0.000    1.667    3.333    3.500    0.000    2.000 
#    0.000    3.333    0.000    0.000    0.000    0.000 
#    0.000    0.000    0.000    0.000    0.000    0.000 
#
# Total GULP energy -134212.156701 kJ/mol
# GULP energy per Si atom -5592.173196 kJ/mol
# Density = 2.386217 g / cm^3
# Si number density = 23.916605 Si / 1000 Ang^3
#
#
#
# Elastic Constant Matrix: (Units=GPa)
#
#
# Indices 1 2 3 4 5 6 
#
# 1 70.4947 26.1558 15.9746 0.0000 -7.3663 0.0000
# 2 26.1558 166.5030 44.1043 0.0000 -8.8394 0.0000
# 3 15.9746 44.1043 123.0728 0.0000 -15.4465 0.0000
# 4 0.0000 0.0000 0.0000 32.5979 0.0000 2.4199
# 5 -7.3663 -8.8394 -15.4465 0.0000 17.7467 0.0000
# 6 0.0000 0.0000 0.0000 2.4199 0.0000 22.5093
#
#
#
# Elastic Compliance Matrix: (Units=1/GPa)
#
#
# Indices 1 2 3 4 5 6 
#
# 1 0.015596 -0.002008 -0.000694 0.000000 0.004870 0.000000
# 2 -0.002008 0.006925 -0.002125 0.000000 0.000766 0.000000
# 3 -0.000694 -0.002125 0.009888 0.000000 0.007260 0.000000
# 4 0.000000 0.000000 0.000000 0.030924 0.000000 -0.003324
# 5 0.004870 0.000766 0.007260 0.000000 0.065071 0.000000
# 6 0.000000 0.000000 0.000000 -0.003324 0.000000 0.044784
#
#
# Mechanical properties :
#
#
# Convention : Reuss Voigt Hill
#
# Bulk Modulus (GPa) = 43.94290 59.17108 51.55699
# Shear Modulus (GPa) = 26.25705 32.82649 29.54177
#
# Velocity S-wave (km/s) = 3.31699 3.70880 3.51835
# Velocity P-wave (km/s) = 5.75180 6.56769 6.17324
#
# Compressibility (1/GPa) = 0.02275681
#
# Stress axis : x y z
#
# Youngs Moduli (GPa) = 64.11701 144.40837 101.13336
#
# Poissons Ratio (x) = 0.28994 0.07015
# Poissons Ratio (y) = 0.12873 0.21489
# Poissons Ratio (z) = 0.04448 0.30684
#
# Static dielectric constant tensor:
#      x y z
#    x 1.980440 0.000000 0.046300 
#    y 0.000000 1.904180 0.000000 
#    z 0.046300 0.000000 1.893490 
# 
# From -- ./inp_files/196507.got.cif
#   From: 2010.05.17/outbox.cif.g08.bks.cpg/sg15_99_cif.got.tgz:196507.got - 2010.06.03 18:47:42.
