data_PCOD9259327
_publ_section_title
;
Structure prediction by ZEFSAII (Michael W. Deem and Ramdas Pophale) SiO2 
 PCOD9259327
Probable space group: C 2/C
;
_chemical_formula_sum "Si O2"
_cell_formula_units_Z 48
_cell_length_a 11.156894
_cell_length_b 9.870353
_cell_length_c 19.165082
_cell_angle_alpha 90.000000
_cell_angle_beta 111.579457
_cell_angle_gamma 90.000000
_cell_volume 1962.577661
_symmetry_space_group_name_H-M "C 2/C"
_symmetry_group_IT_number 15
_symmetry_cell_setting 'monoclinic'
loop_
_space_group_symop_operation_xyz
x,y,z
-x,y,1/2-z
-x,-y,-z
x,-y,1/2+z
1/2+x,1/2+y,z
1/2-x,1/2+y,1/2-z
1/2-x,1/2-y,-z
1/2+x,1/2-y,1/2+z
loop_
_atom_site_type_symbol
_atom_site_label
_atom_site_fract_x
_atom_site_fract_y
_atom_site_fract_z
Si Si1 0.387550 0.387938 0.266576
Si Si2 0.616133 0.825016 0.169124
Si Si3 0.187480 0.079819 0.511658
Si Si4 0.543867 0.973292 0.928765
Si Si5 0.568400 0.414837 0.845899
Si Si6 0.567381 0.714645 0.004823
O O1 0.500000 0.304463 0.250000
O O2 0.249773 0.320288 0.239870
O O3 0.371110 0.514412 0.208500
O O4 0.459879 0.468618 0.344128
O O5 0.510217 0.723162 0.177062
O O6 0.624414 0.774948 0.089744
O O7 0.563978 0.978065 0.148239
O O8 0.176146 0.101663 0.426488
O O9 0.085976 0.186214 0.520531
O O10 0.334881 0.068178 0.563696
O O11 0.131964 0.929875 0.510759
O O12 0.585030 0.817134 0.944186
O O13 0.500000 0.000000 0.000000
#
# Coordination Sequence:
#
# PCOD9259327 Si02
#       6
#     8   8   8   8   8   8
#     4   8  19  36  52  72  98 150 184 218 279 309
#     4  10  18  35  54  77 108 134 185 221 269 327
#     4  10  18  35  51  79 114 142 175 219 285 319
#     4  10  20  29  51  81 104 136 172 219 267 328
#     4   8  18  33  56  72 101 143 179 224 260 336
#     4   9  20  32  53  79 112 143 173 219 273 338
#
# _framework density 24.457630999999999
#
# number of rings (size 3 to 8) (size 9 to 14) (size 15 to 20)
#    1.000    1.667    0.000    2.500    0.000    7.333 
#    3.000    0.000   11.000    0.000    0.000    0.000 
#    0.000    0.000    0.000    0.000    0.000    0.000 
#
# Total GULP energy -133706.006721 kJ/mol
# GULP energy per Si atom -5571.083613 kJ/mol
# Density = 2.440196 g / cm^3
# Si number density = 24.457631 Si / 1000 Ang^3
#
#
#
# Elastic Constant Matrix: (Units=GPa)
#
#
# Indices 1 2 3 4 5 6 
#
# 1 52.0787 6.0842 17.3482 0.0000 28.5194 0.0000
# 2 6.0842 77.3670 3.6752 0.0000 5.6201 0.0000
# 3 17.3482 3.6752 57.6399 0.0000 26.6988 0.0000
# 4 0.0000 0.0000 0.0000 29.4948 0.0000 6.3556
# 5 28.5194 5.6201 26.6988 0.0000 44.0986 0.0000
# 6 0.0000 0.0000 0.0000 6.3556 0.0000 24.5274
#
#
#
# Elastic Compliance Matrix: (Units=1/GPa)
#
#
# Indices 1 2 3 4 5 6 
#
# 1 0.029801 -0.000952 -0.000052 0.000000 -0.019120 0.000000
# 2 -0.000952 0.013077 -0.000084 0.000000 -0.001000 0.000000
# 3 -0.000052 -0.000084 0.024111 0.000000 -0.014553 0.000000
# 4 0.000000 0.000000 0.000000 0.035909 0.000000 -0.009305
# 5 -0.019120 -0.001000 -0.014553 0.000000 0.043980 0.000000
# 6 0.000000 0.000000 0.000000 -0.009305 0.000000 0.043182
#
#
# Mechanical properties :
#
#
# Convention : Reuss Voigt Hill
#
# Bulk Modulus (GPa) = 15.42931 26.81119 21.12025
# Shear Modulus (GPa) = 23.38185 30.28937 26.83561
#
# Velocity S-wave (km/s) = 3.09530 3.52297 3.31604
# Velocity P-wave (km/s) = 4.36999 5.24733 4.82863
#
# Compressibility (1/GPa) = 0.06481169
#
# Stress axis : x y z
#
# Youngs Moduli (GPa) = 33.55625 76.47061 41.47436
#
# Poissons Ratio (x) = 0.07281 0.00217
# Poissons Ratio (y) = 0.03195 0.00349
# Poissons Ratio (z) = 0.00176 0.00643
#
# Static dielectric constant tensor:
#      x y z
#    x 1.987600 0.000000 -0.003530 
#    y 0.000000 2.027690 0.000000 
#    z -0.003530 0.000000 1.980480 
# 
# From -- ./inp_files/292114.got.cif
#   From: 2010.05.17/outbox.cif.g08.bks.cpg/sg15_147_cif.got.tgz:292114.got - 2010.06.03 18:47:42.
