data_PCOD9259338
_publ_section_title
;
Structure prediction by ZEFSAII (Michael W. Deem and Ramdas Pophale) SiO2 
 PCOD9259338
Probable space group: C 2/C
;
_chemical_formula_sum "Si O2"
_cell_formula_units_Z 64
_cell_length_a 20.885839
_cell_length_b 22.018572
_cell_length_c 9.145052
_cell_angle_alpha 90.000000
_cell_angle_beta 57.042628
_cell_angle_gamma 90.000000
_cell_volume 3528.810357
_symmetry_space_group_name_H-M "C 2/C"
_symmetry_group_IT_number 15
_symmetry_cell_setting 'monoclinic'
loop_
_space_group_symop_operation_xyz
x,y,z
-x,y,1/2-z
-x,-y,-z
x,-y,1/2+z
1/2+x,1/2+y,z
1/2-x,1/2+y,1/2-z
1/2-x,1/2-y,-z
1/2+x,1/2-y,1/2+z
loop_
_atom_site_type_symbol
_atom_site_label
_atom_site_fract_x
_atom_site_fract_y
_atom_site_fract_z
Si Si1 0.555182 0.923073 0.904421
Si Si2 0.931466 0.226840 0.241681
Si Si3 0.073211 0.275692 0.568244
Si Si4 0.214229 0.630943 0.828620
Si Si5 0.635113 0.809477 0.935626
Si Si6 0.769571 0.821220 0.951824
Si Si7 0.178233 0.788155 0.147978
Si Si8 0.401374 0.037630 0.476223
O O1 0.587535 0.857525 0.902585
O O2 0.584250 0.948482 0.712081
O O3 0.464155 0.926291 0.996702
O O4 0.582544 0.968676 0.997780
O O5 0.906364 0.286538 0.366396
O O6 0.859853 0.181437 0.317382
O O7 0.000000 0.199409 0.250000
O O8 0.952735 0.250421 0.055520
O O9 0.141651 0.324636 0.458601
O O10 0.112261 0.220627 0.611179
O O11 0.000000 0.298955 0.750000
O O12 0.242173 0.644816 0.630526
O O13 0.284032 0.648976 0.848582
O O14 0.181137 0.563866 0.884452
O O15 0.716439 0.838202 0.881096
O O16 0.650207 0.748675 0.824900
O O17 0.750000 0.750000 0.000000
O O18 0.250000 0.750000 0.000000
#
# Coordination Sequence:
#
# PCOD9259338 Si02
#       8
#     8   8   8   8   8   8   8   8
#     4  10  23  40  54  77 109 145 196 230 270 312
#     4  11  22  34  51  79 112 145 181 219 270 337
#     4  11  22  31  49  77 109 145 185 220 272 331
#     4  11  20  35  55  75 108 144 188 230 275 323
#     4  11  20  36  55  74 106 147 183 226 272 325
#     4  10  18  35  53  78 105 141 186 221 270 337
#     4  10  19  32  51  76 104 139 177 229 276 325
#     4  10  24  38  54  76 107 150 189 234 267 316
#
# _framework density 18.136424000000002
#
# number of rings (size 3 to 8) (size 9 to 14) (size 15 to 20)
#    0.000    1.500    5.000    3.000    7.000    0.000 
#    2.250    0.000    0.000    0.000    0.000    0.000 
#    0.000    2.000    0.000    0.000    0.000    0.000 
#
# Total GULP energy -178581.005078 kJ/mol
# GULP energy per Si atom -5580.656409 kJ/mol
# Density = 1.809514 g / cm^3
# Si number density = 18.136424 Si / 1000 Ang^3
#
#
#
# Elastic Constant Matrix: (Units=GPa)
#
#
# Indices 1 2 3 4 5 6 
#
# 1 99.7002 21.2458 26.4432 0.0000 4.8818 0.0000
# 2 21.2458 37.3868 9.3280 0.0000 -0.8953 0.0000
# 3 26.4432 9.3280 86.5193 0.0000 7.8491 0.0000
# 4 0.0000 0.0000 0.0000 17.2420 0.0000 -0.4418
# 5 4.8818 -0.8953 7.8491 0.0000 31.0262 0.0000
# 6 0.0000 0.0000 0.0000 -0.4418 0.0000 34.1975
#
#
#
# Elastic Compliance Matrix: (Units=1/GPa)
#
#
# Indices 1 2 3 4 5 6 
#
# 1 0.012204 -0.006235 -0.002934 0.000000 -0.001358 0.000000
# 2 -0.006235 0.030748 -0.001616 0.000000 0.002277 0.000000
# 3 -0.002934 -0.001616 0.012887 0.000000 -0.002845 0.000000
# 4 0.000000 0.000000 0.000000 0.058017 0.000000 0.000750
# 5 -0.001358 0.002277 -0.002845 0.000000 0.033230 0.000000
# 6 0.000000 0.000000 0.000000 0.000750 0.000000 0.029252
#
#
# Mechanical properties :
#
#
# Convention : Reuss Voigt Hill
#
# Bulk Modulus (GPa) = 29.18174 37.51558 33.34866
# Shear Modulus (GPa) = 23.88549 27.59909 25.74229
#
# Velocity S-wave (km/s) = 3.63297 3.90519 3.77154
# Velocity P-wave (km/s) = 5.80715 6.40813 6.11503
#
# Compressibility (1/GPa) = 0.03426800
#
# Stress axis : x y z
#
# Youngs Moduli (GPa) = 81.94337 32.52192 77.59575
#
# Poissons Ratio (x) = 0.20278 0.22770
# Poissons Ratio (y) = 0.51094 0.12539
# Poissons Ratio (z) = 0.24045 0.05256
#
# Static dielectric constant tensor:
#      x y z
#    x 1.723000 0.000000 -0.045700 
#    y 0.000000 1.617170 0.000000 
#    z -0.045700 0.000000 1.888740 
# 
# From -- ./inp_files/57871.got.cif
#   From: 2010.05.17/outbox.cif.g08.bks.cpg/sg15_29_cif.got.tgz:57871.got - 2010.06.03 18:47:42.
