data_PCOD9259503
_publ_section_title
;
Structure prediction by ZEFSAII (Michael W. Deem and Ramdas Pophale) SiO2 
 PCOD9259503
Probable space group: C 2/C
;
_chemical_formula_sum "Si O2"
_cell_formula_units_Z 40
_cell_length_a 21.314749
_cell_length_b 11.263235
_cell_length_c 16.838152
_cell_angle_alpha 90.000000
_cell_angle_beta 158.718038
_cell_angle_gamma 90.000000
_cell_volume 1467.215957
_symmetry_space_group_name_H-M "C 2/C"
_symmetry_group_IT_number 15
_symmetry_cell_setting 'monoclinic'
loop_
_space_group_symop_operation_xyz
x,y,z
-x,y,1/2-z
-x,-y,-z
x,-y,1/2+z
1/2+x,1/2+y,z
1/2-x,1/2+y,1/2-z
1/2-x,1/2-y,-z
1/2+x,1/2-y,1/2+z
loop_
_atom_site_type_symbol
_atom_site_label
_atom_site_fract_x
_atom_site_fract_y
_atom_site_fract_z
Si Si1 0.325321 0.116209 0.270743
Si Si2 0.031115 0.925602 0.118996
Si Si3 0.995523 0.353351 0.136864
Si Si4 0.915919 0.613357 0.070412
Si Si5 0.850723 0.097879 0.001194
O O1 0.437692 0.153128 0.476891
O O2 0.732892 0.025147 0.796637
O O3 0.437361 0.124920 0.323969
O O4 0.129986 0.163461 0.054847
O O5 0.212029 0.858302 0.323785
O O6 0.014393 0.009185 0.178717
O O7 0.000000 0.000000 0.000000
O O8 0.931965 0.226398 0.089680
O O9 0.899285 0.468135 0.057049
O O10 0.198371 0.379232 0.384270
O O11 0.000000 0.662926 0.250000
#
# Coordination Sequence:
#
# PCOD9259503 Si02
#       5
#     8   8   8   8   8
#     4   9  21  37  55  79 114 141 188 233 263 331
#     4  10  18  35  59  78 111 146 182 225 278 320
#     4  11  18  36  53  83 114 143 184 234 266 327
#     4  11  21  35  55  82 113 148 184 224 276 325
#     4   9  20  30  54  81 113 139 188 223 271 326
#
# _framework density 27.262516999999999
#
# number of rings (size 3 to 8) (size 9 to 14) (size 15 to 20)
#    1.200    0.800    2.000    4.800    0.000    0.800 
#    0.000    9.000    0.000    0.000    0.000   12.600 
#    0.000    0.000    0.000    0.000    0.000    0.000 
#
# Total GULP energy -111365.258974 kJ/mol
# GULP energy per Si atom -5568.262949 kJ/mol
# Density = 2.720047 g / cm^3
# Si number density = 27.262517 Si / 1000 Ang^3
#
#
#
# Elastic Constant Matrix: (Units=GPa)
#
#
# Indices 1 2 3 4 5 6 
#
# 1 181.8937 5.9749 110.3500 0.0002 28.3670 0.0001
# 2 5.9749 93.2368 23.8234 0.0003 35.0468 0.0002
# 3 110.3500 23.8234 221.2051 0.0004 50.2743 0.0002
# 4 0.0002 0.0003 0.0004 89.4323 0.0002 55.7389
# 5 28.3670 35.0468 50.2743 0.0002 63.4952 0.0001
# 6 0.0001 0.0002 0.0002 55.7389 0.0001 19.1221
#
#
#
# Elastic Compliance Matrix: (Units=1/GPa)
#
#
# Indices 1 2 3 4 5 6 
#
# 1 0.007948 0.000838 -0.003833 0.000000 -0.000979 0.000000
# 2 0.000838 0.013637 -0.000111 0.000000 -0.007814 0.000000
# 3 -0.003833 -0.000111 0.007367 0.000000 -0.004060 0.000000
# 4 0.000000 0.000000 0.000000 -0.013691 0.000000 0.039908
# 5 -0.000979 -0.007814 -0.004060 0.000000 0.023714 0.000000
# 6 0.000000 0.000000 0.000000 0.039908 0.000000 -0.064032
#
#
# Mechanical properties :
#
#
# Convention : Reuss Voigt Hill
#
# Bulk Modulus (GPa) = 43.97342 86.29246 65.13294
# Shear Modulus (GPa) = -443.85925 58.15575 -192.85175
#
# Velocity S-wave (km/s) = -12.77352 4.62364 -8.41976
# Velocity P-wave (km/s) = 14.19104 7.76049 8.40121
#
# Compressibility (1/GPa) = 0.02274101
#
# Stress axis : x y z
#
# Youngs Moduli (GPa) = 125.81705 73.32941 135.73437
#
# Poissons Ratio (x) = -0.06144 0.52024
# Poissons Ratio (y) = -0.10541 0.01504
# Poissons Ratio (z) = 0.48223 0.00812
#
# Static dielectric constant tensor:
#      x y z
#    x 2.215210 0.000000 -0.043420 
#    y 0.000000 2.269660 0.000000 
#    z -0.043420 0.000000 2.448280 
# 
# From -- ./inp_files/216080.got.cif
#   From: 2010.05.17/outbox.cif.g08.bks.cpg/sg15_109_cif.got.tgz:216080.got - 2010.06.03 18:47:42.
