data_PCOD9259826
_publ_section_title
;
Structure prediction by ZEFSAII (Michael W. Deem and Ramdas Pophale) SiO2 
 PCOD9259826
Probable space group: C 2/C
;
_chemical_formula_sum "Si O2"
_cell_formula_units_Z 60
_cell_length_a 26.361888
_cell_length_b 21.638188
_cell_length_c 13.036303
_cell_angle_alpha 90.000000
_cell_angle_beta 153.371894
_cell_angle_gamma 90.000000
_cell_volume 3332.893419
_symmetry_space_group_name_H-M "C 2/C"
_symmetry_group_IT_number 15
_symmetry_cell_setting 'monoclinic'
loop_
_space_group_symop_operation_xyz
x,y,z
-x,y,1/2-z
-x,-y,-z
x,-y,1/2+z
1/2+x,1/2+y,z
1/2-x,1/2+y,1/2-z
1/2-x,1/2-y,-z
1/2+x,1/2-y,1/2+z
loop_
_atom_site_type_symbol
_atom_site_label
_atom_site_fract_x
_atom_site_fract_y
_atom_site_fract_z
Si Si1 0.000000 0.786858 0.250000
Si Si2 0.543035 0.652406 0.048679
Si Si3 0.751150 0.937760 0.609871
Si Si4 0.260811 0.084085 0.169095
Si Si5 0.024454 0.748741 0.911227
Si Si6 0.991211 0.397386 0.357057
Si Si7 0.769640 0.230214 0.419049
Si Si8 0.388574 0.541115 0.776314
O O1 0.033469 0.826138 0.412305
O O2 0.110792 0.749956 0.412861
O O3 0.654681 0.610360 0.261808
O O4 0.537021 0.709470 0.115336
O O5 0.434349 0.609724 0.878350
O O6 0.747501 0.925649 0.724678
O O7 0.631098 0.925103 0.339045
O O8 0.793219 0.007676 0.670454
O O9 0.394631 0.075621 0.385587
O O10 0.233451 0.155803 0.096457
O O11 0.169681 0.044032 0.941463
O O12 0.000000 0.764921 0.750000
O O13 0.993602 0.676822 0.875465
O O14 0.159486 0.754618 0.163491
O O15 0.000000 0.407022 0.250000
O O16 0.750000 0.250000 0.500000
O O17 0.500000 0.500000 0.000000
#
# Coordination Sequence:
#
# PCOD9259826 Si02
#       8
#     4   8   8   8   8   8   8   8
#     4  12  20  34  64  84 114 160 208 240 294 368
#     4  11  20  36  56  86 115 156 197 245 303 357
#     4  10  20  36  56  83 111 150 207 239 289 363
#     4  10  18  36  57  79 113 153 189 254 294 347
#     4  10  21  37  55  86 126 154 184 248 312 363
#     4   8  18  34  56  81 107 146 195 233 290 364
#     4  11  20  36  62  88 117 154 209 246 294 367
#     4  10  21  34  53  81 109 143 201 247 284 343
#
# _framework density 18.002375000000001
#
# number of rings (size 3 to 8) (size 9 to 14) (size 15 to 20)
#    0.000    1.867    4.000    0.800    0.000    2.667 
#    4.800    0.000    0.000    0.000   20.800    0.000 
#    0.000    0.000    0.000    0.000    0.000    0.000 
#
# Total GULP energy -167006.320607 kJ/mol
# GULP energy per Si atom -5566.877354 kJ/mol
# Density = 1.796140 g / cm^3
# Si number density = 18.002375 Si / 1000 Ang^3
#
#
#
# Elastic Constant Matrix: (Units=GPa)
#
#
# Indices 1 2 3 4 5 6 
#
# 1 84.3805 34.0254 45.1014 0.0000 9.6037 0.0000
# 2 34.0254 32.0924 21.9914 0.0000 0.3593 0.0000
# 3 45.1014 21.9914 141.7350 0.0000 10.4697 0.0000
# 4 0.0000 0.0000 0.0000 19.5882 0.0000 0.4244
# 5 9.6037 0.3593 10.4697 0.0000 34.5330 0.0000
# 6 0.0000 0.0000 0.0000 0.4244 0.0000 28.1859
#
#
#
# Elastic Compliance Matrix: (Units=1/GPa)
#
#
# Indices 1 2 3 4 5 6 
#
# 1 0.023307 -0.022192 -0.003592 0.000000 -0.005162 0.000000
# 2 -0.022192 0.056055 -0.002096 0.000000 0.006224 0.000000
# 3 -0.003592 -0.002096 0.008642 0.000000 -0.001599 0.000000
# 4 0.000000 0.000000 0.000000 0.051068 0.000000 -0.000769
# 5 -0.005162 0.006224 -0.001599 0.000000 0.030813 0.000000
# 6 0.000000 0.000000 0.000000 -0.000769 0.000000 0.035490
#
#
# Mechanical properties :
#
#
# Convention : Reuss Voigt Hill
#
# Bulk Modulus (GPa) = 31.01255 51.16048 41.08652
# Shear Modulus (GPa) = 18.39039 26.93408 22.66223
#
# Velocity S-wave (km/s) = 3.19964 3.87219 3.55187
# Velocity P-wave (km/s) = 5.56009 6.96220 6.30027
#
# Compressibility (1/GPa) = 0.03224501
#
# Stress axis : x y z
#
# Youngs Moduli (GPa) = 42.90559 17.83977 115.71811
#
# Poissons Ratio (x) = 0.39589 0.41566
# Poissons Ratio (y) = 0.95214 0.24249
# Poissons Ratio (z) = 0.15412 0.03738
#
# Static dielectric constant tensor:
#      x y z
#    x 1.592820 0.000000 0.060420 
#    y 0.000000 1.617410 0.000000 
#    z 0.060420 0.000000 1.634640 
# 
# From -- ./inp_files/119970.got.cif
#   From: 2010.05.17/outbox.cif.g08.bks.cpg/sg15_60_cif.got.tgz:119970.got - 2010.06.03 18:47:42.
