data_PCOD9259611
_publ_section_title
;
Structure prediction by ZEFSAII (Michael W. Deem and Ramdas Pophale) SiO2 
 PCOD9259611
Probable space group: C 2/C
;
_chemical_formula_sum "Si O2"
_cell_formula_units_Z 56
_cell_length_a 9.014178
_cell_length_b 22.490555
_cell_length_c 13.078288
_cell_angle_alpha 90.000000
_cell_angle_beta 99.455976
_cell_angle_gamma 90.000000
_cell_volume 2615.384840
_symmetry_space_group_name_H-M "C 2/C"
_symmetry_group_IT_number 15
_symmetry_cell_setting 'monoclinic'
loop_
_space_group_symop_operation_xyz
x,y,z
-x,y,1/2-z
-x,-y,-z
x,-y,1/2+z
1/2+x,1/2+y,z
1/2-x,1/2+y,1/2-z
1/2-x,1/2-y,-z
1/2+x,1/2-y,1/2+z
loop_
_atom_site_type_symbol
_atom_site_label
_atom_site_fract_x
_atom_site_fract_y
_atom_site_fract_z
Si Si1 0.087986 0.887602 0.365220
Si Si2 0.353682 0.833057 0.926418
Si Si3 0.274511 0.349782 0.816046
Si Si4 0.722013 0.001757 0.599659
Si Si5 0.557865 0.941162 0.897374
Si Si6 0.580968 0.746713 0.870951
Si Si7 0.422047 0.393943 0.552499
O O1 0.000000 0.884058 0.250000
O O2 0.216515 0.935117 0.359674
O O3 0.130789 0.820151 0.398530
O O4 0.993931 0.911020 0.451870
O O5 0.269852 0.837491 0.806227
O O6 0.470594 0.887931 0.948164
O O7 0.456951 0.774546 0.934095
O O8 0.213777 0.847060 0.983648
O O9 0.168227 0.404534 0.837914
O O10 0.217695 0.292498 0.873016
O O11 0.443932 0.366567 0.864039
O O12 0.654023 0.015885 0.480110
O O13 0.585164 0.979403 0.654051
O O14 0.847293 0.950710 0.600510
O O15 0.500000 0.747330 0.750000
#
# Coordination Sequence:
#
# PCOD9259611 Si02
#       7
#     8   8   8   8   8   8   8
#     4  11  23  39  57  81 118 159 187 225 288 347
#     4   9  19  36  59  88 112 142 186 242 290 324
#     4  10  18  35  61  90 108 143 187 243 285 328
#     4  10  21  38  55  82 117 147 185 240 274 331
#     4   9  18  35  58  80 113 142 182 234 277 333
#     4   8  18  37  59  83 115 147 190 230 277 348
#     4  11  22  36  58  88 116 142 193 245 277 328
#
# _framework density 21.411763000000001
#
# number of rings (size 3 to 8) (size 9 to 14) (size 15 to 20)
#    0.000    2.286    1.429    2.143    0.000    3.429 
#    2.571    0.000    3.143    0.000    0.000    0.000 
#    0.000    0.000    0.000    0.000    0.000    0.000 
#
# Total GULP energy -156180.433496 kJ/mol
# GULP energy per Si atom -5577.872625 kJ/mol
# Density = 2.136303 g / cm^3
# Si number density = 21.411763 Si / 1000 Ang^3
#
#
#
# Elastic Constant Matrix: (Units=GPa)
#
#
# Indices 1 2 3 4 5 6 
#
# 1 95.7775 63.3823 3.4266 0.0000 18.0859 0.0000
# 2 63.3823 149.9857 5.1750 0.0000 22.7502 0.0000
# 3 3.4266 5.1750 38.4236 0.0000 10.9548 0.0000
# 4 0.0000 0.0000 0.0000 19.7905 0.0000 -4.7075
# 5 18.0859 22.7502 10.9548 0.0000 22.9983 0.0000
# 6 0.0000 0.0000 0.0000 -4.7075 0.0000 -10.8801
#
#
#
# Elastic Compliance Matrix: (Units=1/GPa)
#
#
# Indices 1 2 3 4 5 6 
#
# 1 0.015381 -0.005423 0.001479 0.000000 -0.007435 0.000000
# 2 -0.005423 0.009816 0.000826 0.000000 -0.005839 0.000000
# 3 0.001479 0.000826 0.030487 0.000000 -0.016502 0.000000
# 4 0.000000 0.000000 0.000000 0.045814 0.000000 -0.019822
# 5 -0.007435 -0.005839 -0.016502 0.000000 0.062965 0.000000
# 6 0.000000 0.000000 0.000000 -0.019822 0.000000 -0.083334
#
#
# Mechanical properties :
#
#
# Convention : Reuss Voigt Hill
#
# Bulk Modulus (GPa) = 20.22313 47.57271 33.89792
# Shear Modulus (GPa) = 48.14714 20.52860 34.33787
#
# Velocity S-wave (km/s) = 4.74712 3.09973 4.00896
# Velocity P-wave (km/s) = 6.28587 5.92262 6.10695
#
# Compressibility (1/GPa) = 0.04944833
#
# Stress axis : x y z
#
# Youngs Moduli (GPa) = 65.01659 101.87256 32.80040
#
# Poissons Ratio (x) = 0.55245 -0.04850
# Poissons Ratio (y) = 0.35258 -0.02711
# Poissons Ratio (z) = -0.09613 -0.08419
#
# Static dielectric constant tensor:
#      x y z
#    x 1.795600 0.000000 -0.001340 
#    y 0.000000 1.802000 0.000000 
#    z -0.001340 0.000000 1.841600 
# 
# From -- ./inp_files/137442.got.cif
#   From: 2010.05.17/outbox.cif.g08.bks.cpg/sg15_69_cif.got.tgz:137442.got - 2010.06.03 18:47:42.
