data_PCOD9259700
_publ_section_title
;
Structure prediction by ZEFSAII (Michael W. Deem and Ramdas Pophale) SiO2 
 PCOD9259700
Probable space group: C 2/C
;
_chemical_formula_sum "Si O2"
_cell_formula_units_Z 56
_cell_length_a 17.755407
_cell_length_b 29.167153
_cell_length_c 17.998170
_cell_angle_alpha 90.000000
_cell_angle_beta 163.939455
_cell_angle_gamma 90.000000
_cell_volume 2578.626063
_symmetry_space_group_name_H-M "C 2/C"
_symmetry_group_IT_number 15
_symmetry_cell_setting 'monoclinic'
loop_
_space_group_symop_operation_xyz
x,y,z
-x,y,1/2-z
-x,-y,-z
x,-y,1/2+z
1/2+x,1/2+y,z
1/2-x,1/2+y,1/2-z
1/2-x,1/2-y,-z
1/2+x,1/2-y,1/2+z
loop_
_atom_site_type_symbol
_atom_site_label
_atom_site_fract_x
_atom_site_fract_y
_atom_site_fract_z
Si Si1 0.086968 0.353695 0.753192
Si Si2 0.237654 0.577400 0.917923
Si Si3 0.500000 0.494785 0.250000
Si Si4 0.605925 0.583159 0.746593
Si Si5 0.814468 0.397955 0.295427
Si Si6 0.000000 0.154562 0.250000
Si Si7 0.342686 0.779378 0.977259
Si Si8 0.297338 0.337728 0.799614
O O1 0.216989 0.324736 0.808442
O O2 0.000000 0.332465 0.750000
O O3 0.811181 0.376162 0.461510
O O4 0.305907 0.395118 0.972993
O O5 0.157421 0.578198 0.756840
O O6 0.000000 0.588675 0.750000
O O7 0.347584 0.528821 0.049738
O O8 0.440069 0.619475 0.125801
O O9 0.335160 0.459979 0.145660
O O10 0.666840 0.572324 0.718678
O O11 0.108687 0.381809 0.602206
O O12 0.610759 0.353943 0.094456
O O13 0.229890 0.187312 0.434185
O O14 0.291451 0.802443 0.848217
O O15 0.147373 0.734942 0.786542
#
# Coordination Sequence:
#
# PCOD9259700 Si02
#       8
#     8   8   4   8   8   4   8   8
#     4  10  18  35  64  92 113 158 196 242 300 343
#     4  11  25  39  62  81 120 172 200 246 306 349
#     4  11  24  38  54  92 122 156 204 258 310 328
#     4  10  21  36  61  85 122 150 204 257 289 346
#     4  10  21  41  62  84 113 168 202 237 298 351
#     4  11  24  42  60  84 120 158 212 242 280 378
#     4  12  25  40  63  93 120 154 191 251 306 343
#     4  10  21  39  63  89 121 152 198 244 288 373
#
# _framework density 21.716992000000001
#
# number of rings (size 3 to 8) (size 9 to 14) (size 15 to 20)
#    0.000    1.429    2.857    2.143    6.000    0.571 
#    0.000    0.714    0.000    0.857    0.000    0.000 
#    0.000    0.000    0.000    0.000    0.000    0.000 
#
# Total GULP energy -156325.808055 kJ/mol
# GULP energy per Si atom -5583.064573 kJ/mol
# Density = 2.166756 g / cm^3
# Si number density = 21.716992 Si / 1000 Ang^3
#
#
#
# Elastic Constant Matrix: (Units=GPa)
#
#
# Indices 1 2 3 4 5 6 
#
# 1 143.9092 14.8632 -5.4309 -0.0004 -10.5293 -0.0092
# 2 14.8632 40.4953 -11.7462 -0.0017 0.4933 -0.0009
# 3 -5.4309 -11.7462 64.5390 0.0023 3.0997 -0.0155
# 4 -0.0004 -0.0017 0.0023 6.3021 -0.0003 -0.3321
# 5 -10.5293 0.4933 3.0997 -0.0003 25.1715 -0.0014
# 6 -0.0092 -0.0009 -0.0155 -0.3321 -0.0014 27.7078
#
#
#
# Elastic Compliance Matrix: (Units=1/GPa)
#
#
# Indices 1 2 3 4 5 6 
#
# 1 0.007469 -0.002789 -0.000032 0.000000 0.003183 0.000003
# 2 -0.002789 0.027143 0.004815 0.000005 -0.002292 0.000003
# 3 -0.000032 0.004815 0.016471 -0.000004 -0.002136 0.000009
# 4 0.000000 0.000005 -0.000004 0.158779 0.000002 0.001903
# 5 0.003183 -0.002292 -0.002136 0.000002 0.041367 0.000002
# 6 0.000003 0.000003 0.000009 0.001903 0.000002 0.036114
#
#
# Mechanical properties :
#
#
# Convention : Reuss Voigt Hill
#
# Bulk Modulus (GPa) = 18.15867 27.14619 22.65243
# Shear Modulus (GPa) = 16.57222 28.58677 22.57950
#
# Velocity S-wave (km/s) = 2.76542 3.63207 3.22796
# Velocity P-wave (km/s) = 4.31003 5.48783 4.93420
#
# Compressibility (1/GPa) = 0.05507012
#
# Stress axis : x y z
#
# Youngs Moduli (GPa) = 133.89450 36.84235 60.71350
#
# Poissons Ratio (x) = 0.10276 0.00195
# Poissons Ratio (y) = 0.37347 -0.29236
# Poissons Ratio (z) = 0.00429 -0.17741
#
# Static dielectric constant tensor:
#      x y z
#    x 1.869890 -0.000010 0.007910 
#    y -0.000010 1.791530 -0.000010 
#    z 0.007910 -0.000010 1.839060 
# 
# From -- ./inp_files/212316.got.cif
#   From: 2010.05.17/outbox.cif.g08.bks.cpg/sg15_107_cif.got.tgz:212316.got - 2010.06.03 18:47:42.
