data_PCOD9259841
_publ_section_title
;
Structure prediction by ZEFSAII (Michael W. Deem and Ramdas Pophale) SiO2 
 PCOD9259841
Probable space group: C 2/C
;
_chemical_formula_sum "Si O2"
_cell_formula_units_Z 48
_cell_length_a 24.826811
_cell_length_b 15.035601
_cell_length_c 12.872754
_cell_angle_alpha 90.000000
_cell_angle_beta 157.789038
_cell_angle_gamma 90.000000
_cell_volume 1816.458954
_symmetry_space_group_name_H-M "C 2/C"
_symmetry_group_IT_number 15
_symmetry_cell_setting 'monoclinic'
loop_
_space_group_symop_operation_xyz
x,y,z
-x,y,1/2-z
-x,-y,-z
x,-y,1/2+z
1/2+x,1/2+y,z
1/2-x,1/2+y,1/2-z
1/2-x,1/2-y,-z
1/2+x,1/2-y,1/2+z
loop_
_atom_site_type_symbol
_atom_site_label
_atom_site_fract_x
_atom_site_fract_y
_atom_site_fract_z
Si Si1 0.115463 0.852338 0.079748
Si Si2 0.240330 0.395662 0.969082
Si Si3 0.537024 0.976748 0.187662
Si Si4 0.365735 0.267279 0.931948
Si Si5 0.030160 0.708019 0.604717
Si Si6 0.286074 0.531978 0.336798
O O1 0.135434 0.854604 0.241302
O O2 0.240838 0.792763 0.256139
O O3 0.975462 0.791281 0.827386
O O4 0.126365 0.949443 0.050878
O O5 0.128642 0.330206 0.712564
O O6 0.303469 0.457598 0.992330
O O7 0.155597 0.448279 0.907798
O O8 0.592132 0.876395 0.277466
O O9 0.387489 0.980241 0.981509
O O10 0.500000 0.000000 0.000000
O O11 0.500000 0.255709 0.250000
O O12 0.395437 0.230529 0.870142
O O13 0.330093 0.372392 0.870269
#
# Coordination Sequence:
#
# PCOD9259841 Si02
#       6
#     8   8   8   8   8   8
#     4  12  21  36  62  89 116 152 195 242 294 335
#     4  10  18  36  57  88 113 145 199 249 279 330
#     4   8  16  33  51  78 117 142 181 242 283 321
#     4  12  21  34  59  87 114 150 194 236 297 342
#     4  10  19  33  55  84 117 149 187 240 287 346
#     4  10  22  34  52  88 121 148 185 245 290 345
#
# _framework density 26.425041
#
# number of rings (size 3 to 8) (size 9 to 14) (size 15 to 20)
#    0.000    2.000    5.000    4.500    0.000    0.667 
#    0.000    0.000    0.000    6.000    4.333    0.000 
#    0.000    0.000    0.000    0.000    0.000    0.000 
#
# Total GULP energy -134270.529658 kJ/mol
# GULP energy per Si atom -5594.605402 kJ/mol
# Density = 2.636490 g / cm^3
# Si number density = 26.425041 Si / 1000 Ang^3
#
#
#
# Elastic Constant Matrix: (Units=GPa)
#
#
# Indices 1 2 3 4 5 6 
#
# 1 122.0322 35.0509 9.4065 0.0000 3.9439 0.0000
# 2 35.0509 158.1747 1.0694 0.0000 -2.6128 0.0000
# 3 9.4065 1.0694 73.4588 0.0000 -12.0262 0.0000
# 4 0.0000 0.0000 0.0000 24.5965 0.0000 19.6095
# 5 3.9439 -2.6128 -12.0262 0.0000 20.5870 0.0000
# 6 0.0000 0.0000 0.0000 19.6095 0.0000 59.7450
#
#
#
# Elastic Compliance Matrix: (Units=1/GPa)
#
#
# Indices 1 2 3 4 5 6 
#
# 1 0.008995 -0.002031 -0.001600 0.000000 -0.002915 0.000000
# 2 -0.002031 0.006794 0.000405 0.000000 0.001488 0.000000
# 3 -0.001600 0.000405 0.015337 0.000000 0.009317 0.000000
# 4 0.000000 0.000000 0.000000 0.055065 0.000000 -0.018074
# 5 -0.002915 0.001488 0.009317 0.000000 0.054765 0.000000
# 6 0.000000 0.000000 0.000000 -0.018074 0.000000 0.022670
#
#
# Mechanical properties :
#
#
# Convention : Reuss Voigt Hill
#
# Bulk Modulus (GPa) = 40.52605 49.41326 44.96965
# Shear Modulus (GPa) = 28.04219 41.52829 34.78524
#
# Velocity S-wave (km/s) = 3.26114 3.96858 3.63212
# Velocity P-wave (km/s) = 5.43595 6.30393 5.88596
#
# Compressibility (1/GPa) = 0.02467549
#
# Stress axis : x y z
#
# Youngs Moduli (GPa) = 111.16859 147.18971 65.20017
#
# Poissons Ratio (x) = 0.29889 0.10429
# Poissons Ratio (y) = 0.22575 -0.02639
# Poissons Ratio (z) = 0.17783 -0.05956
#
# Static dielectric constant tensor:
#      x y z
#    x 2.127980 0.000000 -0.132850 
#    y 0.000000 2.097980 0.000000 
#    z -0.132850 0.000000 2.274450 
# 
# From -- ./inp_files/152207.got.cif
#   From: 2010.05.17/outbox.cif.g08.bks.cpg/sg15_77_cif.got.tgz:152207.got - 2010.06.03 18:47:42.
