data_PCOD9259399
_publ_section_title
;
Structure prediction by ZEFSAII (Michael W. Deem and Ramdas Pophale) SiO2 
 PCOD9259399
Probable space group: C 2/C
;
_chemical_formula_sum "Si O2"
_cell_formula_units_Z 60
_cell_length_a 20.726436
_cell_length_b 8.404787
_cell_length_c 17.262218
_cell_angle_alpha 90.000000
_cell_angle_beta 74.072340
_cell_angle_gamma 90.000000
_cell_volume 2891.654699
_symmetry_space_group_name_H-M "C 2/C"
_symmetry_group_IT_number 15
_symmetry_cell_setting 'monoclinic'
loop_
_space_group_symop_operation_xyz
x,y,z
-x,y,1/2-z
-x,-y,-z
x,-y,1/2+z
1/2+x,1/2+y,z
1/2-x,1/2+y,1/2-z
1/2-x,1/2-y,-z
1/2+x,1/2-y,1/2+z
loop_
_atom_site_type_symbol
_atom_site_label
_atom_site_fract_x
_atom_site_fract_y
_atom_site_fract_z
Si Si1 0.922025 0.120263 0.034287
Si Si2 0.706609 0.478577 0.705557
Si Si3 0.409924 0.624557 0.675273
Si Si4 0.611047 0.409904 0.596581
Si Si5 0.000000 0.096720 0.250000
Si Si6 0.165922 0.315192 0.325798
Si Si7 0.049588 0.470386 0.864247
Si Si8 0.054564 0.660640 0.528828
O O1 0.860707 0.224107 0.088732
O O2 0.989875 0.223026 0.028916
O O3 0.919830 0.962391 0.089533
O O4 0.912679 0.058988 0.949308
O O5 0.665735 0.610144 0.769597
O O6 0.670961 0.455126 0.633877
O O7 0.781187 0.545953 0.675193
O O8 0.695723 0.316190 0.757594
O O9 0.449247 0.509684 0.718929
O O10 0.440043 0.798589 0.674884
O O11 0.549670 0.337700 0.668553
O O12 0.617885 0.263016 0.535486
O O13 0.098598 0.396820 0.313342
O O14 0.974928 0.535848 0.899172
O O15 0.071483 0.436723 0.946189
#
# Coordination Sequence:
#
# PCOD9259399 Si02
#       8
#     8   8   8   8   4   8   8   8
#     4  10  19  35  65  84 120 157 195 241 307 360
#     4  10  23  39  65  82 115 158 207 256 300 357
#     4  10  18  35  56  88 113 162 193 243 296 357
#     4  11  20  35  60  90 118 154 200 248 295 364
#     4  10  20  30  54  88 122 152 204 232 296 358
#     4  10  22  42  60  83 111 163 201 248 303 358
#     4  10  20  33  59  83 116 156 195 234 297 356
#     4  10  19  34  57  88 120 156 186 243 296 367
#
# _framework density 20.749364
#
# number of rings (size 3 to 8) (size 9 to 14) (size 15 to 20)
#    0.000    1.867    2.667    2.000    1.867    0.533 
#    2.400    0.667    8.800    0.000    0.000    0.000 
#    0.000    0.000    0.000    0.000    0.000    0.000 
#
# Total GULP energy -167123.131398 kJ/mol
# GULP energy per Si atom -5570.771047 kJ/mol
# Density = 2.070214 g / cm^3
# Si number density = 20.749364 Si / 1000 Ang^3
#
#
#
# Elastic Constant Matrix: (Units=GPa)
#
#
# Indices 1 2 3 4 5 6 
#
# 1 40.8189 -5.0809 18.4802 0.0000 -1.2880 0.0000
# 2 -5.0809 80.5704 22.9366 0.0000 3.2288 0.0000
# 3 18.4802 22.9366 67.3255 0.0000 6.2465 0.0000
# 4 0.0000 0.0000 0.0000 -12.1197 0.0000 -33.7655
# 5 -1.2880 3.2288 6.2465 0.0000 24.8698 0.0000
# 6 0.0000 0.0000 0.0000 -33.7655 0.0000 24.8203
#
#
#
# Elastic Compliance Matrix: (Units=1/GPa)
#
#
# Indices 1 2 3 4 5 6 
#
# 1 0.029729 0.004596 -0.010048 0.000000 0.003467 0.000000
# 2 0.004596 0.014465 -0.006181 0.000000 -0.000087 0.000000
# 3 -0.010048 -0.006181 0.020161 0.000000 -0.004782 0.000000
# 4 0.000000 0.000000 0.000000 -0.017225 0.000000 -0.023433
# 5 0.003467 -0.000087 -0.004782 0.000000 0.041601 0.000000
# 6 0.000000 0.000000 0.000000 -0.023433 0.000000 0.008411
#
#
# Mechanical properties :
#
#
# Convention : Reuss Voigt Hill
#
# Bulk Modulus (GPa) = 24.33777 29.04297 26.69037
# Shear Modulus (GPa) = 37.28466 17.67266 27.47866
#
# Velocity S-wave (km/s) = 4.24359 2.92159 3.64306
# Velocity P-wave (km/s) = 5.98044 5.04067 5.53055
#
# Compressibility (1/GPa) = 0.04108841
#
# Stress axis : x y z
#
# Youngs Moduli (GPa) = 33.63722 69.13461 49.60128
#
# Poissons Ratio (x) = -0.31776 0.49839
# Poissons Ratio (y) = -0.15460 0.30660
# Poissons Ratio (z) = 0.33798 0.42734
#
# Static dielectric constant tensor:
#      x y z
#    x 1.605760 0.000000 -0.173620 
#    y 0.000000 1.804450 0.000000 
#    z -0.173620 0.000000 1.709220 
# 
# From -- ./inp_files/213845.got.cif
#   From: 2010.05.17/outbox.cif.g08.bks.cpg/sg15_107_cif.got.tgz:213845.got - 2010.06.03 18:47:42.
