data_PCOD9259012
_publ_section_title
;
Structure prediction by ZEFSAII (Michael W. Deem and Ramdas Pophale) SiO2 
 PCOD9259012
Probable space group: C 2/C
;
_chemical_formula_sum "Si O2"
_cell_formula_units_Z 52
_cell_length_a 20.046683
_cell_length_b 7.282549
_cell_length_c 28.341186
_cell_angle_alpha 90.000000
_cell_angle_beta 27.654844
_cell_angle_gamma 90.000000
_cell_volume 1920.422550
_symmetry_space_group_name_H-M "C 2/C"
_symmetry_group_IT_number 15
_symmetry_cell_setting 'monoclinic'
loop_
_space_group_symop_operation_xyz
x,y,z
-x,y,1/2-z
-x,-y,-z
x,-y,1/2+z
1/2+x,1/2+y,z
1/2-x,1/2+y,1/2-z
1/2-x,1/2-y,-z
1/2+x,1/2-y,1/2+z
loop_
_atom_site_type_symbol
_atom_site_label
_atom_site_fract_x
_atom_site_fract_y
_atom_site_fract_z
Si Si1 0.654366 0.464527 0.557908
Si Si2 0.235527 0.831504 0.662549
Si Si3 0.500000 0.684973 0.250000
Si Si4 0.544595 0.117984 0.115989
Si Si5 0.244660 0.746561 0.162013
Si Si6 0.919470 0.156277 0.141343
Si Si7 0.012532 0.227282 0.941413
O O1 0.580422 0.411308 0.654370
O O2 0.606014 0.674892 0.580325
O O3 0.827695 0.480581 0.449927
O O4 0.581541 0.345234 0.561471
O O5 0.171773 0.811203 0.754611
O O6 0.400547 0.783337 0.566243
O O7 0.215196 0.046494 0.662895
O O8 0.135610 0.720349 0.689782
O O9 0.398536 0.133869 0.237235
O O10 0.500631 0.108649 0.088265
O O11 0.338004 0.764270 0.151352
O O12 0.354081 0.664173 0.055790
O O13 0.908229 0.946602 0.130270
#
# Coordination Sequence:
#
# PCOD9259012 Si02
#       7
#     8   8   4   8   8   8   8
#     4   9  19  34  54  84 122 152 187 251 293 343
#     4  11  20  38  60  87 117 155 197 252 291 351
#     4  10  18  34  58  84 116 156 204 238 298 346
#     4  10  19  35  56  87 116 151 199 245 294 336
#     4  12  21  36  63  91 114 157 202 248 292 352
#     4  10  20  40  58  85 123 155 191 248 301 348
#     4  11  22  37  61  87 121 154 198 247 295 360
#
# _framework density 27.077373000000001
#
# number of rings (size 3 to 8) (size 9 to 14) (size 15 to 20)
#    0.000    1.538    6.154    1.846    0.000    0.000 
#    0.000    0.000    3.385    2.769    0.000    0.000 
#    0.000    0.000    0.000    0.000    0.000    0.000 
#
# Total GULP energy -145352.986603 kJ/mol
# GULP energy per Si atom -5590.499485 kJ/mol
# Density = 2.701574 g / cm^3
# Si number density = 27.077373 Si / 1000 Ang^3
#
#
#
# Elastic Constant Matrix: (Units=GPa)
#
#
# Indices 1 2 3 4 5 6 
#
# 1 110.4920 31.6245 36.1269 0.0019 -29.2681 0.0151
# 2 31.6245 64.3351 20.0172 -0.0263 -25.0983 -0.0164
# 3 36.1269 20.0172 184.6115 0.0140 -37.9010 -0.0178
# 4 0.0019 -0.0263 0.0140 17.6224 0.0019 -7.1383
# 5 -29.2681 -25.0983 -37.9010 0.0019 48.9071 -0.0100
# 6 0.0151 -0.0164 -0.0178 -7.1383 -0.0100 26.8382
#
#
#
# Elastic Compliance Matrix: (Units=1/GPa)
#
#
# Indices 1 2 3 4 5 6 
#
# 1 0.011563 -0.003720 -0.000988 -0.000011 0.004245 -0.000011
# 2 -0.003720 0.020632 0.000247 0.000042 0.008553 0.000029
# 3 -0.000988 0.000247 0.006526 -0.000003 0.004593 0.000006
# 4 -0.000011 0.000042 -0.000003 0.063598 0.000014 0.016916
# 5 0.004245 0.008553 0.004593 0.000014 0.030936 0.000021
# 6 -0.000011 0.000029 0.000006 0.016916 0.000021 0.041760
#
#
# Mechanical properties :
#
#
# Convention : Reuss Voigt Hill
#
# Bulk Modulus (GPa) = 33.55872 59.44175 46.50024
# Shear Modulus (GPa) = 25.79043 36.78489 31.28766
#
# Velocity S-wave (km/s) = 3.08956 3.68980 3.40294
# Velocity P-wave (km/s) = 5.01475 6.33664 5.71405
#
# Compressibility (1/GPa) = 0.02979851
#
# Stress axis : x y z
#
# Youngs Moduli (GPa) = 86.48534 48.46767 153.22605
#
# Poissons Ratio (x) = 0.18032 0.15136
# Poissons Ratio (y) = 0.32176 -0.03783
# Poissons Ratio (z) = 0.08543 -0.01196
#
# Static dielectric constant tensor:
#      x y z
#    x 2.175100 -0.000020 -0.058620 
#    y -0.000020 2.113350 0.000010 
#    z -0.058620 0.000010 2.136390 
# 
# From -- ./inp_files/298853.got.cif
#   From: 2010.05.17/outbox.cif.g08.bks.cpg/sg15_150_cif.got.tgz:298853.got - 2010.06.03 18:47:42.
