data_PCOD9259072
_publ_section_title
;
Structure prediction by ZEFSAII (Michael W. Deem and Ramdas Pophale) SiO2 
 PCOD9259072
Probable space group: C 2/C
;
_chemical_formula_sum "Si O2"
_cell_formula_units_Z 48
_cell_length_a 8.607089
_cell_length_b 16.119982
_cell_length_c 17.412660
_cell_angle_alpha 90.000000
_cell_angle_beta 94.228613
_cell_angle_gamma 90.000000
_cell_volume 2409.362288
_symmetry_space_group_name_H-M "C 2/C"
_symmetry_group_IT_number 15
_symmetry_cell_setting 'monoclinic'
loop_
_space_group_symop_operation_xyz
x,y,z
-x,y,1/2-z
-x,-y,-z
x,-y,1/2+z
1/2+x,1/2+y,z
1/2-x,1/2+y,1/2-z
1/2-x,1/2-y,-z
1/2+x,1/2-y,1/2+z
loop_
_atom_site_type_symbol
_atom_site_label
_atom_site_fract_x
_atom_site_fract_y
_atom_site_fract_z
Si Si1 0.830691 0.671299 0.043581
Si Si2 0.156839 0.624570 0.791506
Si Si3 0.098445 0.281037 0.448219
Si Si4 0.137139 0.217184 0.813577
Si Si5 0.959807 0.063539 0.878946
Si Si6 0.982274 0.899218 0.948204
O O1 0.854197 0.705545 0.129671
O O2 0.703838 0.598558 0.039832
O O3 0.750000 0.750000 0.000000
O O4 0.989852 0.664687 0.001576
O O5 0.127183 0.669548 0.871452
O O6 0.212798 0.691317 0.729740
O O7 0.309394 0.569666 0.818166
O O8 0.000000 0.585276 0.750000
O O9 0.250000 0.250000 0.500000
O O10 0.016233 0.193883 0.423689
O O11 0.000000 0.235140 0.750000
O O12 0.080845 0.134073 0.856608
O O13 0.020787 0.969894 0.888294
O O14 0.929471 0.085341 0.967842
#
# Coordination Sequence:
#
# PCOD9259072 Si02
#       6
#     8   8   8   8   8   8
#     4  10  18  34  59  84 112 152 196 245 281 341
#     4  11  22  35  57  86 119 154 195 240 300 356
#     4  11  19  36  60  94 117 149 198 255 287 342
#     4  10  19  37  57  82 115 162 190 229 301 364
#     4  10  20  38  57  83 113 156 192 238 295 363
#     4  10  20  36  61  84 112 145 204 245 288 336
#
# _framework density 19.922284999999999
#
# number of rings (size 3 to 8) (size 9 to 14) (size 15 to 20)
#    0.000    1.667    5.000    3.000    0.000    0.000 
#    0.000   10.833    0.000    0.000    0.000    0.000 
#    0.000    0.000    0.000    0.000    0.000    0.000 
#
# Total GULP energy -133705.145466 kJ/mol
# GULP energy per Si atom -5571.047728 kJ/mol
# Density = 1.987694 g / cm^3
# Si number density = 19.922285 Si / 1000 Ang^3
#
#
#
# Elastic Constant Matrix: (Units=GPa)
#
#
# Indices 1 2 3 4 5 6 
#
# 1 75.7508 2.2603 22.4519 0.0000 4.1808 0.0000
# 2 2.2603 44.6242 17.3365 0.0000 3.1241 0.0000
# 3 22.4519 17.3365 95.9441 0.0000 5.6744 0.0000
# 4 0.0000 0.0000 0.0000 29.6551 0.0000 0.6476
# 5 4.1808 3.1241 5.6744 0.0000 28.0001 0.0000
# 6 0.0000 0.0000 0.0000 0.6476 0.0000 18.5013
#
#
#
# Elastic Compliance Matrix: (Units=1/GPa)
#
#
# Indices 1 2 3 4 5 6 
#
# 1 0.014264 0.000695 -0.003373 0.000000 -0.001524 0.000000
# 2 0.000695 0.024228 -0.004427 0.000000 -0.001910 0.000000
# 3 -0.003373 -0.004427 0.012098 0.000000 -0.001454 0.000000
# 4 0.000000 0.000000 0.000000 0.033747 0.000000 -0.001181
# 5 -0.001524 -0.001910 -0.001454 0.000000 0.036449 0.000000
# 6 0.000000 0.000000 0.000000 -0.001181 0.000000 0.054092
#
#
# Mechanical properties :
#
#
# Convention : Reuss Voigt Hill
#
# Bulk Modulus (GPa) = 27.48902 33.37962 30.43432
# Shear Modulus (GPa) = 24.84880 26.84931 25.84906
#
# Velocity S-wave (km/s) = 3.53553 3.67509 3.60598
# Velocity P-wave (km/s) = 5.52220 5.89912 5.71377
#
# Compressibility (1/GPa) = 0.03637816
#
# Stress axis : x y z
#
# Youngs Moduli (GPa) = 70.10457 41.27466 82.65713
#
# Poissons Ratio (x) = -0.02867 0.27884
# Poissons Ratio (y) = -0.04870 0.36596
# Poissons Ratio (z) = 0.23649 0.18274
#
# Static dielectric constant tensor:
#      x y z
#    x 1.823600 0.000000 -0.015660 
#    y 0.000000 1.702240 0.000000 
#    z -0.015660 0.000000 1.866340 
# 
# From -- ./inp_files/189879.got.cif
#   From: 2010.05.17/outbox.cif.g08.bks.cpg/sg15_95_cif.got.tgz:189879.got - 2010.06.03 18:47:42.
