data_PCOD9259377
_publ_section_title
;
Structure prediction by ZEFSAII (Michael W. Deem and Ramdas Pophale) SiO2 
 PCOD9259377
Probable space group: C 2/C
;
_chemical_formula_sum "Si O2"
_cell_formula_units_Z 32
_cell_length_a 24.128955
_cell_length_b 6.987088
_cell_length_c 15.463397
_cell_angle_alpha 90.000000
_cell_angle_beta 147.511972
_cell_angle_gamma 90.000000
_cell_volume 1400.276114
_symmetry_space_group_name_H-M "C 2/C"
_symmetry_group_IT_number 15
_symmetry_cell_setting 'monoclinic'
loop_
_space_group_symop_operation_xyz
x,y,z
-x,y,1/2-z
-x,-y,-z
x,-y,1/2+z
1/2+x,1/2+y,z
1/2-x,1/2+y,1/2-z
1/2-x,1/2-y,-z
1/2+x,1/2-y,1/2+z
loop_
_atom_site_type_symbol
_atom_site_label
_atom_site_fract_x
_atom_site_fract_y
_atom_site_fract_z
Si Si1 0.190656 0.003719 0.270168
Si Si2 0.381619 0.264318 0.488018
Si Si3 0.222501 0.962871 0.999275
Si Si4 0.072744 0.617638 0.658119
O O1 0.306209 0.082384 0.403633
O O2 0.188530 0.933793 0.367228
O O3 0.120332 0.195315 0.174510
O O4 0.151787 0.858451 0.147092
O O5 0.357856 0.423380 0.529992
O O6 0.499152 0.196585 0.637138
O O7 0.332320 0.011365 0.185511
O O8 0.250000 0.750000 0.000000
O O9 0.000000 0.500000 0.500000
#
# Coordination Sequence:
#
# PCOD9259377 Si02
#       4
#     8   8   8   8
#     4  10  21  35  55  79 101 138 176 210 256 309
#     4  10  18  35  56  76 107 136 169 218 256 298
#     4   8  19  34  53  77 100 139 179 199 251 323
#     4  10  19  34  55  79 103 136 175 212 254 307
#
# _framework density 22.852637000000001
#
# number of rings (size 3 to 8) (size 9 to 14) (size 15 to 20)
#    0.000    3.000    0.000    3.750    0.000    9.000 
#    0.000    5.000    0.000    6.000    0.000    0.000 
#    0.000    0.000    0.000    0.000    0.000    0.000 
#
# Total GULP energy -89335.826313 kJ/mol
# GULP energy per Si atom -5583.489145 kJ/mol
# Density = 2.280062 g / cm^3
# Si number density = 22.852637 Si / 1000 Ang^3
#
#
#
# Elastic Constant Matrix: (Units=GPa)
#
#
# Indices 1 2 3 4 5 6 
#
# 1 131.7712 19.6400 23.7319 0.0000 -11.4719 0.0000
# 2 19.6400 60.5482 21.5481 0.0000 -6.9991 0.0000
# 3 23.7319 21.5481 56.9442 0.0000 -24.3868 0.0000
# 4 0.0000 0.0000 0.0000 32.5960 0.0000 -12.5566
# 5 -11.4719 -6.9991 -24.3868 0.0000 60.4215 0.0000
# 6 0.0000 0.0000 0.0000 -12.5566 0.0000 9.4199
#
#
#
# Elastic Compliance Matrix: (Units=1/GPa)
#
#
# Indices 1 2 3 4 5 6 
#
# 1 0.008358 -0.001713 -0.002709 0.000000 0.000295 0.000000
# 2 -0.001713 0.019473 -0.007046 0.000000 -0.000913 0.000000
# 3 -0.002709 -0.007046 0.025130 0.000000 0.008812 0.000000
# 4 0.000000 0.000000 0.000000 0.063059 0.000000 0.084057
# 5 0.000295 -0.000913 0.008812 0.000000 0.020057 0.000000
# 6 0.000000 0.000000 0.000000 0.084057 0.000000 0.218204
#
#
# Mechanical properties :
#
#
# Convention : Reuss Voigt Hill
#
# Bulk Modulus (GPa) = 33.30448 42.12264 37.71356
# Shear Modulus (GPa) = 12.91237 32.77706 22.84472
#
# Velocity S-wave (km/s) = 2.37961 3.79130 3.16516
# Velocity P-wave (km/s) = 4.70694 6.13494 5.46776
#
# Compressibility (1/GPa) = 0.03002599
#
# Stress axis : x y z
#
# Youngs Moduli (GPa) = 119.64976 51.35199 39.79291
#
# Poissons Ratio (x) = 0.08796 0.10778
# Poissons Ratio (y) = 0.20495 0.28039
# Poissons Ratio (z) = 0.32407 0.36183
#
# Static dielectric constant tensor:
#      x y z
#    x 1.924610 0.000000 -0.029140 
#    y 0.000000 1.901090 0.000000 
#    z -0.029140 0.000000 1.949230 
# 
# From -- ./inp_files/109868.got.cif
#   From: 2010.05.17/outbox.cif.g08.bks.cpg/sg15_55_cif.got.tgz:109868.got - 2010.06.03 18:47:42.
