data_PCOD9259103
_publ_section_title
;
Structure prediction by ZEFSAII (Michael W. Deem and Ramdas Pophale) SiO2 
 PCOD9259103
Probable space group: C 2/C
;
_chemical_formula_sum "Si O2"
_cell_formula_units_Z 60
_cell_length_a 18.373231
_cell_length_b 14.017993
_cell_length_c 12.380450
_cell_angle_alpha 90.000000
_cell_angle_beta 116.004906
_cell_angle_gamma 90.000000
_cell_volume 2865.826224
_symmetry_space_group_name_H-M "C 2/C"
_symmetry_group_IT_number 15
_symmetry_cell_setting 'monoclinic'
loop_
_space_group_symop_operation_xyz
x,y,z
-x,y,1/2-z
-x,-y,-z
x,-y,1/2+z
1/2+x,1/2+y,z
1/2-x,1/2+y,1/2-z
1/2-x,1/2-y,-z
1/2+x,1/2-y,1/2+z
loop_
_atom_site_type_symbol
_atom_site_label
_atom_site_fract_x
_atom_site_fract_y
_atom_site_fract_z
Si Si1 0.533438 0.111260 0.652390
Si Si2 0.000000 0.058164 0.250000
Si Si3 0.616508 0.244844 0.558069
Si Si4 0.474298 0.611540 0.997229
Si Si5 0.149810 0.944481 0.247465
Si Si6 0.802329 0.421644 0.488325
Si Si7 0.249673 0.395945 0.814799
Si Si8 0.897014 0.573620 0.407911
O O1 0.500000 0.122608 0.750000
O O2 0.602622 0.183825 0.658998
O O3 0.463751 0.129625 0.517829
O O4 0.561771 0.002893 0.646522
O O5 0.024936 0.120188 0.371655
O O6 0.076721 0.991219 0.269579
O O7 0.542392 0.317700 0.495415
O O8 0.635736 0.166933 0.479258
O O9 0.695706 0.307726 0.619934
O O10 0.392728 0.618660 0.873511
O O11 0.500000 0.500000 0.000000
O O12 0.219556 0.899798 0.368113
O O13 0.195749 0.031303 0.217754
O O14 0.778597 0.445682 0.593765
O O15 0.848450 0.508372 0.461680
O O16 0.169810 0.367385 0.697979
#
# Coordination Sequence:
#
# PCOD9259103 Si02
#       8
#     8   4   8   8   8   8   8   8
#     4  10  21  40  63  88 117 152 195 245 285 341
#     4  10  18  34  60  80 108 148 190 240 284 334
#     4  11  23  37  56  88 122 149 192 243 291 339
#     4  10  20  37  58  83 113 153 197 235 280 349
#     4  10  21  35  60  84 109 149 203 231 282 355
#     4  10  22  38  59  84 118 155 186 244 292 335
#     4  11  20  39  58  84 120 153 188 239 291 344
#     4   9  21  40  64  87 111 155 202 230 287 352
#
# _framework density 20.936371999999999
#
# number of rings (size 3 to 8) (size 9 to 14) (size 15 to 20)
#    0.000    1.867    2.667    2.000    2.800    1.067 
#    0.000    2.000    0.000    0.000    0.000    0.000 
#    0.000    0.000    0.000    0.000    0.000    0.000 
#
# Total GULP energy -167468.379183 kJ/mol
# GULP energy per Si atom -5582.279306 kJ/mol
# Density = 2.088872 g / cm^3
# Si number density = 20.936372 Si / 1000 Ang^3
#
#
#
# Elastic Constant Matrix: (Units=GPa)
#
#
# Indices 1 2 3 4 5 6 
#
# 1 79.0117 -3.3028 7.1612 0.0000 -14.4732 0.0000
# 2 -3.3028 25.2350 -17.7728 0.0000 -0.6172 0.0000
# 3 7.1612 -17.7728 48.5221 0.0000 5.3547 0.0000
# 4 0.0000 0.0000 0.0000 3.3942 0.0000 11.0736
# 5 -14.4732 -0.6172 5.3547 0.0000 34.9291 0.0000
# 6 0.0000 0.0000 0.0000 11.0736 0.0000 14.4193
#
#
#
# Elastic Compliance Matrix: (Units=1/GPa)
#
#
# Indices 1 2 3 4 5 6 
#
# 1 0.014051 0.000062 -0.002740 0.000000 0.006243 0.000000
# 2 0.000062 0.053555 0.019835 0.000000 -0.002069 0.000000
# 3 -0.002740 0.019835 0.028854 0.000000 -0.005208 0.000000
# 4 0.000000 0.000000 0.000000 -0.195695 0.000000 0.150287
# 5 0.006243 -0.002069 -0.005208 0.000000 0.031978 0.000000
# 6 0.000000 0.000000 0.000000 0.150287 0.000000 -0.046064
#
#
# Mechanical properties :
#
#
# Convention : Reuss Voigt Hill
#
# Bulk Modulus (GPa) = 7.64679 13.88224 10.76451
# Shear Modulus (GPa) = -48.05634 21.66073 -13.19781
#
# Velocity S-wave (km/s) = -4.79618 3.22001 -2.51345
# Velocity P-wave (km/s) = 5.19719 4.52434 1.80847
#
# Compressibility (1/GPa) = 0.13077379
#
# Stress axis : x y z
#
# Youngs Moduli (GPa) = 71.16971 18.67247 34.65766
#
# Poissons Ratio (x) = -0.00116 0.09496
# Poissons Ratio (y) = -0.00441 -0.68745
# Poissons Ratio (z) = 0.19501 -0.37037
#
# Static dielectric constant tensor:
#      x y z
#    x 1.752830 0.000000 0.023250 
#    y 0.000000 1.754670 0.000000 
#    z 0.023250 0.000000 1.783380 
# 
# From -- ./inp_files/105775.got.cif
#   From: 2010.05.17/outbox.cif.g08.bks.cpg/sg15_53_cif.got.tgz:105775.got - 2010.06.03 18:47:42.
