data_PCOD9259580
_publ_section_title
;
Structure prediction by ZEFSAII (Michael W. Deem and Ramdas Pophale) SiO2 
 PCOD9259580
Probable space group: C 2/C
;
_chemical_formula_sum "Si O2"
_cell_formula_units_Z 52
_cell_length_a 19.473769
_cell_length_b 8.736637
_cell_length_c 27.327889
_cell_angle_alpha 90.000000
_cell_angle_beta 28.930308
_cell_angle_gamma 90.000000
_cell_volume 2249.143946
_symmetry_space_group_name_H-M "C 2/C"
_symmetry_group_IT_number 15
_symmetry_cell_setting 'monoclinic'
loop_
_space_group_symop_operation_xyz
x,y,z
-x,y,1/2-z
-x,-y,-z
x,-y,1/2+z
1/2+x,1/2+y,z
1/2-x,1/2+y,1/2-z
1/2-x,1/2-y,-z
1/2+x,1/2-y,1/2+z
loop_
_atom_site_type_symbol
_atom_site_label
_atom_site_fract_x
_atom_site_fract_y
_atom_site_fract_z
Si Si1 0.793675 0.133653 0.230632
Si Si2 0.990911 0.569137 0.375508
Si Si3 0.000000 0.114634 0.250000
Si Si4 0.128428 0.111480 0.424118
Si Si5 0.852685 0.355866 0.282211
Si Si6 0.625744 0.924899 0.454852
Si Si7 0.936260 0.095743 0.708196
O O1 0.638710 0.069582 0.314616
O O2 0.847555 0.188530 0.144229
O O3 0.789134 0.260860 0.275730
O O4 0.898713 0.000181 0.183220
O O5 0.004725 0.436194 0.326650
O O6 0.000684 0.737012 0.343358
O O7 0.877763 0.520972 0.486991
O O8 0.121192 0.230786 0.192945
O O9 0.966534 0.004919 0.316615
O O10 0.091608 0.245624 0.483310
O O11 0.259070 0.001587 0.355121
O O12 0.000000 0.000000 0.500000
O O13 0.782611 0.915446 0.332680
O O14 0.500000 0.000000 0.500000
#
# Coordination Sequence:
#
# PCOD9259580 Si02
#       7
#     8   8   4   8   8   8   8
#     4  10  18  35  60  90 131 156 197 258 328 362
#     4  11  20  37  63  93 123 156 205 266 322 362
#     4  10  26  44  66  80 122 186 216 244 312 374
#     4  11  22  34  62 100 127 158 204 263 325 382
#     4  10  21  41  61  87 123 170 207 254 310 376
#     4  12  22  36  64 102 130 156 200 263 330 380
#     4  11  22  41  62  91 128 170 208 256 310 381
#
# _framework density 23.119907000000001
#
# number of rings (size 3 to 8) (size 9 to 14) (size 15 to 20)
#    0.000    1.231    4.615    4.615    2.154    0.615 
#    0.000    1.538    3.385    0.000    0.000    0.000 
#    0.000    0.000    0.000    0.000    0.000    0.000 
#
# Total GULP energy -145010.479582 kJ/mol
# GULP energy per Si atom -5577.326138 kJ/mol
# Density = 2.306729 g / cm^3
# Si number density = 23.119907 Si / 1000 Ang^3
#
#
#
# Elastic Constant Matrix: (Units=GPa)
#
#
# Indices 1 2 3 4 5 6 
#
# 1 89.0905 41.1222 13.6293 0.0003 4.9319 0.0000
# 2 41.1222 116.8149 1.6255 0.0005 1.6292 0.0002
# 3 13.6293 1.6255 77.2792 0.0016 13.5705 0.0000
# 4 0.0003 0.0005 0.0016 29.4958 0.0004 6.9022
# 5 4.9319 1.6292 13.5705 0.0004 16.6042 -0.0001
# 6 0.0000 0.0002 0.0000 6.9022 -0.0001 34.3196
#
#
#
# Elastic Compliance Matrix: (Units=1/GPa)
#
#
# Indices 1 2 3 4 5 6 
#
# 1 0.013868 -0.004826 -0.001990 0.000000 -0.002020 0.000000
# 2 -0.004826 0.010252 0.000654 0.000000 -0.000107 0.000000
# 3 -0.001990 0.000654 0.015394 -0.000001 -0.012055 0.000000
# 4 0.000000 0.000000 -0.000001 0.035577 0.000000 -0.007155
# 5 -0.002020 -0.000107 -0.012055 0.000000 0.070688 0.000000
# 6 0.000000 0.000000 0.000000 -0.007155 0.000000 0.030577
#
#
# Mechanical properties :
#
#
# Convention : Reuss Voigt Hill
#
# Bulk Modulus (GPa) = 36.77659 43.99318 40.38488
# Shear Modulus (GPa) = 25.28521 31.20443 28.24482
#
# Velocity S-wave (km/s) = 3.31063 3.67778 3.49903
# Velocity P-wave (km/s) = 5.52767 6.09133 5.81633
#
# Compressibility (1/GPa) = 0.02719121
#
# Stress axis : x y z
#
# Youngs Moduli (GPa) = 72.10630 97.54277 64.96000
#
# Poissons Ratio (x) = 0.47076 0.12925
# Poissons Ratio (y) = 0.34800 -0.04251
# Poissons Ratio (z) = 0.14347 -0.06383
#
# Static dielectric constant tensor:
#      x y z
#    x 1.881050 0.000000 -0.004030 
#    y 0.000000 1.946660 0.000000 
#    z -0.004030 0.000000 2.012060 
# 
# From -- ./inp_files/166317.got.cif
#   From: 2010.05.17/outbox.cif.g08.bks.cpg/sg15_84_cif.got.tgz:166317.got - 2010.06.03 18:47:42.
