data_PCOD9259318
_publ_section_title
;
Structure prediction by ZEFSAII (Michael W. Deem and Ramdas Pophale) SiO2 
 PCOD9259318
Probable space group: C 2/C
;
_chemical_formula_sum "Si O2"
_cell_formula_units_Z 60
_cell_length_a 18.334382
_cell_length_b 21.820804
_cell_length_c 8.688591
_cell_angle_alpha 90.000000
_cell_angle_beta 61.285050
_cell_angle_gamma 90.000000
_cell_volume 3048.570809
_symmetry_space_group_name_H-M "C 2/C"
_symmetry_group_IT_number 15
_symmetry_cell_setting 'monoclinic'
loop_
_space_group_symop_operation_xyz
x,y,z
-x,y,1/2-z
-x,-y,-z
x,-y,1/2+z
1/2+x,1/2+y,z
1/2-x,1/2+y,1/2-z
1/2-x,1/2-y,-z
1/2+x,1/2-y,1/2+z
loop_
_atom_site_type_symbol
_atom_site_label
_atom_site_fract_x
_atom_site_fract_y
_atom_site_fract_z
Si Si1 0.966910 0.289350 0.111846
Si Si2 0.601714 0.116619 0.373732
Si Si3 0.500000 0.000000 0.500000
Si Si4 0.872509 0.407472 0.292760
Si Si5 0.438105 0.669547 0.953707
Si Si6 0.285874 0.537023 0.713882
Si Si7 0.225059 0.909648 0.933314
Si Si8 0.528798 0.563129 0.047022
O O1 0.896050 0.340553 0.206221
O O2 0.000000 0.273458 0.250000
O O3 0.932218 0.231197 0.058195
O O4 0.043480 0.323601 0.946808
O O5 0.626354 0.097065 0.524041
O O6 0.549554 0.058466 0.368917
O O7 0.686334 0.121752 0.191539
O O8 0.554962 0.951685 0.341455
O O9 0.788610 0.434223 0.308687
O O10 0.500000 0.681974 0.750000
O O11 0.350463 0.638722 0.995197
O O12 0.485115 0.618603 0.006129
O O13 0.287764 0.464071 0.679334
O O14 0.273946 0.555338 0.903874
O O15 0.127541 0.065107 0.930083
O O16 0.500000 0.562295 0.250000
O O17 0.500000 0.500000 0.000000
#
# Coordination Sequence:
#
# PCOD9259318 Si02
#       8
#     8   8   4   8   8   8   8   8
#     4   9  22  48  69  93 128 177 226 266 326 400
#     4  10  22  41  67 100 134 171 215 270 326 404
#     4  10  18  34  68  98 132 164 208 256 334 386
#     4  10  22  40  67  99 135 168 213 268 331 398
#     4  12  25  46  65  92 130 178 227 276 326 387
#     4  12  24  40  63 101 135 165 212 271 332 393
#     4  12  25  40  65 100 137 169 215 272 333 393
#     4  12  24  41  66  92 128 174 222 275 331 385
#
# _framework density 19.681353999999999
#
# number of rings (size 3 to 8) (size 9 to 14) (size 15 to 20)
#    0.000    1.067    4.000    3.600    1.867    2.133 
#    2.400    6.667    0.000    0.000    0.000    0.000 
#    0.000    0.000    0.000    0.000    0.000    0.000 
#
# Total GULP energy -167229.011135 kJ/mol
# GULP energy per Si atom -5574.300371 kJ/mol
# Density = 1.963656 g / cm^3
# Si number density = 19.681354 Si / 1000 Ang^3
#
#
#
# Elastic Constant Matrix: (Units=GPa)
#
#
# Indices 1 2 3 4 5 6 
#
# 1 90.0687 22.8747 18.2302 0.0000 -17.5630 0.0000
# 2 22.8747 99.6352 29.8964 0.0000 19.4752 0.0000
# 3 18.2302 29.8964 80.9072 0.0000 -16.1073 0.0000
# 4 0.0000 0.0000 0.0000 11.0067 0.0000 9.3614
# 5 -17.5630 19.4752 -16.1073 0.0000 31.1479 0.0000
# 6 0.0000 0.0000 0.0000 9.3614 0.0000 12.8465
#
#
#
# Elastic Compliance Matrix: (Units=1/GPa)
#
#
# Indices 1 2 3 4 5 6 
#
# 1 0.015078 -0.006639 0.001756 0.000000 0.013560 0.000000
# 2 -0.006639 0.018202 -0.009187 0.000000 -0.019875 0.000000
# 3 0.001756 -0.009187 0.018616 0.000000 0.016361 0.000000
# 4 0.000000 0.000000 0.000000 0.238954 0.000000 -0.174129
# 5 0.013560 -0.019875 0.016361 0.000000 0.060639 0.000000
# 6 0.000000 0.000000 0.000000 -0.174129 0.000000 0.204732
#
#
# Mechanical properties :
#
#
# Convention : Reuss Voigt Hill
#
# Bulk Modulus (GPa) = 42.09571 45.84598 43.97085
# Shear Modulus (GPa) = 8.44196 24.30753 16.37475
#
# Velocity S-wave (km/s) = 2.07331 3.51815 2.88756
# Velocity P-wave (km/s) = 5.21216 6.31251 5.78854
#
# Compressibility (1/GPa) = 0.02375539
#
# Stress axis : x y z
#
# Youngs Moduli (GPa) = 66.32340 54.93806 53.71679
#
# Poissons Ratio (x) = 0.36473 -0.09430
# Poissons Ratio (y) = 0.44032 0.49349
# Poissons Ratio (z) = -0.11643 0.50471
#
# Static dielectric constant tensor:
#      x y z
#    x 1.724520 0.000000 0.007340 
#    y 0.000000 1.656940 0.000000 
#    z 0.007340 0.000000 1.684240 
# 
# From -- ./inp_files/57484.got.cif
#   From: 2010.05.17/outbox.cif.g08.bks.cpg/sg15_29_cif.got.tgz:57484.got - 2010.06.03 18:47:42.
