data_PCOD9260443
_publ_section_title
;
Structure prediction by ZEFSAII (Michael W. Deem and Ramdas Pophale) SiO2 
 PCOD9260443
Probable space group: C 2/C
;
_chemical_formula_sum "Si O2"
_cell_formula_units_Z 44
_cell_length_a 8.804752
_cell_length_b 22.854072
_cell_length_c 11.475280
_cell_angle_alpha 90.000000
_cell_angle_beta 76.373706
_cell_angle_gamma 90.000000
_cell_volume 2244.112291
_symmetry_space_group_name_H-M "C 2/C"
_symmetry_group_IT_number 15
_symmetry_cell_setting 'monoclinic'
loop_
_space_group_symop_operation_xyz
x,y,z
-x,y,1/2-z
-x,-y,-z
x,-y,1/2+z
1/2+x,1/2+y,z
1/2-x,1/2+y,1/2-z
1/2-x,1/2-y,-z
1/2+x,1/2-y,1/2+z
loop_
_atom_site_type_symbol
_atom_site_label
_atom_site_fract_x
_atom_site_fract_y
_atom_site_fract_z
Si Si1 0.255391 0.331419 0.679259
Si Si2 0.234321 0.904321 0.599330
Si Si3 0.132352 0.979136 0.065538
Si Si4 0.985651 0.859436 0.054322
Si Si5 0.500000 0.267088 0.250000
Si Si6 0.437123 0.941610 0.879381
O O1 0.297876 0.353481 0.801174
O O2 0.401633 0.333300 0.566565
O O3 0.149648 0.273786 0.696471
O O4 0.146365 0.383765 0.653265
O O5 0.417787 0.919363 0.570453
O O6 0.163501 0.884947 0.488362
O O7 0.153143 0.966457 0.649490
O O8 0.076649 0.913285 0.102467
O O9 0.301679 0.974482 0.973139
O O10 0.000000 0.000000 0.000000
O O11 0.955242 0.808671 0.150943
O O12 0.500000 0.972951 0.750000
#
# Coordination Sequence:
#
# PCOD9260443 Si02
#       6
#     8   8   8   8   4   8
#     4  10  20  40  63  86 115 168 205 253 313 370
#     4  10  18  37  62  90 117 156 210 250 308 379
#     4   9  19  36  58  90 125 158 202 255 312 378
#     4  10  23  38  60  90 121 159 206 256 322 366
#     4  12  22  42  60  84 130 158 216 260 308 380
#     4   9  17  34  60  90 121 160 205 244 313 366
#
# _framework density 19.606862
#
# number of rings (size 3 to 8) (size 9 to 14) (size 15 to 20)
#    0.000    2.182    2.727    1.636    0.000    2.182 
#   22.909    0.000    0.000    0.000    0.000    0.000 
#    0.000    0.000    0.000    0.000    0.000    0.000 
#
# Total GULP energy -122585.603317 kJ/mol
# GULP energy per Si atom -5572.072878 kJ/mol
# Density = 1.956224 g / cm^3
# Si number density = 19.606862 Si / 1000 Ang^3
#
#
#
# Elastic Constant Matrix: (Units=GPa)
#
#
# Indices 1 2 3 4 5 6 
#
# 1 92.0887 -4.7329 30.3744 0.0000 2.0065 0.0000
# 2 -4.7329 75.7073 21.3873 0.0000 8.3808 0.0000
# 3 30.3744 21.3873 55.4605 0.0000 0.8617 0.0000
# 4 0.0000 0.0000 0.0000 105.5815 0.0000 -21.5506
# 5 2.0065 8.3808 0.8617 0.0000 31.6483 0.0000
# 6 0.0000 0.0000 0.0000 -21.5506 0.0000 32.3015
#
#
#
# Elastic Compliance Matrix: (Units=1/GPa)
#
#
# Indices 1 2 3 4 5 6 
#
# 1 0.014076 0.003623 -0.009081 0.000000 -0.001605 0.000000
# 2 0.003623 0.016220 -0.008172 0.000000 -0.004302 0.000000
# 3 -0.009081 -0.008172 0.026124 0.000000 0.002029 0.000000
# 4 0.000000 0.000000 0.000000 0.010964 0.000000 0.007315
# 5 -0.001605 -0.004302 0.002029 0.000000 0.032783 0.000000
# 6 0.000000 0.000000 0.000000 0.007315 0.000000 0.035839
#
#
# Mechanical properties :
#
#
# Convention : Reuss Voigt Hill
#
# Bulk Modulus (GPa) = 34.29454 35.25712 34.77583
# Shear Modulus (GPa) = 28.90391 45.65480 37.27936
#
# Velocity S-wave (km/s) = 3.84366 4.83070 4.36517
# Velocity P-wave (km/s) = 6.10142 7.00966 6.57125
#
# Compressibility (1/GPa) = 0.02915916
#
# Stress axis : x y z
#
# Youngs Moduli (GPa) = 71.04521 61.65145 38.27852
#
# Poissons Ratio (x) = -0.22336 0.34761
# Poissons Ratio (y) = -0.25739 0.31283
# Poissons Ratio (z) = 0.64516 0.50384
#
# Static dielectric constant tensor:
#      x y z
#    x 1.712910 0.000000 -0.024310 
#    y 0.000000 1.694640 0.000000 
#    z -0.024310 0.000000 1.753530 
# 
# From -- ./inp_files/78207.got.cif
#   From: 2010.05.17/outbox.cif.g08.bks.cpg/sg15_40_cif.got.tgz:78207.got - 2010.06.03 18:47:42.
