data_PCOD9260382
_publ_section_title
;
Structure prediction by ZEFSAII (Michael W. Deem and Ramdas Pophale) SiO2 
 PCOD9260382
Probable space group: C 2/C
;
_chemical_formula_sum "Si O2"
_cell_formula_units_Z 56
_cell_length_a 15.345632
_cell_length_b 11.974742
_cell_length_c 15.082824
_cell_angle_alpha 90.000000
_cell_angle_beta 101.070835
_cell_angle_gamma 90.000000
_cell_volume 2720.041142
_symmetry_space_group_name_H-M "C 2/C"
_symmetry_group_IT_number 15
_symmetry_cell_setting 'monoclinic'
loop_
_space_group_symop_operation_xyz
x,y,z
-x,y,1/2-z
-x,-y,-z
x,-y,1/2+z
1/2+x,1/2+y,z
1/2-x,1/2+y,1/2-z
1/2-x,1/2-y,-z
1/2+x,1/2-y,1/2+z
loop_
_atom_site_type_symbol
_atom_site_label
_atom_site_fract_x
_atom_site_fract_y
_atom_site_fract_z
Si Si1 0.339845 0.883227 0.433590
Si Si2 0.098614 0.155498 0.964033
Si Si3 0.278078 0.537093 0.963746
Si Si4 0.360772 0.945318 0.682160
Si Si5 0.540720 0.048198 0.114924
Si Si6 0.317083 0.306758 0.205137
Si Si7 0.604518 0.709506 0.583863
O O1 0.353939 0.768222 0.489809
O O2 0.282351 0.979778 0.471634
O O3 0.280337 0.853673 0.335952
O O4 0.435663 0.936975 0.433747
O O5 0.121636 0.147623 0.863614
O O6 0.993395 0.161532 0.952910
O O7 0.141634 0.052083 0.024127
O O8 0.212089 0.529710 0.867635
O O9 0.325238 0.657311 0.971635
O O10 0.407957 0.972586 0.782563
O O11 0.439934 0.933163 0.625619
O O12 0.315178 0.825972 0.687775
O O13 0.586789 0.157798 0.082722
O O14 0.359992 0.322709 0.310243
#
# Coordination Sequence:
#
# PCOD9260382 Si02
#       7
#     8   8   8   8   8   8   8
#     4  11  21  37  60  85 118 147 189 234 289 333
#     4  11  20  37  59  85 111 153 196 233 272 338
#     4  11  21  35  56  82 118 150 186 234 283 336
#     4  10  18  38  59  83 109 147 203 230 270 337
#     4  10  22  35  58  88 112 148 189 236 286 334
#     4  10  18  37  60  82 107 148 197 236 264 330
#     4  11  22  34  56  87 118 144 188 237 284 328
#
# _framework density 20.587924000000001
#
# number of rings (size 3 to 8) (size 9 to 14) (size 15 to 20)
#    0.000    1.429    4.286    2.571    0.000    2.857 
#    0.000    0.000    0.000    0.000    3.714    0.000 
#    0.000    0.000    0.000    0.000    0.000    0.000 
#
# Total GULP energy -156153.858736 kJ/mol
# GULP energy per Si atom -5576.923526 kJ/mol
# Density = 2.054106 g / cm^3
# Si number density = 20.587924 Si / 1000 Ang^3
#
#
#
# Elastic Constant Matrix: (Units=GPa)
#
#
# Indices 1 2 3 4 5 6 
#
# 1 105.6247 49.0400 9.6917 0.0000 15.8591 0.0000
# 2 49.0400 69.4831 24.3637 0.0000 -13.5307 0.0000
# 3 9.6917 24.3637 52.3902 0.0000 15.9237 0.0000
# 4 0.0000 0.0000 0.0000 22.3059 0.0000 -2.3455
# 5 15.8591 -13.5307 15.9237 0.0000 30.5360 0.0000
# 6 0.0000 0.0000 0.0000 -2.3455 0.0000 42.2357
#
#
#
# Elastic Compliance Matrix: (Units=1/GPa)
#
#
# Indices 1 2 3 4 5 6 
#
# 1 0.042394 -0.056794 0.039109 0.000000 -0.067578 0.000000
# 2 -0.056794 0.100419 -0.069736 0.000000 0.110358 0.000000
# 3 0.039109 -0.069736 0.071121 0.000000 -0.088300 0.000000
# 4 0.000000 0.000000 0.000000 0.045095 0.000000 0.002504
# 5 -0.067578 0.110358 -0.088300 0.000000 0.162792 0.000000
# 6 0.000000 0.000000 0.000000 0.002504 0.000000 0.023816
#
#
# Mechanical properties :
#
#
# Convention : Reuss Voigt Hill
#
# Bulk Modulus (GPa) = 25.57988 43.74319 34.66153
# Shear Modulus (GPa) = 7.89254 28.64236 18.26745
#
# Velocity S-wave (km/s) = 1.96008 3.73395 2.98197
# Velocity P-wave (km/s) = 4.19216 6.31530 5.35991
#
# Compressibility (1/GPa) = 0.03909323
#
# Stress axis : x y z
#
# Youngs Moduli (GPa) = 23.58807 9.95826 14.06053
#
# Poissons Ratio (x) = 0.56557 -0.54990
# Poissons Ratio (y) = 1.33967 0.98052
# Poissons Ratio (z) = -0.92251 0.69445
#
# Static dielectric constant tensor:
#      x y z
#    x 1.732800 0.000000 -0.002250 
#    y 0.000000 1.710170 0.000000 
#    z -0.002250 0.000000 1.813040 
# 
# From -- ./inp_files/152610.got.cif
#   From: 2010.05.17/outbox.cif.g08.bks.cpg/sg15_77_cif.got.tgz:152610.got - 2010.06.03 18:47:42.
