data_PCOD9260140
_publ_section_title
;
Structure prediction by ZEFSAII (Michael W. Deem and Ramdas Pophale) SiO2 
 PCOD9260140
Probable space group: C 2/C
;
_chemical_formula_sum "Si O2"
_cell_formula_units_Z 52
_cell_length_a 11.635275
_cell_length_b 24.243544
_cell_length_c 13.892089
_cell_angle_alpha 90.000000
_cell_angle_beta 31.910012
_cell_angle_gamma 90.000000
_cell_volume 2071.364502
_symmetry_space_group_name_H-M "C 2/C"
_symmetry_group_IT_number 15
_symmetry_cell_setting 'monoclinic'
loop_
_space_group_symop_operation_xyz
x,y,z
-x,y,1/2-z
-x,-y,-z
x,-y,1/2+z
1/2+x,1/2+y,z
1/2-x,1/2+y,1/2-z
1/2-x,1/2-y,-z
1/2+x,1/2-y,1/2+z
loop_
_atom_site_type_symbol
_atom_site_label
_atom_site_fract_x
_atom_site_fract_y
_atom_site_fract_z
Si Si1 0.988663 0.606969 0.609632
Si Si2 0.000000 0.078135 0.250000
Si Si3 0.656749 0.780695 0.970124
Si Si4 0.000000 0.478217 0.250000
Si Si5 0.116493 0.816317 0.883607
Si Si6 0.500000 0.162325 0.250000
Si Si7 0.420016 0.070441 0.442190
Si Si8 0.065508 0.058650 0.413761
O O1 0.253473 0.602947 0.439355
O O2 0.977356 0.672926 0.625481
O O3 0.884185 0.565418 0.761059
O O4 0.901953 0.583832 0.568201
O O5 0.043210 0.048302 0.317237
O O6 0.815444 0.809968 0.778346
O O7 0.750000 0.750000 0.000000
O O8 0.545464 0.733325 0.986708
O O9 0.141220 0.515872 0.075183
O O10 0.326517 0.809603 0.802856
O O11 0.008351 0.876638 0.975035
O O12 0.359051 0.123392 0.422508
O O13 0.678253 0.064288 0.246978
O O14 0.000000 0.000000 0.500000
#
# Coordination Sequence:
#
# PCOD9260140 Si02
#       8
#     8   4   8   4   8   4   8   8
#     4  11  22  39  59  94 130 170 224 279 348 402
#     4  10  18  36  63  83 128 174 206 266 344 406
#     4  12  25  42  66  99 141 182 226 289 353 428
#     4  11  22  34  63  96 123 170 223 286 340 421
#     4  11  24  43  70  98 136 186 234 289 350 416
#     4   9  18  42  68  91 129 184 239 280 352 413
#     4   9  19  38  60  90 130 175 220 285 350 406
#     4  10  19  37  64  95 128 174 225 279 348 412
#
# _framework density 25.104223999999999
#
# number of rings (size 3 to 8) (size 9 to 14) (size 15 to 20)
#    0.000    1.538    4.615    2.769    2.154    0.615 
#    0.000    0.000    0.000    0.923    0.000    0.000 
#    0.000    0.000    0.000    0.000    0.000    0.000 
#
# Total GULP energy -144782.345106 kJ/mol
# GULP energy per Si atom -5568.551735 kJ/mol
# Density = 2.504709 g / cm^3
# Si number density = 25.104224 Si / 1000 Ang^3
#
#
#
# Elastic Constant Matrix: (Units=GPa)
#
#
# Indices 1 2 3 4 5 6 
#
# 1 178.0262 51.6115 29.4577 0.0010 29.8232 -0.0012
# 2 51.6115 174.0161 35.8986 0.0003 1.1512 -0.0007
# 3 29.4577 35.8986 24.5622 -0.0007 12.0215 0.0004
# 4 0.0010 0.0003 -0.0007 9.6630 0.0004 -2.1258
# 5 29.8232 1.1512 12.0215 0.0004 47.5121 0.0002
# 6 -0.0012 -0.0007 0.0004 -2.1258 0.0002 57.0185
#
#
#
# Elastic Compliance Matrix: (Units=1/GPa)
#
#
# Indices 1 2 3 4 5 6 
#
# 1 0.007400 -0.000941 -0.005977 -0.000001 -0.003110 0.000000
# 2 -0.000941 0.008810 -0.013618 -0.000001 0.003823 0.000000
# 3 -0.005977 -0.013618 0.075086 0.000007 -0.014916 -0.000001
# 4 -0.000001 -0.000001 0.000007 0.104344 -0.000002 0.003890
# 5 -0.003110 0.003823 -0.014916 -0.000002 0.026681 0.000000
# 6 0.000000 0.000000 -0.000001 0.003890 0.000000 0.017683
#
#
# Mechanical properties :
#
#
# Convention : Reuss Voigt Hill
#
# Bulk Modulus (GPa) = 19.91157 67.83778 43.87467
# Shear Modulus (GPa) = 16.78880 40.14782 28.46831
#
# Velocity S-wave (km/s) = 2.58885 4.00340 3.37115
# Velocity P-wave (km/s) = 4.10914 6.96065 5.71558
#
# Compressibility (1/GPa) = 0.05022206
#
# Stress axis : x y z
#
# Youngs Moduli (GPa) = 135.13502 113.51006 13.31808
#
# Poissons Ratio (x) = 0.10682 0.07961
# Poissons Ratio (y) = 0.12717 0.18137
# Poissons Ratio (z) = 0.80777 1.54581
#
# Static dielectric constant tensor:
#      x y z
#    x 2.097380 0.000000 -0.194890 
#    y 0.000000 2.228750 0.000000 
#    z -0.194890 0.000000 2.304580 
# 
# From -- ./inp_files/148073.got.cif
#   From: 2010.05.17/outbox.cif.g08.bks.cpg/sg15_75_cif.got.tgz:148073.got - 2010.06.03 18:47:42.
