data_PCOD9260264
_publ_section_title
;
Structure prediction by ZEFSAII (Michael W. Deem and Ramdas Pophale) SiO2 
 PCOD9260264
Probable space group: C 2/C
;
_chemical_formula_sum "Si O2"
_cell_formula_units_Z 36
_cell_length_a 9.924326
_cell_length_b 18.142183
_cell_length_c 13.550691
_cell_angle_alpha 90.000000
_cell_angle_beta 41.478533
_cell_angle_gamma 90.000000
_cell_volume 1615.967386
_symmetry_space_group_name_H-M "C 2/C"
_symmetry_group_IT_number 15
_symmetry_cell_setting 'monoclinic'
loop_
_space_group_symop_operation_xyz
x,y,z
-x,y,1/2-z
-x,-y,-z
x,-y,1/2+z
1/2+x,1/2+y,z
1/2-x,1/2+y,1/2-z
1/2-x,1/2-y,-z
1/2+x,1/2-y,1/2+z
loop_
_atom_site_type_symbol
_atom_site_label
_atom_site_fract_x
_atom_site_fract_y
_atom_site_fract_z
Si Si1 0.549350 0.698584 0.612135
Si Si2 0.117501 0.074278 0.406682
Si Si3 0.766038 0.878577 0.991382
Si Si4 0.262838 0.263544 0.853398
Si Si5 0.000000 0.498112 0.250000
O O1 0.500000 0.672135 0.750000
O O2 0.750000 0.750000 0.500000
O O3 0.589201 0.633111 0.511089
O O4 0.348416 0.745283 0.687406
O O5 0.349448 0.050392 0.271818
O O6 0.002139 0.097315 0.369793
O O7 0.000000 0.000000 0.500000
O O8 0.772491 0.811132 0.065820
O O9 0.627052 0.944040 0.108655
O O10 0.670086 0.837863 0.950379
O O11 0.500000 0.274008 0.750000
#
# Coordination Sequence:
#
# PCOD9260264 Si02
#       5
#     8   8   8   8   4
#     4  11  27  43  68 104 140 176 231 291 346 403
#     4   9  21  40  65  93 135 178 221 278 345 405
#     4   9  19  35  61  99 120 176 221 274 329 410
#     4  10  21  37  67  95 135 169 230 278 340 397
#     4  10  18  36  66  94 142 174 216 280 352 396
#
# _framework density 22.277678999999999
#
# number of rings (size 3 to 8) (size 9 to 14) (size 15 to 20)
#    0.000    2.222    1.111    0.000   10.889    0.000 
#    0.000    4.444    0.000   18.667    0.000    0.000 
#    0.000    0.000    0.000    0.000    0.000    0.000 
#
# Total GULP energy -100223.406834 kJ/mol
# GULP energy per Si atom -5567.967046 kJ/mol
# Density = 2.222697 g / cm^3
# Si number density = 22.277679 Si / 1000 Ang^3
#
#
#
# Elastic Constant Matrix: (Units=GPa)
#
#
# Indices 1 2 3 4 5 6 
#
# 1 129.1342 60.7256 36.8457 -0.0003 -13.0224 -0.0002
# 2 60.7256 111.1348 31.8188 -0.0008 -0.2903 -0.0003
# 3 36.8457 31.8188 50.4909 -0.0033 -10.9459 -0.0003
# 4 -0.0003 -0.0008 -0.0033 27.9701 0.0005 1.6369
# 5 -13.0224 -0.2903 -10.9459 0.0005 39.2936 0.0003
# 6 -0.0002 -0.0003 -0.0003 1.6369 0.0003 24.2248
#
#
#
# Elastic Compliance Matrix: (Units=1/GPa)
#
#
# Indices 1 2 3 4 5 6 
#
# 1 0.011744 -0.005017 -0.004866 -0.000001 0.002499 0.000000
# 2 -0.005017 0.013267 -0.005362 0.000000 -0.003059 0.000000
# 3 -0.004866 -0.005362 0.028073 0.000003 0.006168 0.000000
# 4 -0.000001 0.000000 0.000003 0.035894 0.000000 -0.002425
# 5 0.002499 -0.003059 0.006168 0.000000 0.027973 0.000000
# 6 0.000000 0.000000 0.000000 -0.002425 0.000000 0.041444
#
#
# Mechanical properties :
#
#
# Convention : Reuss Voigt Hill
#
# Bulk Modulus (GPa) = 44.26361 61.06002 52.66181
# Shear Modulus (GPa) = 25.45589 29.05569 27.25579
#
# Velocity S-wave (km/s) = 3.38400 3.61536 3.50159
# Velocity P-wave (km/s) = 5.93134 6.70044 6.32758
#
# Compressibility (1/GPa) = 0.02259192
#
# Stress axis : x y z
#
# Youngs Moduli (GPa) = 85.15147 75.37594 35.62105
#
# Poissons Ratio (x) = 0.37817 0.17335
# Poissons Ratio (y) = 0.42722 0.19102
# Poissons Ratio (z) = 0.41438 0.40420
#
# Static dielectric constant tensor:
#      x y z
#    x 1.855360 0.000000 0.003390 
#    y 0.000000 1.836480 0.000000 
#    z 0.003390 0.000000 1.904730 
# 
# From -- ./inp_files/134154.got.cif
#   From: 2010.05.17/outbox.cif.g08.bks.cpg/sg15_68_cif.got.tgz:134154.got - 2010.06.03 18:47:42.
