data_PCOD9260753
_publ_section_title
;
Structure prediction by ZEFSAII (Michael W. Deem and Ramdas Pophale) SiO2 
 PCOD9260753
Probable space group: C 2/C
;
_chemical_formula_sum "Si O2"
_cell_formula_units_Z 64
_cell_length_a 9.172615
_cell_length_b 20.761436
_cell_length_c 22.979728
_cell_angle_alpha 90.000000
_cell_angle_beta 129.759082
_cell_angle_gamma 90.000000
_cell_volume 3364.148668
_symmetry_space_group_name_H-M "C 2/C"
_symmetry_group_IT_number 15
_symmetry_cell_setting 'monoclinic'
loop_
_space_group_symop_operation_xyz
x,y,z
-x,y,1/2-z
-x,-y,-z
x,-y,1/2+z
1/2+x,1/2+y,z
1/2-x,1/2+y,1/2-z
1/2-x,1/2-y,-z
1/2+x,1/2-y,1/2+z
loop_
_atom_site_type_symbol
_atom_site_label
_atom_site_fract_x
_atom_site_fract_y
_atom_site_fract_z
Si Si1 0.552617 0.906653 0.695320
Si Si2 0.142904 0.205625 0.232638
Si Si3 0.247196 0.694164 0.586401
Si Si4 0.847841 0.155610 0.786366
Si Si5 0.455208 0.052485 0.808040
Si Si6 0.804110 0.871314 0.409874
Si Si7 0.922588 0.732087 0.584718
Si Si8 0.728774 0.657797 0.040242
O O1 0.500000 0.903703 0.750000
O O2 0.714325 0.853665 0.726559
O O3 0.371502 0.887989 0.610456
O O4 0.607573 0.980040 0.695198
O O5 0.253010 0.273887 0.260460
O O6 0.000000 0.203865 0.250000
O O7 0.028896 0.208693 0.142592
O O8 0.429745 0.667968 0.667894
O O9 0.229876 0.660723 0.518739
O O10 0.265281 0.770155 0.574503
O O11 0.066525 0.691850 0.581758
O O12 0.710788 0.103769 0.720713
O O13 0.848231 0.130563 0.853044
O O14 0.500000 0.056956 0.750000
O O15 0.659834 0.070851 0.888207
O O16 0.672331 0.809654 0.388780
O O17 0.008371 0.862613 0.492098
O O18 0.750000 0.750000 0.500000
#
# Coordination Sequence:
#
# PCOD9260753 Si02
#       8
#     8   8   8   8   8   8   8   8
#     4  11  24  39  59  89 122 152 201 251 296 349
#     4  12  23  37  61  89 118 160 195 249 307 353
#     4  10  21  33  57  90 120 150 189 249 295 354
#     4  10  18  38  63  85 113 152 205 241 297 346
#     4   9  19  39  62  85 115 158 204 248 285 353
#     4  10  19  36  60  87 114 153 199 239 295 355
#     4  12  23  34  57  93 122 150 194 249 299 350
#     4  10  20  36  57  84 122 155 187 240 304 353
#
# _framework density 19.024128999999999
#
# number of rings (size 3 to 8) (size 9 to 14) (size 15 to 20)
#    0.000    1.500    5.000    1.125    1.750    0.500 
#    0.000    1.250    0.000    0.750    0.000    0.000 
#    0.000    0.000    0.000    0.000    0.000    0.000 
#
# Total GULP energy -178470.346249 kJ/mol
# GULP energy per Si atom -5577.198320 kJ/mol
# Density = 1.898083 g / cm^3
# Si number density = 19.024129 Si / 1000 Ang^3
#
#
#
# Elastic Constant Matrix: (Units=GPa)
#
#
# Indices 1 2 3 4 5 6 
#
# 1 103.3409 37.0216 48.9001 0.0000 29.6656 0.0000
# 2 37.0216 124.2652 52.4450 0.0000 29.3170 0.0000
# 3 48.9001 52.4450 127.7886 0.0000 31.7278 0.0000
# 4 0.0000 0.0000 0.0000 12.9481 0.0000 4.8284
# 5 29.6656 29.3170 31.7278 0.0000 35.9990 0.0000
# 6 0.0000 0.0000 0.0000 4.8284 0.0000 16.6549
#
#
#
# Elastic Compliance Matrix: (Units=1/GPa)
#
#
# Indices 1 2 3 4 5 6 
#
# 1 0.013659 -0.000995 -0.002848 0.000000 -0.007935 0.000000
# 2 -0.000995 0.010791 -0.002649 0.000000 -0.005633 0.000000
# 3 -0.002848 -0.002649 0.011373 0.000000 -0.005519 0.000000
# 4 0.000000 0.000000 0.000000 0.086593 0.000000 -0.025104
# 5 -0.007935 -0.005633 -0.005519 0.000000 0.043769 0.000000
# 6 0.000000 0.000000 0.000000 -0.025104 0.000000 0.067320
#
#
# Mechanical properties :
#
#
# Convention : Reuss Voigt Hill
#
# Bulk Modulus (GPa) = 43.78800 70.23646 57.01223
# Shear Modulus (GPa) = 19.67712 27.58894 23.63303
#
# Velocity S-wave (km/s) = 3.21958 3.81229 3.52840
# Velocity P-wave (km/s) = 6.07355 7.50852 6.82883
#
# Compressibility (1/GPa) = 0.02283730
#
# Stress axis : x y z
#
# Youngs Moduli (GPa) = 73.21250 92.67160 87.92901
#
# Poissons Ratio (x) = 0.09222 0.25044
# Poissons Ratio (y) = 0.07286 0.23294
# Poissons Ratio (z) = 0.20852 0.24551
#
# Static dielectric constant tensor:
#      x y z
#    x 1.678930 0.000000 -0.001860 
#    y 0.000000 1.651760 0.000000 
#    z -0.001860 0.000000 1.702340 
# 
# From -- ./inp_files/266133.got.cif
#   From: 2010.05.17/outbox.cif.g08.bks.cpg/sg15_134_cif.got.tgz:266133.got - 2010.06.03 18:47:42.
