data_PCOD9260798
_publ_section_title
;
Structure prediction by ZEFSAII (Michael W. Deem and Ramdas Pophale) SiO2 
 PCOD9260798
Probable space group: C 2/C
;
_chemical_formula_sum "Si O2"
_cell_formula_units_Z 52
_cell_length_a 18.216902
_cell_length_b 33.675637
_cell_length_c 5.634507
_cell_angle_alpha 90.000000
_cell_angle_beta 127.343999
_cell_angle_gamma 90.000000
_cell_volume 2748.006171
_symmetry_space_group_name_H-M "C 2/C"
_symmetry_group_IT_number 15
_symmetry_cell_setting 'monoclinic'
loop_
_space_group_symop_operation_xyz
x,y,z
-x,y,1/2-z
-x,-y,-z
x,-y,1/2+z
1/2+x,1/2+y,z
1/2-x,1/2+y,1/2-z
1/2-x,1/2-y,-z
1/2+x,1/2-y,1/2+z
loop_
_atom_site_type_symbol
_atom_site_label
_atom_site_fract_x
_atom_site_fract_y
_atom_site_fract_z
Si Si1 0.695866 0.139198 0.762930
Si Si2 0.895000 0.014445 0.339979
Si Si3 0.000000 0.657623 0.250000
Si Si4 0.861030 0.105116 0.304665
Si Si5 0.500000 0.792318 0.250000
Si Si6 0.500000 0.345301 0.750000
Si Si7 0.795647 0.280973 0.913677
Si Si8 0.834518 0.172464 0.645058
O O1 0.593265 0.132545 0.468881
O O2 0.759174 0.155974 0.678466
O O3 0.756886 0.104598 0.996298
O O4 0.693003 0.175352 0.945328
O O5 0.892852 0.060583 0.407708
O O6 0.854290 0.991804 0.492512
O O7 0.000000 0.000000 0.500000
O O8 0.991988 0.683044 0.481626
O O9 0.856821 0.135783 0.513667
O O10 0.932015 0.126299 0.264614
O O11 0.598752 0.770067 0.436874
O O12 0.432322 0.319234 0.457421
O O13 0.716788 0.289821 0.565757
O O14 0.750000 0.250000 0.000000
#
# Coordination Sequence:
#
# PCOD9260798 Si02
#       8
#     8   8   4   8   4   4   8   8
#     4   9  20  36  61  83 114 152 194 263 308 366
#     4  10  22  34  53  82 117 161 205 244 293 349
#     4  10  18  38  64  90 112 143 201 247 326 355
#     4  10  21  35  56  83 119 163 205 250 297 364
#     4  10  20  38  63  84 118 157 190 270 316 363
#     4  10  20  32  57  76 120 162 199 249 304 354
#     4  10  21  39  60  86 119 158 208 257 318 387
#     4  10  20  36  56  85 115 160 201 258 305 365
#
# _framework density 18.922812
#
# number of rings (size 3 to 8) (size 9 to 14) (size 15 to 20)
#    0.000    2.154    1.538    1.385    8.615    0.615 
#    0.000    8.462   16.923    0.000    0.000    1.077 
#    0.000    0.000    0.000    0.000    0.000    0.000 
#
# Total GULP energy -144804.151183 kJ/mol
# GULP energy per Si atom -5569.390430 kJ/mol
# Density = 1.887974 g / cm^3
# Si number density = 18.922812 Si / 1000 Ang^3
#
#
#
# Elastic Constant Matrix: (Units=GPa)
#
#
# Indices 1 2 3 4 5 6 
#
# 1 90.0366 14.8335 55.9230 0.0000 27.3980 0.0000
# 2 14.8335 71.1082 29.3890 0.0000 16.3678 0.0000
# 3 55.9230 29.3890 130.4741 0.0000 28.9231 0.0000
# 4 0.0000 0.0000 0.0000 16.8053 0.0000 1.3218
# 5 27.3980 16.3678 28.9231 0.0000 52.8467 0.0000
# 6 0.0000 0.0000 0.0000 1.3218 0.0000 47.8532
#
#
#
# Elastic Compliance Matrix: (Units=1/GPa)
#
#
# Indices 1 2 3 4 5 6 
#
# 1 0.016338 0.000248 -0.005877 0.000000 -0.005331 0.000000
# 2 0.000248 0.016030 -0.002945 0.000000 -0.003481 0.000000
# 3 -0.005877 -0.002945 0.011346 0.000000 -0.002250 0.000000
# 4 0.000000 0.000000 0.000000 0.059635 0.000000 -0.001647
# 5 -0.005331 -0.003481 -0.002250 0.000000 0.023996 0.000000
# 6 0.000000 0.000000 0.000000 -0.001647 0.000000 0.020943
#
#
# Mechanical properties :
#
#
# Convention : Reuss Voigt Hill
#
# Bulk Modulus (GPa) = 37.64348 54.65668 46.15008
# Shear Modulus (GPa) = 28.68770 36.26593 32.47681
#
# Velocity S-wave (km/s) = 3.89786 4.38256 4.14729
# Velocity P-wave (km/s) = 6.33988 7.38619 6.88294
#
# Compressibility (1/GPa) = 0.02656502
#
# Stress axis : x y z
#
# Youngs Moduli (GPa) = 61.20665 62.38314 88.14057
#
# Poissons Ratio (x) = -0.01545 0.51799
# Poissons Ratio (y) = -0.01516 0.25959
# Poissons Ratio (z) = 0.35970 0.18373
#
# Static dielectric constant tensor:
#      x y z
#    x 1.645530 0.000000 -0.007420 
#    y 0.000000 1.630500 0.000000 
#    z -0.007420 0.000000 1.825730 
# 
# From -- ./inp_files/12090.got.cif
#   From: 2010.05.17/outbox.cif.g08.bks.cpg/sg15_7_cif.got.tgz:12090.got - 2010.06.03 18:47:42.
