data_PCOD9260808
_publ_section_title
;
Structure prediction by ZEFSAII (Michael W. Deem and Ramdas Pophale) SiO2 
 PCOD9260808
Probable space group: C 2/C
;
_chemical_formula_sum "Si O2"
_cell_formula_units_Z 52
_cell_length_a 25.910432
_cell_length_b 17.716811
_cell_length_c 14.383822
_cell_angle_alpha 90.000000
_cell_angle_beta 160.044021
_cell_angle_gamma 90.000000
_cell_volume 2253.555890
_symmetry_space_group_name_H-M "C 2/C"
_symmetry_group_IT_number 15
_symmetry_cell_setting 'monoclinic'
loop_
_space_group_symop_operation_xyz
x,y,z
-x,y,1/2-z
-x,-y,-z
x,-y,1/2+z
1/2+x,1/2+y,z
1/2-x,1/2+y,1/2-z
1/2-x,1/2-y,-z
1/2+x,1/2-y,1/2+z
loop_
_atom_site_type_symbol
_atom_site_label
_atom_site_fract_x
_atom_site_fract_y
_atom_site_fract_z
Si Si1 0.972971 0.911602 0.978758
Si Si2 0.459077 0.273313 0.825263
Si Si3 0.312151 0.895717 0.550293
Si Si4 0.000000 0.275918 0.750000
Si Si5 0.152933 0.558479 0.956467
Si Si6 0.568684 0.876717 0.115599
Si Si7 0.746380 0.223338 0.801733
O O1 0.939246 0.855546 0.835627
O O2 0.813949 0.910127 0.764801
O O3 0.139879 0.884709 0.292188
O O4 0.000000 0.000000 0.000000
O O5 0.476464 0.208315 0.930398
O O6 0.321317 0.247865 0.524752
O O7 0.610956 0.278040 0.023447
O O8 0.383054 0.826453 0.612858
O O9 0.327451 0.968328 0.509899
O O10 0.420213 0.912156 0.820440
O O11 0.891727 0.238965 0.488726
O O12 0.129531 0.582110 0.809238
O O13 0.000000 0.582131 0.750000
O O14 0.687050 0.859806 0.233001
#
# Coordination Sequence:
#
# PCOD9260808 Si02
#       7
#     8   8   8   4   8   8   8
#     4  10  22  40  63  91 127 167 211 266 323 373
#     4  11  22  40  62  94 124 169 214 268 314 385
#     4  10  21  42  61  93 127 165 217 263 320 376
#     4  10  18  38  64  92 120 174 210 258 314 388
#     4  11  23  40  65  92 130 170 213 265 319 386
#     4  11  24  38  66  92 125 171 214 267 316 383
#     4  10  22  38  62  91 127 163 218 255 322 384
#
# _framework density 23.074642999999998
#
# number of rings (size 3 to 8) (size 9 to 14) (size 15 to 20)
#    0.000    1.538    3.846    0.923    2.154    0.615 
#    0.000    0.769    0.000    0.000    0.000    0.000 
#    0.000    0.000    0.000    0.000    0.000    0.000 
#
# Total GULP energy -145034.483170 kJ/mol
# GULP energy per Si atom -5578.249353 kJ/mol
# Density = 2.302212 g / cm^3
# Si number density = 23.074643 Si / 1000 Ang^3
#
#
#
# Elastic Constant Matrix: (Units=GPa)
#
#
# Indices 1 2 3 4 5 6 
#
# 1 54.8221 21.8913 28.5717 0.0000 22.9458 0.0000
# 2 21.8913 91.7642 26.2366 0.0000 -2.4294 0.0000
# 3 28.5717 26.2366 176.4570 0.0000 23.0703 0.0000
# 4 0.0000 0.0000 0.0000 19.9954 0.0000 -10.7368
# 5 22.9458 -2.4294 23.0703 0.0000 54.4707 0.0000
# 6 0.0000 0.0000 0.0000 -10.7368 0.0000 16.3111
#
#
#
# Elastic Compliance Matrix: (Units=1/GPa)
#
#
# Indices 1 2 3 4 5 6 
#
# 1 0.025965 -0.005905 -0.001971 0.000000 -0.010366 0.000000
# 2 -0.005905 0.012811 -0.001428 0.000000 0.003664 0.000000
# 3 -0.001971 -0.001428 0.006456 0.000000 -0.001968 0.000000
# 4 0.000000 0.000000 0.000000 0.077352 0.000000 0.050917
# 5 -0.010366 0.003664 -0.001968 0.000000 0.023722 0.000000
# 6 0.000000 0.000000 0.000000 0.050917 0.000000 0.094825
#
#
# Mechanical properties :
#
#
# Convention : Reuss Voigt Hill
#
# Bulk Modulus (GPa) = 37.55923 52.93804 45.24864
# Shear Modulus (GPa) = 18.61412 34.57834 26.59623
#
# Velocity S-wave (km/s) = 2.84331 3.87530 3.39870
# Velocity P-wave (km/s) = 5.20498 6.55865 5.92063
#
# Compressibility (1/GPa) = 0.02662462
#
# Stress axis : x y z
#
# Youngs Moduli (GPa) = 38.51363 78.05536 154.90033
#
# Poissons Ratio (x) = 0.46093 0.30529
# Poissons Ratio (y) = 0.22743 0.22115
# Poissons Ratio (z) = 0.07591 0.11144
#
# Static dielectric constant tensor:
#      x y z
#    x 1.904160 0.000000 0.009130 
#    y 0.000000 1.886850 0.000000 
#    z 0.009130 0.000000 1.920600 
# 
# From -- ./inp_files/179047.got.cif
#   From: 2010.05.17/outbox.cif.g08.bks.cpg/sg15_90_cif.got.tgz:179047.got - 2010.06.03 18:47:42.
