data_PCOD9260258
_publ_section_title
;
Structure prediction by ZEFSAII (Michael W. Deem and Ramdas Pophale) SiO2 
 PCOD9260258
Probable space group: C 2/C
;
_chemical_formula_sum "Si O2"
_cell_formula_units_Z 52
_cell_length_a 12.539715
_cell_length_b 7.670549
_cell_length_c 26.983240
_cell_angle_alpha 90.000000
_cell_angle_beta 52.637960
_cell_angle_gamma 90.000000
_cell_volume 2062.886225
_symmetry_space_group_name_H-M "C 2/C"
_symmetry_group_IT_number 15
_symmetry_cell_setting 'monoclinic'
loop_
_space_group_symop_operation_xyz
x,y,z
-x,y,1/2-z
-x,-y,-z
x,-y,1/2+z
1/2+x,1/2+y,z
1/2-x,1/2+y,1/2-z
1/2-x,1/2-y,-z
1/2+x,1/2-y,1/2+z
loop_
_atom_site_type_symbol
_atom_site_label
_atom_site_fract_x
_atom_site_fract_y
_atom_site_fract_z
Si Si1 0.335057 0.405860 0.912443
Si Si2 0.739795 0.891128 0.615076
Si Si3 0.598598 0.571158 0.851901
Si Si4 0.500000 0.981514 0.250000
Si Si5 0.613377 0.958935 0.055102
Si Si6 0.313752 0.022905 0.630130
Si Si7 0.804327 0.275570 0.232455
O O1 0.440029 0.560408 0.892717
O O2 0.403898 0.230766 0.913864
O O3 0.293030 0.399255 0.866859
O O4 0.200094 0.430173 0.981785
O O5 0.844063 0.029175 0.609965
O O6 0.607160 0.907709 0.687685
O O7 0.804290 0.701505 0.600496
O O8 0.698983 0.937663 0.571325
O O9 0.671547 0.730271 0.804069
O O10 0.649601 0.403915 0.805084
O O11 0.416819 0.862069 0.235405
O O12 0.467585 0.037223 0.085998
O O13 0.276763 0.096924 0.694090
#
# Coordination Sequence:
#
# PCOD9260258 Si02
#       7
#     8   8   8   4   8   8   8
#     4  11  24  42  69  91 134 169 221 256 326 378
#     4  10  21  40  67  87 137 163 215 265 324 368
#     4  10  22  41  60 101 122 171 210 266 315 390
#     4  10  18  36  66  92 122 178 194 270 324 376
#     4  11  23  47  63  94 133 175 207 275 308 386
#     4  11  23  43  64  99 126 168 214 271 309 390
#     4  10  21  38  65  90 135 155 218 261 321 378
#
# _framework density 25.2074
#
# number of rings (size 3 to 8) (size 9 to 14) (size 15 to 20)
#    0.000    1.538    4.615    0.462    0.000    9.231 
#    2.769    0.000    0.000    0.000    0.000    0.000 
#    0.000    0.000    0.000    0.000    0.000    0.000 
#
# Total GULP energy -145720.971789 kJ/mol
# GULP energy per Si atom -5604.652761 kJ/mol
# Density = 2.515003 g / cm^3
# Si number density = 25.207400 Si / 1000 Ang^3
#
#
#
# Elastic Constant Matrix: (Units=GPa)
#
#
# Indices 1 2 3 4 5 6 
#
# 1 150.4611 0.8147 17.0619 0.0000 8.0402 0.0000
# 2 0.8147 62.7426 1.2133 0.0000 9.5789 0.0000
# 3 17.0619 1.2133 55.7390 0.0000 0.3255 0.0000
# 4 0.0000 0.0000 0.0000 24.5082 0.0000 14.8275
# 5 8.0402 9.5789 0.3255 0.0000 44.3754 0.0000
# 6 0.0000 0.0000 0.0000 14.8275 0.0000 30.0467
#
#
#
# Elastic Compliance Matrix: (Units=1/GPa)
#
#
# Indices 1 2 3 4 5 6 
#
# 1 0.006955 0.000146 -0.002125 0.000000 -0.001276 0.000000
# 2 0.000146 0.016491 -0.000383 0.000000 -0.003583 0.000000
# 3 -0.002125 -0.000383 0.018597 0.000000 0.000331 0.000000
# 4 0.000000 0.000000 0.000000 0.058169 0.000000 -0.028705
# 5 -0.001276 -0.003583 0.000331 0.000000 0.023537 0.000000
# 6 0.000000 0.000000 0.000000 -0.028705 0.000000 0.047447
#
#
# Mechanical properties :
#
#
# Convention : Reuss Voigt Hill
#
# Bulk Modulus (GPa) = 26.79555 34.12471 30.46013
# Shear Modulus (GPa) = 26.54500 36.44292 31.49396
#
# Velocity S-wave (km/s) = 3.24861 3.80639 3.53851
# Velocity P-wave (km/s) = 4.97237 5.73455 5.36701
#
# Compressibility (1/GPa) = 0.03731963
#
# Stress axis : x y z
#
# Youngs Moduli (GPa) = 143.79083 60.64021 53.77071
#
# Poissons Ratio (x) = -0.00883 0.11424
# Poissons Ratio (y) = -0.02093 0.02057
# Poissons Ratio (z) = 0.30549 0.02320
#
# Static dielectric constant tensor:
#      x y z
#    x 1.958310 0.000000 0.004110 
#    y 0.000000 2.059100 0.000000 
#    z 0.004110 0.000000 1.927070 
# 
# From -- ./inp_files/291460.got.cif
#   From: 2010.05.17/outbox.cif.g08.bks.cpg/sg15_146_cif.got.tgz:291460.got - 2010.06.03 18:47:42.
