data_PCOD9260903
_publ_section_title
;
Structure prediction by ZEFSAII (Michael W. Deem and Ramdas Pophale) SiO2 
 PCOD9260903
Probable space group: C 2/C
;
_chemical_formula_sum "Si O2"
_cell_formula_units_Z 60
_cell_length_a 15.158999
_cell_length_b 10.134973
_cell_length_c 17.140377
_cell_angle_alpha 90.000000
_cell_angle_beta 108.276442
_cell_angle_gamma 90.000000
_cell_volume 2500.537584
_symmetry_space_group_name_H-M "C 2/C"
_symmetry_group_IT_number 15
_symmetry_cell_setting 'monoclinic'
loop_
_space_group_symop_operation_xyz
x,y,z
-x,y,1/2-z
-x,-y,-z
x,-y,1/2+z
1/2+x,1/2+y,z
1/2-x,1/2+y,1/2-z
1/2-x,1/2-y,-z
1/2+x,1/2-y,1/2+z
loop_
_atom_site_type_symbol
_atom_site_label
_atom_site_fract_x
_atom_site_fract_y
_atom_site_fract_z
Si Si1 0.989323 0.604129 0.654098
Si Si2 0.802408 0.391312 0.821081
Si Si3 0.858426 0.782972 0.813387
Si Si4 0.037205 0.348059 0.513337
Si Si5 0.597991 0.851651 0.809050
Si Si6 0.500000 0.448589 0.750000
Si Si7 0.167593 0.917135 0.378772
Si Si8 0.911566 0.099579 0.484056
O O1 0.121923 0.340148 0.596728
O O2 0.093716 0.642897 0.654182
O O3 0.935403 0.682375 0.570073
O O4 0.000000 0.628056 0.750000
O O5 0.727999 0.282415 0.768907
O O6 0.853610 0.418228 0.752732
O O7 0.742762 0.502915 0.849454
O O8 0.853672 0.871167 0.889642
O O9 0.937926 0.860881 0.788849
O O10 0.937729 0.463249 0.641713
O O11 0.960988 0.240056 0.517124
O O12 0.000000 0.500000 0.500000
O O13 0.500000 0.794004 0.750000
O O14 0.664617 0.738486 0.859993
O O15 0.431050 0.531719 0.678897
O O16 0.160833 0.940316 0.468959
O O17 0.000000 0.000000 0.500000
#
# Coordination Sequence:
#
# PCOD9260903 Si02
#       8
#     8   8   8   8   8   4   8   8
#     4  10  21  40  70  95 132 187 231 283 355 440
#     4  11  27  44  68 110 140 189 244 311 354 427
#     4  10  22  42  71 103 140 180 245 294 358 425
#     4  11  24  44  68 100 144 193 239 290 369 442
#     4  11  23  43  70 101 139 195 237 290 371 442
#     4  10  18  38  68  98 138 192 218 296 364 430
#     4  11  23  42  70 102 145 181 248 302 360 428
#     4  11  23  44  73 104 139 196 242 295 371 447
#
# _framework density 23.994841000000001
#
# number of rings (size 3 to 8) (size 9 to 14) (size 15 to 20)
#    0.000    1.333    2.667    3.200    0.000    5.333 
#    0.000    4.667    0.000    0.000    0.000    0.000 
#    0.000    0.000    0.000    0.000    0.000    0.000 
#
# Total GULP energy -167291.491610 kJ/mol
# GULP energy per Si atom -5576.383054 kJ/mol
# Density = 2.394023 g / cm^3
# Si number density = 23.994841 Si / 1000 Ang^3
#
#
#
# Elastic Constant Matrix: (Units=GPa)
#
#
# Indices 1 2 3 4 5 6 
#
# 1 84.5800 13.1983 30.2639 0.0000 6.3345 0.0000
# 2 13.1983 78.2750 12.6697 0.0000 -4.0839 0.0000
# 3 30.2639 12.6697 147.2619 0.0000 1.5736 0.0000
# 4 0.0000 0.0000 0.0000 27.2825 0.0000 1.0619
# 5 6.3345 -4.0839 1.5736 0.0000 51.3552 0.0000
# 6 0.0000 0.0000 0.0000 1.0619 0.0000 16.6488
#
#
#
# Elastic Compliance Matrix: (Units=1/GPa)
#
#
# Indices 1 2 3 4 5 6 
#
# 1 0.013148 -0.001897 -0.002521 0.000000 -0.001695 0.000000
# 2 -0.001897 0.013288 -0.000767 0.000000 0.001314 0.000000
# 3 -0.002521 -0.000767 0.007374 0.000000 0.000024 0.000000
# 4 0.000000 0.000000 0.000000 0.036745 0.000000 -0.002344
# 5 -0.001695 0.001314 0.000024 0.000000 0.019785 0.000000
# 6 0.000000 0.000000 0.000000 -0.002344 0.000000 0.060214
#
#
# Mechanical properties :
#
#
# Convention : Reuss Voigt Hill
#
# Bulk Modulus (GPa) = 42.66256 46.93118 44.79687
# Shear Modulus (GPa) = 29.63159 35.98963 32.81061
#
# Velocity S-wave (km/s) = 3.51795 3.87704 3.70185
# Velocity P-wave (km/s) = 5.85831 6.29629 6.08124
#
# Compressibility (1/GPa) = 0.02343976
#
# Stress axis : x y z
#
# Youngs Moduli (GPa) = 76.05641 75.25488 135.60390
#
# Poissons Ratio (x) = 0.14279 0.34182
# Poissons Ratio (y) = 0.14431 0.10406
# Poissons Ratio (z) = 0.19172 0.05775
#
# Static dielectric constant tensor:
#      x y z
#    x 1.941010 0.000000 -0.041060 
#    y 0.000000 2.028030 0.000000 
#    z -0.041060 0.000000 1.990130 
# 
# From -- ./inp_files/204035.got.cif
#   From: 2010.05.17/outbox.cif.g08.bks.cpg/sg15_103_cif.got.tgz:204035.got - 2010.06.03 18:47:42.
