data_PCOD9260213
_publ_section_title
;
Structure prediction by ZEFSAII (Michael W. Deem and Ramdas Pophale) SiO2 
 PCOD9260213
Probable space group: C 2/C
;
_chemical_formula_sum "Si O2"
_cell_formula_units_Z 48
_cell_length_a 24.019413
_cell_length_b 11.304735
_cell_length_c 13.462773
_cell_angle_alpha 90.000000
_cell_angle_beta 30.873040
_cell_angle_gamma 90.000000
_cell_volume 1875.819312
_symmetry_space_group_name_H-M "C 2/C"
_symmetry_group_IT_number 15
_symmetry_cell_setting 'monoclinic'
loop_
_space_group_symop_operation_xyz
x,y,z
-x,y,1/2-z
-x,-y,-z
x,-y,1/2+z
1/2+x,1/2+y,z
1/2-x,1/2+y,1/2-z
1/2-x,1/2-y,-z
1/2+x,1/2-y,1/2+z
loop_
_atom_site_type_symbol
_atom_site_label
_atom_site_fract_x
_atom_site_fract_y
_atom_site_fract_z
Si Si1 0.896908 0.374751 0.660872
Si Si2 0.483851 0.320747 0.170976
Si Si3 0.923771 0.556060 0.777333
Si Si4 0.702303 0.522819 0.342985
Si Si5 0.624008 0.313237 0.598000
Si Si6 0.878879 0.989656 0.733832
O O1 0.944972 0.258704 0.639775
O O2 0.864355 0.454456 0.806793
O O3 0.795720 0.393700 0.742870
O O4 0.995066 0.405630 0.436105
O O5 0.500000 0.253921 0.250000
O O6 0.390219 0.420685 0.309379
O O7 0.596366 0.393265 0.997447
O O8 0.862595 0.672413 0.911899
O O9 0.000000 0.513800 0.750000
O O10 0.691949 0.399557 0.421001
O O11 0.707904 0.483333 0.218413
O O12 0.500000 0.328955 0.750000
O O13 0.633763 0.364762 0.693736
O O14 0.000000 0.000000 0.500000
#
# Coordination Sequence:
#
# PCOD9260213 Si02
#       6
#     8   8   8   8   8   8
#     4  11  26  45  63 106 146 185 236 298 379 426
#     4  11  21  43  68  95 140 187 232 302 358 427
#     4  10  24  46  68  92 145 197 227 294 368 439
#     4  11  23  40  69 107 135 183 252 300 353 426
#     4  11  19  40  71  99 130 184 246 291 355 420
#     4  10  18  36  64  98 130 174 231 305 339 409
#
# _framework density 25.588819000000001
#
# number of rings (size 3 to 8) (size 9 to 14) (size 15 to 20)
#    0.000    1.333    5.000    2.500    2.333    2.667 
#    9.000    0.000    0.000    0.000    0.000    0.000 
#    0.000    0.000    0.000    0.000    0.000    0.000 
#
# Total GULP energy -133838.352197 kJ/mol
# GULP energy per Si atom -5576.598008 kJ/mol
# Density = 2.553058 g / cm^3
# Si number density = 25.588819 Si / 1000 Ang^3
#
#
#
# Elastic Constant Matrix: (Units=GPa)
#
#
# Indices 1 2 3 4 5 6 
#
# 1 189.7104 56.7880 29.6137 0.0000 -15.2906 0.0000
# 2 56.7880 103.9374 30.7257 0.0000 -3.6893 0.0000
# 3 29.6137 30.7257 62.2728 0.0000 -7.2259 0.0000
# 4 0.0000 0.0000 0.0000 7.6053 0.0000 2.2837
# 5 -15.2906 -3.6893 -7.2259 0.0000 38.6899 0.0000
# 6 0.0000 0.0000 0.0000 2.2837 0.0000 50.7803
#
#
#
# Elastic Compliance Matrix: (Units=1/GPa)
#
#
# Indices 1 2 3 4 5 6 
#
# 1 0.006583 -0.003124 -0.001351 0.000000 0.002051 0.000000
# 2 -0.003124 0.012747 -0.004912 0.000000 -0.000937 0.000000
# 3 -0.001351 -0.004912 0.019429 0.000000 0.002626 0.000000
# 4 0.000000 0.000000 0.000000 0.133287 0.000000 -0.005994
# 5 0.002051 -0.000937 0.002626 0.000000 0.027058 0.000000
# 6 0.000000 0.000000 0.000000 -0.005994 0.000000 0.019962
#
#
# Mechanical properties :
#
#
# Convention : Reuss Voigt Hill
#
# Bulk Modulus (GPa) = 50.04005 65.57506 57.80755
# Shear Modulus (GPa) = 20.44965 35.33465 27.89215
#
# Velocity S-wave (km/s) = 2.83002 3.72003 3.30512
# Velocity P-wave (km/s) = 5.50241 6.64331 6.09959
#
# Compressibility (1/GPa) = 0.01998399
#
# Stress axis : x y z
#
# Youngs Moduli (GPa) = 151.91459 78.44847 51.46865
#
# Poissons Ratio (x) = 0.24511 0.06952
# Poissons Ratio (y) = 0.47465 0.25284
# Poissons Ratio (z) = 0.20520 0.38537
#
# Static dielectric constant tensor:
#      x y z
#    x 2.180130 0.000000 0.050340 
#    y 0.000000 2.160400 0.000000 
#    z 0.050340 0.000000 2.125910 
# 
# From -- ./inp_files/167832.got.cif
#   From: 2010.05.17/outbox.cif.g08.bks.cpg/sg15_84_cif.got.tgz:167832.got - 2010.06.03 18:47:42.
