data_PCOD9260542
_publ_section_title
;
Structure prediction by ZEFSAII (Michael W. Deem and Ramdas Pophale) SiO2 
 PCOD9260542
Probable space group: C 2/C
;
_chemical_formula_sum "Si O2"
_cell_formula_units_Z 56
_cell_length_a 12.251135
_cell_length_b 28.531115
_cell_length_c 8.591145
_cell_angle_alpha 90.000000
_cell_angle_beta 130.927013
_cell_angle_gamma 90.000000
_cell_volume 2268.852593
_symmetry_space_group_name_H-M "C 2/C"
_symmetry_group_IT_number 15
_symmetry_cell_setting 'monoclinic'
loop_
_space_group_symop_operation_xyz
x,y,z
-x,y,1/2-z
-x,-y,-z
x,-y,1/2+z
1/2+x,1/2+y,z
1/2-x,1/2+y,1/2-z
1/2-x,1/2-y,-z
1/2+x,1/2-y,1/2+z
loop_
_atom_site_type_symbol
_atom_site_label
_atom_site_fract_x
_atom_site_fract_y
_atom_site_fract_z
Si Si1 0.296665 0.469796 0.402182
Si Si2 0.000000 0.676856 0.750000
Si Si3 0.890974 0.483597 0.530409
Si Si4 0.760112 0.274565 0.808686
Si Si5 0.841528 0.837568 0.042281
Si Si6 0.243628 0.161496 0.701563
Si Si7 0.500000 0.677171 0.250000
Si Si8 0.935681 0.067245 0.512546
O O1 0.194956 0.474029 0.459138
O O2 0.322300 0.525377 0.401260
O O3 0.452810 0.446221 0.521933
O O4 0.217642 0.453051 0.172054
O O5 0.110457 0.647611 0.748371
O O6 0.895249 0.706360 0.535746
O O7 0.000000 0.458677 0.750000
O O8 0.000000 0.500000 0.500000
O O9 0.750279 0.298588 0.631551
O O10 0.759689 0.218711 0.797601
O O11 0.612366 0.292070 0.753706
O O12 0.769473 0.853778 0.134409
O O13 0.867375 0.881237 0.950351
O O14 0.000000 0.820335 0.250000
O O15 0.106996 0.149668 0.465365
O O16 0.000000 0.063609 0.750000
#
# Coordination Sequence:
#
# PCOD9260542 Si02
#       8
#     8   4   8   8   8   8   4   8
#     4  10  18  37  66  92 123 157 214 264 315 389
#     4  10  23  36  68  88 126 172 228 282 328 402
#     4   9  18  32  61  98 126 158 200 255 311 389
#     4  11  20  38  62  96 126 173 227 281 338 400
#     4  11  24  39  61  91 130 171 215 281 348 389
#     4  11  20  38  64  94 128 171 227 283 334 405
#     4  10  19  36  62  96 122 168 228 286 332 400
#     4  10  21  37  63  90 119 162 208 278 329 373
#
# _framework density 24.682078000000001
#
# number of rings (size 3 to 8) (size 9 to 14) (size 15 to 20)
#    0.000    1.714    2.857    3.857    0.000    0.571 
#    0.000    1.429   11.000    0.000    0.000    0.000 
#    0.000    0.000    0.000    0.000    0.000    0.000 
#
# Total GULP energy -156353.399714 kJ/mol
# GULP energy per Si atom -5584.049990 kJ/mol
# Density = 2.462590 g / cm^3
# Si number density = 24.682078 Si / 1000 Ang^3
#
#
#
# Elastic Constant Matrix: (Units=GPa)
#
#
# Indices 1 2 3 4 5 6 
#
# 1 198.2679 26.4256 33.8765 0.0000 -11.9020 0.0000
# 2 26.4256 61.7915 24.0181 0.0000 -6.4412 0.0000
# 3 33.8765 24.0181 93.8361 0.0000 -10.1924 0.0000
# 4 0.0000 0.0000 0.0000 -7.9861 0.0000 -8.9373
# 5 -11.9020 -6.4412 -10.1924 0.0000 41.5371 0.0000
# 6 0.0000 0.0000 0.0000 -8.9373 0.0000 18.6589
#
#
#
# Elastic Compliance Matrix: (Units=1/GPa)
#
#
# Indices 1 2 3 4 5 6 
#
# 1 0.005582 -0.001714 -0.001471 0.000000 0.000973 0.000000
# 2 -0.001714 0.018616 -0.003992 0.000000 0.001416 0.000000
# 3 -0.001471 -0.003992 0.012428 0.000000 0.002009 0.000000
# 4 0.000000 0.000000 0.000000 -0.081520 0.000000 -0.039047
# 5 0.000973 0.001416 0.002009 0.000000 0.025066 0.000000
# 6 0.000000 0.000000 0.000000 -0.039047 0.000000 0.034891
#
#
# Mechanical properties :
#
#
# Convention : Reuss Voigt Hill
#
# Bulk Modulus (GPa) = 44.90047 58.05953 51.48000
# Shear Modulus (GPa) = 135.71934 28.41367 82.06651
#
# Velocity S-wave (km/s) = 7.42337 3.39659 5.77249
# Velocity P-wave (km/s) = 9.57633 6.24151 8.08278
#
# Compressibility (1/GPa) = 0.02227148
#
# Stress axis : x y z
#
# Youngs Moduli (GPa) = 179.15310 53.71762 80.46399
#
# Poissons Ratio (x) = 0.09207 0.11834
# Poissons Ratio (y) = 0.30707 0.32123
# Poissons Ratio (z) = 0.26349 0.21446
#
# Static dielectric constant tensor:
#      x y z
#    x 2.021700 0.000000 -0.005180 
#    y 0.000000 1.992390 0.000000 
#    z -0.005180 0.000000 2.033840 
# 
# From -- ./inp_files/44634.got.cif
#   From: 2010.05.17/outbox.cif.g08.bks.cpg/sg15_23_cif.got.tgz:44634.got - 2010.06.03 18:47:42.
