data_PCOD9260692
_publ_section_title
;
Structure prediction by ZEFSAII (Michael W. Deem and Ramdas Pophale) SiO2 
 PCOD9260692
Probable space group: C 2/C
;
_chemical_formula_sum "Si O2"
_cell_formula_units_Z 36
_cell_length_a 20.039704
_cell_length_b 13.844330
_cell_length_c 5.307280
_cell_angle_alpha 90.000000
_cell_angle_beta 91.568653
_cell_angle_gamma 90.000000
_cell_volume 1471.880189
_symmetry_space_group_name_H-M "C 2/C"
_symmetry_group_IT_number 15
_symmetry_cell_setting 'monoclinic'
loop_
_space_group_symop_operation_xyz
x,y,z
-x,y,1/2-z
-x,-y,-z
x,-y,1/2+z
1/2+x,1/2+y,z
1/2-x,1/2+y,1/2-z
1/2-x,1/2-y,-z
1/2+x,1/2-y,1/2+z
loop_
_atom_site_type_symbol
_atom_site_label
_atom_site_fract_x
_atom_site_fract_y
_atom_site_fract_z
Si Si1 0.808114 0.397726 0.932179
Si Si2 0.247286 0.615970 0.572692
Si Si3 0.040698 0.626507 0.012830
Si Si4 0.893374 0.937858 0.975108
Si Si5 0.000000 0.811700 0.250000
O O1 0.771610 0.501475 0.902150
O O2 0.797105 0.347547 0.663135
O O3 0.885607 0.415288 0.997442
O O4 0.774914 0.343617 0.162262
O O5 0.324692 0.619433 0.514259
O O6 0.000000 0.584744 0.250000
O O7 0.046680 0.739101 0.095374
O O8 0.000000 0.622378 0.750000
O O9 0.956838 0.874348 0.054659
O O10 0.893771 0.021190 0.192051
#
# Coordination Sequence:
#
# PCOD9260692 Si02
#       5
#     8   8   8   8   4
#     4  10  18  38  61  87 124 154 198 250 298 352
#     4  10  19  36  62  92 119 148 201 258 301 344
#     4  10  23  42  59  84 127 165 204 237 292 368
#     4  12  22  41  65  95 120 150 203 255 307 351
#     4  10  28  40  64  86 126 166 200 242 298 362
#
# _framework density 24.458511000000001
#
# number of rings (size 3 to 8) (size 9 to 14) (size 15 to 20)
#    0.667    0.889    4.444    2.000    3.111    0.000 
#    0.000   15.556    0.000    0.000    0.000    0.000 
#    0.000    0.000    0.000    0.000    0.000    0.000 
#
# Total GULP energy -100686.441859 kJ/mol
# GULP energy per Si atom -5593.691214 kJ/mol
# Density = 2.440284 g / cm^3
# Si number density = 24.458511 Si / 1000 Ang^3
#
#
#
# Elastic Constant Matrix: (Units=GPa)
#
#
# Indices 1 2 3 4 5 6 
#
# 1 79.0130 9.8783 -17.1227 0.0000 16.3997 0.0000
# 2 9.8783 53.5618 0.4174 0.0000 -1.8924 0.0000
# 3 -17.1227 0.4174 144.8947 0.0000 5.5366 0.0000
# 4 0.0000 0.0000 0.0000 -1.0508 0.0000 -7.0602
# 5 16.3997 -1.8924 5.5366 0.0000 44.5403 0.0000
# 6 0.0000 0.0000 0.0000 -7.0602 0.0000 -13.2377
#
#
#
# Elastic Compliance Matrix: (Units=1/GPa)
#
#
# Indices 1 2 3 4 5 6 
#
# 1 0.014641 -0.002919 0.001959 0.000000 -0.005758 0.000000
# 2 -0.002919 0.019281 -0.000475 0.000000 0.001953 0.000000
# 3 0.001959 -0.000475 0.007197 0.000000 -0.001636 0.000000
# 4 0.000000 0.000000 0.000000 0.368378 0.000000 -0.196470
# 5 -0.005758 0.001953 -0.001636 0.000000 0.024858 0.000000
# 6 0.000000 0.000000 0.000000 -0.196470 0.000000 0.029243
#
#
# Mechanical properties :
#
#
# Convention : Reuss Voigt Hill
#
# Bulk Modulus (GPa) = 26.14529 29.31283 27.72906
# Shear Modulus (GPa) = 10.43367 25.00346 17.71857
#
# Velocity S-wave (km/s) = 2.06764 3.20078 2.69445
# Velocity P-wave (km/s) = 4.05130 5.06663 4.58714
#
# Compressibility (1/GPa) = 0.03824780
#
# Stress axis : x y z
#
# Youngs Moduli (GPa) = 68.30302 51.86438 138.94879
#
# Poissons Ratio (x) = 0.15139 -0.27214
# Poissons Ratio (y) = 0.19937 0.06601
# Poissons Ratio (z) = -0.13378 0.02464
#
# Static dielectric constant tensor:
#      x y z
#    x 1.859530 0.000000 -0.042950 
#    y 0.000000 2.040260 0.000000 
#    z -0.042950 0.000000 1.993500 
# 
# From -- ./inp_files/9725.got.cif
#   From: 2010.05.17/outbox.cif.g08.bks.cpg/sg15_5_cif.got.tgz:9725.got - 2010.06.03 18:47:42.
