data_PCOD9260937
_publ_section_title
;
Structure prediction by ZEFSAII (Michael W. Deem and Ramdas Pophale) SiO2 
 PCOD9260937
Probable space group: C 2/C
;
_chemical_formula_sum "Si O2"
_cell_formula_units_Z 60
_cell_length_a 7.495855
_cell_length_b 17.521535
_cell_length_c 26.454223
_cell_angle_alpha 90.000000
_cell_angle_beta 132.485363
_cell_angle_gamma 90.000000
_cell_volume 2562.246212
_symmetry_space_group_name_H-M "C 2/C"
_symmetry_group_IT_number 15
_symmetry_cell_setting 'monoclinic'
loop_
_space_group_symop_operation_xyz
x,y,z
-x,y,1/2-z
-x,-y,-z
x,-y,1/2+z
1/2+x,1/2+y,z
1/2-x,1/2+y,1/2-z
1/2-x,1/2-y,-z
1/2+x,1/2-y,1/2+z
loop_
_atom_site_type_symbol
_atom_site_label
_atom_site_fract_x
_atom_site_fract_y
_atom_site_fract_z
Si Si1 0.678602 0.556296 0.004225
Si Si2 0.500000 0.065001 0.750000
Si Si3 0.934374 0.194510 0.679105
Si Si4 0.297523 0.664303 0.870917
Si Si5 0.391222 0.229776 0.475249
Si Si6 0.749463 0.428522 0.944224
Si Si7 0.027586 0.021806 0.814600
Si Si8 0.701336 0.662953 0.089664
O O1 0.501364 0.609860 0.935918
O O2 0.811847 0.496780 0.994010
O O3 0.500000 0.500000 0.000000
O O4 0.821753 0.599079 0.076876
O O5 0.563679 0.114661 0.812066
O O6 0.753993 0.024737 0.785838
O O7 0.806407 0.276673 0.648858
O O8 0.000000 0.191702 0.750000
O O9 0.122135 0.196578 0.668130
O O10 0.846267 0.105866 0.654615
O O11 0.256211 0.731928 0.902582
O O12 0.250000 0.250000 0.500000
O O13 0.631741 0.276523 0.531914
O O14 0.436651 0.141022 0.477482
O O15 0.669122 0.461392 0.875359
O O16 0.516427 0.382788 0.924320
O O17 0.000000 0.005246 0.750000
#
# Coordination Sequence:
#
# PCOD9260937 Si02
#       8
#     8   4   8   8   8   8   8   8
#     4   9  17  34  61  87 116 162 205 260 313 378
#     4  10  20  40  70  86 124 182 216 246 330 398
#     4  10  21  40  63  88 126 163 216 268 313 378
#     4  10  20  38  62  89 117 168 220 251 316 393
#     4   9  20  35  59  88 121 160 207 260 320 373
#     4  10  18  39  58  90 127 162 205 270 320 368
#     4  10  22  41  64  92 131 171 212 267 319 383
#     4   9  20  37  64  85 118 165 212 255 319 389
#
# _framework density 23.416955000000002
#
# number of rings (size 3 to 8) (size 9 to 14) (size 15 to 20)
#    0.000    2.400    2.667    0.800    0.000    8.533 
#    4.800    0.667    2.933    0.000    0.000    0.000 
#    0.000    0.000    0.000    0.000    0.000    0.000 
#
# Total GULP energy -167102.807997 kJ/mol
# GULP energy per Si atom -5570.093600 kJ/mol
# Density = 2.336366 g / cm^3
# Si number density = 23.416955 Si / 1000 Ang^3
#
#
#
# Elastic Constant Matrix: (Units=GPa)
#
#
# Indices 1 2 3 4 5 6 
#
# 1 79.0522 28.8332 24.1871 -0.0001 -20.8963 -0.0001
# 2 28.8332 152.9575 57.0348 0.0000 -18.6847 0.0000
# 3 24.1871 57.0348 108.3492 -0.0001 -30.9587 -0.0001
# 4 -0.0001 0.0000 -0.0001 57.4168 -0.0001 -5.7105
# 5 -20.8963 -18.6847 -30.9587 -0.0001 42.7435 -0.0001
# 6 -0.0001 0.0000 -0.0001 -5.7105 -0.0001 19.1301
#
#
#
# Elastic Compliance Matrix: (Units=1/GPa)
#
#
# Indices 1 2 3 4 5 6 
#
# 1 0.015147 -0.001865 -0.000651 0.000000 0.006118 0.000000
# 2 -0.001865 0.008375 -0.004044 0.000000 -0.000179 0.000000
# 3 -0.000651 -0.004044 0.013754 0.000000 0.007876 0.000000
# 4 0.000000 0.000000 0.000000 0.017949 0.000000 0.005358
# 5 0.006118 -0.000179 0.007876 0.000000 0.032012 0.000000
# 6 0.000000 0.000000 0.000000 0.005358 0.000000 0.053873
#
#
# Mechanical properties :
#
#
# Convention : Reuss Voigt Hill
#
# Bulk Modulus (GPa) = 41.39880 62.27436 51.83658
# Shear Modulus (GPa) = 30.81062 39.21167 35.01115
#
# Velocity S-wave (km/s) = 3.63125 4.09650 3.87087
# Velocity P-wave (km/s) = 5.94127 7.00190 6.49327
#
# Compressibility (1/GPa) = 0.02415529
#
# Stress axis : x y z
#
# Youngs Moduli (GPa) = 66.02165 119.40029 72.70768
#
# Poissons Ratio (x) = 0.22268 0.04737
# Poissons Ratio (y) = 0.12313 0.29400
# Poissons Ratio (z) = 0.04301 0.48281
#
# Static dielectric constant tensor:
#      x y z
#    x 1.975630 0.000000 0.062880 
#    y 0.000000 1.988160 0.000000 
#    z 0.062880 0.000000 1.936840 
# 
# From -- ./inp_files/289594.got.cif
#   From: 2010.05.17/outbox.cif.g08.bks.cpg/sg15_145_cif.got.tgz:289594.got - 2010.06.03 18:47:42.
