data_PCOD9260438
_publ_section_title
;
Structure prediction by ZEFSAII (Michael W. Deem and Ramdas Pophale) SiO2 
 PCOD9260438
Probable space group: C 2/C
;
_chemical_formula_sum "Si O2"
_cell_formula_units_Z 56
_cell_length_a 9.793875
_cell_length_b 16.153360
_cell_length_c 24.121998
_cell_angle_alpha 90.000000
_cell_angle_beta 37.585993
_cell_angle_gamma 90.000000
_cell_volume 2327.694488
_symmetry_space_group_name_H-M "C 2/C"
_symmetry_group_IT_number 15
_symmetry_cell_setting 'monoclinic'
loop_
_space_group_symop_operation_xyz
x,y,z
-x,y,1/2-z
-x,-y,-z
x,-y,1/2+z
1/2+x,1/2+y,z
1/2-x,1/2+y,1/2-z
1/2-x,1/2-y,-z
1/2+x,1/2-y,1/2+z
loop_
_atom_site_type_symbol
_atom_site_label
_atom_site_fract_x
_atom_site_fract_y
_atom_site_fract_z
Si Si1 0.279872 0.788788 0.782055
Si Si2 0.838809 0.389128 0.131321
Si Si3 0.317875 0.996309 0.432769
Si Si4 0.316750 0.620883 0.936410
Si Si5 0.079574 0.121833 0.436009
Si Si6 0.601303 0.771761 0.879297
Si Si7 0.853964 0.280648 0.523659
O O1 0.500000 0.796377 0.750000
O O2 0.200325 0.693775 0.819987
O O3 0.117490 0.858938 0.859454
O O4 0.321859 0.803802 0.704506
O O5 0.664337 0.393886 0.136326
O O6 0.929542 0.465672 0.137700
O O7 0.055098 0.369492 0.022461
O O8 0.155766 0.919041 0.471639
O O9 0.205471 0.035875 0.523704
O O10 0.270381 0.064788 0.400976
O O11 0.517068 0.679436 0.892045
O O12 0.098830 0.670196 0.031958
O O13 0.064378 0.215903 0.463673
O O14 0.768017 0.773595 0.878559
O O15 0.750000 0.250000 0.500000
#
# Coordination Sequence:
#
# PCOD9260438 Si02
#       7
#     8   8   8   8   8   8   8
#     4  11  21  39  63  91 128 165 211 260 319 380
#     4  10  21  34  63  91 120 159 204 267 306 371
#     4  11  20  37  61  93 124 159 213 253 323 380
#     4  10  19  36  61  90 113 162 214 263 302 380
#     4  10  22  36  63  90 123 168 205 262 313 387
#     4  10  20  36  63  91 117 162 222 260 310 382
#     4  10  18  37  62  87 119 158 217 262 297 368
#
# _framework density 24.058140999999999
#
# number of rings (size 3 to 8) (size 9 to 14) (size 15 to 20)
#    0.000    1.714    4.286    1.286    0.000    0.000 
#    0.000    5.714    3.143    0.000    0.000    0.000 
#    0.000    0.000    0.000    0.000    0.000    0.000 
#
# Total GULP energy -155979.616006 kJ/mol
# GULP energy per Si atom -5570.700572 kJ/mol
# Density = 2.400338 g / cm^3
# Si number density = 24.058141 Si / 1000 Ang^3
#
#
#
# Elastic Constant Matrix: (Units=GPa)
#
#
# Indices 1 2 3 4 5 6 
#
# 1 95.5081 13.5162 34.9010 0.0008 34.6815 0.0006
# 2 13.5162 72.3243 18.9797 -0.0006 7.2015 0.0004
# 3 34.9010 18.9797 93.0634 -0.0026 41.6603 0.0002
# 4 0.0008 -0.0006 -0.0026 31.8355 -0.0005 0.3656
# 5 34.6815 7.2015 41.6603 -0.0005 49.9099 0.0000
# 6 0.0006 0.0004 0.0002 0.3656 0.0000 45.2797
#
#
#
# Elastic Compliance Matrix: (Units=1/GPa)
#
#
# Indices 1 2 3 4 5 6 
#
# 1 0.014276 -0.001500 -0.001124 -0.000001 -0.008766 0.000000
# 2 -0.001500 0.014778 -0.003135 0.000000 0.001527 0.000000
# 3 -0.001124 -0.003135 0.017968 0.000001 -0.013765 0.000000
# 4 -0.000001 0.000000 0.000001 0.031414 0.000000 -0.000254
# 5 -0.008766 0.001527 -0.013765 0.000000 0.037397 0.000000
# 6 0.000000 0.000000 0.000000 -0.000254 0.000000 0.022087
#
#
# Mechanical properties :
#
#
# Convention : Reuss Voigt Hill
#
# Bulk Modulus (GPa) = 28.16559 43.96551 36.06555
# Shear Modulus (GPa) = 31.00342 38.30494 34.65418
#
# Velocity S-wave (km/s) = 3.59372 3.99454 3.79942
# Velocity P-wave (km/s) = 5.38075 6.29202 5.85415
#
# Compressibility (1/GPa) = 0.03550432
#
# Stress axis : x y z
#
# Youngs Moduli (GPa) = 70.04547 67.67011 55.65427
#
# Poissons Ratio (x) = 0.10152 0.06256
# Poissons Ratio (y) = 0.10508 0.17446
# Poissons Ratio (z) = 0.07873 0.21212
#
# Static dielectric constant tensor:
#      x y z
#    x 2.193470 0.000000 -0.042010 
#    y 0.000000 1.897010 0.000000 
#    z -0.042010 0.000000 2.046090 
# 
# From -- ./inp_files/270202.got.cif
#   From: 2010.05.17/outbox.cif.g08.bks.cpg/sg15_136_cif.got.tgz:270202.got - 2010.06.03 18:47:42.
