data_PCOD9260526
_publ_section_title
;
Structure prediction by ZEFSAII (Michael W. Deem and Ramdas Pophale) SiO2 
 PCOD9260526
Probable space group: C 2/C
;
_chemical_formula_sum "Si O2"
_cell_formula_units_Z 48
_cell_length_a 10.132616
_cell_length_b 14.604024
_cell_length_c 19.358404
_cell_angle_alpha 90.000000
_cell_angle_beta 133.027828
_cell_angle_gamma 90.000000
_cell_volume 2094.085172
_symmetry_space_group_name_H-M "C 2/C"
_symmetry_group_IT_number 15
_symmetry_cell_setting 'monoclinic'
loop_
_space_group_symop_operation_xyz
x,y,z
-x,y,1/2-z
-x,-y,-z
x,-y,1/2+z
1/2+x,1/2+y,z
1/2-x,1/2+y,1/2-z
1/2-x,1/2-y,-z
1/2+x,1/2-y,1/2+z
loop_
_atom_site_type_symbol
_atom_site_label
_atom_site_fract_x
_atom_site_fract_y
_atom_site_fract_z
Si Si1 0.473494 0.482610 0.408530
Si Si2 0.805521 0.340302 0.146686
Si Si3 0.033636 0.303880 0.504157
Si Si4 0.706834 0.673253 0.164541
Si Si5 0.470346 0.840465 0.627734
Si Si6 0.132077 0.475283 0.459872
O O1 0.500000 0.500000 0.500000
O O2 0.339607 0.395867 0.357169
O O3 0.383279 0.576185 0.349867
O O4 0.676898 0.476303 0.452154
O O5 0.826700 0.405390 0.087759
O O6 0.000000 0.328887 0.250000
O O7 0.720433 0.246164 0.088981
O O8 0.056529 0.408875 0.491413
O O9 0.938357 0.248611 0.408751
O O10 0.927365 0.296276 0.538679
O O11 0.823527 0.660983 0.135868
O O12 0.846431 0.699150 0.274125
O O13 0.495154 0.947374 0.617596
#
# Coordination Sequence:
#
# PCOD9260526 Si02
#       6
#     8   8   8   8   8   8
#     4  10  18  37  65  92 119 167 220 263 306 384
#     4  11  22  38  66  98 123 173 226 261 313 400
#     4  12  25  39  65 101 138 161 211 291 335 367
#     4  11  22  43  66  93 127 179 223 267 311 401
#     4  11  24  42  66  94 130 176 222 258 332 399
#     4  11  22  41  66  94 130 173 213 271 331 387
#
# _framework density 22.921703999999998
#
# number of rings (size 3 to 8) (size 9 to 14) (size 15 to 20)
#    0.000    1.000    6.667    2.500    2.333    0.000 
#    0.000    0.000    0.000    0.000    0.000    0.000 
#    0.000    0.000    0.000    0.000    0.000    0.000 
#
# Total GULP energy -134129.719973 kJ/mol
# GULP energy per Si atom -5588.738332 kJ/mol
# Density = 2.286953 g / cm^3
# Si number density = 22.921704 Si / 1000 Ang^3
#
#
#
# Elastic Constant Matrix: (Units=GPa)
#
#
# Indices 1 2 3 4 5 6 
#
# 1 62.0866 12.5924 44.5232 0.0000 0.9765 0.0000
# 2 12.5924 104.9672 52.7304 0.0000 10.8792 0.0000
# 3 44.5232 52.7304 103.0288 0.0000 27.4592 0.0000
# 4 0.0000 0.0000 0.0000 25.6390 0.0000 2.8588
# 5 0.9765 10.8792 27.4592 0.0000 33.8937 0.0000
# 6 0.0000 0.0000 0.0000 2.8588 0.0000 30.8996
#
#
#
# Elastic Compliance Matrix: (Units=1/GPa)
#
#
# Indices 1 2 3 4 5 6 
#
# 1 0.027262 0.004038 -0.016954 0.000000 0.011654 0.000000
# 2 0.004038 0.013485 -0.009517 0.000000 0.003266 0.000000
# 3 -0.016954 -0.009517 0.026731 0.000000 -0.018113 0.000000
# 4 0.000000 0.000000 0.000000 0.039410 0.000000 -0.003646
# 5 0.011654 0.003266 -0.018113 0.000000 0.042794 0.000000
# 6 0.000000 0.000000 0.000000 -0.003646 0.000000 0.032700
#
#
# Mechanical properties :
#
#
# Convention : Reuss Voigt Hill
#
# Bulk Modulus (GPa) = 44.22309 54.41939 49.32124
# Shear Modulus (GPa) = 21.29615 28.76892 25.03253
#
# Velocity S-wave (km/s) = 3.05139 3.54658 3.30826
# Velocity P-wave (km/s) = 5.63468 6.36898 6.01305
#
# Compressibility (1/GPa) = 0.02261262
#
# Stress axis : x y z
#
# Youngs Moduli (GPa) = 36.68103 74.15783 37.40999
#
# Poissons Ratio (x) = -0.29949 0.63425
# Poissons Ratio (y) = -0.14814 0.35603
# Poissons Ratio (z) = 0.62189 0.70577
#
# Static dielectric constant tensor:
#      x y z
#    x 1.936690 0.000000 0.008580 
#    y 0.000000 1.858660 0.000000 
#    z 0.008580 0.000000 1.831730 
# 
# From -- ./inp_files/239027.got.cif
#   From: 2010.05.17/outbox.cif.g08.bks.cpg/sg15_120_cif.got.tgz:239027.got - 2010.06.03 18:47:42.
