data_PCOD9260080
_publ_section_title
;
Structure prediction by ZEFSAII (Michael W. Deem and Ramdas Pophale) SiO2 
 PCOD9260080
Probable space group: C 2/C
;
_chemical_formula_sum "Si O2"
_cell_formula_units_Z 44
_cell_length_a 17.714709
_cell_length_b 6.984573
_cell_length_c 14.964518
_cell_angle_alpha 90.000000
_cell_angle_beta 76.698789
_cell_angle_gamma 90.000000
_cell_volume 1801.885201
_symmetry_space_group_name_H-M "C 2/C"
_symmetry_group_IT_number 15
_symmetry_cell_setting 'monoclinic'
loop_
_space_group_symop_operation_xyz
x,y,z
-x,y,1/2-z
-x,-y,-z
x,-y,1/2+z
1/2+x,1/2+y,z
1/2-x,1/2+y,1/2-z
1/2-x,1/2-y,-z
1/2+x,1/2-y,1/2+z
loop_
_atom_site_type_symbol
_atom_site_label
_atom_site_fract_x
_atom_site_fract_y
_atom_site_fract_z
Si Si1 0.723806 0.811051 0.882447
Si Si2 0.549828 0.209284 0.427586
Si Si3 0.264011 0.625562 0.171416
Si Si4 0.500000 0.283310 0.250000
Si Si5 0.079731 0.840756 0.934505
Si Si6 0.351573 0.413631 0.390019
O O1 0.635372 0.858495 0.932299
O O2 0.730246 0.583723 0.872050
O O3 0.733525 0.889196 0.779308
O O4 0.797918 0.898448 0.912003
O O5 0.523942 0.161401 0.332634
O O6 0.490291 0.195688 0.527326
O O7 0.553772 0.444621 0.416338
O O8 0.350677 0.712470 0.149554
O O9 0.207120 0.754376 0.129901
O O10 0.425313 0.407866 0.302801
O O11 0.118113 0.858233 0.021636
#
# Coordination Sequence:
#
# PCOD9260080 Si02
#       6
#     8   8   8   4   8   8
#     4  11  21  37  63  86 119 160 201 243 295 352
#     4   9  18  35  57  86 115 158 197 241 292 356
#     4  11  20  36  58  88 115 155 198 247 288 353
#     4  10  18  36  62  84 116 164 194 236 300 352
#     4   9  20  35  58  86 120 152 201 244 298 348
#     4  11  21  37  61  86 118 158 199 244 300 351
#
# _framework density 24.418869000000001
#
# number of rings (size 3 to 8) (size 9 to 14) (size 15 to 20)
#    0.000    1.818    3.636    1.636    0.000    2.909 
#    0.000    1.818    0.000    0.000    0.000    0.000 
#    0.000    0.000    0.000    0.000    0.000    0.000 
#
# Total GULP energy -123004.204553 kJ/mol
# GULP energy per Si atom -5591.100207 kJ/mol
# Density = 2.436329 g / cm^3
# Si number density = 24.418869 Si / 1000 Ang^3
#
#
#
# Elastic Constant Matrix: (Units=GPa)
#
#
# Indices 1 2 3 4 5 6 
#
# 1 127.8002 12.9565 34.2728 0.0000 -46.5025 0.0000
# 2 12.9565 63.5385 -6.3190 0.0000 -15.6588 0.0000
# 3 34.2728 -6.3190 85.7848 0.0000 -19.7290 0.0000
# 4 0.0000 0.0000 0.0000 25.5259 0.0000 -1.3080
# 5 -46.5025 -15.6588 -19.7290 0.0000 64.6215 0.0000
# 6 0.0000 0.0000 0.0000 -1.3080 0.0000 38.4798
#
#
#
# Elastic Compliance Matrix: (Units=1/GPa)
#
#
# Indices 1 2 3 4 5 6 
#
# 1 0.011244 -0.000866 -0.002950 0.000000 0.006981 0.000000
# 2 -0.000866 0.017249 0.002618 0.000000 0.004356 0.000000
# 3 -0.002950 0.002618 0.013644 0.000000 0.002677 0.000000
# 4 0.000000 0.000000 0.000000 0.039244 0.000000 0.001334
# 5 0.006981 0.004356 0.002677 0.000000 0.022371 0.000000
# 6 0.000000 0.000000 0.000000 0.001334 0.000000 0.026033
#
#
# Mechanical properties :
#
#
# Convention : Reuss Voigt Hill
#
# Bulk Modulus (GPa) = 25.16294 39.88269 32.52281
# Shear Modulus (GPa) = 34.38124 41.47301 37.92713
#
# Velocity S-wave (km/s) = 3.75637 4.12564 3.94533
# Velocity P-wave (km/s) = 5.39823 6.25001 5.83967
#
# Compressibility (1/GPa) = 0.03974099
#
# Stress axis : x y z
#
# Youngs Moduli (GPa) = 88.93833 57.97446 73.29031
#
# Poissons Ratio (x) = 0.05020 0.21624
# Poissons Ratio (y) = 0.07701 -0.19190
# Poissons Ratio (z) = 0.26241 -0.15180
#
# Static dielectric constant tensor:
#      x y z
#    x 2.024020 0.000000 -0.056610 
#    y 0.000000 2.022880 0.000000 
#    z -0.056610 0.000000 1.977530 
# 
# From -- ./inp_files/159228.got.cif
#   From: 2010.05.17/outbox.cif.g08.bks.cpg/sg15_80_cif.got.tgz:159228.got - 2010.06.03 18:47:42.
