data_PCOD9260674
_publ_section_title
;
Structure prediction by ZEFSAII (Michael W. Deem and Ramdas Pophale) SiO2 
 PCOD9260674
Probable space group: C 2/C
;
_chemical_formula_sum "Si O2"
_cell_formula_units_Z 44
_cell_length_a 25.550739
_cell_length_b 11.814875
_cell_length_c 12.786149
_cell_angle_alpha 90.000000
_cell_angle_beta 37.046144
_cell_angle_gamma 90.000000
_cell_volume 2325.407927
_symmetry_space_group_name_H-M "C 2/C"
_symmetry_group_IT_number 15
_symmetry_cell_setting 'monoclinic'
loop_
_space_group_symop_operation_xyz
x,y,z
-x,y,1/2-z
-x,-y,-z
x,-y,1/2+z
1/2+x,1/2+y,z
1/2-x,1/2+y,1/2-z
1/2-x,1/2-y,-z
1/2+x,1/2-y,1/2+z
loop_
_atom_site_type_symbol
_atom_site_label
_atom_site_fract_x
_atom_site_fract_y
_atom_site_fract_z
Si Si1 0.639277 0.519567 0.176169
Si Si2 0.845858 0.111680 0.638503
Si Si3 0.899191 0.343109 0.530405
Si Si4 0.103505 0.710841 0.706104
Si Si5 0.301100 0.951413 0.284665
Si Si6 0.500000 0.479511 0.750000
O O1 0.645570 0.478335 0.283607
O O2 0.621161 0.655252 0.196249
O O3 0.559262 0.460522 0.242162
O O4 0.728417 0.491692 0.974932
O O5 0.854595 0.239566 0.662775
O O6 0.757516 0.097966 0.715314
O O7 0.928265 0.090577 0.429879
O O8 0.871056 0.326885 0.453006
O O9 0.868398 0.460460 0.628148
O O10 0.002161 0.322509 0.374275
O O11 0.154397 0.642450 0.713780
#
# Coordination Sequence:
#
# PCOD9260674 Si02
#       6
#     8   8   8   8   8   4
#     4  11  21  38  64  92 121 164 209 259 312 371
#     4  11  22  37  63  91 126 158 212 261 310 365
#     4  11  22  41  63  90 124 164 208 262 308 376
#     4  11  21  42  66  85 123 170 213 247 316 381
#     4  11  24  36  61  93 123 161 209 258 313 368
#     4  10  18  38  60  94 114 164 202 256 310 366
#
# _framework density 18.921413000000001
#
# number of rings (size 3 to 8) (size 9 to 14) (size 15 to 20)
#    0.000    1.091    5.455    2.727    2.545    0.727 
#    0.000    0.000    0.000    0.000    0.000    0.000 
#    0.000    0.000    0.000    0.000    0.000    0.000 
#
# Total GULP energy -122707.603392 kJ/mol
# GULP energy per Si atom -5577.618336 kJ/mol
# Density = 1.887835 g / cm^3
# Si number density = 18.921413 Si / 1000 Ang^3
#
#
#
# Elastic Constant Matrix: (Units=GPa)
#
#
# Indices 1 2 3 4 5 6 
#
# 1 159.4462 43.3114 37.0308 0.0000 9.0946 0.0000
# 2 43.3114 61.9471 39.0142 0.0000 10.0251 0.0000
# 3 37.0308 39.0142 64.2597 0.0000 -1.2076 0.0000
# 4 0.0000 0.0000 0.0000 14.5694 0.0000 6.1947
# 5 9.0946 10.0251 -1.2076 0.0000 24.5043 0.0000
# 6 0.0000 0.0000 0.0000 6.1947 0.0000 31.7675
#
#
#
# Elastic Compliance Matrix: (Units=1/GPa)
#
#
# Indices 1 2 3 4 5 6 
#
# 1 0.007934 -0.003910 -0.002225 0.000000 -0.001454 0.000000
# 2 -0.003910 0.031749 -0.017255 0.000000 -0.012388 0.000000
# 3 -0.002225 -0.017255 0.027494 0.000000 0.009240 0.000000
# 4 0.000000 0.000000 0.000000 0.074842 0.000000 -0.014594
# 5 -0.001454 -0.012388 0.009240 0.000000 0.046873 0.000000
# 6 0.000000 0.000000 0.000000 -0.014594 0.000000 0.034325
#
#
# Mechanical properties :
#
#
# Convention : Reuss Voigt Hill
#
# Bulk Modulus (GPa) = 49.03112 58.26289 53.64700
# Shear Modulus (GPa) = 18.06385 25.25467 21.65926
#
# Velocity S-wave (km/s) = 3.09314 3.65734 3.38701
# Velocity P-wave (km/s) = 6.22302 6.97809 6.61134
#
# Compressibility (1/GPa) = 0.02039521
#
# Stress axis : x y z
#
# Youngs Moduli (GPa) = 126.04617 31.49731 36.37140
#
# Poissons Ratio (x) = 0.12316 0.08094
# Poissons Ratio (y) = 0.49285 0.62760
# Poissons Ratio (z) = 0.28049 0.54350
#
# Static dielectric constant tensor:
#      x y z
#    x 1.687720 0.000000 -0.006400 
#    y 0.000000 1.639020 0.000000 
#    z -0.006400 0.000000 1.662020 
# 
# From -- ./inp_files/104328.got.cif
#   From: 2010.05.17/outbox.cif.g08.bks.cpg/sg15_53_cif.got.tgz:104328.got - 2010.06.03 18:47:42.
