data_PCOD9260652
_publ_section_title
;
Structure prediction by ZEFSAII (Michael W. Deem and Ramdas Pophale) SiO2 
 PCOD9260652
Probable space group: C 2/C
;
_chemical_formula_sum "Si O2"
_cell_formula_units_Z 44
_cell_length_a 11.629973
_cell_length_b 19.124509
_cell_length_c 15.080446
_cell_angle_alpha 90.000000
_cell_angle_beta 36.672506
_cell_angle_gamma 90.000000
_cell_volume 2003.236933
_symmetry_space_group_name_H-M "C 2/C"
_symmetry_group_IT_number 15
_symmetry_cell_setting 'monoclinic'
loop_
_space_group_symop_operation_xyz
x,y,z
-x,y,1/2-z
-x,-y,-z
x,-y,1/2+z
1/2+x,1/2+y,z
1/2-x,1/2+y,1/2-z
1/2-x,1/2-y,-z
1/2+x,1/2-y,1/2+z
loop_
_atom_site_type_symbol
_atom_site_label
_atom_site_fract_x
_atom_site_fract_y
_atom_site_fract_z
Si Si1 0.701700 0.930004 0.877134
Si Si2 0.068968 0.338827 0.109655
Si Si3 0.167293 0.496157 0.718091
Si Si4 0.987945 0.813191 0.615158
Si Si5 0.000000 0.048798 0.750000
Si Si6 0.506204 0.396874 0.437324
O O1 0.603554 0.961312 0.850156
O O2 0.844347 0.867961 0.752006
O O3 0.826204 0.993030 0.842707
O O4 0.563780 0.895673 0.035170
O O5 0.955774 0.268299 0.153700
O O6 0.000000 0.356840 0.250000
O O7 0.298769 0.326524 0.978193
O O8 0.329128 0.444518 0.578631
O O9 0.296016 0.564703 0.657064
O O10 0.000000 0.501183 0.750000
O O11 0.990979 0.828711 0.508048
O O12 0.006717 0.098259 0.660058
#
# Coordination Sequence:
#
# PCOD9260652 Si02
#       6
#     8   8   8   8   4   8
#     4  10  19  37  61  82 121 159 197 241 304 361
#     4  11  21  33  57  92 118 145 199 254 297 348
#     4   9  19  37  60  84 115 163 200 241 297 361
#     4  10  19  36  57  82 118 160 191 243 302 356
#     4  10  18  38  60  86 118 168 194 238 304 362
#     4   9  20  36  60  85 119 162 199 244 298 359
#
# _framework density 21.964452000000001
#
# number of rings (size 3 to 8) (size 9 to 14) (size 15 to 20)
#    0.000    2.182    1.818    3.273    0.000    0.727 
#    3.273    1.818    2.000    2.182    0.000    0.000 
#    0.000    0.000    0.000    0.000    0.000    0.000 
#
# Total GULP energy -122978.363188 kJ/mol
# GULP energy per Si atom -5589.925599 kJ/mol
# Density = 2.191446 g / cm^3
# Si number density = 21.964452 Si / 1000 Ang^3
#
#
#
# Elastic Constant Matrix: (Units=GPa)
#
#
# Indices 1 2 3 4 5 6 
#
# 1 172.0975 63.8113 71.4257 -0.0003 37.0643 -0.0010
# 2 63.8113 105.5233 56.7598 -0.0004 22.3223 -0.0007
# 3 71.4257 56.7598 125.1328 -0.0032 24.7923 -0.0010
# 4 -0.0003 -0.0004 -0.0032 11.5337 0.0030 -2.7152
# 5 37.0643 22.3223 24.7923 0.0030 49.7400 -0.0008
# 6 -0.0010 -0.0007 -0.0010 -2.7152 -0.0008 31.0113
#
#
#
# Elastic Compliance Matrix: (Units=1/GPa)
#
#
# Indices 1 2 3 4 5 6 
#
# 1 0.009008 -0.003011 -0.003011 0.000000 -0.003860 0.000000
# 2 -0.003011 0.013987 -0.004246 0.000000 -0.001917 0.000000
# 3 -0.003011 -0.004246 0.011999 0.000004 -0.001832 0.000000
# 4 0.000000 0.000000 0.000004 0.088527 -0.000007 0.007751
# 5 -0.003860 -0.001917 -0.001832 -0.000007 0.024754 0.000000
# 6 0.000000 0.000000 0.000000 0.007751 0.000000 0.032925
#
#
# Mechanical properties :
#
#
# Convention : Reuss Voigt Hill
#
# Bulk Modulus (GPa) = 69.16685 87.41634 78.29159
# Shear Modulus (GPa) = 24.20651 32.50745 28.35698
#
# Velocity S-wave (km/s) = 3.32336 3.85125 3.59700
# Velocity P-wave (km/s) = 6.80331 7.72409 7.27828
#
# Compressibility (1/GPa) = 0.01445779
#
# Stress axis : x y z
#
# Youngs Moduli (GPa) = 111.00881 71.49657 83.33975
#
# Poissons Ratio (x) = 0.21528 0.25096
# Poissons Ratio (y) = 0.33426 0.35384
# Poissons Ratio (z) = 0.33428 0.30356
#
# Static dielectric constant tensor:
#      x y z
#    x 1.789540 0.000000 -0.006960 
#    y 0.000000 1.826810 0.000000 
#    z -0.006960 0.000000 1.862540 
# 
# From -- ./inp_files/147003.got.cif
#   From: 2010.05.17/outbox.cif.g08.bks.cpg/sg15_74_cif.got.tgz:147003.got - 2010.06.03 18:47:42.
