data_PCOD9260123
_publ_section_title
;
Structure prediction by ZEFSAII (Michael W. Deem and Ramdas Pophale) SiO2 
 PCOD9260123
Probable space group: C 2/C
;
_chemical_formula_sum "Si O2"
_cell_formula_units_Z 36
_cell_length_a 17.515158
_cell_length_b 8.371456
_cell_length_c 21.179934
_cell_angle_alpha 90.000000
_cell_angle_beta 29.964999
_cell_angle_gamma 90.000000
_cell_volume 1551.135804
_symmetry_space_group_name_H-M "C 2/C"
_symmetry_group_IT_number 15
_symmetry_cell_setting 'monoclinic'
loop_
_space_group_symop_operation_xyz
x,y,z
-x,y,1/2-z
-x,-y,-z
x,-y,1/2+z
1/2+x,1/2+y,z
1/2-x,1/2+y,1/2-z
1/2-x,1/2-y,-z
1/2+x,1/2-y,1/2+z
loop_
_atom_site_type_symbol
_atom_site_label
_atom_site_fract_x
_atom_site_fract_y
_atom_site_fract_z
Si Si1 0.676535 0.028753 0.386292
Si Si2 0.500000 0.975433 0.250000
Si Si3 0.667927 0.528377 0.445848
Si Si4 0.853709 0.843930 0.164794
Si Si5 0.886057 0.703895 0.947056
O O1 0.713011 0.186554 0.319402
O O2 0.678971 0.074485 0.457438
O O3 0.500000 0.000000 0.500000
O O4 0.775938 0.887629 0.286476
O O5 0.332051 0.058709 0.362353
O O6 0.498115 0.870309 0.186682
O O7 0.682062 0.479858 0.362209
O O8 0.536657 0.662117 0.543873
O O9 0.586448 0.368548 0.534756
O O10 0.750000 0.750000 0.000000
#
# Coordination Sequence:
#
# PCOD9260123 Si02
#       5
#     8   4   8   8   8
#     4  11  24  41  66 103 134 173 225 286 342 400
#     4  10  18  36  62  92 134 172 224 272 318 408
#     4   9  20  35  59  91 127 171 219 271 331 383
#     4  10  23  38  64  95 135 166 225 277 336 399
#     4   9  20  35  61  96 126 175 226 267 327 404
#
# _framework density 23.2088
#
# number of rings (size 3 to 8) (size 9 to 14) (size 15 to 20)
#    0.000    2.222    0.000    1.333   18.667    0.000 
#    0.000    0.000    0.000   12.000   11.556    0.000 
#    0.000    0.000    0.000    0.000    0.000    0.000 
#
# Total GULP energy -100390.294870 kJ/mol
# GULP energy per Si atom -5577.238604 kJ/mol
# Density = 2.315598 g / cm^3
# Si number density = 23.208800 Si / 1000 Ang^3
#
#
#
# Elastic Constant Matrix: (Units=GPa)
#
#
# Indices 1 2 3 4 5 6 
#
# 1 133.4844 11.0452 54.4561 -0.0001 -1.5536 0.0000
# 2 11.0452 21.1202 16.4959 0.0000 16.7572 -0.0002
# 3 54.4561 16.4959 111.5831 -0.0002 5.1791 -0.0001
# 4 -0.0001 0.0000 -0.0002 -69.7101 -0.0001 64.2510
# 5 -1.5536 16.7572 5.1791 -0.0001 68.9323 0.0001
# 6 0.0000 -0.0002 -0.0001 64.2510 0.0001 3.4038
#
#
#
# Elastic Compliance Matrix: (Units=1/GPa)
#
#
# Indices 1 2 3 4 5 6 
#
# 1 0.009467 -0.002497 -0.004304 0.000000 0.001144 0.000000
# 2 -0.002497 0.067509 -0.008025 0.000000 -0.015865 0.000000
# 3 -0.004304 -0.008025 0.012206 0.000000 0.000937 0.000000
# 4 0.000000 0.000000 0.000000 -0.000780 0.000000 0.014718
# 5 0.001144 -0.015865 0.000937 0.000000 0.018319 0.000000
# 6 0.000000 0.000000 0.000000 0.014718 0.000000 0.015969
#
#
# Mechanical properties :
#
#
# Convention : Reuss Voigt Hill
#
# Bulk Modulus (GPa) = 16.79843 47.79802 32.29822
# Shear Modulus (GPa) = 29.03827 12.80455 20.92141
#
# Velocity S-wave (km/s) = 3.54103 2.35140 3.00566
# Velocity P-wave (km/s) = 4.89614 5.29260 5.09823
#
# Compressibility (1/GPa) = 0.05952937
#
# Stress axis : x y z
#
# Youngs Moduli (GPa) = 105.62534 14.81273 81.92978
#
# Poissons Ratio (x) = 0.03698 0.35266
# Poissons Ratio (y) = 0.26372 0.65752
# Poissons Ratio (z) = 0.45465 0.11888
#
# Static dielectric constant tensor:
#      x y z
#    x 1.832390 0.000000 0.028980 
#    y 0.000000 2.016340 0.000000 
#    z 0.028980 0.000000 1.982670 
# 
# From -- ./inp_files/122197.got.cif
#   From: 2010.05.17/outbox.cif.g08.bks.cpg/sg15_62_cif.got.tgz:122197.got - 2010.06.03 18:47:42.
