data_PCOD9260254
_publ_section_title
;
Structure prediction by ZEFSAII (Michael W. Deem and Ramdas Pophale) SiO2 
 PCOD9260254
Probable space group: C 2/C
;
_chemical_formula_sum "Si O2"
_cell_formula_units_Z 44
_cell_length_a 5.144989
_cell_length_b 24.233331
_cell_length_c 15.165173
_cell_angle_alpha 90.000000
_cell_angle_beta 104.897238
_cell_angle_gamma 90.000000
_cell_volume 1827.244550
_symmetry_space_group_name_H-M "C 2/C"
_symmetry_group_IT_number 15
_symmetry_cell_setting 'monoclinic'
loop_
_space_group_symop_operation_xyz
x,y,z
-x,y,1/2-z
-x,-y,-z
x,-y,1/2+z
1/2+x,1/2+y,z
1/2-x,1/2+y,1/2-z
1/2-x,1/2-y,-z
1/2+x,1/2-y,1/2+z
loop_
_atom_site_type_symbol
_atom_site_label
_atom_site_fract_x
_atom_site_fract_y
_atom_site_fract_z
Si Si1 0.904742 0.542168 0.897290
Si Si2 0.500000 0.888335 0.250000
Si Si3 0.513402 0.405159 0.017842
Si Si4 0.955437 0.419306 0.642028
Si Si5 0.078947 0.810639 0.150540
Si Si6 0.200564 0.309848 0.684457
O O1 0.179126 0.573344 0.953222
O O2 0.833762 0.571233 0.797799
O O3 0.651456 0.551281 0.936966
O O4 0.963021 0.478207 0.889318
O O5 0.349975 0.845755 0.174992
O O6 0.436337 0.347229 0.062540
O O7 0.351346 0.406494 0.912203
O O8 0.129906 0.365989 0.627873
O O9 0.000000 0.424521 0.750000
O O10 0.131087 0.747514 0.130230
O O11 0.000000 0.812878 0.250000
O O12 0.500000 0.308172 0.750000
O O13 0.000000 0.310055 0.750000
#
# Coordination Sequence:
#
# PCOD9260254 Si02
#       6
#     8   4   8   8   8   8
#     4  11  23  42  64  98 127 166 212 264 321 377
#     4  10  18  36  66  90 126 162 204 264 324 364
#     4  11  25  40  68  99 127 168 216 268 313 379
#     4  11  25  45  64  93 137 174 211 258 324 387
#     4  10  19  38  65  91 129 157 223 263 319 362
#     4  10  23  40  64  91 125 173 213 259 317 382
#
# _framework density 24.079972000000001
#
# number of rings (size 3 to 8) (size 9 to 14) (size 15 to 20)
#    0.000    1.455    3.636    1.091    0.000    6.545 
#    0.000    0.000    0.000    9.818    0.000    0.000 
#    0.000    0.000    0.000    0.000    0.000    0.000 
#
# Total GULP energy -122728.195799 kJ/mol
# GULP energy per Si atom -5578.554354 kJ/mol
# Density = 2.402517 g / cm^3
# Si number density = 24.079972 Si / 1000 Ang^3
#
#
#
# Elastic Constant Matrix: (Units=GPa)
#
#
# Indices 1 2 3 4 5 6 
#
# 1 90.0473 19.7521 14.3277 0.0000 10.1605 0.0000
# 2 19.7521 213.3657 33.4440 0.0000 8.4444 0.0000
# 3 14.3277 33.4440 93.4939 0.0000 9.8997 0.0000
# 4 0.0000 0.0000 0.0000 30.5818 0.0000 8.5622
# 5 10.1605 8.4444 9.8997 0.0000 27.4505 0.0000
# 6 0.0000 0.0000 0.0000 8.5622 0.0000 25.9546
#
#
#
# Elastic Compliance Matrix: (Units=1/GPa)
#
#
# Indices 1 2 3 4 5 6 
#
# 1 0.011880 -0.000772 -0.001148 0.000000 -0.003746 0.000000
# 2 -0.000772 0.005038 -0.001612 0.000000 -0.000683 0.000000
# 3 -0.001148 -0.001612 0.011801 0.000000 -0.003335 0.000000
# 4 0.000000 0.000000 0.000000 0.036027 0.000000 -0.011885
# 5 -0.003746 -0.000683 -0.003335 0.000000 0.039229 0.000000
# 6 0.000000 0.000000 0.000000 -0.011885 0.000000 0.042450
#
#
# Mechanical properties :
#
#
# Convention : Reuss Voigt Hill
#
# Bulk Modulus (GPa) = 46.17435 59.10604 52.64020
# Shear Modulus (GPa) = 31.11287 38.75626 34.93457
#
# Velocity S-wave (km/s) = 3.59843 4.01619 3.81303
# Velocity P-wave (km/s) = 6.04003 6.79009 6.42601
#
# Compressibility (1/GPa) = 0.02165704
#
# Stress axis : x y z
#
# Youngs Moduli (GPa) = 84.17621 198.49747 84.73540
#
# Poissons Ratio (x) = 0.15316 0.09727
# Poissons Ratio (y) = 0.06495 0.13655
# Poissons Ratio (z) = 0.09663 0.31989
#
# Static dielectric constant tensor:
#      x y z
#    x 1.926900 0.000000 0.044040 
#    y 0.000000 1.943640 0.000000 
#    z 0.044040 0.000000 2.171220 
# 
# From -- ./inp_files/185385.got.cif
#   From: 2010.05.17/outbox.cif.g08.bks.cpg/sg15_93_cif.got.tgz:185385.got - 2010.06.03 18:47:42.
