data_PCOD9260830
_publ_section_title
;
Structure prediction by ZEFSAII (Michael W. Deem and Ramdas Pophale) SiO2 
 PCOD9260830
Probable space group: C 2/C
;
_chemical_formula_sum "Si O2"
_cell_formula_units_Z 44
_cell_length_a 23.655302
_cell_length_b 11.013422
_cell_length_c 14.068663
_cell_angle_alpha 90.000000
_cell_angle_beta 30.613312
_cell_angle_gamma 90.000000
_cell_volume 1866.496994
_symmetry_space_group_name_H-M "C 2/C"
_symmetry_group_IT_number 15
_symmetry_cell_setting 'monoclinic'
loop_
_space_group_symop_operation_xyz
x,y,z
-x,y,1/2-z
-x,-y,-z
x,-y,1/2+z
1/2+x,1/2+y,z
1/2-x,1/2+y,1/2-z
1/2-x,1/2-y,-z
1/2+x,1/2-y,1/2+z
loop_
_atom_site_type_symbol
_atom_site_label
_atom_site_fract_x
_atom_site_fract_y
_atom_site_fract_z
Si Si1 0.823732 0.221593 0.099384
Si Si2 0.379752 0.111228 0.376454
Si Si3 0.424256 0.323328 0.742999
Si Si4 0.500000 0.457905 0.250000
Si Si5 0.496882 0.144760 0.025319
Si Si6 0.802165 0.648730 0.047011
O O1 0.730747 0.154148 0.295229
O O2 0.789536 0.317028 0.068255
O O3 0.900239 0.125126 0.932929
O O4 0.896455 0.303547 0.069121
O O5 0.500000 0.136405 0.250000
O O6 0.394648 0.152635 0.246985
O O7 0.359589 0.970532 0.423247
O O8 0.471048 0.453250 0.704465
O O9 0.498795 0.229891 0.573894
O O10 0.313839 0.343733 0.840926
O O11 0.378811 0.260255 0.904679
O O12 0.500000 0.000000 0.000000
#
# Coordination Sequence:
#
# PCOD9260830 Si02
#       6
#     8   8   8   4   8   8
#     4  10  23  41  62  91 132 165 207 268 314 377
#     4  10  20  40  70  90 124 168 211 258 311 374
#     4  10  24  39  64  91 128 167 207 264 322 371
#     4  12  24  44  62  90 130 176 210 250 334 390
#     4  10  18  38  65  91 120 162 212 257 309 371
#     4  10  22  41  61  95 127 159 212 269 309 368
#
# _framework density 23.573571999999999
#
# number of rings (size 3 to 8) (size 9 to 14) (size 15 to 20)
#    0.000    1.818    4.545    0.000    3.818    2.909 
#    0.000    2.727    8.000    0.000    0.000    0.000 
#    0.000    0.000    0.000    0.000    0.000    0.000 
#
# Total GULP energy -122875.119356 kJ/mol
# GULP energy per Si atom -5585.232698 kJ/mol
# Density = 2.351992 g / cm^3
# Si number density = 23.573572 Si / 1000 Ang^3
#
#
#
# Elastic Constant Matrix: (Units=GPa)
#
#
# Indices 1 2 3 4 5 6 
#
# 1 46.6315 14.8337 26.4264 0.0000 11.0128 0.0000
# 2 14.8337 104.5618 11.2622 0.0000 1.6975 0.0000
# 3 26.4264 11.2622 89.3065 0.0000 34.1129 0.0000
# 4 0.0000 0.0000 0.0000 44.3558 0.0000 16.2933
# 5 11.0128 1.6975 34.1129 0.0000 44.1764 0.0000
# 6 0.0000 0.0000 0.0000 16.2933 0.0000 28.3771
#
#
#
# Elastic Compliance Matrix: (Units=1/GPa)
#
#
# Indices 1 2 3 4 5 6 
#
# 1 0.026679 -0.003001 -0.007120 0.000000 -0.001038 0.000000
# 2 -0.003001 0.010054 -0.000735 0.000000 0.000929 0.000000
# 3 -0.007120 -0.000735 0.018025 0.000000 -0.012115 0.000000
# 4 0.000000 0.000000 0.000000 0.028571 0.000000 -0.016405
# 5 -0.001038 0.000929 -0.012115 0.000000 0.032215 0.000000
# 6 0.000000 0.000000 0.000000 -0.016405 0.000000 0.044659
#
#
# Mechanical properties :
#
#
# Convention : Reuss Voigt Hill
#
# Bulk Modulus (GPa) = 30.26054 38.39381 34.32718
# Shear Modulus (GPa) = 25.91634 35.91370 30.91502
#
# Velocity S-wave (km/s) = 3.31929 3.90740 3.62529
# Velocity P-wave (km/s) = 5.24926 6.05634 5.66718
#
# Compressibility (1/GPa) = 0.03304634
#
# Stress axis : x y z
#
# Youngs Moduli (GPa) = 37.48228 99.46752 55.47968
#
# Poissons Ratio (x) = 0.29852 0.39500
# Poissons Ratio (y) = 0.11249 0.04076
# Poissons Ratio (z) = 0.26686 0.07308
#
# Static dielectric constant tensor:
#      x y z
#    x 2.015990 0.000000 0.000330 
#    y 0.000000 1.850660 0.000000 
#    z 0.000330 0.000000 1.927450 
# 
# From -- ./inp_files/177510.got.cif
#   From: 2010.05.17/outbox.cif.g08.bks.cpg/sg15_89_cif.got.tgz:177510.got - 2010.06.03 18:47:42.
