data_PCOD9260760
_publ_section_title
;
Structure prediction by ZEFSAII (Michael W. Deem and Ramdas Pophale) SiO2 
 PCOD9260760
Probable space group: C 2/C
;
_chemical_formula_sum "Si O2"
_cell_formula_units_Z 36
_cell_length_a 6.299924
_cell_length_b 18.969145
_cell_length_c 13.178898
_cell_angle_alpha 90.000000
_cell_angle_beta 61.760667
_cell_angle_gamma 90.000000
_cell_volume 1387.482909
_symmetry_space_group_name_H-M "C 2/C"
_symmetry_group_IT_number 15
_symmetry_cell_setting 'monoclinic'
loop_
_space_group_symop_operation_xyz
x,y,z
-x,y,1/2-z
-x,-y,-z
x,-y,1/2+z
1/2+x,1/2+y,z
1/2-x,1/2+y,1/2-z
1/2-x,1/2-y,-z
1/2+x,1/2-y,1/2+z
loop_
_atom_site_type_symbol
_atom_site_label
_atom_site_fract_x
_atom_site_fract_y
_atom_site_fract_z
Si Si1 0.646367 0.995680 0.807727
Si Si2 0.500000 0.776653 0.250000
Si Si3 0.434742 0.614072 0.627255
Si Si4 0.235132 0.407742 0.977544
Si Si5 0.634152 0.790293 0.432345
O O1 0.500000 0.958360 0.750000
O O2 0.829419 0.046888 0.707904
O O3 0.760516 0.944587 0.864372
O O4 0.455137 0.044640 0.913742
O O5 0.275707 0.827466 0.327205
O O6 0.588559 0.746795 0.338688
O O7 0.667938 0.647579 0.625424
O O8 0.463723 0.596640 0.500911
O O9 0.109659 0.332095 0.986775
O O10 0.750000 0.750000 0.500000
#
# Coordination Sequence:
#
# PCOD9260760 Si02
#       5
#     8   4   8   8   8
#     4   9  16  35  61  88 129 160 204 261 308 368
#     4  10  20  38  62  90 116 158 216 256 306 364
#     4  10  18  38  63  88 121 170 210 244 322 373
#     4   9  19  35  59  94 125 156 208 264 304 369
#     4  11  23  39  62  91 126 170 211 258 316 378
#
# _framework density 25.946266000000001
#
# number of rings (size 3 to 8) (size 9 to 14) (size 15 to 20)
#    0.000    2.222    5.556    0.667    0.000    3.556 
#    0.000   21.111    0.000    0.000    0.000    6.222 
#    0.000    0.000    0.000    0.000    0.000    0.000 
#
# Total GULP energy -100645.289819 kJ/mol
# GULP energy per Si atom -5591.404990 kJ/mol
# Density = 2.588721 g / cm^3
# Si number density = 25.946266 Si / 1000 Ang^3
#
#
#
# Elastic Constant Matrix: (Units=GPa)
#
#
# Indices 1 2 3 4 5 6 
#
# 1 118.8733 13.7420 74.0871 0.0000 39.4605 0.0000
# 2 13.7420 38.3822 59.4016 0.0000 15.7718 0.0000
# 3 74.0871 59.4016 170.2561 0.0000 71.3458 0.0000
# 4 0.0000 0.0000 0.0000 40.4294 0.0000 10.3451
# 5 39.4605 15.7718 71.3458 0.0000 66.7343 0.0000
# 6 0.0000 0.0000 0.0000 10.3451 0.0000 41.7943
#
#
#
# Elastic Compliance Matrix: (Units=1/GPa)
#
#
# Indices 1 2 3 4 5 6 
#
# 1 0.012790 0.008325 -0.008109 0.000000 -0.000860 0.000000
# 2 0.008325 0.070358 -0.034673 0.000000 0.015518 0.000000
# 3 -0.008109 -0.034673 0.029088 0.000000 -0.018108 0.000000
# 4 0.000000 0.000000 0.000000 0.026407 0.000000 -0.006536
# 5 -0.000860 0.015518 -0.018108 0.000000 0.031185 0.000000
# 6 0.000000 0.000000 0.000000 -0.006536 0.000000 0.025545
#
#
# Mechanical properties :
#
#
# Convention : Reuss Voigt Hill
#
# Bulk Modulus (GPa) = 23.08402 69.10811 46.09606
# Shear Modulus (GPa) = 17.93868 41.81032 29.87450
#
# Velocity S-wave (km/s) = 2.63226 4.01860 3.39691
# Velocity P-wave (km/s) = 4.26082 6.94443 5.76106
#
# Compressibility (1/GPa) = 0.04332001
#
# Stress axis : x y z
#
# Youngs Moduli (GPa) = 78.18786 14.21311 34.37865
#
# Poissons Ratio (x) = -0.11832 0.27879
# Poissons Ratio (y) = -0.65091 1.19201
# Poissons Ratio (z) = 0.63406 0.49281
#
# Static dielectric constant tensor:
#      x y z
#    x 2.095070 0.000000 0.015260 
#    y 0.000000 2.103490 0.000000 
#    z 0.015260 0.000000 2.148950 
# 
# From -- ./inp_files/72463.got.cif
#   From: 2010.05.17/outbox.cif.g08.bks.cpg/sg15_37_cif.got.tgz:72463.got - 2010.06.03 18:47:42.
