data_PCOD9260579
_publ_section_title
;
Structure prediction by ZEFSAII (Michael W. Deem and Ramdas Pophale) SiO2 
 PCOD9260579
Probable space group: C 2/C
;
_chemical_formula_sum "Si O2"
_cell_formula_units_Z 36
_cell_length_a 11.741460
_cell_length_b 15.714359
_cell_length_c 22.665216
_cell_angle_alpha 90.000000
_cell_angle_beta 151.521293
_cell_angle_gamma 90.000000
_cell_volume 1994.087206
_symmetry_space_group_name_H-M "C 2/C"
_symmetry_group_IT_number 15
_symmetry_cell_setting 'monoclinic'
loop_
_space_group_symop_operation_xyz
x,y,z
-x,y,1/2-z
-x,-y,-z
x,-y,1/2+z
1/2+x,1/2+y,z
1/2-x,1/2+y,1/2-z
1/2-x,1/2-y,-z
1/2+x,1/2-y,1/2+z
loop_
_atom_site_type_symbol
_atom_site_label
_atom_site_fract_x
_atom_site_fract_y
_atom_site_fract_z
Si Si1 0.288331 0.858527 0.193089
Si Si2 0.000000 0.521986 0.250000
Si Si3 0.968016 0.334841 0.828764
Si Si4 0.978751 0.725345 0.892098
Si Si5 0.109110 0.276363 0.013969
O O1 0.500000 0.816886 0.250000
O O2 0.376213 0.844331 0.299696
O O3 0.049351 0.807782 0.071864
O O4 0.290610 0.955642 0.172180
O O5 0.035737 0.583355 0.321662
O O6 0.693250 0.307680 0.695203
O O7 0.035601 0.340349 0.928347
O O8 0.121544 0.255388 0.873043
O O9 0.250000 0.750000 0.000000
O O10 0.948723 0.697342 0.946108
#
# Coordination Sequence:
#
# PCOD9260579 Si02
#       5
#     8   4   8   8   8
#     4   9  20  32  53  81 112 137 176 225 270 314
#     4  10  18  38  50  86 112 142 176 226 276 324
#     4  10  21  33  56  80 109 143 187 220 267 325
#     4  11  18  34  55  82 107 144 181 227 263 323
#     4  10  19  36  55  82 105 146 186 225 258 327
#
# _framework density 18.053373000000001
#
# number of rings (size 3 to 8) (size 9 to 14) (size 15 to 20)
#    0.667    1.333    4.444    0.000    0.000    0.889 
#    4.000    1.111    0.000    0.000   17.333    0.000 
#    0.000    0.000    0.000    0.000    0.000    0.000 
#
# Total GULP energy -100233.355512 kJ/mol
# GULP energy per Si atom -5568.519751 kJ/mol
# Density = 1.801228 g / cm^3
# Si number density = 18.053373 Si / 1000 Ang^3
#
#
#
# Elastic Constant Matrix: (Units=GPa)
#
#
# Indices 1 2 3 4 5 6 
#
# 1 132.7787 25.9116 55.9668 -0.0012 -27.8941 0.0002
# 2 25.9116 71.5794 25.7763 -0.0012 -14.1037 0.0000
# 3 55.9668 25.7763 89.3091 -0.0084 -6.1288 -0.0005
# 4 -0.0012 -0.0012 -0.0084 9.6727 -0.0004 -3.3103
# 5 -27.8941 -14.1037 -6.1288 -0.0004 50.9144 0.0004
# 6 0.0002 0.0000 -0.0005 -3.3103 0.0004 36.1152
#
#
#
# Elastic Compliance Matrix: (Units=1/GPa)
#
#
# Indices 1 2 3 4 5 6 
#
# 1 0.011628 -0.000739 -0.006706 -0.000004 0.005359 -0.000001
# 2 -0.000739 0.016406 -0.004021 -0.000002 0.003656 0.000000
# 3 -0.006706 -0.004021 0.016367 0.000013 -0.002818 0.000001
# 4 -0.000004 -0.000002 0.000013 0.106732 -0.000001 0.009783
# 5 0.005359 0.003656 -0.002818 -0.000001 0.023250 0.000000
# 6 -0.000001 0.000000 0.000001 0.009783 0.000000 0.028586
#
#
# Mechanical properties :
#
#
# Convention : Reuss Voigt Hill
#
# Bulk Modulus (GPa) = 46.57853 56.55296 51.56575
# Shear Modulus (GPa) = 21.45398 31.74128 26.59763
#
# Velocity S-wave (km/s) = 3.45101 4.19763 3.84249
# Velocity P-wave (km/s) = 6.46032 7.40857 6.95063
#
# Compressibility (1/GPa) = 0.02146912
#
# Stress axis : x y z
#
# Youngs Moduli (GPa) = 86.00152 60.95188 61.09992
#
# Poissons Ratio (x) = 0.04502 0.40972
# Poissons Ratio (y) = 0.06352 0.24571
# Poissons Ratio (z) = 0.57671 0.24512
#
# Static dielectric constant tensor:
#      x y z
#    x 1.660980 0.000000 -0.003080 
#    y 0.000000 1.598770 0.000000 
#    z -0.003080 0.000000 1.652240 
# 
# From -- ./inp_files/86396.got.cif
#   From: 2010.05.17/outbox.cif.g08.bks.cpg/sg15_44_cif.got.tgz:86396.got - 2010.06.03 18:47:42.
