data_PCOD9260851
_publ_section_title
;
Structure prediction by ZEFSAII (Michael W. Deem and Ramdas Pophale) SiO2 
 PCOD9260851
Probable space group: C 2/C
;
_chemical_formula_sum "Si O2"
_cell_formula_units_Z 44
_cell_length_a 20.536226
_cell_length_b 6.964248
_cell_length_c 13.894694
_cell_angle_alpha 90.000000
_cell_angle_beta 108.675892
_cell_angle_gamma 90.000000
_cell_volume 1882.574022
_symmetry_space_group_name_H-M "C 2/C"
_symmetry_group_IT_number 15
_symmetry_cell_setting 'monoclinic'
loop_
_space_group_symop_operation_xyz
x,y,z
-x,y,1/2-z
-x,-y,-z
x,-y,1/2+z
1/2+x,1/2+y,z
1/2-x,1/2+y,1/2-z
1/2-x,1/2-y,-z
1/2+x,1/2-y,1/2+z
loop_
_atom_site_type_symbol
_atom_site_label
_atom_site_fract_x
_atom_site_fract_y
_atom_site_fract_z
Si Si1 0.694068 0.410849 0.446638
Si Si2 0.944823 0.865690 0.026548
Si Si3 0.500000 0.465544 0.250000
Si Si4 0.237413 0.243316 0.333773
Si Si5 0.834790 0.617525 0.222863
Si Si6 0.405544 0.773737 0.315823
O O1 0.750000 0.250000 0.500000
O O2 0.631524 0.451015 0.489741
O O3 0.725261 0.603323 0.416857
O O4 0.658543 0.300026 0.339785
O O5 0.931031 0.708590 0.937407
O O6 0.975839 0.840159 0.147385
O O7 0.000000 0.000000 0.000000
O O8 0.445887 0.617731 0.271904
O O9 0.222342 0.466532 0.347075
O O10 0.306503 0.187406 0.312226
O O11 0.174845 0.211450 0.227312
O O12 0.901057 0.483070 0.265174
#
# Coordination Sequence:
#
# PCOD9260851 Si02
#       6
#     8   8   4   8   8   8
#     4  12  22  38  64  96 136 175 227 286 350 412
#     4  10  20  37  66  96 123 177 228 271 340 411
#     4  10  18  38  66  88 126 176 224 276 338 408
#     4  10  19  36  59  89 127 172 211 276 340 401
#     4  10  20  36  61  91 128 168 216 276 332 404
#     4   9  20  37  61  88 127 167 220 271 329 400
#
# _framework density 23.372254000000002
#
# number of rings (size 3 to 8) (size 9 to 14) (size 15 to 20)
#    1.091    0.727    3.636    2.182    0.000    0.727 
#    0.000    0.909    0.000    6.545    0.000    0.000 
#    0.000    0.000    0.000    0.000    0.000    0.000 
#
# Total GULP energy -122538.975637 kJ/mol
# GULP energy per Si atom -5569.953438 kJ/mol
# Density = 2.331906 g / cm^3
# Si number density = 23.372254 Si / 1000 Ang^3
#
#
#
# Elastic Constant Matrix: (Units=GPa)
#
#
# Indices 1 2 3 4 5 6 
#
# 1 91.4746 17.3865 15.0650 0.0000 -16.3594 0.0000
# 2 17.3865 107.9795 35.1387 0.0000 -10.9098 0.0000
# 3 15.0650 35.1387 130.5399 0.0000 5.7593 0.0000
# 4 0.0000 0.0000 0.0000 40.4644 0.0000 4.7765
# 5 -16.3594 -10.9098 5.7593 0.0000 33.9827 0.0000
# 6 0.0000 0.0000 0.0000 4.7765 0.0000 23.7264
#
#
#
# Elastic Compliance Matrix: (Units=1/GPa)
#
#
# Indices 1 2 3 4 5 6 
#
# 1 0.012405 -0.000930 -0.001442 0.000000 0.005917 0.000000
# 2 -0.000930 0.010717 -0.002932 0.000000 0.003490 0.000000
# 3 -0.001442 -0.002932 0.008754 0.000000 -0.003119 0.000000
# 4 0.000000 0.000000 0.000000 0.025315 0.000000 -0.005096
# 5 0.005917 0.003490 -0.003119 0.000000 0.033924 0.000000
# 6 0.000000 0.000000 0.000000 -0.005096 0.000000 0.043173
#
#
# Mechanical properties :
#
#
# Convention : Reuss Voigt Hill
#
# Bulk Modulus (GPa) = 47.01949 51.68606 49.35277
# Shear Modulus (GPa) = 32.89803 37.12828 35.01316
#
# Velocity S-wave (km/s) = 3.75583 3.99000 3.87468
# Velocity P-wave (km/s) = 6.24257 6.58704 6.41712
#
# Compressibility (1/GPa) = 0.02126778
#
# Stress axis : x y z
#
# Youngs Moduli (GPa) = 80.61529 93.30661 114.23807
#
# Poissons Ratio (x) = 0.08679 0.16476
# Poissons Ratio (y) = 0.07498 0.33489
# Poissons Ratio (z) = 0.11627 0.27353
#
# Static dielectric constant tensor:
#      x y z
#    x 1.953350 0.000000 0.105270 
#    y 0.000000 1.875760 0.000000 
#    z 0.105270 0.000000 1.989770 
# 
# From -- ./inp_files/165768.got.cif
#   From: 2010.05.17/outbox.cif.g08.bks.cpg/sg15_83_cif.got.tgz:165768.got - 2010.06.03 18:47:42.
