data_PCOD9260983
_publ_section_title
;
Structure prediction by ZEFSAII (Michael W. Deem and Ramdas Pophale) SiO2 
 PCOD9260983
Probable space group: C 2/C
;
_chemical_formula_sum "Si O2"
_cell_formula_units_Z 56
_cell_length_a 27.513859
_cell_length_b 11.971997
_cell_length_c 23.326989
_cell_angle_alpha 90.000000
_cell_angle_beta 162.566417
_cell_angle_gamma 90.000000
_cell_volume 2302.070808
_symmetry_space_group_name_H-M "C 2/C"
_symmetry_group_IT_number 15
_symmetry_cell_setting 'monoclinic'
loop_
_space_group_symop_operation_xyz
x,y,z
-x,y,1/2-z
-x,-y,-z
x,-y,1/2+z
1/2+x,1/2+y,z
1/2-x,1/2+y,1/2-z
1/2-x,1/2-y,-z
1/2+x,1/2-y,1/2+z
loop_
_atom_site_type_symbol
_atom_site_label
_atom_site_fract_x
_atom_site_fract_y
_atom_site_fract_z
Si Si1 0.340432 0.069320 0.610954
Si Si2 0.057707 0.972152 0.701722
Si Si3 0.092799 0.631923 0.030311
Si Si4 0.526221 0.094637 0.148976
Si Si5 0.937618 0.161052 0.410039
Si Si6 0.831781 0.823198 0.229605
Si Si7 0.023487 0.237532 0.343805
O O1 0.500000 0.066285 0.750000
O O2 0.196632 0.058833 0.404184
O O3 0.354217 0.187367 0.660801
O O4 0.362904 0.966375 0.678846
O O5 0.074110 0.923074 0.656275
O O6 0.925904 0.885733 0.577318
O O7 0.069260 0.103557 0.706251
O O8 0.271367 0.646257 0.258004
O O9 0.030925 0.506208 0.956658
O O10 0.966735 0.715056 0.917988
O O11 0.120782 0.680336 0.996418
O O12 0.624809 0.194613 0.231408
O O13 0.357087 0.143239 0.984549
O O14 0.092401 0.142168 0.624101
O O15 0.000000 0.221156 0.250000
#
# Coordination Sequence:
#
# PCOD9260983 Si02
#       7
#     8   8   8   8   8   8   8
#     4  10  18  39  65  85 126 168 217 275 336 386
#     4  11  21  38  65  94 126 176 215 270 343 387
#     4  10  22  42  69  99 130 170 218 273 346 386
#     4  11  25  45  65  95 133 183 222 273 327 400
#     4  11  22  43  70  98 131 172 219 286 338 398
#     4  12  25  45  64  94 138 181 228 264 330 400
#     4   9  19  35  62  99 127 156 212 280 336 396
#
# _framework density 24.325925000000002
#
# number of rings (size 3 to 8) (size 9 to 14) (size 15 to 20)
#    0.000    1.429    2.857    3.429    0.000    3.429 
#    7.714    0.000    0.000    0.000    0.000    0.000 
#    0.000    0.000    0.000    0.000    0.000    0.000 
#
# Total GULP energy -156007.218323 kJ/mol
# GULP energy per Si atom -5571.686369 kJ/mol
# Density = 2.427056 g / cm^3
# Si number density = 24.325925 Si / 1000 Ang^3
#
#
#
# Elastic Constant Matrix: (Units=GPa)
#
#
# Indices 1 2 3 4 5 6 
#
# 1 43.2415 39.8738 19.2879 0.0054 -11.0038 0.0040
# 2 39.8738 168.0018 12.3880 0.0154 8.0607 0.0105
# 3 19.2879 12.3880 52.3543 0.0184 -13.3058 0.0137
# 4 0.0054 0.0154 0.0184 21.4902 0.0093 -5.3952
# 5 -11.0038 8.0607 -13.3058 0.0093 28.3988 0.0065
# 6 0.0040 0.0105 0.0137 -5.3952 0.0065 41.0542
#
#
#
# Elastic Compliance Matrix: (Units=1/GPa)
#
#
# Indices 1 2 3 4 5 6 
#
# 1 0.039056 -0.009284 -0.008714 -0.000002 0.013685 -0.000001
# 2 -0.009284 0.008455 -0.000119 -0.000001 -0.006053 0.000000
# 3 -0.008714 -0.000119 0.024394 -0.000025 0.008087 -0.000012
# 4 -0.000002 -0.000001 -0.000025 0.048121 -0.000029 0.006324
# 5 0.013685 -0.006053 0.008087 -0.000029 0.046022 -0.000014
# 6 -0.000001 0.000000 -0.000012 0.006324 -0.000014 0.025189
#
#
# Mechanical properties :
#
#
# Convention : Reuss Voigt Hill
#
# Bulk Modulus (GPa) = 28.03253 45.18857 36.61055
# Shear Modulus (GPa) = 20.88901 30.99183 25.94042
#
# Velocity S-wave (km/s) = 2.93356 3.57322 3.26907
# Velocity P-wave (km/s) = 4.79824 5.96997 5.41588
#
# Compressibility (1/GPa) = 0.03567284
#
# Stress axis : x y z
#
# Youngs Moduli (GPa) = 25.60428 118.27503 40.99333
#
# Poissons Ratio (x) = 1.09803 0.35721
# Poissons Ratio (y) = 0.23770 0.00486
# Poissons Ratio (z) = 0.22311 0.01403
#
# Static dielectric constant tensor:
#      x y z
#    x 2.053530 0.000000 0.054400 
#    y 0.000000 2.044550 0.000000 
#    z 0.054400 0.000000 2.001420 
# 
# From -- ./inp_files/284640.got.cif
#   From: 2010.05.17/outbox.cif.g08.bks.cpg/sg15_143_cif.got.tgz:284640.got - 2010.06.03 18:47:42.
