data_PCOD9260809
_publ_section_title
;
Structure prediction by ZEFSAII (Michael W. Deem and Ramdas Pophale) SiO2 
 PCOD9260809
Probable space group: C 2/C
;
_chemical_formula_sum "Si O2"
_cell_formula_units_Z 60
_cell_length_a 10.889573
_cell_length_b 9.045940
_cell_length_c 32.254093
_cell_angle_alpha 90.000000
_cell_angle_beta 42.758115
_cell_angle_gamma 90.000000
_cell_volume 2157.040157
_symmetry_space_group_name_H-M "C 2/C"
_symmetry_group_IT_number 15
_symmetry_cell_setting 'monoclinic'
loop_
_space_group_symop_operation_xyz
x,y,z
-x,y,1/2-z
-x,-y,-z
x,-y,1/2+z
1/2+x,1/2+y,z
1/2-x,1/2+y,1/2-z
1/2-x,1/2-y,-z
1/2+x,1/2-y,1/2+z
loop_
_atom_site_type_symbol
_atom_site_label
_atom_site_fract_x
_atom_site_fract_y
_atom_site_fract_z
Si Si1 0.886699 0.727304 0.217147
Si Si2 0.348363 0.918561 0.011055
Si Si3 0.584959 0.666596 0.349788
Si Si4 0.209680 0.381818 0.077361
Si Si5 0.250000 0.250000 0.000000
Si Si6 0.830306 0.947845 0.364130
Si Si7 0.883939 0.548664 0.813545
Si Si8 0.033335 0.362146 0.889558
O O1 0.710094 0.761087 0.287740
O O2 0.872631 0.730417 0.170479
O O3 0.047163 0.834337 0.190812
O O4 0.955644 0.564005 0.211856
O O5 0.228047 0.862753 0.079037
O O6 0.264825 0.063213 0.008623
O O7 0.431944 0.807454 0.956264
O O8 0.500000 0.000000 0.000000
O O9 0.439285 0.770532 0.410772
O O10 0.462843 0.569558 0.350052
O O11 0.716188 0.558318 0.342423
O O12 0.193806 0.354678 0.129761
O O13 0.124929 0.541360 0.093266
O O14 0.369751 0.308674 0.012854
O O15 0.680104 0.023804 0.372945
O O16 0.000000 0.633760 0.750000
#
# Coordination Sequence:
#
# PCOD9260809 Si02
#       8
#     8   8   8   8   4   8   8   8
#     4  10  23  39  60  89 122 161 208 261 313 380
#     4   9  19  38  62  91 123 161 208 260 314 380
#     4  11  23  38  58  89 126 158 208 256 315 383
#     4  10  20  39  66  84 124 165 208 262 317 374
#     4  10  18  38  64  92 122 164 212 266 320 372
#     4  11  22  39  62  92 125 164 211 256 327 377
#     4   9  21  41  59  86 122 163 208 257 316 376
#     4   9  21  40  64  90 118 163 211 256 320 380
#
# _framework density 27.815894
#
# number of rings (size 3 to 8) (size 9 to 14) (size 15 to 20)
#    0.000    2.133    1.333    0.800    5.600    2.133 
#    0.000    0.667    2.933    0.000    0.000    0.000 
#    0.000    0.000    0.000    0.000    0.000    0.000 
#
# Total GULP energy -167146.046285 kJ/mol
# GULP energy per Si atom -5571.534876 kJ/mol
# Density = 2.775258 g / cm^3
# Si number density = 27.815894 Si / 1000 Ang^3
#
#
#
# Elastic Constant Matrix: (Units=GPa)
#
#
# Indices 1 2 3 4 5 6 
#
# 1 81.3535 16.1171 32.2027 0.0000 9.0207 0.0000
# 2 16.1171 80.3379 23.0643 0.0000 -6.1491 0.0000
# 3 32.2027 23.0643 147.3977 0.0001 9.1138 0.0000
# 4 0.0000 0.0000 0.0001 41.6571 0.0000 -8.2787
# 5 9.0207 -6.1491 9.1138 0.0000 41.4389 0.0000
# 6 0.0000 0.0000 0.0000 -8.2787 0.0000 41.0766
#
#
#
# Elastic Compliance Matrix: (Units=1/GPa)
#
#
# Indices 1 2 3 4 5 6 
#
# 1 0.014070 -0.002313 -0.002536 0.000000 -0.002848 0.000000
# 2 -0.002313 0.013656 -0.001813 0.000000 0.002928 0.000000
# 3 -0.002536 -0.001813 0.007709 0.000000 -0.001412 0.000000
# 4 0.000000 0.000000 0.000000 0.025007 0.000000 0.005040
# 5 -0.002848 0.002928 -0.001412 0.000000 0.025497 0.000000
# 6 0.000000 0.000000 0.000000 0.005040 0.000000 0.025361
#
#
# Mechanical properties :
#
#
# Convention : Reuss Voigt Hill
#
# Bulk Modulus (GPa) = 45.22281 50.20639 47.71460
# Shear Modulus (GPa) = 37.88073 40.68151 39.28112
#
# Velocity S-wave (km/s) = 3.69431 3.82845 3.76198
# Velocity P-wave (km/s) = 5.87286 6.13445 6.00508
#
# Compressibility (1/GPa) = 0.02211274
#
# Stress axis : x y z
#
# Youngs Moduli (GPa) = 71.07406 73.22828 129.71207
#
# Poissons Ratio (x) = 0.16935 0.32894
# Poissons Ratio (y) = 0.16437 0.23512
# Poissons Ratio (z) = 0.18024 0.13274
#
# Static dielectric constant tensor:
#      x y z
#    x 2.301230 0.000000 0.086400 
#    y 0.000000 2.167480 0.000000 
#    z 0.086400 0.000000 2.678800 
# 
# From -- ./inp_files/310789.got.cif
#   From: 2010.05.17/outbox.cif.g08.bks.cpg/sg15_156_cif.got.tgz:310789.got - 2010.06.03 18:47:42.
