data_PCOD9260369
_publ_section_title
;
Structure prediction by ZEFSAII (Michael W. Deem and Ramdas Pophale) SiO2 
 PCOD9260369
Probable space group: C 2/C
;
_chemical_formula_sum "Si O2"
_cell_formula_units_Z 60
_cell_length_a 25.465228
_cell_length_b 10.638393
_cell_length_c 17.863003
_cell_angle_alpha 90.000000
_cell_angle_beta 148.398352
_cell_angle_gamma 90.000000
_cell_volume 2535.817413
_symmetry_space_group_name_H-M "C 2/C"
_symmetry_group_IT_number 15
_symmetry_cell_setting 'monoclinic'
loop_
_space_group_symop_operation_xyz
x,y,z
-x,y,1/2-z
-x,-y,-z
x,-y,1/2+z
1/2+x,1/2+y,z
1/2-x,1/2+y,1/2-z
1/2-x,1/2-y,-z
1/2+x,1/2-y,1/2+z
loop_
_atom_site_type_symbol
_atom_site_label
_atom_site_fract_x
_atom_site_fract_y
_atom_site_fract_z
Si Si1 0.527452 0.058849 0.864379
Si Si2 0.618938 0.334123 0.277595
Si Si3 0.465444 0.422714 0.884600
Si Si4 0.342505 0.063768 0.754429
Si Si5 0.067357 0.262979 0.032979
Si Si6 0.752998 0.209028 0.341335
Si Si7 0.841472 0.781684 0.429776
Si Si8 0.000000 0.688729 0.250000
O O1 0.500000 0.116399 0.750000
O O2 0.429538 0.066651 0.797971
O O3 0.543660 0.911696 0.863688
O O4 0.619990 0.141781 0.004786
O O5 0.598813 0.481459 0.242604
O O6 0.727685 0.295227 0.381583
O O7 0.581055 0.276971 0.308845
O O8 0.545605 0.261378 0.128792
O O9 0.412976 0.307656 0.863611
O O10 0.500000 0.500000 0.000000
O O11 0.559875 0.368637 0.954567
O O12 0.398266 0.098677 0.900969
O O13 0.245962 0.155226 0.627569
O O14 0.293725 0.926670 0.700968
O O15 0.133333 0.198895 0.048759
O O16 0.703312 0.274444 0.208234
#
# Coordination Sequence:
#
# PCOD9260369 Si02
#       8
#     8   8   8   8   8   8   8   4
#     4  10  22  41  60  82 125 163 211 250 296 354
#     4  11  21  40  61  82 130 161 200 250 301 368
#     4  10  18  37  59  85 123 155 185 250 309 362
#     4  11  21  36  62  94 119 154 208 250 315 361
#     4  10  22  34  61  95 119 152 200 254 316 362
#     4  11  21  35  64  95 120 157 194 257 316 366
#     4  11  22  38  63  93 124 157 204 256 311 360
#     4  10  24  42  60  90 116 174 206 248 298 366
#
# _framework density 23.661010000000001
#
# number of rings (size 3 to 8) (size 9 to 14) (size 15 to 20)
#    0.400    1.067    5.333    1.600    3.733    1.600 
#    1.200    0.667    0.000    0.000    0.000    0.000 
#    0.000    0.000    0.000    0.000    0.000    0.000 
#
# Total GULP energy -167574.715397 kJ/mol
# GULP energy per Si atom -5585.823847 kJ/mol
# Density = 2.360716 g / cm^3
# Si number density = 23.661010 Si / 1000 Ang^3
#
#
#
# Elastic Constant Matrix: (Units=GPa)
#
#
# Indices 1 2 3 4 5 6 
#
# 1 161.1821 39.1212 36.3578 0.0000 20.6145 0.0000
# 2 39.1212 97.4391 21.7761 0.0000 16.2257 0.0000
# 3 36.3578 21.7761 47.8936 0.0000 15.4591 0.0000
# 4 0.0000 0.0000 0.0000 26.2040 0.0000 4.0789
# 5 20.6145 16.2257 15.4591 0.0000 34.1462 0.0000
# 6 0.0000 0.0000 0.0000 4.0789 0.0000 43.6715
#
#
#
# Elastic Compliance Matrix: (Units=1/GPa)
#
#
# Indices 1 2 3 4 5 6 
#
# 1 0.007921 -0.001852 -0.004581 0.000000 -0.001828 0.000000
# 2 -0.001852 0.012248 -0.003098 0.000000 -0.003299 0.000000
# 3 -0.004581 -0.003098 0.028573 0.000000 -0.008698 0.000000
# 4 0.000000 0.000000 0.000000 0.038725 0.000000 -0.003617
# 5 -0.001828 -0.003299 -0.008698 0.000000 0.035895 0.000000
# 6 0.000000 0.000000 0.000000 -0.003617 0.000000 0.023236
#
#
# Mechanical properties :
#
#
# Convention : Reuss Voigt Hill
#
# Bulk Modulus (GPa) = 33.69208 55.66946 44.68077
# Shear Modulus (GPa) = 28.48124 34.75500 31.61812
#
# Velocity S-wave (km/s) = 3.47323 3.83674 3.65950
# Velocity P-wave (km/s) = 5.50952 6.57316 6.06471
#
# Compressibility (1/GPa) = 0.02968056
#
# Stress axis : x y z
#
# Youngs Moduli (GPa) = 126.25059 81.64481 34.99752
#
# Poissons Ratio (x) = 0.15121 0.16032
# Poissons Ratio (y) = 0.23382 0.10842
# Poissons Ratio (z) = 0.57834 0.25294
#
# Static dielectric constant tensor:
#      x y z
#    x 1.917840 0.000000 -0.030350 
#    y 0.000000 1.980020 0.000000 
#    z -0.030350 0.000000 1.937370 
# 
# From -- ./inp_files/219329.got.cif
#   From: 2010.05.17/outbox.cif.g08.bks.cpg/sg15_110_cif.got.tgz:219329.got - 2010.06.03 18:47:42.
