data_PCOD9260226
_publ_section_title
;
Structure prediction by ZEFSAII (Michael W. Deem and Ramdas Pophale) SiO2 
 PCOD9260226
Probable space group: C 2/C
;
_chemical_formula_sum "Si O2"
_cell_formula_units_Z 48
_cell_length_a 9.295409
_cell_length_b 27.287319
_cell_length_c 15.538623
_cell_angle_alpha 90.000000
_cell_angle_beta 38.027690
_cell_angle_gamma 90.000000
_cell_volume 2428.020722
_symmetry_space_group_name_H-M "C 2/C"
_symmetry_group_IT_number 15
_symmetry_cell_setting 'monoclinic'
loop_
_space_group_symop_operation_xyz
x,y,z
-x,y,1/2-z
-x,-y,-z
x,-y,1/2+z
1/2+x,1/2+y,z
1/2-x,1/2+y,1/2-z
1/2-x,1/2-y,-z
1/2+x,1/2-y,1/2+z
loop_
_atom_site_type_symbol
_atom_site_label
_atom_site_fract_x
_atom_site_fract_y
_atom_site_fract_z
Si Si1 0.953280 0.702456 0.130587
Si Si2 0.392501 0.287100 0.553362
Si Si3 0.543359 0.534957 0.562957
Si Si4 0.504547 0.435967 0.652220
Si Si5 0.493360 0.098999 0.156413
Si Si6 0.228644 0.881446 0.388968
O O1 0.176694 0.710741 0.087882
O O2 0.973887 0.644673 0.101450
O O3 0.723929 0.712645 0.297066
O O4 0.972831 0.738006 0.039764
O O5 0.560002 0.334176 0.462831
O O6 0.500000 0.500000 0.500000
O O7 0.555284 0.493780 0.629988
O O8 0.784483 0.564515 0.454172
O O9 0.349693 0.577461 0.644492
O O10 0.500000 0.415266 0.750000
O O11 0.672139 0.407085 0.507681
O O12 0.243476 0.430879 0.738893
O O13 0.500000 0.120628 0.250000
O O14 0.500000 0.869597 0.250000
#
# Coordination Sequence:
#
# PCOD9260226 Si02
#       6
#     8   8   8   8   8   8
#     4  10  18  36  65  90 121 149 218 267 306 366
#     4  10  19  37  61  94 115 160 205 267 315 366
#     4  10  21  35  63  93 120 167 217 249 309 384
#     4  11  25  41  62  94 131 167 210 267 321 370
#     4  12  18  40  70  88 123 176 219 248 316 389
#     4  11  22  41  64  88 127 167 214 258 316 393
#
# _framework density 19.769189000000001
#
# number of rings (size 3 to 8) (size 9 to 14) (size 15 to 20)
#    0.000    1.333    8.333    0.000    4.667    0.667 
#    3.000    1.667    0.000    0.000    0.000    0.000 
#    0.000    0.000    0.000    0.000    0.000    0.000 
#
# Total GULP energy -133731.950212 kJ/mol
# GULP energy per Si atom -5572.164592 kJ/mol
# Density = 1.972419 g / cm^3
# Si number density = 19.769189 Si / 1000 Ang^3
#
#
#
# Elastic Constant Matrix: (Units=GPa)
#
#
# Indices 1 2 3 4 5 6 
#
# 1 35.7676 14.8804 36.2234 0.0000 -3.4094 0.0000
# 2 14.8804 146.4570 56.6681 0.0000 -7.7746 0.0000
# 3 36.2234 56.6681 101.0019 0.0000 -20.2746 0.0000
# 4 0.0000 0.0000 0.0000 10.2890 0.0000 17.0693
# 5 -3.4094 -7.7746 -20.2746 0.0000 28.2637 0.0000
# 6 0.0000 0.0000 0.0000 17.0693 0.0000 -8.9847
#
#
#
# Elastic Compliance Matrix: (Units=1/GPa)
#
#
# Indices 1 2 3 4 5 6 
#
# 1 0.045782 0.002414 -0.019313 0.000000 -0.007667 0.000000
# 2 0.002414 0.008889 -0.006196 0.000000 -0.001708 0.000000
# 3 -0.019313 -0.006196 0.022773 0.000000 0.012302 0.000000
# 4 0.000000 0.000000 0.000000 0.023409 0.000000 0.044474
# 5 -0.007667 -0.001708 0.012302 0.000000 0.042811 0.000000
# 6 0.000000 0.000000 0.000000 0.044474 0.000000 -0.026808
#
#
# Mechanical properties :
#
#
# Convention : Reuss Voigt Hill
#
# Bulk Modulus (GPa) = 31.99533 55.41892 43.70712
# Shear Modulus (GPa) = 28.82432 17.61060 23.21746
#
# Velocity S-wave (km/s) = 3.82258 2.98788 3.43071
# Velocity P-wave (km/s) = 5.97514 6.32432 6.15221
#
# Compressibility (1/GPa) = 0.03125456
#
# Stress axis : x y z
#
# Youngs Moduli (GPa) = 21.84270 112.49278 43.91173
#
# Poissons Ratio (x) = -0.27156 0.84805
# Poissons Ratio (y) = -0.05273 0.27209
# Poissons Ratio (z) = 0.42184 0.69703
#
# Static dielectric constant tensor:
#      x y z
#    x 1.721830 0.000000 0.012100 
#    y 0.000000 1.742930 0.000000 
#    z 0.012100 0.000000 1.738460 
# 
# From -- ./inp_files/200896.got.cif
#   From: 2010.05.17/outbox.cif.g08.bks.cpg/sg15_101_cif.got.tgz:200896.got - 2010.06.03 18:47:42.
