data_PCOD9260217
_publ_section_title
;
Structure prediction by ZEFSAII (Michael W. Deem and Ramdas Pophale) SiO2 
 PCOD9260217
Probable space group: C 2/C
;
_chemical_formula_sum "Si O2"
_cell_formula_units_Z 52
_cell_length_a 8.146786
_cell_length_b 15.070060
_cell_length_c 17.991333
_cell_angle_alpha 90.000000
_cell_angle_beta 88.416560
_cell_angle_gamma 90.000000
_cell_volume 2207.998438
_symmetry_space_group_name_H-M "C 2/C"
_symmetry_group_IT_number 15
_symmetry_cell_setting 'monoclinic'
loop_
_space_group_symop_operation_xyz
x,y,z
-x,y,1/2-z
-x,-y,-z
x,-y,1/2+z
1/2+x,1/2+y,z
1/2-x,1/2+y,1/2-z
1/2-x,1/2-y,-z
1/2+x,1/2-y,1/2+z
loop_
_atom_site_type_symbol
_atom_site_label
_atom_site_fract_x
_atom_site_fract_y
_atom_site_fract_z
Si Si1 0.289654 0.358606 0.820633
Si Si2 0.378262 0.989808 0.105690
Si Si3 0.357268 0.606453 0.692709
Si Si4 0.500000 0.101777 0.750000
Si Si5 0.882573 0.233273 0.563530
Si Si6 0.868844 0.370835 0.971841
Si Si7 0.653390 0.394948 0.834698
O O1 0.270527 0.455404 0.858347
O O2 0.176301 0.294548 0.867902
O O3 0.482145 0.342772 0.829004
O O4 0.239307 0.359472 0.735482
O O5 0.473783 0.954085 0.175543
O O6 0.490262 0.060778 0.060308
O O7 0.329454 0.909347 0.053016
O O8 0.500000 0.630629 0.750000
O O9 0.181418 0.641520 0.728686
O O10 0.384219 0.640692 0.607311
O O11 0.357998 0.499363 0.684734
O O12 0.750000 0.250000 0.500000
O O13 0.052488 0.273203 0.531253
O O14 0.725919 0.379911 0.914237
#
# Coordination Sequence:
#
# PCOD9260217 Si02
#       7
#     8   8   8   4   8   8   8
#     4  10  22  41  69  94 139 174 233 278 346 410
#     4  10  18  36  64  99 118 177 227 277 330 404
#     4  12  25  44  70 105 138 179 232 296 350 415
#     4  12  20  40  70  94 136 168 234 288 340 402
#     4  11  27  47  64  96 146 185 222 286 365 412
#     4  10  22  37  68  92 134 175 226 272 343 416
#     4  11  21  43  69 103 127 176 237 289 331 414
#
# _framework density 23.550740000000001
#
# number of rings (size 3 to 8) (size 9 to 14) (size 15 to 20)
#    0.000    1.231    4.615    0.923    6.462    3.077 
#    2.769    0.769    0.000    0.000    0.000    0.000 
#    0.000    0.000    0.000    0.000    0.000    0.000 
#
# Total GULP energy -145220.671304 kJ/mol
# GULP energy per Si atom -5585.410435 kJ/mol
# Density = 2.349714 g / cm^3
# Si number density = 23.550740 Si / 1000 Ang^3
#
#
#
# Elastic Constant Matrix: (Units=GPa)
#
#
# Indices 1 2 3 4 5 6 
#
# 1 68.5987 -11.7608 -4.9865 0.0000 9.9861 0.0000
# 2 -11.7608 38.3667 0.5995 0.0000 -3.9781 0.0000
# 3 -4.9865 0.5995 90.9783 0.0000 8.5742 0.0000
# 4 0.0000 0.0000 0.0000 31.4081 0.0000 4.7837
# 5 9.9861 -3.9781 8.5742 0.0000 34.4823 0.0000
# 6 0.0000 0.0000 0.0000 4.7837 0.0000 8.7252
#
#
#
# Elastic Compliance Matrix: (Units=1/GPa)
#
#
# Indices 1 2 3 4 5 6 
#
# 1 0.016082 0.004447 0.001273 0.000000 -0.004461 0.000000
# 2 0.004447 0.027629 -0.000120 0.000000 0.001929 0.000000
# 3 0.001273 -0.000120 0.011365 0.000000 -0.003208 0.000000
# 4 0.000000 0.000000 0.000000 0.034740 0.000000 -0.019047
# 5 -0.004461 0.001929 -0.003208 0.000000 0.031313 0.000000
# 6 0.000000 0.000000 0.000000 -0.019047 0.000000 0.125054
#
#
# Mechanical properties :
#
#
# Convention : Reuss Voigt Hill
#
# Bulk Modulus (GPa) = 15.08860 18.40533 16.74697
# Shear Modulus (GPa) = 19.44963 29.19587 24.32275
#
# Velocity S-wave (km/s) = 2.87690 3.52476 3.21718
# Velocity P-wave (km/s) = 4.17805 4.93937 4.57458
#
# Compressibility (1/GPa) = 0.06627518
#
# Stress axis : x y z
#
# Youngs Moduli (GPa) = 62.18190 36.19326 87.99305
#
# Poissons Ratio (x) = -0.16096 -0.11197
# Poissons Ratio (y) = -0.27654 0.01057
# Poissons Ratio (z) = -0.07913 0.00435
#
# Static dielectric constant tensor:
#      x y z
#    x 1.942380 0.000000 -0.037830 
#    y 0.000000 2.027390 0.000000 
#    z -0.037830 0.000000 1.844280 
# 
# From -- ./inp_files/190513.got.cif
#   From: 2010.05.17/outbox.cif.g08.bks.cpg/sg15_96_cif.got.tgz:190513.got - 2010.06.03 18:47:42.
