data_PCOD9260288
_publ_section_title
;
Structure prediction by ZEFSAII (Michael W. Deem and Ramdas Pophale) SiO2 
 PCOD9260288
Probable space group: C 2/C
;
_chemical_formula_sum "Si O2"
_cell_formula_units_Z 44
_cell_length_a 27.046564
_cell_length_b 11.386974
_cell_length_c 14.695337
_cell_angle_alpha 90.000000
_cell_angle_beta 151.817486
_cell_angle_gamma 90.000000
_cell_volume 2137.475620
_symmetry_space_group_name_H-M "C 2/C"
_symmetry_group_IT_number 15
_symmetry_cell_setting 'monoclinic'
loop_
_space_group_symop_operation_xyz
x,y,z
-x,y,1/2-z
-x,-y,-z
x,-y,1/2+z
1/2+x,1/2+y,z
1/2-x,1/2+y,1/2-z
1/2-x,1/2-y,-z
1/2+x,1/2-y,1/2+z
loop_
_atom_site_type_symbol
_atom_site_label
_atom_site_fract_x
_atom_site_fract_y
_atom_site_fract_z
Si Si1 0.000000 0.935467 0.250000
Si Si2 0.620698 0.986524 0.923225
Si Si3 0.414878 0.567478 0.804824
Si Si4 0.767182 0.982345 0.831487
Si Si5 0.747597 0.269728 0.389794
Si Si6 0.232917 0.613063 0.949420
O O1 0.960212 0.880140 0.282607
O O2 0.106518 0.999668 0.458773
O O3 0.500000 0.001612 0.750000
O O4 0.705877 0.024652 0.137283
O O5 0.643076 0.057395 0.866803
O O6 0.652912 0.850060 0.970007
O O7 0.358855 0.654835 0.785550
O O8 0.331103 0.469047 0.637415
O O9 0.500000 0.500000 0.000000
O O10 0.747913 0.853205 0.841291
O O11 0.718815 0.081908 0.819883
O O12 0.750000 0.250000 0.500000
O O13 0.250000 0.750000 0.000000
#
# Coordination Sequence:
#
# PCOD9260288 Si02
#       6
#     4   8   8   8   8   8
#     4  10  18  36  68  94 116 164 222 258 322 380
#     4  11  26  44  65 100 133 176 224 266 336 401
#     4  10  21  39  64  93 126 163 216 267 324 383
#     4  11  24  43  68  97 133 172 221 275 332 391
#     4  11  21  45  65  92 133 168 220 283 318 386
#     4  10  23  45  61  93 140 167 211 272 332 388
#
# _framework density 20.58503
#
# number of rings (size 3 to 8) (size 9 to 14) (size 15 to 20)
#    0.000    1.455    5.455    2.182    3.818    2.182 
#    9.818    0.000    0.000    0.000    0.000    0.000 
#    0.000    0.000    0.000    0.000    0.000    0.000 
#
# Total GULP energy -122472.509834 kJ/mol
# GULP energy per Si atom -5566.932265 kJ/mol
# Density = 2.053818 g / cm^3
# Si number density = 20.585030 Si / 1000 Ang^3
#
#
#
# Elastic Constant Matrix: (Units=GPa)
#
#
# Indices 1 2 3 4 5 6 
#
# 1 89.4500 11.7051 24.8438 0.0000 26.4538 0.0000
# 2 11.7051 100.8621 -11.6999 0.0000 13.6928 0.0000
# 3 24.8438 -11.6999 86.7479 0.0000 16.5678 0.0000
# 4 0.0000 0.0000 0.0000 16.2397 0.0000 -6.6556
# 5 26.4538 13.6928 16.5678 0.0000 35.6801 0.0000
# 6 0.0000 0.0000 0.0000 -6.6556 0.0000 27.8201
#
#
#
# Elastic Compliance Matrix: (Units=1/GPa)
#
#
# Indices 1 2 3 4 5 6 
#
# 1 0.014787 -0.000715 -0.002513 0.000000 -0.009522 0.000000
# 2 -0.000715 0.010966 0.002618 0.000000 -0.004894 0.000000
# 3 -0.002513 0.002618 0.013647 0.000000 -0.005479 0.000000
# 4 0.000000 0.000000 0.000000 0.068272 0.000000 0.016333
# 5 -0.009522 -0.004894 -0.005479 0.000000 0.039509 0.000000
# 6 0.000000 0.000000 0.000000 0.016333 0.000000 0.039853
#
#
# Mechanical properties :
#
#
# Convention : Reuss Voigt Hill
#
# Bulk Modulus (GPa) = 26.19087 36.30644 31.24865
# Shear Modulus (GPa) = 24.87840 32.76205 28.82023
#
# Velocity S-wave (km/s) = 3.48022 3.99375 3.74579
# Velocity P-wave (km/s) = 5.37588 6.24038 5.82419
#
# Compressibility (1/GPa) = 0.03818125
#
# Stress axis : x y z
#
# Youngs Moduli (GPa) = 67.62749 91.19411 73.27747
#
# Poissons Ratio (x) = 0.06518 0.18412
# Poissons Ratio (y) = 0.04834 -0.19187
# Poissons Ratio (z) = 0.16992 -0.23878
#
# Static dielectric constant tensor:
#      x y z
#    x 1.820880 0.000000 0.027330 
#    y 0.000000 1.671310 0.000000 
#    z 0.027330 0.000000 1.806830 
# 
# From -- ./inp_files/177681.got.cif
#   From: 2010.05.17/outbox.cif.g08.bks.cpg/sg15_89_cif.got.tgz:177681.got - 2010.06.03 18:47:42.
