data_PCOD9260833
_publ_section_title
;
Structure prediction by ZEFSAII (Michael W. Deem and Ramdas Pophale) SiO2 
 PCOD9260833
Probable space group: C 2/C
;
_chemical_formula_sum "Si O2"
_cell_formula_units_Z 40
_cell_length_a 12.258402
_cell_length_b 17.559319
_cell_length_c 7.784778
_cell_angle_alpha 90.000000
_cell_angle_beta 113.088094
_cell_angle_gamma 90.000000
_cell_volume 1541.451262
_symmetry_space_group_name_H-M "C 2/C"
_symmetry_group_IT_number 15
_symmetry_cell_setting 'monoclinic'
loop_
_space_group_symop_operation_xyz
x,y,z
-x,y,1/2-z
-x,-y,-z
x,-y,1/2+z
1/2+x,1/2+y,z
1/2-x,1/2+y,1/2-z
1/2-x,1/2-y,-z
1/2+x,1/2-y,1/2+z
loop_
_atom_site_type_symbol
_atom_site_label
_atom_site_fract_x
_atom_site_fract_y
_atom_site_fract_z
Si Si1 0.741359 0.101274 0.922102
Si Si2 0.340714 0.444650 0.853310
Si Si3 0.030171 0.675351 0.988677
Si Si4 0.535834 0.660565 0.572876
Si Si5 0.184937 0.669994 0.434649
O O1 0.804703 0.085145 0.144534
O O2 0.612600 0.134295 0.898265
O O3 0.823606 0.161195 0.873838
O O4 0.771298 0.023927 0.837140
O O5 0.282607 0.392622 0.962978
O O6 0.478079 0.418584 0.967846
O O7 0.995178 0.764346 0.944634
O O8 0.110113 0.674922 0.211404
O O9 0.905532 0.641112 0.975008
O O10 0.500000 0.668815 0.750000
O O11 0.250000 0.750000 0.500000
#
# Coordination Sequence:
#
# PCOD9260833 Si02
#       5
#     8   8   8   8   8
#     4  11  25  40  62  97 132 169 218 269 325 390
#     4  11  23  40  64  91 132 171 216 262 325 387
#     4  10  21  38  64  97 127 166 211 273 327 381
#     4  12  21  40  68  94 126 170 218 274 325 385
#     4  10  18  38  65  94 127 170 212 264 326 393
#
# _framework density 25.949569
#
# number of rings (size 3 to 8) (size 9 to 14) (size 15 to 20)
#    0.000    1.200    4.000    3.000    0.000    0.800 
#    0.000    0.000    0.000    0.000    0.000    0.000 
#    0.000    0.000    0.000    0.000    0.000    0.000 
#
# Total GULP energy -111745.343674 kJ/mol
# GULP energy per Si atom -5587.267184 kJ/mol
# Density = 2.589051 g / cm^3
# Si number density = 25.949569 Si / 1000 Ang^3
#
#
#
# Elastic Constant Matrix: (Units=GPa)
#
#
# Indices 1 2 3 4 5 6 
#
# 1 238.4950 40.9466 47.9678 0.0000 -31.8386 0.0000
# 2 40.9466 101.2167 -6.7667 0.0000 -16.3995 0.0000
# 3 47.9678 -6.7667 122.3546 0.0000 -36.8424 0.0000
# 4 0.0000 0.0000 0.0000 10.1871 0.0000 -9.9665
# 5 -31.8386 -16.3995 -36.8424 0.0000 49.5873 0.0000
# 6 0.0000 0.0000 0.0000 -9.9665 0.0000 40.1354
#
#
#
# Elastic Compliance Matrix: (Units=1/GPa)
#
#
# Indices 1 2 3 4 5 6 
#
# 1 0.005043 -0.001933 -0.001676 0.000000 0.001353 0.000000
# 2 -0.001933 0.011609 0.002811 0.000000 0.004687 0.000000
# 3 -0.001676 0.002811 0.011518 0.000000 0.008411 0.000000
# 4 0.000000 0.000000 0.000000 0.129666 0.000000 0.032199
# 5 0.001353 0.004687 0.008411 0.000000 0.028835 0.000000
# 6 0.000000 0.000000 0.000000 0.032199 0.000000 0.032911
#
#
# Mechanical properties :
#
#
# Convention : Reuss Voigt Hill
#
# Bulk Modulus (GPa) = 37.63125 69.59573 53.61349
# Shear Modulus (GPa) = 21.73574 45.30984 33.52279
#
# Velocity S-wave (km/s) = 2.89730 4.18314 3.59812
# Velocity P-wave (km/s) = 5.07204 7.08586 6.16178
#
# Compressibility (1/GPa) = 0.02657366
#
# Stress axis : x y z
#
# Youngs Moduli (GPa) = 198.31101 86.13992 86.81782
#
# Poissons Ratio (x) = 0.16649 0.14554
# Poissons Ratio (y) = 0.38330 -0.24405
# Poissons Ratio (z) = 0.33245 -0.24214
#
# Static dielectric constant tensor:
#      x y z
#    x 2.021450 0.000000 0.041420 
#    y 0.000000 2.091270 0.000000 
#    z 0.041420 0.000000 2.077850 
# 
# From -- ./inp_files/29334.got.cif
#   From: 2010.05.17/outbox.cif.g08.bks.cpg/sg15_15_cif.got.tgz:29334.got - 2010.06.03 18:47:42.
