data_PCOD9260170
_publ_section_title
;
Structure prediction by ZEFSAII (Michael W. Deem and Ramdas Pophale) SiO2 
 PCOD9260170
Probable space group: C 2/C
;
_chemical_formula_sum "Si O2"
_cell_formula_units_Z 60
_cell_length_a 11.526362
_cell_length_b 9.648994
_cell_length_c 22.207174
_cell_angle_alpha 90.000000
_cell_angle_beta 75.126197
_cell_angle_gamma 90.000000
_cell_volume 2387.077641
_symmetry_space_group_name_H-M "C 2/C"
_symmetry_group_IT_number 15
_symmetry_cell_setting 'monoclinic'
loop_
_space_group_symop_operation_xyz
x,y,z
-x,y,1/2-z
-x,-y,-z
x,-y,1/2+z
1/2+x,1/2+y,z
1/2-x,1/2+y,1/2-z
1/2-x,1/2-y,-z
1/2+x,1/2-y,1/2+z
loop_
_atom_site_type_symbol
_atom_site_label
_atom_site_fract_x
_atom_site_fract_y
_atom_site_fract_z
Si Si1 0.085929 0.764828 0.122917
Si Si2 0.711481 0.865591 0.331541
Si Si3 0.630301 0.958714 0.009422
Si Si4 0.497269 0.437291 0.678863
Si Si5 0.250000 0.750000 0.000000
Si Si6 0.752618 0.164647 0.387543
Si Si7 0.227436 0.082586 0.806973
Si Si8 0.543808 0.959262 0.153057
O O1 0.225776 0.764826 0.128596
O O2 0.111687 0.768172 0.048773
O O3 0.020447 0.624600 0.150595
O O4 0.033347 0.902458 0.159180
O O5 0.782616 0.862112 0.259529
O O6 0.572089 0.861627 0.332848
O O7 0.720473 0.020040 0.358287
O O8 0.720830 0.087298 0.993191
O O9 0.688542 0.842352 0.959944
O O10 0.500000 0.000000 0.000000
O O11 0.614794 0.927572 0.081654
O O12 0.500000 0.409082 0.750000
O O13 0.602150 0.348150 0.633954
O O14 0.358413 0.448372 0.676996
O O15 0.703571 0.294247 0.356732
O O16 0.366405 0.050842 0.802878
#
# Coordination Sequence:
#
# PCOD9260170 Si02
#       8
#     8   8   8   8   4   8   8   8
#     4  10  21  38  69  93 124 168 220 273 328 390
#     4  11  22  45  64  97 132 170 224 280 333 403
#     4  11  21  41  70  96 131 172 224 281 336 403
#     4  11  22  43  64  92 131 178 222 265 334 409
#     4  10  18  36  64 102 120 158 224 274 320 388
#     4  11  24  43  68  95 131 179 222 271 336 407
#     4  12  27  41  63  96 137 176 217 276 343 406
#     4  11  25  40  66 103 129 169 223 282 338 398
#
# _framework density 25.135337
#
# number of rings (size 3 to 8) (size 9 to 14) (size 15 to 20)
#    0.000    1.067    6.667    1.200    3.733    3.733 
#    0.000    0.667    0.000    0.000    0.000    0.000 
#    0.000    0.000    0.000    0.000    0.000    0.000 
#
# Total GULP energy -167270.869477 kJ/mol
# GULP energy per Si atom -5575.695649 kJ/mol
# Density = 2.507813 g / cm^3
# Si number density = 25.135337 Si / 1000 Ang^3
#
#
#
# Elastic Constant Matrix: (Units=GPa)
#
#
# Indices 1 2 3 4 5 6 
#
# 1 128.9929 21.0739 -7.8361 0.0000 -12.5626 0.0000
# 2 21.0739 63.9870 7.7440 0.0000 8.5123 0.0000
# 3 -7.8361 7.7440 84.0196 0.0000 -3.9245 0.0000
# 4 0.0000 0.0000 0.0000 19.0685 0.0000 6.5993
# 5 -12.5626 8.5123 -3.9245 0.0000 19.4586 0.0000
# 6 0.0000 0.0000 0.0000 6.5993 0.0000 57.7934
#
#
#
# Elastic Compliance Matrix: (Units=1/GPa)
#
#
# Indices 1 2 3 4 5 6 
#
# 1 0.009382 -0.004399 0.001669 0.000000 0.008318 0.000000
# 2 -0.004399 0.018958 -0.002703 0.000000 -0.011678 0.000000
# 3 0.001669 -0.002703 0.012530 0.000000 0.004787 0.000000
# 4 0.000000 0.000000 0.000000 0.054600 0.000000 -0.006235
# 5 0.008318 -0.011678 0.004787 0.000000 0.062835 0.000000
# 6 0.000000 0.000000 0.000000 -0.006235 0.000000 0.018015
#
#
# Mechanical properties :
#
#
# Convention : Reuss Voigt Hill
#
# Bulk Modulus (GPa) = 33.32770 35.44036 34.38403
# Shear Modulus (GPa) = 25.35652 36.33197 30.84424
#
# Velocity S-wave (km/s) = 3.17961 3.80604 3.50684
# Velocity P-wave (km/s) = 5.17377 5.78316 5.48694
#
# Compressibility (1/GPa) = 0.03000507
#
# Stress axis : x y z
#
# Youngs Moduli (GPa) = 106.58159 52.74940 79.80607
#
# Poissons Ratio (x) = 0.23203 -0.13320
# Poissons Ratio (y) = 0.46882 0.21572
# Poissons Ratio (z) = -0.17789 0.14258
#
# Static dielectric constant tensor:
#      x y z
#    x 2.178590 0.000000 -0.066600 
#    y 0.000000 2.009110 0.000000 
#    z -0.066600 0.000000 2.020580 
# 
# From -- ./inp_files/268779.got.cif
#   From: 2010.05.17/outbox.cif.g08.bks.cpg/sg15_135_cif.got.tgz:268779.got - 2010.06.03 18:47:42.
