data_PCOD9260266
_publ_section_title
;
Structure prediction by ZEFSAII (Michael W. Deem and Ramdas Pophale) SiO2 
 PCOD9260266
Probable space group: C 2/C
;
_chemical_formula_sum "Si O2"
_cell_formula_units_Z 60
_cell_length_a 19.740073
_cell_length_b 9.383851
_cell_length_c 18.606435
_cell_angle_alpha 90.000000
_cell_angle_beta 51.111397
_cell_angle_gamma 90.000000
_cell_volume 2682.736547
_symmetry_space_group_name_H-M "C 2/C"
_symmetry_group_IT_number 15
_symmetry_cell_setting 'monoclinic'
loop_
_space_group_symop_operation_xyz
x,y,z
-x,y,1/2-z
-x,-y,-z
x,-y,1/2+z
1/2+x,1/2+y,z
1/2-x,1/2+y,1/2-z
1/2-x,1/2-y,-z
1/2+x,1/2-y,1/2+z
loop_
_atom_site_type_symbol
_atom_site_label
_atom_site_fract_x
_atom_site_fract_y
_atom_site_fract_z
Si Si1 0.500000 0.934974 0.750000
Si Si2 0.441624 0.191598 0.580375
Si Si3 0.960820 0.955474 0.919048
Si Si4 0.175041 0.588735 0.088059
Si Si5 0.688234 0.581166 0.377491
Si Si6 0.164063 0.918348 0.107949
Si Si7 0.145639 0.887607 0.288253
Si Si8 0.440672 0.878630 0.635157
O O1 0.411193 0.002632 0.839368
O O2 0.468475 0.852744 0.699601
O O3 0.503733 0.299189 0.584003
O O4 0.351647 0.271267 0.623438
O O5 0.488026 0.160759 0.472831
O O6 0.427137 0.045621 0.632329
O O7 0.909989 0.983098 0.878159
O O8 0.046836 0.052759 0.864257
O O9 0.890933 0.008158 0.024521
O O10 0.232503 0.594151 0.121471
O O11 0.150732 0.754640 0.088595
O O12 0.240606 0.536410 0.983564
O O13 0.706024 0.480345 0.298770
O O14 0.164190 0.910730 0.192827
O O15 0.141010 0.725681 0.318455
#
# Coordination Sequence:
#
# PCOD9260266 Si02
#       8
#     4   8   8   8   8   8   8   8
#     4  12  24  44  62  90 124 168 226 264 336 398
#     4  10  21  39  62  97 139 172 211 260 333 386
#     4  10  18  36  66  97 132 169 219 272 315 388
#     4  10  23  39  64  93 125 169 215 285 322 397
#     4  10  20  38  62  97 131 165 221 277 324 375
#     4  10  21  35  62  98 128 165 220 272 330 379
#     4  11  18  35  63  98 128 173 220 265 313 396
#     4  11  22  37  64  94 131 185 207 258 318 409
#
# _framework density 22.365224000000001
#
# number of rings (size 3 to 8) (size 9 to 14) (size 15 to 20)
#    0.000    1.600    4.000    2.000    3.733    0.000 
#    7.200    0.000    0.000    4.800    0.000    0.000 
#    0.000    0.000    0.000    0.000    0.000    0.000 
#
# Total GULP energy -167649.854668 kJ/mol
# GULP energy per Si atom -5588.328489 kJ/mol
# Density = 2.231432 g / cm^3
# Si number density = 22.365224 Si / 1000 Ang^3
#
#
#
# Elastic Constant Matrix: (Units=GPa)
#
#
# Indices 1 2 3 4 5 6 
#
# 1 89.4272 44.3352 44.1414 0.0000 -4.9753 0.0000
# 2 44.3352 120.7681 28.9812 0.0000 4.7168 0.0001
# 3 44.1414 28.9812 98.3430 0.0000 -2.4490 0.0000
# 4 0.0000 0.0000 0.0000 14.4912 0.0000 4.3522
# 5 -4.9753 4.7168 -2.4490 0.0000 44.7288 0.0000
# 6 0.0000 0.0001 0.0000 4.3522 0.0000 21.0052
#
#
#
# Elastic Compliance Matrix: (Units=1/GPa)
#
#
# Indices 1 2 3 4 5 6 
#
# 1 0.016607 -0.004733 -0.006009 0.000000 0.002017 0.000000
# 2 -0.004733 0.010313 -0.000956 0.000000 -0.001666 0.000000
# 3 -0.006009 -0.000956 0.013151 0.000000 0.000152 0.000000
# 4 0.000000 0.000000 0.000000 0.073586 0.000000 -0.015247
# 5 0.002017 -0.001666 0.000152 0.000000 0.022765 0.000000
# 6 0.000000 0.000000 0.000000 -0.015247 0.000000 0.050766
#
#
# Mechanical properties :
#
#
# Convention : Reuss Voigt Hill
#
# Bulk Modulus (GPa) = 59.97323 60.38375 60.17849
# Shear Modulus (GPa) = 23.13272 28.78375 25.95823
#
# Velocity S-wave (km/s) = 3.21957 3.59135 3.41053
# Velocity P-wave (km/s) = 6.37922 6.65242 6.51725
#
# Compressibility (1/GPa) = 0.01667411
#
# Stress axis : x y z
#
# Youngs Moduli (GPa) = 60.21452 96.96951 76.03895
#
# Poissons Ratio (x) = 0.45900 0.45692
# Poissons Ratio (y) = 0.28502 0.07269
# Poissons Ratio (z) = 0.36183 0.09269
#
# Static dielectric constant tensor:
#      x y z
#    x 1.822280 0.000000 -0.025520 
#    y 0.000000 1.842190 0.000000 
#    z -0.025520 0.000000 1.870090 
# 
# From -- ./inp_files/252089.got.cif
#   From: 2010.05.17/outbox.cif.g08.bks.cpg/sg15_127_cif.got.tgz:252089.got - 2010.06.03 18:47:42.
