data_PCOD9260870
_publ_section_title
;
Structure prediction by ZEFSAII (Michael W. Deem and Ramdas Pophale) SiO2 
 PCOD9260870
Probable space group: C 2/C
;
_chemical_formula_sum "Si O2"
_cell_formula_units_Z 56
_cell_length_a 18.690468
_cell_length_b 12.604247
_cell_length_c 16.446748
_cell_angle_alpha 90.000000
_cell_angle_beta 146.132079
_cell_angle_gamma 90.000000
_cell_volume 2159.189794
_symmetry_space_group_name_H-M "C 2/C"
_symmetry_group_IT_number 15
_symmetry_cell_setting 'monoclinic'
loop_
_space_group_symop_operation_xyz
x,y,z
-x,y,1/2-z
-x,-y,-z
x,-y,1/2+z
1/2+x,1/2+y,z
1/2-x,1/2+y,1/2-z
1/2-x,1/2-y,-z
1/2+x,1/2-y,1/2+z
loop_
_atom_site_type_symbol
_atom_site_label
_atom_site_fract_x
_atom_site_fract_y
_atom_site_fract_z
Si Si1 0.500000 0.178415 0.750000
Si Si2 0.500000 0.000000 0.000000
Si Si3 0.782573 0.492359 0.012143
Si Si4 0.155305 0.239466 0.677313
Si Si5 0.078471 0.715544 0.654502
Si Si6 0.702372 0.400105 0.603108
Si Si7 0.208322 0.993943 0.275575
Si Si8 0.617529 0.779611 0.917749
O O1 0.541041 0.241899 0.709985
O O2 0.622317 0.104777 0.885527
O O3 0.432660 0.089675 0.874459
O O4 0.359869 0.982925 0.909903
O O5 0.721933 0.527109 0.042189
O O6 0.869179 0.594010 0.064163
O O7 0.682044 0.472156 0.843898
O O8 0.279967 0.251097 0.737203
O O9 0.161504 0.342041 0.743022
O O10 0.176329 0.130699 0.744015
O O11 0.031206 0.238188 0.506145
O O12 0.654528 0.459113 0.639254
O O13 0.618599 0.297506 0.496521
O O14 0.500000 0.751499 0.750000
O O15 0.750000 0.750000 0.000000
#
# Coordination Sequence:
#
# PCOD9260870 Si02
#       8
#     4   4   8   8   8   8   8   8
#     4  12  22  40  74 108 136 184 256 312 342 426
#     4  10  18  38  66  96 132 174 256 294 332 416
#     4  11  21  36  67 108 131 176 245 315 350 404
#     4  11  24  43  70 103 148 193 237 303 370 433
#     4  11  25  42  70 105 143 194 243 301 366 439
#     4  11  23  41  66  99 148 184 234 300 365 430
#     4  11  22  39  67 102 138 189 243 296 361 429
#     4  10  22  38  64  98 135 174 225 296 361 413
#
# _framework density 25.935654
#
# number of rings (size 3 to 8) (size 9 to 14) (size 15 to 20)
#    0.000    1.143    5.000    1.714    0.000    2.857 
#    0.000    2.143    7.857    0.000    0.000    0.000 
#    0.000    0.000    0.000    0.000    0.000    0.000 
#
# Total GULP energy -156281.813714 kJ/mol
# GULP energy per Si atom -5581.493347 kJ/mol
# Density = 2.587662 g / cm^3
# Si number density = 25.935654 Si / 1000 Ang^3
#
#
#
# Elastic Constant Matrix: (Units=GPa)
#
#
# Indices 1 2 3 4 5 6 
#
# 1 161.1819 35.7567 91.7112 0.0000 -36.3606 0.0000
# 2 35.7567 72.9946 20.9381 0.0000 -11.6470 0.0000
# 3 91.7112 20.9381 122.7852 0.0000 -18.9326 0.0000
# 4 0.0000 0.0000 0.0000 32.1060 0.0000 -7.4912
# 5 -36.3606 -11.6470 -18.9326 0.0000 55.2404 0.0000
# 6 0.0000 0.0000 0.0000 -7.4912 0.0000 29.5293
#
#
#
# Elastic Compliance Matrix: (Units=1/GPa)
#
#
# Indices 1 2 3 4 5 6 
#
# 1 0.012622 -0.003068 -0.008154 0.000000 0.004867 0.000000
# 2 -0.003068 0.015436 -0.000159 0.000000 0.001181 0.000000
# 3 -0.008154 -0.000159 0.014179 0.000000 -0.000542 0.000000
# 4 0.000000 0.000000 0.000000 0.033106 0.000000 0.008399
# 5 0.004867 0.001181 -0.000542 0.000000 0.021370 0.000000
# 6 0.000000 0.000000 0.000000 0.008399 0.000000 0.035995
#
#
# Mechanical properties :
#
#
# Convention : Reuss Voigt Hill
#
# Bulk Modulus (GPa) = 51.34659 72.64151 61.99405
# Shear Modulus (GPa) = 30.87138 37.27887 34.07512
#
# Velocity S-wave (km/s) = 3.45382 3.79537 3.62862
# Velocity P-wave (km/s) = 5.97878 6.87572 6.44288
#
# Compressibility (1/GPa) = 0.01947549
#
# Stress axis : x y z
#
# Youngs Moduli (GPa) = 79.22438 64.78220 70.52857
#
# Poissons Ratio (x) = 0.19872 0.57512
# Poissons Ratio (y) = 0.24302 0.01121
# Poissons Ratio (z) = 0.64603 0.01030
#
# Static dielectric constant tensor:
#      x y z
#    x 2.084310 0.000000 -0.067600 
#    y 0.000000 2.150140 0.000000 
#    z -0.067600 0.000000 2.081440 
# 
# From -- ./inp_files/215811.got.cif
#   From: 2010.05.17/outbox.cif.g08.bks.cpg/sg15_108_cif.got.tgz:215811.got - 2010.06.03 18:47:42.
