data_PCOD9260315
_publ_section_title
;
Structure prediction by ZEFSAII (Michael W. Deem and Ramdas Pophale) SiO2 
 PCOD9260315
Probable space group: C 2/C
;
_chemical_formula_sum "Si O2"
_cell_formula_units_Z 56
_cell_length_a 7.701173
_cell_length_b 12.541079
_cell_length_c 24.704361
_cell_angle_alpha 90.000000
_cell_angle_beta 116.038348
_cell_angle_gamma 90.000000
_cell_volume 2143.797223
_symmetry_space_group_name_H-M "C 2/C"
_symmetry_group_IT_number 15
_symmetry_cell_setting 'monoclinic'
loop_
_space_group_symop_operation_xyz
x,y,z
-x,y,1/2-z
-x,-y,-z
x,-y,1/2+z
1/2+x,1/2+y,z
1/2-x,1/2+y,1/2-z
1/2-x,1/2-y,-z
1/2+x,1/2-y,1/2+z
loop_
_atom_site_type_symbol
_atom_site_label
_atom_site_fract_x
_atom_site_fract_y
_atom_site_fract_z
Si Si1 0.100457 0.342456 0.310663
Si Si2 0.907816 0.888133 0.508974
Si Si3 0.026134 0.561073 0.902838
Si Si4 0.232089 0.058235 0.227391
Si Si5 0.581205 0.126498 0.346699
Si Si6 0.498270 0.303163 0.084557
Si Si7 0.630245 0.529556 0.384406
O O1 0.184862 0.443499 0.285491
O O2 0.282017 0.290793 0.364694
O O3 0.000000 0.274667 0.250000
O O4 0.961475 0.367309 0.342926
O O5 0.002294 0.803181 0.480451
O O6 0.917207 0.885389 0.574975
O O7 0.676755 0.887577 0.464265
O O8 0.000000 0.000000 0.500000
O O9 0.158278 0.478941 0.886665
O O10 0.856289 0.490407 0.904444
O O11 0.364086 0.093933 0.296146
O O12 0.300773 0.142890 0.191410
O O13 0.003028 0.047052 0.186770
O O14 0.607136 0.215489 0.394708
O O15 0.428506 0.416536 0.097093
#
# Coordination Sequence:
#
# PCOD9260315 Si02
#       7
#     8   8   8   8   8   8   8
#     4   9  15  35  53  73 103 153 182 219 275 342
#     4   9  18  37  61  81 108 151 192 226 272 343
#     4  10  19  33  60  82 112 143 185 236 285 332
#     4   9  18  35  57  71 113 153 185 223 280 350
#     4  10  18  37  52  81 111 150 184 228 291 335
#     4   9  20  34  56  81 111 143 192 229 274 333
#     4  10  20  37  56  86 107 148 196 230 274 338
#
# _framework density 26.121873000000001
#
# number of rings (size 3 to 8) (size 9 to 14) (size 15 to 20)
#    0.000    2.571    2.857    3.000    0.000    0.571 
#    7.714    8.571    0.000    0.000    0.000    0.000 
#    0.000    0.000    0.000    0.000    0.000    0.000 
#
# Total GULP energy -156098.403701 kJ/mol
# GULP energy per Si atom -5574.942989 kJ/mol
# Density = 2.606242 g / cm^3
# Si number density = 26.121873 Si / 1000 Ang^3
#
#
#
# Elastic Constant Matrix: (Units=GPa)
#
#
# Indices 1 2 3 4 5 6 
#
# 1 78.2578 -8.5453 20.7213 0.0000 10.6418 0.0000
# 2 -8.5453 45.9709 13.4621 0.0000 -6.1763 0.0000
# 3 20.7213 13.4621 150.5427 0.0000 16.7169 0.0000
# 4 0.0000 0.0000 0.0000 25.6303 0.0000 -9.6463
# 5 10.6418 -6.1763 16.7169 0.0000 34.4289 0.0000
# 6 0.0000 0.0000 0.0000 -9.6463 0.0000 17.1822
#
#
#
# Elastic Compliance Matrix: (Units=1/GPa)
#
#
# Indices 1 2 3 4 5 6 
#
# 1 0.013964 0.002741 -0.001842 0.000000 -0.002930 0.000000
# 2 0.002741 0.023815 -0.003052 0.000000 0.004907 0.000000
# 3 -0.001842 -0.003052 0.007575 0.000000 -0.003656 0.000000
# 4 0.000000 0.000000 0.000000 0.049469 0.000000 0.027772
# 5 -0.002930 0.004907 -0.003656 0.000000 0.032607 0.000000
# 6 0.000000 0.000000 0.000000 0.027772 0.000000 0.073792
#
#
# Mechanical properties :
#
#
# Convention : Reuss Voigt Hill
#
# Bulk Modulus (GPa) = 24.36079 36.22752 30.29416
# Shear Modulus (GPa) = 22.80929 32.05717 27.43323
#
# Velocity S-wave (km/s) = 2.95818 3.50696 3.24420
# Velocity P-wave (km/s) = 4.58409 5.50429 5.06513
#
# Compressibility (1/GPa) = 0.04104956
#
# Stress axis : x y z
#
# Youngs Moduli (GPa) = 71.61413 41.98962 132.01219
#
# Poissons Ratio (x) = -0.11511 0.24314
# Poissons Ratio (y) = -0.19632 0.40288
# Poissons Ratio (z) = 0.13190 0.12815
#
# Static dielectric constant tensor:
#      x y z
#    x 2.137030 0.000000 0.013720 
#    y 0.000000 2.189980 0.000000 
#    z 0.013720 0.000000 2.108860 
# 
# From -- ./inp_files/264395.got.cif
#   From: 2010.05.17/outbox.cif.g08.bks.cpg/sg15_133_cif.got.tgz:264395.got - 2010.06.03 18:47:42.
