data_PCOD9260246
_publ_section_title
;
Structure prediction by ZEFSAII (Michael W. Deem and Ramdas Pophale) SiO2 
 PCOD9260246
Probable space group: C 2/C
;
_chemical_formula_sum "Si O2"
_cell_formula_units_Z 44
_cell_length_a 12.125091
_cell_length_b 19.086270
_cell_length_c 14.860795
_cell_angle_alpha 90.000000
_cell_angle_beta 147.372011
_cell_angle_gamma 90.000000
_cell_volume 1854.315835
_symmetry_space_group_name_H-M "C 2/C"
_symmetry_group_IT_number 15
_symmetry_cell_setting 'monoclinic'
loop_
_space_group_symop_operation_xyz
x,y,z
-x,y,1/2-z
-x,-y,-z
x,-y,1/2+z
1/2+x,1/2+y,z
1/2-x,1/2+y,1/2-z
1/2-x,1/2-y,-z
1/2+x,1/2-y,1/2+z
loop_
_atom_site_type_symbol
_atom_site_label
_atom_site_fract_x
_atom_site_fract_y
_atom_site_fract_z
Si Si1 0.007485 0.354384 0.851815
Si Si2 0.141369 0.103910 0.628077
Si Si3 0.770798 0.956027 0.748555
Si Si4 0.000000 0.899600 0.750000
Si Si5 0.107627 0.788926 0.970635
Si Si6 0.753718 0.715017 0.841095
O O1 0.922884 0.407575 0.867804
O O2 0.857422 0.288920 0.732417
O O3 0.000000 0.391762 0.750000
O O4 0.200398 0.318108 0.030669
O O5 0.237081 0.157959 0.622020
O O6 0.121132 0.157473 0.696630
O O7 0.939241 0.074631 0.437715
O O8 0.260621 0.035914 0.742420
O O9 0.844614 0.952270 0.695244
O O10 0.992160 0.843109 0.826291
O O11 0.965247 0.737656 0.932906
O O12 0.250000 0.750000 0.000000
#
# Coordination Sequence:
#
# PCOD9260246 Si02
#       6
#     8   8   8   4   8   8
#     4  12  24  43  65  92 134 174 222 271 326 398
#     4  10  22  42  66  92 138 167 212 272 325 398
#     4  10  22  45  63  96 132 174 218 260 334 394
#     4  10  18  36  66  88 122 166 210 264 312 392
#     4  11  20  37  67  98 128 163 216 275 328 378
#     4  12  22  43  65  96 129 167 228 273 326 385
#
# _framework density 23.728428000000001
#
# number of rings (size 3 to 8) (size 9 to 14) (size 15 to 20)
#    0.000    1.091    5.455    2.727    0.000    0.727 
#   14.727    0.000    0.000    0.000    0.000    0.000 
#    0.000    0.000    0.000    0.000    0.000    0.000 
#
# Total GULP energy -122484.312819 kJ/mol
# GULP energy per Si atom -5567.468765 kJ/mol
# Density = 2.367442 g / cm^3
# Si number density = 23.728428 Si / 1000 Ang^3
#
#
#
# Elastic Constant Matrix: (Units=GPa)
#
#
# Indices 1 2 3 4 5 6 
#
# 1 116.4693 32.4582 12.9710 0.0004 -17.6263 0.0002
# 2 32.4582 122.3121 4.8681 0.0001 0.3755 0.0000
# 3 12.9710 4.8681 39.8623 0.0009 -18.9596 0.0001
# 4 0.0004 0.0001 0.0009 22.3069 0.0004 -11.5134
# 5 -17.6263 0.3755 -18.9596 0.0004 28.8945 0.0001
# 6 0.0002 0.0000 0.0001 -11.5134 0.0001 25.8806
#
#
#
# Elastic Compliance Matrix: (Units=1/GPa)
#
#
# Indices 1 2 3 4 5 6 
#
# 1 0.010311 -0.002755 -0.000015 0.000000 0.006316 0.000000
# 2 -0.002755 0.008977 -0.001533 0.000000 -0.002803 0.000000
# 3 -0.000015 -0.001533 0.036754 -0.000002 0.024128 -0.000001
# 4 0.000000 0.000000 -0.000002 0.058190 -0.000003 0.025887
# 5 0.006316 -0.002803 0.024128 -0.000003 0.054330 -0.000001
# 6 0.000000 0.000000 -0.000001 0.025887 -0.000001 0.050155
#
#
# Mechanical properties :
#
#
# Convention : Reuss Voigt Hill
#
# Bulk Modulus (GPa) = 21.08077 42.13761 31.60919
# Shear Modulus (GPa) = 20.56464 30.63948 25.60206
#
# Velocity S-wave (km/s) = 2.94711 3.59730 3.28832
# Velocity P-wave (km/s) = 4.52594 5.92038 5.26949
#
# Compressibility (1/GPa) = 0.04743659
#
# Stress axis : x y z
#
# Youngs Moduli (GPa) = 96.98099 111.40116 27.20778
#
# Poissons Ratio (x) = 0.30693 0.00040
# Poissons Ratio (y) = 0.26720 0.04171
# Poissons Ratio (z) = 0.00141 0.17078
#
# Static dielectric constant tensor:
#      x y z
#    x 2.021230 0.000000 -0.029740 
#    y 0.000000 1.965800 0.000000 
#    z -0.029740 0.000000 2.068210 
# 
# From -- ./inp_files/147285.got.cif
#   From: 2010.05.17/outbox.cif.g08.bks.cpg/sg15_74_cif.got.tgz:147285.got - 2010.06.03 18:47:42.
