data_PCOD9260939
_publ_section_title
;
Structure prediction by ZEFSAII (Michael W. Deem and Ramdas Pophale) SiO2 
 PCOD9260939
Probable space group: C 2/C
;
_chemical_formula_sum "Si O2"
_cell_formula_units_Z 60
_cell_length_a 29.546366
_cell_length_b 20.930129
_cell_length_c 13.872523
_cell_angle_alpha 90.000000
_cell_angle_beta 157.705079
_cell_angle_gamma 90.000000
_cell_volume 3254.611530
_symmetry_space_group_name_H-M "C 2/C"
_symmetry_group_IT_number 15
_symmetry_cell_setting 'monoclinic'
loop_
_space_group_symop_operation_xyz
x,y,z
-x,y,1/2-z
-x,-y,-z
x,-y,1/2+z
1/2+x,1/2+y,z
1/2-x,1/2+y,1/2-z
1/2-x,1/2-y,-z
1/2+x,1/2-y,1/2+z
loop_
_atom_site_type_symbol
_atom_site_label
_atom_site_fract_x
_atom_site_fract_y
_atom_site_fract_z
Si Si1 0.319204 0.491930 0.571358
Si Si2 0.774849 0.350579 0.890906
Si Si3 0.363806 0.536305 0.465139
Si Si4 0.568167 0.246494 0.486078
Si Si5 0.000000 0.296376 0.250000
Si Si6 0.515528 0.295172 0.594969
Si Si7 0.414437 0.431634 0.428232
Si Si8 0.217757 0.355570 0.377191
O O1 0.300076 0.535781 0.441314
O O2 0.325893 0.536826 0.676743
O O3 0.234142 0.431190 0.400866
O O4 0.453426 0.461968 0.827449
O O5 0.705285 0.417488 0.742917
O O6 0.675145 0.296694 0.681951
O O7 0.823409 0.343357 0.094680
O O8 0.882085 0.339056 0.029350
O O9 0.372855 0.463094 0.446418
O O10 0.500000 0.559463 0.750000
O O11 0.505189 0.269161 0.463708
O O12 0.628093 0.178459 0.628275
O O13 0.500000 0.245132 0.250000
O O14 0.993804 0.252994 0.140971
O O15 0.430921 0.356690 0.446909
O O16 0.652025 0.321616 0.873537
#
# Coordination Sequence:
#
# PCOD9260939 Si02
#       8
#     8   8   8   8   4   8   8   8
#     4   9  18  30  55  83 115 146 186 234 297 345
#     4  11  21  37  60  83 117 159 203 236 293 360
#     4  10  20  32  56  92 115 149 190 249 305 342
#     4  11  22  37  60  88 118 160 199 244 291 354
#     4  12  22  38  62  84 122 162 198 238 286 358
#     4  10  21  34  58  90 120 154 196 241 304 351
#     4   9  18  30  50  89 122 141 175 247 303 345
#     4  10  18  39  59  83 116 159 200 235 289 374
#
# _framework density 18.435379000000001
#
# number of rings (size 3 to 8) (size 9 to 14) (size 15 to 20)
#    0.000    1.867    4.000    1.200   12.133    0.000 
#    0.000    0.667    4.400    0.800    0.000    0.000 
#    0.000    0.000    0.000    0.000    0.000    0.000 
#
# Total GULP energy -167148.515060 kJ/mol
# GULP energy per Si atom -5571.617169 kJ/mol
# Density = 1.839342 g / cm^3
# Si number density = 18.435379 Si / 1000 Ang^3
#
#
#
# Elastic Constant Matrix: (Units=GPa)
#
#
# Indices 1 2 3 4 5 6 
#
# 1 93.4247 21.5581 40.4174 0.0000 -9.5804 0.0000
# 2 21.5581 75.9430 35.6622 0.0000 -2.0676 0.0000
# 3 40.4174 35.6622 45.7731 0.0000 -12.9620 0.0000
# 4 0.0000 0.0000 0.0000 21.2142 0.0000 -1.9519
# 5 -9.5804 -2.0676 -12.9620 0.0000 32.4101 0.0000
# 6 0.0000 0.0000 0.0000 -1.9519 0.0000 19.4195
#
#
#
# Elastic Compliance Matrix: (Units=1/GPa)
#
#
# Indices 1 2 3 4 5 6 
#
# 1 0.018104 0.004122 -0.019856 0.000000 -0.002327 0.000000
# 2 0.004122 0.022718 -0.023213 0.000000 -0.006616 0.000000
# 3 -0.019856 -0.023213 0.062457 0.000000 0.017629 0.000000
# 4 0.000000 0.000000 0.000000 0.047578 0.000000 0.004782
# 5 -0.002327 -0.006616 0.017629 0.000000 0.036795 0.000000
# 6 0.000000 0.000000 0.000000 0.004782 0.000000 0.051975
#
#
# Mechanical properties :
#
#
# Convention : Reuss Voigt Hill
#
# Bulk Modulus (GPa) = 39.39327 45.60179 42.49753
# Shear Modulus (GPa) = 15.33820 22.44230 18.89025
#
# Velocity S-wave (km/s) = 2.88757 3.49284 3.20453
# Velocity P-wave (km/s) = 5.70369 6.40752 6.06582
#
# Compressibility (1/GPa) = 0.02538505
#
# Stress axis : x y z
#
# Youngs Moduli (GPa) = 55.23571 44.01774 16.01108
#
# Poissons Ratio (x) = -0.18142 0.31791
# Poissons Ratio (y) = -0.22766 0.37166
# Poissons Ratio (z) = 1.09675 1.02177
#
# Static dielectric constant tensor:
#      x y z
#    x 1.682090 0.000000 -0.012500 
#    y 0.000000 1.652580 0.000000 
#    z -0.012500 0.000000 1.632710 
# 
# From -- ./inp_files/183096.got.cif
#   From: 2010.05.17/outbox.cif.g08.bks.cpg/sg15_92_cif.got.tgz:183096.got - 2010.06.03 18:47:42.
