data_PCOD9260042
_publ_section_title
;
Structure prediction by ZEFSAII (Michael W. Deem and Ramdas Pophale) SiO2 
 PCOD9260042
Probable space group: C 2/C
;
_chemical_formula_sum "Si O2"
_cell_formula_units_Z 44
_cell_length_a 9.756178
_cell_length_b 9.511466
_cell_length_c 21.415431
_cell_angle_alpha 90.000000
_cell_angle_beta 57.607923
_cell_angle_gamma 90.000000
_cell_volume 1678.043652
_symmetry_space_group_name_H-M "C 2/C"
_symmetry_group_IT_number 15
_symmetry_cell_setting 'monoclinic'
loop_
_space_group_symop_operation_xyz
x,y,z
-x,y,1/2-z
-x,-y,-z
x,-y,1/2+z
1/2+x,1/2+y,z
1/2-x,1/2+y,1/2-z
1/2-x,1/2-y,-z
1/2+x,1/2-y,1/2+z
loop_
_atom_site_type_symbol
_atom_site_label
_atom_site_fract_x
_atom_site_fract_y
_atom_site_fract_z
Si Si1 0.660735 0.595867 0.387598
Si Si2 0.182666 0.889836 0.734115
Si Si3 0.250000 0.250000 0.500000
Si Si4 0.685332 0.546562 0.053718
Si Si5 0.648053 0.346610 0.173168
Si Si6 0.361459 0.719161 0.590259
O O1 0.689392 0.624874 0.306814
O O2 0.468885 0.606497 0.445257
O O3 0.759606 0.728855 0.391045
O O4 0.709671 0.439369 0.393674
O O5 0.302052 0.783326 0.670826
O O6 0.000000 0.864325 0.750000
O O7 0.236941 0.048152 0.699903
O O8 0.211878 0.425927 0.503552
O O9 0.445844 0.285968 0.457210
O O10 0.601822 0.461200 0.132213
O O11 0.786544 0.673053 0.058478
O O12 0.500000 0.288822 0.250000
#
# Coordination Sequence:
#
# PCOD9260042 Si02
#       6
#     8   8   4   8   8   8
#     4  11  20  35  60  88 121 156 193 254 320 352
#     4  10  18  36  61  86 124 156 198 255 315 370
#     4  10  22  38  70  84 120 178 206 246 306 356
#     4  10  21  43  59  88 121 160 210 252 296 371
#     4  10  20  37  57  90 126 155 198 255 309 375
#     4  10  21  37  62  91 121 162 209 254 298 378
#
# _framework density 26.221012000000002
#
# number of rings (size 3 to 8) (size 9 to 14) (size 15 to 20)
#    0.000    1.818    5.455    1.636    2.545    0.727 
#    3.273    3.636    0.000   19.636    0.000    0.000 
#    0.000    0.000    0.000    0.000    0.000    0.000 
#
# Total GULP energy -122766.238779 kJ/mol
# GULP energy per Si atom -5580.283581 kJ/mol
# Density = 2.616133 g / cm^3
# Si number density = 26.221012 Si / 1000 Ang^3
#
#
#
# Elastic Constant Matrix: (Units=GPa)
#
#
# Indices 1 2 3 4 5 6 
#
# 1 104.8503 70.8954 13.0202 0.0000 4.2849 0.0000
# 2 70.8954 188.4666 36.3909 0.0000 -15.5031 0.0000
# 3 13.0202 36.3909 110.3418 0.0000 0.7207 0.0000
# 4 0.0000 0.0000 0.0000 67.0160 0.0000 4.7552
# 5 4.2849 -15.5031 0.7207 0.0000 37.2645 0.0000
# 6 0.0000 0.0000 0.0000 4.7552 0.0000 53.6004
#
#
#
# Elastic Compliance Matrix: (Units=1/GPa)
#
#
# Indices 1 2 3 4 5 6 
#
# 1 0.013279 -0.005347 0.000221 0.000000 -0.003755 0.000000
# 2 -0.005347 0.008042 -0.002047 0.000000 0.004000 0.000000
# 3 0.000221 -0.002047 0.009719 0.000000 -0.001065 0.000000
# 4 0.000000 0.000000 0.000000 0.015016 0.000000 -0.001332
# 5 -0.003755 0.004000 -0.001065 0.000000 0.028952 0.000000
# 6 0.000000 0.000000 0.000000 -0.001332 0.000000 0.018775
#
#
# Mechanical properties :
#
#
# Convention : Reuss Voigt Hill
#
# Bulk Modulus (GPa) = 59.90505 71.58571 65.74538
# Shear Modulus (GPa) = 43.97845 50.46632 47.22239
#
# Velocity S-wave (km/s) = 4.09983 4.39184 4.24835
# Velocity P-wave (km/s) = 6.73107 7.28546 7.01374
#
# Compressibility (1/GPa) = 0.01669308
#
# Stress axis : x y z
#
# Youngs Moduli (GPa) = 75.30930 124.35412 102.89278
#
# Poissons Ratio (x) = 0.66487 -0.02274
# Poissons Ratio (y) = 0.40265 0.21066
# Poissons Ratio (z) = -0.01664 0.25460
#
# Static dielectric constant tensor:
#      x y z
#    x 1.950560 0.000000 -0.015790 
#    y 0.000000 2.030410 0.000000 
#    z -0.015790 0.000000 1.936190 
# 
# From -- ./inp_files/309862.got.cif
#   From: 2010.05.17/outbox.cif.g08.bks.cpg/sg15_155_cif.got.tgz:309862.got - 2010.06.03 18:47:42.
