data_PCOD9260212
_publ_section_title
;
Structure prediction by ZEFSAII (Michael W. Deem and Ramdas Pophale) SiO2 
 PCOD9260212
Probable space group: C 2/C
;
_chemical_formula_sum "Si O2"
_cell_formula_units_Z 48
_cell_length_a 8.629391
_cell_length_b 12.359165
_cell_length_c 23.099693
_cell_angle_alpha 90.000000
_cell_angle_beta 67.194494
_cell_angle_gamma 90.000000
_cell_volume 2271.037971
_symmetry_space_group_name_H-M "C 2/C"
_symmetry_group_IT_number 15
_symmetry_cell_setting 'monoclinic'
loop_
_space_group_symop_operation_xyz
x,y,z
-x,y,1/2-z
-x,-y,-z
x,-y,1/2+z
1/2+x,1/2+y,z
1/2-x,1/2+y,1/2-z
1/2-x,1/2-y,-z
1/2+x,1/2-y,1/2+z
loop_
_atom_site_type_symbol
_atom_site_label
_atom_site_fract_x
_atom_site_fract_y
_atom_site_fract_z
Si Si1 0.835305 0.798721 0.813175
Si Si2 0.189860 0.525116 0.494818
Si Si3 0.542467 0.796972 0.084086
Si Si4 0.762677 0.034717 0.859243
Si Si5 0.499894 0.731322 0.813586
Si Si6 0.238300 0.177667 0.443445
O O1 0.689225 0.725307 0.807881
O O2 0.000000 0.796278 0.750000
O O3 0.880608 0.756243 0.870349
O O4 0.764413 0.921504 0.825801
O O5 0.291718 0.499339 0.422177
O O6 0.246330 0.443756 0.536620
O O7 0.000000 0.500000 0.500000
O O8 0.176372 0.643248 0.523641
O O9 0.407253 0.892799 0.120771
O O10 0.431161 0.711332 0.064597
O O11 0.910472 0.115517 0.820511
O O12 0.500000 0.784285 0.750000
O O13 0.389108 0.793453 0.877738
O O14 0.250000 0.250000 0.500000
#
# Coordination Sequence:
#
# PCOD9260212 Si02
#       6
#     8   8   8   8   8   8
#     4  12  26  43  64  95 132 171 220 268 322 390
#     4  10  18  36  64  96 128 166 212 263 323 377
#     4  10  23  40  65  97 131 167 212 267 327 382
#     4  10  22  42  67  93 129 169 215 268 318 386
#     4  11  23  43  68  93 130 175 215 266 326 385
#     4  11  19  39  69  96 129 172 216 261 324 387
#
# _framework density 21.135708000000001
#
# number of rings (size 3 to 8) (size 9 to 14) (size 15 to 20)
#    0.000    1.333    5.000    4.500    0.000    2.000 
#    0.000   10.000    0.000    0.000    0.000    0.000 
#    0.000    0.000    0.000    0.000    0.000    0.000 
#
# Total GULP energy -134139.375246 kJ/mol
# GULP energy per Si atom -5589.140635 kJ/mol
# Density = 2.108760 g / cm^3
# Si number density = 21.135708 Si / 1000 Ang^3
#
#
#
# Elastic Constant Matrix: (Units=GPa)
#
#
# Indices 1 2 3 4 5 6 
#
# 1 84.2716 12.8128 13.9982 0.0000 14.3490 0.0000
# 2 12.8128 75.3646 -3.3468 0.0000 -7.7764 0.0000
# 3 13.9982 -3.3468 109.8277 0.0000 0.5501 0.0000
# 4 0.0000 0.0000 0.0000 -170.5221 0.0000 -27.8358
# 5 14.3490 -7.7764 0.5501 0.0000 37.2820 0.0000
# 6 0.0000 0.0000 0.0000 -27.8358 0.0000 20.6185
#
#
#
# Elastic Compliance Matrix: (Units=1/GPa)
#
#
# Indices 1 2 3 4 5 6 
#
# 1 0.013615 -0.002997 -0.001797 0.000000 -0.005839 0.000000
# 2 -0.002997 0.014238 0.000795 0.000000 0.004112 0.000000
# 3 -0.001797 0.000795 0.009355 0.000000 0.000720 0.000000
# 4 0.000000 0.000000 0.000000 -0.004805 0.000000 -0.006487
# 5 -0.005839 0.004112 0.000720 0.000000 0.029917 0.000000
# 6 0.000000 0.000000 0.000000 -0.006487 0.000000 0.039742
#
#
# Mechanical properties :
#
#
# Convention : Reuss Voigt Hill
#
# Bulk Modulus (GPa) = 34.23549 35.15473 34.69511
# Shear Modulus (GPa) = 41.73785 -6.12435 17.80675
#
# Velocity S-wave (km/s) = 4.44864 -1.70409 2.90573
# Velocity P-wave (km/s) = 6.52843 3.57730 5.26391
#
# Compressibility (1/GPa) = 0.02920945
#
# Stress axis : x y z
#
# Youngs Moduli (GPa) = 73.44976 70.23505 106.89602
#
# Poissons Ratio (x) = 0.21049 0.19213
# Poissons Ratio (y) = 0.22012 -0.08501
# Poissons Ratio (z) = 0.13202 -0.05585
#
# Static dielectric constant tensor:
#      x y z
#    x 1.740690 0.000000 -0.019170 
#    y 0.000000 1.799800 0.000000 
#    z -0.019170 0.000000 2.094170 
# 
# From -- ./inp_files/263471.got.cif
#   From: 2010.05.17/outbox.cif.g08.bks.cpg/sg15_132_cif.got.tgz:263471.got - 2010.06.03 18:47:42.
