data_PCOD9260895
_publ_section_title
;
Structure prediction by ZEFSAII (Michael W. Deem and Ramdas Pophale) SiO2 
 PCOD9260895
Probable space group: C 2/C
;
_chemical_formula_sum "Si O2"
_cell_formula_units_Z 64
_cell_length_a 16.123892
_cell_length_b 14.406734
_cell_length_c 11.431481
_cell_angle_alpha 90.000000
_cell_angle_beta 79.926520
_cell_angle_gamma 90.000000
_cell_volume 2614.512961
_symmetry_space_group_name_H-M "C 2/C"
_symmetry_group_IT_number 15
_symmetry_cell_setting 'monoclinic'
loop_
_space_group_symop_operation_xyz
x,y,z
-x,y,1/2-z
-x,-y,-z
x,-y,1/2+z
1/2+x,1/2+y,z
1/2-x,1/2+y,1/2-z
1/2-x,1/2-y,-z
1/2+x,1/2-y,1/2+z
loop_
_atom_site_type_symbol
_atom_site_label
_atom_site_fract_x
_atom_site_fract_y
_atom_site_fract_z
Si Si1 0.332638 0.138475 0.393457
Si Si2 0.433742 0.841272 0.662310
Si Si3 0.354008 0.704611 0.045569
Si Si4 0.125995 0.440068 0.040013
Si Si5 0.696897 0.372269 0.602703
Si Si6 0.427984 0.562775 0.181584
Si Si7 0.884092 0.133864 0.623548
Si Si8 0.195224 0.324771 0.219584
O O1 0.347021 0.132113 0.251703
O O2 0.373627 0.234752 0.427646
O O3 0.234458 0.150611 0.447881
O O4 0.373177 0.049847 0.444223
O O5 0.500000 0.862038 0.750000
O O6 0.437736 0.897163 0.539439
O O7 0.426243 0.732572 0.637004
O O8 0.420376 0.629429 0.071926
O O9 0.338495 0.781698 0.151333
O O10 0.217241 0.414393 0.965196
O O11 0.130630 0.392608 0.167725
O O12 0.657976 0.422277 0.724373
O O13 0.633369 0.378243 0.509585
O O14 0.706108 0.264590 0.633302
O O15 0.500000 0.596483 0.250000
O O16 0.435310 0.455161 0.152190
O O17 0.789608 0.133978 0.705409
#
# Coordination Sequence:
#
# PCOD9260895 Si02
#       8
#     8   8   8   8   8   8   8   8
#     4  11  25  41  67  96 125 166 213 275 328 363
#     4  12  25  42  62  91 131 166 217 268 320 390
#     4  10  22  43  64  97 130 165 212 270 318 378
#     4  11  22  39  68  95 118 166 220 270 320 375
#     4  10  20  38  65  92 122 167 214 268 306 379
#     4  11  25  39  60  97 136 172 208 253 327 401
#     4  11  20  39  64  92 124 166 214 257 320 375
#     4  10  18  38  68  93 120 159 215 272 306 377
#
# _framework density 24.478746000000001
#
# number of rings (size 3 to 8) (size 9 to 14) (size 15 to 20)
#    0.000    1.250    3.750    3.375    3.500    3.000 
#    0.000    0.625    0.000    0.000    0.000    0.000 
#    0.000    0.000    0.000    0.000    0.000    0.000 
#
# Total GULP energy -179163.200412 kJ/mol
# GULP energy per Si atom -5598.850013 kJ/mol
# Density = 2.442303 g / cm^3
# Si number density = 24.478746 Si / 1000 Ang^3
#
#
#
# Elastic Constant Matrix: (Units=GPa)
#
#
# Indices 1 2 3 4 5 6 
#
# 1 73.4673 28.9154 12.7183 0.0000 29.8544 0.0000
# 2 28.9154 141.2149 28.4973 0.0000 27.6918 0.0000
# 3 12.7183 28.4973 78.3653 0.0000 16.0325 0.0000
# 4 0.0000 0.0000 0.0000 28.2604 0.0000 6.9690
# 5 29.8544 27.6918 16.0325 0.0000 46.3036 0.0000
# 6 0.0000 0.0000 0.0000 6.9690 0.0000 13.9294
#
#
#
# Elastic Compliance Matrix: (Units=1/GPa)
#
#
# Indices 1 2 3 4 5 6 
#
# 1 0.018786 -0.001638 -0.000189 0.000000 -0.011067 0.000000
# 2 -0.001638 0.008494 -0.002152 0.000000 -0.003278 0.000000
# 3 -0.000189 -0.002152 0.014299 0.000000 -0.003542 0.000000
# 4 0.000000 0.000000 0.000000 0.040365 0.000000 -0.020195
# 5 -0.011067 -0.003278 -0.003542 0.000000 0.031919 0.000000
# 6 0.000000 0.000000 0.000000 -0.020195 0.000000 0.081895
#
#
# Mechanical properties :
#
#
# Convention : Reuss Voigt Hill
#
# Bulk Modulus (GPa) = 29.74403 48.14550 38.94477
# Shear Modulus (GPa) = 23.26403 32.55977 27.91190
#
# Velocity S-wave (km/s) = 3.08616 3.65104 3.38042
# Velocity P-wave (km/s) = 4.98764 6.12246 5.58395
#
# Compressibility (1/GPa) = 0.03362019
#
# Stress axis : x y z
#
# Youngs Moduli (GPa) = 53.23000 117.72912 69.93643
#
# Poissons Ratio (x) = 0.19288 0.01321
# Poissons Ratio (y) = 0.08721 0.15052
# Poissons Ratio (z) = 0.01006 0.25338
#
# Static dielectric constant tensor:
#      x y z
#    x 2.023970 0.000000 -0.005760 
#    y 0.000000 1.891590 0.000000 
#    z -0.005760 0.000000 1.949380 
# 
# From -- ./inp_files/105728.got.cif
#   From: 2010.05.17/outbox.cif.g08.bks.cpg/sg15_53_cif.got.tgz:105728.got - 2010.06.03 18:47:42.
