data_PCOD9260575
_publ_section_title
;
Structure prediction by ZEFSAII (Michael W. Deem and Ramdas Pophale) SiO2 
 PCOD9260575
Probable space group: C 2/C
;
_chemical_formula_sum "Si O2"
_cell_formula_units_Z 44
_cell_length_a 11.975649
_cell_length_b 10.430943
_cell_length_c 15.039451
_cell_angle_alpha 90.000000
_cell_angle_beta 102.364941
_cell_angle_gamma 90.000000
_cell_volume 1835.108796
_symmetry_space_group_name_H-M "C 2/C"
_symmetry_group_IT_number 15
_symmetry_cell_setting 'monoclinic'
loop_
_space_group_symop_operation_xyz
x,y,z
-x,y,1/2-z
-x,-y,-z
x,-y,1/2+z
1/2+x,1/2+y,z
1/2-x,1/2+y,1/2-z
1/2-x,1/2-y,-z
1/2+x,1/2-y,1/2+z
loop_
_atom_site_type_symbol
_atom_site_label
_atom_site_fract_x
_atom_site_fract_y
_atom_site_fract_z
Si Si1 0.123681 0.601015 0.225285
Si Si2 0.393025 0.758945 0.470047
Si Si3 0.667841 0.515416 0.137160
Si Si4 0.640419 0.760874 0.546211
Si Si5 0.000000 0.972856 0.750000
Si Si6 0.669747 0.325797 0.357558
O O1 0.214250 0.506467 0.288365
O O2 0.136776 0.628225 0.121815
O O3 0.164187 0.738892 0.270062
O O4 0.000000 0.576653 0.250000
O O5 0.341624 0.616341 0.443971
O O6 0.524390 0.777574 0.469297
O O7 0.385602 0.763183 0.575212
O O8 0.300379 0.848649 0.407353
O O9 0.631571 0.377863 0.093869
O O10 0.582348 0.586638 0.192026
O O11 0.750000 0.750000 0.500000
O O12 0.087847 0.056633 0.823980
#
# Coordination Sequence:
#
# PCOD9260575 Si02
#       6
#     8   8   8   8   4   8
#     4  11  21  45  66  89 131 182 212 257 324 402
#     4  10  21  38  65  97 124 160 219 266 319 377
#     4  11  25  38  66 100 124 169 224 264 320 390
#     4  12  25  44  64  98 137 164 211 284 326 369
#     4  12  20  40  66  92 126 172 218 266 312 388
#     4  10  18  37  71  85 118 170 217 248 314 388
#
# _framework density 23.976780000000002
#
# number of rings (size 3 to 8) (size 9 to 14) (size 15 to 20)
#    0.000    1.091    6.364    0.545    2.545    0.000 
#    3.273    0.909    0.000    0.000    0.000    0.000 
#    0.000    0.000    0.000    0.000    0.000    0.000 
#
# Total GULP energy -122704.281462 kJ/mol
# GULP energy per Si atom -5577.467339 kJ/mol
# Density = 2.392221 g / cm^3
# Si number density = 23.976780 Si / 1000 Ang^3
#
#
#
# Elastic Constant Matrix: (Units=GPa)
#
#
# Indices 1 2 3 4 5 6 
#
# 1 201.5036 2.9297 46.5910 0.0000 19.9811 0.0000
# 2 2.9297 39.1178 -1.7252 0.0000 3.1580 0.0000
# 3 46.5910 -1.7252 71.5647 0.0000 13.4093 0.0000
# 4 0.0000 0.0000 0.0000 9.4924 0.0000 -4.9276
# 5 19.9811 3.1580 13.4093 0.0000 46.8700 0.0000
# 6 0.0000 0.0000 0.0000 -4.9276 0.0000 17.1417
#
#
#
# Elastic Compliance Matrix: (Units=1/GPa)
#
#
# Indices 1 2 3 4 5 6 
#
# 1 0.005950 -0.000486 -0.003610 0.000000 -0.001471 0.000000
# 2 -0.000486 0.025811 0.001295 0.000000 -0.001902 0.000000
# 3 -0.003610 0.001295 0.016994 0.000000 -0.003410 0.000000
# 4 0.000000 0.000000 0.000000 0.123825 0.000000 0.035595
# 5 -0.001471 -0.001902 -0.003410 0.000000 0.023067 0.000000
# 6 0.000000 0.000000 0.000000 0.035595 0.000000 0.068569
#
#
# Mechanical properties :
#
#
# Convention : Reuss Voigt Hill
#
# Bulk Modulus (GPa) = 23.17320 45.30855 34.24087
# Shear Modulus (GPa) = 17.59311 32.32687 24.95999
#
# Velocity S-wave (km/s) = 2.71173 3.67585 3.22996
# Velocity P-wave (km/s) = 4.41480 6.07895 5.31244
#
# Compressibility (1/GPa) = 0.04315330
#
# Stress axis : x y z
#
# Youngs Moduli (GPa) = 168.05855 38.74325 58.84521
#
# Poissons Ratio (x) = 0.01883 0.21243
# Poissons Ratio (y) = 0.08169 -0.07621
# Poissons Ratio (z) = 0.60668 -0.05018
#
# Static dielectric constant tensor:
#      x y z
#    x 2.129590 0.000000 0.000960 
#    y 0.000000 1.912120 0.000000 
#    z 0.000960 0.000000 1.978800 
# 
# From -- ./inp_files/142202.got.cif
#   From: 2010.05.17/outbox.cif.g08.bks.cpg/sg15_72_cif.got.tgz:142202.got - 2010.06.03 18:47:42.
