data_PCOD9260029
_publ_section_title
;
Structure prediction by ZEFSAII (Michael W. Deem and Ramdas Pophale) SiO2 
 PCOD9260029
Probable space group: C 2/C
;
_chemical_formula_sum "Si O2"
_cell_formula_units_Z 36
_cell_length_a 7.114199
_cell_length_b 16.788492
_cell_length_c 18.537144
_cell_angle_alpha 90.000000
_cell_angle_beta 138.052397
_cell_angle_gamma 90.000000
_cell_volume 1479.959793
_symmetry_space_group_name_H-M "C 2/C"
_symmetry_group_IT_number 15
_symmetry_cell_setting 'monoclinic'
loop_
_space_group_symop_operation_xyz
x,y,z
-x,y,1/2-z
-x,-y,-z
x,-y,1/2+z
1/2+x,1/2+y,z
1/2-x,1/2+y,1/2-z
1/2-x,1/2-y,-z
1/2+x,1/2-y,1/2+z
loop_
_atom_site_type_symbol
_atom_site_label
_atom_site_fract_x
_atom_site_fract_y
_atom_site_fract_z
Si Si1 0.000000 0.447551 0.750000
Si Si2 0.071517 0.310987 0.185985
Si Si3 0.484356 0.543399 0.820565
Si Si4 0.525535 0.809214 0.652955
Si Si5 0.055953 0.331343 0.028338
O O1 0.715449 0.497804 0.681111
O O2 0.946569 0.392247 0.665438
O O3 0.297688 0.381027 0.243552
O O4 0.222339 0.226113 0.227740
O O5 0.904702 0.324920 0.063407
O O6 0.000000 0.320113 0.250000
O O7 0.500000 0.494506 0.750000
O O8 0.773373 0.584521 0.929128
O O9 0.283568 0.741347 0.589129
O O10 0.609918 0.818812 0.593177
#
# Coordination Sequence:
#
# PCOD9260029 Si02
#       5
#     4   8   8   8   8
#     4  12  20  36  60  94 112 160 190 254 286 350
#     4  10  18  36  61  84 114 165 194 237 294 357
#     4   9  20  37  59  81 120 161 193 232 302 352
#     4  10  20  35  59  86 120 147 204 244 288 338
#     4   9  19  39  58  84 115 164 190 240 291 358
#
# _framework density 24.324988000000001
#
# number of rings (size 3 to 8) (size 9 to 14) (size 15 to 20)
#    0.000    2.222    3.333    1.333    0.000    2.667 
#    0.000    4.444    0.000    0.000    0.000    0.000 
#    0.000    0.000    0.000    0.000    0.000    0.000 
#
# Total GULP energy -100256.414664 kJ/mol
# GULP energy per Si atom -5569.800815 kJ/mol
# Density = 2.426962 g / cm^3
# Si number density = 24.324988 Si / 1000 Ang^3
#
#
#
# Elastic Constant Matrix: (Units=GPa)
#
#
# Indices 1 2 3 4 5 6 
#
# 1 110.8666 35.0252 35.5971 -0.0004 -46.8021 0.0004
# 2 35.0252 87.0183 24.9094 -0.0002 -5.8913 0.0000
# 3 35.5971 24.9094 105.3181 -0.0009 -47.7554 -0.0003
# 4 -0.0004 -0.0002 -0.0009 3.6477 -0.0005 -12.0594
# 5 -46.8021 -5.8913 -47.7554 -0.0005 52.3497 0.0001
# 6 0.0004 0.0000 -0.0003 -12.0594 0.0001 26.3727
#
#
#
# Elastic Compliance Matrix: (Units=1/GPa)
#
#
# Indices 1 2 3 4 5 6 
#
# 1 0.018040 -0.007201 0.004351 -0.000008 0.019287 -0.000004
# 2 -0.007201 0.015347 -0.005682 0.000004 -0.009894 0.000002
# 3 0.004351 -0.005682 0.018491 -0.000015 0.020119 -0.000007
# 4 -0.000008 0.000004 -0.000015 -0.535709 -0.000025 -0.244962
# 5 0.019287 -0.009894 0.020119 -0.000025 0.053585 -0.000012
# 6 -0.000004 0.000002 -0.000007 -0.244962 -0.000012 -0.074095
#
#
# Mechanical properties :
#
#
# Convention : Reuss Voigt Hill
#
# Bulk Modulus (GPa) = 28.72452 54.91847 41.82149
# Shear Modulus (GPa) = -10.51141 30.31877 9.90368
#
# Velocity S-wave (km/s) = -2.08101 3.53428 2.01996
# Velocity P-wave (km/s) = 2.46173 6.26744 4.76135
#
# Compressibility (1/GPa) = 0.03481346
#
# Stress axis : x y z
#
# Youngs Moduli (GPa) = 55.43381 65.15954 54.08040
#
# Poissons Ratio (x) = 0.46920 -0.23532
# Poissons Ratio (y) = 0.39917 0.30731
# Poissons Ratio (z) = -0.24120 0.37027
#
# Static dielectric constant tensor:
#      x y z
#    x 2.399240 0.000000 -0.221900 
#    y 0.000000 1.918920 0.000000 
#    z -0.221900 0.000000 2.029950 
# 
# From -- ./inp_files/133776.got.cif
#   From: 2010.05.17/outbox.cif.g08.bks.cpg/sg15_67_cif.got.tgz:133776.got - 2010.06.03 18:47:42.
