data_PCOD9260409
_publ_section_title
;
Structure prediction by ZEFSAII (Michael W. Deem and Ramdas Pophale) SiO2 
 PCOD9260409
Probable space group: C 2/C
;
_chemical_formula_sum "Si O2"
_cell_formula_units_Z 52
_cell_length_a 7.651919
_cell_length_b 17.750806
_cell_length_c 19.198658
_cell_angle_alpha 90.000000
_cell_angle_beta 85.244259
_cell_angle_gamma 90.000000
_cell_volume 2598.732305
_symmetry_space_group_name_H-M "C 2/C"
_symmetry_group_IT_number 15
_symmetry_cell_setting 'monoclinic'
loop_
_space_group_symop_operation_xyz
x,y,z
-x,y,1/2-z
-x,-y,-z
x,-y,1/2+z
1/2+x,1/2+y,z
1/2-x,1/2+y,1/2-z
1/2-x,1/2-y,-z
1/2+x,1/2-y,1/2+z
loop_
_atom_site_type_symbol
_atom_site_label
_atom_site_fract_x
_atom_site_fract_y
_atom_site_fract_z
Si Si1 0.286567 0.364216 0.030892
Si Si2 0.674607 0.473227 0.951181
Si Si3 0.820810 0.868480 0.430320
Si Si4 0.493227 0.786197 0.121444
Si Si5 0.325275 0.480545 0.298384
Si Si6 0.424893 0.381499 0.872209
Si Si7 0.500000 0.100596 0.750000
O O1 0.230136 0.447557 0.061538
O O2 0.480460 0.345935 0.055712
O O3 0.143168 0.305155 0.060088
O O4 0.313017 0.372872 0.947268
O O5 0.596485 0.431355 0.887108
O O6 0.500000 0.500000 0.000000
O O7 0.758715 0.411602 0.999492
O O8 0.694491 0.802498 0.408178
O O9 0.828392 0.930599 0.368797
O O10 0.515932 0.701939 0.148388
O O11 0.518642 0.845076 0.182988
O O12 0.500000 0.465254 0.250000
O O13 0.322381 0.568027 0.320376
O O14 0.165030 0.452072 0.258294
#
# Coordination Sequence:
#
# PCOD9260409 Si02
#       7
#     8   8   8   8   8   8   4
#     4  10  18  37  61  86 116 153 185 227 289 349
#     4   8  15  32  58  82 110 141 187 222 268 345
#     4   9  18  37  57  83 114 145 191 229 276 346
#     4  11  23  36  57  87 119 148 183 242 289 327
#     4  11  20  39  63  75 109 159 193 233 277 334
#     4  10  20  37  60  88 114 144 191 241 286 333
#     4  10  26  40  54  86 110 150 208 220 276 358
#
# _framework density 20.009755999999999
#
# number of rings (size 3 to 8) (size 9 to 14) (size 15 to 20)
#    0.000    2.462    4.615    1.385    1.077    3.077 
#    0.000    1.538    1.692    0.000    0.000    0.000 
#    0.000    0.000    0.000    0.000    0.000    0.000 
#
# Total GULP energy -145059.721473 kJ/mol
# GULP energy per Si atom -5579.220057 kJ/mol
# Density = 1.996421 g / cm^3
# Si number density = 20.009756 Si / 1000 Ang^3
#
#
#
# Elastic Constant Matrix: (Units=GPa)
#
#
# Indices 1 2 3 4 5 6 
#
# 1 88.5492 43.6065 33.2910 0.0000 10.6555 0.0000
# 2 43.6065 130.5831 13.5294 0.0000 8.1687 0.0000
# 3 33.2910 13.5294 45.2370 0.0000 11.9031 0.0000
# 4 0.0000 0.0000 0.0000 13.6360 0.0000 13.5213
# 5 10.6555 8.1687 11.9031 0.0000 21.2832 0.0000
# 6 0.0000 0.0000 0.0000 13.5213 0.0000 10.2215
#
#
#
# Elastic Compliance Matrix: (Units=1/GPa)
#
#
# Indices 1 2 3 4 5 6 
#
# 1 0.018157 -0.004804 -0.011747 0.000000 -0.000677 0.000000
# 2 -0.004804 0.009248 0.001255 0.000000 -0.001846 0.000000
# 3 -0.011747 0.001255 0.033951 0.000000 -0.013588 0.000000
# 4 0.000000 0.000000 0.000000 -0.235273 0.000000 0.311227
# 5 -0.000677 -0.001846 -0.013588 0.000000 0.055632 0.000000
# 6 0.000000 0.000000 0.000000 0.311227 0.000000 -0.313867
#
#
# Mechanical properties :
#
#
# Convention : Reuss Voigt Hill
#
# Bulk Modulus (GPa) = 32.50577 49.46924 40.98751
# Shear Modulus (GPa) = -12.77771 20.62428 3.92329
#
# Velocity S-wave (km/s) = -2.52974 3.21395 1.40176
# Velocity P-wave (km/s) = 2.78342 6.20877 4.81125
#
# Compressibility (1/GPa) = 0.03076377
#
# Stress axis : x y z
#
# Youngs Moduli (GPa) = 55.07598 108.13674 29.45421
#
# Poissons Ratio (x) = 0.51946 0.34601
# Poissons Ratio (y) = 0.26457 -0.03697
# Poissons Ratio (z) = 0.64699 -0.13574
#
# Static dielectric constant tensor:
#      x y z
#    x 1.835250 0.000000 0.052510 
#    y 0.000000 1.764730 0.000000 
#    z 0.052510 0.000000 1.756930 
# 
# From -- ./inp_files/190407.got.cif
#   From: 2010.05.17/outbox.cif.g08.bks.cpg/sg15_96_cif.got.tgz:190407.got - 2010.06.03 18:47:42.
