data_PCOD9260063
_publ_section_title
;
Structure prediction by ZEFSAII (Michael W. Deem and Ramdas Pophale) SiO2 
 PCOD9260063
Probable space group: C 2/C
;
_chemical_formula_sum "Si O2"
_cell_formula_units_Z 56
_cell_length_a 5.513115
_cell_length_b 26.856624
_cell_length_c 20.302015
_cell_angle_alpha 90.000000
_cell_angle_beta 120.923439
_cell_angle_gamma 90.000000
_cell_volume 2578.703297
_symmetry_space_group_name_H-M "C 2/C"
_symmetry_group_IT_number 15
_symmetry_cell_setting 'monoclinic'
loop_
_space_group_symop_operation_xyz
x,y,z
-x,y,1/2-z
-x,-y,-z
x,-y,1/2+z
1/2+x,1/2+y,z
1/2-x,1/2+y,1/2-z
1/2-x,1/2-y,-z
1/2+x,1/2-y,1/2+z
loop_
_atom_site_type_symbol
_atom_site_label
_atom_site_fract_x
_atom_site_fract_y
_atom_site_fract_z
Si Si1 0.422177 0.105881 0.315666
Si Si2 0.233626 0.761022 0.328739
Si Si3 0.969109 0.100594 0.039648
Si Si4 0.190306 0.937713 0.454138
Si Si5 0.015042 0.669949 0.523750
Si Si6 0.702866 0.973007 0.608710
Si Si7 0.703409 0.203513 0.141222
O O1 0.500000 0.111195 0.250000
O O2 0.711046 0.111935 0.397291
O O3 0.309960 0.051306 0.321064
O O4 0.231109 0.147881 0.323903
O O5 0.361843 0.797636 0.400822
O O6 0.503906 0.733840 0.331397
O O7 0.000000 0.788141 0.250000
O O8 0.016268 0.723828 0.335181
O O9 0.867596 0.065557 0.084469
O O10 0.924715 0.072751 0.963745
O O11 0.804765 0.151812 0.009920
O O12 0.319602 0.882931 0.459093
O O13 0.390378 0.968611 0.532926
O O14 0.174400 0.972482 0.388305
O O15 0.979347 0.700216 0.451285
#
# Coordination Sequence:
#
# PCOD9260063 Si02
#       7
#     8   8   8   8   8   8   8
#     4  11  23  38  63  94 145 182 222 283 349 407
#     4  12  29  46  69  98 137 178 225 284 354 409
#     4  10  18  36  61  98 132 178 226 277 337 394
#     4   9  18  34  64  97 127 172 221 282 328 402
#     4  11  23  41  70  98 131 173 231 282 336 400
#     4   9  18  35  58  96 136 167 228 270 339 399
#     4  12  24  46  67 101 133 179 232 283 339 411
#
# _framework density 21.716342000000001
#
# number of rings (size 3 to 8) (size 9 to 14) (size 15 to 20)
#    0.000    1.429    4.286    3.000    2.000    2.857 
#    0.000    0.000    3.143    0.000    0.000    0.000 
#    0.000    0.000    0.000    0.000    0.000    0.000 
#
# Total GULP energy -156101.332322 kJ/mol
# GULP energy per Si atom -5575.047583 kJ/mol
# Density = 2.166691 g / cm^3
# Si number density = 21.716342 Si / 1000 Ang^3
#
#
#
# Elastic Constant Matrix: (Units=GPa)
#
#
# Indices 1 2 3 4 5 6 
#
# 1 83.7615 18.7699 23.4107 0.0000 -9.5218 0.0000
# 2 18.7699 48.0994 25.0959 0.0000 -7.3268 0.0000
# 3 23.4107 25.0959 99.0567 0.0000 -5.5823 0.0000
# 4 0.0000 0.0000 0.0000 9.6471 0.0000 -9.7472
# 5 -9.5218 -7.3268 -5.5823 0.0000 35.2596 0.0000
# 6 0.0000 0.0000 0.0000 -9.7472 0.0000 13.8615
#
#
#
# Elastic Compliance Matrix: (Units=1/GPa)
#
#
# Indices 1 2 3 4 5 6 
#
# 1 0.013683 -0.003846 -0.002115 0.000000 0.002561 0.000000
# 2 -0.003846 0.025626 -0.005390 0.000000 0.003433 0.000000
# 3 -0.002115 -0.005390 0.011972 0.000000 0.000204 0.000000
# 4 0.000000 0.000000 0.000000 0.358032 0.000000 0.251763
# 5 0.002561 0.003433 0.000204 0.000000 0.029798 0.000000
# 6 0.000000 0.000000 0.000000 0.251763 0.000000 0.249179
#
#
# Mechanical properties :
#
#
# Convention : Reuss Voigt Hill
#
# Bulk Modulus (GPa) = 34.99026 40.60784 37.79905
# Shear Modulus (GPa) = 6.93945 22.66305 14.80125
#
# Velocity S-wave (km/s) = 1.78953 3.23398 2.61353
# Velocity P-wave (km/s) = 4.51855 5.71704 5.15276
#
# Compressibility (1/GPa) = 0.02857938
#
# Stress axis : x y z
#
# Youngs Moduli (GPa) = 73.08483 39.02251 83.52704
#
# Poissons Ratio (x) = 0.15007 0.17667
# Poissons Ratio (y) = 0.28107 0.45021
# Poissons Ratio (z) = 0.15458 0.21033
#
# Static dielectric constant tensor:
#      x y z
#    x 1.938840 0.000000 -0.040380 
#    y 0.000000 1.823530 0.000000 
#    z -0.040380 0.000000 1.866680 
# 
# From -- ./inp_files/228542.got.cif
#   From: 2010.05.17/outbox.cif.g08.bks.cpg/sg15_115_cif.got.tgz:228542.got - 2010.06.03 18:47:42.
