data_PCOD9260796
_publ_section_title
;
Structure prediction by ZEFSAII (Michael W. Deem and Ramdas Pophale) SiO2 
 PCOD9260796
Probable space group: C 2/C
;
_chemical_formula_sum "Si O2"
_cell_formula_units_Z 48
_cell_length_a 15.221950
_cell_length_b 13.744731
_cell_length_c 19.258166
_cell_angle_alpha 90.000000
_cell_angle_beta 147.499520
_cell_angle_gamma 90.000000
_cell_volume 2164.929192
_symmetry_space_group_name_H-M "C 2/C"
_symmetry_group_IT_number 15
_symmetry_cell_setting 'monoclinic'
loop_
_space_group_symop_operation_xyz
x,y,z
-x,y,1/2-z
-x,-y,-z
x,-y,1/2+z
1/2+x,1/2+y,z
1/2-x,1/2+y,1/2-z
1/2-x,1/2-y,-z
1/2+x,1/2-y,1/2+z
loop_
_atom_site_type_symbol
_atom_site_label
_atom_site_fract_x
_atom_site_fract_y
_atom_site_fract_z
Si Si1 0.962542 0.747200 0.593361
Si Si2 0.320129 0.509055 0.665054
Si Si3 0.215102 0.585460 0.957432
Si Si4 0.654749 0.810560 0.027660
Si Si5 0.198750 0.326272 0.657865
Si Si6 0.187214 0.622676 0.393254
O O1 0.924530 0.666876 0.627290
O O2 0.876366 0.848370 0.557921
O O3 0.871334 0.716072 0.461853
O O4 0.155240 0.760532 0.716131
O O5 0.500000 0.512599 0.750000
O O6 0.211580 0.467294 0.529573
O O7 0.256791 0.615282 0.643700
O O8 0.282301 0.430944 0.699252
O O9 0.212014 0.493750 0.903413
O O10 0.462866 0.831326 0.903932
O O11 0.713706 0.843983 0.990562
O O12 0.696655 0.698072 0.069580
O O13 0.000000 0.643887 0.250000
#
# Coordination Sequence:
#
# PCOD9260796 Si02
#       6
#     8   8   8   8   8   8
#     4  10  22  38  64  92 127 161 204 262 309 369
#     4  10  18  38  64  89 118 163 211 252 300 371
#     4   9  20  37  61  92 118 161 208 247 313 366
#     4  10  23  40  60  91 121 168 210 252 311 378
#     4  11  23  39  63  95 126 163 205 265 310 368
#     4  10  22  40  63  85 122 166 206 257 309 382
#
# _framework density 22.171626
#
# number of rings (size 3 to 8) (size 9 to 14) (size 15 to 20)
#    0.000    2.000    1.667    1.000    4.667    0.000 
#    0.000    4.167    0.000    0.000    0.000    0.000 
#    0.000    0.000    0.000    0.000    0.000    0.000 
#
# Total GULP energy -133766.196700 kJ/mol
# GULP energy per Si atom -5573.591529 kJ/mol
# Density = 2.212116 g / cm^3
# Si number density = 22.171626 Si / 1000 Ang^3
#
#
#
# Elastic Constant Matrix: (Units=GPa)
#
#
# Indices 1 2 3 4 5 6 
#
# 1 46.0566 42.7080 15.3623 0.0002 26.3513 0.0000
# 2 42.7080 164.0559 42.5634 0.0006 29.9145 0.0000
# 3 15.3623 42.5634 63.0693 0.0017 27.6676 -0.0001
# 4 0.0002 0.0006 0.0017 14.2695 0.0004 -3.1518
# 5 26.3513 29.9145 27.6676 0.0004 49.9381 0.0000
# 6 0.0000 0.0000 -0.0001 -3.1518 0.0000 5.9515
#
#
#
# Elastic Compliance Matrix: (Units=1/GPa)
#
#
# Indices 1 2 3 4 5 6 
#
# 1 0.037291 -0.007489 0.003481 0.000000 -0.017120 0.000000
# 2 -0.007489 0.009081 -0.004824 0.000000 0.001185 0.000000
# 3 0.003481 -0.004824 0.023517 -0.000003 -0.011977 -0.000001
# 4 0.000000 0.000000 -0.000003 0.079362 0.000001 0.042028
# 5 -0.017120 0.001185 -0.011977 0.000001 0.034985 0.000000
# 6 0.000000 0.000000 -0.000001 0.042028 0.000000 0.190282
#
#
# Mechanical properties :
#
#
# Convention : Reuss Voigt Hill
#
# Bulk Modulus (GPa) = 19.14773 52.71656 35.93215
# Shear Modulus (GPa) = 12.20734 25.53504 18.87119
#
# Velocity S-wave (km/s) = 2.34900 3.39735 2.92060
# Velocity P-wave (km/s) = 4.00149 6.26239 5.25497
#
# Compressibility (1/GPa) = 0.05222550
#
# Stress axis : x y z
#
# Youngs Moduli (GPa) = 26.81582 110.12514 42.52242
#
# Poissons Ratio (x) = 0.82477 -0.14804
# Poissons Ratio (y) = 0.20083 0.20512
# Poissons Ratio (z) = -0.09336 0.53122
#
# Static dielectric constant tensor:
#      x y z
#    x 1.889280 0.000000 -0.068800 
#    y 0.000000 1.910940 0.000000 
#    z -0.068800 0.000000 1.833820 
# 
# From -- ./inp_files/277312.got.cif
#   From: 2010.05.17/outbox.cif.g08.bks.cpg/sg15_139_cif.got.tgz:277312.got - 2010.06.03 18:47:42.
