data_PCOD9260668
_publ_section_title
;
Structure prediction by ZEFSAII (Michael W. Deem and Ramdas Pophale) SiO2 
 PCOD9260668
Probable space group: C 2/C
;
_chemical_formula_sum "Si O2"
_cell_formula_units_Z 44
_cell_length_a 29.410639
_cell_length_b 11.576677
_cell_length_c 16.402659
_cell_angle_alpha 90.000000
_cell_angle_beta 158.808100
_cell_angle_gamma 90.000000
_cell_volume 2018.841573
_symmetry_space_group_name_H-M "C 2/C"
_symmetry_group_IT_number 15
_symmetry_cell_setting 'monoclinic'
loop_
_space_group_symop_operation_xyz
x,y,z
-x,y,1/2-z
-x,-y,-z
x,-y,1/2+z
1/2+x,1/2+y,z
1/2-x,1/2+y,1/2-z
1/2-x,1/2-y,-z
1/2+x,1/2-y,1/2+z
loop_
_atom_site_type_symbol
_atom_site_label
_atom_site_fract_x
_atom_site_fract_y
_atom_site_fract_z
Si Si1 0.465553 0.450673 0.351940
Si Si2 0.783577 0.491698 0.656143
Si Si3 0.629559 0.729634 0.700109
Si Si4 0.500000 0.238364 0.750000
Si Si5 0.380370 0.181860 0.707889
Si Si6 0.316975 0.580881 0.854117
O O1 0.500000 0.500000 0.500000
O O2 0.404116 0.326902 0.269614
O O3 0.593375 0.470922 0.515946
O O4 0.355653 0.510884 0.115768
O O5 0.816027 0.357320 0.709422
O O6 0.872428 0.565446 0.746145
O O7 0.784749 0.540021 0.750377
O O8 0.491468 0.740646 0.429566
O O9 0.711234 0.642542 0.779770
O O10 0.420938 0.164619 0.682570
O O11 0.399629 0.321824 0.538388
O O12 0.250000 0.250000 0.500000
#
# Coordination Sequence:
#
# PCOD9260668 Si02
#       6
#     8   8   8   4   8   8
#     4  10  20  39  63  89 123 169 221 250 313 400
#     4  12  21  39  64  92 132 163 205 282 325 363
#     4  10  24  38  58  96 128 161 214 266 331 388
#     4  10  18  38  60  92 112 160 230 244 294 392
#     4  11  21  39  65  87 127 167 211 264 314 386
#     4  10  19  38  62  88 118 170 221 251 306 399
#
# _framework density 21.794677
#
# number of rings (size 3 to 8) (size 9 to 14) (size 15 to 20)
#    0.000    1.455    3.636    3.273    0.000    1.455 
#   13.091    0.000    4.000    0.000    0.000    0.000 
#    0.000    0.000    0.000    0.000    0.000    0.000 
#
# Total GULP energy -122700.408729 kJ/mol
# GULP energy per Si atom -5577.291306 kJ/mol
# Density = 2.174507 g / cm^3
# Si number density = 21.794677 Si / 1000 Ang^3
#
#
#
# Elastic Constant Matrix: (Units=GPa)
#
#
# Indices 1 2 3 4 5 6 
#
# 1 160.9382 70.3954 12.5230 0.0000 38.2078 0.0000
# 2 70.3954 125.6367 1.2489 0.0000 23.4216 0.0000
# 3 12.5230 1.2489 49.3176 0.0000 -0.5662 0.0000
# 4 0.0000 0.0000 0.0000 19.4129 0.0000 8.7705
# 5 38.2078 23.4216 -0.5662 0.0000 26.7895 0.0000
# 6 0.0000 0.0000 0.0000 8.7705 0.0000 44.1527
#
#
#
# Elastic Compliance Matrix: (Units=1/GPa)
#
#
# Indices 1 2 3 4 5 6 
#
# 1 0.011092 -0.003854 -0.002863 0.000000 -0.012511 0.000000
# 2 -0.003854 0.010854 0.000658 0.000000 -0.003979 0.000000
# 3 -0.002863 0.000658 0.021032 0.000000 0.003952 0.000000
# 4 0.000000 0.000000 0.000000 0.056591 0.000000 -0.011241
# 5 -0.012511 -0.003979 0.003952 0.000000 0.058733 0.000000
# 6 0.000000 0.000000 0.000000 -0.011241 0.000000 0.024882
#
#
# Mechanical properties :
#
#
# Convention : Reuss Voigt Hill
#
# Bulk Modulus (GPa) = 32.40310 56.02524 44.21417
# Shear Modulus (GPa) = 24.32028 34.85271 29.58649
#
# Velocity S-wave (km/s) = 3.34411 4.00326 3.68844
# Velocity P-wave (km/s) = 5.45989 6.86512 6.20243
#
# Compressibility (1/GPa) = 0.03086125
#
# Stress axis : x y z
#
# Youngs Moduli (GPa) = 90.15143 92.12960 47.54579
#
# Poissons Ratio (x) = 0.35511 0.13611
# Poissons Ratio (y) = 0.34748 -0.03129
# Poissons Ratio (z) = 0.25808 -0.06064
#
# Static dielectric constant tensor:
#      x y z
#    x 1.878080 0.000000 -0.024210 
#    y 0.000000 1.823460 0.000000 
#    z -0.024210 0.000000 1.845150 
# 
# From -- ./inp_files/225218.got.cif
#   From: 2010.05.17/outbox.cif.g08.bks.cpg/sg15_113_cif.got.tgz:225218.got - 2010.06.03 18:47:42.
