data_PCOD9260343
_publ_section_title
;
Structure prediction by ZEFSAII (Michael W. Deem and Ramdas Pophale) SiO2 
 PCOD9260343
Probable space group: C 2/C
;
_chemical_formula_sum "Si O2"
_cell_formula_units_Z 56
_cell_length_a 20.173491
_cell_length_b 12.239138
_cell_length_c 15.109254
_cell_angle_alpha 90.000000
_cell_angle_beta 137.532018
_cell_angle_gamma 90.000000
_cell_volume 2518.797525
_symmetry_space_group_name_H-M "C 2/C"
_symmetry_group_IT_number 15
_symmetry_cell_setting 'monoclinic'
loop_
_space_group_symop_operation_xyz
x,y,z
-x,y,1/2-z
-x,-y,-z
x,-y,1/2+z
1/2+x,1/2+y,z
1/2-x,1/2+y,1/2-z
1/2-x,1/2-y,-z
1/2+x,1/2-y,1/2+z
loop_
_atom_site_type_symbol
_atom_site_label
_atom_site_fract_x
_atom_site_fract_y
_atom_site_fract_z
Si Si1 0.127987 0.182527 0.221547
Si Si2 0.839003 0.984759 0.467766
Si Si3 0.000000 0.323385 0.750000
Si Si4 0.188369 0.943466 0.249024
Si Si5 0.488708 0.329335 0.067568
Si Si6 0.714444 0.875186 0.981805
Si Si7 0.500000 0.793472 0.250000
Si Si8 0.322563 0.759078 0.988416
O O1 0.243357 0.216201 0.334298
O O2 0.066644 0.231207 0.242638
O O3 0.136498 0.051986 0.236691
O O4 0.071711 0.213360 0.076221
O O5 0.777602 0.975584 0.315752
O O6 0.866293 0.861526 0.518592
O O7 0.932561 0.059031 0.538376
O O8 0.779511 0.044216 0.486168
O O9 0.987984 0.248217 0.651451
O O10 0.898451 0.387444 0.656299
O O11 0.266293 0.902496 0.396651
O O12 0.100582 0.856143 0.153594
O O13 0.750000 0.750000 0.000000
O O14 0.588615 0.840724 0.399120
O O15 0.250000 0.750000 0.000000
#
# Coordination Sequence:
#
# PCOD9260343 Si02
#       8
#     8   8   4   8   8   8   4   8
#     4  10  22  38  61  98 132 163 218 266 339 397
#     4  11  23  40  65  98 134 168 218 280 337 393
#     4  12  26  43  69  98 130 182 234 277 333 406
#     4  11  23  39  69 100 130 173 220 286 336 394
#     4  11  21  40  67 101 126 167 228 291 332 383
#     4  12  24  45  67  96 135 181 228 276 341 409
#     4  10  18  37  57  88 122 166 198 263 309 390
#     4  10  21  36  60  89 126 166 209 259 325 393
#
# _framework density 22.232831999999998
#
# number of rings (size 3 to 8) (size 9 to 14) (size 15 to 20)
#    0.000    1.143    2.857    5.143    2.000    1.143 
#    5.143    7.143    0.000    0.000    0.000    0.000 
#    0.000    0.000    0.000    0.000    0.000    0.000 
#
# Total GULP energy -156339.127620 kJ/mol
# GULP energy per Si atom -5583.540272 kJ/mol
# Density = 2.218223 g / cm^3
# Si number density = 22.232832 Si / 1000 Ang^3
#
#
#
# Elastic Constant Matrix: (Units=GPa)
#
#
# Indices 1 2 3 4 5 6 
#
# 1 58.2973 6.6950 37.2813 0.0000 -0.9090 0.0000
# 2 6.6950 31.3151 17.4719 0.0000 -9.1772 0.0000
# 3 37.2813 17.4719 193.2665 0.0000 7.2836 0.0000
# 4 0.0000 0.0000 0.0000 33.3079 0.0000 -3.7202
# 5 -0.9090 -9.1772 7.2836 0.0000 47.0062 0.0000
# 6 0.0000 0.0000 0.0000 -3.7202 0.0000 12.6050
#
#
#
# Elastic Compliance Matrix: (Units=1/GPa)
#
#
# Indices 1 2 3 4 5 6 
#
# 1 0.019724 -0.002023 -0.003643 0.000000 0.000551 0.000000
# 2 -0.002023 0.036354 -0.003181 0.000000 0.007551 0.000000
# 3 -0.003643 -0.003181 0.006227 0.000000 -0.001656 0.000000
# 4 0.000000 0.000000 0.000000 0.031046 0.000000 0.009163
# 5 0.000551 0.007551 -0.001656 0.000000 0.023015 0.000000
# 6 0.000000 0.000000 0.000000 0.009163 0.000000 0.082038
#
#
# Mechanical properties :
#
#
# Convention : Reuss Voigt Hill
#
# Bulk Modulus (GPa) = 22.41580 45.08616 33.75098
# Shear Modulus (GPa) = 21.64809 33.34588 27.49698
#
# Velocity S-wave (km/s) = 3.12380 3.87699 3.52059
# Velocity P-wave (km/s) = 4.80781 6.35331 5.63381
#
# Compressibility (1/GPa) = 0.04461139
#
# Stress axis : x y z
#
# Youngs Moduli (GPa) = 50.70011 27.50749 160.59506
#
# Poissons Ratio (x) = 0.05565 0.58499
# Poissons Ratio (y) = 0.10257 0.51082
# Poissons Ratio (z) = 0.18468 0.08750
#
# Static dielectric constant tensor:
#      x y z
#    x 1.832650 0.000000 -0.004380 
#    y 0.000000 1.840700 0.000000 
#    z -0.004380 0.000000 1.921990 
# 
# From -- ./inp_files/168507.got.cif
#   From: 2010.05.17/outbox.cif.g08.bks.cpg/sg15_85_cif.got.tgz:168507.got - 2010.06.03 18:47:42.
