data_PCOD9260392
_publ_section_title
;
Structure prediction by ZEFSAII (Michael W. Deem and Ramdas Pophale) SiO2 
 PCOD9260392
Probable space group: C 2/C
;
_chemical_formula_sum "Si O2"
_cell_formula_units_Z 64
_cell_length_a 30.434140
_cell_length_b 7.770210
_cell_length_c 18.790356
_cell_angle_alpha 90.000000
_cell_angle_beta 39.369730
_cell_angle_gamma 90.000000
_cell_volume 2818.634067
_symmetry_space_group_name_H-M "C 2/C"
_symmetry_group_IT_number 15
_symmetry_cell_setting 'monoclinic'
loop_
_space_group_symop_operation_xyz
x,y,z
-x,y,1/2-z
-x,-y,-z
x,-y,1/2+z
1/2+x,1/2+y,z
1/2-x,1/2+y,1/2-z
1/2-x,1/2-y,-z
1/2+x,1/2-y,1/2+z
loop_
_atom_site_type_symbol
_atom_site_label
_atom_site_fract_x
_atom_site_fract_y
_atom_site_fract_z
Si Si1 0.070626 0.519623 0.367444
Si Si2 0.782657 0.533208 0.271081
Si Si3 0.601856 0.427976 0.316683
Si Si4 0.352725 0.947156 0.533932
Si Si5 0.631048 0.572739 0.945809
Si Si6 0.255752 0.655036 0.915942
Si Si7 0.000973 0.442731 0.672149
Si Si8 0.002260 0.050869 0.669236
O O1 0.145369 0.446287 0.294225
O O2 0.083387 0.725254 0.349539
O O3 0.000000 0.500000 0.500000
O O4 0.050282 0.459631 0.315130
O O5 0.800688 0.560482 0.165929
O O6 0.711764 0.432957 0.361516
O O7 0.765275 0.700543 0.341323
O O8 0.617370 0.471685 0.379758
O O9 0.671442 0.444935 0.182835
O O10 0.540163 0.513642 0.347474
O O11 0.388363 0.759480 0.497987
O O12 0.307792 0.027951 0.525501
O O13 0.421378 0.062631 0.455406
O O14 0.582636 0.443785 0.048658
O O15 0.250000 0.750000 0.000000
O O16 0.974815 0.246237 0.712609
O O17 0.000000 0.524164 0.750000
O O18 0.000000 0.966938 0.750000
#
# Coordination Sequence:
#
# PCOD9260392 Si02
#       8
#     8   8   8   8   8   8   8   8
#     4  10  18  37  60  92 126 160 213 273 320 384
#     4  11  22  41  66  96 133 174 218 278 334 407
#     4  10  21  40  64  97 127 171 225 268 327 407
#     4  12  22  42  65  96 133 173 222 279 337 404
#     4  12  23  42  63  96 135 173 218 278 349 400
#     4  11  25  42  73  97 133 179 231 279 329 406
#     4  10  22  38  65  94 123 171 225 264 328 402
#     4  10  24  41  66  95 132 175 227 280 337 403
#
# _framework density 22.706033000000001
#
# number of rings (size 3 to 8) (size 9 to 14) (size 15 to 20)
#    0.000    1.250    5.000    1.125    8.750    0.500 
#    0.000    1.875    0.000    0.000    0.000    0.000 
#    0.000    0.000    0.000    0.000    0.000    0.000 
#
# Total GULP energy -178164.392705 kJ/mol
# GULP energy per Si atom -5567.637272 kJ/mol
# Density = 2.265435 g / cm^3
# Si number density = 22.706033 Si / 1000 Ang^3
#
#
#
# Elastic Constant Matrix: (Units=GPa)
#
#
# Indices 1 2 3 4 5 6 
#
# 1 162.3508 15.9050 57.0859 -0.0081 -5.8267 0.0021
# 2 15.9050 38.3399 2.7886 -0.0202 8.3087 -0.0242
# 3 57.0859 2.7886 93.4252 -0.0004 3.0840 -0.0072
# 4 -0.0081 -0.0202 -0.0004 20.1618 0.0007 -3.2106
# 5 -5.8267 8.3087 3.0840 0.0007 42.5006 0.0081
# 6 0.0021 -0.0242 -0.0072 -3.2106 0.0081 12.5641
#
#
#
# Elastic Compliance Matrix: (Units=1/GPa)
#
#
# Indices 1 2 3 4 5 6 
#
# 1 0.008379 -0.003587 -0.005086 -0.000003 0.002219 -0.000013
# 2 -0.003587 0.028810 0.001538 0.000039 -0.006236 0.000071
# 3 -0.005086 0.001538 0.013832 0.000002 -0.002002 0.000013
# 4 -0.000003 0.000039 0.000002 0.051703 -0.000012 0.013212
# 5 0.002219 -0.006236 -0.002002 -0.000012 0.025198 -0.000033
# 6 -0.000013 0.000071 0.000013 0.013212 -0.000033 0.082968
#
#
# Mechanical properties :
#
#
# Convention : Reuss Voigt Hill
#
# Bulk Modulus (GPa) = 27.21081 49.51943 38.36512
# Shear Modulus (GPa) = 21.06068 29.60107 25.33088
#
# Velocity S-wave (km/s) = 3.04885 3.61455 3.34369
# Velocity P-wave (km/s) = 4.94004 6.26707 5.64270
#
# Compressibility (1/GPa) = 0.03675009
#
# Stress axis : x y z
#
# Youngs Moduli (GPa) = 119.34798 34.71012 72.29813
#
# Poissons Ratio (x) = 0.12450 0.36770
# Poissons Ratio (y) = 0.42809 -0.11117
# Poissons Ratio (z) = 0.60700 -0.05337
#
# Static dielectric constant tensor:
#      x y z
#    x -0.962750 -0.000270 2.573190 
#    y -0.000270 1.961400 0.000240 
#    z 2.573190 0.000240 -0.352930 
# 
# From -- ./inp_files/224580.got.cif
#   From: 2010.05.17/outbox.cif.g08.bks.cpg/sg15_113_cif.got.tgz:224580.got - 2010.06.03 18:47:42.
