data_PCOD9260455
_publ_section_title
;
Structure prediction by ZEFSAII (Michael W. Deem and Ramdas Pophale) SiO2 
 PCOD9260455
Probable space group: C 2/C
;
_chemical_formula_sum "Si O2"
_cell_formula_units_Z 52
_cell_length_a 12.040029
_cell_length_b 18.890669
_cell_length_c 12.280275
_cell_angle_alpha 90.000000
_cell_angle_beta 65.744450
_cell_angle_gamma 90.000000
_cell_volume 2546.510784
_symmetry_space_group_name_H-M "C 2/C"
_symmetry_group_IT_number 15
_symmetry_cell_setting 'monoclinic'
loop_
_space_group_symop_operation_xyz
x,y,z
-x,y,1/2-z
-x,-y,-z
x,-y,1/2+z
1/2+x,1/2+y,z
1/2-x,1/2+y,1/2-z
1/2-x,1/2-y,-z
1/2+x,1/2-y,1/2+z
loop_
_atom_site_type_symbol
_atom_site_label
_atom_site_fract_x
_atom_site_fract_y
_atom_site_fract_z
Si Si1 0.190647 0.856946 0.553192
Si Si2 0.239456 0.931721 0.766278
Si Si3 0.635189 0.648746 0.522499
Si Si4 0.914090 0.054589 0.597466
Si Si5 0.619192 0.817990 0.502947
Si Si6 0.000000 0.599618 0.250000
Si Si7 0.443002 0.785812 0.388627
O O1 0.214040 0.891364 0.662529
O O2 0.163137 0.911766 0.468871
O O3 0.312413 0.817979 0.466708
O O4 0.081060 0.799187 0.595709
O O5 0.382648 0.939053 0.742102
O O6 0.170930 0.007302 0.791279
O O7 0.179635 0.886059 0.889961
O O8 0.508186 0.612611 0.607021
O O9 0.625834 0.733064 0.513121
O O10 0.749727 0.644097 0.558606
O O11 0.000000 0.000000 0.500000
O O12 0.555586 0.851362 0.633447
O O13 0.533676 0.823577 0.434779
O O14 0.500000 0.800039 0.250000
#
# Coordination Sequence:
#
# PCOD9260455 Si02
#       7
#     8   8   8   8   8   4   8
#     4  11  23  42  66  99 129 176 226 272 348 397
#     4  10  21  40  65  89 132 183 223 273 331 404
#     4   9  19  35  62  96 131 167 219 269 337 395
#     4  10  22  40  62  93 128 173 230 260 319 407
#     4  10  18  37  62  98 131 166 211 283 339 396
#     4  10  20  38  64  94 130 176 220 272 344 398
#     4  11  23  40  70  98 135 168 219 287 341 403
#
# _framework density 20.420099
#
# number of rings (size 3 to 8) (size 9 to 14) (size 15 to 20)
#    0.000    1.846    3.077    0.923    2.154    0.000 
#    1.385   10.000    0.000    0.000    0.000    0.000 
#    0.000    0.000    0.000    0.000    0.000    0.000 
#
# Total GULP energy -144952.101205 kJ/mol
# GULP energy per Si atom -5575.080816 kJ/mol
# Density = 2.037362 g / cm^3
# Si number density = 20.420099 Si / 1000 Ang^3
#
#
#
# Elastic Constant Matrix: (Units=GPa)
#
#
# Indices 1 2 3 4 5 6 
#
# 1 99.3062 36.5572 32.3460 0.0000 -12.2621 0.0000
# 2 36.5572 77.6479 28.4222 0.0000 -7.5211 0.0000
# 3 32.3460 28.4222 78.1679 0.0000 1.0881 0.0000
# 4 0.0000 0.0000 0.0000 35.8307 0.0000 -6.1909
# 5 -12.2621 -7.5211 1.0881 0.0000 17.9893 0.0000
# 6 0.0000 0.0000 0.0000 -6.1909 0.0000 30.1661
#
#
#
# Elastic Compliance Matrix: (Units=1/GPa)
#
#
# Indices 1 2 3 4 5 6 
#
# 1 0.014053 -0.004227 -0.004391 0.000000 0.008078 0.000000
# 2 -0.004227 0.016939 -0.004472 0.000000 0.004471 0.000000
# 3 -0.004391 -0.004472 0.016317 0.000000 -0.005850 0.000000
# 4 0.000000 0.000000 0.000000 0.028935 0.000000 0.005938
# 5 0.008078 0.004471 -0.005850 0.000000 0.063318 0.000000
# 6 0.000000 0.000000 0.000000 0.005938 0.000000 0.034369
#
#
# Mechanical properties :
#
#
# Convention : Reuss Voigt Hill
#
# Bulk Modulus (GPa) = 47.32630 49.97476 48.65053
# Shear Modulus (GPa) = 24.13663 27.31700 25.72682
#
# Velocity S-wave (km/s) = 3.44176 3.66150 3.55333
# Velocity P-wave (km/s) = 6.24667 6.51167 6.38055
#
# Compressibility (1/GPa) = 0.02112990
#
# Stress axis : x y z
#
# Youngs Moduli (GPa) = 71.15674 59.03626 61.28404
#
# Poissons Ratio (x) = 0.24954 0.26909
# Poissons Ratio (y) = 0.30077 0.27407
# Poissons Ratio (z) = 0.31244 0.26402
#
# Static dielectric constant tensor:
#      x y z
#    x 1.790620 0.000000 0.009700 
#    y 0.000000 1.736820 0.000000 
#    z 0.009700 0.000000 1.694610 
# 
# From -- ./inp_files/88821.got.cif
#   From: 2010.05.17/outbox.cif.g08.bks.cpg/sg15_45_cif.got.tgz:88821.got - 2010.06.03 18:47:42.
