data_PCOD9260499
_publ_section_title
;
Structure prediction by ZEFSAII (Michael W. Deem and Ramdas Pophale) SiO2 
 PCOD9260499
Probable space group: C 2/C
;
_chemical_formula_sum "Si O2"
_cell_formula_units_Z 36
_cell_length_a 7.979257
_cell_length_b 18.874059
_cell_length_c 12.427687
_cell_angle_alpha 90.000000
_cell_angle_beta 61.162655
_cell_angle_gamma 90.000000
_cell_volume 1639.526540
_symmetry_space_group_name_H-M "C 2/C"
_symmetry_group_IT_number 15
_symmetry_cell_setting 'monoclinic'
loop_
_space_group_symop_operation_xyz
x,y,z
-x,y,1/2-z
-x,-y,-z
x,-y,1/2+z
1/2+x,1/2+y,z
1/2-x,1/2+y,1/2-z
1/2-x,1/2-y,-z
1/2+x,1/2-y,1/2+z
loop_
_atom_site_type_symbol
_atom_site_label
_atom_site_fract_x
_atom_site_fract_y
_atom_site_fract_z
Si Si1 0.000000 0.991120 0.750000
Si Si2 0.271808 0.278499 0.831385
Si Si3 0.231016 0.113844 0.332634
Si Si4 0.185370 0.488142 0.514508
Si Si5 0.190747 0.142213 0.963470
O O1 0.867826 0.028714 0.880309
O O2 0.851164 0.941412 0.731013
O O3 0.500000 0.286979 0.750000
O O4 0.185160 0.320328 0.758367
O O5 0.232930 0.195435 0.853692
O O6 0.219343 0.319429 0.958242
O O7 0.346126 0.071812 0.386953
O O8 0.036359 0.139689 0.450624
O O9 0.235753 0.561957 0.559529
O O10 0.000000 0.500000 0.500000
#
# Coordination Sequence:
#
# PCOD9260499 Si02
#       5
#     4   8   8   8   8
#     4  10  18  40  60  92 132 160 212 274 330 378
#     4   9  16  33  61  90 123 166 215 259 323 380
#     4  10  18  37  64  91 125 172 209 273 321 383
#     4  11  23  38  62 101 130 167 218 264 332 396
#     4   9  17  35  60  91 123 167 213 258 318 389
#
# _framework density 21.957557999999999
#
# number of rings (size 3 to 8) (size 9 to 14) (size 15 to 20)
#    0.000    2.222    5.556    2.667    0.000    0.889 
#    8.000    0.000    0.000   20.000   11.556    0.000 
#    0.000    0.000    0.000    0.000    0.000    0.000 
#
# Total GULP energy -100503.779937 kJ/mol
# GULP energy per Si atom -5583.543330 kJ/mol
# Density = 2.190758 g / cm^3
# Si number density = 21.957558 Si / 1000 Ang^3
#
#
#
# Elastic Constant Matrix: (Units=GPa)
#
#
# Indices 1 2 3 4 5 6 
#
# 1 84.3800 31.9999 33.6423 0.0000 23.5431 0.0000
# 2 31.9999 116.2721 70.5667 0.0000 10.5082 0.0000
# 3 33.6423 70.5667 99.4036 0.0000 13.2393 0.0000
# 4 0.0000 0.0000 0.0000 57.5118 0.0000 3.0871
# 5 23.5431 10.5082 13.2393 0.0000 25.9612 0.0000
# 6 0.0000 0.0000 0.0000 3.0871 0.0000 22.5471
#
#
#
# Elastic Compliance Matrix: (Units=1/GPa)
#
#
# Indices 1 2 3 4 5 6 
#
# 1 0.017487 -0.001915 -0.002736 0.000000 -0.013688 0.000000
# 2 -0.001915 0.015333 -0.010344 0.000000 0.000806 0.000000
# 3 -0.002736 -0.010344 0.018712 0.000000 -0.002875 0.000000
# 4 0.000000 0.000000 0.000000 0.017516 0.000000 -0.002398
# 5 -0.013688 0.000806 -0.002875 0.000000 0.052072 0.000000
# 6 0.000000 0.000000 0.000000 -0.002398 0.000000 0.044680
#
#
# Mechanical properties :
#
#
# Convention : Reuss Voigt Hill
#
# Bulk Modulus (GPa) = 46.42040 63.60819 55.01430
# Shear Modulus (GPa) = 24.63414 32.12712 28.38063
#
# Velocity S-wave (km/s) = 3.35311 3.82926 3.59907
# Velocity P-wave (km/s) = 6.01481 6.97012 6.51001
#
# Compressibility (1/GPa) = 0.02154225
#
# Stress axis : x y z
#
# Youngs Moduli (GPa) = 57.18394 65.22093 53.44265
#
# Poissons Ratio (x) = 0.12493 0.14620
# Poissons Ratio (y) = 0.10953 0.55279
# Poissons Ratio (z) = 0.15643 0.67462
#
# Static dielectric constant tensor:
#      x y z
#    x 1.823420 0.000000 -0.015650 
#    y 0.000000 1.816220 0.000000 
#    z -0.015650 0.000000 1.870980 
# 
# From -- ./inp_files/76567.got.cif
#   From: 2010.05.17/outbox.cif.g08.bks.cpg/sg15_39_cif.got.tgz:76567.got - 2010.06.03 18:47:42.
