data_PCOD9260519
_publ_section_title
;
Structure prediction by ZEFSAII (Michael W. Deem and Ramdas Pophale) SiO2 
 PCOD9260519
Probable space group: C 2/C
;
_chemical_formula_sum "Si O2"
_cell_formula_units_Z 52
_cell_length_a 12.556853
_cell_length_b 13.682071
_cell_length_c 16.553209
_cell_angle_alpha 90.000000
_cell_angle_beta 64.433397
_cell_angle_gamma 90.000000
_cell_volume 2565.440457
_symmetry_space_group_name_H-M "C 2/C"
_symmetry_group_IT_number 15
_symmetry_cell_setting 'monoclinic'
loop_
_space_group_symop_operation_xyz
x,y,z
-x,y,1/2-z
-x,-y,-z
x,-y,1/2+z
1/2+x,1/2+y,z
1/2-x,1/2+y,1/2-z
1/2-x,1/2-y,-z
1/2+x,1/2-y,1/2+z
loop_
_atom_site_type_symbol
_atom_site_label
_atom_site_fract_x
_atom_site_fract_y
_atom_site_fract_z
Si Si1 0.725450 0.470708 0.179458
Si Si2 0.325821 0.155909 0.949154
Si Si3 0.158555 0.688682 0.975675
Si Si4 0.784916 0.840375 0.173483
Si Si5 0.069314 0.246434 0.340599
Si Si6 0.404035 0.868894 0.599440
Si Si7 0.000000 0.922467 0.750000
O O1 0.776057 0.393075 0.099353
O O2 0.669785 0.417892 0.276575
O O3 0.829700 0.547307 0.169948
O O4 0.613201 0.523362 0.177868
O O5 0.250896 0.111519 0.900342
O O6 0.448209 0.194412 0.873072
O O7 0.250000 0.250000 0.000000
O O8 0.364025 0.106143 0.020098
O O9 0.101844 0.757415 0.924321
O O10 0.250000 0.750000 0.000000
O O11 0.046074 0.638232 0.057218
O O12 0.668528 0.801846 0.257593
O O13 0.859597 0.741096 0.134718
O O14 0.051294 0.143789 0.304570
#
# Coordination Sequence:
#
# PCOD9260519 Si02
#       7
#     8   8   8   8   8   8   4
#     4  11  24  38  63  97 127 169 209 271 321 385
#     4   9  16  31  60  88 113 155 206 254 305 365
#     4  10  24  43  64  89 134 174 213 260 331 383
#     4  10  19  36  61  92 123 159 214 260 321 374
#     4  10  18  37  65  87 120 169 206 259 309 381
#     4  10  20  40  65  88 127 170 210 262 322 381
#     4  12  20  38  64  92 128 154 226 262 322 374
#
# _framework density 20.269423
#
# number of rings (size 3 to 8) (size 9 to 14) (size 15 to 20)
#    0.000    1.846    3.077    1.385    2.154    0.000 
#    2.769    0.769    6.769    0.000    0.000    0.000 
#    0.000    0.000    0.000    0.000    0.000    0.000 
#
# Total GULP energy -144870.798685 kJ/mol
# GULP energy per Si atom -5571.953796 kJ/mol
# Density = 2.022329 g / cm^3
# Si number density = 20.269423 Si / 1000 Ang^3
#
#
#
# Elastic Constant Matrix: (Units=GPa)
#
#
# Indices 1 2 3 4 5 6 
#
# 1 59.3636 16.2872 -4.2423 0.0000 0.5435 0.0000
# 2 16.2872 60.1756 6.3897 0.0000 0.8823 0.0000
# 3 -4.2423 6.3897 43.0487 0.0000 -7.3397 0.0000
# 4 0.0000 0.0000 0.0000 10.5592 0.0000 -34.6076
# 5 0.5435 0.8823 -7.3397 0.0000 35.8221 0.0000
# 6 0.0000 0.0000 0.0000 -34.6076 0.0000 -32.0308
#
#
#
# Elastic Compliance Matrix: (Units=1/GPa)
#
#
# Indices 1 2 3 4 5 6 
#
# 1 0.018485 -0.005293 0.002675 0.000000 0.000398 0.000000
# 2 -0.005293 0.018432 -0.003441 0.000000 -0.001079 0.000000
# 3 0.002675 -0.003441 0.024881 0.000000 0.005142 0.000000
# 4 0.000000 0.000000 0.000000 0.020855 0.000000 -0.022532
# 5 0.000398 -0.001079 0.005142 0.000000 0.028990 0.000000
# 6 0.000000 0.000000 0.000000 -0.022532 0.000000 -0.006875
#
#
# Mechanical properties :
#
#
# Convention : Reuss Voigt Hill
#
# Bulk Modulus (GPa) = 20.12921 22.16188 21.14554
# Shear Modulus (GPa) = 37.46849 12.48033 24.97441
#
# Velocity S-wave (km/s) = 4.30411 2.48407 3.51397
# Velocity P-wave (km/s) = 5.88667 4.38005 5.18834
#
# Compressibility (1/GPa) = 0.04967906
#
# Stress axis : x y z
#
# Youngs Moduli (GPa) = 54.09761 54.25378 40.19189
#
# Poissons Ratio (x) = 0.28717 -0.10752
# Poissons Ratio (y) = 0.28634 0.13832
# Poissons Ratio (z) = -0.14472 0.18671
#
# Static dielectric constant tensor:
#      x y z
#    x 1.748490 0.000000 0.007860 
#    y 0.000000 1.761050 0.000000 
#    z 0.007860 0.000000 1.731360 
# 
# From -- ./inp_files/197700.got.cif
#   From: 2010.05.17/outbox.cif.g08.bks.cpg/sg15_99_cif.got.tgz:197700.got - 2010.06.03 18:47:42.
