data_PCOD9260347
_publ_section_title
;
Structure prediction by ZEFSAII (Michael W. Deem and Ramdas Pophale) SiO2 
 PCOD9260347
Probable space group: C 2/C
;
_chemical_formula_sum "Si O2"
_cell_formula_units_Z 60
_cell_length_a 16.196178
_cell_length_b 11.999740
_cell_length_c 15.090212
_cell_angle_alpha 90.000000
_cell_angle_beta 91.982663
_cell_angle_gamma 90.000000
_cell_volume 2931.025836
_symmetry_space_group_name_H-M "C 2/C"
_symmetry_group_IT_number 15
_symmetry_cell_setting 'monoclinic'
loop_
_space_group_symop_operation_xyz
x,y,z
-x,y,1/2-z
-x,-y,-z
x,-y,1/2+z
1/2+x,1/2+y,z
1/2-x,1/2+y,1/2-z
1/2-x,1/2-y,-z
1/2+x,1/2-y,1/2+z
loop_
_atom_site_type_symbol
_atom_site_label
_atom_site_fract_x
_atom_site_fract_y
_atom_site_fract_z
Si Si1 0.212951 0.610025 0.411670
Si Si2 0.750258 0.159348 0.673836
Si Si3 0.261115 0.244955 0.364694
Si Si4 0.948973 0.263989 0.554363
Si Si5 0.500000 0.173517 0.250000
Si Si6 0.162893 0.538295 0.216836
Si Si7 0.144022 0.040479 0.955526
Si Si8 0.887283 0.210477 0.025549
O O1 0.252009 0.730779 0.386721
O O2 0.124334 0.643966 0.451156
O O3 0.198678 0.546482 0.318365
O O4 0.275645 0.545661 0.477222
O O5 0.774960 0.197143 0.772039
O O6 0.820053 0.078727 0.637639
O O7 0.668149 0.086165 0.680262
O O8 0.282610 0.116486 0.345245
O O9 0.168098 0.258130 0.396523
O O10 0.325249 0.285550 0.439807
O O11 0.913909 0.144573 0.522764
O O12 0.972463 0.260249 0.660639
O O13 0.031398 0.278102 0.499251
O O14 0.574452 0.095386 0.220548
O O15 0.100754 0.921138 0.955512
#
# Coordination Sequence:
#
# PCOD9260347 Si02
#       8
#     8   8   8   8   4   8   8   8
#     4   9  21  37  59  84 114 156 197 233 295 353
#     4  10  19  35  57  81 111 148 195 232 282 351
#     4  10  21  36  57  84 113 151 185 241 285 342
#     4  10  20  35  58  84 120 148 191 248 285 349
#     4  10  20  36  56  84 112 154 194 234 294 334
#     4  10  18  37  58  81 110 150 196 235 279 349
#     4  11  21  37  60  87 113 159 191 235 298 356
#     4  11  21  36  60  87 118 145 197 244 293 337
#
# _framework density 20.470648000000001
#
# number of rings (size 3 to 8) (size 9 to 14) (size 15 to 20)
#    0.000    1.867    2.667    3.600    0.000    0.000 
#    0.000    2.667    0.000   11.200    0.000    0.000 
#    0.000    0.000    0.000    0.000    0.000    0.000 
#
# Total GULP energy -167372.486937 kJ/mol
# GULP energy per Si atom -5579.082898 kJ/mol
# Density = 2.042406 g / cm^3
# Si number density = 20.470648 Si / 1000 Ang^3
#
#
#
# Elastic Constant Matrix: (Units=GPa)
#
#
# Indices 1 2 3 4 5 6 
#
# 1 88.1184 10.7326 27.0498 0.0000 -19.6620 0.0000
# 2 10.7326 51.8571 7.6005 0.0000 -8.3345 0.0000
# 3 27.0498 7.6005 79.5377 0.0000 -12.6902 0.0000
# 4 0.0000 0.0000 0.0000 -0.6355 0.0000 -2.9723
# 5 -19.6620 -8.3345 -12.6902 0.0000 36.6819 0.0000
# 6 0.0000 0.0000 0.0000 -2.9723 0.0000 20.4008
#
#
#
# Elastic Compliance Matrix: (Units=1/GPa)
#
#
# Indices 1 2 3 4 5 6 
#
# 1 0.013962 -0.001404 -0.003674 0.000000 0.005894 0.000000
# 2 -0.001404 0.020275 -0.000894 0.000000 0.003545 0.000000
# 3 -0.003674 -0.000894 0.014353 0.000000 0.002793 0.000000
# 4 0.000000 0.000000 0.000000 -0.935811 0.000000 -0.136344
# 5 0.005894 0.003545 0.002793 0.000000 0.032192 0.000000
# 6 0.000000 0.000000 0.000000 -0.136344 0.000000 0.029153
#
#
# Mechanical properties :
#
#
# Convention : Reuss Voigt Hill
#
# Bulk Modulus (GPa) = 27.28800 34.47544 30.88172
# Shear Modulus (GPa) = -6.23663 22.89811 8.33074
#
# Velocity S-wave (km/s) = -1.74735 3.34815 2.01951
# Velocity P-wave (km/s) = 3.04767 5.64135 4.53393
#
# Compressibility (1/GPa) = 0.03664615
#
# Stress axis : x y z
#
# Youngs Moduli (GPa) = 71.62159 49.32145 69.67087
#
# Poissons Ratio (x) = 0.06924 0.25596
# Poissons Ratio (y) = 0.10055 0.06232
# Poissons Ratio (z) = 0.26313 0.04411
#
# Static dielectric constant tensor:
#      x y z
#    x 1.752600 0.000000 -0.020540 
#    y 0.000000 1.768950 0.000000 
#    z -0.020540 0.000000 1.742040 
# 
# From -- ./inp_files/160890.got.cif
#   From: 2010.05.17/outbox.cif.g08.bks.cpg/sg15_81_cif.got.tgz:160890.got - 2010.06.03 18:47:42.
