data_PCOD9260299
_publ_section_title
;
Structure prediction by ZEFSAII (Michael W. Deem and Ramdas Pophale) SiO2 
 PCOD9260299
Probable space group: C 2/C
;
_chemical_formula_sum "Si O2"
_cell_formula_units_Z 56
_cell_length_a 7.214261
_cell_length_b 26.046748
_cell_length_c 13.941647
_cell_angle_alpha 90.000000
_cell_angle_beta 111.759219
_cell_angle_gamma 90.000000
_cell_volume 2433.090310
_symmetry_space_group_name_H-M "C 2/C"
_symmetry_group_IT_number 15
_symmetry_cell_setting 'monoclinic'
loop_
_space_group_symop_operation_xyz
x,y,z
-x,y,1/2-z
-x,-y,-z
x,-y,1/2+z
1/2+x,1/2+y,z
1/2-x,1/2+y,1/2-z
1/2-x,1/2-y,-z
1/2+x,1/2-y,1/2+z
loop_
_atom_site_type_symbol
_atom_site_label
_atom_site_fract_x
_atom_site_fract_y
_atom_site_fract_z
Si Si1 0.500000 0.435380 0.750000
Si Si2 0.240109 0.373178 0.942510
Si Si3 0.000000 0.688088 0.250000
Si Si4 0.661603 0.093723 0.859867
Si Si5 0.782074 0.247361 0.176677
Si Si6 0.002382 0.161465 0.639189
Si Si7 0.692481 0.484172 0.599237
Si Si8 0.325835 0.642452 0.074580
O O1 0.612897 0.468078 0.689794
O O2 0.656097 0.397402 0.833458
O O3 0.067527 0.345678 0.852057
O O4 0.213789 0.433932 0.932136
O O5 0.451565 0.362615 0.928407
O O6 0.285958 0.347179 0.052889
O O7 0.816181 0.722299 0.247883
O O8 0.500000 0.109722 0.750000
O O9 0.875069 0.109326 0.855346
O O10 0.661809 0.032645 0.872140
O O11 0.670740 0.121713 0.965077
O O12 0.633187 0.292756 0.117585
O O13 0.796090 0.200344 0.104806
O O14 0.000000 0.266141 0.250000
O O15 0.000000 0.171813 0.750000
O O16 0.500000 0.500000 0.500000
#
# Coordination Sequence:
#
# PCOD9260299 Si02
#       8
#     4   8   4   8   8   8   8   8
#     4  10  18  36  69  96 121 178 240 282 342 416
#     4  10  23  42  68 100 137 179 235 290 343 419
#     4  12  24  44  69 106 135 176 240 296 334 418
#     4  11  25  43  63 101 144 182 230 285 354 432
#     4  12  23  44  73 103 136 181 238 290 348 417
#     4  11  25  45  67 100 140 182 226 288 363 421
#     4  11  20  41  68  98 135 186 232 285 356 419
#     4  10  20  43  67  95 133 182 235 285 346 406
#
# _framework density 23.015996999999999
#
# number of rings (size 3 to 8) (size 9 to 14) (size 15 to 20)
#    0.000    1.143    7.143    1.286    2.000    4.000 
#    2.571    0.714    0.000    0.000    0.000    0.000 
#    0.000    0.000    0.000    0.000    0.000    0.000 
#
# Total GULP energy -156561.256970 kJ/mol
# GULP energy per Si atom -5591.473463 kJ/mol
# Density = 2.296361 g / cm^3
# Si number density = 23.015997 Si / 1000 Ang^3
#
#
#
# Elastic Constant Matrix: (Units=GPa)
#
#
# Indices 1 2 3 4 5 6 
#
# 1 44.1776 9.3594 13.3984 0.0000 9.0216 0.0000
# 2 9.3594 140.3095 42.8501 0.0000 0.2078 0.0000
# 3 13.3984 42.8501 175.1338 0.0000 12.7723 0.0000
# 4 0.0000 0.0000 0.0000 29.6400 0.0000 0.3997
# 5 9.0216 0.2078 12.7723 0.0000 34.5801 0.0000
# 6 0.0000 0.0000 0.0000 0.3997 0.0000 18.5322
#
#
#
# Elastic Compliance Matrix: (Units=1/GPa)
#
#
# Indices 1 2 3 4 5 6 
#
# 1 0.024465 -0.001280 -0.001124 0.000000 -0.005960 0.000000
# 2 -0.001280 0.007785 -0.001878 0.000000 0.000981 0.000000
# 3 -0.001124 -0.001878 0.006406 0.000000 -0.002062 0.000000
# 4 0.000000 0.000000 0.000000 0.033748 0.000000 -0.000728
# 5 -0.005960 0.000981 -0.002062 0.000000 0.031229 0.000000
# 6 0.000000 0.000000 0.000000 -0.000728 0.000000 0.053976
#
#
# Mechanical properties :
#
#
# Convention : Reuss Voigt Hill
#
# Bulk Modulus (GPa) = 33.23217 54.53742 43.88479
# Shear Modulus (GPa) = 28.37643 36.15132 32.26388
#
# Velocity S-wave (km/s) = 3.51508 3.96751 3.74813
# Velocity P-wave (km/s) = 5.56277 6.68843 6.15140
#
# Compressibility (1/GPa) = 0.03009133
#
# Stress axis : x y z
#
# Youngs Moduli (GPa) = 40.87473 128.45792 156.10832
#
# Poissons Ratio (x) = 0.16441 0.17545
# Poissons Ratio (y) = 0.05232 0.29322
# Poissons Ratio (z) = 0.04594 0.24128
#
# Static dielectric constant tensor:
#      x y z
#    x 1.889470 0.000000 -0.046150 
#    y 0.000000 1.868120 0.000000 
#    z -0.046150 0.000000 1.918700 
# 
# From -- ./inp_files/138722.got.cif
#   From: 2010.05.17/outbox.cif.g08.bks.cpg/sg15_70_cif.got.tgz:138722.got - 2010.06.03 18:47:42.
