data_PCOD9260425
_publ_section_title
;
Structure prediction by ZEFSAII (Michael W. Deem and Ramdas Pophale) SiO2 
 PCOD9260425
Probable space group: C 2/C
;
_chemical_formula_sum "Si O2"
_cell_formula_units_Z 44
_cell_length_a 9.915349
_cell_length_b 24.901499
_cell_length_c 10.162562
_cell_angle_alpha 90.000000
_cell_angle_beta 115.560703
_cell_angle_gamma 90.000000
_cell_volume 2263.628678
_symmetry_space_group_name_H-M "C 2/C"
_symmetry_group_IT_number 15
_symmetry_cell_setting 'monoclinic'
loop_
_space_group_symop_operation_xyz
x,y,z
-x,y,1/2-z
-x,-y,-z
x,-y,1/2+z
1/2+x,1/2+y,z
1/2-x,1/2+y,1/2-z
1/2-x,1/2-y,-z
1/2+x,1/2-y,1/2+z
loop_
_atom_site_type_symbol
_atom_site_label
_atom_site_fract_x
_atom_site_fract_y
_atom_site_fract_z
Si Si1 0.041681 0.307066 0.120056
Si Si2 0.000000 0.203754 0.250000
Si Si3 0.328571 0.559298 0.940245
Si Si4 0.319221 0.434075 0.907914
Si Si5 0.170243 0.131076 0.818574
Si Si6 0.290314 0.870844 0.881111
O O1 0.014074 0.243745 0.130533
O O2 0.000000 0.328414 0.250000
O O3 0.210045 0.322662 0.157085
O O4 0.934586 0.334693 0.969169
O O5 0.853232 0.168201 0.177924
O O6 0.287235 0.496921 0.913230
O O7 0.316320 0.588515 0.794916
O O8 0.503508 0.566032 0.055599
O O9 0.228915 0.588821 0.005340
O O10 0.221101 0.405628 0.755478
O O11 0.302125 0.400953 0.035000
O O12 0.000000 0.151314 0.750000
#
# Coordination Sequence:
#
# PCOD9260425 Si02
#       6
#     8   4   8   8   8   8
#     4  10  23  40  64  90 123 163 217 255 308 370
#     4  10  22  40  68  92 114 170 222 254 304 376
#     4  10  18  37  61  92 126 170 204 243 310 391
#     4  10  21  33  62  96 127 160 209 254 312 369
#     4  10  21  40  61  87 131 165 199 262 324 364
#     4  12  20  39  67  92 124 163 217 257 299 378
#
# _framework density 19.437816999999999
#
# number of rings (size 3 to 8) (size 9 to 14) (size 15 to 20)
#    0.545    1.091    3.636    1.636    0.000    3.636 
#    0.000    6.364    0.000    0.000    0.000    0.000 
#    0.000    0.000    0.000    0.000    0.000    0.000 
#
# Total GULP energy -122816.416603 kJ/mol
# GULP energy per Si atom -5582.564391 kJ/mol
# Density = 1.939358 g / cm^3
# Si number density = 19.437817 Si / 1000 Ang^3
#
#
#
# Elastic Constant Matrix: (Units=GPa)
#
#
# Indices 1 2 3 4 5 6 
#
# 1 62.7998 22.7675 27.4571 0.0000 3.2702 0.0000
# 2 22.7675 82.7406 25.9926 0.0000 7.6733 0.0000
# 3 27.4571 25.9926 97.5654 0.0000 -1.7901 0.0000
# 4 0.0000 0.0000 0.0000 16.5362 0.0000 1.5272
# 5 3.2702 7.6733 -1.7901 0.0000 23.0810 0.0000
# 6 0.0000 0.0000 0.0000 1.5272 0.0000 -2.9433
#
#
#
# Elastic Compliance Matrix: (Units=1/GPa)
#
#
# Indices 1 2 3 4 5 6 
#
# 1 0.019334 -0.003743 -0.004478 0.000000 -0.001842 0.000000
# 2 -0.003743 0.014436 -0.002875 0.000000 -0.004492 0.000000
# 3 -0.004478 -0.002875 0.012322 0.000000 0.002546 0.000000
# 4 0.000000 0.000000 0.000000 0.057708 0.000000 0.029943
# 5 -0.001842 -0.004492 0.002546 0.000000 0.045277 0.000000
# 6 0.000000 0.000000 0.000000 0.029943 0.000000 -0.324215
#
#
# Mechanical properties :
#
#
# Convention : Reuss Voigt Hill
#
# Bulk Modulus (GPa) = 41.83871 43.94891 42.89381
# Shear Modulus (GPa) = -34.48753 18.46068 -8.01342
#
# Velocity S-wave (km/s) = -4.21675 3.08511 -2.03262
# Velocity P-wave (km/s) = 1.46181 5.94556 4.07509
#
# Compressibility (1/GPa) = 0.02390131
#
# Stress axis : x y z
#
# Youngs Moduli (GPa) = 51.72192 69.27349 81.15360
#
# Poissons Ratio (x) = 0.25926 0.36339
# Poissons Ratio (y) = 0.19357 0.23331
# Poissons Ratio (z) = 0.23160 0.19916
#
# Static dielectric constant tensor:
#      x y z
#    x 1.664940 0.000000 0.001910 
#    y 0.000000 1.659760 0.000000 
#    z 0.001910 0.000000 1.680320 
# 
# From -- ./inp_files/43356.got.cif
#   From: 2010.05.17/outbox.cif.g08.bks.cpg/sg15_22_cif.got.tgz:43356.got - 2010.06.03 18:47:42.
