data_PCOD9260982
_publ_section_title
;
Structure prediction by ZEFSAII (Michael W. Deem and Ramdas Pophale) SiO2 
 PCOD9260982
Probable space group: C 2/C
;
_chemical_formula_sum "Si O2"
_cell_formula_units_Z 56
_cell_length_a 11.278499
_cell_length_b 19.338124
_cell_length_c 15.820537
_cell_angle_alpha 90.000000
_cell_angle_beta 119.536638
_cell_angle_gamma 90.000000
_cell_volume 3002.108637
_symmetry_space_group_name_H-M "C 2/C"
_symmetry_group_IT_number 15
_symmetry_cell_setting 'monoclinic'
loop_
_space_group_symop_operation_xyz
x,y,z
-x,y,1/2-z
-x,-y,-z
x,-y,1/2+z
1/2+x,1/2+y,z
1/2-x,1/2+y,1/2-z
1/2-x,1/2-y,-z
1/2+x,1/2-y,1/2+z
loop_
_atom_site_type_symbol
_atom_site_label
_atom_site_fract_x
_atom_site_fract_y
_atom_site_fract_z
Si Si1 0.193082 0.170186 0.842894
Si Si2 0.850477 0.010359 0.718292
Si Si3 0.925621 0.416204 0.139954
Si Si4 0.117842 0.950179 0.078991
Si Si5 0.998650 0.672082 0.499949
Si Si6 0.552902 0.301854 0.122158
Si Si7 0.937058 0.538413 0.397706
O O1 0.344537 0.186059 0.923935
O O2 0.163547 0.195333 0.736906
O O3 0.086689 0.201203 0.872476
O O4 0.168942 0.086613 0.830400
O O5 0.724978 0.963055 0.649215
O O6 0.000000 0.983836 0.750000
O O7 0.845569 0.020513 0.816291
O O8 0.766406 0.438083 0.088813
O O9 0.000000 0.385126 0.250000
O O10 0.941594 0.364660 0.065114
O O11 0.013430 0.486569 0.157011
O O12 0.056479 0.874267 0.074117
O O13 0.000000 0.000000 0.000000
O O14 0.930812 0.740504 0.438716
O O15 0.990510 0.615595 0.421697
O O16 0.000000 0.500000 0.500000
#
# Coordination Sequence:
#
# PCOD9260982 Si02
#       7
#     8   8   8   8   8   8   8
#     4  10  18  39  65  85 119 163 200 259 308 367
#     4  11  19  38  65  87 118 157 201 256 308 364
#     4  11  21  40  62  87 125 164 204 250 312 371
#     4  11  24  37  60  88 121 161 209 252 303 367
#     4  11  23  38  64  88 125 160 206 254 310 376
#     4  10  22  40  58  91 121 163 209 248 315 365
#     4  10  21  36  63  91 116 153 203 253 309 354
#
# _framework density 18.653555999999998
#
# number of rings (size 3 to 8) (size 9 to 14) (size 15 to 20)
#    0.000    1.429    7.143    1.286    6.000    0.571 
#    5.143    0.000    0.000    0.000    0.000    0.000 
#    0.000    0.000    0.000    0.000    0.000    0.000 
#
# Total GULP energy -156018.851578 kJ/mol
# GULP energy per Si atom -5572.101842 kJ/mol
# Density = 1.861110 g / cm^3
# Si number density = 18.653556 Si / 1000 Ang^3
#
#
#
# Elastic Constant Matrix: (Units=GPa)
#
#
# Indices 1 2 3 4 5 6 
#
# 1 93.2845 19.4703 35.4763 0.0000 14.3255 0.0000
# 2 19.4703 87.8187 53.8951 0.0000 5.0575 0.0000
# 3 35.4763 53.8951 71.9553 0.0000 7.6563 0.0000
# 4 0.0000 0.0000 0.0000 11.0477 0.0000 -2.9994
# 5 14.3255 5.0575 7.6563 0.0000 33.2512 0.0000
# 6 0.0000 0.0000 0.0000 -2.9994 0.0000 6.3033
#
#
#
# Elastic Compliance Matrix: (Units=1/GPa)
#
#
# Indices 1 2 3 4 5 6 
#
# 1 0.014013 0.002033 -0.007951 0.000000 -0.004516 0.000000
# 2 0.002033 0.021376 -0.016990 0.000000 -0.000215 0.000000
# 3 -0.007951 -0.016990 0.030655 0.000000 -0.001049 0.000000
# 4 0.000000 0.000000 0.000000 0.103945 0.000000 0.049461
# 5 -0.004516 -0.000215 -0.001049 0.000000 0.032294 0.000000
# 6 0.000000 0.000000 0.000000 0.049461 0.000000 0.182183
#
#
# Mechanical properties :
#
#
# Convention : Reuss Voigt Hill
#
# Bulk Modulus (GPa) = 49.43836 52.30468 50.87152
# Shear Modulus (GPa) = 11.44104 19.73488 15.58796
#
# Velocity S-wave (km/s) = 2.47926 3.25617 2.89391
# Velocity P-wave (km/s) = 5.89548 6.49906 6.20461
#
# Compressibility (1/GPa) = 0.02022721
#
# Stress axis : x y z
#
# Youngs Moduli (GPa) = 71.36337 46.78223 32.62139
#
# Poissons Ratio (x) = -0.09510 0.25937
# Poissons Ratio (y) = -0.14507 0.55423
# Poissons Ratio (z) = 0.56740 0.79483
#
# Static dielectric constant tensor:
#      x y z
#    x 1.697780 0.000000 -0.017540 
#    y 0.000000 1.659550 0.000000 
#    z -0.017540 0.000000 1.662460 
# 
# From -- ./inp_files/146153.got.cif
#   From: 2010.05.17/outbox.cif.g08.bks.cpg/sg15_74_cif.got.tgz:146153.got - 2010.06.03 18:47:42.
