data_PCOD9260725
_publ_section_title
;
Structure prediction by ZEFSAII (Michael W. Deem and Ramdas Pophale) SiO2 
 PCOD9260725
Probable space group: C 2/C
;
_chemical_formula_sum "Si O2"
_cell_formula_units_Z 48
_cell_length_a 9.189459
_cell_length_b 15.704755
_cell_length_c 17.545113
_cell_angle_alpha 90.000000
_cell_angle_beta 103.351994
_cell_angle_gamma 90.000000
_cell_volume 2463.636330
_symmetry_space_group_name_H-M "C 2/C"
_symmetry_group_IT_number 15
_symmetry_cell_setting 'monoclinic'
loop_
_space_group_symop_operation_xyz
x,y,z
-x,y,1/2-z
-x,-y,-z
x,-y,1/2+z
1/2+x,1/2+y,z
1/2-x,1/2+y,1/2-z
1/2-x,1/2-y,-z
1/2+x,1/2-y,1/2+z
loop_
_atom_site_type_symbol
_atom_site_label
_atom_site_fract_x
_atom_site_fract_y
_atom_site_fract_z
Si Si1 0.231905 0.865749 0.444188
Si Si2 0.483517 0.457514 0.338756
Si Si3 0.326415 0.298826 0.403623
Si Si4 0.985352 0.270014 0.072048
Si Si5 0.812126 0.878963 0.880060
Si Si6 0.539273 0.219628 0.336501
O O1 0.404151 0.842421 0.448230
O O2 0.201254 0.879632 0.529475
O O3 0.143064 0.782406 0.400627
O O4 0.151361 0.943663 0.391990
O O5 0.500000 0.456033 0.250000
O O6 0.388733 0.379576 0.364689
O O7 0.398402 0.540871 0.357610
O O8 0.150763 0.304799 0.394970
O O9 0.405818 0.284913 0.495080
O O10 0.384311 0.216408 0.363383
O O11 0.090103 0.204007 0.129388
O O12 0.641157 0.862475 0.834128
O O13 0.500000 0.258085 0.250000
#
# Coordination Sequence:
#
# PCOD9260725 Si02
#       6
#     8   8   8   8   8   8
#     4  10  18  38  62  89 111 156 201 241 293 358
#     4  11  24  39  57  84 122 161 195 240 311 359
#     4  10  19  36  57  88 119 145 193 242 298 352
#     4  10  19  34  63  92 110 143 202 251 283 348
#     4  11  20  38  62  87 115 155 202 244 290 360
#     4  10  19  35  60  86 119 156 194 246 297 348
#
# _framework density 19.483394000000001
#
# number of rings (size 3 to 8) (size 9 to 14) (size 15 to 20)
#    0.000    1.667    5.000    3.500    0.000    1.333 
#    0.000   10.833    0.000    0.000    0.000    0.000 
#    0.000    0.000    0.000    0.000    0.000    0.000 
#
# Total GULP energy -133623.012186 kJ/mol
# GULP energy per Si atom -5567.625508 kJ/mol
# Density = 1.943905 g / cm^3
# Si number density = 19.483394 Si / 1000 Ang^3
#
#
#
# Elastic Constant Matrix: (Units=GPa)
#
#
# Indices 1 2 3 4 5 6 
#
# 1 174.0521 55.2300 35.6585 0.0000 -24.5961 0.0000
# 2 55.2300 83.7571 22.0618 0.0000 -14.6702 0.0000
# 3 35.6585 22.0618 84.2702 0.0000 -12.6659 0.0000
# 4 0.0000 0.0000 0.0000 14.6664 0.0000 -10.9941
# 5 -24.5961 -14.6702 -12.6659 0.0000 18.8556 0.0000
# 6 0.0000 0.0000 0.0000 -10.9941 0.0000 38.8521
#
#
#
# Elastic Compliance Matrix: (Units=1/GPa)
#
#
# Indices 1 2 3 4 5 6 
#
# 1 0.008220 -0.003856 -0.001455 0.000000 0.006746 0.000000
# 2 -0.003856 0.016018 -0.001607 0.000000 0.006353 0.000000
# 3 -0.001455 -0.001607 0.013826 0.000000 0.006139 0.000000
# 4 0.000000 0.000000 0.000000 0.086540 0.000000 0.024488
# 5 0.006746 0.006353 0.006139 0.000000 0.070901 0.000000
# 6 0.000000 0.000000 0.000000 0.024488 0.000000 0.032668
#
#
# Mechanical properties :
#
#
# Convention : Reuss Voigt Hill
#
# Bulk Modulus (GPa) = 41.27425 63.10890 52.19157
# Shear Modulus (GPa) = 19.99325 29.75008 24.87166
#
# Velocity S-wave (km/s) = 3.20686 3.91185 3.57677
# Velocity P-wave (km/s) = 5.91120 7.27083 6.62598
#
# Compressibility (1/GPa) = 0.02422818
#
# Stress axis : x y z
#
# Youngs Moduli (GPa) = 121.65085 62.43032 72.32925
#
# Poissons Ratio (x) = 0.24071 0.10524
# Poissons Ratio (y) = 0.46905 0.11623
# Poissons Ratio (z) = 0.17701 0.10033
#
# Static dielectric constant tensor:
#      x y z
#    x 1.746280 0.000000 0.025920 
#    y 0.000000 1.731250 0.000000 
#    z 0.025920 0.000000 1.722510 
# 
# From -- ./inp_files/189926.got.cif
#   From: 2010.05.17/outbox.cif.g08.bks.cpg/sg15_95_cif.got.tgz:189926.got - 2010.06.03 18:47:42.
