data_PCOD9260978
_publ_section_title
;
Structure prediction by ZEFSAII (Michael W. Deem and Ramdas Pophale) SiO2 
 PCOD9260978
Probable space group: C 2/C
;
_chemical_formula_sum "Si O2"
_cell_formula_units_Z 64
_cell_length_a 8.330235
_cell_length_b 26.992232
_cell_length_c 14.108194
_cell_angle_alpha 90.000000
_cell_angle_beta 62.213973
_cell_angle_gamma 90.000000
_cell_volume 2806.473168
_symmetry_space_group_name_H-M "C 2/C"
_symmetry_group_IT_number 15
_symmetry_cell_setting 'monoclinic'
loop_
_space_group_symop_operation_xyz
x,y,z
-x,y,1/2-z
-x,-y,-z
x,-y,1/2+z
1/2+x,1/2+y,z
1/2-x,1/2+y,1/2-z
1/2-x,1/2-y,-z
1/2+x,1/2-y,1/2+z
loop_
_atom_site_type_symbol
_atom_site_label
_atom_site_fract_x
_atom_site_fract_y
_atom_site_fract_z
Si Si1 0.670040 0.918645 0.439900
Si Si2 0.290092 0.069769 0.785642
Si Si3 0.157765 0.646639 0.431153
Si Si4 0.502415 0.706760 0.361525
Si Si5 0.181451 0.528633 0.132115
Si Si6 0.541973 0.243860 0.030273
Si Si7 0.505300 0.654594 0.860278
Si Si8 0.786872 0.375347 0.785319
O O1 0.725140 0.941444 0.323399
O O2 0.482639 0.888362 0.477164
O O3 0.646977 0.958106 0.531636
O O4 0.819015 0.876668 0.428409
O O5 0.500000 0.079982 0.750000
O O6 0.166291 0.116877 0.836919
O O7 0.230237 0.023659 0.867520
O O8 0.327349 0.673076 0.432530
O O9 0.233144 0.616320 0.321087
O O10 0.045730 0.692528 0.415146
O O11 0.500000 0.717120 0.250000
O O12 0.510991 0.754101 0.425714
O O13 0.676421 0.673694 0.339003
O O14 0.286425 0.576701 0.140894
O O15 0.000000 0.527281 0.250000
O O16 0.461408 0.294013 0.095567
O O17 0.750000 0.250000 0.000000
O O18 0.500000 0.666402 0.750000
O O19 0.000000 0.370550 0.750000
#
# Coordination Sequence:
#
# PCOD9260978 Si02
#       8
#     8   8   8   8   8   8   8   8
#     4  11  21  44  68  92 137 174 220 286 334 413
#     4  10  25  44  65  98 131 177 223 280 351 398
#     4  11  22  39  61  97 133 171 215 281 344 390
#     4  10  24  40  59  98 138 165 220 283 341 397
#     4  10  20  40  70  98 126 174 231 276 340 410
#     4  12  23  41  69  97 126 184 233 269 343 419
#     4  10  24  45  64  97 135 176 233 281 335 415
#     4  10  18  39  64  91 127 167 216 276 321 400
#
# _framework density 22.804421999999999
#
# number of rings (size 3 to 8) (size 9 to 14) (size 15 to 20)
#    0.000    1.500    3.750    1.875    1.750    5.000 
#    0.000    5.625    0.000    0.000    0.000    0.000 
#    0.000    0.000    0.000    0.000    0.000    0.000 
#
# Total GULP energy -178776.729699 kJ/mol
# GULP energy per Si atom -5586.772803 kJ/mol
# Density = 2.275252 g / cm^3
# Si number density = 22.804422 Si / 1000 Ang^3
#
#
#
# Elastic Constant Matrix: (Units=GPa)
#
#
# Indices 1 2 3 4 5 6 
#
# 1 67.5824 15.7240 12.1981 0.0000 3.2398 0.0000
# 2 15.7240 84.4061 50.2999 0.0000 16.7082 0.0000
# 3 12.1981 50.2999 81.0269 0.0000 14.1005 0.0000
# 4 0.0000 0.0000 0.0000 27.4447 0.0000 4.2657
# 5 3.2398 16.7082 14.1005 0.0000 29.8125 0.0000
# 6 0.0000 0.0000 0.0000 4.2657 0.0000 24.0504
#
#
#
# Elastic Compliance Matrix: (Units=1/GPa)
#
#
# Indices 1 2 3 4 5 6 
#
# 1 0.015505 -0.002386 -0.000864 0.000000 0.000061 0.000000
# 2 -0.002386 0.020026 -0.011076 0.000000 -0.005725 0.000000
# 3 -0.000864 -0.011076 0.019888 0.000000 -0.003105 0.000000
# 4 0.000000 0.000000 0.000000 0.037470 0.000000 -0.006646
# 5 0.000061 -0.005725 -0.003105 0.000000 0.038214 0.000000
# 6 0.000000 0.000000 0.000000 -0.006646 0.000000 0.042758
#
#
# Mechanical properties :
#
#
# Convention : Reuss Voigt Hill
#
# Bulk Modulus (GPa) = 37.35892 43.27327 40.31609
# Shear Modulus (GPa) = 23.64807 26.58107 25.11457
#
# Velocity S-wave (km/s) = 3.22373 3.41781 3.32219
# Velocity P-wave (km/s) = 5.50223 5.88152 5.69503
#
# Compressibility (1/GPa) = 0.02676737
#
# Stress axis : x y z
#
# Youngs Moduli (GPa) = 64.49612 49.93552 50.28205
#
# Poissons Ratio (x) = 0.11913 0.04343
# Poissons Ratio (y) = 0.15387 0.55693
# Poissons Ratio (z) = 0.05571 0.55309
#
# Static dielectric constant tensor:
#      x y z
#    x 1.870150 0.000000 -0.014520 
#    y 0.000000 1.871000 0.000000 
#    z -0.014520 0.000000 1.911970 
# 
# From -- ./inp_files/138583.got.cif
#   From: 2010.05.17/outbox.cif.g08.bks.cpg/sg15_70_cif.got.tgz:138583.got - 2010.06.03 18:47:42.
