data_PCOD9260016
_publ_section_title
;
Structure prediction by ZEFSAII (Michael W. Deem and Ramdas Pophale) SiO2 
 PCOD9260016
Probable space group: C 2/C
;
_chemical_formula_sum "Si O2"
_cell_formula_units_Z 60
_cell_length_a 12.117809
_cell_length_b 19.667220
_cell_length_c 15.432683
_cell_angle_alpha 90.000000
_cell_angle_beta 122.182660
_cell_angle_gamma 90.000000
_cell_volume 3112.868460
_symmetry_space_group_name_H-M "C 2/C"
_symmetry_group_IT_number 15
_symmetry_cell_setting 'monoclinic'
loop_
_space_group_symop_operation_xyz
x,y,z
-x,y,1/2-z
-x,-y,-z
x,-y,1/2+z
1/2+x,1/2+y,z
1/2-x,1/2+y,1/2-z
1/2-x,1/2-y,-z
1/2+x,1/2-y,1/2+z
loop_
_atom_site_type_symbol
_atom_site_label
_atom_site_fract_x
_atom_site_fract_y
_atom_site_fract_z
Si Si1 0.162130 0.312251 0.618114
Si Si2 0.500000 0.114893 0.250000
Si Si3 0.568106 0.956989 0.625201
Si Si4 0.693316 0.223457 0.335655
Si Si5 0.898928 0.885702 0.631108
Si Si6 0.991981 0.811769 0.991245
Si Si7 0.913738 0.133923 0.636376
Si Si8 0.719713 0.985189 0.048217
O O1 0.083889 0.384141 0.583131
O O2 0.177868 0.288872 0.725384
O O3 0.300044 0.330491 0.632034
O O4 0.085594 0.253273 0.537376
O O5 0.410205 0.066000 0.268502
O O6 0.598982 0.166304 0.338770
O O7 0.421685 0.984796 0.556514
O O8 0.673936 0.006547 0.629208
O O9 0.842507 0.212256 0.421306
O O10 0.642463 0.295565 0.348148
O O11 0.000000 0.904083 0.750000
O O12 0.969928 0.855771 0.576499
O O13 0.812136 0.950836 0.568275
O O14 0.996645 0.851168 0.084869
O O15 0.797713 0.083100 0.565097
O O16 0.000000 0.103148 0.750000
#
# Coordination Sequence:
#
# PCOD9260016 Si02
#       8
#     8   4   8   8   8   8   8   8
#     4  10  20  40  63  89 120 155 204 249 298 357
#     4  10  18  36  60  92 112 152 204 248 290 356
#     4   9  19  38  61  81 114 156 202 243 288 352
#     4  11  20  37  63  89 123 149 200 251 304 354
#     4  11  23  42  61  85 122 164 204 240 294 367
#     4  12  23  37  65  90 118 163 192 253 307 347
#     4  12  22  38  56  90 124 147 194 247 298 351
#     4  10  22  39  58  82 118 163 195 242 295 348
#
# _framework density 19.274826999999998
#
# number of rings (size 3 to 8) (size 9 to 14) (size 15 to 20)
#    0.000    1.333    3.333    3.600    0.000    0.533 
#    2.400    0.000    0.000    0.000    0.000    0.000 
#    0.000    0.000    0.000    0.000    0.000    0.000 
#
# Total GULP energy -167351.927517 kJ/mol
# GULP energy per Si atom -5578.397584 kJ/mol
# Density = 1.923096 g / cm^3
# Si number density = 19.274827 Si / 1000 Ang^3
#
#
#
# Elastic Constant Matrix: (Units=GPa)
#
#
# Indices 1 2 3 4 5 6 
#
# 1 86.5380 24.9063 8.3558 0.0000 -4.5623 0.0000
# 2 24.9063 56.9987 10.5775 0.0000 -8.0899 0.0000
# 3 8.3558 10.5775 47.7877 0.0000 -0.1611 0.0000
# 4 0.0000 0.0000 0.0000 19.8415 0.0000 7.4671
# 5 -4.5623 -8.0899 -0.1611 0.0000 35.7439 0.0000
# 6 0.0000 0.0000 0.0000 7.4671 0.0000 24.6686
#
#
#
# Elastic Compliance Matrix: (Units=1/GPa)
#
#
# Indices 1 2 3 4 5 6 
#
# 1 0.013278 -0.005537 -0.001095 0.000000 0.000437 0.000000
# 2 -0.005537 0.021233 -0.003718 0.000000 0.004082 0.000000
# 3 -0.001095 -0.003718 0.021937 0.000000 -0.000882 0.000000
# 4 0.000000 0.000000 0.000000 0.056879 0.000000 -0.017217
# 5 0.000437 0.004082 -0.000882 0.000000 0.028952 0.000000
# 6 0.000000 0.000000 0.000000 -0.017217 0.000000 0.045749
#
#
# Mechanical properties :
#
#
# Convention : Reuss Voigt Hill
#
# Bulk Modulus (GPa) = 27.97255 31.00042 29.48648
# Shear Modulus (GPa) = 22.66100 25.88314 24.27207
#
# Velocity S-wave (km/s) = 3.43254 3.66846 3.55246
# Velocity P-wave (km/s) = 5.50034 5.83625 5.67078
#
# Compressibility (1/GPa) = 0.03574933
#
# Stress axis : x y z
#
# Youngs Moduli (GPa) = 75.31333 47.09661 45.58455
#
# Poissons Ratio (x) = 0.26076 0.04990
# Poissons Ratio (y) = 0.41699 0.16948
# Poissons Ratio (z) = 0.08244 0.17510
#
# Static dielectric constant tensor:
#      x y z
#    x 1.690160 0.000000 -0.020700 
#    y 0.000000 1.662280 0.000000 
#    z -0.020700 0.000000 1.714120 
# 
# From -- ./inp_files/147191.got.cif
#   From: 2010.05.17/outbox.cif.g08.bks.cpg/sg15_74_cif.got.tgz:147191.got - 2010.06.03 18:47:42.
