data_PCOD9260334
_publ_section_title
;
Structure prediction by ZEFSAII (Michael W. Deem and Ramdas Pophale) SiO2 
 PCOD9260334
Probable space group: C 2/C
;
_chemical_formula_sum "Si O2"
_cell_formula_units_Z 52
_cell_length_a 21.252316
_cell_length_b 22.866748
_cell_length_c 18.125885
_cell_angle_alpha 90.000000
_cell_angle_beta 160.666784
_cell_angle_gamma 90.000000
_cell_volume 2916.208357
_symmetry_space_group_name_H-M "C 2/C"
_symmetry_group_IT_number 15
_symmetry_cell_setting 'monoclinic'
loop_
_space_group_symop_operation_xyz
x,y,z
-x,y,1/2-z
-x,-y,-z
x,-y,1/2+z
1/2+x,1/2+y,z
1/2-x,1/2+y,1/2-z
1/2-x,1/2-y,-z
1/2+x,1/2-y,1/2+z
loop_
_atom_site_type_symbol
_atom_site_label
_atom_site_fract_x
_atom_site_fract_y
_atom_site_fract_z
Si Si1 0.728221 0.384593 0.386319
Si Si2 0.958546 0.219507 0.622805
Si Si3 0.774335 0.524889 0.669073
Si Si4 0.623287 0.083495 0.108143
Si Si5 0.000000 0.035329 0.750000
Si Si6 0.972004 0.930672 0.481865
Si Si7 0.449424 0.835562 0.840381
O O1 0.635156 0.321843 0.299394
O O2 0.636036 0.426143 0.346671
O O3 0.643146 0.406811 0.214692
O O4 0.950478 0.376002 0.611382
O O5 0.771531 0.179265 0.418156
O O6 0.000000 0.244275 0.750000
O O7 0.949742 0.272584 0.555772
O O8 0.824246 0.467774 0.774414
O O9 0.647001 0.502494 0.461242
O O10 0.647531 0.569986 0.576140
O O11 0.976938 0.556953 0.887127
O O12 0.540818 0.134099 0.069215
O O13 0.822561 0.099056 0.291066
O O14 0.000000 0.000000 0.500000
#
# Coordination Sequence:
#
# PCOD9260334 Si02
#       7
#     8   8   8   8   4   8   8
#     4  12  23  37  56  80 112 156 194 229 276 326
#     4  12  25  39  49  81 116 150 189 237 275 323
#     4  10  21  36  57  81 108 144 188 240 280 334
#     4  10  20  36  58  79 101 153 194 226 273 341
#     4  12  22  38  56  86 118 142 198 236 284 334
#     4  10  18  37  57  74 108 147 188 227 277 335
#     4  12  24  37  57  74 110 155 197 226 272 325
#
# _framework density 17.831374
#
# number of rings (size 3 to 8) (size 9 to 14) (size 15 to 20)
#    0.000    0.923    8.462    0.462    0.000    0.000 
#    0.000    3.846    0.000    0.000    0.000    0.000 
#    0.000    4.923    0.000    0.000    0.000    0.000 
#
# Total GULP energy -144990.092201 kJ/mol
# GULP energy per Si atom -5576.542008 kJ/mol
# Density = 1.779079 g / cm^3
# Si number density = 17.831374 Si / 1000 Ang^3
#
#
#
# Elastic Constant Matrix: (Units=GPa)
#
#
# Indices 1 2 3 4 5 6 
#
# 1 72.0764 35.2235 33.4298 -0.0001 7.6941 0.0000
# 2 35.2235 57.2769 22.3915 -0.0001 -8.2212 0.0000
# 3 33.4298 22.3915 97.5055 -0.0002 3.7020 0.0000
# 4 -0.0001 -0.0001 -0.0002 25.2080 -0.0001 0.7406
# 5 7.6941 -8.2212 3.7020 -0.0001 32.8303 0.0000
# 6 0.0000 0.0000 0.0000 0.7406 0.0000 25.6314
#
#
#
# Elastic Compliance Matrix: (Units=1/GPa)
#
#
# Indices 1 2 3 4 5 6 
#
# 1 0.023801 -0.014069 -0.004603 0.000000 -0.008582 0.000000
# 2 -0.014069 0.028470 -0.002119 0.000000 0.010666 0.000000
# 3 -0.004603 -0.002119 0.012353 0.000000 -0.000845 0.000000
# 4 0.000000 0.000000 0.000000 0.039704 0.000000 -0.001147
# 5 -0.008582 0.010666 -0.000845 0.000000 0.035237 0.000000
# 6 0.000000 0.000000 0.000000 -0.001147 0.000000 0.039048
#
#
# Mechanical properties :
#
#
# Convention : Reuss Voigt Hill
#
# Bulk Modulus (GPa) = 43.40179 45.43870 44.42024
# Shear Modulus (GPa) = 21.94171 25.78820 23.86495
#
# Velocity S-wave (km/s) = 3.51167 3.80705 3.66234
# Velocity P-wave (km/s) = 6.39026 6.69796 6.54592
#
# Compressibility (1/GPa) = 0.02304053
#
# Stress axis : x y z
#
# Youngs Moduli (GPa) = 42.01538 35.12420 80.95254
#
# Poissons Ratio (x) = 0.49416 0.37266
# Poissons Ratio (y) = 0.59111 0.17158
# Poissons Ratio (z) = 0.19342 0.07444
#
# Static dielectric constant tensor:
#      x y z
#    x 1.626020 0.000000 0.066120 
#    y 0.000000 1.575340 0.000000 
#    z 0.066120 0.000000 1.658250 
# 
# From -- ./inp_files/216825.got.cif
#   From: 2010.05.17/outbox.cif.g08.bks.cpg/sg15_109_cif.got.tgz:216825.got - 2010.06.03 18:47:42.
