data_PCOD9260182
_publ_section_title
;
Structure prediction by ZEFSAII (Michael W. Deem and Ramdas Pophale) SiO2 
 PCOD9260182
Probable space group: C 2/C
;
_chemical_formula_sum "Si O2"
_cell_formula_units_Z 64
_cell_length_a 21.651202
_cell_length_b 9.699095
_cell_length_c 14.538032
_cell_angle_alpha 90.000000
_cell_angle_beta 100.149479
_cell_angle_gamma 90.000000
_cell_volume 3005.169664
_symmetry_space_group_name_H-M "C 2/C"
_symmetry_group_IT_number 15
_symmetry_cell_setting 'monoclinic'
loop_
_space_group_symop_operation_xyz
x,y,z
-x,y,1/2-z
-x,-y,-z
x,-y,1/2+z
1/2+x,1/2+y,z
1/2-x,1/2+y,1/2-z
1/2-x,1/2-y,-z
1/2+x,1/2-y,1/2+z
loop_
_atom_site_type_symbol
_atom_site_label
_atom_site_fract_x
_atom_site_fract_y
_atom_site_fract_z
Si Si1 0.706467 0.210796 0.790595
Si Si2 0.161548 0.965538 0.890649
Si Si3 0.658041 0.029193 0.922603
Si Si4 0.521453 0.953159 0.906341
Si Si5 0.107636 0.616181 0.179950
Si Si6 0.796988 0.404340 0.395635
Si Si7 0.168544 0.221846 0.560682
Si Si8 0.435633 0.302285 0.176297
O O1 0.665270 0.331653 0.825308
O O2 0.684333 0.064372 0.829519
O O3 0.702991 0.216967 0.679574
O O4 0.777023 0.220493 0.848532
O O5 0.225670 0.045885 0.885030
O O6 0.102197 0.061720 0.857637
O O7 0.163622 0.912143 0.996453
O O8 0.583249 0.038044 0.897763
O O9 0.683596 0.156886 0.991305
O O10 0.677748 0.900139 0.992490
O O11 0.458477 0.962882 0.829999
O O12 0.543593 0.794672 0.902616
O O13 0.500000 0.000000 0.000000
O O14 0.157698 0.514182 0.145580
O O15 0.106534 0.734764 0.099975
O O16 0.110289 0.702680 0.274578
O O17 0.500000 0.328104 0.250000
#
# Coordination Sequence:
#
# PCOD9260182 Si02
#       8
#     8   8   8   8   8   8   8   8
#     4  11  20  36  61  89 122 173 203 258 332 374
#     4  11  21  39  60  90 127 163 210 259 312 386
#     4  10  19  37  59  93 118 150 216 259 309 372
#     4  11  20  39  67  84 118 156 203 267 301 364
#     4  10  20  39  64  90 118 165 216 254 319 378
#     4  11  20  34  63  91 121 157 214 263 309 373
#     4  10  18  36  64  85 120 169 207 256 318 377
#     4  10  24  42  61  91 126 166 209 256 315 382
#
# _framework density 21.296634000000001
#
# number of rings (size 3 to 8) (size 9 to 14) (size 15 to 20)
#    0.000    1.500    6.250    2.250    0.000    0.000 
#    0.000    9.375    0.000    0.000    0.000    0.000 
#    0.000    0.000    0.000    0.000    0.000    0.000 
#
# Total GULP energy -178255.521632 kJ/mol
# GULP energy per Si atom -5570.485051 kJ/mol
# Density = 2.124816 g / cm^3
# Si number density = 21.296634 Si / 1000 Ang^3
#
#
#
# Elastic Constant Matrix: (Units=GPa)
#
#
# Indices 1 2 3 4 5 6 
#
# 1 102.9392 24.3974 8.4238 0.0000 11.4537 0.0000
# 2 24.3974 49.6585 17.5425 0.0000 9.7030 0.0000
# 3 8.4238 17.5425 76.9369 0.0000 -5.7663 0.0000
# 4 0.0000 0.0000 0.0000 32.6225 0.0000 2.2025
# 5 11.4537 9.7030 -5.7663 0.0000 24.8060 0.0000
# 6 0.0000 0.0000 0.0000 2.2025 0.0000 36.1763
#
#
#
# Elastic Compliance Matrix: (Units=1/GPa)
#
#
# Indices 1 2 3 4 5 6 
#
# 1 0.011247 -0.004704 -0.000417 0.000000 -0.003450 0.000000
# 2 -0.004704 0.026551 -0.006263 0.000000 -0.009669 0.000000
# 3 -0.000417 -0.006263 0.014930 0.000000 0.006113 0.000000
# 4 0.000000 0.000000 0.000000 0.030780 0.000000 -0.001874
# 5 -0.003450 -0.009669 0.006113 0.000000 0.047109 0.000000
# 6 0.000000 0.000000 0.000000 -0.001874 0.000000 0.027756
#
#
# Mechanical properties :
#
#
# Convention : Reuss Voigt Hill
#
# Bulk Modulus (GPa) = 33.38068 36.69578 35.03823
# Shear Modulus (GPa) = 26.16020 30.66569 28.41295
#
# Velocity S-wave (km/s) = 3.50862 3.79876 3.65657
# Velocity P-wave (km/s) = 5.66763 6.04226 5.85794
#
# Compressibility (1/GPa) = 0.02995745
#
# Stress axis : x y z
#
# Youngs Moduli (GPa) = 88.90879 37.66373 66.98064
#
# Poissons Ratio (x) = 0.17718 0.02796
# Poissons Ratio (y) = 0.41825 0.41953
# Poissons Ratio (z) = 0.03711 0.23591
#
# Static dielectric constant tensor:
#      x y z
#    x 1.797800 0.000000 0.018890 
#    y 0.000000 1.879390 0.000000 
#    z 0.018890 0.000000 1.864740 
# 
# From -- ./inp_files/218279.got.cif
#   From: 2010.05.17/outbox.cif.g08.bks.cpg/sg15_110_cif.got.tgz:218279.got - 2010.06.03 18:47:42.
