data_PCOD9260969
_publ_section_title
;
Structure prediction by ZEFSAII (Michael W. Deem and Ramdas Pophale) SiO2 
 PCOD9260969
Probable space group: C 2/C
;
_chemical_formula_sum "Si O2"
_cell_formula_units_Z 52
_cell_length_a 17.059019
_cell_length_b 28.305402
_cell_length_c 11.525443
_cell_angle_alpha 90.000000
_cell_angle_beta 150.035931
_cell_angle_gamma 90.000000
_cell_volume 2779.578488
_symmetry_space_group_name_H-M "C 2/C"
_symmetry_group_IT_number 15
_symmetry_cell_setting 'monoclinic'
loop_
_space_group_symop_operation_xyz
x,y,z
-x,y,1/2-z
-x,-y,-z
x,-y,1/2+z
1/2+x,1/2+y,z
1/2-x,1/2+y,1/2-z
1/2-x,1/2-y,-z
1/2+x,1/2-y,1/2+z
loop_
_atom_site_type_symbol
_atom_site_label
_atom_site_fract_x
_atom_site_fract_y
_atom_site_fract_z
Si Si1 0.000000 0.904505 0.250000
Si Si2 0.142796 0.032809 0.729470
Si Si3 0.832504 0.401540 0.290277
Si Si4 0.335067 0.685587 0.011381
Si Si5 0.685947 0.940761 0.485424
Si Si6 0.156786 0.292886 0.515713
Si Si7 0.803605 0.378840 0.776720
O O1 0.932814 0.935685 0.268169
O O2 0.157095 0.879582 0.501340
O O3 0.240656 0.066198 0.765979
O O4 0.000000 0.000000 0.500000
O O5 0.261064 0.994245 0.932853
O O6 0.773340 0.347525 0.205458
O O7 0.776208 0.421088 0.092662
O O8 0.024795 0.399239 0.545096
O O9 0.353821 0.737012 0.976197
O O10 0.500000 0.661279 0.250000
O O11 0.279028 0.697422 0.070025
O O12 0.500000 0.937823 0.250000
O O13 0.741955 0.909619 0.666792
O O14 0.176058 0.325628 0.650913
O O15 0.000000 0.309282 0.250000
#
# Coordination Sequence:
#
# PCOD9260969 Si02
#       7
#     4   8   8   8   8   8   8
#     4  12  28  42  60  88 126 176 214 260 324 372
#     4  12  26  43  61  89 128 165 215 267 302 391
#     4  11  24  40  68  92 125 167 212 265 323 372
#     4  10  21  32  65 104 127 155 204 263 328 374
#     4  10  22  39  63  89 119 160 207 265 319 357
#     4  10  18  39  63  99 132 158 198 270 331 367
#     4  11  22  43  62  90 132 168 206 261 314 382
#
# _framework density 18.707871999999998
#
# number of rings (size 3 to 8) (size 9 to 14) (size 15 to 20)
#    0.000    1.231    4.615    1.385    6.462    1.231 
#    0.000    0.000    0.000    3.692    0.000    0.000 
#    0.000    0.000    0.000    0.000    0.000    0.000 
#
# Total GULP energy -144861.670611 kJ/mol
# GULP energy per Si atom -5571.602716 kJ/mol
# Density = 1.866529 g / cm^3
# Si number density = 18.707872 Si / 1000 Ang^3
#
#
#
# Elastic Constant Matrix: (Units=GPa)
#
#
# Indices 1 2 3 4 5 6 
#
# 1 96.1269 38.0695 44.2713 0.0000 11.6613 0.0000
# 2 38.0695 99.0064 53.6208 0.0000 -2.9079 0.0000
# 3 44.2713 53.6208 118.7241 0.0000 -14.7645 0.0000
# 4 0.0000 0.0000 0.0000 35.4301 0.0000 10.2694
# 5 11.6613 -2.9079 -14.7645 0.0000 11.1713 0.0000
# 6 0.0000 0.0000 0.0000 10.2694 0.0000 30.8675
#
#
#
# Elastic Compliance Matrix: (Units=1/GPa)
#
#
# Indices 1 2 3 4 5 6 
#
# 1 0.021575 -0.003286 -0.011331 0.000000 -0.038352 0.000000
# 2 -0.003286 0.014148 -0.005122 0.000000 0.000343 0.000000
# 3 -0.011331 -0.005122 0.019466 0.000000 0.036221 0.000000
# 4 0.000000 0.000000 0.000000 0.031237 0.000000 -0.010392
# 5 -0.038352 0.000343 0.036221 0.000000 0.177510 0.000000
# 6 0.000000 0.000000 0.000000 -0.010392 0.000000 0.035854
#
#
# Mechanical properties :
#
#
# Convention : Reuss Voigt Hill
#
# Bulk Modulus (GPa) = 63.64511 65.08674 64.36593
# Shear Modulus (GPa) = 14.51369 27.35351 20.93360
#
# Velocity S-wave (km/s) = 2.78835 3.82794 3.34873
# Velocity P-wave (km/s) = 6.66790 7.37592 7.03083
#
# Compressibility (1/GPa) = 0.01571213
#
# Stress axis : x y z
#
# Youngs Moduli (GPa) = 46.34994 70.68244 51.37265
#
# Poissons Ratio (x) = 0.23225 0.58208
# Poissons Ratio (y) = 0.15230 0.26312
# Poissons Ratio (z) = 0.52517 0.36202
#
# Static dielectric constant tensor:
#      x y z
#    x 1.537460 0.000000 0.004450 
#    y 0.000000 1.673730 0.000000 
#    z 0.004450 0.000000 1.693280 
# 
# From -- ./inp_files/91188.got.cif
#   From: 2010.05.17/outbox.cif.g08.bks.cpg/sg15_46_cif.got.tgz:91188.got - 2010.06.03 18:47:42.
