data_PCOD9260265
_publ_section_title
;
Structure prediction by ZEFSAII (Michael W. Deem and Ramdas Pophale) SiO2 
 PCOD9260265
Probable space group: C 2/C
;
_chemical_formula_sum "Si O2"
_cell_formula_units_Z 52
_cell_length_a 9.196069
_cell_length_b 16.826625
_cell_length_c 17.571413
_cell_angle_alpha 90.000000
_cell_angle_beta 132.231940
_cell_angle_gamma 90.000000
_cell_volume 2013.214016
_symmetry_space_group_name_H-M "C 2/C"
_symmetry_group_IT_number 15
_symmetry_cell_setting 'monoclinic'
loop_
_space_group_symop_operation_xyz
x,y,z
-x,y,1/2-z
-x,-y,-z
x,-y,1/2+z
1/2+x,1/2+y,z
1/2-x,1/2+y,1/2-z
1/2-x,1/2-y,-z
1/2+x,1/2-y,1/2+z
loop_
_atom_site_type_symbol
_atom_site_label
_atom_site_fract_x
_atom_site_fract_y
_atom_site_fract_z
Si Si1 0.599413 0.200195 0.159833
Si Si2 0.500000 0.273477 0.750000
Si Si3 0.242739 0.569102 0.021101
Si Si4 0.118525 0.028841 0.627126
Si Si5 0.291232 0.042725 0.852467
Si Si6 0.000000 0.576368 0.250000
Si Si7 0.500000 0.670444 0.750000
Si Si8 0.665630 0.307583 0.055516
O O1 0.504889 0.129505 0.174477
O O2 0.582258 0.273819 0.211892
O O3 0.546866 0.235323 0.056414
O O4 0.828795 0.178873 0.230506
O O5 0.612309 0.215923 0.846874
O O6 0.408121 0.512047 0.043909
O O7 0.222790 0.535168 0.099662
O O8 0.323565 0.656719 0.026271
O O9 0.018799 0.559670 0.914258
O O10 0.162347 0.034802 0.732199
O O11 0.305455 0.975334 0.671673
O O12 0.119566 0.114555 0.589103
O O13 0.182565 0.119847 0.848834
#
# Coordination Sequence:
#
# PCOD9260265 Si02
#       8
#     8   4   8   8   8   4   4   8
#     4   9  20  37  64  93 123 178 230 271 326 412
#     4   8  17  36  64  87 116 162 240 270 307 388
#     4  11  22  34  60  99 140 176 217 288 339 395
#     4  12  22  40  62 100 137 173 229 283 343 397
#     4  11  21  37  60  98 138 178 223 282 340 394
#     4  11  25  40  64  95 139 174 220 287 359 390
#     4  11  16  36  64  92 125 168 236 273 310 404
#     4  10  18  36  66  96 120 171 236 279 313 402
#
# _framework density 25.829346000000001
#
# number of rings (size 3 to 8) (size 9 to 14) (size 15 to 20)
#    0.923    0.615    3.077    3.692    0.000    0.000 
#    2.769    0.769    0.000   14.769    0.000    0.000 
#    0.000    0.000    0.000    0.000    0.000    0.000 
#
# Total GULP energy -145147.634210 kJ/mol
# GULP energy per Si atom -5582.601316 kJ/mol
# Density = 2.577056 g / cm^3
# Si number density = 25.829346 Si / 1000 Ang^3
#
#
#
# Elastic Constant Matrix: (Units=GPa)
#
#
# Indices 1 2 3 4 5 6 
#
# 1 157.1527 48.4619 24.3553 0.0000 17.0704 0.0000
# 2 48.4619 51.4676 39.8256 0.0000 18.7349 0.0000
# 3 24.3553 39.8256 77.4600 0.0000 13.2412 0.0000
# 4 0.0000 0.0000 0.0000 24.7791 0.0000 -2.2777
# 5 17.0704 18.7349 13.2412 0.0000 52.5715 0.0000
# 6 0.0000 0.0000 0.0000 -2.2777 0.0000 39.1399
#
#
#
# Elastic Compliance Matrix: (Units=1/GPa)
#
#
# Indices 1 2 3 4 5 6 
#
# 1 0.009277 -0.010830 0.002619 0.000000 0.000188 0.000000
# 2 -0.010830 0.048150 -0.019874 0.000000 -0.008637 0.000000
# 3 0.002619 -0.019874 0.022195 0.000000 0.000642 0.000000
# 4 0.000000 0.000000 0.000000 0.040574 0.000000 0.002361
# 5 0.000188 -0.008637 0.000642 0.000000 0.021877 0.000000
# 6 0.000000 0.000000 0.000000 0.002361 0.000000 0.025687
#
#
# Mechanical properties :
#
#
# Convention : Reuss Voigt Hill
#
# Bulk Modulus (GPa) = 42.64146 56.81841 49.72993
# Shear Modulus (GPa) = 21.57537 34.86061 28.21799
#
# Velocity S-wave (km/s) = 2.89330 3.67775 3.30885
# Velocity P-wave (km/s) = 5.26368 6.33086 5.82177
#
# Compressibility (1/GPa) = 0.02345136
#
# Stress axis : x y z
#
# Youngs Moduli (GPa) = 107.79812 20.76851 45.05547
#
# Poissons Ratio (x) = 0.22492 -0.11801
# Poissons Ratio (y) = 1.16744 0.89545
# Poissons Ratio (z) = -0.28235 0.41276
#
# Static dielectric constant tensor:
#      x y z
#    x 2.172350 0.000000 -0.180390 
#    y 0.000000 2.052470 0.000000 
#    z -0.180390 0.000000 2.096770 
# 
# From -- ./inp_files/233139.got.cif
#   From: 2010.05.17/outbox.cif.g08.bks.cpg/sg15_117_cif.got.tgz:233139.got - 2010.06.03 18:47:42.
