data_PCOD9260583
_publ_section_title
;
Structure prediction by ZEFSAII (Michael W. Deem and Ramdas Pophale) SiO2 
 PCOD9260583
Probable space group: C 2/C
;
_chemical_formula_sum "Si O2"
_cell_formula_units_Z 36
_cell_length_a 15.744009
_cell_length_b 6.934727
_cell_length_c 11.768849
_cell_angle_alpha 90.000000
_cell_angle_beta 83.152163
_cell_angle_gamma 90.000000
_cell_volume 1275.761410
_symmetry_space_group_name_H-M "C 2/C"
_symmetry_group_IT_number 15
_symmetry_cell_setting 'monoclinic'
loop_
_space_group_symop_operation_xyz
x,y,z
-x,y,1/2-z
-x,-y,-z
x,-y,1/2+z
1/2+x,1/2+y,z
1/2-x,1/2+y,1/2-z
1/2-x,1/2-y,-z
1/2+x,1/2-y,1/2+z
loop_
_atom_site_type_symbol
_atom_site_label
_atom_site_fract_x
_atom_site_fract_y
_atom_site_fract_z
Si Si1 0.500000 0.929199 0.750000
Si Si2 0.661292 0.244866 0.358412
Si Si3 0.164116 0.810237 0.803151
Si Si4 0.084560 0.259057 0.526706
Si Si5 0.585450 0.320200 0.591521
O O1 0.418152 0.858570 0.687345
O O2 0.560139 0.920198 0.620622
O O3 0.747757 0.195248 0.279133
O O4 0.646977 0.471858 0.340878
O O5 0.655111 0.230815 0.495293
O O6 0.159684 0.698242 0.923378
O O7 0.093160 0.753421 0.720647
O O8 0.004895 0.217240 0.454608
O O9 0.098198 0.054886 0.589946
#
# Coordination Sequence:
#
# PCOD9260583 Si02
#       5
#     4   8   8   8   8
#     4  10  18  38  52  80 108 144 180 224 260 334
#     4  10  22  34  58  78 113 142 181 220 279 307
#     4  11  20  35  54  86 109 141 179 231 262 326
#     4   9  18  29  57  82 103 138 187 224 264 301
#     4   9  17  32  54  81 107 140 179 229 261 318
#
# _framework density 28.218443000000001
#
# number of rings (size 3 to 8) (size 9 to 14) (size 15 to 20)
#    0.000    2.222    2.222    2.667    0.000    0.889 
#    0.000    0.000    4.889    2.667    0.000    0.000 
#    0.000    0.000    0.000    0.000    0.000    0.000 
#
# Total GULP energy -100527.810119 kJ/mol
# GULP energy per Si atom -5584.878340 kJ/mol
# Density = 2.815422 g / cm^3
# Si number density = 28.218443 Si / 1000 Ang^3
#
#
#
# Elastic Constant Matrix: (Units=GPa)
#
#
# Indices 1 2 3 4 5 6 
#
# 1 63.8521 -34.7575 29.4068 0.0000 -9.9022 0.0000
# 2 -34.7575 103.5683 38.0313 0.0000 13.1613 0.0000
# 3 29.4068 38.0313 262.2953 0.0000 -32.7228 0.0000
# 4 0.0000 0.0000 0.0000 25.6195 0.0000 23.9334
# 5 -9.9022 13.1613 -32.7228 0.0000 45.2312 0.0000
# 6 0.0000 0.0000 0.0000 23.9334 0.0000 6.9997
#
#
#
# Elastic Compliance Matrix: (Units=1/GPa)
#
#
# Indices 1 2 3 4 5 6 
#
# 1 0.022220 0.008938 -0.003852 0.000000 -0.000523 0.000000
# 2 0.008938 0.014674 -0.003757 0.000000 -0.005031 0.000000
# 3 -0.003852 -0.003757 0.005299 0.000000 0.004083 0.000000
# 4 0.000000 0.000000 0.000000 -0.017789 0.000000 0.060825
# 5 -0.000523 -0.005031 0.004083 0.000000 0.026412 0.000000
# 6 0.000000 0.000000 0.000000 0.060825 0.000000 -0.065110
#
#
# Mechanical properties :
#
#
# Convention : Reuss Voigt Hill
#
# Bulk Modulus (GPa) = 22.29714 55.00854 38.65284
# Shear Modulus (GPa) = -2498.39983 42.03908 -1228.18038
#
# Velocity S-wave (km/s) = -29.78759 3.86395 -20.88505
# Velocity P-wave (km/s) = 34.28044 6.28036 23.82966
#
# Compressibility (1/GPa) = 0.04484880
#
# Stress axis : x y z
#
# Youngs Moduli (GPa) = 45.00538 68.14670 188.72833
#
# Poissons Ratio (x) = -0.60910 0.72705
# Poissons Ratio (y) = -0.40226 0.70914
# Poissons Ratio (z) = 0.17338 0.25606
#
# Static dielectric constant tensor:
#      x y z
#    x 2.243840 0.000000 -0.113660 
#    y 0.000000 2.343870 0.000000 
#    z -0.113660 0.000000 2.233080 
# 
# From -- ./inp_files/84367.got.cif
#   From: 2010.05.17/outbox.cif.g08.bks.cpg/sg15_43_cif.got.tgz:84367.got - 2010.06.03 18:47:42.
