data_PCOD9260680
_publ_section_title
;
Structure prediction by ZEFSAII (Michael W. Deem and Ramdas Pophale) SiO2 
 PCOD9260680
Probable space group: C 2/C
;
_chemical_formula_sum "Si O2"
_cell_formula_units_Z 48
_cell_length_a 17.626731
_cell_length_b 13.275298
_cell_length_c 15.823711
_cell_angle_alpha 90.000000
_cell_angle_beta 32.446907
_cell_angle_gamma 90.000000
_cell_volume 1986.591507
_symmetry_space_group_name_H-M "C 2/C"
_symmetry_group_IT_number 15
_symmetry_cell_setting 'monoclinic'
loop_
_space_group_symop_operation_xyz
x,y,z
-x,y,1/2-z
-x,-y,-z
x,-y,1/2+z
1/2+x,1/2+y,z
1/2-x,1/2+y,1/2-z
1/2-x,1/2-y,-z
1/2+x,1/2-y,1/2+z
loop_
_atom_site_type_symbol
_atom_site_label
_atom_site_fract_x
_atom_site_fract_y
_atom_site_fract_z
Si Si1 0.684095 0.053098 0.486610
Si Si2 0.415351 0.583664 0.132989
Si Si3 0.051749 0.603581 0.906991
Si Si4 0.290008 0.352489 0.578930
Si Si5 0.186800 0.083093 0.962252
Si Si6 0.955846 0.663319 0.401377
O O1 0.742128 0.107462 0.515309
O O2 0.613514 0.941984 0.564670
O O3 0.808385 0.038986 0.301858
O O4 0.565513 0.121309 0.553501
O O5 0.325034 0.641255 0.146946
O O6 0.500000 0.500000 0.000000
O O7 0.541427 0.634039 0.068898
O O8 0.199403 0.594078 0.719883
O O9 0.058138 0.669934 0.983634
O O10 0.000000 0.500000 0.000000
O O11 0.337032 0.462552 0.502901
O O12 0.374889 0.264520 0.452346
O O13 0.122132 0.338937 0.726757
#
# Coordination Sequence:
#
# PCOD9260680 Si02
#       6
#     8   8   8   8   8   8
#     4  11  21  39  62  88 118 152 193 246 296 346
#     4  10  21  39  61  84 116 154 205 241 277 345
#     4  10  18  38  61  82 111 157 203 237 277 343
#     4  11  23  38  58  88 119 158 194 240 286 351
#     4  11  22  37  63  91 117 150 194 248 297 342
#     4  11  23  37  60  86 120 157 197 236 291 347
#
# _framework density 24.161987
#
# number of rings (size 3 to 8) (size 9 to 14) (size 15 to 20)
#    0.000    1.333    5.000    4.000    7.000    0.667 
#    0.000    0.000    0.000    6.000    0.000    0.000 
#    0.000    0.000    0.000    0.000    0.000    0.000 
#
# Total GULP energy -134117.179046 kJ/mol
# GULP energy per Si atom -5588.215794 kJ/mol
# Density = 2.410699 g / cm^3
# Si number density = 24.161987 Si / 1000 Ang^3
#
#
#
# Elastic Constant Matrix: (Units=GPa)
#
#
# Indices 1 2 3 4 5 6 
#
# 1 165.6118 0.2197 41.5766 0.0000 -10.2512 0.0000
# 2 0.2197 45.1195 26.6523 0.0001 2.2464 0.0000
# 3 41.5766 26.6523 151.7982 0.0002 -20.5390 -0.0001
# 4 0.0000 0.0001 0.0002 15.4852 -0.0001 -0.8000
# 5 -10.2512 2.2464 -20.5390 -0.0001 42.8339 0.0000
# 6 0.0000 0.0000 -0.0001 -0.8000 0.0000 6.8559
#
#
#
# Elastic Compliance Matrix: (Units=1/GPa)
#
#
# Indices 1 2 3 4 5 6 
#
# 1 0.006551 0.001060 -0.001899 0.000000 0.000602 0.000000
# 2 0.001060 0.025434 -0.005242 0.000000 -0.003594 0.000000
# 3 -0.001899 -0.005242 0.008559 0.000000 0.003925 0.000000
# 4 0.000000 0.000000 0.000000 0.064969 0.000000 0.007581
# 5 0.000602 -0.003594 0.003925 0.000000 0.025560 0.000000
# 6 0.000000 0.000000 0.000000 0.007581 0.000000 0.146744
#
#
# Mechanical properties :
#
#
# Convention : Reuss Voigt Hill
#
# Bulk Modulus (GPa) = 35.23448 55.49187 45.36318
# Shear Modulus (GPa) = 16.69784 32.64040 24.66912
#
# Velocity S-wave (km/s) = 2.63169 3.67944 3.19876
# Velocity P-wave (km/s) = 4.88351 6.40840 5.69720
#
# Compressibility (1/GPa) = 0.02838129
#
# Stress axis : x y z
#
# Youngs Moduli (GPa) = 152.65384 39.31795 116.83323
#
# Poissons Ratio (x) = -0.04167 0.22185
# Poissons Ratio (y) = -0.16179 0.61245
# Poissons Ratio (z) = 0.28987 0.20611
#
# Static dielectric constant tensor:
#      x y z
#    x 2.094330 0.000000 -0.031280 
#    y 0.000000 10.655470 0.000000 
#    z -0.031280 0.000000 1.879410 
# 
# From -- ./inp_files/211583.got.cif
#   From: 2010.05.17/outbox.cif.g08.bks.cpg/sg15_106_cif.got.tgz:211583.got - 2010.06.03 18:47:42.
