data_PCOD9260302
_publ_section_title
;
Structure prediction by ZEFSAII (Michael W. Deem and Ramdas Pophale) SiO2 
 PCOD9260302
Probable space group: C 2/C
;
_chemical_formula_sum "Si O2"
_cell_formula_units_Z 36
_cell_length_a 10.363616
_cell_length_b 16.139635
_cell_length_c 10.413755
_cell_angle_alpha 90.000000
_cell_angle_beta 55.683958
_cell_angle_gamma 90.000000
_cell_volume 1438.669813
_symmetry_space_group_name_H-M "C 2/C"
_symmetry_group_IT_number 15
_symmetry_cell_setting 'monoclinic'
loop_
_space_group_symop_operation_xyz
x,y,z
-x,y,1/2-z
-x,-y,-z
x,-y,1/2+z
1/2+x,1/2+y,z
1/2-x,1/2+y,1/2-z
1/2-x,1/2-y,-z
1/2+x,1/2-y,1/2+z
loop_
_atom_site_type_symbol
_atom_site_label
_atom_site_fract_x
_atom_site_fract_y
_atom_site_fract_z
Si Si1 0.067980 0.750159 0.587464
Si Si2 0.744616 0.959823 0.731429
Si Si3 0.000000 0.414407 0.250000
Si Si4 0.658618 0.579622 0.595857
Si Si5 0.517906 0.181615 0.095156
O O1 0.250000 0.750000 0.500000
O O2 0.000000 0.795622 0.750000
O O3 0.022648 0.652995 0.626409
O O4 0.004153 0.762043 0.483010
O O5 0.858645 0.937483 0.548119
O O6 0.626875 0.884408 0.828913
O O7 0.638646 0.028559 0.718434
O O8 0.803931 0.999325 0.831887
O O9 0.500000 0.610080 0.750000
O O10 0.813876 0.637335 0.517778
O O11 0.500000 0.210080 0.250000
#
# Coordination Sequence:
#
# PCOD9260302 Si02
#       5
#     8   8   4   8   8
#     4  10  22  41  64  88 120 169 221 256 303 368
#     4  11  19  35  61  94 128 167 199 248 327 379
#     4  10  18  36  70  84 126 160 210 250 312 364
#     4  11  20  31  51  92 139 162 196 242 315 384
#     4  10  20  37  64  91 126 163 209 258 322 375
#
# _framework density 25.023115000000001
#
# number of rings (size 3 to 8) (size 9 to 14) (size 15 to 20)
#    0.667    0.889    5.556    2.667    0.000    0.000 
#    0.000   14.444    0.000    1.333    0.000    0.000 
#    0.000    0.000    0.000    0.000    0.000    0.000 
#
# Total GULP energy -100392.044939 kJ/mol
# GULP energy per Si atom -5577.335830 kJ/mol
# Density = 2.496616 g / cm^3
# Si number density = 25.023115 Si / 1000 Ang^3
#
#
#
# Elastic Constant Matrix: (Units=GPa)
#
#
# Indices 1 2 3 4 5 6 
#
# 1 77.5442 15.3661 63.7192 0.0000 5.5307 0.0000
# 2 15.3661 67.1279 9.3935 0.0000 -5.6847 0.0000
# 3 63.7192 9.3935 211.3561 0.0000 1.3320 0.0000
# 4 0.0000 0.0000 0.0000 -35.5943 0.0000 20.6372
# 5 5.5307 -5.6847 1.3320 0.0000 49.8383 0.0000
# 6 0.0000 0.0000 0.0000 20.6372 0.0000 -7.3968
#
#
#
# Elastic Compliance Matrix: (Units=1/GPa)
#
#
# Indices 1 2 3 4 5 6 
#
# 1 0.018117 -0.003600 -0.005287 0.000000 -0.002280 0.000000
# 2 -0.003600 0.015856 0.000367 0.000000 0.002198 0.000000
# 3 -0.005287 0.000367 0.006306 0.000000 0.000460 0.000000
# 4 0.000000 0.000000 0.000000 0.045489 0.000000 0.126913
# 5 -0.002280 0.002198 0.000460 0.000000 0.020556 0.000000
# 6 0.000000 0.000000 0.000000 0.126913 0.000000 0.218895
#
#
# Mechanical properties :
#
#
# Convention : Reuss Voigt Hill
#
# Bulk Modulus (GPa) = 43.03455 59.22064 51.12759
# Shear Modulus (GPa) = 14.28547 19.20605 16.74576
#
# Velocity S-wave (km/s) = 2.39192 2.77344 2.58972
# Velocity P-wave (km/s) = 4.98635 5.82870 5.42390
#
# Compressibility (1/GPa) = 0.02323714
#
# Stress axis : x y z
#
# Youngs Moduli (GPa) = 55.19802 63.06811 158.57472
#
# Poissons Ratio (x) = 0.22706 0.83844
# Poissons Ratio (y) = 0.19872 -0.05817
# Poissons Ratio (z) = 0.29185 -0.02314
#
# Static dielectric constant tensor:
#      x y z
#    x 2.111650 0.000000 0.199800 
#    y 0.000000 1.927210 0.000000 
#    z 0.199800 0.000000 2.163680 
# 
# From -- ./inp_files/87046.got.cif
#   From: 2010.05.17/outbox.cif.g08.bks.cpg/sg15_44_cif.got.tgz:87046.got - 2010.06.03 18:47:42.
