data_PCOD9260622
_publ_section_title
;
Structure prediction by ZEFSAII (Michael W. Deem and Ramdas Pophale) SiO2 
 PCOD9260622
Probable space group: C 2/C
;
_chemical_formula_sum "Si O2"
_cell_formula_units_Z 60
_cell_length_a 16.164512
_cell_length_b 14.973271
_cell_length_c 13.972655
_cell_angle_alpha 90.000000
_cell_angle_beta 65.195906
_cell_angle_gamma 90.000000
_cell_volume 3069.893312
_symmetry_space_group_name_H-M "C 2/C"
_symmetry_group_IT_number 15
_symmetry_cell_setting 'monoclinic'
loop_
_space_group_symop_operation_xyz
x,y,z
-x,y,1/2-z
-x,-y,-z
x,-y,1/2+z
1/2+x,1/2+y,z
1/2-x,1/2+y,1/2-z
1/2-x,1/2-y,-z
1/2+x,1/2-y,1/2+z
loop_
_atom_site_type_symbol
_atom_site_label
_atom_site_fract_x
_atom_site_fract_y
_atom_site_fract_z
Si Si1 0.075918 0.924356 0.441518
Si Si2 0.721666 0.218234 0.910419
Si Si3 0.500000 0.631744 0.250000
Si Si4 0.339054 0.481794 0.919544
Si Si5 0.507624 0.063978 0.861465
Si Si6 0.963313 0.234486 0.083943
Si Si7 0.349372 0.983815 0.064018
Si Si8 0.101227 0.145720 0.722599
O O1 0.159369 0.954152 0.469634
O O2 0.097525 0.916032 0.319067
O O3 0.035152 0.827548 0.492037
O O4 0.000000 0.000000 0.500000
O O5 0.636005 0.273035 0.914327
O O6 0.681971 0.118162 0.933388
O O7 0.815782 0.214567 0.804773
O O8 0.750000 0.250000 0.000000
O O9 0.578136 0.573790 0.164366
O O10 0.455779 0.692242 0.191521
O O11 0.244170 0.463643 0.911629
O O12 0.369391 0.583254 0.881160
O O13 0.500000 0.069075 0.750000
O O14 0.508585 0.162688 0.910431
O O15 0.598554 0.014866 0.859056
O O16 0.422660 0.012127 0.948996
O O17 0.000000 0.181546 0.750000
#
# Coordination Sequence:
#
# PCOD9260622 Si02
#       8
#     8   8   4   8   8   8   8   8
#     4  11  21  36  62  90 124 162 200 255 313 369
#     4  10  22  39  58  88 124 155 201 255 306 372
#     4  10  18  38  58  86 118 158 194 246 310 360
#     4  10  20  36  57  90 123 147 203 250 299 378
#     4  10  20  43  65  82 120 164 206 251 300 368
#     4  10  21  38  60  84 120 163 202 249 309 358
#     4   9  22  39  62  90 115 159 204 254 307 361
#     4  11  19  36  59  86 123 162 195 245 311 365
#
# _framework density 19.544654000000001
#
# number of rings (size 3 to 8) (size 9 to 14) (size 15 to 20)
#    0.000    1.867    2.667    1.600    1.867    3.200 
#    4.800    4.667    0.000    0.000    0.000    0.000 
#    0.000    0.000    0.000    0.000    0.000    0.000 
#
# Total GULP energy -167177.391582 kJ/mol
# GULP energy per Si atom -5572.579719 kJ/mol
# Density = 1.950017 g / cm^3
# Si number density = 19.544654 Si / 1000 Ang^3
#
#
#
# Elastic Constant Matrix: (Units=GPa)
#
#
# Indices 1 2 3 4 5 6 
#
# 1 166.6214 26.9865 44.5228 0.0000 12.3945 0.0000
# 2 26.9865 18.0065 10.6561 0.0000 0.9650 0.0000
# 3 44.5228 10.6561 71.6020 0.0000 18.3948 0.0000
# 4 0.0000 0.0000 0.0000 23.0835 0.0000 7.9073
# 5 12.3945 0.9650 18.3948 0.0000 32.8293 0.0000
# 6 0.0000 0.0000 0.0000 7.9073 0.0000 21.7036
#
#
#
# Elastic Compliance Matrix: (Units=1/GPa)
#
#
# Indices 1 2 3 4 5 6 
#
# 1 0.008823 -0.011048 -0.003586 0.000000 -0.000997 0.000000
# 2 -0.011048 0.075150 -0.005629 0.000000 0.005116 0.000000
# 3 -0.003586 -0.005629 0.019442 0.000000 -0.009374 0.000000
# 4 0.000000 0.000000 0.000000 0.049499 0.000000 -0.018034
# 5 -0.000997 0.005116 -0.009374 0.000000 0.035939 0.000000
# 6 0.000000 0.000000 0.000000 -0.018034 0.000000 0.052646
#
#
# Mechanical properties :
#
#
# Convention : Reuss Voigt Hill
#
# Bulk Modulus (GPa) = 15.90078 46.72896 31.31487
# Shear Modulus (GPa) = 16.50231 27.12759 21.81495
#
# Velocity S-wave (km/s) = 2.90890 3.72960 3.34452
# Velocity P-wave (km/s) = 4.40858 6.51976 5.56520
#
# Compressibility (1/GPa) = 0.06288998
#
# Stress axis : x y z
#
# Youngs Moduli (GPa) = 113.33475 13.30667 51.43524
#
# Poissons Ratio (x) = 0.14701 0.18445
# Poissons Ratio (y) = 1.25213 0.28951
# Poissons Ratio (z) = 0.40643 0.07490
#
# Static dielectric constant tensor:
#      x y z
#    x 1.306750 0.000000 0.282600 
#    y 0.000000 1.729920 0.000000 
#    z 0.282600 0.000000 1.539490 
# 
# From -- ./inp_files/154813.got.cif
#   From: 2010.05.17/outbox.cif.g08.bks.cpg/sg15_78_cif.got.tgz:154813.got - 2010.06.03 18:47:42.
