data_PCOD9260979
_publ_section_title
;
Structure prediction by ZEFSAII (Michael W. Deem and Ramdas Pophale) SiO2 
 PCOD9260979
Probable space group: C 2/C
;
_chemical_formula_sum "Si O2"
_cell_formula_units_Z 60
_cell_length_a 22.455012
_cell_length_b 9.309815
_cell_length_c 17.022547
_cell_angle_alpha 90.000000
_cell_angle_beta 132.826350
_cell_angle_gamma 90.000000
_cell_volume 2609.937117
_symmetry_space_group_name_H-M "C 2/C"
_symmetry_group_IT_number 15
_symmetry_cell_setting 'monoclinic'
loop_
_space_group_symop_operation_xyz
x,y,z
-x,y,1/2-z
-x,-y,-z
x,-y,1/2+z
1/2+x,1/2+y,z
1/2-x,1/2+y,1/2-z
1/2-x,1/2-y,-z
1/2+x,1/2-y,1/2+z
loop_
_atom_site_type_symbol
_atom_site_label
_atom_site_fract_x
_atom_site_fract_y
_atom_site_fract_z
Si Si1 0.000000 0.786613 0.750000
Si Si2 0.100315 0.620612 0.946939
Si Si3 0.130425 0.768910 0.356711
Si Si4 0.075324 0.471737 0.698181
Si Si5 0.305121 0.834906 0.439154
Si Si6 0.922490 0.012032 0.301113
Si Si7 0.139547 0.261931 0.178304
Si Si8 0.452016 0.271385 0.453872
O O1 0.919231 0.696357 0.654019
O O2 0.982342 0.875268 0.812875
O O3 0.014686 0.536875 0.881358
O O4 0.168680 0.499709 0.020342
O O5 0.102489 0.740204 0.017940
O O6 0.096863 0.618205 0.294584
O O7 0.219181 0.795121 0.399213
O O8 0.132542 0.760447 0.452347
O O9 0.084737 0.899147 0.275900
O O10 0.136769 0.598338 0.730590
O O11 0.074059 0.355819 0.627650
O O12 0.307145 0.793059 0.350187
O O13 0.848322 0.114968 0.262506
O O14 0.942150 0.917040 0.395269
O O15 0.046983 0.246260 0.061077
#
# Coordination Sequence:
#
# PCOD9260979 Si02
#       8
#     4   8   8   8   8   8   8   8
#     4  12  24  34  62  98 132 156 204 268 322 376
#     4  11  20  37  67  95 120 166 216 262 308 377
#     4  10  26  42  59  91 130 166 208 263 318 383
#     4  10  18  39  64  93 119 158 216 264 303 370
#     4  11  23  42  66  86 125 171 218 252 318 377
#     4  11  25  38  58  96 134 158 202 266 327 373
#     4  11  20  37  64  92 124 162 210 255 316 376
#     4  10  19  37  60  94 123 155 205 263 313 368
#
# _framework density 22.989059000000001
#
# number of rings (size 3 to 8) (size 9 to 14) (size 15 to 20)
#    0.000    1.333    5.333    2.000    1.867    1.067 
#    0.000    0.667    0.000    0.000    0.000    0.000 
#    0.000    0.000    0.000    0.000    0.000    0.000 
#
# Total GULP energy -167424.237913 kJ/mol
# GULP energy per Si atom -5580.807930 kJ/mol
# Density = 2.293674 g / cm^3
# Si number density = 22.989059 Si / 1000 Ang^3
#
#
#
# Elastic Constant Matrix: (Units=GPa)
#
#
# Indices 1 2 3 4 5 6 
#
# 1 58.2348 32.5235 16.7493 0.0000 -20.6190 0.0000
# 2 32.5235 120.1780 28.4417 0.0000 -18.1622 0.0000
# 3 16.7493 28.4417 47.8499 0.0000 -20.4028 0.0000
# 4 0.0000 0.0000 0.0000 -11.6509 0.0000 -24.8766
# 5 -20.6190 -18.1622 -20.4028 0.0000 31.0985 0.0000
# 6 0.0000 0.0000 0.0000 -24.8766 0.0000 22.8310
#
#
#
# Elastic Compliance Matrix: (Units=1/GPa)
#
#
# Indices 1 2 3 4 5 6 
#
# 1 0.024549 -0.004573 -0.000102 0.000000 0.013539 0.000000
# 2 -0.004573 0.010690 -0.004698 0.000000 0.000128 0.000000
# 3 -0.000102 -0.004698 0.031278 0.000000 0.017709 0.000000
# 4 0.000000 0.000000 0.000000 -0.025802 0.000000 -0.028114
# 5 0.013539 0.000128 0.017709 0.000000 0.052826 0.000000
# 6 0.000000 0.000000 0.000000 -0.028114 0.000000 0.013167
#
#
# Mechanical properties :
#
#
# Convention : Reuss Voigt Hill
#
# Bulk Modulus (GPa) = 20.93385 42.41021 31.67203
# Shear Modulus (GPa) = 35.36603 18.35893 26.86248
#
# Velocity S-wave (km/s) = 3.92648 2.82901 3.42203
# Velocity P-wave (km/s) = 5.44813 5.39992 5.42408
#
# Compressibility (1/GPa) = 0.04776952
#
# Stress axis : x y z
#
# Youngs Moduli (GPa) = 40.73491 93.54490 31.97125
#
# Poissons Ratio (x) = 0.42782 0.00326
# Poissons Ratio (y) = 0.18630 0.15022
# Poissons Ratio (z) = 0.00415 0.43952
#
# Static dielectric constant tensor:
#      x y z
#    x 1.827550 0.000000 -0.015160 
#    y 0.000000 1.917980 0.000000 
#    z -0.015160 0.000000 1.943720 
# 
# From -- ./inp_files/221916.got.cif
#   From: 2010.05.17/outbox.cif.g08.bks.cpg/sg15_111_cif.got.tgz:221916.got - 2010.06.03 18:47:42.
