data_PCOD9260152
_publ_section_title
;
Structure prediction by ZEFSAII (Michael W. Deem and Ramdas Pophale) SiO2 
 PCOD9260152
Probable space group: C 2/C
;
_chemical_formula_sum "Si O2"
_cell_formula_units_Z 56
_cell_length_a 16.337627
_cell_length_b 7.478751
_cell_length_c 21.218279
_cell_angle_alpha 90.000000
_cell_angle_beta 67.171885
_cell_angle_gamma 90.000000
_cell_volume 2389.488904
_symmetry_space_group_name_H-M "C 2/C"
_symmetry_group_IT_number 15
_symmetry_cell_setting 'monoclinic'
loop_
_space_group_symop_operation_xyz
x,y,z
-x,y,1/2-z
-x,-y,-z
x,-y,1/2+z
1/2+x,1/2+y,z
1/2-x,1/2+y,1/2-z
1/2-x,1/2-y,-z
1/2+x,1/2-y,1/2+z
loop_
_atom_site_type_symbol
_atom_site_label
_atom_site_fract_x
_atom_site_fract_y
_atom_site_fract_z
Si Si1 0.055561 0.475875 0.834606
Si Si2 0.120484 0.450598 0.182862
Si Si3 0.963305 0.858371 0.592356
Si Si4 0.701406 0.440301 0.938602
Si Si5 0.246941 0.031509 0.563915
Si Si6 0.430129 0.463244 0.820492
Si Si7 0.071077 0.344090 0.960766
O O1 0.116657 0.472260 0.754572
O O2 0.069575 0.335182 0.885783
O O3 0.955822 0.461411 0.837579
O O4 0.065544 0.671347 0.864746
O O5 0.212845 0.480059 0.121421
O O6 0.091740 0.242113 0.193437
O O7 0.016910 0.960829 0.629874
O O8 0.030914 0.809267 0.516165
O O9 0.120948 0.048066 0.413655
O O10 0.710180 0.227435 0.948154
O O11 0.703719 0.513543 0.009236
O O12 0.167505 0.040361 0.638377
O O13 0.328533 0.897784 0.551796
O O14 0.500000 0.542898 0.750000
O O15 0.000000 0.500000 0.000000
#
# Coordination Sequence:
#
# PCOD9260152 Si02
#       7
#     8   8   8   8   8   8   8
#     4   9  17  36  59  90 112 172 206 250 300 379
#     4  10  20  38  68  86 123 166 218 250 309 376
#     4  10  20  38  65  87 125 165 204 258 311 367
#     4  11  23  39  61  96 124 157 208 265 309 373
#     4  11  24  39  64  93 124 164 209 258 318 369
#     4  11  23  45  64  88 127 170 208 257 314 380
#     4  10  18  36  63  89 121 164 206 243 307 380
#
# _framework density 23.435976
#
# number of rings (size 3 to 8) (size 9 to 14) (size 15 to 20)
#    0.000    1.714    5.714    2.571    2.000    4.000 
#    2.571    0.000    0.000    0.000    0.000    0.000 
#    0.000    0.000    0.000    0.000    0.000    0.000 
#
# Total GULP energy -156600.083138 kJ/mol
# GULP energy per Si atom -5592.860112 kJ/mol
# Density = 2.338263 g / cm^3
# Si number density = 23.435976 Si / 1000 Ang^3
#
#
#
# Elastic Constant Matrix: (Units=GPa)
#
#
# Indices 1 2 3 4 5 6 
#
# 1 94.7330 6.6185 66.9093 0.0000 -2.7619 0.0000
# 2 6.6185 32.0118 11.2333 0.0000 5.3219 0.0001
# 3 66.9093 11.2333 161.2184 0.0000 4.8477 0.0000
# 4 0.0000 0.0000 0.0000 21.6106 0.0000 -3.0338
# 5 -2.7619 5.3219 4.8477 0.0000 46.1711 0.0000
# 6 0.0000 0.0001 0.0000 -3.0338 0.0000 14.7683
#
#
#
# Elastic Compliance Matrix: (Units=1/GPa)
#
#
# Indices 1 2 3 4 5 6 
#
# 1 0.015090 -0.001216 -0.006229 0.000000 0.001697 0.000000
# 2 -0.001216 0.032683 -0.001662 0.000000 -0.003665 0.000000
# 3 -0.006229 -0.001662 0.008937 0.000000 -0.001119 0.000000
# 4 0.000000 0.000000 0.000000 0.047648 0.000000 0.009788
# 5 0.001697 -0.003665 -0.001119 0.000000 0.022300 0.000000
# 6 0.000000 0.000000 0.000000 0.009788 0.000000 0.069723
#
#
# Mechanical properties :
#
#
# Convention : Reuss Voigt Hill
#
# Bulk Modulus (GPa) = 25.97732 50.83171 38.40451
# Shear Modulus (GPa) = 21.98503 30.05682 26.02092
#
# Velocity S-wave (km/s) = 3.06615 3.58510 3.33573
# Velocity P-wave (km/s) = 4.86245 6.23489 5.59095
#
# Compressibility (1/GPa) = 0.03849513
#
# Stress axis : x y z
#
# Youngs Moduli (GPa) = 66.26965 30.59731 111.88954
#
# Poissons Ratio (x) = 0.03721 0.69695
# Poissons Ratio (y) = 0.08059 0.18599
# Poissons Ratio (z) = 0.41279 0.05086
#
# Static dielectric constant tensor:
#      x y z
#    x 1.854800 0.000000 0.000190 
#    y 0.000000 1.990940 0.000000 
#    z 0.000190 0.000000 1.856300 
# 
# From -- ./inp_files/247344.got.cif
#   From: 2010.05.17/outbox.cif.g08.bks.cpg/sg15_124_cif.got.tgz:247344.got - 2010.06.03 18:47:42.
