data_PCOD9260795
_publ_section_title
;
Structure prediction by ZEFSAII (Michael W. Deem and Ramdas Pophale) SiO2 
 PCOD9260795
Probable space group: C 2/C
;
_chemical_formula_sum "Si O2"
_cell_formula_units_Z 60
_cell_length_a 26.916208
_cell_length_b 14.884177
_cell_length_c 13.074172
_cell_angle_alpha 90.000000
_cell_angle_beta 33.095209
_cell_angle_gamma 90.000000
_cell_volume 2860.032178
_symmetry_space_group_name_H-M "C 2/C"
_symmetry_group_IT_number 15
_symmetry_cell_setting 'monoclinic'
loop_
_space_group_symop_operation_xyz
x,y,z
-x,y,1/2-z
-x,-y,-z
x,-y,1/2+z
1/2+x,1/2+y,z
1/2-x,1/2+y,1/2-z
1/2-x,1/2-y,-z
1/2+x,1/2-y,1/2+z
loop_
_atom_site_type_symbol
_atom_site_label
_atom_site_fract_x
_atom_site_fract_y
_atom_site_fract_z
Si Si1 0.520757 0.851632 0.598493
Si Si2 0.803708 0.226256 0.758345
Si Si3 0.793555 0.388115 0.621705
Si Si4 0.175631 0.388291 0.612111
Si Si5 0.795598 0.461438 0.270301
Si Si6 0.995248 0.776481 0.566774
Si Si7 0.301054 0.344896 0.920268
Si Si8 0.500000 0.857819 0.250000
O O1 0.500000 0.819312 0.750000
O O2 0.428986 0.906053 0.733838
O O3 0.609934 0.912109 0.423811
O O4 0.518226 0.771329 0.520010
O O5 0.783331 0.290034 0.694981
O O6 0.814004 0.304323 0.827335
O O7 0.904642 0.183755 0.587124
O O8 0.731353 0.150812 0.918414
O O9 0.760239 0.470179 0.747214
O O10 0.741383 0.391542 0.605932
O O11 0.902579 0.405140 0.426062
O O12 0.200073 0.474718 0.636674
O O13 0.726452 0.385643 0.424001
O O14 0.908921 0.839271 0.728310
O O15 0.989722 0.700976 0.664961
O O16 0.250000 0.250000 0.000000
#
# Coordination Sequence:
#
# PCOD9260795 Si02
#       8
#     8   8   8   8   8   8   8   4
#     4  11  23  35  59  98 136 162 204 267 327 389
#     4   8  18  38  63  88 124 165 218 254 314 383
#     4  10  22  37  63  94 127 170 207 263 327 388
#     4   9  19  37  60  87 127 170 203 257 317 378
#     4  11  24  39  58  96 132 167 210 259 326 391
#     4  10  21  41  64  97 121 175 221 267 314 384
#     4  12  23  42  66  92 136 168 217 268 323 385
#     4  10  18  38  64  88 128 166 214 264 324 390
#
# _framework density 20.978785999999999
#
# number of rings (size 3 to 8) (size 9 to 14) (size 15 to 20)
#    0.000    1.867    2.667    1.200    4.667    0.000 
#    0.000    0.667    0.000    0.000    0.000    0.000 
#    0.000    0.000    0.000    0.000    0.000    0.000 
#
# Total GULP energy -167282.671882 kJ/mol
# GULP energy per Si atom -5576.089063 kJ/mol
# Density = 2.093104 g / cm^3
# Si number density = 20.978786 Si / 1000 Ang^3
#
#
#
# Elastic Constant Matrix: (Units=GPa)
#
#
# Indices 1 2 3 4 5 6 
#
# 1 82.8858 32.4678 37.2646 0.0000 8.7617 0.0000
# 2 32.4678 54.8542 56.5772 0.0000 9.5321 0.0000
# 3 37.2646 56.5772 122.4708 0.0000 4.8807 0.0000
# 4 0.0000 0.0000 0.0000 -12.7355 0.0000 15.0650
# 5 8.7617 9.5321 4.8807 0.0000 30.2895 0.0000
# 6 0.0000 0.0000 0.0000 15.0650 0.0000 20.4104
#
#
#
# Elastic Compliance Matrix: (Units=1/GPa)
#
#
# Indices 1 2 3 4 5 6 
#
# 1 0.015864 -0.007941 -0.001082 0.000000 -0.001916 0.000000
# 2 -0.007941 0.041070 -0.016237 0.000000 -0.008011 0.000000
# 3 -0.001082 -0.016237 0.015882 0.000000 0.002864 0.000000
# 4 0.000000 0.000000 0.000000 -0.041920 0.000000 0.030941
# 5 -0.001916 -0.008011 0.002864 0.000000 0.035629 0.000000
# 6 0.000000 0.000000 0.000000 0.030941 0.000000 0.026157
#
#
# Mechanical properties :
#
#
# Convention : Reuss Voigt Hill
#
# Bulk Modulus (GPa) = 44.85377 56.98111 50.91744
# Shear Modulus (GPa) = 33.19302 16.51960 24.85631
#
# Velocity S-wave (km/s) = 3.98203 2.80919 3.44587
# Velocity P-wave (km/s) = 6.52449 6.14348 6.33685
#
# Compressibility (1/GPa) = 0.02229467
#
# Stress axis : x y z
#
# Youngs Moduli (GPa) = 63.03390 24.34882 62.96618
#
# Poissons Ratio (x) = 0.19335 0.06816
# Poissons Ratio (y) = 0.50053 1.02240
# Poissons Ratio (z) = 0.06823 0.39536
#
# Static dielectric constant tensor:
#      x y z
#    x 1.783050 0.000000 0.045390 
#    y 0.000000 1.788280 0.000000 
#    z 0.045390 0.000000 1.814540 
# 
# From -- ./inp_files/182301.got.cif
#   From: 2010.05.17/outbox.cif.g08.bks.cpg/sg15_92_cif.got.tgz:182301.got - 2010.06.03 18:47:42.
