data_PCOD9260594
_publ_section_title
;
Structure prediction by ZEFSAII (Michael W. Deem and Ramdas Pophale) SiO2 
 PCOD9260594
Probable space group: C 2/C
;
_chemical_formula_sum "Si O2"
_cell_formula_units_Z 56
_cell_length_a 26.139240
_cell_length_b 16.915354
_cell_length_c 13.144782
_cell_angle_alpha 90.000000
_cell_angle_beta 35.498614
_cell_angle_gamma 90.000000
_cell_volume 3374.945336
_symmetry_space_group_name_H-M "C 2/C"
_symmetry_group_IT_number 15
_symmetry_cell_setting 'monoclinic'
loop_
_space_group_symop_operation_xyz
x,y,z
-x,y,1/2-z
-x,-y,-z
x,-y,1/2+z
1/2+x,1/2+y,z
1/2-x,1/2+y,1/2-z
1/2-x,1/2-y,-z
1/2+x,1/2-y,1/2+z
loop_
_atom_site_type_symbol
_atom_site_label
_atom_site_fract_x
_atom_site_fract_y
_atom_site_fract_z
Si Si1 0.882868 0.752387 0.288767
Si Si2 0.079689 0.735120 0.901808
Si Si3 0.193941 0.498272 0.022192
Si Si4 0.771321 0.860854 0.786476
Si Si5 0.748078 0.871262 0.587308
Si Si6 0.587679 0.151971 0.674844
Si Si7 0.901302 0.630626 0.439985
O O1 0.827941 0.831829 0.394572
O O2 0.830835 0.692720 0.298314
O O3 0.883019 0.706028 0.396570
O O4 0.982386 0.763239 0.092065
O O5 0.151997 0.801945 0.805395
O O6 0.079584 0.706297 0.786488
O O7 0.101260 0.661151 0.941277
O O8 0.218680 0.547839 0.081424
O O9 0.112812 0.437464 0.168975
O O10 0.164941 0.561938 0.984425
O O11 0.269746 0.441351 0.855309
O O12 0.773201 0.879076 0.663911
O O13 0.674673 0.824704 0.969292
O O14 0.500000 0.152861 0.750000
O O15 0.000000 0.604422 0.250000
#
# Coordination Sequence:
#
# PCOD9260594 Si02
#       7
#     8   8   8   8   8   8   8
#     4   9  19  33  60  82 109 143 192 235 275 326
#     4  11  20  36  59  85 110 151 186 240 281 332
#     4   9  22  33  53  82 118 147 184 228 288 337
#     4  10  22  35  57  83 116 148 189 230 286 339
#     4  10  18  38  55  85 113 147 190 236 276 332
#     4  10  22  37  54  83 114 148 186 229 287 343
#     4   9  17  33  53  84 109 140 186 228 281 333
#
# _framework density 16.592860999999999
#
# number of rings (size 3 to 8) (size 9 to 14) (size 15 to 20)
#    0.857    1.429    1.429    1.714    2.000    0.000 
#    0.000    4.286    0.000    0.000    0.000    0.000 
#    0.000    0.000    0.000    0.000    0.000    0.000 
#
# Total GULP energy -155950.080661 kJ/mol
# GULP energy per Si atom -5569.645738 kJ/mol
# Density = 1.655509 g / cm^3
# Si number density = 16.592861 Si / 1000 Ang^3
#
#
#
# Elastic Constant Matrix: (Units=GPa)
#
#
# Indices 1 2 3 4 5 6 
#
# 1 117.0639 65.8827 52.5619 0.0000 2.6498 0.0000
# 2 65.8827 78.3693 54.7276 0.0000 -3.6998 0.0000
# 3 52.5619 54.7276 81.1891 0.0000 -12.7541 0.0000
# 4 0.0000 0.0000 0.0000 9.3340 0.0000 -0.4379
# 5 2.6498 -3.6998 -12.7541 0.0000 30.7134 0.0000
# 6 0.0000 0.0000 0.0000 -0.4379 0.0000 18.9647
#
#
#
# Elastic Compliance Matrix: (Units=1/GPa)
#
#
# Indices 1 2 3 4 5 6 
#
# 1 0.017013 -0.011968 -0.003641 0.000000 -0.004422 0.000000
# 2 -0.011968 0.033024 -0.014683 0.000000 -0.001087 0.000000
# 3 -0.003641 -0.014683 0.026042 0.000000 0.009360 0.000000
# 4 0.000000 0.000000 0.000000 0.107252 0.000000 0.002477
# 5 -0.004422 -0.001087 0.009360 0.000000 0.036696 0.000000
# 6 0.000000 0.000000 0.000000 0.002477 0.000000 0.052787
#
#
# Mechanical properties :
#
#
# Convention : Reuss Voigt Hill
#
# Bulk Modulus (GPa) = 64.54207 69.21854 66.88031
# Shear Modulus (GPa) = 14.76828 18.69908 16.73368
#
# Velocity S-wave (km/s) = 2.98659 3.36063 3.17911
# Velocity P-wave (km/s) = 7.13266 7.54088 7.33961
#
# Compressibility (1/GPa) = 0.01549377
#
# Stress axis : x y z
#
# Youngs Moduli (GPa) = 58.77837 30.28130 38.39936
#
# Poissons Ratio (x) = 0.36241 0.13983
# Poissons Ratio (y) = 0.70347 0.56381
# Poissons Ratio (z) = 0.21403 0.44462
#
# Static dielectric constant tensor:
#      x y z
#    x 1.561360 0.000000 -0.004510 
#    y 0.000000 1.554950 0.000000 
#    z -0.004510 0.000000 1.555400 
# 
# From -- ./inp_files/119195.got.cif
#   From: 2010.05.17/outbox.cif.g08.bks.cpg/sg15_60_cif.got.tgz:119195.got - 2010.06.03 18:47:42.
