data_PCOD9260399
_publ_section_title
;
Structure prediction by ZEFSAII (Michael W. Deem and Ramdas Pophale) SiO2 
 PCOD9260399
Probable space group: C 2/C
;
_chemical_formula_sum "Si O2"
_cell_formula_units_Z 52
_cell_length_a 17.879567
_cell_length_b 15.816198
_cell_length_c 30.254720
_cell_angle_alpha 90.000000
_cell_angle_beta 163.441548
_cell_angle_gamma 90.000000
_cell_volume 2438.299097
_symmetry_space_group_name_H-M "C 2/C"
_symmetry_group_IT_number 15
_symmetry_cell_setting 'monoclinic'
loop_
_space_group_symop_operation_xyz
x,y,z
-x,y,1/2-z
-x,-y,-z
x,-y,1/2+z
1/2+x,1/2+y,z
1/2-x,1/2+y,1/2-z
1/2-x,1/2-y,-z
1/2+x,1/2-y,1/2+z
loop_
_atom_site_type_symbol
_atom_site_label
_atom_site_fract_x
_atom_site_fract_y
_atom_site_fract_z
Si Si1 0.500000 0.500000 0.500000
Si Si2 0.019821 0.907969 0.837989
Si Si3 0.519795 0.411597 0.585886
Si Si4 0.964887 0.659574 0.988738
Si Si5 0.358739 0.673645 0.876987
Si Si6 0.998231 0.290371 0.407331
Si Si7 0.000000 0.035971 0.750000
Si Si8 0.500000 0.878209 0.250000
O O1 0.704603 0.447334 0.652777
O O2 0.518462 0.583504 0.543423
O O3 0.743956 0.872104 0.664955
O O4 0.982306 0.944958 0.865928
O O5 0.090077 0.977960 0.841870
O O6 0.235848 0.833179 0.960978
O O7 0.506108 0.310425 0.585025
O O8 0.250549 0.434811 0.405412
O O9 0.943280 0.751878 0.998309
O O10 0.967165 0.668483 0.937557
O O11 0.742139 0.594500 0.874834
O O12 0.114784 0.675950 0.774790
O O13 0.230326 0.687721 0.756706
#
# Coordination Sequence:
#
# PCOD9260399 Si02
#       8
#     4   8   8   8   8   8   4   4
#     4  10  24  40  62  98 146 180 228 276 348 412
#     4  12  24  42  74 104 133 174 239 304 346 398
#     4  11  22  38  66 105 134 173 220 290 359 402
#     4  12  25  46  66  97 147 179 235 282 349 423
#     4  11  23  41  69 101 137 182 224 296 350 420
#     4  12  22  40  76 105 130 174 230 300 360 397
#     4  12  30  45  63 100 140 198 224 278 343 431
#     4  10  18  37  61 102 134 154 220 286 343 383
#
# _framework density 21.326340999999999
#
# number of rings (size 3 to 8) (size 9 to 14) (size 15 to 20)
#    0.000    0.615    7.692    1.846    2.154    0.000 
#    0.000    3.846    0.000    0.000    0.000    0.000 
#    0.000    0.000    0.000    0.000    0.000    0.000 
#
# Total GULP energy -144762.184016 kJ/mol
# GULP energy per Si atom -5567.776308 kJ/mol
# Density = 2.127780 g / cm^3
# Si number density = 21.326341 Si / 1000 Ang^3
#
#
#
# Elastic Constant Matrix: (Units=GPa)
#
#
# Indices 1 2 3 4 5 6 
#
# 1 123.8851 36.7051 39.7865 0.0259 -55.9084 -0.0011
# 2 36.7051 115.5922 29.4128 -0.1022 -13.4883 -0.0083
# 3 39.7865 29.4128 44.1166 -0.1860 -32.7875 -0.0095
# 4 0.0259 -0.1022 -0.1860 -5.7160 0.0545 -7.4331
# 5 -55.9084 -13.4883 -32.7875 0.0545 45.0718 0.0137
# 6 -0.0011 -0.0083 -0.0095 -7.4331 0.0137 22.3181
#
#
#
# Elastic Compliance Matrix: (Units=1/GPa)
#
#
# Indices 1 2 3 4 5 6 
#
# 1 0.020076 -0.004516 0.005245 0.000197 0.027366 0.000050
# 2 -0.004516 0.011815 -0.011625 0.000027 -0.010522 0.000015
# 3 0.005245 -0.011625 0.060811 -0.000898 0.047265 -0.000306
# 4 0.000197 0.000027 -0.000898 -0.122057 -0.000241 -0.040652
# 5 0.027366 -0.010522 0.047265 -0.000241 0.087367 -0.000117
# 6 0.000050 0.000015 -0.000306 -0.040652 -0.000117 0.031267
#
#
# Mechanical properties :
#
#
# Convention : Reuss Voigt Hill
#
# Bulk Modulus (GPa) = 14.10220 55.04473 34.57346
# Shear Modulus (GPa) = 37.11752 24.18075 30.64914
#
# Velocity S-wave (km/s) = 4.17640 3.37091 3.79509
# Velocity P-wave (km/s) = 5.46657 6.40449 5.95402
#
# Compressibility (1/GPa) = 0.07091095
#
# Stress axis : x y z
#
# Youngs Moduli (GPa) = 49.81172 84.63677 16.44439
#
# Poissons Ratio (x) = 0.38221 -0.08625
# Poissons Ratio (y) = 0.22495 0.19116
# Poissons Ratio (z) = -0.26126 0.98386
#
# Static dielectric constant tensor:
#      x y z
#    x 1.645260 -0.000400 -0.116470 
#    y -0.000400 1.535320 -0.000140 
#    z -0.116470 -0.000140 1.707010 
# 
# From -- ./inp_files/316476.got.cif
#   From: 2010.05.17/outbox.cif.g08.bks.cpg/sg15_159_cif.got.tgz:316476.got - 2010.06.03 18:47:42.
