data_PCOD9260394
_publ_section_title
;
Structure prediction by ZEFSAII (Michael W. Deem and Ramdas Pophale) SiO2 
 PCOD9260394
Probable space group: C 2/C
;
_chemical_formula_sum "Si O2"
_cell_formula_units_Z 48
_cell_length_a 13.225868
_cell_length_b 10.927677
_cell_length_c 13.820505
_cell_angle_alpha 90.000000
_cell_angle_beta 69.508671
_cell_angle_gamma 90.000000
_cell_volume 1871.061832
_symmetry_space_group_name_H-M "C 2/C"
_symmetry_group_IT_number 15
_symmetry_cell_setting 'monoclinic'
loop_
_space_group_symop_operation_xyz
x,y,z
-x,y,1/2-z
-x,-y,-z
x,-y,1/2+z
1/2+x,1/2+y,z
1/2-x,1/2+y,1/2-z
1/2-x,1/2-y,-z
1/2+x,1/2-y,1/2+z
loop_
_atom_site_type_symbol
_atom_site_label
_atom_site_fract_x
_atom_site_fract_y
_atom_site_fract_z
Si Si1 0.151128 0.271072 0.888816
Si Si2 0.319913 0.399748 0.729596
Si Si3 0.497292 0.430515 0.144375
Si Si4 0.771078 0.887720 0.521393
Si Si5 0.622887 0.976723 0.304087
Si Si6 0.600582 0.911206 0.085161
O O1 0.274377 0.289455 0.809526
O O2 0.087084 0.147700 0.890397
O O3 0.096402 0.380550 0.842049
O O4 0.144173 0.302839 0.003837
O O5 0.443015 0.437044 0.680121
O O6 0.280346 0.383009 0.634132
O O7 0.249576 0.518881 0.789024
O O8 0.500000 0.371646 0.250000
O O9 0.614693 0.433491 0.058855
O O10 0.750000 0.750000 0.500000
O O11 0.672258 0.974361 0.524036
O O12 0.612430 0.934821 0.196198
O O13 0.528037 0.906738 0.389906
#
# Coordination Sequence:
#
# PCOD9260394 Si02
#       6
#     8   8   8   8   8   8
#     4  10  21  37  60  92 125 164 223 259 321 382
#     4   9  22  41  58  92 134 165 208 273 314 386
#     4  12  24  40  64  97 129 171 217 265 324 385
#     4  11  22  38  67  96 127 165 212 259 326 384
#     4   8  19  35  60  85 133 158 219 259 322 375
#     4  10  18  37  60  93 126 172 201 275 322 378
#
# _framework density 25.653880999999998
#
# number of rings (size 3 to 8) (size 9 to 14) (size 15 to 20)
#    1.000    1.000    0.000    4.000    2.333    0.000 
#    3.000    3.333    0.000    0.000    0.000    0.000 
#    0.000    0.000    0.000    0.000    0.000    0.000 
#
# Total GULP energy -133896.585511 kJ/mol
# GULP energy per Si atom -5579.024396 kJ/mol
# Density = 2.559549 g / cm^3
# Si number density = 25.653881 Si / 1000 Ang^3
#
#
#
# Elastic Constant Matrix: (Units=GPa)
#
#
# Indices 1 2 3 4 5 6 
#
# 1 83.3836 43.9326 56.1819 0.0000 -19.4643 0.0000
# 2 43.9326 52.0744 23.6279 0.0000 0.6586 0.0000
# 3 56.1819 23.6279 171.9404 0.0000 -21.6459 0.0000
# 4 0.0000 0.0000 0.0000 12.7571 0.0000 8.3840
# 5 -19.4643 0.6586 -21.6459 0.0000 57.8985 0.0000
# 6 0.0000 0.0000 0.0000 8.3840 0.0000 32.9385
#
#
#
# Elastic Compliance Matrix: (Units=1/GPa)
#
#
# Indices 1 2 3 4 5 6 
#
# 1 0.029390 -0.022398 -0.005509 0.000000 0.008076 0.000000
# 2 -0.022398 0.037650 0.001199 0.000000 -0.007510 0.000000
# 3 -0.005509 0.001199 0.007573 0.000000 0.000966 0.000000
# 4 0.000000 0.000000 0.000000 0.094135 0.000000 -0.023961
# 5 0.008076 -0.007510 0.000966 0.000000 0.020433 0.000000
# 6 0.000000 0.000000 0.000000 -0.023961 0.000000 0.036458
#
#
# Mechanical properties :
#
#
# Convention : Reuss Voigt Hill
#
# Bulk Modulus (GPa) = 47.17314 61.65368 54.41341
# Shear Modulus (GPa) = 17.47517 32.96256 25.21886
#
# Velocity S-wave (km/s) = 2.61279 3.58843 3.13875
# Velocity P-wave (km/s) = 5.24695 6.42294 5.86450
#
# Compressibility (1/GPa) = 0.02119850
#
# Stress axis : x y z
#
# Youngs Moduli (GPa) = 34.02466 26.56039 132.05258
#
# Poissons Ratio (x) = 0.59490 0.72746
# Poissons Ratio (y) = 0.76208 -0.15837
# Poissons Ratio (z) = 0.18744 -0.03185
#
# Static dielectric constant tensor:
#      x y z
#    x 2.103410 0.000000 0.028240 
#    y 0.000000 1.988890 0.000000 
#    z 0.028240 0.000000 2.083270 
# 
# From -- ./inp_files/152458.got.cif
#   From: 2010.05.17/outbox.cif.g08.bks.cpg/sg15_77_cif.got.tgz:152458.got - 2010.06.03 18:47:42.
