data_PCOD9260091
_publ_section_title
;
Structure prediction by ZEFSAII (Michael W. Deem and Ramdas Pophale) SiO2 
 PCOD9260091
Probable space group: C 2/C
;
_chemical_formula_sum "Si O2"
_cell_formula_units_Z 44
_cell_length_a 18.920287
_cell_length_b 8.441219
_cell_length_c 14.525658
_cell_angle_alpha 90.000000
_cell_angle_beta 46.209576
_cell_angle_gamma 90.000000
_cell_volume 1674.677726
_symmetry_space_group_name_H-M "C 2/C"
_symmetry_group_IT_number 15
_symmetry_cell_setting 'monoclinic'
loop_
_space_group_symop_operation_xyz
x,y,z
-x,y,1/2-z
-x,-y,-z
x,-y,1/2+z
1/2+x,1/2+y,z
1/2-x,1/2+y,1/2-z
1/2-x,1/2-y,-z
1/2+x,1/2-y,1/2+z
loop_
_atom_site_type_symbol
_atom_site_label
_atom_site_fract_x
_atom_site_fract_y
_atom_site_fract_z
Si Si1 0.325108 0.944022 0.918209
Si Si2 0.118167 0.853164 0.369182
Si Si3 0.500000 0.841307 0.250000
Si Si4 0.385142 0.597841 0.843678
Si Si5 0.786995 0.541891 0.241532
Si Si6 0.050695 0.335272 0.413020
O O1 0.360214 0.767078 0.915197
O O2 0.409058 0.061114 0.873805
O O3 0.333251 0.939877 0.800452
O O4 0.214179 0.996680 0.040623
O O5 0.126887 0.880451 0.253587
O O6 0.178267 0.694661 0.345046
O O7 0.174269 0.003183 0.358681
O O8 0.007858 0.807703 0.489069
O O9 0.544095 0.784428 0.309472
O O10 0.500000 0.549222 0.750000
O O11 0.839146 0.381822 0.157806
O O12 0.000000 0.500000 0.500000
#
# Coordination Sequence:
#
# PCOD9260091 Si02
#       6
#     8   8   4   8   8   8
#     4   9  19  34  58  85 120 160 206 260 294 368
#     4  10  21  37  63  90 122 161 202 260 307 369
#     4  10  18  36  62  86 118 166 214 256 302 362
#     4  10  20  33  56  91 123 161 207 255 313 359
#     4   9  20  39  58  93 117 158 211 248 314 359
#     4   9  20  35  60  89 122 163 211 253 298 383
#
# _framework density 26.273712
#
# number of rings (size 3 to 8) (size 9 to 14) (size 15 to 20)
#    0.000    2.545    0.909    1.091    5.091    2.909 
#    0.000    7.273    2.000    0.000    0.000    0.000 
#    0.000    0.000    0.000    0.000    0.000    0.000 
#
# Total GULP energy -122478.920749 kJ/mol
# GULP energy per Si atom -5567.223670 kJ/mol
# Density = 2.621391 g / cm^3
# Si number density = 26.273712 Si / 1000 Ang^3
#
#
#
# Elastic Constant Matrix: (Units=GPa)
#
#
# Indices 1 2 3 4 5 6 
#
# 1 53.6372 18.7768 13.4796 -0.0001 -23.7247 0.0001
# 2 18.7768 47.9072 14.8847 -0.0003 -18.1462 0.0004
# 3 13.4796 14.8847 106.8538 -0.0001 -24.6900 0.0001
# 4 -0.0001 -0.0003 -0.0001 30.3797 0.0001 -27.1892
# 5 -23.7247 -18.1462 -24.6900 0.0001 75.7571 -0.0001
# 6 0.0001 0.0004 0.0001 -27.1892 -0.0001 6.9615
#
#
#
# Elastic Compliance Matrix: (Units=1/GPa)
#
#
# Indices 1 2 3 4 5 6 
#
# 1 0.023710 -0.006974 -0.000746 0.000000 0.005512 0.000000
# 2 -0.006974 0.025445 -0.001905 0.000000 0.003290 0.000000
# 3 -0.000746 -0.001905 0.010337 0.000000 0.002679 0.000000
# 4 0.000000 0.000000 0.000000 -0.013191 0.000000 -0.051518
# 5 0.005512 0.003290 0.002679 0.000000 0.016587 0.000000
# 6 0.000000 0.000000 0.000000 -0.051518 0.000000 -0.057563
#
#
# Mechanical properties :
#
#
# Convention : Reuss Voigt Hill
#
# Bulk Modulus (GPa) = 24.84829 33.63114 29.23971
# Shear Modulus (GPa) = 131.61606 33.37014 82.49310
#
# Velocity S-wave (km/s) = 7.08540 3.56771 5.60943
# Velocity P-wave (km/s) = 8.74158 5.45889 7.28748
#
# Compressibility (1/GPa) = 0.04024422
#
# Stress axis : x y z
#
# Youngs Moduli (GPa) = 42.17545 39.30059 96.73948
#
# Poissons Ratio (x) = 0.27406 0.07218
# Poissons Ratio (y) = 0.29411 0.18424
# Poissons Ratio (z) = 0.03147 0.07485
#
# Static dielectric constant tensor:
#      x y z
#    x 1.231270 0.000000 0.511950 
#    y 0.000000 2.187070 0.000000 
#    z 0.511950 0.000000 1.723580 
# 
# From -- ./inp_files/160731.got.cif
#   From: 2010.05.17/outbox.cif.g08.bks.cpg/sg15_81_cif.got.tgz:160731.got - 2010.06.03 18:47:42.
