data_PCOD9260839
_publ_section_title
;
Structure prediction by ZEFSAII (Michael W. Deem and Ramdas Pophale) SiO2 
 PCOD9260839
Probable space group: C 2/C
;
_chemical_formula_sum "Si O2"
_cell_formula_units_Z 48
_cell_length_a 14.706930
_cell_length_b 18.982095
_cell_length_c 7.843412
_cell_angle_alpha 90.000000
_cell_angle_beta 123.838568
_cell_angle_gamma 90.000000
_cell_volume 1818.730106
_symmetry_space_group_name_H-M "C 2/C"
_symmetry_group_IT_number 15
_symmetry_cell_setting 'monoclinic'
loop_
_space_group_symop_operation_xyz
x,y,z
-x,y,1/2-z
-x,-y,-z
x,-y,1/2+z
1/2+x,1/2+y,z
1/2-x,1/2+y,1/2-z
1/2-x,1/2-y,-z
1/2+x,1/2-y,1/2+z
loop_
_atom_site_type_symbol
_atom_site_label
_atom_site_fract_x
_atom_site_fract_y
_atom_site_fract_z
Si Si1 0.500000 0.825895 0.250000
Si Si2 0.380050 0.057359 0.787911
Si Si3 0.290390 0.406197 0.685477
Si Si4 0.750000 0.250000 0.000000
Si Si5 0.500000 0.211408 0.250000
Si Si6 0.896694 0.206370 0.944593
Si Si7 0.839483 0.416815 0.617381
Si Si8 0.000000 0.081190 0.250000
O O1 0.532924 0.878932 0.135698
O O2 0.597963 0.771934 0.401751
O O3 0.304790 0.072084 0.544986
O O4 0.415804 0.977177 0.786644
O O5 0.318190 0.060359 0.901539
O O6 0.300375 0.323344 0.652171
O O7 0.258569 0.413224 0.849515
O O8 0.397427 0.450562 0.741561
O O9 0.767338 0.207645 0.823242
O O10 0.527718 0.262603 0.121468
O O11 0.601456 0.157722 0.339039
O O12 0.945726 0.133439 0.053969
#
# Coordination Sequence:
#
# PCOD9260839 Si02
#       8
#     4   8   8   4   4   8   8   4
#     4  11  19  36  58  92 128 170 206 250 322 392
#     4  12  24  40  65  95 137 173 216 262 328 394
#     4  11  23  46  65  95 127 176 220 275 324 384
#     4  10  18  38  66  84 126 176 204 266 324 368
#     4  12  21  38  61 104 135 166 217 256 318 412
#     4  10  20  36  61  93 124 168 213 261 317 388
#     4  12  25  39  66  99 135 176 215 262 326 399
#     4   9  24  46  67  84 129 174 221 276 336 364
#
# _framework density 26.392040999999999
#
# number of rings (size 3 to 8) (size 9 to 14) (size 15 to 20)
#    0.000    1.000    6.667    0.500    0.000    1.333 
#    6.000    2.500    0.000    0.000    0.000    0.000 
#    0.000    0.000    0.000    0.000    0.000    0.000 
#
# Total GULP energy -133685.496812 kJ/mol
# GULP energy per Si atom -5570.229034 kJ/mol
# Density = 2.633197 g / cm^3
# Si number density = 26.392041 Si / 1000 Ang^3
#
#
#
# Elastic Constant Matrix: (Units=GPa)
#
#
# Indices 1 2 3 4 5 6 
#
# 1 195.5221 12.1387 49.4925 0.0000 -55.9260 0.0000
# 2 12.1387 78.4101 21.0939 0.0000 -20.1313 0.0000
# 3 49.4925 21.0939 74.2139 0.0000 -35.9859 0.0000
# 4 0.0000 0.0000 0.0000 31.6451 0.0000 -12.2869
# 5 -55.9260 -20.1313 -35.9859 0.0000 56.7079 0.0000
# 6 0.0000 0.0000 0.0000 -12.2869 0.0000 37.7124
#
#
#
# Elastic Compliance Matrix: (Units=1/GPa)
#
#
# Indices 1 2 3 4 5 6 
#
# 1 0.007401 0.001057 -0.002188 0.000000 0.006285 0.000000
# 2 0.001057 0.014454 -0.002628 0.000000 0.004505 0.000000
# 3 -0.002188 -0.002628 0.020486 0.000000 0.009909 0.000000
# 4 0.000000 0.000000 0.000000 0.036177 0.000000 0.011787
# 5 0.006285 0.004505 0.009909 0.000000 0.031720 0.000000
# 6 0.000000 0.000000 0.000000 0.011787 0.000000 0.030357
#
#
# Mechanical properties :
#
#
# Convention : Reuss Voigt Hill
#
# Bulk Modulus (GPa) = 28.71888 57.06628 42.89258
# Shear Modulus (GPa) = 31.30489 42.90780 37.10635
#
# Velocity S-wave (km/s) = 3.44779 4.03648 3.75369
# Velocity P-wave (km/s) = 5.17252 6.58739 5.92236
#
# Compressibility (1/GPa) = 0.03482030
#
# Stress axis : x y z
#
# Youngs Moduli (GPa) = 135.12570 69.18674 48.81485
#
# Poissons Ratio (x) = -0.07310 0.10681
# Poissons Ratio (y) = -0.14277 0.12830
# Poissons Ratio (z) = 0.29566 0.18184
#
# Static dielectric constant tensor:
#      x y z
#    x 2.572870 0.000000 0.078930 
#    y 0.000000 2.132290 0.000000 
#    z 0.078930 0.000000 2.145100 
# 
# From -- ./inp_files/40327.got.cif
#   From: 2010.05.17/outbox.cif.g08.bks.cpg/sg15_21_cif.got.tgz:40327.got - 2010.06.03 18:47:42.
