data_PCOD9260714
_publ_section_title
;
Structure prediction by ZEFSAII (Michael W. Deem and Ramdas Pophale) SiO2 
 PCOD9260714
Probable space group: C 2/C
;
_chemical_formula_sum "Si O2"
_cell_formula_units_Z 56
_cell_length_a 8.013499
_cell_length_b 24.755528
_cell_length_c 16.192834
_cell_angle_alpha 90.000000
_cell_angle_beta 123.975046
_cell_angle_gamma 90.000000
_cell_volume 2663.906515
_symmetry_space_group_name_H-M "C 2/C"
_symmetry_group_IT_number 15
_symmetry_cell_setting 'monoclinic'
loop_
_space_group_symop_operation_xyz
x,y,z
-x,y,1/2-z
-x,-y,-z
x,-y,1/2+z
1/2+x,1/2+y,z
1/2-x,1/2+y,1/2-z
1/2-x,1/2-y,-z
1/2+x,1/2-y,1/2+z
loop_
_atom_site_type_symbol
_atom_site_label
_atom_site_fract_x
_atom_site_fract_y
_atom_site_fract_z
Si Si1 0.011341 0.764633 0.153041
Si Si2 0.647959 0.164115 0.477133
Si Si3 0.731686 0.549930 0.554593
Si Si4 0.760469 0.363178 0.192701
Si Si5 0.692616 0.530701 0.360459
Si Si6 0.904715 0.560510 0.132880
Si Si7 0.167220 0.415302 0.126019
O O1 0.002319 0.706197 0.107688
O O2 0.000000 0.760717 0.250000
O O3 0.196118 0.801286 0.175309
O O4 0.828435 0.799786 0.063637
O O5 0.689302 0.117466 0.421156
O O6 0.589040 0.129217 0.540831
O O7 0.663977 0.595922 0.599427
O O8 0.660485 0.556181 0.441264
O O9 0.736286 0.487100 0.583005
O O10 0.972754 0.559323 0.615280
O O11 0.707544 0.387201 0.267484
O O12 0.000000 0.364287 0.250000
O O13 0.500000 0.539974 0.250000
O O14 0.720091 0.466120 0.382323
O O15 0.901777 0.549851 0.374970
O O16 0.000000 0.561844 0.250000
#
# Coordination Sequence:
#
# PCOD9260714 Si02
#       7
#     8   8   8   8   8   8   8
#     4  11  24  41  63  91 117 158 215 255 296 357
#     4  11  22  39  66  86 118 163 204 253 301 350
#     4  10  19  38  60  89 123 155 196 239 306 366
#     4  10  22  39  65  91 122 157 203 255 296 362
#     4  11  22  34  60  93 124 160 196 246 301 371
#     4  11  21  40  60  88 126 162 197 247 310 365
#     4  10  18  38  62  86 115 160 197 241 302 358
#
# _framework density 21.021758999999999
#
# number of rings (size 3 to 8) (size 9 to 14) (size 15 to 20)
#    0.000    1.429    4.286    3.429    2.000    1.143 
#    0.000    5.714    0.000    0.000    0.000    0.000 
#    0.000    0.000    0.000    0.000    0.000    0.000 
#
# Total GULP energy -156197.250095 kJ/mol
# GULP energy per Si atom -5578.473218 kJ/mol
# Density = 2.097391 g / cm^3
# Si number density = 21.021759 Si / 1000 Ang^3
#
#
#
# Elastic Constant Matrix: (Units=GPa)
#
#
# Indices 1 2 3 4 5 6 
#
# 1 51.6711 22.2868 27.3024 0.0000 -4.5001 0.0000
# 2 22.2868 131.2165 68.5692 0.0000 -16.7490 0.0000
# 3 27.3024 68.5692 161.4968 0.0000 -22.1050 0.0000
# 4 0.0000 0.0000 0.0000 44.7314 0.0000 1.9067
# 5 -4.5001 -16.7490 -22.1050 0.0000 31.8272 0.0000
# 6 0.0000 0.0000 0.0000 1.9067 0.0000 8.7853
#
#
#
# Elastic Compliance Matrix: (Units=1/GPa)
#
#
# Indices 1 2 3 4 5 6 
#
# 1 0.021770 -0.002281 -0.002713 0.000000 -0.000006 0.000000
# 2 -0.002281 0.010217 -0.003603 0.000000 0.002552 0.000000
# 3 -0.002713 -0.003603 0.008695 0.000000 0.003759 0.000000
# 4 0.000000 0.000000 0.000000 0.022564 0.000000 -0.004897
# 5 -0.000006 0.002552 0.003759 0.000000 0.035373 0.000000
# 6 0.000000 0.000000 0.000000 -0.004897 0.000000 0.114890
#
#
# Mechanical properties :
#
#
# Convention : Reuss Voigt Hill
#
# Bulk Modulus (GPa) = 42.57416 64.52236 53.54826
# Shear Modulus (GPa) = 20.96159 32.15050 26.55605
#
# Velocity S-wave (km/s) = 3.16117 3.91499 3.55810
# Velocity P-wave (km/s) = 5.79831 7.15513 6.51216
#
# Compressibility (1/GPa) = 0.02348843
#
# Stress axis : x y z
#
# Youngs Moduli (GPa) = 45.93522 97.87663 115.00723
#
# Poissons Ratio (x) = 0.22323 0.31200
# Poissons Ratio (y) = 0.10476 0.41439
# Poissons Ratio (z) = 0.12462 0.35266
#
# Static dielectric constant tensor:
#      x y z
#    x 1.796660 0.000000 0.015310 
#    y 0.000000 1.782650 0.000000 
#    z 0.015310 0.000000 1.789400 
# 
# From -- ./inp_files/137945.got.cif
#   From: 2010.05.17/outbox.cif.g08.bks.cpg/sg15_69_cif.got.tgz:137945.got - 2010.06.03 18:47:42.
