data_PCOD9260122
_publ_section_title
;
Structure prediction by ZEFSAII (Michael W. Deem and Ramdas Pophale) SiO2 
 PCOD9260122
Probable space group: C 2/C
;
_chemical_formula_sum "Si O2"
_cell_formula_units_Z 44
_cell_length_a 8.724213
_cell_length_b 10.022653
_cell_length_c 20.079481
_cell_angle_alpha 90.000000
_cell_angle_beta 91.833647
_cell_angle_gamma 90.000000
_cell_volume 1754.845948
_symmetry_space_group_name_H-M "C 2/C"
_symmetry_group_IT_number 15
_symmetry_cell_setting 'monoclinic'
loop_
_space_group_symop_operation_xyz
x,y,z
-x,y,1/2-z
-x,-y,-z
x,-y,1/2+z
1/2+x,1/2+y,z
1/2-x,1/2+y,1/2-z
1/2-x,1/2-y,-z
1/2+x,1/2-y,1/2+z
loop_
_atom_site_type_symbol
_atom_site_label
_atom_site_fract_x
_atom_site_fract_y
_atom_site_fract_z
Si Si1 0.013338 0.335984 0.882658
Si Si2 0.000000 0.173247 0.750000
Si Si3 0.664177 0.146150 0.758840
Si Si4 0.597134 0.419604 0.054639
Si Si5 0.128586 0.841204 0.636673
Si Si6 0.078877 0.379166 0.407480
O O1 0.196955 0.339739 0.883805
O O2 0.974323 0.489363 0.896573
O O3 0.968742 0.272898 0.811326
O O4 0.958080 0.229607 0.934979
O O5 0.834531 0.099064 0.738842
O O6 0.500000 0.067524 0.750000
O O7 0.633511 0.274216 0.710137
O O8 0.663948 0.158835 0.838477
O O9 0.573450 0.508705 0.122173
O O10 0.779272 0.410120 0.042615
O O11 0.500000 0.500000 0.000000
O O12 0.031189 0.745621 0.587360
#
# Coordination Sequence:
#
# PCOD9260122 Si02
#       6
#     8   4   8   8   8   8
#     4  10  22  39  62  96 123 170 216 265 332 398
#     4  10  18  36  62  92 130 170 210 260 346 390
#     4   9  18  37  61  94 136 165 210 275 328 405
#     4  11  24  44  64  91 133 175 222 268 319 398
#     4   9  22  40  60  95 129 164 218 271 326 391
#     4  10  21  41  64  93 132 167 213 273 333 389
#
# _framework density 25.073426000000001
#
# number of rings (size 3 to 8) (size 9 to 14) (size 15 to 20)
#    0.000    2.182    1.818    0.000    3.818    5.091 
#    4.909    1.818    0.000    0.000    0.000    0.000 
#    0.000    0.000    0.000    0.000    0.000    0.000 
#
# Total GULP energy -122667.158734 kJ/mol
# GULP energy per Si atom -5575.779942 kJ/mol
# Density = 2.501636 g / cm^3
# Si number density = 25.073426 Si / 1000 Ang^3
#
#
#
# Elastic Constant Matrix: (Units=GPa)
#
#
# Indices 1 2 3 4 5 6 
#
# 1 109.0239 13.3101 8.8754 0.0000 15.8285 0.0000
# 2 13.3101 151.3360 25.3936 0.0000 -11.9105 0.0000
# 3 8.8754 25.3936 84.1098 0.0000 6.7096 0.0000
# 4 0.0000 0.0000 0.0000 3.8000 0.0000 -11.5341
# 5 15.8285 -11.9105 6.7096 0.0000 17.4447 0.0000
# 6 0.0000 0.0000 0.0000 -11.5341 0.0000 31.7050
#
#
#
# Elastic Compliance Matrix: (Units=1/GPa)
#
#
# Indices 1 2 3 4 5 6 
#
# 1 0.011046 -0.001930 0.000332 0.000000 -0.011467 0.000000
# 2 -0.001930 0.007902 -0.002839 0.000000 0.008238 0.000000
# 3 0.000332 -0.002839 0.013298 0.000000 -0.007354 0.000000
# 4 0.000000 0.000000 0.000000 -2.525019 0.000000 -0.918586
# 5 -0.011467 0.008238 -0.007354 0.000000 0.076182 0.000000
# 6 0.000000 0.000000 0.000000 -0.918586 0.000000 -0.302635
#
#
# Mechanical properties :
#
#
# Convention : Reuss Voigt Hill
#
# Bulk Modulus (GPa) = 42.78671 48.84754 45.81712
# Shear Modulus (GPa) = -1.85010 30.38265 14.26628
#
# Velocity S-wave (km/s) = -0.85993 3.48479 2.38792
# Velocity P-wave (km/s) = 4.01443 5.97627 5.09075
#
# Compressibility (1/GPa) = 0.02337175
#
# Stress axis : x y z
#
# Youngs Moduli (GPa) = 90.53247 126.54480 75.19870
#
# Poissons Ratio (x) = 0.24419 -0.02495
# Poissons Ratio (y) = 0.17470 0.21352
# Poissons Ratio (z) = -0.03004 0.35931
#
# Static dielectric constant tensor:
#      x y z
#    x 1.999730 0.000000 0.050160 
#    y 0.000000 1.969600 0.000000 
#    z 0.050160 0.000000 2.098970 
# 
# From -- ./inp_files/262810.got.cif
#   From: 2010.05.17/outbox.cif.g08.bks.cpg/sg15_132_cif.got.tgz:262810.got - 2010.06.03 18:47:42.
