data_PCOD9260287
_publ_section_title
;
Structure prediction by ZEFSAII (Michael W. Deem and Ramdas Pophale) SiO2 
 PCOD9260287
Probable space group: C 2/C
;
_chemical_formula_sum "Si O2"
_cell_formula_units_Z 60
_cell_length_a 14.650812
_cell_length_b 19.306154
_cell_length_c 11.344949
_cell_angle_alpha 90.000000
_cell_angle_beta 119.286856
_cell_angle_gamma 90.000000
_cell_volume 2798.767927
_symmetry_space_group_name_H-M "C 2/C"
_symmetry_group_IT_number 15
_symmetry_cell_setting 'monoclinic'
loop_
_space_group_symop_operation_xyz
x,y,z
-x,y,1/2-z
-x,-y,-z
x,-y,1/2+z
1/2+x,1/2+y,z
1/2-x,1/2+y,1/2-z
1/2-x,1/2-y,-z
1/2+x,1/2-y,1/2+z
loop_
_atom_site_type_symbol
_atom_site_label
_atom_site_fract_x
_atom_site_fract_y
_atom_site_fract_z
Si Si1 0.778441 0.277124 0.389237
Si Si2 0.749352 0.446828 0.150480
Si Si3 0.414509 0.665617 0.874067
Si Si4 0.088827 0.034477 0.140913
Si Si5 0.410606 0.911853 0.461846
Si Si6 0.421567 0.054353 0.592880
Si Si7 0.946351 0.802675 0.841751
Si Si8 0.000000 0.069013 0.750000
O O1 0.750000 0.250000 0.500000
O O2 0.666869 0.298783 0.264047
O O3 0.854773 0.342128 0.462507
O O4 0.841374 0.233126 0.328084
O O5 0.658116 0.391200 0.108366
O O6 0.695130 0.520919 0.136068
O O7 0.834276 0.439026 0.308331
O O8 0.806169 0.430754 0.064638
O O9 0.505103 0.623389 0.860901
O O10 0.467794 0.713140 0.003621
O O11 0.069628 0.113493 0.163903
O O12 0.087578 0.984892 0.257621
O O13 0.000000 0.000000 0.000000
O O14 0.526986 0.904680 0.482016
O O15 0.420195 0.973058 0.561390
O O16 0.500000 0.067872 0.750000
O O17 0.000000 0.783695 0.750000
#
# Coordination Sequence:
#
# PCOD9260287 Si02
#       8
#     8   8   8   8   8   8   8   4
#     4  11  26  44  66  93 128 185 227 263 327 413
#     4   9  19  32  63  89 121 162 196 262 323 384
#     4  10  22  43  63  94 127 172 214 267 339 390
#     4  11  21  35  61 101 132 166 208 271 335 393
#     4   9  20  39  58  88 124 163 213 257 326 377
#     4   9  18  36  61  90 121 157 208 268 316 373
#     4  12  26  43  64  97 134 176 224 273 330 402
#     4  10  18  36  68  92 132 166 204 274 342 382
#
# _framework density 21.438003999999999
#
# number of rings (size 3 to 8) (size 9 to 14) (size 15 to 20)
#    0.000    1.867    3.333    0.800    1.867    6.400 
#    2.400    1.333    0.000    0.000    0.000    0.000 
#    0.000    0.000    0.000    0.000    0.000    0.000 
#
# Total GULP energy -167047.112687 kJ/mol
# GULP energy per Si atom -5568.237090 kJ/mol
# Density = 2.138921 g / cm^3
# Si number density = 21.438004 Si / 1000 Ang^3
#
#
#
# Elastic Constant Matrix: (Units=GPa)
#
#
# Indices 1 2 3 4 5 6 
#
# 1 119.4841 27.1487 30.6596 0.0000 -15.4629 0.0000
# 2 27.1487 52.3431 17.3266 0.0000 -8.4139 0.0000
# 3 30.6596 17.3266 42.1629 0.0000 -12.8354 0.0000
# 4 0.0000 0.0000 0.0000 17.4915 0.0000 -0.2362
# 5 -15.4629 -8.4139 -12.8354 0.0000 24.2706 0.0000
# 6 0.0000 0.0000 0.0000 -0.2362 0.0000 17.9897
#
#
#
# Elastic Compliance Matrix: (Units=1/GPa)
#
#
# Indices 1 2 3 4 5 6 
#
# 1 0.010964 -0.003334 -0.005754 0.000000 0.002786 0.000000
# 2 -0.003334 0.023366 -0.006387 0.000000 0.002599 0.000000
# 3 -0.005754 -0.006387 0.034250 0.000000 0.012233 0.000000
# 4 0.000000 0.000000 0.000000 0.057181 0.000000 0.000751
# 5 0.002786 0.002599 0.012233 0.000000 0.050347 0.000000
# 6 0.000000 0.000000 0.000000 0.000751 0.000000 0.055597
#
#
# Mechanical properties :
#
#
# Convention : Reuss Voigt Hill
#
# Bulk Modulus (GPa) = 26.57432 40.47334 33.52383
# Shear Modulus (GPa) = 18.16870 21.20740 19.68805
#
# Velocity S-wave (km/s) = 2.91434 3.14864 3.03375
# Velocity P-wave (km/s) = 4.87312 5.66911 5.28612
#
# Compressibility (1/GPa) = 0.03763031
#
# Stress axis : x y z
#
# Youngs Moduli (GPa) = 91.20756 42.79772 29.19670
#
# Poissons Ratio (x) = 0.14269 0.16801
# Poissons Ratio (y) = 0.30408 0.18647
# Poissons Ratio (z) = 0.52485 0.27333
#
# Static dielectric constant tensor:
#      x y z
#    x 1.872840 0.000000 -0.017360 
#    y 0.000000 1.800170 0.000000 
#    z -0.017360 0.000000 1.838590 
# 
# From -- ./inp_files/98813.got.cif
#   From: 2010.05.17/outbox.cif.g08.bks.cpg/sg15_50_cif.got.tgz:98813.got - 2010.06.03 18:47:42.
