data_PCOD9260772
_publ_section_title
;
Structure prediction by ZEFSAII (Michael W. Deem and Ramdas Pophale) SiO2 
 PCOD9260772
Probable space group: C 2/C
;
_chemical_formula_sum "Si O2"
_cell_formula_units_Z 52
_cell_length_a 20.370501
_cell_length_b 9.640133
_cell_length_c 10.842032
_cell_angle_alpha 90.000000
_cell_angle_beta 100.477269
_cell_angle_gamma 90.000000
_cell_volume 2093.598708
_symmetry_space_group_name_H-M "C 2/C"
_symmetry_group_IT_number 15
_symmetry_cell_setting 'monoclinic'
loop_
_space_group_symop_operation_xyz
x,y,z
-x,y,1/2-z
-x,-y,-z
x,-y,1/2+z
1/2+x,1/2+y,z
1/2-x,1/2+y,1/2-z
1/2-x,1/2-y,-z
1/2+x,1/2-y,1/2+z
loop_
_atom_site_type_symbol
_atom_site_label
_atom_site_fract_x
_atom_site_fract_y
_atom_site_fract_z
Si Si1 0.957399 0.809453 0.081076
Si Si2 0.149200 0.461370 0.593975
Si Si3 0.500000 0.427896 0.750000
Si Si4 0.892084 0.159589 0.934503
Si Si5 0.926428 0.522559 0.188287
Si Si6 0.216934 0.869174 0.906985
Si Si7 0.875154 0.136495 0.328249
O O1 0.970764 0.961964 0.140819
O O2 0.939449 0.688966 0.171409
O O3 0.029647 0.793081 0.036483
O O4 0.894634 0.807853 0.967906
O O5 0.145061 0.297348 0.620935
O O6 0.104640 0.479951 0.454906
O O7 0.120278 0.520629 0.711967
O O8 0.226800 0.487533 0.588481
O O9 0.559405 0.330635 0.727746
O O10 0.881276 0.031281 0.839203
O O11 0.851340 0.106704 0.040848
O O12 0.000000 0.470965 0.250000
O O13 0.192088 0.825684 0.762985
O O14 0.250000 0.750000 0.000000
#
# Coordination Sequence:
#
# PCOD9260772 Si02
#       7
#     8   8   4   8   8   8   8
#     4  11  21  38  69 103 132 172 227 286 355 407
#     4  11  26  45  70  98 137 190 232 287 347 415
#     4  10  18  38  64 102 140 162 228 288 352 406
#     4  10  21  42  66  96 136 173 225 290 341 409
#     4  12  24  46  70 100 139 179 236 296 346 414
#     4  10  24  44  61  94 141 180 232 279 337 418
#     4  11  21  37  68  97 131 179 220 280 352 410
#
# _framework density 24.837617000000002
#
# number of rings (size 3 to 8) (size 9 to 14) (size 15 to 20)
#    0.000    1.231    2.308    5.077    2.154    2.462 
#    2.769    0.769    0.000    0.000    0.000    0.000 
#    0.000    0.000    0.000    0.000    0.000    0.000 
#
# Total GULP energy -145002.449615 kJ/mol
# GULP energy per Si atom -5577.017293 kJ/mol
# Density = 2.478109 g / cm^3
# Si number density = 24.837617 Si / 1000 Ang^3
#
#
#
# Elastic Constant Matrix: (Units=GPa)
#
#
# Indices 1 2 3 4 5 6 
#
# 1 112.3944 16.4629 65.2893 0.0000 -0.7809 0.0000
# 2 16.4629 54.2048 11.6112 0.0000 1.6076 0.0000
# 3 65.2893 11.6112 176.3766 0.0000 27.4436 0.0000
# 4 0.0000 0.0000 0.0000 26.3344 0.0000 2.8161
# 5 -0.7809 1.6076 27.4436 0.0000 53.4567 0.0000
# 6 0.0000 0.0000 0.0000 2.8161 0.0000 16.3966
#
#
#
# Elastic Compliance Matrix: (Units=1/GPa)
#
#
# Indices 1 2 3 4 5 6 
#
# 1 0.012042 -0.002731 -0.004693 0.000000 0.002667 0.000000
# 2 -0.002731 0.019332 -0.000179 0.000000 -0.000529 0.000000
# 3 -0.004693 -0.000179 0.008073 0.000000 -0.004208 0.000000
# 4 0.000000 0.000000 0.000000 0.038684 0.000000 -0.006644
# 5 0.002667 -0.000529 -0.004208 0.000000 0.020922 0.000000
# 6 0.000000 0.000000 0.000000 -0.006644 0.000000 0.062129
#
#
# Mechanical properties :
#
#
# Convention : Reuss Voigt Hill
#
# Bulk Modulus (GPa) = 41.25269 58.85585 50.05427
# Shear Modulus (GPa) = 27.10488 35.87837 31.49163
#
# Velocity S-wave (km/s) = 3.30704 3.80480 3.56462
# Velocity P-wave (km/s) = 5.58812 6.56123 6.09413
#
# Compressibility (1/GPa) = 0.02424084
#
# Stress axis : x y z
#
# Youngs Moduli (GPa) = 83.04413 51.72726 123.86479
#
# Poissons Ratio (x) = 0.14128 0.58126
# Poissons Ratio (y) = 0.22681 0.02221
# Poissons Ratio (z) = 0.38970 0.00928
#
# Static dielectric constant tensor:
#      x y z
#    x 2.042490 0.000000 -0.019740 
#    y 0.000000 2.021410 0.000000 
#    z -0.019740 0.000000 1.536770 
# 
# From -- ./inp_files/111178.got.cif
#   From: 2010.05.17/outbox.cif.g08.bks.cpg/sg15_56_cif.got.tgz:111178.got - 2010.06.03 18:47:42.
