data_PCOD9260088
_publ_section_title
;
Structure prediction by ZEFSAII (Michael W. Deem and Ramdas Pophale) SiO2 
 PCOD9260088
Probable space group: C 2/C
;
_chemical_formula_sum "Si O2"
_cell_formula_units_Z 60
_cell_length_a 13.610071
_cell_length_b 10.866868
_cell_length_c 22.390325
_cell_angle_alpha 90.000000
_cell_angle_beta 121.094622
_cell_angle_gamma 90.000000
_cell_volume 2835.691739
_symmetry_space_group_name_H-M "C 2/C"
_symmetry_group_IT_number 15
_symmetry_cell_setting 'monoclinic'
loop_
_space_group_symop_operation_xyz
x,y,z
-x,y,1/2-z
-x,-y,-z
x,-y,1/2+z
1/2+x,1/2+y,z
1/2-x,1/2+y,1/2-z
1/2-x,1/2-y,-z
1/2+x,1/2-y,1/2+z
loop_
_atom_site_type_symbol
_atom_site_label
_atom_site_fract_x
_atom_site_fract_y
_atom_site_fract_z
Si Si1 0.496762 0.226278 0.007189
Si Si2 0.256661 0.961601 0.717309
Si Si3 0.187113 0.280341 0.259828
Si Si4 0.405593 0.876164 0.601691
Si Si5 0.339936 0.441268 0.940219
Si Si6 0.754095 0.211123 0.917818
Si Si7 0.522628 0.161322 0.885757
Si Si8 0.000000 0.376395 0.750000
O O1 0.442015 0.167325 0.048271
O O2 0.633744 0.205637 0.052528
O O3 0.452640 0.367964 0.994576
O O4 0.462990 0.174036 0.931594
O O5 0.241247 0.847635 0.756215
O O6 0.169503 0.946720 0.634743
O O7 0.384249 0.951578 0.728668
O O8 0.248273 0.096412 0.743231
O O9 0.198165 0.293260 0.334261
O O10 0.061403 0.288794 0.191509
O O11 0.270208 0.864904 0.570559
O O12 0.468593 0.810739 0.677671
O O13 0.444044 0.019939 0.617025
O O14 0.308798 0.578499 0.951086
O O15 0.644046 0.234566 0.924611
#
# Coordination Sequence:
#
# PCOD9260088 Si02
#       8
#     8   8   8   8   8   8   8   4
#     4  12  21  38  58  88 125 152 193 259 311 351
#     4  10  20  36  64  90 116 158 203 255 299 359
#     4  11  21  39  65  90 121 159 213 254 303 354
#     4  10  21  35  60  89 111 155 201 246 300 358
#     4   9  20  37  57  84 116 158 200 238 297 371
#     4  10  23  36  60  87 117 164 210 241 295 371
#     4  11  22  38  60  86 121 156 205 252 301 358
#     4  10  18  36  62  86 118 150 208 244 286 370
#
# _framework density 21.158859
#
# number of rings (size 3 to 8) (size 9 to 14) (size 15 to 20)
#    0.000    1.600    2.667    3.600    0.000    0.000 
#    0.000    0.000    2.933    1.600    0.000    0.000 
#    0.000    0.000    0.000    0.000    0.000    0.000 
#
# Total GULP energy -167301.120565 kJ/mol
# GULP energy per Si atom -5576.704019 kJ/mol
# Density = 2.111070 g / cm^3
# Si number density = 21.158859 Si / 1000 Ang^3
#
#
#
# Elastic Constant Matrix: (Units=GPa)
#
#
# Indices 1 2 3 4 5 6 
#
# 1 71.8699 11.1209 34.5839 0.0000 -10.4083 0.0000
# 2 11.1209 62.2556 -5.9885 0.0000 -10.6689 0.0000
# 3 34.5839 -5.9885 77.5183 0.0000 2.3725 0.0000
# 4 0.0000 0.0000 0.0000 23.8079 0.0000 -1.9623
# 5 -10.4083 -10.6689 2.3725 0.0000 28.1150 0.0000
# 6 0.0000 0.0000 0.0000 -1.9623 0.0000 19.4165
#
#
#
# Elastic Compliance Matrix: (Units=1/GPa)
#
#
# Indices 1 2 3 4 5 6 
#
# 1 0.019924 -0.003272 -0.009354 0.000000 0.006923 0.000000
# 2 -0.003272 0.017817 0.002673 0.000000 0.005324 0.000000
# 3 -0.009354 0.002673 0.017400 0.000000 -0.003917 0.000000
# 4 0.000000 0.000000 0.000000 0.042356 0.000000 0.004281
# 5 0.006923 0.005324 -0.003917 0.000000 0.040482 0.000000
# 6 0.000000 0.000000 0.000000 0.004281 0.000000 0.051935
#
#
# Mechanical properties :
#
#
# Convention : Reuss Voigt Hill
#
# Bulk Modulus (GPa) = 28.38055 32.34184 30.36120
# Shear Modulus (GPa) = 22.56688 25.72971 24.14830
#
# Velocity S-wave (km/s) = 3.26934 3.49094 3.38196
# Velocity P-wave (km/s) = 5.26248 5.61848 5.44339
#
# Compressibility (1/GPa) = 0.03523540
#
# Stress axis : x y z
#
# Youngs Moduli (GPa) = 50.19066 56.12649 57.47266
#
# Poissons Ratio (x) = 0.18366 0.53758
# Poissons Ratio (y) = 0.16424 -0.15365
# Poissons Ratio (z) = 0.46946 -0.15005
#
# Static dielectric constant tensor:
#      x y z
#    x 1.777220 0.000000 0.021640 
#    y 0.000000 1.795840 0.000000 
#    z 0.021640 0.000000 1.814640 
# 
# From -- ./inp_files/243675.got.cif
#   From: 2010.05.17/outbox.cif.g08.bks.cpg/sg15_122_cif.got.tgz:243675.got - 2010.06.03 18:47:42.
