data_PCOD9260102
_publ_section_title
;
Structure prediction by ZEFSAII (Michael W. Deem and Ramdas Pophale) SiO2 
 PCOD9260102
Probable space group: C 2/C
;
_chemical_formula_sum "Si O2"
_cell_formula_units_Z 52
_cell_length_a 7.720308
_cell_length_b 17.226716
_cell_length_c 17.050707
_cell_angle_alpha 90.000000
_cell_angle_beta 73.659524
_cell_angle_gamma 90.000000
_cell_volume 2176.069788
_symmetry_space_group_name_H-M "C 2/C"
_symmetry_group_IT_number 15
_symmetry_cell_setting 'monoclinic'
loop_
_space_group_symop_operation_xyz
x,y,z
-x,y,1/2-z
-x,-y,-z
x,-y,1/2+z
1/2+x,1/2+y,z
1/2-x,1/2+y,1/2-z
1/2-x,1/2-y,-z
1/2+x,1/2-y,1/2+z
loop_
_atom_site_type_symbol
_atom_site_label
_atom_site_fract_x
_atom_site_fract_y
_atom_site_fract_z
Si Si1 0.000000 0.583768 0.250000
Si Si2 0.004456 0.830130 0.654784
Si Si3 0.616030 0.831164 0.349659
Si Si4 0.407244 0.185464 0.117052
Si Si5 0.645685 0.068996 0.990800
Si Si6 0.707831 0.650055 0.841487
Si Si7 0.671769 0.482370 0.885169
O O1 0.900985 0.640423 0.201102
O O2 0.866464 0.530808 0.317497
O O3 0.883471 0.761532 0.632766
O O4 0.943909 0.915064 0.639091
O O5 0.000000 0.817166 0.750000
O O6 0.211485 0.823555 0.602711
O O7 0.687141 0.892807 0.402655
O O8 0.726571 0.843556 0.256208
O O9 0.400136 0.845559 0.363686
O O10 0.556096 0.141004 0.048965
O O11 0.421881 0.277347 0.125243
O O12 0.799406 0.034491 0.026939
O O13 0.500000 0.000000 0.000000
O O14 0.618115 0.569086 0.872949
#
# Coordination Sequence:
#
# PCOD9260102 Si02
#       7
#     4   8   8   8   8   8   8
#     4  10  18  36  62  88 118 162 218 262 296 382
#     4  11  20  39  63  93 124 168 208 266 324 373
#     4  10  19  38  65  90 126 169 217 254 323 380
#     4  10  22  40  65  89 125 166 214 256 319 384
#     4  11  24  40  65  99 125 169 218 268 311 376
#     4  10  19  37  64  92 121 170 213 262 304 388
#     4  11  22  36  64  95 126 163 216 265 321 369
#
# _framework density 23.896293
#
# number of rings (size 3 to 8) (size 9 to 14) (size 15 to 20)
#    0.000    1.538    6.154    0.923    2.154    3.077 
#    1.385    0.769    6.769    0.000    0.000    0.000 
#    0.000    0.000    0.000    0.000    0.000    0.000 
#
# Total GULP energy -145573.478633 kJ/mol
# GULP energy per Si atom -5598.979947 kJ/mol
# Density = 2.384190 g / cm^3
# Si number density = 23.896293 Si / 1000 Ang^3
#
#
#
# Elastic Constant Matrix: (Units=GPa)
#
#
# Indices 1 2 3 4 5 6 
#
# 1 40.3488 27.4195 17.9202 0.0000 -1.8002 0.0000
# 2 27.4195 198.3388 46.0123 0.0000 6.1383 0.0000
# 3 17.9202 46.0123 55.3863 0.0000 12.2376 0.0000
# 4 0.0000 0.0000 0.0000 5.3863 0.0000 15.7521
# 5 -1.8002 6.1383 12.2376 0.0000 16.3799 0.0000
# 6 0.0000 0.0000 0.0000 15.7521 0.0000 26.7685
#
#
#
# Elastic Compliance Matrix: (Units=1/GPa)
#
#
# Indices 1 2 3 4 5 6 
#
# 1 0.031861 -0.002172 -0.011327 0.000000 0.012778 0.000000
# 2 -0.002172 0.006440 -0.004864 0.000000 0.000982 0.000000
# 3 -0.011327 -0.004864 0.030701 0.000000 -0.022359 0.000000
# 4 0.000000 0.000000 0.000000 -0.257528 0.000000 0.151543
# 5 0.012778 0.000982 -0.022359 0.000000 0.078792 0.000000
# 6 0.000000 0.000000 0.000000 0.151543 0.000000 -0.051819
#
#
# Mechanical properties :
#
#
# Convention : Reuss Voigt Hill
#
# Bulk Modulus (GPa) = 30.98420 52.97532 41.97976
# Shear Modulus (GPa) = -43.83401 23.22175 -10.30613
#
# Velocity S-wave (km/s) = -4.28757 3.12071 -2.07900
# Velocity P-wave (km/s) = 3.39363 5.93313 3.44132
#
# Compressibility (1/GPa) = 0.03227452
#
# Stress axis : x y z
#
# Youngs Moduli (GPa) = 31.38631 155.27273 32.57191
#
# Poissons Ratio (x) = 0.33730 0.36895
# Poissons Ratio (y) = 0.06818 0.15844
# Poissons Ratio (z) = 0.35552 0.75531
#
# Static dielectric constant tensor:
#      x y z
#    x 1.983250 0.000000 -0.012610 
#    y 0.000000 1.882410 0.000000 
#    z -0.012610 0.000000 1.929330 
# 
# From -- ./inp_files/190413.got.cif
#   From: 2010.05.17/outbox.cif.g08.bks.cpg/sg15_96_cif.got.tgz:190413.got - 2010.06.03 18:47:42.
