data_PCOD9260312
_publ_section_title
;
Structure prediction by ZEFSAII (Michael W. Deem and Ramdas Pophale) SiO2 
 PCOD9260312
Probable space group: C 2/C
;
_chemical_formula_sum "Si O2"
_cell_formula_units_Z 44
_cell_length_a 11.563505
_cell_length_b 14.297072
_cell_length_c 23.744225
_cell_angle_alpha 90.000000
_cell_angle_beta 149.316355
_cell_angle_gamma 90.000000
_cell_volume 2003.170874
_symmetry_space_group_name_H-M "C 2/C"
_symmetry_group_IT_number 15
_symmetry_cell_setting 'monoclinic'
loop_
_space_group_symop_operation_xyz
x,y,z
-x,y,1/2-z
-x,-y,-z
x,-y,1/2+z
1/2+x,1/2+y,z
1/2-x,1/2+y,1/2-z
1/2-x,1/2-y,-z
1/2+x,1/2-y,1/2+z
loop_
_atom_site_type_symbol
_atom_site_label
_atom_site_fract_x
_atom_site_fract_y
_atom_site_fract_z
Si Si1 0.324175 0.057640 0.013403
Si Si2 0.000000 0.966204 0.750000
Si Si3 0.084661 0.613338 0.013360
Si Si4 0.819229 0.089949 0.779124
Si Si5 0.522246 0.256144 0.607208
Si Si6 0.374954 0.086701 0.255733
O O1 0.407086 0.077567 0.984892
O O2 0.471338 0.102225 0.124479
O O3 0.069694 0.094032 0.910572
O O4 0.370965 0.945023 0.026618
O O5 0.823518 0.898801 0.644568
O O6 0.871901 0.031652 0.742456
O O7 0.976454 0.713034 0.954511
O O8 0.685203 0.185402 0.710809
O O9 0.680883 0.022690 0.762595
O O10 0.641664 0.355600 0.662183
O O11 0.250000 0.250000 0.500000
O O12 0.500000 0.110173 0.250000
#
# Coordination Sequence:
#
# PCOD9260312 Si02
#       6
#     8   4   8   8   8   8
#     4  10  21  43  74 102 133 188 239 293 358 415
#     4  10  18  36  80 110 130 174 244 308 362 400
#     4  10  19  39  75 106 132 176 244 304 344 409
#     4  11  23  45  74 100 143 186 240 301 357 420
#     4  12  26  45  70 106 143 190 245 298 358 428
#     4  12  28  46  69 108 156 190 230 290 374 441
#
# _framework density 21.965174000000001
#
# number of rings (size 3 to 8) (size 9 to 14) (size 15 to 20)
#    0.000    1.091    3.636    4.364    3.818    1.455 
#    0.000    0.000    0.000    0.000    0.000    0.000 
#    0.000    0.000    0.000    0.000    0.000    0.000 
#
# Total GULP energy -122506.647965 kJ/mol
# GULP energy per Si atom -5568.483998 kJ/mol
# Density = 2.191518 g / cm^3
# Si number density = 21.965174 Si / 1000 Ang^3
#
#
#
# Elastic Constant Matrix: (Units=GPa)
#
#
# Indices 1 2 3 4 5 6 
#
# 1 60.7180 10.7572 26.9057 0.0001 4.4301 0.0000
# 2 10.7572 43.8935 14.3297 0.0002 -2.1809 0.0000
# 3 26.9057 14.3297 150.0959 0.0010 7.4561 0.0001
# 4 0.0001 0.0002 0.0010 38.8456 0.0001 3.9169
# 5 4.4301 -2.1809 7.4561 0.0001 34.7811 0.0000
# 6 0.0000 0.0000 0.0001 3.9169 0.0000 10.2397
#
#
#
# Elastic Compliance Matrix: (Units=1/GPa)
#
#
# Indices 1 2 3 4 5 6 
#
# 1 0.018543 -0.003705 -0.002872 0.000000 -0.001978 0.000000
# 2 -0.003705 0.024391 -0.001783 0.000000 0.002384 0.000000
# 3 -0.002872 -0.001783 0.007414 0.000000 -0.001335 0.000000
# 4 0.000000 0.000000 0.000000 0.026776 0.000000 -0.010242
# 5 -0.001978 0.002384 -0.001335 0.000000 0.029439 0.000000
# 6 0.000000 0.000000 0.000000 -0.010242 0.000000 0.101577
#
#
# Mechanical properties :
#
#
# Convention : Reuss Voigt Hill
#
# Bulk Modulus (GPa) = 29.73726 39.85473 34.79600
# Shear Modulus (GPa) = 21.18027 30.28761 25.73394
#
# Velocity S-wave (km/s) = 3.10863 3.71737 3.42655
# Velocity P-wave (km/s) = 5.14320 6.05054 5.61523
#
# Compressibility (1/GPa) = 0.03362784
#
# Stress axis : x y z
#
# Youngs Moduli (GPa) = 53.92879 40.99883 134.88433
#
# Poissons Ratio (x) = 0.15191 0.38738
# Poissons Ratio (y) = 0.19981 0.24048
# Poissons Ratio (z) = 0.15488 0.07309
#
# Static dielectric constant tensor:
#      x y z
#    x 1.947590 0.000000 0.092430 
#    y 0.000000 2.761340 0.000000 
#    z 0.092430 0.000000 1.918540 
# 
# From -- ./inp_files/292946.got.cif
#   From: 2010.05.17/outbox.cif.g08.bks.cpg/sg15_147_cif.got.tgz:292946.got - 2010.06.03 18:47:42.
