data_PCOD9260427
_publ_section_title
;
Structure prediction by ZEFSAII (Michael W. Deem and Ramdas Pophale) SiO2 
 PCOD9260427
Probable space group: C 2/C
;
_chemical_formula_sum "Si O2"
_cell_formula_units_Z 56
_cell_length_a 17.545281
_cell_length_b 24.525743
_cell_length_c 9.480801
_cell_angle_alpha 90.000000
_cell_angle_beta 141.233342
_cell_angle_gamma 90.000000
_cell_volume 2554.500822
_symmetry_space_group_name_H-M "C 2/C"
_symmetry_group_IT_number 15
_symmetry_cell_setting 'monoclinic'
loop_
_space_group_symop_operation_xyz
x,y,z
-x,y,1/2-z
-x,-y,-z
x,-y,1/2+z
1/2+x,1/2+y,z
1/2-x,1/2+y,1/2-z
1/2-x,1/2-y,-z
1/2+x,1/2-y,1/2+z
loop_
_atom_site_type_symbol
_atom_site_label
_atom_site_fract_x
_atom_site_fract_y
_atom_site_fract_z
Si Si1 0.147224 0.009661 0.188665
Si Si2 0.097365 0.840235 0.264097
Si Si3 0.914162 0.366078 0.992728
Si Si4 0.241160 0.436917 0.918378
Si Si5 0.011102 0.729358 0.106828
Si Si6 0.298820 0.296926 0.666149
Si Si7 0.936726 0.892483 0.792302
O O1 0.180561 0.024831 0.076144
O O2 0.161819 0.067405 0.287027
O O3 0.235660 0.967497 0.397796
O O4 0.000000 0.000000 0.000000
O O5 0.207910 0.876145 0.477599
O O6 0.114764 0.777070 0.247335
O O7 0.000000 0.841638 0.250000
O O8 0.036319 0.874866 0.050507
O O9 0.877412 0.418947 0.844460
O O10 0.976087 0.319934 0.982859
O O11 0.798308 0.333225 0.890857
O O12 0.000000 0.380093 0.250000
O O13 0.000000 0.708561 0.250000
O O14 0.893189 0.766560 0.904245
O O15 0.250000 0.250000 0.500000
O O16 0.370938 0.336476 0.663692
O O17 0.000000 0.917945 0.750000
#
# Coordination Sequence:
#
# PCOD9260427 Si02
#       7
#     8   8   8   8   8   8   8
#     4  12  22  40  67  99 133 167 219 279 352 398
#     4  10  18  37  61  93 138 168 201 271 340 401
#     4  12  25  47  68  94 140 191 225 277 337 405
#     4  12  24  42  64  98 132 179 220 280 347 401
#     4  10  23  40  67 104 135 176 225 272 333 414
#     4  11  23  40  66  97 135 177 225 266 333 409
#     4  11  22  36  61 101 134 166 215 277 333 404
#
# _framework density 21.922091999999999
#
# number of rings (size 3 to 8) (size 9 to 14) (size 15 to 20)
#    0.000    0.857    5.714    3.000    4.000    2.286 
#    0.000    2.143    0.000    0.000    0.000    0.000 
#    0.000    0.000    0.000    0.000    0.000    0.000 
#
# Total GULP energy -156072.043407 kJ/mol
# GULP energy per Si atom -5574.001550 kJ/mol
# Density = 2.187220 g / cm^3
# Si number density = 21.922092 Si / 1000 Ang^3
#
#
#
# Elastic Constant Matrix: (Units=GPa)
#
#
# Indices 1 2 3 4 5 6 
#
# 1 25.9652 -5.7652 3.7994 0.0000 -7.2946 0.0000
# 2 -5.7652 65.5072 50.9844 0.0000 -4.9572 0.0000
# 3 3.7994 50.9844 105.5769 0.0000 -7.0504 0.0000
# 4 0.0000 0.0000 0.0000 28.9288 0.0000 -0.4381
# 5 -7.2946 -4.9572 -7.0504 0.0000 26.5876 0.0000
# 6 0.0000 0.0000 0.0000 -0.4381 0.0000 9.9115
#
#
#
# Elastic Compliance Matrix: (Units=1/GPa)
#
#
# Indices 1 2 3 4 5 6 
#
# 1 0.044734 0.008793 -0.005016 0.000000 0.012583 0.000000
# 2 0.008793 0.026242 -0.012726 0.000000 0.003930 0.000000
# 3 -0.005016 -0.012726 0.015828 0.000000 0.000448 0.000000
# 4 0.000000 0.000000 0.000000 0.034591 0.000000 0.001529
# 5 0.012583 0.003930 0.000448 0.000000 0.041915 0.000000
# 6 0.000000 0.000000 0.000000 0.001529 0.000000 0.100960
#
#
# Mechanical properties :
#
#
# Convention : Reuss Voigt Hill
#
# Bulk Modulus (GPa) = 14.51260 32.78740 23.65000
# Shear Modulus (GPa) = 16.38603 22.95429 19.67016
#
# Velocity S-wave (km/s) = 2.73695 3.23938 2.99871
# Velocity P-wave (km/s) = 4.07705 5.38333 4.77507
#
# Compressibility (1/GPa) = 0.06890564
#
# Stress axis : x y z
#
# Youngs Moduli (GPa) = 22.35417 38.10709 63.17925
#
# Poissons Ratio (x) = -0.33508 0.31690
# Poissons Ratio (y) = -0.19656 0.80405
# Poissons Ratio (z) = 0.11212 0.48497
#
# Static dielectric constant tensor:
#      x y z
#    x 1.873310 0.000000 -0.017240 
#    y 0.000000 1.852530 0.000000 
#    z -0.017240 0.000000 1.736380 
# 
# From -- ./inp_files/52372.got.cif
#   From: 2010.05.17/outbox.cif.g08.bks.cpg/sg15_27_cif.got.tgz:52372.got - 2010.06.03 18:47:42.
