data_PCOD9260786
_publ_section_title
;
Structure prediction by ZEFSAII (Michael W. Deem and Ramdas Pophale) SiO2 
 PCOD9260786
Probable space group: C 2/C
;
_chemical_formula_sum "Si O2"
_cell_formula_units_Z 64
_cell_length_a 8.491956
_cell_length_b 29.580577
_cell_length_c 17.364392
_cell_angle_alpha 90.000000
_cell_angle_beta 134.277170
_cell_angle_gamma 90.000000
_cell_volume 3122.981196
_symmetry_space_group_name_H-M "C 2/C"
_symmetry_group_IT_number 15
_symmetry_cell_setting 'monoclinic'
loop_
_space_group_symop_operation_xyz
x,y,z
-x,y,1/2-z
-x,-y,-z
x,-y,1/2+z
1/2+x,1/2+y,z
1/2-x,1/2+y,1/2-z
1/2-x,1/2-y,-z
1/2+x,1/2-y,1/2+z
loop_
_atom_site_type_symbol
_atom_site_label
_atom_site_fract_x
_atom_site_fract_y
_atom_site_fract_z
Si Si1 0.814571 0.138969 0.137417
Si Si2 0.923892 0.412715 0.580367
Si Si3 0.644077 0.138703 0.723729
Si Si4 0.398505 0.055169 0.904103
Si Si5 0.519689 0.630510 0.541146
Si Si6 0.695441 0.199092 0.959314
Si Si7 0.329857 0.991598 0.749127
Si Si8 0.100836 0.941559 0.945209
O O1 0.632494 0.116158 0.126987
O O2 0.928510 0.098417 0.127885
O O3 0.000000 0.162982 0.250000
O O4 0.698614 0.171979 0.039594
O O5 0.837079 0.436482 0.471699
O O6 0.737998 0.379432 0.548575
O O7 0.017933 0.449871 0.670565
O O8 0.500000 0.125964 0.750000
O O9 0.614674 0.102816 0.645643
O O10 0.536099 0.186186 0.660317
O O11 0.888574 0.136775 0.841272
O O12 0.274531 0.019948 0.807045
O O13 0.655919 0.040099 0.989517
O O14 0.617555 0.673357 0.528020
O O15 0.607244 0.584922 0.528532
O O16 0.750000 0.250000 0.000000
O O17 0.500000 0.017056 0.750000
O O18 0.103811 0.975243 0.632621
#
# Coordination Sequence:
#
# PCOD9260786 Si02
#       8
#     8   8   8   8   8   8   8   8
#     4  10  19  37  65  83 120 162 198 256 322 382
#     4  11  22  40  58  93 124 163 214 263 333 373
#     4  10  18  38  64  86 121 166 209 250 318 388
#     4  11  23  39  59  87 126 168 217 272 318 383
#     4  10  21  38  64  90 124 166 205 265 317 385
#     4  10  21  40  67  96 120 157 213 255 307 400
#     4  12  24  35  62  89 126 169 225 275 320 384
#     4  10  20  39  58  83 118 169 215 262 316 382
#
# _framework density 20.493238000000002
#
# number of rings (size 3 to 8) (size 9 to 14) (size 15 to 20)
#    0.000    1.500    7.500    0.750    0.000    3.500 
#    0.000    3.125    0.000    1.500    0.000    0.000 
#    0.000    0.000    0.000    0.000    0.000    0.000 
#
# Total GULP energy -178572.755455 kJ/mol
# GULP energy per Si atom -5580.398608 kJ/mol
# Density = 2.044659 g / cm^3
# Si number density = 20.493238 Si / 1000 Ang^3
#
#
#
# Elastic Constant Matrix: (Units=GPa)
#
#
# Indices 1 2 3 4 5 6 
#
# 1 31.9966 6.0442 2.2600 0.0000 -2.2579 0.0000
# 2 6.0442 89.4169 35.6919 0.0000 4.3203 0.0000
# 3 2.2600 35.6919 93.9085 0.0000 -2.1007 0.0000
# 4 0.0000 0.0000 0.0000 23.9842 0.0000 -2.7925
# 5 -2.2579 4.3203 -2.1007 0.0000 24.5861 0.0000
# 6 0.0000 0.0000 0.0000 -2.7925 0.0000 11.6860
#
#
#
# Elastic Compliance Matrix: (Units=1/GPa)
#
#
# Indices 1 2 3 4 5 6 
#
# 1 0.031931 -0.002411 0.000223 0.000000 0.003375 0.000000
# 2 -0.002411 0.013554 -0.005162 0.000000 -0.003044 0.000000
# 3 0.000223 -0.005162 0.012650 0.000000 0.002008 0.000000
# 4 0.000000 0.000000 0.000000 0.042887 0.000000 0.010248
# 5 0.003375 -0.003044 0.002008 0.000000 0.041690 0.000000
# 6 0.000000 0.000000 0.000000 0.010248 0.000000 0.088022
#
#
# Mechanical properties :
#
#
# Convention : Reuss Voigt Hill
#
# Bulk Modulus (GPa) = 23.02176 33.70159 28.36168
# Shear Modulus (GPa) = 19.23740 23.47299 21.35520
#
# Velocity S-wave (km/s) = 3.06718 3.38805 3.23160
# Velocity P-wave (km/s) = 4.87869 5.63792 5.27199
#
# Compressibility (1/GPa) = 0.04343716
#
# Stress axis : x y z
#
# Youngs Moduli (GPa) = 31.31745 73.77966 79.05169
#
# Poissons Ratio (x) = 0.17785 -0.01765
# Poissons Ratio (y) = 0.07549 0.40803
# Poissons Ratio (z) = -0.00699 0.38081
#
# Static dielectric constant tensor:
#      x y z
#    x 1.774890 0.000000 -0.004450 
#    y 0.000000 1.720350 0.000000 
#    z -0.004450 0.000000 1.781000 
# 
# From -- ./inp_files/194274.got.cif
#   From: 2010.05.17/outbox.cif.g08.bks.cpg/sg15_98_cif.got.tgz:194274.got - 2010.06.03 18:47:42.
