data_PCOD9260539
_publ_section_title
;
Structure prediction by ZEFSAII (Michael W. Deem and Ramdas Pophale) SiO2 
 PCOD9260539
Probable space group: C 2/C
;
_chemical_formula_sum "Si O2"
_cell_formula_units_Z 64
_cell_length_a 8.104393
_cell_length_b 15.108961
_cell_length_c 23.879996
_cell_angle_alpha 90.000000
_cell_angle_beta 76.414939
_cell_angle_gamma 90.000000
_cell_volume 2842.271505
_symmetry_space_group_name_H-M "C 2/C"
_symmetry_group_IT_number 15
_symmetry_cell_setting 'monoclinic'
loop_
_space_group_symop_operation_xyz
x,y,z
-x,y,1/2-z
-x,-y,-z
x,-y,1/2+z
1/2+x,1/2+y,z
1/2-x,1/2+y,1/2-z
1/2-x,1/2-y,-z
1/2+x,1/2-y,1/2+z
loop_
_atom_site_type_symbol
_atom_site_label
_atom_site_fract_x
_atom_site_fract_y
_atom_site_fract_z
Si Si1 0.401158 0.565372 0.548658
Si Si2 0.255555 0.034430 0.214283
Si Si3 0.132416 0.723255 0.333031
Si Si4 0.567901 0.458640 0.843403
Si Si5 0.007571 0.769853 0.627862
Si Si6 0.919720 0.253312 0.950173
Si Si7 0.676678 0.165834 0.768987
Si Si8 0.379237 0.167595 0.981141
O O1 0.500000 0.500000 0.500000
O O2 0.393750 0.532089 0.613278
O O3 0.494536 0.659308 0.542897
O O4 0.219778 0.584368 0.534593
O O5 0.360531 0.122244 0.189669
O O6 0.208558 0.047151 0.283721
O O7 0.097964 0.034282 0.183112
O O8 0.311379 0.932382 0.207419
O O9 0.301723 0.734030 0.360097
O O10 0.172055 0.797042 0.282265
O O11 0.500232 0.795875 0.423190
O O12 0.533954 0.370591 0.882350
O O13 0.040821 0.262102 0.618827
O O14 0.864879 0.739736 0.682284
O O15 0.022413 0.336564 0.968781
O O16 0.750000 0.250000 0.000000
O O17 0.500000 0.164510 0.750000
O O18 0.250000 0.250000 0.000000
#
# Coordination Sequence:
#
# PCOD9260539 Si02
#       8
#     8   8   8   8   8   8   8   8
#     4  11  23  40  68 100 127 178 230 281 332 414
#     4  10  21  36  62  97 130 174 209 281 345 408
#     4  10  19  40  66  90 132 173 217 278 339 400
#     4  10  20  37  63  96 132 163 224 269 342 419
#     4  10  18  37  66  90 121 168 218 273 325 407
#     4  11  24  43  65  95 138 179 221 279 345 409
#     4  10  21  37  64  97 125 168 226 271 340 407
#     4  10  20  39  65  95 122 174 224 269 328 397
#
# _framework density 22.517201
#
# number of rings (size 3 to 8) (size 9 to 14) (size 15 to 20)
#    0.000    1.750    3.750    2.250    3.500    1.000 
#    2.250    1.875    5.500    0.000    0.000    0.000 
#    0.000    0.000    0.000    0.000    0.000    0.000 
#
# Total GULP energy -178430.630061 kJ/mol
# GULP energy per Si atom -5575.957189 kJ/mol
# Density = 2.246595 g / cm^3
# Si number density = 22.517201 Si / 1000 Ang^3
#
#
#
# Elastic Constant Matrix: (Units=GPa)
#
#
# Indices 1 2 3 4 5 6 
#
# 1 44.4590 23.7591 34.2904 0.0000 -19.6469 0.0000
# 2 23.7591 108.1852 30.8510 0.0000 -2.3389 0.0000
# 3 34.2904 30.8510 83.2534 0.0000 -19.7196 0.0000
# 4 0.0000 0.0000 0.0000 43.3409 0.0000 -2.8947
# 5 -19.6469 -2.3389 -19.7196 0.0000 30.9825 0.0000
# 6 0.0000 0.0000 0.0000 -2.8947 0.0000 15.6193
#
#
#
# Elastic Compliance Matrix: (Units=1/GPa)
#
#
# Indices 1 2 3 4 5 6 
#
# 1 0.042624 -0.005885 -0.010690 0.000000 0.019781 0.000000
# 2 -0.005885 0.011249 -0.002858 0.000000 -0.004702 0.000000
# 3 -0.010690 -0.002858 0.018625 0.000000 0.004860 0.000000
# 4 0.000000 0.000000 0.000000 0.023362 0.000000 0.004330
# 5 0.019781 -0.004702 0.004860 0.000000 0.047558 0.000000
# 6 0.000000 0.000000 0.000000 0.004330 0.000000 0.064826
#
#
# Mechanical properties :
#
#
# Convention : Reuss Voigt Hill
#
# Bulk Modulus (GPa) = 29.73387 45.96651 37.85019
# Shear Modulus (GPa) = 19.35580 27.78834 23.57207
#
# Velocity S-wave (km/s) = 2.93508 3.51678 3.23901
# Velocity P-wave (km/s) = 4.97191 6.07853 5.55286
#
# Compressibility (1/GPa) = 0.03363168
#
# Stress axis : x y z
#
# Youngs Moduli (GPa) = 23.46112 88.89452 53.69182
#
# Poissons Ratio (x) = 0.52312 0.57396
# Poissons Ratio (y) = 0.13806 0.15348
# Poissons Ratio (z) = 0.25080 0.25410
#
# Static dielectric constant tensor:
#      x y z
#    x 1.911510 0.000000 0.059870 
#    y 0.000000 1.803550 0.000000 
#    z 0.059870 0.000000 1.791790 
# 
# From -- ./inp_files/264722.got.cif
#   From: 2010.05.17/outbox.cif.g08.bks.cpg/sg15_133_cif.got.tgz:264722.got - 2010.06.03 18:47:42.
