data_PCOD9260656
_publ_section_title
;
Structure prediction by ZEFSAII (Michael W. Deem and Ramdas Pophale) SiO2 
 PCOD9260656
Probable space group: C 2/C
;
_chemical_formula_sum "Si O2"
_cell_formula_units_Z 52
_cell_length_a 12.565595
_cell_length_b 23.690975
_cell_length_c 14.799676
_cell_angle_alpha 90.000000
_cell_angle_beta 141.365545
_cell_angle_gamma 90.000000
_cell_volume 2750.717156
_symmetry_space_group_name_H-M "C 2/C"
_symmetry_group_IT_number 15
_symmetry_cell_setting 'monoclinic'
loop_
_space_group_symop_operation_xyz
x,y,z
-x,y,1/2-z
-x,-y,-z
x,-y,1/2+z
1/2+x,1/2+y,z
1/2-x,1/2+y,1/2-z
1/2-x,1/2-y,-z
1/2+x,1/2-y,1/2+z
loop_
_atom_site_type_symbol
_atom_site_label
_atom_site_fract_x
_atom_site_fract_y
_atom_site_fract_z
Si Si1 0.872369 0.616073 0.594605
Si Si2 0.737557 0.962097 0.646131
Si Si3 0.434415 0.184084 0.917207
Si Si4 0.215090 0.291356 0.750635
Si Si5 0.605412 0.073969 0.492780
Si Si6 0.500000 0.862310 0.750000
Si Si7 0.002140 0.129264 0.145502
O O1 0.820874 0.575433 0.478312
O O2 0.690735 0.631673 0.516704
O O3 0.000000 0.588321 0.750000
O O4 0.976075 0.667620 0.617959
O O5 0.584033 0.952722 0.615647
O O6 0.910500 0.933041 0.795951
O O7 0.736991 0.025627 0.609638
O O8 0.285091 0.229129 0.813023
O O9 0.580959 0.207876 0.079967
O O10 0.376062 0.126294 0.926508
O O11 0.373127 0.330098 0.825281
O O12 0.123949 0.322048 0.774116
O O13 0.601777 0.098938 0.389557
O O14 0.000000 0.146993 0.250000
#
# Coordination Sequence:
#
# PCOD9260656 Si02
#       7
#     8   8   8   8   8   4   8
#     4  10  21  35  59  92 119 152 201 253 309 362
#     4   9  17  36  63  85 120 158 193 245 304 367
#     4  10  22  39  57  87 119 166 202 248 303 350
#     4  11  22  38  61  86 120 165 203 250 298 357
#     4   9  18  35  61  86 115 162 202 237 303 357
#     4  10  20  38  62  90 122 162 204 248 302 354
#     4  10  18  38  60  87 123 158 192 245 316 360
#
# _framework density 18.904160999999998
#
# number of rings (size 3 to 8) (size 9 to 14) (size 15 to 20)
#    0.000    2.154    6.154    0.000    3.231    3.692 
#    0.000    0.000   15.231   13.846    0.000    0.000 
#    0.000    0.000    0.000    0.000    0.000    0.000 
#
# Total GULP energy -144964.900955 kJ/mol
# GULP energy per Si atom -5575.573114 kJ/mol
# Density = 1.886113 g / cm^3
# Si number density = 18.904161 Si / 1000 Ang^3
#
#
#
# Elastic Constant Matrix: (Units=GPa)
#
#
# Indices 1 2 3 4 5 6 
#
# 1 71.6250 19.0650 6.7161 0.0000 4.5562 0.0000
# 2 19.0650 105.4913 12.7587 0.0000 -0.4219 0.0000
# 3 6.7161 12.7587 44.9810 0.0000 1.2812 0.0000
# 4 0.0000 0.0000 0.0000 16.4025 0.0000 6.1959
# 5 4.5562 -0.4219 1.2812 0.0000 7.8049 0.0000
# 6 0.0000 0.0000 0.0000 6.1959 0.0000 13.6020
#
#
#
# Elastic Compliance Matrix: (Units=1/GPa)
#
#
# Indices 1 2 3 4 5 6 
#
# 1 0.015355 -0.002655 -0.001286 0.000000 -0.008896 0.000000
# 2 -0.002655 0.010283 -0.002592 0.000000 0.002531 0.000000
# 3 -0.001286 -0.002592 0.023250 0.000000 -0.003206 0.000000
# 4 0.000000 0.000000 0.000000 0.073637 0.000000 -0.033542
# 5 -0.008896 0.002531 -0.003206 0.000000 0.133981 0.000000
# 6 0.000000 0.000000 0.000000 -0.033542 0.000000 0.088797
#
#
# Mechanical properties :
#
#
# Convention : Reuss Voigt Hill
#
# Bulk Modulus (GPa) = 27.91668 33.24188 30.57928
# Shear Modulus (GPa) = 13.50217 19.79905 16.65061
#
# Velocity S-wave (km/s) = 2.67543 3.23977 2.97103
# Velocity P-wave (km/s) = 4.93391 5.62294 5.28965
#
# Compressibility (1/GPa) = 0.03582088
#
# Stress axis : x y z
#
# Youngs Moduli (GPa) = 65.12612 97.24828 43.01024
#
# Poissons Ratio (x) = 0.25820 0.05532
# Poissons Ratio (y) = 0.17291 0.11150
# Poissons Ratio (z) = 0.08376 0.25211
#
# Static dielectric constant tensor:
#      x y z
#    x 1.685640 0.000000 0.013820 
#    y 0.000000 1.675380 0.000000 
#    z 0.013820 0.000000 1.652760 
# 
# From -- ./inp_files/148417.got.cif
#   From: 2010.05.17/outbox.cif.g08.bks.cpg/sg15_75_cif.got.tgz:148417.got - 2010.06.03 18:47:42.
