data_PCOD9260916
_publ_section_title
;
Structure prediction by ZEFSAII (Michael W. Deem and Ramdas Pophale) SiO2 
 PCOD9260916
Probable space group: C 2/C
;
_chemical_formula_sum "Si O2"
_cell_formula_units_Z 44
_cell_length_a 7.291960
_cell_length_b 17.462638
_cell_length_c 14.406590
_cell_angle_alpha 90.000000
_cell_angle_beta 108.203354
_cell_angle_gamma 90.000000
_cell_volume 1742.680592
_symmetry_space_group_name_H-M "C 2/C"
_symmetry_group_IT_number 15
_symmetry_cell_setting 'monoclinic'
loop_
_space_group_symop_operation_xyz
x,y,z
-x,y,1/2-z
-x,-y,-z
x,-y,1/2+z
1/2+x,1/2+y,z
1/2-x,1/2+y,1/2-z
1/2-x,1/2-y,-z
1/2+x,1/2-y,1/2+z
loop_
_atom_site_type_symbol
_atom_site_label
_atom_site_fract_x
_atom_site_fract_y
_atom_site_fract_z
Si Si1 0.388667 0.482392 0.886701
Si Si2 0.681604 0.679997 0.168462
Si Si3 0.420088 0.803005 0.886665
Si Si4 0.555413 0.155935 0.592907
Si Si5 0.486384 0.353691 0.142884
Si Si6 0.500000 0.035662 0.750000
O O1 0.440905 0.395954 0.870182
O O2 0.436863 0.560890 0.841049
O O3 0.159554 0.482767 0.825703
O O4 0.500000 0.500000 0.000000
O O5 0.766461 0.674790 0.285268
O O6 0.565175 0.758711 0.136080
O O7 0.867241 0.686146 0.127780
O O8 0.406336 0.710454 0.900089
O O9 0.412294 0.846315 0.983190
O O10 0.765355 0.142848 0.580186
O O11 0.545886 0.093878 0.672552
O O12 0.500000 0.322798 0.250000
#
# Coordination Sequence:
#
# PCOD9260916 Si02
#       6
#     8   8   8   8   8   4
#     4  12  25  44  66  97 137 175 210 275 339 387
#     4  10  20  40  64  97 129 161 223 281 315 387
#     4  10  18  38  71  94 119 175 231 265 315 398
#     4  11  22  42  69  94 125 178 226 269 328 389
#     4  11  19  42  69  92 127 171 218 267 328 393
#     4  12  26  46  64  96 142 172 216 282 326 390
#
# _framework density 25.248459
#
# number of rings (size 3 to 8) (size 9 to 14) (size 15 to 20)
#    0.000    1.091    5.455    5.455    0.000    0.000 
#    4.909    9.091    0.000    0.000    0.000    0.000 
#    0.000    0.000    0.000    0.000    0.000    0.000 
#
# Total GULP energy -122929.677645 kJ/mol
# GULP energy per Si atom -5587.712620 kJ/mol
# Density = 2.519099 g / cm^3
# Si number density = 25.248459 Si / 1000 Ang^3
#
#
#
# Elastic Constant Matrix: (Units=GPa)
#
#
# Indices 1 2 3 4 5 6 
#
# 1 43.5620 20.6441 33.3394 0.0000 7.2993 0.0000
# 2 20.6441 117.7179 -13.7834 0.0000 4.9927 0.0000
# 3 33.3394 -13.7834 178.3398 0.0000 14.5319 0.0000
# 4 0.0000 0.0000 0.0000 34.3351 0.0000 7.4570
# 5 7.2993 4.9927 14.5319 0.0000 25.7084 0.0000
# 6 0.0000 0.0000 0.0000 7.4570 0.0000 18.5797
#
#
#
# Elastic Compliance Matrix: (Units=1/GPa)
#
#
# Indices 1 2 3 4 5 6 
#
# 1 0.031018 -0.005948 -0.005907 0.000000 -0.004313 0.000000
# 2 -0.005948 0.009827 0.001981 0.000000 -0.001339 0.000000
# 3 -0.005907 0.001981 0.007086 0.000000 -0.002713 0.000000
# 4 0.000000 0.000000 0.000000 0.031906 0.000000 -0.012805
# 5 -0.004313 -0.001339 -0.002713 0.000000 0.041916 0.000000
# 6 0.000000 0.000000 0.000000 -0.012805 0.000000 0.058962
#
#
# Mechanical properties :
#
#
# Convention : Reuss Voigt Hill
#
# Bulk Modulus (GPa) = 35.48469 46.66887 41.07678
# Shear Modulus (GPa) = 23.82577 35.68595 29.75586
#
# Velocity S-wave (km/s) = 3.07523 3.76359 3.43668
# Velocity P-wave (km/s) = 5.16663 6.11638 5.66146
#
# Compressibility (1/GPa) = 0.02818117
#
# Stress axis : x y z
#
# Youngs Moduli (GPa) = 32.23919 101.76318 141.13028
#
# Poissons Ratio (x) = 0.60532 0.83365
# Poissons Ratio (y) = 0.19177 -0.27952
# Poissons Ratio (z) = 0.19043 -0.20155
#
# Static dielectric constant tensor:
#      x y z
#    x 2.145610 0.000000 0.028010 
#    y 0.000000 2.009200 0.000000 
#    z 0.028010 0.000000 2.009670 
# 
# From -- ./inp_files/134965.got.cif
#   From: 2010.05.17/outbox.cif.g08.bks.cpg/sg15_68_cif.got.tgz:134965.got - 2010.06.03 18:47:42.
