data_PCOD9260308
_publ_section_title
;
Structure prediction by ZEFSAII (Michael W. Deem and Ramdas Pophale) SiO2 
 PCOD9260308
Probable space group: C 2/C
;
_chemical_formula_sum "Si O2"
_cell_formula_units_Z 60
_cell_length_a 11.735401
_cell_length_b 18.647135
_cell_length_c 30.670034
_cell_angle_alpha 90.000000
_cell_angle_beta 153.982112
_cell_angle_gamma 90.000000
_cell_volume 2944.043048
_symmetry_space_group_name_H-M "C 2/C"
_symmetry_group_IT_number 15
_symmetry_cell_setting 'monoclinic'
loop_
_space_group_symop_operation_xyz
x,y,z
-x,y,1/2-z
-x,-y,-z
x,-y,1/2+z
1/2+x,1/2+y,z
1/2-x,1/2+y,1/2-z
1/2-x,1/2-y,-z
1/2+x,1/2-y,1/2+z
loop_
_atom_site_type_symbol
_atom_site_label
_atom_site_fract_x
_atom_site_fract_y
_atom_site_fract_z
Si Si1 0.749090 0.974368 0.531000
Si Si2 0.730713 0.406636 0.748277
Si Si3 0.144724 0.906734 0.378131
Si Si4 0.000000 0.015092 0.250000
Si Si5 0.400874 0.118333 0.765051
Si Si6 0.713332 0.005183 0.419293
Si Si7 0.024307 0.680481 0.562468
Si Si8 0.014497 0.247414 0.150566
O O1 0.588524 0.900615 0.472664
O O2 0.025042 0.950357 0.647024
O O3 0.654987 0.044000 0.525751
O O4 0.755546 0.003199 0.484928
O O5 0.671155 0.432196 0.777801
O O6 0.668652 0.324529 0.715972
O O7 0.026584 0.429575 0.840942
O O8 0.249939 0.832362 0.395016
O O9 0.900822 0.893666 0.326151
O O10 0.085541 0.957999 0.316467
O O11 0.500000 0.105503 0.750000
O O12 0.468028 0.197787 0.803849
O O13 0.554906 0.064070 0.849188
O O14 0.000000 0.000000 0.500000
O O15 0.105582 0.713075 0.637035
O O16 0.785203 0.726636 0.461959
#
# Coordination Sequence:
#
# PCOD9260308 Si02
#       8
#     8   8   8   4   8   8   8   8
#     4  10  20  40  66 101 132 161 225 291 335 395
#     4  10  23  41  66 105 131 175 226 281 348 404
#     4  11  21  40  70 101 128 173 230 288 338 407
#     4  10  18  36  72 100 128 160 226 290 336 390
#     4  12  25  46  63  90 138 187 225 279 348 408
#     4  12  24  42  69  95 136 181 229 282 345 413
#     4  10  20  40  69  99 131 173 220 279 352 408
#     4  10  23  43  63  96 143 175 220 281 349 422
#
# _framework density 20.380137000000001
#
# number of rings (size 3 to 8) (size 9 to 14) (size 15 to 20)
#    0.000    1.333    4.000    2.800    0.933    2.133 
#    2.400    3.333    0.000    0.000    0.000    0.000 
#    0.000    0.000    0.000    0.000    0.000    0.000 
#
# Total GULP energy -167247.074761 kJ/mol
# GULP energy per Si atom -5574.902492 kJ/mol
# Density = 2.033375 g / cm^3
# Si number density = 20.380137 Si / 1000 Ang^3
#
#
#
# Elastic Constant Matrix: (Units=GPa)
#
#
# Indices 1 2 3 4 5 6 
#
# 1 128.3150 39.8713 59.3123 0.0008 -5.4191 0.0004
# 2 39.8713 85.1359 21.8478 -0.0023 -7.6427 -0.0011
# 3 59.3123 21.8478 64.4699 -0.0034 1.8348 -0.0014
# 4 0.0008 -0.0023 -0.0034 27.3433 -0.0016 -6.8674
# 5 -5.4191 -7.6427 1.8348 -0.0016 43.0238 -0.0008
# 6 0.0004 -0.0011 -0.0014 -6.8674 -0.0008 29.0934
#
#
#
# Elastic Compliance Matrix: (Units=1/GPa)
#
#
# Indices 1 2 3 4 5 6 
#
# 1 0.014679 -0.003548 -0.012352 -0.000003 0.001745 -0.000002
# 2 -0.003548 0.013991 -0.001537 0.000001 0.002104 0.000001
# 3 -0.012352 -0.001537 0.027481 0.000004 -0.003001 0.000002
# 4 -0.000003 0.000001 0.000004 0.038877 0.000001 0.009177
# 5 0.001745 0.002104 -0.003001 0.000001 0.023965 0.000001
# 6 -0.000002 0.000001 0.000002 0.009177 0.000001 0.036538
#
#
# Mechanical properties :
#
#
# Convention : Reuss Voigt Hill
#
# Bulk Modulus (GPa) = 46.99887 57.77594 52.38740
# Shear Modulus (GPa) = 25.31678 30.35140 27.83409
#
# Velocity S-wave (km/s) = 3.52835 3.86328 3.69961
# Velocity P-wave (km/s) = 6.30160 6.95059 6.63403
#
# Compressibility (1/GPa) = 0.02127711
#
# Stress axis : x y z
#
# Youngs Moduli (GPa) = 68.12365 71.47522 36.38835
#
# Poissons Ratio (x) = 0.25360 0.44947
# Poissons Ratio (y) = 0.24171 0.05592
# Poissons Ratio (z) = 0.84147 0.10985
#
# Static dielectric constant tensor:
#      x y z
#    x 1.904680 0.000000 0.000660 
#    y 0.000000 1.752710 0.000000 
#    z 0.000660 0.000000 1.809410 
# 
# From -- ./inp_files/311592.got.cif
#   From: 2010.05.17/outbox.cif.g08.bks.cpg/sg15_156_cif.got.tgz:311592.got - 2010.06.03 18:47:42.
