data_PCOD9260523
_publ_section_title
;
Structure prediction by ZEFSAII (Michael W. Deem and Ramdas Pophale) SiO2 
 PCOD9260523
Probable space group: C 2/C
;
_chemical_formula_sum "Si O2"
_cell_formula_units_Z 48
_cell_length_a 14.323135
_cell_length_b 11.886879
_cell_length_c 16.811148
_cell_angle_alpha 90.000000
_cell_angle_beta 54.347437
_cell_angle_gamma 90.000000
_cell_volume 2325.745282
_symmetry_space_group_name_H-M "C 2/C"
_symmetry_group_IT_number 15
_symmetry_cell_setting 'monoclinic'
loop_
_space_group_symop_operation_xyz
x,y,z
-x,y,1/2-z
-x,-y,-z
x,-y,1/2+z
1/2+x,1/2+y,z
1/2-x,1/2+y,1/2-z
1/2-x,1/2-y,-z
1/2+x,1/2-y,1/2+z
loop_
_atom_site_type_symbol
_atom_site_label
_atom_site_fract_x
_atom_site_fract_y
_atom_site_fract_z
Si Si1 0.696502 0.928691 0.062096
Si Si2 0.201420 0.697643 0.232797
Si Si3 0.000000 0.446887 0.750000
Si Si4 0.500000 0.605182 0.250000
Si Si5 0.242219 0.205583 0.117103
Si Si6 0.174431 0.840195 0.987473
Si Si7 0.953531 0.111705 0.687402
O O1 0.751884 0.838329 0.095285
O O2 0.577039 0.976095 0.154397
O O3 0.777771 0.037015 0.012984
O O4 0.687672 0.863364 0.983426
O O5 0.091555 0.628280 0.253875
O O6 0.228801 0.666133 0.309041
O O7 0.299168 0.679692 0.118308
O O8 0.168657 0.829652 0.256357
O O9 0.608158 0.676908 0.169922
O O10 0.539204 0.521605 0.302368
O O11 0.250000 0.750000 0.000000
O O12 0.041349 0.841344 0.078355
O O13 0.000000 0.152165 0.750000
#
# Coordination Sequence:
#
# PCOD9260523 Si02
#       7
#     8   8   4   4   8   8   8
#     4  10  22  43  64  89 133 175 205 268 321 388
#     4  11  23  40  64 101 124 166 217 272 315 390
#     4  10  20  42  66  88 130 167 217 260 316 372
#     4  10  20  42  66  86 128 179 207 262 316 388
#     4  11  24  42  64  93 134 169 214 256 335 387
#     4  11  19  40  67  92 127 169 213 269 321 367
#     4  10  18  37  65  89 123 162 213 263 316 367
#
# _framework density 20.638544
#
# number of rings (size 3 to 8) (size 9 to 14) (size 15 to 20)
#    0.500    1.000    4.167    1.500    0.000    3.333 
#    9.000    1.667    0.000    0.000    0.000    0.000 
#    0.000    0.000    0.000    0.000    0.000    0.000 
#
# Total GULP energy -133873.929721 kJ/mol
# GULP energy per Si atom -5578.080405 kJ/mol
# Density = 2.059157 g / cm^3
# Si number density = 20.638544 Si / 1000 Ang^3
#
#
#
# Elastic Constant Matrix: (Units=GPa)
#
#
# Indices 1 2 3 4 5 6 
#
# 1 36.7892 15.5573 26.3404 0.0000 21.4191 0.0000
# 2 15.5573 108.7395 22.2070 0.0000 2.7025 0.0000
# 3 26.3404 22.2070 118.5693 0.0000 18.2591 0.0000
# 4 0.0000 0.0000 0.0000 15.2102 0.0000 -3.5836
# 5 21.4191 2.7025 18.2591 0.0000 36.0512 0.0000
# 6 0.0000 0.0000 0.0000 -3.5836 0.0000 2.4615
#
#
#
# Elastic Compliance Matrix: (Units=1/GPa)
#
#
# Indices 1 2 3 4 5 6 
#
# 1 0.048283 -0.005079 -0.005874 0.000000 -0.025331 0.000000
# 2 -0.005079 0.010098 -0.001205 0.000000 0.002871 0.000000
# 3 -0.005874 -0.001205 0.010209 0.000000 -0.001590 0.000000
# 4 0.000000 0.000000 0.000000 0.100071 0.000000 0.145692
# 5 -0.025331 0.002871 -0.001590 0.000000 0.043378 0.000000
# 6 0.000000 0.000000 0.000000 0.145692 0.000000 0.618371
#
#
# Mechanical properties :
#
#
# Convention : Reuss Voigt Hill
#
# Bulk Modulus (GPa) = 22.58638 43.58970 33.08804
# Shear Modulus (GPa) = 5.75053 24.07748 14.91400
#
# Velocity S-wave (km/s) = 1.67103 3.41930 2.69109
# Velocity P-wave (km/s) = 3.83284 6.06260 5.07178
#
# Compressibility (1/GPa) = 0.04427447
#
# Stress axis : x y z
#
# Youngs Moduli (GPa) = 20.71112 99.03298 97.94824
#
# Poissons Ratio (x) = 0.50296 0.57537
# Poissons Ratio (y) = 0.10519 0.11803
# Poissons Ratio (z) = 0.12166 0.11934
#
# Static dielectric constant tensor:
#      x y z
#    x 1.742680 0.000000 0.010920 
#    y 0.000000 1.769850 0.000000 
#    z 0.010920 0.000000 1.745380 
# 
# From -- ./inp_files/210197.got.cif
#   From: 2010.05.17/outbox.cif.g08.bks.cpg/sg15_106_cif.got.tgz:210197.got - 2010.06.03 18:47:42.
