data_PCOD9260743
_publ_section_title
;
Structure prediction by ZEFSAII (Michael W. Deem and Ramdas Pophale) SiO2 
 PCOD9260743
Probable space group: C 2/C
;
_chemical_formula_sum "Si O2"
_cell_formula_units_Z 56
_cell_length_a 17.602875
_cell_length_b 9.265149
_cell_length_c 17.521715
_cell_angle_alpha 90.000000
_cell_angle_beta 109.991625
_cell_angle_gamma 90.000000
_cell_volume 2685.477645
_symmetry_space_group_name_H-M "C 2/C"
_symmetry_group_IT_number 15
_symmetry_cell_setting 'monoclinic'
loop_
_space_group_symop_operation_xyz
x,y,z
-x,y,1/2-z
-x,-y,-z
x,-y,1/2+z
1/2+x,1/2+y,z
1/2-x,1/2+y,1/2-z
1/2-x,1/2-y,-z
1/2+x,1/2-y,1/2+z
loop_
_atom_site_type_symbol
_atom_site_label
_atom_site_fract_x
_atom_site_fract_y
_atom_site_fract_z
Si Si1 0.197302 0.613586 0.967303
Si Si2 0.500000 0.060614 0.250000
Si Si3 0.120291 0.188529 0.746233
Si Si4 0.966467 0.291642 0.134695
Si Si5 0.744600 0.158068 0.574669
Si Si6 0.150677 0.770473 0.673481
Si Si7 0.000000 0.052982 0.250000
Si Si8 0.245315 0.070293 0.686213
O O1 0.106093 0.671870 0.945780
O O2 0.221854 0.560928 0.889245
O O3 0.250000 0.750000 0.000000
O O4 0.223510 0.499086 0.038630
O O5 0.428125 0.164852 0.253727
O O6 0.477375 0.947911 0.176698
O O7 0.180505 0.165432 0.839821
O O8 0.172071 0.178474 0.686155
O O9 0.055797 0.058070 0.722665
O O10 0.053869 0.227474 0.143879
O O11 0.940801 0.164094 0.184932
O O12 0.750000 0.250000 0.500000
O O13 0.670207 0.220413 0.595568
O O14 0.182285 0.643429 0.740507
O O15 0.206266 0.916326 0.700275
#
# Coordination Sequence:
#
# PCOD9260743 Si02
#       8
#     8   4   8   8   8   8   4   8
#     4  12  27  44  66  97 139 185 224 277 345 414
#     4  10  22  38  68 104 134 168 220 296 336 392
#     4  10  22  39  68  97 128 173 230 271 337 398
#     4  11  23  40  64  98 136 172 225 281 344 391
#     4  11  23  42  64  93 138 178 215 269 346 412
#     4  11  25  42  73  99 135 176 232 290 334 404
#     4  10  18  38  62  94 128 166 216 292 324 384
#     4  11  24  43  70 103 132 178 234 279 338 406
#
# _framework density 20.852900999999999
#
# number of rings (size 3 to 8) (size 9 to 14) (size 15 to 20)
#    0.000    1.143    2.857    3.429   10.000    0.571 
#    0.000    3.571    0.000    0.000    0.000    0.000 
#    0.000    0.000    0.000    0.000    0.000    0.000 
#
# Total GULP energy -155985.164284 kJ/mol
# GULP energy per Si atom -5570.898724 kJ/mol
# Density = 2.080544 g / cm^3
# Si number density = 20.852901 Si / 1000 Ang^3
#
#
#
# Elastic Constant Matrix: (Units=GPa)
#
#
# Indices 1 2 3 4 5 6 
#
# 1 100.3862 24.1866 8.3677 0.0000 7.6122 0.0000
# 2 24.1866 124.4106 10.8852 0.0000 16.5564 0.0000
# 3 8.3677 10.8852 40.5316 0.0000 2.2993 0.0000
# 4 0.0000 0.0000 0.0000 20.1887 0.0000 1.9320
# 5 7.6122 16.5564 2.2993 0.0000 36.9490 0.0000
# 6 0.0000 0.0000 0.0000 1.9320 0.0000 15.5529
#
#
#
# Elastic Compliance Matrix: (Units=1/GPa)
#
#
# Indices 1 2 3 4 5 6 
#
# 1 0.010619 -0.001747 -0.001649 0.000000 -0.001302 0.000000
# 2 -0.001747 0.009014 -0.001858 0.000000 -0.003564 0.000000
# 3 -0.001649 -0.001858 0.025535 0.000000 -0.000417 0.000000
# 4 0.000000 0.000000 0.000000 0.050129 0.000000 -0.006227
# 5 -0.001302 -0.003564 -0.000417 0.000000 0.028955 0.000000
# 6 0.000000 0.000000 0.000000 -0.006227 0.000000 0.065070
#
#
# Mechanical properties :
#
#
# Convention : Reuss Voigt Hill
#
# Bulk Modulus (GPa) = 28.85171 39.13416 33.99294
# Shear Modulus (GPa) = 23.65364 29.33070 26.49217
#
# Velocity S-wave (km/s) = 3.37160 3.75447 3.56818
# Velocity P-wave (km/s) = 5.38728 6.13207 5.77170
#
# Compressibility (1/GPa) = 0.03465999
#
# Stress axis : x y z
#
# Youngs Moduli (GPa) = 94.17431 110.93465 39.16158
#
# Poissons Ratio (x) = 0.19378 0.06459
# Poissons Ratio (y) = 0.16450 0.07277
# Poissons Ratio (z) = 0.15531 0.20613
#
# Static dielectric constant tensor:
#      x y z
#    x 1.698760 0.000000 0.015540 
#    y 0.000000 1.792950 0.000000 
#    z 0.015540 0.000000 1.736290 
# 
# From -- ./inp_files/209670.got.cif
#   From: 2010.05.17/outbox.cif.g08.bks.cpg/sg15_105_cif.got.tgz:209670.got - 2010.06.03 18:47:42.
