data_PCOD9260030
_publ_section_title
;
Structure prediction by ZEFSAII (Michael W. Deem and Ramdas Pophale) SiO2 
 PCOD9260030
Probable space group: C 2/C
;
_chemical_formula_sum "Si O2"
_cell_formula_units_Z 64
_cell_length_a 19.284241
_cell_length_b 8.860316
_cell_length_c 21.467226
_cell_angle_alpha 90.000000
_cell_angle_beta 47.561387
_cell_angle_gamma 90.000000
_cell_volume 2706.976526
_symmetry_space_group_name_H-M "C 2/C"
_symmetry_group_IT_number 15
_symmetry_cell_setting 'monoclinic'
loop_
_space_group_symop_operation_xyz
x,y,z
-x,y,1/2-z
-x,-y,-z
x,-y,1/2+z
1/2+x,1/2+y,z
1/2-x,1/2+y,1/2-z
1/2-x,1/2-y,-z
1/2+x,1/2-y,1/2+z
loop_
_atom_site_type_symbol
_atom_site_label
_atom_site_fract_x
_atom_site_fract_y
_atom_site_fract_z
Si Si1 0.334500 0.492757 0.153070
Si Si2 0.875157 0.579375 0.219672
Si Si3 0.369955 0.812194 0.579428
Si Si4 0.769598 0.524110 0.950098
Si Si5 0.937363 0.470711 0.936629
Si Si6 0.675767 0.331442 0.621593
Si Si7 0.656394 0.600365 0.710285
Si Si8 0.341441 0.267566 0.560080
O O1 0.221524 0.492884 0.209563
O O2 0.383050 0.365749 0.081595
O O3 0.348014 0.462792 0.217166
O O4 0.366820 0.654711 0.109882
O O5 0.866272 0.624407 0.151748
O O6 0.884156 0.729409 0.257078
O O7 0.974298 0.498017 0.160323
O O8 0.268554 0.830247 0.608569
O O9 0.433470 0.903192 0.492515
O O10 0.843385 0.453320 0.953073
O O11 0.835912 0.650708 0.876597
O O12 0.711393 0.396719 0.948643
O O13 0.696102 0.614265 0.038566
O O14 0.932153 0.308485 0.974508
O O15 0.617975 0.468827 0.688314
O O16 0.762451 0.642656 0.623777
#
# Coordination Sequence:
#
# PCOD9260030 Si02
#       8
#     8   8   8   8   8   8   8   8
#     4  10  20  36  61  87 117 155 203 242 308 370
#     4  10  21  36  61  91 124 153 193 266 316 352
#     4  10  18  36  61  84 115 158 199 243 301 369
#     4  10  21  34  61  86 114 160 206 249 285 361
#     4  11  22  37  58  91 122 157 206 252 307 354
#     4  10  18  36  61  87 111 148 210 249 282 360
#     4  10  20  36  59  90 114 156 201 251 305 368
#     4  11  20  35  61  86 114 161 207 244 288 369
#
# _framework density 23.642613000000001
#
# number of rings (size 3 to 8) (size 9 to 14) (size 15 to 20)
#    0.000    1.750    5.000    0.750    0.000    0.000 
#    0.000    5.000    2.750    4.500    0.000    0.000 
#    0.000    0.000    0.000    0.000    0.000    0.000 
#
# Total GULP energy -178359.871290 kJ/mol
# GULP energy per Si atom -5573.745978 kJ/mol
# Density = 2.358880 g / cm^3
# Si number density = 23.642613 Si / 1000 Ang^3
#
#
#
# Elastic Constant Matrix: (Units=GPa)
#
#
# Indices 1 2 3 4 5 6 
#
# 1 28.3034 12.0997 11.8173 0.0000 6.7698 0.0000
# 2 12.0997 109.5820 39.6595 0.0000 11.4376 0.0001
# 3 11.8173 39.6595 81.7398 0.0000 4.8446 0.0000
# 4 0.0000 0.0000 0.0000 48.5712 0.0000 17.6042
# 5 6.7698 11.4376 4.8446 0.0000 27.8980 0.0000
# 6 0.0000 0.0001 0.0000 17.6042 0.0000 19.4429
#
#
#
# Elastic Compliance Matrix: (Units=1/GPa)
#
#
# Indices 1 2 3 4 5 6 
#
# 1 0.039932 -0.001997 -0.004323 0.000000 -0.008121 0.000000
# 2 -0.001997 0.011548 -0.005115 0.000000 -0.003362 0.000000
# 3 -0.004323 -0.005115 0.015312 0.000000 0.000487 0.000000
# 4 0.000000 0.000000 0.000000 0.030645 0.000000 -0.027747
# 5 -0.008121 -0.003362 0.000487 0.000000 0.039109 0.000000
# 6 0.000000 0.000000 0.000000 -0.027747 0.000000 0.076556
#
#
# Mechanical properties :
#
#
# Convention : Reuss Voigt Hill
#
# Bulk Modulus (GPa) = 22.76747 38.53093 30.64920
# Shear Modulus (GPa) = 19.95105 29.58564 24.76835
#
# Velocity S-wave (km/s) = 2.90808 3.54131 3.24020
# Velocity P-wave (km/s) = 4.57456 5.74924 5.19521
#
# Compressibility (1/GPa) = 0.04392231
#
# Stress axis : x y z
#
# Youngs Moduli (GPa) = 25.04228 86.59340 65.30886
#
# Poissons Ratio (x) = 0.17294 0.28232
# Poissons Ratio (y) = 0.05001 0.33406
# Poissons Ratio (z) = 0.10825 0.44294
#
# Static dielectric constant tensor:
#      x y z
#    x 1.916570 0.000000 -0.004500 
#    y 0.000000 1.986670 0.000000 
#    z -0.004500 0.000000 1.918560 
# 
# From -- ./inp_files/281496.got.cif
#   From: 2010.05.17/outbox.cif.g08.bks.cpg/sg15_141_cif.got.tgz:281496.got - 2010.06.03 18:47:42.
