data_PCOD9260959
_publ_section_title
;
Structure prediction by ZEFSAII (Michael W. Deem and Ramdas Pophale) SiO2 
 PCOD9260959
Probable space group: C 2/C
;
_chemical_formula_sum "Si O2"
_cell_formula_units_Z 60
_cell_length_a 23.377101
_cell_length_b 8.796532
_cell_length_c 17.778175
_cell_angle_alpha 90.000000
_cell_angle_beta 59.790850
_cell_angle_gamma 90.000000
_cell_volume 3159.372218
_symmetry_space_group_name_H-M "C 2/C"
_symmetry_group_IT_number 15
_symmetry_cell_setting 'monoclinic'
loop_
_space_group_symop_operation_xyz
x,y,z
-x,y,1/2-z
-x,-y,-z
x,-y,1/2+z
1/2+x,1/2+y,z
1/2-x,1/2+y,1/2-z
1/2-x,1/2-y,-z
1/2+x,1/2-y,1/2+z
loop_
_atom_site_type_symbol
_atom_site_label
_atom_site_fract_x
_atom_site_fract_y
_atom_site_fract_z
Si Si1 0.886627 0.352911 0.332315
Si Si2 0.973975 0.900895 0.850906
Si Si3 0.247441 0.569844 0.517904
Si Si4 0.812391 0.873141 0.343462
Si Si5 0.500000 0.079833 0.250000
Si Si6 0.411682 0.717734 0.903583
Si Si7 0.690295 0.662052 0.409394
Si Si8 0.621219 0.627322 0.295813
O O1 0.829268 0.447572 0.409982
O O2 0.860225 0.252914 0.280033
O O3 0.923362 0.237026 0.366424
O O4 0.941220 0.467654 0.265428
O O5 0.041074 0.865682 0.851287
O O6 0.000000 0.943347 0.750000
O O7 0.938046 0.048908 0.905715
O O8 0.250000 0.750000 0.500000
O O9 0.273400 0.484283 0.426967
O O10 0.289451 0.491964 0.558072
O O11 0.868323 0.795916 0.356987
O O12 0.758302 0.753535 0.352151
O O13 0.850692 0.970280 0.256319
O O14 0.527402 0.177388 0.161775
O O15 0.360000 0.755688 0.003344
O O16 0.653995 0.644331 0.354668
#
# Coordination Sequence:
#
# PCOD9260959 Si02
#       8
#     8   8   8   8   4   8   8   8
#     4  11  20  37  61  91 113 155 210 258 294 361
#     4  10  18  39  63  82 114 158 201 246 290 357
#     4  11  21  39  67  90 117 161 211 253 295 365
#     4  11  21  41  62  86 124 162 204 253 301 372
#     4  12  20  32  68  88 110 152 216 258 298 348
#     4  11  20  40  61  91 116 157 209 252 298 369
#     4  11  26  38  59  94 133 158 196 259 314 361
#     4  11  22  39  61  87 127 160 201 249 312 365
#
# _framework density 18.991114
#
# number of rings (size 3 to 8) (size 9 to 14) (size 15 to 20)
#    0.000    1.067    6.667    4.000    1.867    0.533 
#    0.000    0.667    2.933    0.000    0.000    0.000 
#    0.000    0.000    0.000    0.000    0.000    0.000 
#
# Total GULP energy -167333.897399 kJ/mol
# GULP energy per Si atom -5577.796580 kJ/mol
# Density = 1.894789 g / cm^3
# Si number density = 18.991114 Si / 1000 Ang^3
#
#
#
# Elastic Constant Matrix: (Units=GPa)
#
#
# Indices 1 2 3 4 5 6 
#
# 1 117.7049 36.4034 40.7964 0.0000 14.3508 0.0000
# 2 36.4034 89.0717 20.2433 0.0000 5.5875 0.0000
# 3 40.7964 20.2433 49.9892 0.0000 2.3061 0.0000
# 4 0.0000 0.0000 0.0000 24.0697 0.0000 -21.5490
# 5 14.3508 5.5875 2.3061 0.0000 41.4505 0.0000
# 6 0.0000 0.0000 0.0000 -21.5490 0.0000 29.3295
#
#
#
# Elastic Compliance Matrix: (Units=1/GPa)
#
#
# Indices 1 2 3 4 5 6 
#
# 1 0.013089 -0.003010 -0.009296 0.000000 -0.003609 0.000000
# 2 -0.003010 0.013138 -0.002837 0.000000 -0.000571 0.000000
# 3 -0.009296 -0.002837 0.028648 0.000000 0.002007 0.000000
# 4 0.000000 0.000000 0.000000 0.121399 0.000000 0.089194
# 5 -0.003609 -0.000571 0.002007 0.000000 0.025340 0.000000
# 6 0.000000 0.000000 0.000000 0.089194 0.000000 0.099628
#
#
# Mechanical properties :
#
#
# Convention : Reuss Voigt Hill
#
# Bulk Modulus (GPa) = 40.67275 50.18356 45.42815
# Shear Modulus (GPa) = 14.71783 29.59147 22.15465
#
# Velocity S-wave (km/s) = 2.78688 3.95165 3.41923
# Velocity P-wave (km/s) = 5.64081 6.87771 6.28974
#
# Compressibility (1/GPa) = 0.02458649
#
# Stress axis : x y z
#
# Youngs Moduli (GPa) = 76.40046 76.11612 34.90701
#
# Poissons Ratio (x) = 0.22913 0.32451
# Poissons Ratio (y) = 0.22998 0.09904
# Poissons Ratio (z) = 0.71025 0.21596
#
# Static dielectric constant tensor:
#      x y z
#    x 1.675200 0.000000 -0.051640 
#    y 0.000000 1.710870 0.000000 
#    z -0.051640 0.000000 1.664680 
# 
# From -- ./inp_files/213859.got.cif
#   From: 2010.05.17/outbox.cif.g08.bks.cpg/sg15_107_cif.got.tgz:213859.got - 2010.06.03 18:47:42.
