data_PCOD9260865
_publ_section_title
;
Structure prediction by ZEFSAII (Michael W. Deem and Ramdas Pophale) SiO2 
 PCOD9260865
Probable space group: C 2/C
;
_chemical_formula_sum "Si O2"
_cell_formula_units_Z 56
_cell_length_a 20.719943
_cell_length_b 16.922623
_cell_length_c 16.228530
_cell_angle_alpha 90.000000
_cell_angle_beta 23.612492
_cell_angle_gamma 90.000000
_cell_volume 2279.244256
_symmetry_space_group_name_H-M "C 2/C"
_symmetry_group_IT_number 15
_symmetry_cell_setting 'monoclinic'
loop_
_space_group_symop_operation_xyz
x,y,z
-x,y,1/2-z
-x,-y,-z
x,-y,1/2+z
1/2+x,1/2+y,z
1/2-x,1/2+y,1/2-z
1/2-x,1/2-y,-z
1/2+x,1/2-y,1/2+z
loop_
_atom_site_type_symbol
_atom_site_label
_atom_site_fract_x
_atom_site_fract_y
_atom_site_fract_z
Si Si1 0.016842 0.703015 0.558670
Si Si2 0.940393 0.863386 0.726388
Si Si3 0.392745 0.487173 0.527687
Si Si4 0.179684 0.867462 0.006729
Si Si5 0.752247 0.097560 0.899968
Si Si6 0.679662 0.236245 0.865017
Si Si7 0.334002 0.058693 0.051474
O O1 0.202029 0.729418 0.341764
O O2 0.021476 0.614406 0.587084
O O3 0.937780 0.771489 0.705108
O O4 0.969126 0.710689 0.518048
O O5 0.767903 0.898559 0.901626
O O6 0.000000 0.872420 0.750000
O O7 0.066055 0.920125 0.528366
O O8 0.296599 0.453196 0.561857
O O9 0.568317 0.443104 0.315939
O O10 0.289411 0.458598 0.726986
O O11 0.279372 0.861702 0.974410
O O12 0.000000 0.863225 0.250000
O O13 0.174522 0.803916 0.939986
O O14 0.742476 0.161494 0.840515
O O15 0.628025 0.027914 0.025741
#
# Coordination Sequence:
#
# PCOD9260865 Si02
#       7
#     8   8   8   8   8   8   8
#     4  12  24  41  65  93 130 172 220 267 321 403
#     4  11  22  40  67  96 125 168 221 273 319 377
#     4  10  18  38  66  93 123 162 221 265 310 391
#     4  10  19  36  61  96 126 161 214 269 323 384
#     4  10  21  34  62  90 127 166 207 272 325 378
#     4  12  23  41  62  93 128 174 219 262 332 390
#     4  11  21  40  62  95 127 167 221 259 325 397
#
# _framework density 24.569547
#
# number of rings (size 3 to 8) (size 9 to 14) (size 15 to 20)
#    0.000    1.143    2.857    7.714    0.000    1.143 
#    0.000    0.000    0.000    0.857    0.000    0.000 
#    0.000    0.000    0.000    0.000    0.000    0.000 
#
# Total GULP energy -156343.403323 kJ/mol
# GULP energy per Si atom -5583.692976 kJ/mol
# Density = 2.451363 g / cm^3
# Si number density = 24.569547 Si / 1000 Ang^3
#
#
#
# Elastic Constant Matrix: (Units=GPa)
#
#
# Indices 1 2 3 4 5 6 
#
# 1 34.8658 4.6408 0.0321 -0.0010 -53.1921 0.0037
# 2 4.6408 105.1222 -14.6565 -0.0040 -17.9538 0.0046
# 3 0.0321 -14.6565 18.0394 -0.0008 0.1869 0.0027
# 4 -0.0010 -0.0040 -0.0008 9.8951 0.0026 -0.3679
# 5 -53.1921 -17.9538 0.1869 0.0026 -17.1722 -0.0005
# 6 0.0037 0.0046 0.0027 -0.3679 -0.0005 32.5426
#
#
#
# Elastic Compliance Matrix: (Units=1/GPa)
#
#
# Indices 1 2 3 4 5 6 
#
# 1 0.005967 -0.003196 -0.002450 0.000003 -0.015169 0.000000
# 2 -0.003196 0.010667 0.008684 0.000005 -0.001159 -0.000002
# 3 -0.002450 0.008684 0.062502 0.000008 -0.000810 -0.000006
# 4 0.000003 0.000005 0.000008 0.101103 0.000001 0.001143
# 5 -0.015169 -0.001159 -0.000810 0.000001 -0.010044 0.000002
# 6 0.000000 -0.000002 -0.000006 0.001143 0.000002 0.030742
#
#
# Mechanical properties :
#
#
# Convention : Reuss Voigt Hill
#
# Bulk Modulus (GPa) = 11.73528 15.34002 13.53765
# Shear Modulus (GPa) = 22.39501 16.25382 19.32442
#
# Velocity S-wave (km/s) = 3.02237 2.57484 2.80754
# Velocity P-wave (km/s) = 4.11902 3.88546 4.00395
#
# Compressibility (1/GPa) = 0.08521316
#
# Stress axis : x y z
#
# Youngs Moduli (GPa) = 167.58705 93.75005 15.99939
#
# Poissons Ratio (x) = 0.29960 0.03920
# Poissons Ratio (y) = 0.53555 -0.13894
# Poissons Ratio (z) = 0.41056 -0.81413
#
# Static dielectric constant tensor:
#      x y z
#    x 2.017520 0.000000 -0.041260 
#    y 0.000000 1.883340 0.000000 
#    z -0.041260 0.000000 2.013950 
# 
# From -- ./inp_files/216024.got.cif
#   From: 2010.05.17/outbox.cif.g08.bks.cpg/sg15_109_cif.got.tgz:216024.got - 2010.06.03 18:47:42.
