data_PCOD9260410
_publ_section_title
;
Structure prediction by ZEFSAII (Michael W. Deem and Ramdas Pophale) SiO2 
 PCOD9260410
Probable space group: C 2/C
;
_chemical_formula_sum "Si O2"
_cell_formula_units_Z 52
_cell_length_a 24.401160
_cell_length_b 12.111692
_cell_length_c 12.268040
_cell_angle_alpha 90.000000
_cell_angle_beta 142.799081
_cell_angle_gamma 90.000000
_cell_volume 2192.134304
_symmetry_space_group_name_H-M "C 2/C"
_symmetry_group_IT_number 15
_symmetry_cell_setting 'monoclinic'
loop_
_space_group_symop_operation_xyz
x,y,z
-x,y,1/2-z
-x,-y,-z
x,-y,1/2+z
1/2+x,1/2+y,z
1/2-x,1/2+y,1/2-z
1/2-x,1/2-y,-z
1/2+x,1/2-y,1/2+z
loop_
_atom_site_type_symbol
_atom_site_label
_atom_site_fract_x
_atom_site_fract_y
_atom_site_fract_z
Si Si1 0.361050 0.909141 0.547965
Si Si2 0.190464 0.136514 0.902923
Si Si3 0.343790 0.323777 0.906679
Si Si4 0.500000 0.668700 0.250000
Si Si5 0.540425 0.881007 0.581819
Si Si6 0.005850 0.150469 0.021103
Si Si7 0.644171 0.852572 0.541520
O O1 0.264258 0.933821 0.453484
O O2 0.354581 0.807840 0.452651
O O3 0.431665 0.867213 0.749867
O O4 0.390108 0.029428 0.554671
O O5 0.096440 0.138772 0.686527
O O6 0.250000 0.250000 0.000000
O O7 0.164833 0.117257 0.988559
O O8 0.249806 0.334423 0.693774
O O9 0.422205 0.377707 0.957867
O O10 0.485079 0.606233 0.341460
O O11 0.585586 0.750001 0.406829
O O12 0.477019 0.782854 0.441122
O O13 0.628232 0.865108 0.645876
O O14 0.500000 0.000000 0.500000
#
# Coordination Sequence:
#
# PCOD9260410 Si02
#       7
#     8   8   8   4   8   8   8
#     4  11  20  37  61  88 126 164 198 258 319 361
#     4  10  18  37  61  86 117 158 211 254 296 365
#     4  11  22  38  62  93 122 163 219 257 307 379
#     4  10  22  40  56  88 136 158 194 262 324 382
#     4  11  20  34  57  92 126 156 197 256 320 376
#     4  11  21  36  61  88 121 165 206 255 310 374
#     4  11  23  38  57  92 128 161 206 260 313 376
#
# _framework density 23.721174999999999
#
# number of rings (size 3 to 8) (size 9 to 14) (size 15 to 20)
#    0.000    1.231    4.615    6.000    0.000    1.846 
#    0.000    2.308    0.000    0.000    0.000    0.000 
#    0.000    0.000    0.000    0.000    0.000    0.000 
#
# Total GULP energy -145210.824258 kJ/mol
# GULP energy per Si atom -5585.031702 kJ/mol
# Density = 2.366718 g / cm^3
# Si number density = 23.721175 Si / 1000 Ang^3
#
#
#
# Elastic Constant Matrix: (Units=GPa)
#
#
# Indices 1 2 3 4 5 6 
#
# 1 170.4684 3.1512 54.2526 0.0000 -5.5579 0.0000
# 2 3.1512 65.7276 1.3509 0.0000 0.2253 0.0000
# 3 54.2526 1.3509 119.7664 0.0000 2.8378 0.0000
# 4 0.0000 0.0000 0.0000 23.3447 0.0000 0.7430
# 5 -5.5579 0.2253 2.8378 0.0000 38.3668 0.0000
# 6 0.0000 0.0000 0.0000 0.7430 0.0000 2.8674
#
#
#
# Elastic Compliance Matrix: (Units=1/GPa)
#
#
# Indices 1 2 3 4 5 6 
#
# 1 0.006917 -0.000271 -0.003160 0.000000 0.001237 0.000000
# 2 -0.000271 0.015229 -0.000046 0.000000 -0.000125 0.000000
# 3 -0.003160 -0.000046 0.009809 0.000000 -0.001183 0.000000
# 4 0.000000 0.000000 0.000000 0.043192 0.000000 -0.011192
# 5 0.001237 -0.000125 -0.001183 0.000000 0.026332 0.000000
# 6 0.000000 0.000000 0.000000 -0.011192 0.000000 0.351645
#
#
# Mechanical properties :
#
#
# Convention : Reuss Voigt Hill
#
# Bulk Modulus (GPa) = 39.99690 52.60797 46.30243
# Shear Modulus (GPa) = 10.67437 32.72964 21.70200
#
# Velocity S-wave (km/s) = 2.12361 3.71855 3.02798
# Velocity P-wave (km/s) = 4.78652 6.37672 5.63797
#
# Compressibility (1/GPa) = 0.02500194
#
# Stress axis : x y z
#
# Youngs Moduli (GPa) = 144.56915 65.66555 101.94301
#
# Poissons Ratio (x) = 0.01779 0.32210
# Poissons Ratio (y) = 0.03917 0.00470
# Poissons Ratio (z) = 0.45678 0.00303
#
# Static dielectric constant tensor:
#      x y z
#    x 2.049410 0.000000 -0.000460 
#    y 0.000000 1.937470 0.000000 
#    z -0.000460 0.000000 1.867970 
# 
# From -- ./inp_files/118829.got.cif
#   From: 2010.05.17/outbox.cif.g08.bks.cpg/sg15_60_cif.got.tgz:118829.got - 2010.06.03 18:47:42.
