data_PCOD9260801
_publ_section_title
;
Structure prediction by ZEFSAII (Michael W. Deem and Ramdas Pophale) SiO2 
 PCOD9260801
Probable space group: C 2/C
;
_chemical_formula_sum "Si O2"
_cell_formula_units_Z 60
_cell_length_a 11.875628
_cell_length_b 13.705882
_cell_length_c 19.214801
_cell_angle_alpha 90.000000
_cell_angle_beta 84.680135
_cell_angle_gamma 90.000000
_cell_volume 3114.044034
_symmetry_space_group_name_H-M "C 2/C"
_symmetry_group_IT_number 15
_symmetry_cell_setting 'monoclinic'
loop_
_space_group_symop_operation_xyz
x,y,z
-x,y,1/2-z
-x,-y,-z
x,-y,1/2+z
1/2+x,1/2+y,z
1/2-x,1/2+y,1/2-z
1/2-x,1/2-y,-z
1/2+x,1/2-y,1/2+z
loop_
_atom_site_type_symbol
_atom_site_label
_atom_site_fract_x
_atom_site_fract_y
_atom_site_fract_z
Si Si1 0.500000 0.145117 0.750000
Si Si2 0.512118 0.318756 0.576457
Si Si3 0.109876 0.324398 0.871710
Si Si4 0.630644 0.878262 0.026916
Si Si5 0.115576 0.121201 0.931336
Si Si6 0.848696 0.822682 0.789524
Si Si7 0.574600 0.020427 0.140187
Si Si8 0.832771 0.069284 0.153806
O O1 0.395247 0.220950 0.754520
O O2 0.473427 0.072226 0.814651
O O3 0.545336 0.208803 0.552877
O O4 0.551999 0.383397 0.508716
O O5 0.583312 0.339261 0.642698
O O6 0.383457 0.342645 0.604120
O O7 0.071661 0.215525 0.893033
O O8 0.217703 0.317466 0.816242
O O9 0.011512 0.391407 0.848012
O O10 0.145723 0.372849 0.943588
O O11 0.752157 0.858539 0.056538
O O12 0.589136 0.980319 0.060720
O O13 0.112212 0.026669 0.883450
O O14 0.864873 0.905654 0.730906
O O15 0.698686 0.052670 0.157586
#
# Coordination Sequence:
#
# PCOD9260801 Si02
#       8
#     4   8   8   8   8   8   8   8
#     4  12  22  42  64  86 112 160 212 246 294 354
#     4  11  18  38  66  89 113 157 212 260 285 350
#     4  11  21  36  63  89 121 156 199 249 298 358
#     4  10  18  38  64  91 112 159 214 242 286 355
#     4  10  20  38  63  89 122 159 204 253 302 348
#     4  12  20  37  67  88 112 153 217 258 288 349
#     4  11  23  38  58  89 126 159 190 248 308 362
#     4  11  23  36  59  90 125 159 198 248 310 361
#
# _framework density 19.267551000000001
#
# number of rings (size 3 to 8) (size 9 to 14) (size 15 to 20)
#    0.000    1.067    5.333    3.200    0.000    0.000 
#    0.000    2.667   20.533    0.000    0.000    0.000 
#    0.000    0.000    0.000    0.000    0.000    0.000 
#
# Total GULP energy -167415.833334 kJ/mol
# GULP energy per Si atom -5580.527778 kJ/mol
# Density = 1.922370 g / cm^3
# Si number density = 19.267551 Si / 1000 Ang^3
#
#
#
# Elastic Constant Matrix: (Units=GPa)
#
#
# Indices 1 2 3 4 5 6 
#
# 1 76.7261 49.6236 40.7591 0.0000 -21.2173 0.0000
# 2 49.6236 80.7845 38.8960 0.0000 -3.6608 0.0000
# 3 40.7591 38.8960 94.9984 0.0000 -19.1357 0.0000
# 4 0.0000 0.0000 0.0000 36.1088 0.0000 0.7329
# 5 -21.2173 -3.6608 -19.1357 0.0000 28.7412 0.0000
# 6 0.0000 0.0000 0.0000 0.7329 0.0000 31.4137
#
#
#
# Elastic Compliance Matrix: (Units=1/GPa)
#
#
# Indices 1 2 3 4 5 6 
#
# 1 0.030103 -0.016477 -0.002444 0.000000 0.018497 0.000000
# 2 -0.016477 0.024605 -0.005571 0.000000 -0.012738 0.000000
# 3 -0.002444 -0.005571 0.015417 0.000000 0.007751 0.000000
# 4 0.000000 0.000000 0.000000 0.027707 0.000000 -0.000646
# 5 0.018497 -0.012738 0.007751 0.000000 0.051986 0.000000
# 6 0.000000 0.000000 0.000000 -0.000646 0.000000 0.031848
#
#
# Mechanical properties :
#
#
# Convention : Reuss Voigt Hill
#
# Bulk Modulus (GPa) = 47.29738 56.78515 52.04127
# Shear Modulus (GPa) = 21.03525 27.46811 24.25168
#
# Velocity S-wave (km/s) = 3.30774 3.77983 3.55164
# Velocity P-wave (km/s) = 6.26013 6.97032 6.62475
#
# Compressibility (1/GPa) = 0.02114282
#
# Stress axis : x y z
#
# Youngs Moduli (GPa) = 33.21919 40.64270 64.86299
#
# Poissons Ratio (x) = 0.66966 0.15850
# Poissons Ratio (y) = 0.54734 0.36133
# Poissons Ratio (z) = 0.08118 0.22641
#
# Static dielectric constant tensor:
#      x y z
#    x 1.686000 0.000000 -0.017400 
#    y 0.000000 1.675900 0.000000 
#    z -0.017400 0.000000 1.708960 
# 
# From -- ./inp_files/238352.got.cif
#   From: 2010.05.17/outbox.cif.g08.bks.cpg/sg15_120_cif.got.tgz:238352.got - 2010.06.03 18:47:42.
