data_PCOD9260033
_publ_section_title
;
Structure prediction by ZEFSAII (Michael W. Deem and Ramdas Pophale) SiO2 
 PCOD9260033
Probable space group: C 2/C
;
_chemical_formula_sum "Si O2"
_cell_formula_units_Z 56
_cell_length_a 28.452819
_cell_length_b 17.225760
_cell_length_c 18.807734
_cell_angle_alpha 90.000000
_cell_angle_beta 162.352303
_cell_angle_gamma 90.000000
_cell_volume 2794.581476
_symmetry_space_group_name_H-M "C 2/C"
_symmetry_group_IT_number 15
_symmetry_cell_setting 'monoclinic'
loop_
_space_group_symop_operation_xyz
x,y,z
-x,y,1/2-z
-x,-y,-z
x,-y,1/2+z
1/2+x,1/2+y,z
1/2-x,1/2+y,1/2-z
1/2-x,1/2-y,-z
1/2+x,1/2-y,1/2+z
loop_
_atom_site_type_symbol
_atom_site_label
_atom_site_fract_x
_atom_site_fract_y
_atom_site_fract_z
Si Si1 0.333227 0.445224 0.537829
Si Si2 0.358780 0.235216 0.962545
Si Si3 0.868855 0.506424 0.459353
Si Si4 0.773609 0.494452 0.479245
Si Si5 0.296189 0.181873 0.014144
Si Si6 0.269887 0.894657 0.686547
Si Si7 0.607834 0.138448 0.612964
O O1 0.500000 0.421768 0.750000
O O2 0.329184 0.453711 0.616967
O O3 0.293626 0.530728 0.447716
O O4 0.204868 0.386675 0.321842
O O5 0.351664 0.325407 0.974197
O O6 0.336353 0.215933 0.847502
O O7 0.248419 0.198792 0.863884
O O8 0.519030 0.190363 0.209401
O O9 0.769993 0.504470 0.389241
O O10 0.822468 0.574771 0.339481
O O11 0.855963 0.429231 0.392603
O O12 0.048688 0.510683 0.741149
O O13 0.742483 0.404319 0.452697
O O14 0.250000 0.250000 0.000000
O O15 0.425807 0.864984 0.871076
#
# Coordination Sequence:
#
# PCOD9260033 Si02
#       7
#     8   8   8   8   8   8   8
#     4  11  23  37  60  88 120 151 196 245 292 347
#     4  11  21  34  56  83 116 150 190 232 288 361
#     4  10  18  36  61  85 109 155 205 235 278 348
#     4  11  18  36  62  86 116 151 198 242 288 346
#     4  11  21  33  54  87 123 149 176 233 313 357
#     4  11  22  37  60  89 115 155 200 239 288 355
#     4  11  19  42  58  83 117 159 195 231 299 353
#
# _framework density 20.038778000000001
#
# number of rings (size 3 to 8) (size 9 to 14) (size 15 to 20)
#    0.000    1.143    5.714    3.429    4.000    0.000 
#    0.000    5.714    3.143    1.714    0.000    0.000 
#    0.000    0.000    0.000    0.000    0.000    0.000 
#
# Total GULP energy -156082.277859 kJ/mol
# GULP energy per Si atom -5574.367066 kJ/mol
# Density = 1.999317 g / cm^3
# Si number density = 20.038778 Si / 1000 Ang^3
#
#
#
# Elastic Constant Matrix: (Units=GPa)
#
#
# Indices 1 2 3 4 5 6 
#
# 1 141.5400 17.8846 -0.3175 0.0000 -5.7674 0.0001
# 2 17.8846 37.7955 -4.9533 0.0000 -6.4052 0.0000
# 3 -0.3175 -4.9533 17.6057 0.0001 3.2314 0.0001
# 4 0.0000 0.0000 0.0001 9.6979 0.0001 3.8823
# 5 -5.7674 -6.4052 3.2314 0.0001 23.2106 0.0001
# 6 0.0001 0.0000 0.0001 3.8823 0.0001 22.7758
#
#
#
# Elastic Compliance Matrix: (Units=1/GPa)
#
#
# Indices 1 2 3 4 5 6 
#
# 1 0.007552 -0.003534 -0.001050 0.000000 0.001048 0.000000
# 2 -0.003534 0.030171 0.007243 0.000000 0.006440 0.000000
# 3 -0.001050 0.007243 0.060034 0.000000 -0.006620 0.000000
# 4 0.000000 0.000000 0.000000 0.110666 0.000000 -0.018864
# 5 0.001048 0.006440 -0.006620 0.000000 0.046043 0.000000
# 6 0.000000 0.000000 0.000000 -0.018864 0.000000 0.047122
#
#
# Mechanical properties :
#
#
# Convention : Reuss Voigt Hill
#
# Bulk Modulus (GPa) = 9.70176 24.68542 17.19359
# Shear Modulus (GPa) = 15.12278 23.42536 19.27407
#
# Velocity S-wave (km/s) = 2.75012 3.42278 3.10472
# Velocity P-wave (km/s) = 3.86474 5.28830 4.63154
#
# Compressibility (1/GPa) = 0.10307410
#
# Stress axis : x y z
#
# Youngs Moduli (GPa) = 132.41573 33.14465 16.65736
#
# Poissons Ratio (x) = 0.11712 0.01749
# Poissons Ratio (y) = 0.46791 -0.12065
# Poissons Ratio (z) = 0.13907 -0.24006
#
# Static dielectric constant tensor:
#      x y z
#    x 1.805030 0.000000 -0.040560 
#    y 0.000000 1.732350 0.000000 
#    z -0.040560 0.000000 1.663120 
# 
# From -- ./inp_files/222973.got.cif
#   From: 2010.05.17/outbox.cif.g08.bks.cpg/sg15_112_cif.got.tgz:222973.got - 2010.06.03 18:47:42.
