data_PCOD9260681
_publ_section_title
;
Structure prediction by ZEFSAII (Michael W. Deem and Ramdas Pophale) SiO2 
 PCOD9260681
Probable space group: C 2/C
;
_chemical_formula_sum "Si O2"
_cell_formula_units_Z 56
_cell_length_a 17.234906
_cell_length_b 8.152293
_cell_length_c 19.456622
_cell_angle_alpha 90.000000
_cell_angle_beta 122.313033
_cell_angle_gamma 90.000000
_cell_volume 2310.388068
_symmetry_space_group_name_H-M "C 2/C"
_symmetry_group_IT_number 15
_symmetry_cell_setting 'monoclinic'
loop_
_space_group_symop_operation_xyz
x,y,z
-x,y,1/2-z
-x,-y,-z
x,-y,1/2+z
1/2+x,1/2+y,z
1/2-x,1/2+y,1/2-z
1/2-x,1/2-y,-z
1/2+x,1/2-y,1/2+z
loop_
_atom_site_type_symbol
_atom_site_label
_atom_site_fract_x
_atom_site_fract_y
_atom_site_fract_z
Si Si1 0.365035 0.735938 0.867506
Si Si2 0.431523 0.189666 0.887946
Si Si3 0.710339 0.578442 0.244052
Si Si4 0.057406 0.516404 0.340030
Si Si5 0.106230 0.173649 0.324376
Si Si6 0.581265 0.772667 0.970417
Si Si7 0.607296 0.596084 0.480385
O O1 0.319570 0.577061 0.812465
O O2 0.316759 0.887674 0.807260
O O3 0.473125 0.739761 0.905880
O O4 0.349020 0.714121 0.941610
O O5 0.339286 0.264900 0.814128
O O6 0.489878 0.080383 0.862046
O O7 0.500076 0.347175 0.931987
O O8 0.414142 0.123885 0.956766
O O9 0.666700 0.578462 0.298870
O O10 0.115249 0.371628 0.331233
O O11 0.113024 0.636813 0.416252
O O12 0.000000 0.595367 0.250000
O O13 0.130737 0.119975 0.412407
O O14 0.000000 0.145730 0.250000
O O15 0.623498 0.594285 0.004033
#
# Coordination Sequence:
#
# PCOD9260681 Si02
#       7
#     8   8   8   8   8   8   8
#     4  11  25  38  60  90 122 160 193 253 296 359
#     4  10  18  38  61  82 115 155 196 241 287 351
#     4  12  22  40  62  85 123 158 199 245 302 348
#     4  10  20  32  56  93 115 145 192 248 289 345
#     4  10  19  38  64  86 115 160 200 243 291 356
#     4  11  20  37  63  91 116 149 205 245 298 345
#     4  10  19  40  64  86 117 154 205 242 296 353
#
# _framework density 24.238353
#
# number of rings (size 3 to 8) (size 9 to 14) (size 15 to 20)
#    0.000    1.429    7.143    1.286    2.000    2.286 
#    0.000    0.000    0.000    1.714    0.000    0.000 
#    0.000    0.000    0.000    0.000    0.000    0.000 
#
# Total GULP energy -156515.501745 kJ/mol
# GULP energy per Si atom -5589.839348 kJ/mol
# Density = 2.418319 g / cm^3
# Si number density = 24.238353 Si / 1000 Ang^3
#
#
#
# Elastic Constant Matrix: (Units=GPa)
#
#
# Indices 1 2 3 4 5 6 
#
# 1 22.3969 -6.9268 19.7787 0.0000 -7.3033 0.0000
# 2 -6.9268 57.2257 21.0321 0.0000 -6.2883 0.0000
# 3 19.7787 21.0321 122.4676 0.0000 -33.8171 0.0000
# 4 0.0000 0.0000 0.0000 48.4377 0.0000 -6.1875
# 5 -7.3033 -6.2883 -33.8171 0.0000 50.0513 0.0000
# 6 0.0000 0.0000 0.0000 -6.1875 0.0000 17.7602
#
#
#
# Elastic Compliance Matrix: (Units=1/GPa)
#
#
# Indices 1 2 3 4 5 6 
#
# 1 0.058402 0.011270 -0.010601 0.000000 0.002775 0.000000
# 2 0.011270 0.020829 -0.005189 0.000000 0.000756 0.000000
# 3 -0.010601 -0.005189 0.012492 0.000000 0.006241 0.000000
# 4 0.000000 0.000000 0.000000 0.021607 0.000000 0.007528
# 5 0.002775 0.000756 0.006241 0.000000 0.024696 0.000000
# 6 0.000000 0.000000 0.000000 0.007528 0.000000 0.058928
#
#
# Mechanical properties :
#
#
# Convention : Reuss Voigt Hill
#
# Bulk Modulus (GPa) = 12.09431 29.98426 21.03928
# Shear Modulus (GPa) = 21.40833 34.46355 27.93594
#
# Velocity S-wave (km/s) = 2.97516 3.77485 3.39861
# Velocity P-wave (km/s) = 4.09911 5.60328 4.90915
#
# Compressibility (1/GPa) = 0.08268354
#
# Stress axis : x y z
#
# Youngs Moduli (GPa) = 17.12283 48.01036 80.05083
#
# Poissons Ratio (x) = -0.54109 0.84863
# Poissons Ratio (y) = -0.19298 0.41535
# Poissons Ratio (z) = 0.18152 0.24910
#
# Static dielectric constant tensor:
#      x y z
#    x 2.012380 0.000000 0.000300 
#    y 0.000000 2.014380 0.000000 
#    z 0.000300 0.000000 1.956970 
# 
# From -- ./inp_files/251971.got.cif
#   From: 2010.05.17/outbox.cif.g08.bks.cpg/sg15_126_cif.got.tgz:251971.got - 2010.06.03 18:47:42.
