data_PCOD9260615
_publ_section_title
;
Structure prediction by ZEFSAII (Michael W. Deem and Ramdas Pophale) SiO2 
 PCOD9260615
Probable space group: C 2/C
;
_chemical_formula_sum "Si O2"
_cell_formula_units_Z 52
_cell_length_a 25.727634
_cell_length_b 18.316896
_cell_length_c 5.038686
_cell_angle_alpha 90.000000
_cell_angle_beta 93.393136
_cell_angle_gamma 90.000000
_cell_volume 2370.320129
_symmetry_space_group_name_H-M "C 2/C"
_symmetry_group_IT_number 15
_symmetry_cell_setting 'monoclinic'
loop_
_space_group_symop_operation_xyz
x,y,z
-x,y,1/2-z
-x,-y,-z
x,-y,1/2+z
1/2+x,1/2+y,z
1/2-x,1/2+y,1/2-z
1/2-x,1/2-y,-z
1/2+x,1/2-y,1/2+z
loop_
_atom_site_type_symbol
_atom_site_label
_atom_site_fract_x
_atom_site_fract_y
_atom_site_fract_z
Si Si1 0.161607 0.161547 0.912080
Si Si2 0.000000 0.686977 0.750000
Si Si3 0.862265 0.450059 0.530700
Si Si4 0.552020 0.698016 0.870349
Si Si5 0.811401 0.248731 0.082590
Si Si6 0.745545 0.545120 0.102973
Si Si7 0.405139 0.834335 0.912192
O O1 0.100856 0.148662 0.958363
O O2 0.169745 0.184336 0.610192
O O3 0.178684 0.228353 0.108945
O O4 0.199331 0.096831 0.002754
O O5 0.955405 0.639733 0.592804
O O6 0.032757 0.743297 0.578865
O O7 0.869285 0.482114 0.239646
O O8 0.802508 0.424263 0.550069
O O9 0.897210 0.385381 0.655258
O O10 0.500000 0.659698 0.750000
O O11 0.575444 0.753438 0.660291
O O12 0.750000 0.250000 0.000000
O O13 0.848779 0.318279 0.029265
O O14 0.742845 0.525775 0.411559
#
# Coordination Sequence:
#
# PCOD9260615 Si02
#       7
#     8   4   8   8   8   8   8
#     4  11  21  37  58  89 115 152 194 229 290 359
#     4  10  18  38  58  80 114 148 192 236 304 336
#     4  10  23  38  57  80 112 155 196 232 279 338
#     4   9  20  36  59  86 114 149 188 241 299 346
#     4  11  22  34  56  91 121 146 182 244 302 349
#     4  10  21  39  58  82 117 158 192 230 278 340
#     4  10  21  36  58  82 116 151 191 240 291 340
#
# _framework density 21.937965999999999
#
# number of rings (size 3 to 8) (size 9 to 14) (size 15 to 20)
#    0.000    1.846    1.538    2.308    2.154    3.692 
#    0.000    0.769    0.000    0.923    0.000    0.000 
#    0.000    0.000    0.000    0.000    0.000    0.000 
#
# Total GULP energy -145094.856882 kJ/mol
# GULP energy per Si atom -5580.571419 kJ/mol
# Density = 2.188803 g / cm^3
# Si number density = 21.937966 Si / 1000 Ang^3
#
#
#
# Elastic Constant Matrix: (Units=GPa)
#
#
# Indices 1 2 3 4 5 6 
#
# 1 139.9559 19.0105 26.8615 0.0000 27.6515 0.0000
# 2 19.0105 16.1992 4.9104 0.0000 7.2662 0.0000
# 3 26.8615 4.9104 56.0782 0.0000 11.4026 0.0000
# 4 0.0000 0.0000 0.0000 26.9181 0.0000 9.2651
# 5 27.6515 7.2662 11.4026 0.0000 40.3468 0.0000
# 6 0.0000 0.0000 0.0000 9.2651 0.0000 27.0113
#
#
#
# Elastic Compliance Matrix: (Units=1/GPa)
#
#
# Indices 1 2 3 4 5 6 
#
# 1 0.009740 -0.008593 -0.003045 0.000000 -0.004267 0.000000
# 2 -0.008593 0.075441 -0.000981 0.000000 -0.007420 0.000000
# 3 -0.003045 -0.000981 0.020070 0.000000 -0.003408 0.000000
# 4 0.000000 0.000000 0.000000 0.042123 0.000000 -0.014449
# 5 -0.004267 -0.007420 -0.003408 0.000000 0.030009 0.000000
# 6 0.000000 0.000000 0.000000 -0.014449 0.000000 0.041978
#
#
# Mechanical properties :
#
#
# Convention : Reuss Voigt Hill
#
# Bulk Modulus (GPa) = 12.49809 34.86643 23.68226
# Shear Modulus (GPa) = 18.43183 29.61863 24.02523
#
# Velocity S-wave (km/s) = 2.90173 3.67837 3.31289
# Velocity P-wave (km/s) = 4.11535 5.82823 5.04501
#
# Compressibility (1/GPa) = 0.08001222
#
# Stress axis : x y z
#
# Youngs Moduli (GPa) = 102.67117 13.25535 49.82589
#
# Poissons Ratio (x) = 0.11390 0.15174
# Poissons Ratio (y) = 0.88226 0.04888
# Poissons Ratio (z) = 0.31267 0.01300
#
# Static dielectric constant tensor:
#      x y z
#    x 1.886030 0.000000 0.010990 
#    y 0.000000 1.814470 0.000000 
#    z 0.010990 0.000000 1.896140 
# 
# From -- ./inp_files/13316.got.cif
#   From: 2010.05.17/outbox.cif.g08.bks.cpg/sg15_7_cif.got.tgz:13316.got - 2010.06.03 18:47:42.
