data_PCOD9260659
_publ_section_title
;
Structure prediction by ZEFSAII (Michael W. Deem and Ramdas Pophale) SiO2 
 PCOD9260659
Probable space group: C 2/C
;
_chemical_formula_sum "Si O2"
_cell_formula_units_Z 48
_cell_length_a 28.263130
_cell_length_b 9.599200
_cell_length_c 17.472926
_cell_angle_alpha 90.000000
_cell_angle_beta 147.818167
_cell_angle_gamma 90.000000
_cell_volume 2524.809254
_symmetry_space_group_name_H-M "C 2/C"
_symmetry_group_IT_number 15
_symmetry_cell_setting 'monoclinic'
loop_
_space_group_symop_operation_xyz
x,y,z
-x,y,1/2-z
-x,-y,-z
x,-y,1/2+z
1/2+x,1/2+y,z
1/2-x,1/2+y,1/2-z
1/2-x,1/2-y,-z
1/2+x,1/2-y,1/2+z
loop_
_atom_site_type_symbol
_atom_site_label
_atom_site_fract_x
_atom_site_fract_y
_atom_site_fract_z
Si Si1 0.243428 0.090466 0.647024
Si Si2 0.591830 0.518437 0.673723
Si Si3 0.913178 0.834599 0.681393
Si Si4 0.822291 0.153085 0.336456
Si Si5 0.070544 0.586209 0.685776
Si Si6 0.010085 0.709051 0.075769
O O1 0.171269 0.140831 0.487313
O O2 0.260397 0.216076 0.730561
O O3 0.336238 0.068567 0.730478
O O4 0.211963 0.949320 0.644994
O O5 0.500000 0.500000 0.500000
O O6 0.588132 0.437724 0.748135
O O7 0.665402 0.445245 0.721861
O O8 0.591393 0.682949 0.688555
O O9 0.916912 0.681135 0.723302
O O10 0.000000 0.859546 0.750000
O O11 0.920753 0.217558 0.485368
O O12 0.009936 0.667410 0.540197
O O13 0.029757 0.435306 0.644467
#
# Coordination Sequence:
#
# PCOD9260659 Si02
#       6
#     8   8   8   8   8   8
#     4  11  24  40  64  94 129 159 218 260 322 365
#     4  10  18  38  60  88 121 160 208 253 307 373
#     4  12  23  38  64  93 123 171 209 259 313 376
#     4  10  22  39  63  92 123 168 208 263 310 387
#     4  10  21  38  62  92 127 162 203 269 301 371
#     4   9  19  38  64  86 121 164 212 242 320 367
#
# _framework density 19.011337999999999
#
# number of rings (size 3 to 8) (size 9 to 14) (size 15 to 20)
#    0.000    1.667    5.000    2.500    2.333    2.667 
#    0.000    5.000    0.000    0.000    0.000    0.000 
#    0.000    0.000    0.000    0.000    0.000    0.000 
#
# Total GULP energy -133953.975968 kJ/mol
# GULP energy per Si atom -5581.415665 kJ/mol
# Density = 1.896807 g / cm^3
# Si number density = 19.011338 Si / 1000 Ang^3
#
#
#
# Elastic Constant Matrix: (Units=GPa)
#
#
# Indices 1 2 3 4 5 6 
#
# 1 51.6668 16.1317 20.5346 0.0000 -5.2028 0.0000
# 2 16.1317 121.1746 52.3061 0.0000 6.3836 0.0000
# 3 20.5346 52.3061 76.2157 0.0000 -5.4969 0.0000
# 4 0.0000 0.0000 0.0000 27.8364 0.0000 5.0989
# 5 -5.2028 6.3836 -5.4969 0.0000 14.2151 0.0000
# 6 0.0000 0.0000 0.0000 5.0989 0.0000 8.4722
#
#
#
# Elastic Compliance Matrix: (Units=1/GPa)
#
#
# Indices 1 2 3 4 5 6 
#
# 1 0.022302 -0.001368 -0.004564 0.000000 0.007012 0.000000
# 2 -0.001368 0.012935 -0.009221 0.000000 -0.009875 0.000000
# 3 -0.004564 -0.009221 0.021455 0.000000 0.010767 0.000000
# 4 0.000000 0.000000 0.000000 0.040375 0.000000 -0.024299
# 5 0.007012 -0.009875 0.010767 0.000000 0.081513 0.000000
# 6 0.000000 0.000000 0.000000 -0.024299 0.000000 0.132658
#
#
# Mechanical properties :
#
#
# Convention : Reuss Voigt Hill
#
# Bulk Modulus (GPa) = 37.89893 47.44466 42.67179
# Shear Modulus (GPa) = 14.27184 20.77703 17.52444
#
# Velocity S-wave (km/s) = 2.74287 3.30945 3.03939
# Velocity P-wave (km/s) = 5.47807 6.29392 5.90012
#
# Compressibility (1/GPa) = 0.02638597
#
# Stress axis : x y z
#
# Youngs Moduli (GPa) = 44.83886 77.30799 46.60893
#
# Poissons Ratio (x) = 0.10579 0.21272
# Poissons Ratio (y) = 0.06136 0.42978
# Poissons Ratio (z) = 0.20464 0.71285
#
# Static dielectric constant tensor:
#      x y z
#    x 1.660660 0.000000 0.022650 
#    y 0.000000 1.704830 0.000000 
#    z 0.022650 0.000000 1.662760 
# 
# From -- ./inp_files/177018.got.cif
#   From: 2010.05.17/outbox.cif.g08.bks.cpg/sg15_89_cif.got.tgz:177018.got - 2010.06.03 18:47:42.
