data_PCOD9260300
_publ_section_title
;
Structure prediction by ZEFSAII (Michael W. Deem and Ramdas Pophale) SiO2 
 PCOD9260300
Probable space group: C 2/C
;
_chemical_formula_sum "Si O2"
_cell_formula_units_Z 52
_cell_length_a 11.459565
_cell_length_b 25.382336
_cell_length_c 9.071628
_cell_angle_alpha 90.000000
_cell_angle_beta 103.039496
_cell_angle_gamma 90.000000
_cell_volume 2570.630535
_symmetry_space_group_name_H-M "C 2/C"
_symmetry_group_IT_number 15
_symmetry_cell_setting 'monoclinic'
loop_
_space_group_symop_operation_xyz
x,y,z
-x,y,1/2-z
-x,-y,-z
x,-y,1/2+z
1/2+x,1/2+y,z
1/2-x,1/2+y,1/2-z
1/2-x,1/2-y,-z
1/2+x,1/2-y,1/2+z
loop_
_atom_site_type_symbol
_atom_site_label
_atom_site_fract_x
_atom_site_fract_y
_atom_site_fract_z
Si Si1 0.500000 0.145940 0.250000
Si Si2 0.904277 0.998023 0.844634
Si Si3 0.440327 0.780603 0.464234
Si Si4 0.740713 0.093289 0.232298
Si Si5 0.840056 0.897335 0.441500
Si Si6 0.056742 0.168389 0.108585
Si Si7 0.311859 0.792473 0.128606
O O1 0.562058 0.183229 0.391951
O O2 0.603638 0.108954 0.212546
O O3 0.796097 0.957122 0.830843
O O4 0.000000 0.981196 0.750000
O O5 0.849776 0.056990 0.823094
O O6 0.000000 0.000000 0.000000
O O7 0.448550 0.718285 0.500169
O O8 0.338221 0.779517 0.307717
O O9 0.560451 0.799978 0.414760
O O10 0.816962 0.143444 0.312310
O O11 0.776368 0.082550 0.072753
O O12 0.766509 0.844909 0.385349
O O13 0.972310 0.877267 0.522103
O O14 0.000000 0.186278 0.250000
O O15 0.250000 0.750000 0.000000
#
# Coordination Sequence:
#
# PCOD9260300 Si02
#       7
#     4   8   8   8   8   8   8
#     4  12  28  44  62  96 150 192 224 276 350 420
#     4  12  23  43  72 103 127 164 225 296 349 396
#     4  11  23  39  63  99 136 181 230 276 334 420
#     4  11  23  43  66  96 137 184 224 280 351 413
#     4  11  21  40  72  99 130 174 223 284 349 408
#     4  10  18  36  69  96 124 176 232 277 344 403
#     4  11  20  41  70  97 133 180 231 275 340 420
#
# _framework density 20.228501000000001
#
# number of rings (size 3 to 8) (size 9 to 14) (size 15 to 20)
#    0.000    0.923    7.692    1.385    0.000    1.846 
#    1.385    2.308    0.000    0.000    0.000    0.000 
#    0.000    0.000    0.000    0.000    0.000    0.000 
#
# Total GULP energy -144932.996878 kJ/mol
# GULP energy per Si atom -5574.346034 kJ/mol
# Density = 2.018246 g / cm^3
# Si number density = 20.228501 Si / 1000 Ang^3
#
#
#
# Elastic Constant Matrix: (Units=GPa)
#
#
# Indices 1 2 3 4 5 6 
#
# 1 78.7123 29.0742 3.4633 0.0000 13.1709 0.0000
# 2 29.0742 113.5076 16.4558 0.0000 10.6180 0.0000
# 3 3.4633 16.4558 73.6496 0.0000 13.7935 0.0000
# 4 0.0000 0.0000 0.0000 30.2785 0.0000 4.7994
# 5 13.1709 10.6180 13.7935 0.0000 17.9473 0.0000
# 6 0.0000 0.0000 0.0000 4.7994 0.0000 29.1306
#
#
#
# Elastic Compliance Matrix: (Units=1/GPa)
#
#
# Indices 1 2 3 4 5 6 
#
# 1 0.015694 -0.003277 0.002089 0.000000 -0.011184 0.000000
# 2 -0.003277 0.010106 -0.001676 0.000000 -0.002286 0.000000
# 3 0.002089 -0.001676 0.016302 0.000000 -0.013070 0.000000
# 4 0.000000 0.000000 0.000000 0.033912 0.000000 -0.005587
# 5 -0.011184 -0.002286 -0.013070 0.000000 0.075324 0.000000
# 6 0.000000 0.000000 0.000000 -0.005587 0.000000 0.035249
#
#
# Mechanical properties :
#
#
# Convention : Reuss Voigt Hill
#
# Bulk Modulus (GPa) = 27.49124 40.42847 33.95985
# Shear Modulus (GPa) = 24.45705 29.92970 27.19338
#
# Velocity S-wave (km/s) = 3.48090 3.85070 3.67046
# Velocity P-wave (km/s) = 5.45668 6.30871 5.89810
#
# Compressibility (1/GPa) = 0.03637523
#
# Stress axis : x y z
#
# Youngs Moduli (GPa) = 63.71711 98.95028 61.34255
#
# Poissons Ratio (x) = 0.32422 -0.12813
# Poissons Ratio (y) = 0.20878 0.10279
# Poissons Ratio (z) = -0.13309 0.16581
#
# Static dielectric constant tensor:
#      x y z
#    x 1.738640 0.000000 0.009850 
#    y 0.000000 1.826850 0.000000 
#    z 0.009850 0.000000 1.742770 
# 
# From -- ./inp_files/33749.got.cif
#   From: 2010.05.17/outbox.cif.g08.bks.cpg/sg15_17_cif.got.tgz:33749.got - 2010.06.03 18:47:42.
