data_PCOD9260619
_publ_section_title
;
Structure prediction by ZEFSAII (Michael W. Deem and Ramdas Pophale) SiO2 
 PCOD9260619
Probable space group: C 2/C
;
_chemical_formula_sum "Si O2"
_cell_formula_units_Z 56
_cell_length_a 8.973175
_cell_length_b 15.011363
_cell_length_c 19.543160
_cell_angle_alpha 90.000000
_cell_angle_beta 100.014119
_cell_angle_gamma 90.000000
_cell_volume 2592.349945
_symmetry_space_group_name_H-M "C 2/C"
_symmetry_group_IT_number 15
_symmetry_cell_setting 'monoclinic'
loop_
_space_group_symop_operation_xyz
x,y,z
-x,y,1/2-z
-x,-y,-z
x,-y,1/2+z
1/2+x,1/2+y,z
1/2-x,1/2+y,1/2-z
1/2-x,1/2-y,-z
1/2+x,1/2-y,1/2+z
loop_
_atom_site_type_symbol
_atom_site_label
_atom_site_fract_x
_atom_site_fract_y
_atom_site_fract_z
Si Si1 0.818371 0.109366 0.743235
Si Si2 0.759013 0.244574 0.153638
Si Si3 0.421871 0.375329 0.457264
Si Si4 0.538177 0.310135 0.602209
Si Si5 0.300752 0.687698 0.603153
Si Si6 0.763748 0.975708 0.858553
Si Si7 0.002003 0.359163 0.831854
O O1 0.774446 0.198617 0.781067
O O2 0.761491 0.121194 0.661990
O O3 0.761726 0.031290 0.788135
O O4 0.000000 0.102169 0.750000
O O5 0.681691 0.299854 0.086070
O O6 0.667236 0.153025 0.154442
O O7 0.933195 0.234007 0.150418
O O8 0.432129 0.358263 0.538137
O O9 0.593389 0.363040 0.442249
O O10 0.348887 0.465651 0.422540
O O11 0.645978 0.238431 0.572370
O O12 0.642635 0.385272 0.643782
O O13 0.409540 0.767823 0.640063
O O14 0.597673 0.942610 0.866339
O O15 0.000000 0.364977 0.750000
#
# Coordination Sequence:
#
# PCOD9260619 Si02
#       7
#     8   8   8   8   8   8   8
#     4  11  18  41  60  82 118 157 193 245 316 355
#     4  10  20  37  63  84 118 158 194 252 297 350
#     4  10  20  42  61  82 124 162 197 241 299 360
#     4  11  23  37  60  96 115 153 209 246 288 364
#     4  10  19  38  65  83 113 160 204 245 296 352
#     4  10  23  36  61  85 119 158 195 246 305 357
#     4  10  18  38  58  83 114 158 192 238 301 366
#
# _framework density 21.602021000000001
#
# number of rings (size 3 to 8) (size 9 to 14) (size 15 to 20)
#    0.000    1.714    5.714    1.286    0.000    1.714 
#    5.143    0.714    0.000    0.000    0.000    0.000 
#    0.000    0.000    0.000    0.000    0.000    0.000 
#
# Total GULP energy -156349.576757 kJ/mol
# GULP energy per Si atom -5583.913456 kJ/mol
# Density = 2.155285 g / cm^3
# Si number density = 21.602021 Si / 1000 Ang^3
#
#
#
# Elastic Constant Matrix: (Units=GPa)
#
#
# Indices 1 2 3 4 5 6 
#
# 1 72.1951 26.2571 -16.6237 0.0000 -10.8991 0.0000
# 2 26.2571 62.9222 -6.4689 0.0000 -8.2421 0.0000
# 3 -16.6237 -6.4689 24.9208 0.0000 -5.1574 0.0000
# 4 0.0000 0.0000 0.0000 13.4026 0.0000 0.3669
# 5 -10.8991 -8.2421 -5.1574 0.0000 18.8023 0.0000
# 6 0.0000 0.0000 0.0000 0.3669 0.0000 30.4374
#
#
#
# Elastic Compliance Matrix: (Units=1/GPa)
#
#
# Indices 1 2 3 4 5 6 
#
# 1 0.021778 -0.005514 0.016123 0.000000 0.014630 0.000000
# 2 -0.005514 0.019232 0.002542 0.000000 0.005931 0.000000
# 3 0.016123 0.002542 0.056939 0.000000 0.026079 0.000000
# 4 0.000000 0.000000 0.000000 0.074637 0.000000 -0.000900
# 5 0.014630 0.005931 0.026079 0.000000 0.071419 0.000000
# 6 0.000000 0.000000 0.000000 -0.000900 0.000000 0.032865
#
#
# Mechanical properties :
#
#
# Convention : Reuss Voigt Hill
#
# Bulk Modulus (GPa) = 8.04822 18.48525 13.26673
# Shear Modulus (GPa) = 17.12422 22.98670 20.05546
#
# Velocity S-wave (km/s) = 2.81857 3.26559 3.05028
# Velocity P-wave (km/s) = 3.78500 4.77436 4.30818
#
# Compressibility (1/GPa) = 0.12425106
#
# Stress axis : x y z
#
# Youngs Moduli (GPa) = 45.91810 51.99725 17.56262
#
# Poissons Ratio (x) = 0.28671 -0.28317
# Poissons Ratio (y) = 0.25319 -0.04464
# Poissons Ratio (z) = -0.74036 -0.13215
#
# Static dielectric constant tensor:
#      x y z
#    x 1.813010 0.000000 0.029970 
#    y 0.000000 1.807030 0.000000 
#    z 0.029970 0.000000 1.761990 
# 
# From -- ./inp_files/231581.got.cif
#   From: 2010.05.17/outbox.cif.g08.bks.cpg/sg15_116_cif.got.tgz:231581.got - 2010.06.03 18:47:42.
