data_PCOD9260547
_publ_section_title
;
Structure prediction by ZEFSAII (Michael W. Deem and Ramdas Pophale) SiO2 
 PCOD9260547
Probable space group: C 2/C
;
_chemical_formula_sum "Si O2"
_cell_formula_units_Z 64
_cell_length_a 24.160345
_cell_length_b 11.947012
_cell_length_c 14.718961
_cell_angle_alpha 90.000000
_cell_angle_beta 37.115161
_cell_angle_gamma 90.000000
_cell_volume 2563.649081
_symmetry_space_group_name_H-M "C 2/C"
_symmetry_group_IT_number 15
_symmetry_cell_setting 'monoclinic'
loop_
_space_group_symop_operation_xyz
x,y,z
-x,y,1/2-z
-x,-y,-z
x,-y,1/2+z
1/2+x,1/2+y,z
1/2-x,1/2+y,1/2-z
1/2-x,1/2-y,-z
1/2+x,1/2-y,1/2+z
loop_
_atom_site_type_symbol
_atom_site_label
_atom_site_fract_x
_atom_site_fract_y
_atom_site_fract_z
Si Si1 0.200157 0.688761 0.282457
Si Si2 0.595427 0.753643 0.543371
Si Si3 0.601329 0.314915 0.733629
Si Si4 0.658267 0.188534 0.150433
Si Si5 0.580553 0.567423 0.442110
Si Si6 0.884282 0.560003 0.809947
Si Si7 0.085590 0.507439 0.516543
Si Si8 0.884380 0.136759 0.485470
O O1 0.302887 0.704505 0.113205
O O2 0.137310 0.726860 0.279416
O O3 0.163308 0.567601 0.357485
O O4 0.182013 0.768799 0.390200
O O5 0.590264 0.780938 0.657395
O O6 0.539505 0.657668 0.566089
O O7 0.588461 0.874288 0.506432
O O8 0.639829 0.188388 0.678155
O O9 0.628823 0.378406 0.604869
O O10 0.488944 0.318544 0.870098
O O11 0.628568 0.372403 0.793066
O O12 0.671195 0.053730 0.138812
O O13 0.750000 0.250000 0.000000
O O14 0.500000 0.500000 0.500000
O O15 0.631315 0.474872 0.436204
O O16 0.898908 0.546187 0.899302
O O17 0.982057 0.544154 0.631449
#
# Coordination Sequence:
#
# PCOD9260547 Si02
#       8
#     8   8   8   8   8   8   8   8
#     4  11  21  38  65  93 130 179 218 272 348 404
#     4  10  24  42  60  91 137 171 225 278 331 414
#     4  10  19  39  62  95 125 162 226 287 336 405
#     4   9  22  40  60  96 139 180 214 268 348 410
#     4  10  24  41  64  89 127 176 223 281 344 412
#     4  10  18  37  66  96 133 164 222 286 325 398
#     4  10  20  37  65  98 124 171 222 278 336 397
#     4  10  20  39  62  89 127 169 214 275 349 397
#
# _framework density 24.964414000000001
#
# number of rings (size 3 to 8) (size 9 to 14) (size 15 to 20)
#    0.000    2.000    2.500    0.750    3.500    3.500 
#    0.000   10.625    0.000    0.000    0.000    0.000 
#    0.000    0.000    0.000    0.000    0.000    0.000 
#
# Total GULP energy -178873.285275 kJ/mol
# GULP energy per Si atom -5589.790165 kJ/mol
# Density = 2.490759 g / cm^3
# Si number density = 24.964414 Si / 1000 Ang^3
#
#
#
# Elastic Constant Matrix: (Units=GPa)
#
#
# Indices 1 2 3 4 5 6 
#
# 1 70.2393 44.5281 28.4597 0.0000 21.3043 0.0000
# 2 44.5281 168.7494 30.1099 0.0000 12.9074 0.0000
# 3 28.4597 30.1099 68.8127 0.0000 17.0739 0.0000
# 4 0.0000 0.0000 0.0000 47.6683 0.0000 7.0724
# 5 21.3043 12.9074 17.0739 0.0000 43.4075 0.0000
# 6 0.0000 0.0000 0.0000 7.0724 0.0000 37.5091
#
#
#
# Elastic Compliance Matrix: (Units=1/GPa)
#
#
# Indices 1 2 3 4 5 6 
#
# 1 0.021080 -0.004098 -0.005164 0.000000 -0.007096 0.000000
# 2 -0.004098 0.007256 -0.001600 0.000000 0.000483 0.000000
# 3 -0.005164 -0.001600 0.018419 0.000000 -0.004234 0.000000
# 4 0.000000 0.000000 0.000000 0.021582 0.000000 -0.004069
# 5 -0.007096 0.000483 -0.004234 0.000000 0.028042 0.000000
# 6 0.000000 0.000000 0.000000 -0.004069 0.000000 0.027428
#
#
# Mechanical properties :
#
#
# Convention : Reuss Voigt Hill
#
# Bulk Modulus (GPa) = 39.95246 57.11077 48.53161
# Shear Modulus (GPa) = 32.49409 39.36388 35.92899
#
# Velocity S-wave (km/s) = 3.61171 3.97520 3.79781
# Velocity P-wave (km/s) = 5.78196 6.63296 6.22203
#
# Compressibility (1/GPa) = 0.02502975
#
# Stress axis : x y z
#
# Youngs Moduli (GPa) = 47.43867 137.82021 54.29238
#
# Poissons Ratio (x) = 0.56480 0.28039
# Poissons Ratio (y) = 0.19441 0.08686
# Poissons Ratio (z) = 0.24499 0.22049
#
# Static dielectric constant tensor:
#      x y z
#    x 2.248220 0.000000 0.087480 
#    y 0.000000 1.948430 0.000000 
#    z 0.087480 0.000000 2.089390 
# 
# From -- ./inp_files/177819.got.cif
#   From: 2010.05.17/outbox.cif.g08.bks.cpg/sg15_89_cif.got.tgz:177819.got - 2010.06.03 18:47:42.
