data_PCOD9260506
_publ_section_title
;
Structure prediction by ZEFSAII (Michael W. Deem and Ramdas Pophale) SiO2 
 PCOD9260506
Probable space group: C 2/C
;
_chemical_formula_sum "Si O2"
_cell_formula_units_Z 60
_cell_length_a 15.003717
_cell_length_b 11.842505
_cell_length_c 21.934787
_cell_angle_alpha 90.000000
_cell_angle_beta 138.516136
_cell_angle_gamma 90.000000
_cell_volume 2581.678451
_symmetry_space_group_name_H-M "C 2/C"
_symmetry_group_IT_number 15
_symmetry_cell_setting 'monoclinic'
loop_
_space_group_symop_operation_xyz
x,y,z
-x,y,1/2-z
-x,-y,-z
x,-y,1/2+z
1/2+x,1/2+y,z
1/2-x,1/2+y,1/2-z
1/2-x,1/2-y,-z
1/2+x,1/2-y,1/2+z
loop_
_atom_site_type_symbol
_atom_site_label
_atom_site_fract_x
_atom_site_fract_y
_atom_site_fract_z
Si Si1 0.000000 0.401554 0.250000
Si Si2 0.619770 0.055609 0.205503
Si Si3 0.250000 0.257408 0.599238
Si Si4 0.359170 0.498924 0.130451
Si Si5 0.968753 0.241683 0.908376
Si Si6 0.348253 0.610256 0.403276
Si Si7 0.144698 0.067598 0.748601
Si Si8 0.871743 0.061516 0.011928
O O1 0.958866 0.477958 0.286948
O O2 0.881930 0.316414 0.172278
O O3 0.521579 0.133736 0.115225
O O4 0.720789 0.137668 0.296428
O O5 0.723785 0.982936 0.216691
O O6 0.284353 0.387047 0.609909
O O7 0.159550 0.245349 0.612964
O O8 0.167337 0.192333 0.504160
O O9 0.326513 0.405239 0.164816
O O10 0.520274 0.517591 0.201033
O O11 0.318958 0.485092 0.039635
O O12 0.928162 0.158057 0.832175
O O13 0.087310 0.194528 0.013404
O O14 0.469619 0.568686 0.421714
O O15 0.310831 0.497597 0.421196
#
# Coordination Sequence:
#
# PCOD9260506 Si02
#       8
#     4   8   8   8   8   8   8   8
#     4  12  24  38  62  92 128 170 220 256 314 378
#     4  12  23  43  65  93 128 172 214 266 318 387
#     4  11  22  37  64  98 127 165 212 268 329 371
#     4  11  21  34  63 100 128 159 208 268 319 368
#     4  11  23  42  69  92 128 174 214 261 324 388
#     4  10  19  40  65  90 126 172 214 261 317 384
#     4  11  21  38  61  93 133 162 207 264 318 375
#     4  10  18  37  64  95 127 164 210 267 318 387
#
# _framework density 23.240694000000001
#
# number of rings (size 3 to 8) (size 9 to 14) (size 15 to 20)
#    0.000    1.067    6.667    2.000    0.000    1.067 
#    0.000    2.000    0.000    1.600    0.000    0.000 
#    0.000    0.000    0.000    0.000    0.000    0.000 
#
# Total GULP energy -167214.718549 kJ/mol
# GULP energy per Si atom -5573.823952 kJ/mol
# Density = 2.318780 g / cm^3
# Si number density = 23.240694 Si / 1000 Ang^3
#
#
#
# Elastic Constant Matrix: (Units=GPa)
#
#
# Indices 1 2 3 4 5 6 
#
# 1 122.3586 18.9577 10.9174 0.0000 -30.1693 0.0000
# 2 18.9577 21.9785 -2.0266 0.0000 -1.9880 0.0000
# 3 10.9174 -2.0266 34.3066 0.0000 -10.3689 0.0000
# 4 0.0000 0.0000 0.0000 33.4785 0.0000 -4.0135
# 5 -30.1693 -1.9880 -10.3689 0.0000 35.1818 0.0000
# 6 0.0000 0.0000 0.0000 -4.0135 0.0000 27.7843
#
#
#
# Elastic Compliance Matrix: (Units=1/GPa)
#
#
# Indices 1 2 3 4 5 6 
#
# 1 0.012146 -0.009775 -0.001604 0.000000 0.009390 0.000000
# 2 -0.009775 0.054061 0.005153 0.000000 -0.003809 0.000000
# 3 -0.001604 0.005153 0.032534 0.000000 0.008504 0.000000
# 4 0.000000 0.000000 0.000000 0.030396 0.000000 0.004391
# 5 0.009390 -0.003809 0.008504 0.000000 0.038767 0.000000
# 6 0.000000 0.000000 0.000000 0.004391 0.000000 0.036626
#
#
# Mechanical properties :
#
#
# Convention : Reuss Voigt Hill
#
# Bulk Modulus (GPa) = 11.58909 26.03785 18.81347
# Shear Modulus (GPa) = 20.34634 29.34194 24.84414
#
# Velocity S-wave (km/s) = 2.96203 3.55706 3.27309
# Velocity P-wave (km/s) = 4.08602 5.30076 4.73253
#
# Compressibility (1/GPa) = 0.08628802
#
# Stress axis : x y z
#
# Youngs Moduli (GPa) = 82.33493 18.49769 30.73698
#
# Poissons Ratio (x) = 0.18081 0.04932
# Poissons Ratio (y) = 0.80480 -0.15839
# Poissons Ratio (z) = 0.13211 -0.09532
#
# Static dielectric constant tensor:
#      x y z
#    x 1.890610 0.000000 -0.036240 
#    y 0.000000 1.888880 0.000000 
#    z -0.036240 0.000000 2.094070 
# 
# From -- ./inp_files/273872.got.cif
#   From: 2010.05.17/outbox.cif.g08.bks.cpg/sg15_137_cif.got.tgz:273872.got - 2010.06.03 18:47:42.
