data_PCOD9260840
_publ_section_title
;
Structure prediction by ZEFSAII (Michael W. Deem and Ramdas Pophale) SiO2 
 PCOD9260840
Probable space group: C 2/C
;
_chemical_formula_sum "Si O2"
_cell_formula_units_Z 60
_cell_length_a 16.901676
_cell_length_b 13.419551
_cell_length_c 14.670762
_cell_angle_alpha 90.000000
_cell_angle_beta 86.849034
_cell_angle_gamma 90.000000
_cell_volume 3322.487481
_symmetry_space_group_name_H-M "C 2/C"
_symmetry_group_IT_number 15
_symmetry_cell_setting 'monoclinic'
loop_
_space_group_symop_operation_xyz
x,y,z
-x,y,1/2-z
-x,-y,-z
x,-y,1/2+z
1/2+x,1/2+y,z
1/2-x,1/2+y,1/2-z
1/2-x,1/2-y,-z
1/2+x,1/2-y,1/2+z
loop_
_atom_site_type_symbol
_atom_site_label
_atom_site_fract_x
_atom_site_fract_y
_atom_site_fract_z
Si Si1 0.824305 0.418778 0.107435
Si Si2 0.158401 0.196902 0.320081
Si Si3 0.323252 0.108166 0.239738
Si Si4 0.834778 0.849356 0.470127
Si Si5 0.545513 0.251001 0.342950
Si Si6 0.897185 0.362036 0.926294
Si Si7 0.500000 0.385480 0.750000
Si Si8 0.008669 0.950272 0.096044
O O1 0.834079 0.314872 0.161381
O O2 0.823653 0.510999 0.176053
O O3 0.741424 0.407375 0.059289
O O4 0.888226 0.422853 0.020652
O O5 0.235679 0.149604 0.267522
O O6 0.152436 0.147748 0.421904
O O7 0.078855 0.176145 0.268134
O O8 0.374558 0.192774 0.184878
O O9 0.368032 0.088599 0.333935
O O10 0.837024 0.732407 0.443617
O O11 0.908250 0.893507 0.410781
O O12 0.500000 0.264266 0.250000
O O13 0.484858 0.184193 0.407100
O O14 0.554444 0.362247 0.381695
O O15 0.489228 0.461094 0.833598
O O16 0.000000 0.000000 0.000000
#
# Coordination Sequence:
#
# PCOD9260840 Si02
#       8
#     8   8   8   8   8   8   4   8
#     4  11  21  37  64  89 116 165 203 247 309 364
#     4  11  22  40  60  88 125 159 198 258 302 365
#     4  11  21  37  61  91 119 156 207 249 304 348
#     4  10  18  38  66  85 115 156 210 248 297 362
#     4   9  20  36  60  90 118 154 206 255 286 356
#     4   9  18  37  60  86 117 151 208 253 285 363
#     4  12  24  38  60  94 126 156 198 254 316 366
#     4  11  21  37  63  96 120 158 200 250 313 360
#
# _framework density 18.058758999999998
#
# number of rings (size 3 to 8) (size 9 to 14) (size 15 to 20)
#    0.000    1.600    4.667    1.600    0.000    1.600 
#    3.600    1.333    0.000    2.400    0.000    0.000 
#    0.000    0.000    0.000    0.000    0.000    0.000 
#
# Total GULP energy -167318.075454 kJ/mol
# GULP energy per Si atom -5577.269182 kJ/mol
# Density = 1.801766 g / cm^3
# Si number density = 18.058759 Si / 1000 Ang^3
#
#
#
# Elastic Constant Matrix: (Units=GPa)
#
#
# Indices 1 2 3 4 5 6 
#
# 1 77.2845 32.3835 32.5308 0.0000 -3.6152 0.0000
# 2 32.3835 89.3947 52.4241 0.0000 3.8059 0.0000
# 3 32.5308 52.4241 112.4800 0.0000 -3.5225 0.0000
# 4 0.0000 0.0000 0.0000 40.4156 0.0000 -3.8322
# 5 -3.6152 3.8059 -3.5225 0.0000 29.9939 0.0000
# 6 0.0000 0.0000 0.0000 -3.8322 0.0000 15.6062
#
#
#
# Elastic Compliance Matrix: (Units=1/GPa)
#
#
# Indices 1 2 3 4 5 6 
#
# 1 0.015935 -0.004408 -0.002486 0.000000 0.002188 0.000000
# 2 -0.004408 0.016852 -0.006688 0.000000 -0.003455 0.000000
# 3 -0.002486 -0.006688 0.012791 0.000000 0.002051 0.000000
# 4 0.000000 0.000000 0.000000 0.025333 0.000000 0.006221
# 5 0.002188 -0.003455 0.002051 0.000000 0.034283 0.000000
# 6 0.000000 0.000000 0.000000 0.006221 0.000000 0.065604
#
#
# Mechanical properties :
#
#
# Convention : Reuss Voigt Hill
#
# Bulk Modulus (GPa) = 54.30371 57.09290 55.69830
# Shear Modulus (GPa) = 24.49794 27.99121 26.24457
#
# Velocity S-wave (km/s) = 3.68716 3.94128 3.81634
# Velocity P-wave (km/s) = 6.94714 7.23846 7.09429
#
# Compressibility (1/GPa) = 0.01841495
#
# Stress axis : x y z
#
# Youngs Moduli (GPa) = 62.75566 59.33967 78.18267
#
# Poissons Ratio (x) = 0.26157 0.19433
# Poissons Ratio (y) = 0.27662 0.52286
# Poissons Ratio (z) = 0.15599 0.39685
#
# Static dielectric constant tensor:
#      x y z
#    x 1.656820 0.000000 -0.024670 
#    y 0.000000 2.118040 0.000000 
#    z -0.024670 0.000000 1.629580 
# 
# From -- ./inp_files/160930.got.cif
#   From: 2010.05.17/outbox.cif.g08.bks.cpg/sg15_81_cif.got.tgz:160930.got - 2010.06.03 18:47:42.
