data_PCOD9260955
_publ_section_title
;
Structure prediction by ZEFSAII (Michael W. Deem and Ramdas Pophale) SiO2 
 PCOD9260955
Probable space group: C 2/C
;
_chemical_formula_sum "Si O2"
_cell_formula_units_Z 44
_cell_length_a 9.944906
_cell_length_b 18.658136
_cell_length_c 12.202344
_cell_angle_alpha 90.000000
_cell_angle_beta 83.386401
_cell_angle_gamma 90.000000
_cell_volume 2249.119398
_symmetry_space_group_name_H-M "C 2/C"
_symmetry_group_IT_number 15
_symmetry_cell_setting 'monoclinic'
loop_
_space_group_symop_operation_xyz
x,y,z
-x,y,1/2-z
-x,-y,-z
x,-y,1/2+z
1/2+x,1/2+y,z
1/2-x,1/2+y,1/2-z
1/2-x,1/2-y,-z
1/2+x,1/2-y,1/2+z
loop_
_atom_site_type_symbol
_atom_site_label
_atom_site_fract_x
_atom_site_fract_y
_atom_site_fract_z
Si Si1 0.107480 0.774706 0.396129
Si Si2 0.527161 0.075453 0.592501
Si Si3 0.913415 0.264785 0.356219
Si Si4 0.271765 0.980513 0.246988
Si Si5 0.000000 0.111620 0.750000
Si Si6 0.901524 0.393472 0.658808
O O1 0.098509 0.778940 0.529085
O O2 0.260602 0.787752 0.341333
O O3 0.009143 0.832402 0.350661
O O4 0.092179 0.691714 0.361935
O O5 0.519820 0.159580 0.622080
O O6 0.654950 0.038630 0.643600
O O7 0.385992 0.047592 0.652416
O O8 0.548988 0.074122 0.460908
O O9 0.000000 0.231051 0.250000
O O10 0.132166 0.938593 0.244840
O O11 0.266634 0.065130 0.213778
O O12 0.000000 0.409295 0.750000
#
# Coordination Sequence:
#
# PCOD9260955 Si02
#       6
#     8   8   8   8   4   8
#     4  10  22  37  62  88 127 155 205 260 308 356
#     4  10  19  38  65  85 111 167 212 242 299 377
#     4  10  18  39  62  87 115 163 206 248 309 371
#     4  11  22  38  64  86 123 161 203 248 313 368
#     4  12  22  42  60  96 126 164 198 260 310 370
#     4  11  22  38  61  90 118 160 212 261 292 360
#
# _framework density 19.563212
#
# number of rings (size 3 to 8) (size 9 to 14) (size 15 to 20)
#    0.000    1.455    6.364    0.545    0.000    0.000 
#    4.909    3.636    0.000    0.000    0.000    0.000 
#    0.000    0.000    0.000    0.000    0.000    0.000 
#
# Total GULP energy -122484.754242 kJ/mol
# GULP energy per Si atom -5567.488829 kJ/mol
# Density = 1.951869 g / cm^3
# Si number density = 19.563212 Si / 1000 Ang^3
#
#
#
# Elastic Constant Matrix: (Units=GPa)
#
#
# Indices 1 2 3 4 5 6 
#
# 1 106.2894 38.8310 50.6167 0.0000 2.4081 0.0000
# 2 38.8310 74.9888 31.5441 0.0000 -0.2694 0.0000
# 3 50.6167 31.5441 137.4073 0.0000 3.6947 0.0000
# 4 0.0000 0.0000 0.0000 13.5333 0.0000 -3.0053
# 5 2.4081 -0.2694 3.6947 0.0000 19.6800 0.0000
# 6 0.0000 0.0000 0.0000 -3.0053 0.0000 10.7881
#
#
#
# Elastic Compliance Matrix: (Units=1/GPa)
#
#
# Indices 1 2 3 4 5 6 
#
# 1 0.013055 -0.005260 -0.003575 0.000000 -0.000998 0.000000
# 2 -0.005260 0.016894 -0.001974 0.000000 0.001246 0.000000
# 3 -0.003575 -0.001974 0.009082 0.000000 -0.001295 0.000000
# 4 0.000000 0.000000 0.000000 0.078764 0.000000 0.021942
# 5 -0.000998 0.001246 -0.001295 0.000000 0.051195 0.000000
# 6 0.000000 0.000000 0.000000 0.021942 0.000000 0.098807
#
#
# Mechanical properties :
#
#
# Convention : Reuss Voigt Hill
#
# Bulk Modulus (GPa) = 57.42623 62.29657 59.86140
# Shear Modulus (GPa) = 16.93651 21.97984 19.45818
#
# Velocity S-wave (km/s) = 2.94553 3.35555 3.15720
# Velocity P-wave (km/s) = 6.40204 6.85024 6.62993
#
# Compressibility (1/GPa) = 0.01741365
#
# Stress axis : x y z
#
# Youngs Moduli (GPa) = 76.59974 59.19256 110.10259
#
# Poissons Ratio (x) = 0.31136 0.39358
# Poissons Ratio (y) = 0.40292 0.21736
# Poissons Ratio (z) = 0.27382 0.11685
#
# Static dielectric constant tensor:
#      x y z
#    x 1.691110 0.000000 0.028770 
#    y 0.000000 1.853410 0.000000 
#    z 0.028770 0.000000 1.718070 
# 
# From -- ./inp_files/78217.got.cif
#   From: 2010.05.17/outbox.cif.g08.bks.cpg/sg15_40_cif.got.tgz:78217.got - 2010.06.03 18:47:42.
