data_PCOD9260035
_publ_section_title
;
Structure prediction by ZEFSAII (Michael W. Deem and Ramdas Pophale) SiO2 
 PCOD9260035
Probable space group: C 2/C
;
_chemical_formula_sum "Si O2"
_cell_formula_units_Z 52
_cell_length_a 21.071644
_cell_length_b 17.071156
_cell_length_c 7.535148
_cell_angle_alpha 90.000000
_cell_angle_beta 133.813373
_cell_angle_gamma 90.000000
_cell_volume 1955.909952
_symmetry_space_group_name_H-M "C 2/C"
_symmetry_group_IT_number 15
_symmetry_cell_setting 'monoclinic'
loop_
_space_group_symop_operation_xyz
x,y,z
-x,y,1/2-z
-x,-y,-z
x,-y,1/2+z
1/2+x,1/2+y,z
1/2-x,1/2+y,1/2-z
1/2-x,1/2-y,-z
1/2+x,1/2-y,1/2+z
loop_
_atom_site_type_symbol
_atom_site_label
_atom_site_fract_x
_atom_site_fract_y
_atom_site_fract_z
Si Si1 0.974203 0.912041 0.496231
Si Si2 0.592398 0.897937 0.130203
Si Si3 0.065918 0.762664 0.710257
Si Si4 0.727756 0.578314 0.860990
Si Si5 0.000000 0.514998 0.750000
Si Si6 0.250479 0.091517 0.289247
Si Si7 0.248904 0.237573 0.782903
O O1 0.871235 0.895236 0.273604
O O2 0.000000 0.907641 0.750000
O O3 0.033251 0.840297 0.544523
O O4 0.000000 0.000000 0.500000
O O5 0.572878 0.806408 0.080464
O O6 0.675434 0.907527 0.418666
O O7 0.515107 0.930168 0.111765
O O8 0.581041 0.955786 0.943176
O O9 0.000000 0.745419 0.750000
O O10 0.157793 0.765626 0.995472
O O11 0.705763 0.492473 0.740712
O O12 0.771340 0.644227 0.818997
O O13 0.782091 0.579463 0.148105
O O14 0.211099 0.180253 0.213065
O O15 0.250000 0.250000 0.000000
#
# Coordination Sequence:
#
# PCOD9260035 Si02
#       7
#     8   8   8   8   4   8   8
#     4  11  22  38  63  90 120 159 207 255 309 365
#     4  10  20  37  59  85 122 154 204 249 310 364
#     4  10  18  36  61  85 114 160 201 252 297 367
#     4  11  20  38  61  89 121 162 205 253 307 370
#     4  10  20  34  58  88 114 158 202 254 302 370
#     4  10  22  36  61  86 124 159 204 251 309 374
#     4   9  19  36  59  87 118 159 207 241 302 373
#
# _framework density 26.586089000000001
#
# number of rings (size 3 to 8) (size 9 to 14) (size 15 to 20)
#    0.000    1.846    3.846    1.846    0.000    0.000 
#    1.385    0.769    3.385    0.000    0.000    0.000 
#    0.000    0.000    0.000    0.000    0.000    0.000 
#
# Total GULP energy -145041.188624 kJ/mol
# GULP energy per Si atom -5578.507255 kJ/mol
# Density = 2.652558 g / cm^3
# Si number density = 26.586089 Si / 1000 Ang^3
#
#
#
# Elastic Constant Matrix: (Units=GPa)
#
#
# Indices 1 2 3 4 5 6 
#
# 1 52.5775 41.7622 17.6411 0.0000 -5.9129 0.0000
# 2 41.7622 278.2729 49.6724 0.0000 9.0196 0.0000
# 3 17.6411 49.6724 108.2107 0.0000 -13.8963 0.0000
# 4 0.0000 0.0000 0.0000 45.8447 0.0000 0.9874
# 5 -5.9129 9.0196 -13.8963 0.0000 25.0523 0.0000
# 6 0.0000 0.0000 0.0000 0.9874 0.0000 52.4089
#
#
#
# Elastic Compliance Matrix: (Units=1/GPa)
#
#
# Indices 1 2 3 4 5 6 
#
# 1 0.022819 -0.003356 -0.001435 0.000000 0.005798 0.000000
# 2 -0.003356 0.004571 -0.002007 0.000000 -0.003551 0.000000
# 3 -0.001435 -0.002007 0.011247 0.000000 0.006622 0.000000
# 4 0.000000 0.000000 0.000000 0.021822 0.000000 -0.000411
# 5 0.005798 -0.003551 0.006622 0.000000 0.046237 0.000000
# 6 0.000000 0.000000 0.000000 -0.000411 0.000000 0.019088
#
#
# Mechanical properties :
#
#
# Convention : Reuss Voigt Hill
#
# Bulk Modulus (GPa) = 39.93558 73.02361 56.47959
# Shear Modulus (GPa) = 33.84633 46.66020 40.25326
#
# Velocity S-wave (km/s) = 3.57190 4.19389 3.89533
# Velocity P-wave (km/s) = 5.66261 7.13989 6.44373
#
# Compressibility (1/GPa) = 0.02504033
#
# Stress axis : x y z
#
# Youngs Moduli (GPa) = 43.82302 218.78713 88.91405
#
# Poissons Ratio (x) = 0.73434 0.12757
# Poissons Ratio (y) = 0.14709 0.17844
# Poissons Ratio (z) = 0.06288 0.43909
#
# Static dielectric constant tensor:
#      x y z
#    x 2.310080 0.000000 0.043520 
#    y 0.000000 2.433330 0.000000 
#    z 0.043520 0.000000 2.038230 
# 
# From -- ./inp_files/67065.got.cif
#   From: 2010.05.17/outbox.cif.g08.bks.cpg/sg15_34_cif.got.tgz:67065.got - 2010.06.03 18:47:42.
