data_PCOD9260298
_publ_section_title
;
Structure prediction by ZEFSAII (Michael W. Deem and Ramdas Pophale) SiO2 
 PCOD9260298
Probable space group: C 2/C
;
_chemical_formula_sum "Si O2"
_cell_formula_units_Z 60
_cell_length_a 19.196489
_cell_length_b 8.762309
_cell_length_c 20.157695
_cell_angle_alpha 90.000000
_cell_angle_beta 139.930930
_cell_angle_gamma 90.000000
_cell_volume 2182.588712
_symmetry_space_group_name_H-M "C 2/C"
_symmetry_group_IT_number 15
_symmetry_cell_setting 'monoclinic'
loop_
_space_group_symop_operation_xyz
x,y,z
-x,y,1/2-z
-x,-y,-z
x,-y,1/2+z
1/2+x,1/2+y,z
1/2-x,1/2+y,1/2-z
1/2-x,1/2-y,-z
1/2+x,1/2-y,1/2+z
loop_
_atom_site_type_symbol
_atom_site_label
_atom_site_fract_x
_atom_site_fract_y
_atom_site_fract_z
Si Si1 0.947836 0.897584 0.903034
Si Si2 0.103827 0.335031 0.451849
Si Si3 0.469650 0.920182 0.908172
Si Si4 0.592541 0.286292 0.404458
Si Si5 0.198886 0.977003 0.826175
Si Si6 0.697073 0.974255 0.908176
Si Si7 0.000000 0.979699 0.750000
Si Si8 0.238843 0.689325 0.312894
O O1 0.859265 0.786829 0.872821
O O2 0.857914 0.964536 0.786865
O O3 0.949574 0.711289 0.059304
O O4 0.000000 0.000000 0.000000
O O5 0.048649 0.177056 0.435570
O O6 0.190495 0.393767 0.570262
O O7 0.162374 0.376962 0.424643
O O8 0.997823 0.443400 0.377762
O O9 0.352291 0.845256 0.809568
O O10 0.500000 0.000000 0.000000
O O11 0.607911 0.150128 0.364014
O O12 0.697307 0.392768 0.484164
O O13 0.507222 0.404738 0.316073
O O14 0.111036 0.902268 0.812793
O O15 0.218811 0.159688 0.843239
O O16 0.724167 0.958822 0.850477
#
# Coordination Sequence:
#
# PCOD9260298 Si02
#       8
#     8   8   8   8   8   8   4   8
#     4  12  34  51  76 116 172 234 285 355 432 523
#     4  11  27  49  80 116 170 217 285 353 443 508
#     4  11  24  39  75 120 164 212 271 350 429 520
#     4  10  18  36  69 120 154 187 264 338 430 487
#     4  12  27  50  83 120 161 218 280 354 430 522
#     4  10  20  41  74 120 153 201 265 363 411 510
#     4  12  20  42  82 116 150 206 270 352 406 502
#     4  12  26  46  83 120 166 214 290 343 435 518
#
# _framework density 27.490290999999999
#
# number of rings (size 3 to 8) (size 9 to 14) (size 15 to 20)
#    0.000    0.800    4.000    2.400   11.200    1.600 
#    0.000    4.000    0.000    0.000    0.000    0.933 
#    0.000    0.000    0.000    0.000    0.000    0.000 
#
# Total GULP energy -167320.303208 kJ/mol
# GULP energy per Si atom -5577.343440 kJ/mol
# Density = 2.742772 g / cm^3
# Si number density = 27.490291 Si / 1000 Ang^3
#
#
#
# Elastic Constant Matrix: (Units=GPa)
#
#
# Indices 1 2 3 4 5 6 
#
# 1 137.9714 46.5140 25.2940 0.0000 17.6945 0.0000
# 2 46.5140 114.1379 56.4041 0.0000 0.0446 0.0000
# 3 25.2940 56.4041 126.6759 0.0000 13.6197 0.0000
# 4 0.0000 0.0000 0.0000 34.5036 0.0000 -8.5711
# 5 17.6945 0.0446 13.6197 0.0000 53.9191 0.0000
# 6 0.0000 0.0000 0.0000 -8.5711 0.0000 55.6134
#
#
#
# Elastic Compliance Matrix: (Units=1/GPa)
#
#
# Indices 1 2 3 4 5 6 
#
# 1 0.008836 -0.003698 0.000199 0.000000 -0.002947 0.000000
# 2 -0.003698 0.012869 -0.005264 0.000000 0.002533 0.000000
# 3 0.000199 -0.005264 0.010490 0.000000 -0.002711 0.000000
# 4 0.000000 0.000000 0.000000 0.030136 0.000000 0.004645
# 5 -0.002947 0.002533 -0.002711 0.000000 0.020196 0.000000
# 6 0.000000 0.000000 0.000000 0.004645 0.000000 0.018697
#
#
# Mechanical properties :
#
#
# Convention : Reuss Voigt Hill
#
# Bulk Modulus (GPa) = 68.17231 70.57881 69.37556
# Shear Modulus (GPa) = 40.44032 45.51210 42.97621
#
# Velocity S-wave (km/s) = 3.83962 4.07328 3.95818
# Velocity P-wave (km/s) = 6.67154 6.91751 6.79564
#
# Compressibility (1/GPa) = 0.01466871
#
# Stress axis : x y z
#
# Youngs Moduli (GPa) = 113.17241 77.70798 95.33244
#
# Poissons Ratio (x) = 0.28738 -0.01899
# Poissons Ratio (y) = 0.41853 0.50181
# Poissons Ratio (z) = -0.02254 0.40904
#
# Static dielectric constant tensor:
#      x y z
#    x 2.238280 0.000000 -0.048810 
#    y 0.000000 2.155120 0.000000 
#    z -0.048810 0.000000 2.205070 
# 
# From -- ./inp_files/211092.got.cif
#   From: 2010.05.17/outbox.cif.g08.bks.cpg/sg15_106_cif.got.tgz:211092.got - 2010.06.03 18:47:42.
