data_PCOD9260444
_publ_section_title
;
Structure prediction by ZEFSAII (Michael W. Deem and Ramdas Pophale) SiO2 
 PCOD9260444
Probable space group: C 2/C
;
_chemical_formula_sum "Si O2"
_cell_formula_units_Z 40
_cell_length_a 9.631946
_cell_length_b 15.415570
_cell_length_c 10.725327
_cell_angle_alpha 90.000000
_cell_angle_beta 82.995856
_cell_angle_gamma 90.000000
_cell_volume 1580.632913
_symmetry_space_group_name_H-M "C 2/C"
_symmetry_group_IT_number 15
_symmetry_cell_setting 'monoclinic'
loop_
_space_group_symop_operation_xyz
x,y,z
-x,y,1/2-z
-x,-y,-z
x,-y,1/2+z
1/2+x,1/2+y,z
1/2-x,1/2+y,1/2-z
1/2-x,1/2-y,-z
1/2+x,1/2-y,1/2+z
loop_
_atom_site_type_symbol
_atom_site_label
_atom_site_fract_x
_atom_site_fract_y
_atom_site_fract_z
Si Si1 0.357011 0.893457 0.635484
Si Si2 0.649103 0.072839 0.765043
Si Si3 0.450890 0.743255 0.459174
Si Si4 0.128495 0.065011 0.968599
Si Si5 0.278844 0.252283 0.723060
O O1 0.443369 0.835057 0.529539
O O2 0.207447 0.920477 0.590941
O O3 0.333643 0.829031 0.755416
O O4 0.408397 0.989314 0.656643
O O5 0.500000 0.117737 0.750000
O O6 0.751180 0.039725 0.643492
O O7 0.740488 0.151598 0.813430
O O8 0.421550 0.663181 0.555009
O O9 0.596063 0.719220 0.379572
O O10 0.335438 0.749713 0.361040
O O11 0.000000 0.000000 0.000000
#
# Coordination Sequence:
#
# PCOD9260444 Si02
#       5
#     8   8   8   8   8
#     4  11  22  39  65  92 125 166 204 257 321 361
#     4  12  23  39  63  95 126 161 213 257 302 379
#     4  10  18  37  64  87 122 162 206 253 308 371
#     4  11  22  40  63  96 126 160 212 262 308 372
#     4  10  18  37  62  90 118 162 209 251 299 383
#
# _framework density 25.306318999999998
#
# number of rings (size 3 to 8) (size 9 to 14) (size 15 to 20)
#    0.000    1.200    6.000    2.400    0.000    5.600 
#    0.000    2.000    0.000    4.800    0.000    0.000 
#    0.000    0.000    0.000    0.000    0.000    0.000 
#
# Total GULP energy -111543.556000 kJ/mol
# GULP energy per Si atom -5577.177800 kJ/mol
# Density = 2.524872 g / cm^3
# Si number density = 25.306319 Si / 1000 Ang^3
#
#
#
# Elastic Constant Matrix: (Units=GPa)
#
#
# Indices 1 2 3 4 5 6 
#
# 1 55.4080 -10.2764 21.5707 0.0000 -11.2071 0.0000
# 2 -10.2764 106.2903 14.4610 0.0000 7.6355 0.0000
# 3 21.5707 14.4610 67.0641 0.0000 -33.3955 0.0000
# 4 0.0000 0.0000 0.0000 42.7863 0.0000 -14.4748
# 5 -11.2071 7.6355 -33.3955 0.0000 37.3986 0.0000
# 6 0.0000 0.0000 0.0000 -14.4748 0.0000 31.2922
#
#
#
# Elastic Compliance Matrix: (Units=1/GPa)
#
#
# Indices 1 2 3 4 5 6 
#
# 1 0.021664 0.003416 -0.008678 0.000000 -0.001954 0.000000
# 2 0.003416 0.011341 -0.007540 0.000000 -0.008025 0.000000
# 3 -0.008678 -0.007540 0.033853 0.000000 0.029168 0.000000
# 4 0.000000 0.000000 0.000000 0.027708 0.000000 0.012817
# 5 -0.001954 -0.008025 0.029168 0.000000 0.053838 0.000000
# 6 0.000000 0.000000 0.000000 0.012817 0.000000 0.037886
#
#
# Mechanical properties :
#
#
# Convention : Reuss Voigt Hill
#
# Bulk Modulus (GPa) = 24.24037 31.14142 27.69090
# Shear Modulus (GPa) = 22.15862 35.82922 28.99392
#
# Velocity S-wave (km/s) = 2.96229 3.76682 3.38852
# Velocity P-wave (km/s) = 4.61517 5.59027 5.12596
#
# Compressibility (1/GPa) = 0.04125350
#
# Stress axis : x y z
#
# Youngs Moduli (GPa) = 46.15850 88.17761 29.53952
#
# Poissons Ratio (x) = -0.30118 0.25634
# Poissons Ratio (y) = -0.15766 0.22273
# Poissons Ratio (z) = 0.40056 0.66487
#
# Static dielectric constant tensor:
#      x y z
#    x 2.065700 0.000000 0.075200 
#    y 0.000000 2.107020 0.000000 
#    z 0.075200 0.000000 2.061900 
# 
# From -- ./inp_files/85962.got.cif
#   From: 2010.05.17/outbox.cif.g08.bks.cpg/sg15_43_cif.got.tgz:85962.got - 2010.06.03 18:47:42.
