data_PCOD9260650
_publ_section_title
;
Structure prediction by ZEFSAII (Michael W. Deem and Ramdas Pophale) SiO2 
 PCOD9260650
Probable space group: C 2/C
;
_chemical_formula_sum "Si O2"
_cell_formula_units_Z 40
_cell_length_a 12.577518
_cell_length_b 12.702013
_cell_length_c 13.824692
_cell_angle_alpha 90.000000
_cell_angle_beta 42.759584
_cell_angle_gamma 90.000000
_cell_volume 1499.490953
_symmetry_space_group_name_H-M "C 2/C"
_symmetry_group_IT_number 15
_symmetry_cell_setting 'monoclinic'
loop_
_space_group_symop_operation_xyz
x,y,z
-x,y,1/2-z
-x,-y,-z
x,-y,1/2+z
1/2+x,1/2+y,z
1/2-x,1/2+y,1/2-z
1/2-x,1/2-y,-z
1/2+x,1/2-y,1/2+z
loop_
_atom_site_type_symbol
_atom_site_label
_atom_site_fract_x
_atom_site_fract_y
_atom_site_fract_z
Si Si1 0.500000 0.250254 0.750000
Si Si2 0.966009 0.609620 0.945417
Si Si3 0.539102 0.420030 0.863307
Si Si4 0.234257 0.501482 0.137774
Si Si5 0.162833 0.607115 0.988844
Si Si6 0.000000 0.886109 0.250000
O O1 0.416159 0.185151 0.891024
O O2 0.596367 0.331692 0.751051
O O3 0.111081 0.554319 0.790195
O O4 0.033117 0.655783 0.002314
O O5 0.846030 0.514660 0.045661
O O6 0.656269 0.422960 0.872841
O O7 0.525730 0.534255 0.821855
O O8 0.358321 0.412684 0.018294
O O9 0.156703 0.572047 0.105311
O O10 0.330152 0.666021 0.869958
#
# Coordination Sequence:
#
# PCOD9260650 Si02
#       6
#     4   8   8   8   8   4
#     4  11  22  40  56  98 129 150 192 271 314 338
#     4  11  21  36  57  93 126 155 197 254 309 347
#     4   9  20  34  58  86 118 154 201 246 298 354
#     4  10  18  38  60  85 114 168 205 236 288 379
#     4  10  20  34  60  85 118 162 209 240 287 377
#     4   9  16  34  56  82 109 156 210 235 276 356
#
# _framework density 26.675719999999998
#
# number of rings (size 3 to 8) (size 9 to 14) (size 15 to 20)
#    0.000    2.000    4.000    0.000    0.000    0.800 
#    3.600    1.000    0.000    0.000    5.200    0.000 
#    0.000    0.000    0.000    0.000    0.000    0.000 
#
# Total GULP energy -111409.914712 kJ/mol
# GULP energy per Si atom -5570.495736 kJ/mol
# Density = 2.661501 g / cm^3
# Si number density = 26.675720 Si / 1000 Ang^3
#
#
#
# Elastic Constant Matrix: (Units=GPa)
#
#
# Indices 1 2 3 4 5 6 
#
# 1 233.9889 21.2833 48.0890 0.0000 31.9364 0.0000
# 2 21.2833 57.0624 18.5453 0.0000 4.7090 0.0000
# 3 48.0890 18.5453 94.5751 0.0000 -0.4232 0.0000
# 4 0.0000 0.0000 0.0000 32.1224 0.0000 7.3697
# 5 31.9364 4.7090 -0.4232 0.0000 56.6115 0.0000
# 6 0.0000 0.0000 0.0000 7.3697 0.0000 7.2338
#
#
#
# Elastic Compliance Matrix: (Units=1/GPa)
#
#
# Indices 1 2 3 4 5 6 
#
# 1 0.005271 -0.000908 -0.002515 0.000000 -0.002917 0.000000
# 2 -0.000908 0.019017 -0.003272 0.000000 -0.001094 0.000000
# 3 -0.002515 -0.003272 0.012502 0.000000 0.001785 0.000000
# 4 0.000000 0.000000 0.000000 0.040627 0.000000 -0.041390
# 5 -0.002917 -0.001094 0.001785 0.000000 0.019414 0.000000
# 6 0.000000 0.000000 0.000000 -0.041390 0.000000 0.180407
#
#
# Mechanical properties :
#
#
# Convention : Reuss Voigt Hill
#
# Bulk Modulus (GPa) = 42.73593 62.38464 52.56028
# Shear Modulus (GPa) = 16.75437 39.04080 27.89758
#
# Velocity S-wave (km/s) = 2.50886 3.82977 3.23740
# Velocity P-wave (km/s) = 4.94448 6.55692 5.80694
#
# Compressibility (1/GPa) = 0.02339951
#
# Stress axis : x y z
#
# Youngs Moduli (GPa) = 189.70355 52.58427 79.98547
#
# Poissons Ratio (x) = 0.04774 0.20119
# Poissons Ratio (y) = 0.17223 0.26174
# Poissons Ratio (z) = 0.47718 0.17207
#
# Static dielectric constant tensor:
#      x y z
#    x 2.106890 0.000000 -0.027580 
#    y 0.000000 2.166510 0.000000 
#    z -0.027580 0.000000 2.280920 
# 
# From -- ./inp_files/143317.got.cif
#   From: 2010.05.17/outbox.cif.g08.bks.cpg/sg15_72_cif.got.tgz:143317.got - 2010.06.03 18:47:42.
