data_PCOD9260429
_publ_section_title
;
Structure prediction by ZEFSAII (Michael W. Deem and Ramdas Pophale) SiO2 
 PCOD9260429
Probable space group: C 2/C
;
_chemical_formula_sum "Si O2"
_cell_formula_units_Z 60
_cell_length_a 18.053613
_cell_length_b 16.525760
_cell_length_c 9.262306
_cell_angle_alpha 90.000000
_cell_angle_beta 91.830620
_cell_angle_gamma 90.000000
_cell_volume 2761.995634
_symmetry_space_group_name_H-M "C 2/C"
_symmetry_group_IT_number 15
_symmetry_cell_setting 'monoclinic'
loop_
_space_group_symop_operation_xyz
x,y,z
-x,y,1/2-z
-x,-y,-z
x,-y,1/2+z
1/2+x,1/2+y,z
1/2-x,1/2+y,1/2-z
1/2-x,1/2-y,-z
1/2+x,1/2-y,1/2+z
loop_
_atom_site_type_symbol
_atom_site_label
_atom_site_fract_x
_atom_site_fract_y
_atom_site_fract_z
Si Si1 0.500000 0.561693 0.750000
Si Si2 0.617969 0.971378 0.452266
Si Si3 0.526353 0.126877 0.475431
Si Si4 0.884216 0.182470 0.201865
Si Si5 0.852193 0.650433 0.789054
Si Si6 0.744481 0.441995 0.421516
Si Si7 0.520907 0.309111 0.496910
Si Si8 0.848743 0.977700 0.803461
O O1 0.472313 0.620314 0.619828
O O2 0.433967 0.505904 0.807666
O O3 0.554546 0.913172 0.515071
O O4 0.650147 0.923870 0.319606
O O5 0.576623 0.056037 0.408096
O O6 0.687783 0.994670 0.554735
O O7 0.566681 0.140557 0.633230
O O8 0.526126 0.219880 0.423977
O O9 0.842350 0.266920 0.203140
O O10 0.942845 0.185187 0.076382
O O11 0.841034 0.098940 0.195559
O O12 0.922525 0.181238 0.364705
O O13 0.790499 0.641115 0.908978
O O14 0.688746 0.452828 0.549884
O O15 0.697657 0.451989 0.274211
#
# Coordination Sequence:
#
# PCOD9260429 Si02
#       8
#     4   8   8   8   8   8   8   8
#     4  12  26  44  66  88 132 158 224 276 334 350
#     4  10  18  37  61  96 126 173 192 252 304 386
#     4   9  19  34  64  97 129 163 210 241 309 380
#     4  10  21  38  69  88 124 160 223 251 321 371
#     4  10  19  39  64  94 129 169 202 258 303 385
#     4  11  24  41  65  89 134 163 216 250 328 378
#     4  10  20  40  61  99 123 162 203 279 308 374
#     4  12  25  44  64  94 115 174 214 278 315 383
#
# _framework density 21.723423
#
# number of rings (size 3 to 8) (size 9 to 14) (size 15 to 20)
#    0.000    1.600    2.667    2.800    0.000    2.133 
#    7.200    3.333    0.000    0.000    0.000    0.000 
#    0.000    0.000    0.000    0.000    0.000    0.000 
#
# Total GULP energy -167330.742912 kJ/mol
# GULP energy per Si atom -5577.691430 kJ/mol
# Density = 2.167398 g / cm^3
# Si number density = 21.723423 Si / 1000 Ang^3
#
#
#
# Elastic Constant Matrix: (Units=GPa)
#
#
# Indices 1 2 3 4 5 6 
#
# 1 98.6316 19.0187 5.1079 0.0000 -23.7068 0.0000
# 2 19.0187 103.8907 9.2760 0.0000 -22.8143 0.0000
# 3 5.1079 9.2760 44.5190 0.0000 -16.3120 0.0000
# 4 0.0000 0.0000 0.0000 28.0349 0.0000 -2.6006
# 5 -23.7068 -22.8143 -16.3120 0.0000 26.2152 0.0000
# 6 0.0000 0.0000 0.0000 -2.6006 0.0000 5.1926
#
#
#
# Elastic Compliance Matrix: (Units=1/GPa)
#
#
# Indices 1 2 3 4 5 6 
#
# 1 0.013444 0.000483 0.003841 0.000000 0.014968 0.000000
# 2 0.000483 0.012018 0.001856 0.000000 0.012050 0.000000
# 3 0.003841 0.001856 0.030439 0.000000 0.024029 0.000000
# 4 0.000000 0.000000 0.000000 0.037408 0.000000 0.018734
# 5 0.014968 0.012050 0.024029 0.000000 0.077120 0.000000
# 6 0.000000 0.000000 0.000000 0.018734 0.000000 0.201964
#
#
# Mechanical properties :
#
#
# Convention : Reuss Voigt Hill
#
# Bulk Modulus (GPa) = 14.64958 34.87182 24.76070
# Shear Modulus (GPa) = 13.06209 26.13113 19.59661
#
# Velocity S-wave (km/s) = 2.45478 3.47205 3.00675
# Velocity P-wave (km/s) = 3.84616 5.67107 4.84530
#
# Compressibility (1/GPa) = 0.06826133
#
# Stress axis : x y z
#
# Youngs Moduli (GPa) = 74.38006 83.21152 32.85225
#
# Poissons Ratio (x) = -0.04018 -0.12620
# Poissons Ratio (y) = -0.03592 -0.06097
# Poissons Ratio (z) = -0.28572 -0.15442
#
# Static dielectric constant tensor:
#      x y z
#    x 1.804680 0.000000 -0.010470 
#    y 0.000000 1.845040 0.000000 
#    z -0.010470 0.000000 1.810400 
# 
# From -- ./inp_files/49092.got.cif
#   From: 2010.05.17/outbox.cif.g08.bks.cpg/sg15_25_cif.got.tgz:49092.got - 2010.06.03 18:47:42.
