data_PCOD9260726
_publ_section_title
;
Structure prediction by ZEFSAII (Michael W. Deem and Ramdas Pophale) SiO2 
 PCOD9260726
Probable space group: C 2/C
;
_chemical_formula_sum "Si O2"
_cell_formula_units_Z 40
_cell_length_a 13.029811
_cell_length_b 15.150647
_cell_length_c 11.399126
_cell_angle_alpha 90.000000
_cell_angle_beta 133.059885
_cell_angle_gamma 90.000000
_cell_volume 1644.161908
_symmetry_space_group_name_H-M "C 2/C"
_symmetry_group_IT_number 15
_symmetry_cell_setting 'monoclinic'
loop_
_space_group_symop_operation_xyz
x,y,z
-x,y,1/2-z
-x,-y,-z
x,-y,1/2+z
1/2+x,1/2+y,z
1/2-x,1/2+y,1/2-z
1/2-x,1/2-y,-z
1/2+x,1/2-y,1/2+z
loop_
_atom_site_type_symbol
_atom_site_label
_atom_site_fract_x
_atom_site_fract_y
_atom_site_fract_z
Si Si1 0.887250 0.281271 0.991581
Si Si2 0.639862 0.610001 0.934178
Si Si3 0.428159 0.128836 0.067888
Si Si4 0.709573 0.952591 0.517232
Si Si5 0.380970 0.339084 0.816926
O O1 0.965369 0.195140 0.096775
O O2 0.984723 0.326798 0.967514
O O3 0.857648 0.358433 0.062803
O O4 0.736121 0.267854 0.814144
O O5 0.500000 0.610623 0.750000
O O6 0.699420 0.510355 0.000881
O O7 0.764994 0.654818 0.956899
O O8 0.619546 0.650475 0.044737
O O9 0.500000 0.146402 0.250000
O O10 0.410350 0.022688 0.040219
O O11 0.818263 0.926412 0.706487
#
# Coordination Sequence:
#
# PCOD9260726 Si02
#       5
#     8   8   8   8   8
#     4  10  20  36  60  91 125 163 200 259 314 365
#     4  10  22  36  59  94 125 160 206 262 303 369
#     4  10  18  38  62  89 122 165 211 249 309 381
#     4   8  21  39  60  88 127 165 209 248 314 376
#     4  10  22  38  61  95 124 159 210 256 316 363
#
# _framework density 24.328503000000001
#
# number of rings (size 3 to 8) (size 9 to 14) (size 15 to 20)
#    2.400    0.000    2.000    0.600    2.800    2.400 
#    0.000    2.000    0.000    3.600    0.000    0.000 
#    0.000    0.000    0.000    0.000    0.000    0.000 
#
# Total GULP energy -111536.585446 kJ/mol
# GULP energy per Si atom -5576.829272 kJ/mol
# Density = 2.427313 g / cm^3
# Si number density = 24.328503 Si / 1000 Ang^3
#
#
#
# Elastic Constant Matrix: (Units=GPa)
#
#
# Indices 1 2 3 4 5 6 
#
# 1 92.1999 41.3580 39.5784 0.0000 6.2278 0.0000
# 2 41.3580 58.8712 9.9034 0.0000 -11.1529 0.0000
# 3 39.5784 9.9034 84.7600 0.0000 16.9338 0.0000
# 4 0.0000 0.0000 0.0000 13.3860 0.0000 -1.5660
# 5 6.2278 -11.1529 16.9338 0.0000 33.6733 0.0000
# 6 0.0000 0.0000 0.0000 -1.5660 0.0000 41.1848
#
#
#
# Elastic Compliance Matrix: (Units=1/GPa)
#
#
# Indices 1 2 3 4 5 6 
#
# 1 0.020532 -0.014211 -0.006923 0.000000 -0.005022 0.000000
# 2 -0.014211 0.029059 0.000881 0.000000 0.011810 0.000000
# 3 -0.006923 0.000881 0.016246 0.000000 -0.006598 0.000000
# 4 0.000000 0.000000 0.000000 0.075039 0.000000 0.002853
# 5 -0.005022 0.011810 -0.006598 0.000000 0.037855 0.000000
# 6 0.000000 0.000000 0.000000 0.002853 0.000000 0.024389
#
#
# Mechanical properties :
#
#
# Convention : Reuss Voigt Hill
#
# Bulk Modulus (GPa) = 39.47867 46.39008 42.93437
# Shear Modulus (GPa) = 19.83580 27.31489 23.57534
#
# Velocity S-wave (km/s) = 2.85850 3.35439 3.11632
# Velocity P-wave (km/s) = 5.21126 5.84056 5.53486
#
# Compressibility (1/GPa) = 0.02533014
#
# Stress axis : x y z
#
# Youngs Moduli (GPa) = 48.70516 34.41322 61.55336
#
# Poissons Ratio (x) = 0.48903 0.42616
# Poissons Ratio (y) = 0.69213 -0.05423
# Poissons Ratio (z) = 0.33721 -0.03032
#
# Static dielectric constant tensor:
#      x y z
#    x 1.899310 0.000000 0.039170 
#    y 0.000000 2.056860 0.000000 
#    z 0.039170 0.000000 1.889950 
# 
# From -- ./inp_files/162653.got.cif
#   From: 2010.05.17/outbox.cif.g08.bks.cpg/sg15_82_cif.got.tgz:162653.got - 2010.06.03 18:47:42.
