data_PCOD9260458
_publ_section_title
;
Structure prediction by ZEFSAII (Michael W. Deem and Ramdas Pophale) SiO2 
 PCOD9260458
Probable space group: C 2/C
;
_chemical_formula_sum "Si O2"
_cell_formula_units_Z 48
_cell_length_a 17.370777
_cell_length_b 29.984678
_cell_length_c 9.333884
_cell_angle_alpha 90.000000
_cell_angle_beta 149.013982
_cell_angle_gamma 90.000000
_cell_volume 2502.902532
_symmetry_space_group_name_H-M "C 2/C"
_symmetry_group_IT_number 15
_symmetry_cell_setting 'monoclinic'
loop_
_space_group_symop_operation_xyz
x,y,z
-x,y,1/2-z
-x,-y,-z
x,-y,1/2+z
1/2+x,1/2+y,z
1/2-x,1/2+y,1/2-z
1/2-x,1/2-y,-z
1/2+x,1/2-y,1/2+z
loop_
_atom_site_type_symbol
_atom_site_label
_atom_site_fract_x
_atom_site_fract_y
_atom_site_fract_z
Si Si1 0.656653 0.019302 0.199835
Si Si2 0.567123 0.298923 0.698031
Si Si3 0.426112 0.799834 0.291325
Si Si4 0.415579 0.378157 0.967909
Si Si5 0.651051 0.527046 0.266834
Si Si6 0.408605 0.117103 0.457746
O O1 0.712788 0.017356 0.126111
O O2 0.637185 0.072237 0.198155
O O3 0.783972 0.990842 0.481781
O O4 0.500000 0.000000 0.000000
O O5 0.500000 0.303149 0.750000
O O6 0.534789 0.249151 0.587042
O O7 0.512350 0.338028 0.506212
O O8 0.747163 0.302702 0.000652
O O9 0.500000 0.799820 0.250000
O O10 0.494882 0.845005 0.466892
O O11 0.390384 0.421356 0.827252
O O12 0.249921 0.362740 0.749052
O O13 0.500000 0.390150 0.250000
O O14 0.500000 0.500000 0.000000
O O15 0.500000 0.104416 0.750000
#
# Coordination Sequence:
#
# PCOD9260458 Si02
#       6
#     8   8   8   8   8   8
#     4  11  22  36  61  88 113 152 204 246 293 354
#     4  10  20  34  62  98 117 150 207 256 292 344
#     4   9  17  35  64  87 119 160 200 237 299 367
#     4  11  22  39  61  87 122 165 200 237 306 376
#     4  11  23  41  59  85 119 159 194 247 301 360
#     4  10  18  37  63  81 113 168 203 231 293 378
#
# _framework density 19.177734000000001
#
# number of rings (size 3 to 8) (size 9 to 14) (size 15 to 20)
#    0.000    1.667    3.333    5.000    0.000    1.333 
#    0.000    0.833    0.000    0.000    0.000    0.000 
#    0.000    0.000    0.000    0.000    0.000    0.000 
#
# Total GULP energy -133641.358115 kJ/mol
# GULP energy per Si atom -5568.389921 kJ/mol
# Density = 1.913408 g / cm^3
# Si number density = 19.177734 Si / 1000 Ang^3
#
#
#
# Elastic Constant Matrix: (Units=GPa)
#
#
# Indices 1 2 3 4 5 6 
#
# 1 59.5381 25.0712 -2.6720 0.0000 18.2864 0.0000
# 2 25.0712 136.9337 18.1391 0.0000 -13.1203 0.0000
# 3 -2.6720 18.1391 62.3233 0.0000 2.8552 0.0000
# 4 0.0000 0.0000 0.0000 24.7587 0.0000 3.7263
# 5 18.2864 -13.1203 2.8552 0.0000 35.3825 0.0000
# 6 0.0000 0.0000 0.0000 3.7263 0.0000 30.1651
#
#
#
# Elastic Compliance Matrix: (Units=1/GPa)
#
#
# Indices 1 2 3 4 5 6 
#
# 1 0.024327 -0.006391 0.003601 0.000000 -0.015233 0.000000
# 2 -0.006391 0.009607 -0.003397 0.000000 0.007139 0.000000
# 3 0.003601 -0.003397 0.017396 0.000000 -0.004524 0.000000
# 4 0.000000 0.000000 0.000000 0.041155 0.000000 -0.005084
# 5 -0.015233 0.007139 -0.004524 0.000000 0.039148 0.000000
# 6 0.000000 0.000000 0.000000 -0.005084 0.000000 0.033779
#
#
# Mechanical properties :
#
#
# Convention : Reuss Voigt Hill
#
# Bulk Modulus (GPa) = 25.66990 37.76353 31.71671
# Shear Modulus (GPa) = 26.20944 32.61172 29.41058
#
# Velocity S-wave (km/s) = 3.70085 4.12818 3.92034
# Velocity P-wave (km/s) = 5.62814 6.51588 6.08821
#
# Compressibility (1/GPa) = 0.03895614
#
# Stress axis : x y z
#
# Youngs Moduli (GPa) = 41.10605 104.09154 57.48530
#
# Poissons Ratio (x) = 0.66521 -0.20700
# Poissons Ratio (y) = 0.26269 0.19529
# Poissons Ratio (z) = -0.14802 0.35361
#
# Static dielectric constant tensor:
#      x y z
#    x 1.674080 0.000000 -0.016640 
#    y 0.000000 1.740400 0.000000 
#    z -0.016640 0.000000 1.713690 
# 
# From -- ./inp_files/52881.got.cif
#   From: 2010.05.17/outbox.cif.g08.bks.cpg/sg15_27_cif.got.tgz:52881.got - 2010.06.03 18:47:42.
