data_PCOD9260472
_publ_section_title
;
Structure prediction by ZEFSAII (Michael W. Deem and Ramdas Pophale) SiO2 
 PCOD9260472
Probable space group: C 2/C
;
_chemical_formula_sum "Si O2"
_cell_formula_units_Z 64
_cell_length_a 9.805406
_cell_length_b 26.994265
_cell_length_c 16.267961
_cell_angle_alpha 90.000000
_cell_angle_beta 127.425301
_cell_angle_gamma 90.000000
_cell_volume 3419.564076
_symmetry_space_group_name_H-M "C 2/C"
_symmetry_group_IT_number 15
_symmetry_cell_setting 'monoclinic'
loop_
_space_group_symop_operation_xyz
x,y,z
-x,y,1/2-z
-x,-y,-z
x,-y,1/2+z
1/2+x,1/2+y,z
1/2-x,1/2+y,1/2-z
1/2-x,1/2-y,-z
1/2+x,1/2-y,1/2+z
loop_
_atom_site_type_symbol
_atom_site_label
_atom_site_fract_x
_atom_site_fract_y
_atom_site_fract_z
Si Si1 0.747514 0.577735 0.336218
Si Si2 0.171600 0.964707 0.263668
Si Si3 0.908064 0.776037 0.513800
Si Si4 0.937431 0.809465 0.350235
Si Si5 0.135095 0.590706 0.532486
Si Si6 0.990906 0.116175 0.381207
Si Si7 0.470288 0.580295 0.556288
Si Si8 0.223442 0.298060 0.107513
O O1 0.702062 0.522031 0.292717
O O2 0.637613 0.593431 0.375993
O O3 0.681064 0.612252 0.237061
O O4 0.946584 0.579862 0.430706
O O5 0.322132 0.933593 0.362791
O O6 0.000000 0.948372 0.250000
O O7 0.116516 0.954600 0.149680
O O8 0.750000 0.750000 0.500000
O O9 0.854859 0.786805 0.400617
O O10 0.960567 0.827762 0.576130
O O11 0.074395 0.741130 0.567431
O O12 0.814068 0.808662 0.227673
O O13 0.984731 0.865664 0.390131
O O14 0.116636 0.782724 0.392008
O O15 0.280551 0.569747 0.523134
O O16 0.153209 0.649901 0.547695
O O17 0.973340 0.085576 0.459450
#
# Coordination Sequence:
#
# PCOD9260472 Si02
#       8
#     8   8   8   8   8   8   8   8
#     4  11  22  39  57  84 125 161 196 238 302 362
#     4  10  18  37  63  87 111 158 193 240 306 357
#     4  11  23  37  57  87 119 162 201 238 303 359
#     4   9  19  37  58  85 114 145 198 253 286 350
#     4  10  20  35  63  89 115 146 203 251 295 352
#     4  10  23  41  56  82 126 164 194 243 297 361
#     4   9  19  38  64  84 114 152 200 248 295 347
#     4  10  19  36  60  85 110 153 198 250 300 339
#
# _framework density 18.715835999999999
#
# number of rings (size 3 to 8) (size 9 to 14) (size 15 to 20)
#    0.000    2.000    2.500    1.500    0.000    4.500 
#    0.000    3.125    2.750    0.000    0.000    0.000 
#    0.000    0.000    0.000    0.000    0.000    0.000 
#
# Total GULP energy -178506.468284 kJ/mol
# GULP energy per Si atom -5578.327134 kJ/mol
# Density = 1.867324 g / cm^3
# Si number density = 18.715836 Si / 1000 Ang^3
#
#
#
# Elastic Constant Matrix: (Units=GPa)
#
#
# Indices 1 2 3 4 5 6 
#
# 1 91.2887 42.8637 67.6909 0.0000 -5.5087 0.0000
# 2 42.8637 65.7089 34.2618 0.0000 -3.4139 0.0000
# 3 67.6909 34.2618 145.6786 0.0000 1.4286 0.0000
# 4 0.0000 0.0000 0.0000 24.0506 0.0000 -2.1727
# 5 -5.5087 -3.4139 1.4286 0.0000 25.8763 0.0000
# 6 0.0000 0.0000 0.0000 -2.1727 0.0000 20.8099
#
#
#
# Elastic Compliance Matrix: (Units=1/GPa)
#
#
# Indices 1 2 3 4 5 6 
#
# 1 0.021514 -0.009813 -0.007725 0.000000 0.003712 0.000000
# 2 -0.009813 0.021987 -0.000619 0.000000 0.000846 0.000000
# 3 -0.007725 -0.000619 0.010622 0.000000 -0.002313 0.000000
# 4 0.000000 0.000000 0.000000 0.041975 0.000000 0.004383
# 5 0.003712 0.000846 -0.002313 0.000000 0.039675 0.000000
# 6 0.000000 0.000000 0.000000 0.004383 0.000000 0.048512
#
#
# Mechanical properties :
#
#
# Convention : Reuss Voigt Hill
#
# Bulk Modulus (GPa) = 56.15594 65.81211 60.98403
# Shear Modulus (GPa) = 22.07138 24.67135 23.37137
#
# Velocity S-wave (km/s) = 3.43780 3.63465 3.53760
# Velocity P-wave (km/s) = 6.76961 7.27011 7.02432
#
# Compressibility (1/GPa) = 0.01780755
#
# Stress axis : x y z
#
# Youngs Moduli (GPa) = 46.48053 45.48101 94.14059
#
# Poissons Ratio (x) = 0.44633 0.72726
# Poissons Ratio (y) = 0.45614 0.05832
# Poissons Ratio (z) = 0.35907 0.02817
#
# Static dielectric constant tensor:
#      x y z
#    x 1.646920 0.000000 -0.011410 
#    y 0.000000 1.656960 0.000000 
#    z -0.011410 0.000000 1.650570 
# 
# From -- ./inp_files/139871.got.cif
#   From: 2010.05.17/outbox.cif.g08.bks.cpg/sg15_70_cif.got.tgz:139871.got - 2010.06.03 18:47:42.
