data_PCOD9260130
_publ_section_title
;
Structure prediction by ZEFSAII (Michael W. Deem and Ramdas Pophale) SiO2 
 PCOD9260130
Probable space group: C 2/C
;
_chemical_formula_sum "Si O2"
_cell_formula_units_Z 44
_cell_length_a 27.725482
_cell_length_b 14.919653
_cell_length_c 5.396084
_cell_angle_alpha 90.000000
_cell_angle_beta 129.551615
_cell_angle_gamma 90.000000
_cell_volume 1721.074933
_symmetry_space_group_name_H-M "C 2/C"
_symmetry_group_IT_number 15
_symmetry_cell_setting 'monoclinic'
loop_
_space_group_symop_operation_xyz
x,y,z
-x,y,1/2-z
-x,-y,-z
x,-y,1/2+z
1/2+x,1/2+y,z
1/2-x,1/2+y,1/2-z
1/2-x,1/2-y,-z
1/2+x,1/2-y,1/2+z
loop_
_atom_site_type_symbol
_atom_site_label
_atom_site_fract_x
_atom_site_fract_y
_atom_site_fract_z
Si Si1 0.564190 0.098356 0.836160
Si Si2 0.193140 0.410688 0.852647
Si Si3 0.000000 0.281440 0.750000
Si Si4 0.911004 0.783716 0.301194
Si Si5 0.840808 0.050738 0.802423
Si Si6 0.313015 0.197820 0.668104
O O1 0.500000 0.061107 0.750000
O O2 0.548696 0.145334 0.523619
O O3 0.626589 0.039702 0.075748
O O4 0.581586 0.186781 0.050347
O O5 0.264442 0.444142 0.051003
O O6 0.188028 0.338121 0.612956
O O7 0.190062 0.376399 0.124491
O O8 0.021088 0.213128 0.602895
O O9 0.877050 0.856926 0.357004
O O10 0.866410 0.767775 0.917890
O O11 0.858302 0.013342 0.128931
O O12 0.250000 0.250000 0.500000
#
# Coordination Sequence:
#
# PCOD9260130 Si02
#       6
#     8   8   4   8   8   8
#     4   9  20  35  61  99 119 150 184 258 328 373
#     4  11  22  38  61  89 127 150 198 253 311 363
#     4  10  18  36  62  94 122 148 192 252 330 372
#     4  10  22  36  61  87 131 150 201 252 308 363
#     4  12  28  43  60  85 122 176 217 243 281 351
#     4  11  20  33  63  95 116 149 186 257 335 363
#
# _framework density 25.565418000000001
#
# number of rings (size 3 to 8) (size 9 to 14) (size 15 to 20)
#    0.000    1.455    3.636    1.636    5.091    0.000 
#    0.000    0.909    0.000    1.091    0.000    0.000 
#    0.000    0.000    0.000    0.000    0.000    0.000 
#
# Total GULP energy -122705.702854 kJ/mol
# GULP energy per Si atom -5577.531948 kJ/mol
# Density = 2.550723 g / cm^3
# Si number density = 25.565418 Si / 1000 Ang^3
#
#
#
# Elastic Constant Matrix: (Units=GPa)
#
#
# Indices 1 2 3 4 5 6 
#
# 1 150.8156 54.4008 7.8280 0.0000 -8.8341 0.0000
# 2 54.4008 80.3624 17.4089 0.0000 2.9643 0.0000
# 3 7.8280 17.4089 52.7914 0.0000 15.3628 0.0000
# 4 0.0000 0.0000 0.0000 27.9013 0.0000 -21.6289
# 5 -8.8341 2.9643 15.3628 0.0000 30.3732 0.0000
# 6 0.0000 0.0000 0.0000 -21.6289 0.0000 22.3356
#
#
#
# Elastic Compliance Matrix: (Units=1/GPa)
#
#
# Indices 1 2 3 4 5 6 
#
# 1 0.009086 -0.006214 -0.000286 0.000000 0.003393 0.000000
# 2 -0.006214 0.017681 -0.004551 0.000000 -0.001231 0.000000
# 3 -0.000286 -0.004551 0.023898 0.000000 -0.011727 0.000000
# 4 0.000000 0.000000 0.000000 0.143745 0.000000 0.139197
# 5 0.003393 -0.001231 -0.011727 0.000000 0.039962 0.000000
# 6 0.000000 0.000000 0.000000 0.139197 0.000000 0.179564
#
#
# Mechanical properties :
#
#
# Convention : Reuss Voigt Hill
#
# Bulk Modulus (GPa) = 35.00909 49.24944 42.12926
# Shear Modulus (GPa) = 11.22187 29.74414 20.48300
#
# Velocity S-wave (km/s) = 2.09738 3.41464 2.83362
# Velocity P-wave (km/s) = 4.42594 5.90358 5.21734
#
# Compressibility (1/GPa) = 0.02856401
#
# Stress axis : x y z
#
# Youngs Moduli (GPa) = 110.06466 56.55699 41.84415
#
# Poissons Ratio (x) = 0.35143 0.01195
# Poissons Ratio (y) = 0.68391 0.19044
# Poissons Ratio (z) = 0.03144 0.25740
#
# Static dielectric constant tensor:
#      x y z
#    x 2.355590 0.000000 0.007970 
#    y 0.000000 2.058170 0.000000 
#    z 0.007970 0.000000 2.272810 
# 
# From -- ./inp_files/12863.got.cif
#   From: 2010.05.17/outbox.cif.g08.bks.cpg/sg15_7_cif.got.tgz:12863.got - 2010.06.03 18:47:42.
