data_PCOD9260544
_publ_section_title
;
Structure prediction by ZEFSAII (Michael W. Deem and Ramdas Pophale) SiO2 
 PCOD9260544
Probable space group: C 2/C
;
_chemical_formula_sum "Si O2"
_cell_formula_units_Z 56
_cell_length_a 16.071662
_cell_length_b 12.575533
_cell_length_c 17.790389
_cell_angle_alpha 90.000000
_cell_angle_beta 138.213467
_cell_angle_gamma 90.000000
_cell_volume 2395.961039
_symmetry_space_group_name_H-M "C 2/C"
_symmetry_group_IT_number 15
_symmetry_cell_setting 'monoclinic'
loop_
_space_group_symop_operation_xyz
x,y,z
-x,y,1/2-z
-x,-y,-z
x,-y,1/2+z
1/2+x,1/2+y,z
1/2-x,1/2+y,1/2-z
1/2-x,1/2-y,-z
1/2+x,1/2-y,1/2+z
loop_
_atom_site_type_symbol
_atom_site_label
_atom_site_fract_x
_atom_site_fract_y
_atom_site_fract_z
Si Si1 0.053478 0.051608 0.610453
Si Si2 0.811142 0.267276 0.846690
Si Si3 0.632142 0.527632 0.810328
Si Si4 0.123102 0.628161 0.783259
Si Si5 0.960896 0.612996 0.941949
Si Si6 0.728415 0.750825 0.845428
Si Si7 0.726187 0.551006 0.026255
O O1 0.129446 0.152774 0.634503
O O2 0.141403 0.989761 0.729902
O O3 0.922107 0.070858 0.563924
O O4 0.000000 0.000000 0.500000
O O5 0.689956 0.241146 0.814043
O O6 0.791662 0.309687 0.748457
O O7 0.911552 0.322654 0.965873
O O8 0.500000 0.484299 0.750000
O O9 0.631641 0.656135 0.797316
O O10 0.735399 0.516646 0.944872
O O11 0.087268 0.596012 0.674525
O O12 0.214901 0.542759 0.884291
O O13 0.000000 0.635899 0.750000
O O14 0.857709 0.683875 0.918208
O O15 0.000000 0.500000 0.000000
O O16 0.721299 0.837352 0.906867
#
# Coordination Sequence:
#
# PCOD9260544 Si02
#       7
#     8   8   8   8   8   8   8
#     4  10  18  37  66  93 126 169 221 260 317 390
#     4  10  21  43  66  89 129 170 225 272 315 393
#     4   9  21  35  57  93 134 168 206 262 328 396
#     4  11  26  42  64  97 133 175 220 264 329 394
#     4  11  24  43  69  95 125 173 227 277 325 385
#     4  10  21  37  64  97 128 170 211 268 338 386
#     4  11  20  38  63  96 133 165 213 271 329 390
#
# _framework density 23.372668000000001
#
# number of rings (size 3 to 8) (size 9 to 14) (size 15 to 20)
#    0.000    1.714    2.857    1.286    2.000    1.143 
#    0.000    0.000    3.143    0.000    0.000    0.000 
#    0.000    0.000    0.000    0.000    0.000    0.000 
#
# Total GULP energy -156132.616612 kJ/mol
# GULP energy per Si atom -5576.164879 kJ/mol
# Density = 2.331947 g / cm^3
# Si number density = 23.372668 Si / 1000 Ang^3
#
#
#
# Elastic Constant Matrix: (Units=GPa)
#
#
# Indices 1 2 3 4 5 6 
#
# 1 75.6032 19.5224 32.4062 0.0000 4.8988 0.0000
# 2 19.5224 35.8757 47.4839 0.0000 -15.3868 0.0000
# 3 32.4062 47.4839 177.4452 0.0000 -36.9175 0.0000
# 4 0.0000 0.0000 0.0000 23.2506 0.0000 -4.6757
# 5 4.8988 -15.3868 -36.9175 0.0000 45.1287 0.0000
# 6 0.0000 0.0000 0.0000 -4.6757 0.0000 21.3764
#
#
#
# Elastic Compliance Matrix: (Units=1/GPa)
#
#
# Indices 1 2 3 4 5 6 
#
# 1 0.016947 -0.009522 -0.001934 0.000000 -0.006668 0.000000
# 2 -0.009522 0.050074 -0.009513 0.000000 0.010325 0.000000
# 3 -0.001934 -0.009513 0.009524 0.000000 0.004758 0.000000
# 4 0.000000 0.000000 0.000000 0.044989 0.000000 0.009841
# 5 -0.006668 0.010325 0.004758 0.000000 0.030295 0.000000
# 6 0.000000 0.000000 0.000000 0.009841 0.000000 0.048933
#
#
# Mechanical properties :
#
#
# Convention : Reuss Voigt Hill
#
# Bulk Modulus (GPa) = 28.89519 54.19432 41.54476
# Shear Modulus (GPa) = 19.66676 30.58527 25.12602
#
# Velocity S-wave (km/s) = 2.90391 3.62137 3.28230
# Velocity P-wave (km/s) = 4.86140 6.38147 5.67258
#
# Compressibility (1/GPa) = 0.03460784
#
# Stress axis : x y z
#
# Youngs Moduli (GPa) = 59.00791 19.97025 104.99482
#
# Poissons Ratio (x) = 0.19015 0.20309
# Poissons Ratio (y) = 0.56186 0.99880
# Poissons Ratio (z) = 0.11414 0.18997
#
# Static dielectric constant tensor:
#      x y z
#    x 1.936260 0.000000 -0.201720 
#    y 0.000000 2.040820 0.000000 
#    z -0.201720 0.000000 1.948980 
# 
# From -- ./inp_files/211225.got.cif
#   From: 2010.05.17/outbox.cif.g08.bks.cpg/sg15_106_cif.got.tgz:211225.got - 2010.06.03 18:47:42.
