data_PCOD9260320
_publ_section_title
;
Structure prediction by ZEFSAII (Michael W. Deem and Ramdas Pophale) SiO2 
 PCOD9260320
Probable space group: C 2/C
;
_chemical_formula_sum "Si O2"
_cell_formula_units_Z 48
_cell_length_a 14.833239
_cell_length_b 15.889772
_cell_length_c 9.594935
_cell_angle_alpha 90.000000
_cell_angle_beta 75.127442
_cell_angle_gamma 90.000000
_cell_volume 2185.733262
_symmetry_space_group_name_H-M "C 2/C"
_symmetry_group_IT_number 15
_symmetry_cell_setting 'monoclinic'
loop_
_space_group_symop_operation_xyz
x,y,z
-x,y,1/2-z
-x,-y,-z
x,-y,1/2+z
1/2+x,1/2+y,z
1/2-x,1/2+y,1/2-z
1/2-x,1/2-y,-z
1/2+x,1/2-y,1/2+z
loop_
_atom_site_type_symbol
_atom_site_label
_atom_site_fract_x
_atom_site_fract_y
_atom_site_fract_z
Si Si1 0.701345 0.627432 0.586639
Si Si2 0.167930 0.789697 0.373802
Si Si3 0.595097 0.866685 0.357595
Si Si4 0.846026 0.804521 0.691148
Si Si5 0.806583 0.934792 0.912385
Si Si6 0.897675 0.382305 0.474441
O O1 0.644442 0.678033 0.727884
O O2 0.808510 0.623408 0.598029
O O3 0.694761 0.673905 0.442922
O O4 0.668629 0.531610 0.580669
O O5 0.268800 0.745166 0.313411
O O6 0.174960 0.873356 0.464195
O O7 0.112646 0.713857 0.466819
O O8 0.576111 0.765800 0.356016
O O9 0.504379 0.906771 0.464171
O O10 0.607374 0.893764 0.191719
O O11 0.862373 0.890835 0.764614
O O12 0.694043 0.928454 0.928808
#
# Coordination Sequence:
#
# PCOD9260320 Si02
#       6
#     8   8   8   8   8   8
#     4  11  22  32  56  84 114 132 175 232 275 302
#     4  10  18  37  55  77 102 146 190 211 250 325
#     4  10  19  35  55  83 104 144 181 220 261 319
#     4  10  19  35  55  78 107 142 186 220 252 316
#     4  11  19  35  56  82 108 144 178 217 268 323
#     4  10  19  34  60  76 107 143 187 212 260 326
#
# _framework density 21.960594
#
# number of rings (size 3 to 8) (size 9 to 14) (size 15 to 20)
#    0.000    1.667    5.000    4.000    0.000    0.667 
#    0.000    7.500    0.000    6.000    0.000    0.000 
#    0.000    0.000    0.000    0.000    0.000    0.000 
#
# Total GULP energy -133808.322263 kJ/mol
# GULP energy per Si atom -5575.346761 kJ/mol
# Density = 2.191061 g / cm^3
# Si number density = 21.960594 Si / 1000 Ang^3
#
#
#
# Elastic Constant Matrix: (Units=GPa)
#
#
# Indices 1 2 3 4 5 6 
#
# 1 21.9361 -3.9620 15.2474 0.0000 -9.1038 0.0000
# 2 -3.9620 102.5256 16.0554 0.0000 -9.0950 0.0000
# 3 15.2474 16.0554 83.5741 0.0000 9.6232 0.0000
# 4 0.0000 0.0000 0.0000 16.7926 0.0000 3.7917
# 5 -9.1038 -9.0950 9.6232 0.0000 26.1448 0.0000
# 6 0.0000 0.0000 0.0000 3.7917 0.0000 2.9330
#
#
#
# Elastic Compliance Matrix: (Units=1/GPa)
#
#
# Indices 1 2 3 4 5 6 
#
# 1 0.076844 0.009448 -0.020148 0.000000 0.037460 0.000000
# 2 0.009448 0.011726 -0.005038 0.000000 0.009223 0.000000
# 3 -0.020148 -0.005038 0.018399 0.000000 -0.015540 0.000000
# 4 0.000000 0.000000 0.000000 0.084097 0.000000 -0.108716
# 5 0.037460 0.009223 -0.015540 0.000000 0.060221 0.000000
# 6 0.000000 0.000000 0.000000 -0.108716 0.000000 0.481484
#
#
# Mechanical properties :
#
#
# Convention : Reuss Voigt Hill
#
# Bulk Modulus (GPa) = 13.24651 29.19083 21.21867
# Shear Modulus (GPa) = 6.33383 21.22043 13.77713
#
# Velocity S-wave (km/s) = 1.70013 3.11190 2.50743
# Velocity P-wave (km/s) = 3.14626 5.12183 4.25042
#
# Compressibility (1/GPa) = 0.07549156
#
# Stress axis : x y z
#
# Youngs Moduli (GPa) = 13.01336 85.28094 54.35210
#
# Poissons Ratio (x) = -0.80571 1.09508
# Poissons Ratio (y) = -0.12295 0.27384
# Poissons Ratio (z) = 0.26219 0.42968
#
# Static dielectric constant tensor:
#      x y z
#    x 1.847310 0.000000 -0.013820 
#    y 0.000000 1.845790 0.000000 
#    z -0.013820 0.000000 1.824400 
# 
# From -- ./inp_files/47955.got.cif
#   From: 2010.05.17/outbox.cif.g08.bks.cpg/sg15_24_cif.got.tgz:47955.got - 2010.06.03 18:47:42.
