data_PCOD9260124
_publ_section_title
;
Structure prediction by ZEFSAII (Michael W. Deem and Ramdas Pophale) SiO2 
 PCOD9260124
Probable space group: C 2/C
;
_chemical_formula_sum "Si O2"
_cell_formula_units_Z 52
_cell_length_a 5.069888
_cell_length_b 29.202390
_cell_length_c 16.952613
_cell_angle_alpha 90.000000
_cell_angle_beta 127.715022
_cell_angle_gamma 90.000000
_cell_volume 1985.475705
_symmetry_space_group_name_H-M "C 2/C"
_symmetry_group_IT_number 15
_symmetry_cell_setting 'monoclinic'
loop_
_space_group_symop_operation_xyz
x,y,z
-x,y,1/2-z
-x,-y,-z
x,-y,1/2+z
1/2+x,1/2+y,z
1/2-x,1/2+y,1/2-z
1/2-x,1/2-y,-z
1/2+x,1/2-y,1/2+z
loop_
_atom_site_type_symbol
_atom_site_label
_atom_site_fract_x
_atom_site_fract_y
_atom_site_fract_z
Si Si1 0.393456 0.938201 0.814214
Si Si2 0.685548 0.379147 0.403277
Si Si3 0.153551 0.291414 0.140751
Si Si4 0.767063 0.155532 0.411605
Si Si5 0.500000 0.910411 0.250000
Si Si6 0.141193 0.531834 0.638362
Si Si7 0.687341 0.784162 0.582124
O O1 0.500000 0.960066 0.750000
O O2 0.616399 0.892739 0.856213
O O3 0.000000 0.926501 0.750000
O O4 0.457007 0.979215 0.888564
O O5 0.897475 0.344867 0.387951
O O6 0.645723 0.357863 0.482108
O O7 0.324293 0.380812 0.298617
O O8 0.829247 0.430438 0.424461
O O9 0.500000 0.284677 0.250000
O O10 0.872257 0.263067 0.134385
O O11 0.082780 0.273594 0.037170
O O12 0.470301 0.191806 0.371059
O O13 0.045556 0.179430 0.408027
O O14 0.586616 0.942567 0.339640
O O15 0.500000 0.529908 0.750000
#
# Coordination Sequence:
#
# PCOD9260124 Si02
#       7
#     8   8   8   8   4   8   8
#     4  11  23  43  69  94 127 185 231 267 335 396
#     4  10  23  36  64  98 132 173 216 275 343 393
#     4  10  22  43  69  97 130 179 222 268 346 408
#     4  11  25  45  66  95 138 172 220 283 327 393
#     4  10  18  36  62  92 136 166 216 278 322 398
#     4   9  19  37  59  94 132 169 219 278 321 391
#     4  10  25  46  64  99 139 167 222 290 327 389
#
# _framework density 26.190194000000002
#
# number of rings (size 3 to 8) (size 9 to 14) (size 15 to 20)
#    0.000    1.846    0.769    2.308    6.462    8.000 
#    0.000    0.769    0.000    0.000    0.000    0.000 
#    0.000    0.000    0.000    0.000    0.000    0.000 
#
# Total GULP energy -145248.914562 kJ/mol
# GULP energy per Si atom -5586.496714 kJ/mol
# Density = 2.613058 g / cm^3
# Si number density = 26.190194 Si / 1000 Ang^3
#
#
#
# Elastic Constant Matrix: (Units=GPa)
#
#
# Indices 1 2 3 4 5 6 
#
# 1 118.9006 41.2606 20.1081 0.0000 7.5866 0.0000
# 2 41.2606 172.5356 41.8007 0.0000 13.9096 0.0000
# 3 20.1081 41.8007 79.5526 0.0000 1.2454 0.0000
# 4 0.0000 0.0000 0.0000 41.6290 0.0000 10.3404
# 5 7.5866 13.9096 1.2454 0.0000 21.0457 0.0000
# 6 0.0000 0.0000 0.0000 10.3404 0.0000 55.2422
#
#
#
# Elastic Compliance Matrix: (Units=1/GPa)
#
#
# Indices 1 2 3 4 5 6 
#
# 1 0.009389 -0.001724 -0.001434 0.000000 -0.002160 0.000000
# 2 -0.001724 0.007348 -0.003362 0.000000 -0.004036 0.000000
# 3 -0.001434 -0.003362 0.014670 0.000000 0.001871 0.000000
# 4 0.000000 0.000000 0.000000 0.025193 0.000000 -0.004716
# 5 -0.002160 -0.004036 0.001871 0.000000 0.050851 0.000000
# 6 0.000000 0.000000 0.000000 -0.004716 0.000000 0.018985
#
#
# Mechanical properties :
#
#
# Convention : Reuss Voigt Hill
#
# Bulk Modulus (GPa) = 54.44274 64.14749 59.29512
# Shear Modulus (GPa) = 34.34117 41.43802 37.88960
#
# Velocity S-wave (km/s) = 3.62501 3.98200 3.80769
# Velocity P-wave (km/s) = 6.19302 6.75928 6.48234
#
# Compressibility (1/GPa) = 0.01836792
#
# Stress axis : x y z
#
# Youngs Moduli (GPa) = 106.50922 136.08996 68.16631
#
# Poissons Ratio (x) = 0.23459 0.09772
# Poissons Ratio (y) = 0.18360 0.22918
# Poissons Ratio (z) = 0.15269 0.45755
#
# Static dielectric constant tensor:
#      x y z
#    x 2.121640 0.000000 -0.030700 
#    y 0.000000 2.110980 0.000000 
#    z -0.030700 0.000000 2.125360 
# 
# From -- ./inp_files/228833.got.cif
#   From: 2010.05.17/outbox.cif.g08.bks.cpg/sg15_115_cif.got.tgz:228833.got - 2010.06.03 18:47:42.
