data_PCOD9260918
_publ_section_title
;
Structure prediction by ZEFSAII (Michael W. Deem and Ramdas Pophale) SiO2 
 PCOD9260918
Probable space group: C 2/C
;
_chemical_formula_sum "Si O2"
_cell_formula_units_Z 36
_cell_length_a 4.825409
_cell_length_b 13.889344
_cell_length_c 22.784952
_cell_angle_alpha 90.000000
_cell_angle_beta 107.858616
_cell_angle_gamma 90.000000
_cell_volume 1453.506754
_symmetry_space_group_name_H-M "C 2/C"
_symmetry_group_IT_number 15
_symmetry_cell_setting 'monoclinic'
loop_
_space_group_symop_operation_xyz
x,y,z
-x,y,1/2-z
-x,-y,-z
x,-y,1/2+z
1/2+x,1/2+y,z
1/2-x,1/2+y,1/2-z
1/2-x,1/2-y,-z
1/2+x,1/2-y,1/2+z
loop_
_atom_site_type_symbol
_atom_site_label
_atom_site_fract_x
_atom_site_fract_y
_atom_site_fract_z
Si Si1 0.289938 0.465422 0.100657
Si Si2 0.194353 0.400278 0.973602
Si Si3 0.807509 0.094652 0.294042
Si Si4 0.250000 0.750000 0.000000
Si Si5 0.390469 0.755779 0.391207
O O1 0.526962 0.519603 0.154152
O O2 0.253728 0.358487 0.122492
O O3 0.997974 0.532327 0.080947
O O4 0.363405 0.456238 0.036163
O O5 0.376244 0.316305 0.950665
O O6 0.959316 0.344671 0.999083
O O7 0.500000 0.059979 0.250000
O O8 0.784396 0.189371 0.332561
O O9 0.000000 0.116804 0.250000
O O10 0.268202 0.772432 0.075429
#
# Coordination Sequence:
#
# PCOD9260918 Si02
#       5
#     8   8   8   4   8
#     4  10  22  46  73 107 143 190 243 300 375 443
#     4  10  21  43  69 116 148 175 234 312 380 446
#     4  12  28  53  73 102 154 205 258 305 356 451
#     4  10  18  38  72 104 142 174 224 300 384 420
#     4  11  24  46  73 106 147 187 239 312 381 435
#
# _framework density 24.767689000000001
#
# number of rings (size 3 to 8) (size 9 to 14) (size 15 to 20)
#    0.000    1.333    2.222    4.000    0.000    1.778 
#   28.000    6.667    0.000    0.000    0.000    0.000 
#    0.000    0.000    0.000    0.000    0.000    0.000 
#
# Total GULP energy -100313.266947 kJ/mol
# GULP energy per Si atom -5572.959275 kJ/mol
# Density = 2.471132 g / cm^3
# Si number density = 24.767689 Si / 1000 Ang^3
#
#
#
# Elastic Constant Matrix: (Units=GPa)
#
#
# Indices 1 2 3 4 5 6 
#
# 1 50.3766 41.5624 42.2097 0.0000 14.7371 0.0000
# 2 41.5624 200.7482 99.5221 0.0000 7.8238 0.0000
# 3 42.2097 99.5221 185.6524 0.0000 37.8993 0.0000
# 4 0.0000 0.0000 0.0000 275.2216 0.0000 29.3372
# 5 14.7371 7.8238 37.8993 0.0000 44.7937 0.0000
# 6 0.0000 0.0000 0.0000 29.3372 0.0000 28.9823
#
#
#
# Elastic Compliance Matrix: (Units=1/GPa)
#
#
# Indices 1 2 3 4 5 6 
#
# 1 0.027256 -0.003997 -0.002860 0.000000 -0.005849 0.000000
# 2 -0.003997 0.007570 -0.003805 0.000000 0.003212 0.000000
# 3 -0.002860 -0.003805 0.009366 0.000000 -0.006319 0.000000
# 4 0.000000 0.000000 0.000000 0.004073 0.000000 -0.004123
# 5 -0.005849 0.003212 -0.006319 0.000000 0.029035 0.000000
# 6 0.000000 0.000000 0.000000 -0.004123 0.000000 0.038677
#
#
# Mechanical properties :
#
#
# Convention : Reuss Voigt Hill
#
# Bulk Modulus (GPa) = 43.72950 89.26283 66.49617
# Shear Modulus (GPa) = 34.50087 86.69838 60.59963
#
# Velocity S-wave (km/s) = 3.73631 5.92289 4.95180
# Velocity P-wave (km/s) = 6.02558 9.10453 7.72010
#
# Compressibility (1/GPa) = 0.02286786
#
# Stress axis : x y z
#
# Youngs Moduli (GPa) = 36.68953 132.09861 106.76395
#
# Poissons Ratio (x) = 0.52801 0.30535
# Poissons Ratio (y) = 0.14665 0.40624
# Poissons Ratio (z) = 0.10493 0.50264
#
# Static dielectric constant tensor:
#      x y z
#    x 8.460080 0.000000 3.965200 
#    y 0.000000 0.805490 0.000000 
#    z 3.965200 0.000000 4.525000 
# 
# From -- ./inp_files/226518.got.cif
#   From: 2010.05.17/outbox.cif.g08.bks.cpg/sg15_114_cif.got.tgz:226518.got - 2010.06.03 18:47:42.
