data_PCOD9260045
_publ_section_title
;
Structure prediction by ZEFSAII (Michael W. Deem and Ramdas Pophale) SiO2 
 PCOD9260045
Probable space group: C 2/C
;
_chemical_formula_sum "Si O2"
_cell_formula_units_Z 48
_cell_length_a 8.344186
_cell_length_b 17.712645
_cell_length_c 17.847205
_cell_angle_alpha 90.000000
_cell_angle_beta 53.842730
_cell_angle_gamma 90.000000
_cell_volume 2129.740293
_symmetry_space_group_name_H-M "C 2/C"
_symmetry_group_IT_number 15
_symmetry_cell_setting 'monoclinic'
loop_
_space_group_symop_operation_xyz
x,y,z
-x,y,1/2-z
-x,-y,-z
x,-y,1/2+z
1/2+x,1/2+y,z
1/2-x,1/2+y,1/2-z
1/2-x,1/2-y,-z
1/2+x,1/2-y,1/2+z
loop_
_atom_site_type_symbol
_atom_site_label
_atom_site_fract_x
_atom_site_fract_y
_atom_site_fract_z
Si Si1 0.538433 0.219932 0.029633
Si Si2 0.706244 0.091145 0.401198
Si Si3 0.211458 0.572617 0.220891
Si Si4 0.134577 0.204879 0.786282
Si Si5 0.468465 0.541994 0.849111
Si Si6 0.463701 0.708902 0.126414
O O1 0.503096 0.131374 0.021913
O O2 0.398902 0.236710 0.138315
O O3 0.750000 0.250000 0.000000
O O4 0.475676 0.263651 0.972219
O O5 0.714199 0.080201 0.309769
O O6 0.872546 0.154126 0.380605
O O7 0.770682 0.009391 0.416357
O O8 0.367810 0.509263 0.156423
O O9 0.278835 0.651850 0.168206
O O10 0.000000 0.550743 0.250000
O O11 0.036703 0.127591 0.846521
O O12 0.363803 0.219186 0.697246
O O13 0.000000 0.217702 0.750000
O O14 0.500000 0.540012 0.750000
#
# Coordination Sequence:
#
# PCOD9260045 Si02
#       6
#     8   8   8   8   8   8
#     4  12  23  36  62  97 122 164 218 264 313 375
#     4  10  21  40  62  88 126 174 207 254 324 384
#     4  10  18  36  61  88 116 164 207 248 311 379
#     4  11  21  40  64  93 128 161 208 271 313 364
#     4   8  19  37  62  83 124 168 204 249 323 376
#     4  11  21  37  63  92 124 161 211 262 314 370
#
# _framework density 22.537959000000001
#
# number of rings (size 3 to 8) (size 9 to 14) (size 15 to 20)
#    0.000    1.667    3.333    3.500    0.000    0.000 
#    3.000    4.167    3.667    0.000    0.000    0.000 
#    0.000    0.000    0.000    0.000    0.000    0.000 
#
# Total GULP energy -133630.170511 kJ/mol
# GULP energy per Si atom -5567.923771 kJ/mol
# Density = 2.248666 g / cm^3
# Si number density = 22.537959 Si / 1000 Ang^3
#
#
#
# Elastic Constant Matrix: (Units=GPa)
#
#
# Indices 1 2 3 4 5 6 
#
# 1 95.3128 51.4379 17.8652 0.0000 -0.4228 0.0000
# 2 51.4379 145.4427 5.6100 0.0000 -4.4204 0.0000
# 3 17.8652 5.6100 50.6329 0.0000 17.5348 0.0000
# 4 0.0000 0.0000 0.0000 17.2523 0.0000 -3.6151
# 5 -0.4228 -4.4204 17.5348 0.0000 21.6191 0.0000
# 6 0.0000 0.0000 0.0000 -3.6151 0.0000 24.7512
#
#
#
# Elastic Compliance Matrix: (Units=1/GPa)
#
#
# Indices 1 2 3 4 5 6 
#
# 1 0.014118 -0.004641 -0.005888 0.000000 0.004103 0.000000
# 2 -0.004641 0.008557 0.000160 0.000000 0.001529 0.000000
# 3 -0.005888 0.000160 0.030368 0.000000 -0.024714 0.000000
# 4 0.000000 0.000000 0.000000 0.059793 0.000000 0.008733
# 5 0.004103 0.001529 -0.024714 0.000000 0.066693 0.000000
# 6 0.000000 0.000000 0.000000 0.008733 0.000000 0.041678
#
#
# Mechanical properties :
#
#
# Convention : Reuss Voigt Hill
#
# Bulk Modulus (GPa) = 30.95483 49.02383 39.98933
# Shear Modulus (GPa) = 19.78506 27.15619 23.47062
#
# Velocity S-wave (km/s) = 2.96608 3.47495 3.23055
# Velocity P-wave (km/s) = 5.04921 6.15623 5.63000
#
# Compressibility (1/GPa) = 0.03230513
#
# Stress axis : x y z
#
# Youngs Moduli (GPa) = 70.82914 116.85841 32.92889
#
# Poissons Ratio (x) = 0.54239 0.19389
# Poissons Ratio (y) = 0.32875 -0.00527
# Poissons Ratio (z) = 0.41705 -0.01869
#
# Static dielectric constant tensor:
#      x y z
#    x 1.867690 0.000000 -0.076490 
#    y 0.000000 1.944850 0.000000 
#    z -0.076490 0.000000 1.827170 
# 
# From -- ./inp_files/190235.got.cif
#   From: 2010.05.17/outbox.cif.g08.bks.cpg/sg15_96_cif.got.tgz:190235.got - 2010.06.03 18:47:42.
