data_PCOD9260855
_publ_section_title
;
Structure prediction by ZEFSAII (Michael W. Deem and Ramdas Pophale) SiO2 
 PCOD9260855
Probable space group: C 2/C
;
_chemical_formula_sum "Si O2"
_cell_formula_units_Z 40
_cell_length_a 23.343058
_cell_length_b 7.620472
_cell_length_c 9.197775
_cell_angle_alpha 90.000000
_cell_angle_beta 78.576128
_cell_angle_gamma 90.000000
_cell_volume 1603.733163
_symmetry_space_group_name_H-M "C 2/C"
_symmetry_group_IT_number 15
_symmetry_cell_setting 'monoclinic'
loop_
_space_group_symop_operation_xyz
x,y,z
-x,y,1/2-z
-x,-y,-z
x,-y,1/2+z
1/2+x,1/2+y,z
1/2-x,1/2+y,1/2-z
1/2-x,1/2-y,-z
1/2+x,1/2-y,1/2+z
loop_
_atom_site_type_symbol
_atom_site_label
_atom_site_fract_x
_atom_site_fract_y
_atom_site_fract_z
Si Si1 0.500000 0.310197 0.250000
Si Si2 0.000000 0.500000 0.000000
Si Si3 0.383961 0.493008 0.414124
Si Si4 0.367872 0.865042 0.093935
Si Si5 0.799713 0.499457 0.368357
Si Si6 0.320549 0.643911 0.680639
O O1 0.446799 0.443255 0.315328
O O2 0.491210 0.174877 0.119456
O O3 0.068975 0.548518 0.952144
O O4 0.371212 0.326412 0.524169
O O5 0.371841 0.649571 0.533222
O O6 0.339913 0.483391 0.301723
O O7 0.318186 0.959377 0.022079
O O8 0.347616 0.875484 0.269215
O O9 0.736254 0.421352 0.376073
O O10 0.806353 0.679499 0.274496
#
# Coordination Sequence:
#
# PCOD9260855 Si02
#       6
#     4   4   8   8   8   8
#     4  10  22  42  66  94 126 160 204 258 310 368
#     4  10  18  38  66  90 120 156 198 250 308 364
#     4  10  23  41  61  88 125 163 205 256 309 364
#     4  10  21  38  61  90 121 155 204 260 309 366
#     4  11  23  38  61  92 125 164 209 255 311 368
#     4  11  23  40  61  89 126 166 207 256 310 368
#
# _framework density 24.941804999999999
#
# number of rings (size 3 to 8) (size 9 to 14) (size 15 to 20)
#    0.000    1.600    0.000    6.000    0.000    8.800 
#    0.000    4.000    0.000    1.200    0.000    0.000 
#    0.000    0.000    0.000    0.000    0.000    0.000 
#
# Total GULP energy -111373.547951 kJ/mol
# GULP energy per Si atom -5568.677398 kJ/mol
# Density = 2.488504 g / cm^3
# Si number density = 24.941805 Si / 1000 Ang^3
#
#
#
# Elastic Constant Matrix: (Units=GPa)
#
#
# Indices 1 2 3 4 5 6 
#
# 1 92.3727 21.5866 13.9178 0.0000 -9.2246 0.0000
# 2 21.5866 62.4578 12.6322 0.0000 0.1197 0.0000
# 3 13.9178 12.6322 95.6137 0.0000 -10.7966 0.0000
# 4 0.0000 0.0000 0.0000 45.3956 0.0000 -2.9432
# 5 -9.2246 0.1197 -10.7966 0.0000 28.6955 0.0000
# 6 0.0000 0.0000 0.0000 -2.9432 0.0000 11.3656
#
#
#
# Elastic Compliance Matrix: (Units=1/GPa)
#
#
# Indices 1 2 3 4 5 6 
#
# 1 0.012269 -0.004078 -0.000835 0.000000 0.003647 0.000000
# 2 -0.004078 0.017830 -0.002004 0.000000 -0.002139 0.000000
# 3 -0.000835 -0.002004 0.011296 0.000000 0.003990 0.000000
# 4 0.000000 0.000000 0.000000 0.022405 0.000000 0.005802
# 5 0.003647 -0.002139 0.003990 0.000000 0.037531 0.000000
# 6 0.000000 0.000000 0.000000 0.005802 0.000000 0.089487
#
#
# Mechanical properties :
#
#
# Convention : Reuss Voigt Hill
#
# Bulk Modulus (GPa) = 36.28486 38.52418 37.40452
# Shear Modulus (GPa) = 23.38222 30.57852 26.98037
#
# Velocity S-wave (km/s) = 3.06514 3.50522 3.29254
# Velocity P-wave (km/s) = 5.20636 5.64458 5.42989
#
# Compressibility (1/GPa) = 0.02755970
#
# Stress axis : x y z
#
# Youngs Moduli (GPa) = 81.50751 56.08621 88.53036
#
# Poissons Ratio (x) = 0.22874 0.07395
# Poissons Ratio (y) = 0.33242 0.17737
# Poissons Ratio (z) = 0.06808 0.11237
#
# Static dielectric constant tensor:
#      x y z
#    x 1.925190 0.000000 -0.021370 
#    y 0.000000 2.050740 0.000000 
#    z -0.021370 0.000000 1.947220 
# 
# From -- ./inp_files/59970.got.cif
#   From: 2010.05.17/outbox.cif.g08.bks.cpg/sg15_30_cif.got.tgz:59970.got - 2010.06.03 18:47:42.
