data_PCOD9260754
_publ_section_title
;
Structure prediction by ZEFSAII (Michael W. Deem and Ramdas Pophale) SiO2 
 PCOD9260754
Probable space group: C 2/C
;
_chemical_formula_sum "Si O2"
_cell_formula_units_Z 40
_cell_length_a 14.166081
_cell_length_b 13.105840
_cell_length_c 19.527182
_cell_angle_alpha 90.000000
_cell_angle_beta 150.204435
_cell_angle_gamma 90.000000
_cell_volume 1801.478517
_symmetry_space_group_name_H-M "C 2/C"
_symmetry_group_IT_number 15
_symmetry_cell_setting 'monoclinic'
loop_
_space_group_symop_operation_xyz
x,y,z
-x,y,1/2-z
-x,-y,-z
x,-y,1/2+z
1/2+x,1/2+y,z
1/2-x,1/2+y,1/2-z
1/2-x,1/2-y,-z
1/2+x,1/2-y,1/2+z
loop_
_atom_site_type_symbol
_atom_site_label
_atom_site_fract_x
_atom_site_fract_y
_atom_site_fract_z
Si Si1 0.814831 0.535604 0.184240
Si Si2 0.267941 0.822057 0.105653
Si Si3 0.696415 0.610091 0.409227
Si Si4 0.960527 0.565246 0.042080
Si Si5 0.773343 0.259459 0.595443
O O1 0.729721 0.421025 0.128772
O O2 0.707746 0.631127 0.083077
O O3 0.000000 0.528315 0.250000
O O4 0.870716 0.571097 0.296118
O O5 0.500000 0.813729 0.250000
O O6 0.212442 0.702814 0.078763
O O7 0.182123 0.849901 0.977592
O O8 0.500000 0.584765 0.250000
O O9 0.813746 0.507696 0.489258
O O10 0.856545 0.669388 0.957711
O O11 0.000000 0.500000 0.000000
O O12 0.750000 0.250000 0.500000
O O13 0.000000 0.247622 0.750000
#
# Coordination Sequence:
#
# PCOD9260754 Si02
#       5
#     8   8   8   8   8
#     4  10  18  38  63  85 120 165 212 251 315 380
#     4   9  16  33  61  85 111 152 208 247 295 363
#     4  10  19  33  60  92 113 155 213 249 296 390
#     4  12  24  40  59  95 133 163 201 281 333 363
#     4  11  20  39  72  96 119 174 233 259 306 403
#
# _framework density 22.203983999999998
#
# number of rings (size 3 to 8) (size 9 to 14) (size 15 to 20)
#    0.000    1.600    8.000    0.600    0.000    0.000 
#    3.600    0.000    0.000    3.600    0.000    0.000 
#    0.000    0.000    0.000    0.000    0.000    0.000 
#
# Total GULP energy -111457.701369 kJ/mol
# GULP energy per Si atom -5572.885068 kJ/mol
# Density = 2.215345 g / cm^3
# Si number density = 22.203984 Si / 1000 Ang^3
#
#
#
# Elastic Constant Matrix: (Units=GPa)
#
#
# Indices 1 2 3 4 5 6 
#
# 1 36.5140 -8.6593 13.2197 -0.0001 -7.6246 0.0002
# 2 -8.6593 144.3370 2.1601 -0.0005 10.7089 0.0001
# 3 13.2197 2.1601 120.1425 -0.0011 -26.9669 0.0004
# 4 -0.0001 -0.0005 -0.0011 41.5258 0.0004 -4.4772
# 5 -7.6246 10.7089 -26.9669 0.0004 18.1061 0.0004
# 6 0.0002 0.0001 0.0004 -4.4772 0.0004 24.0735
#
#
#
# Elastic Compliance Matrix: (Units=1/GPa)
#
#
# Indices 1 2 3 4 5 6 
#
# 1 0.030208 0.001031 -0.000937 0.000000 0.010715 -0.000001
# 2 0.001031 0.007503 -0.001723 0.000000 -0.006570 0.000000
# 3 -0.000937 -0.001723 0.012915 0.000000 0.019860 -0.000001
# 4 0.000000 0.000000 0.000000 0.024574 -0.000001 0.004570
# 5 0.010715 -0.006570 0.019860 -0.000001 0.093207 -0.000002
# 6 -0.000001 0.000000 -0.000001 0.004570 -0.000002 0.042389
#
#
# Mechanical properties :
#
#
# Convention : Reuss Voigt Hill
#
# Bulk Modulus (GPa) = 21.11107 34.93715 28.02411
# Shear Modulus (GPa) = 21.75379 36.35930 29.05655
#
# Velocity S-wave (km/s) = 3.13345 4.05101 3.62141
# Velocity P-wave (km/s) = 4.75603 6.13593 5.48951
#
# Compressibility (1/GPa) = 0.04736851
#
# Stress axis : x y z
#
# Youngs Moduli (GPa) = 33.10370 133.27425 77.42738
#
# Poissons Ratio (x) = -0.13746 0.07259
# Poissons Ratio (y) = -0.03414 0.13341
# Poissons Ratio (z) = 0.03103 0.22963
#
# Static dielectric constant tensor:
#      x y z
#    x 1.861930 0.000000 0.139990 
#    y 0.000000 1.919100 0.000000 
#    z 0.139990 0.000000 1.581530 
# 
# From -- ./inp_files/205609.got.cif
#   From: 2010.05.17/outbox.cif.g08.bks.cpg/sg15_103_cif.got.tgz:205609.got - 2010.06.03 18:47:42.
