data_PCOD9260026
_publ_section_title
;
Structure prediction by ZEFSAII (Michael W. Deem and Ramdas Pophale) SiO2 
 PCOD9260026
Probable space group: C 2/C
;
_chemical_formula_sum "Si O2"
_cell_formula_units_Z 52
_cell_length_a 19.509128
_cell_length_b 13.070111
_cell_length_c 18.098325
_cell_angle_alpha 90.000000
_cell_angle_beta 29.264856
_cell_angle_gamma 90.000000
_cell_volume 2255.946894
_symmetry_space_group_name_H-M "C 2/C"
_symmetry_group_IT_number 15
_symmetry_cell_setting 'monoclinic'
loop_
_space_group_symop_operation_xyz
x,y,z
-x,y,1/2-z
-x,-y,-z
x,-y,1/2+z
1/2+x,1/2+y,z
1/2-x,1/2+y,1/2-z
1/2-x,1/2-y,-z
1/2+x,1/2-y,1/2+z
loop_
_atom_site_type_symbol
_atom_site_label
_atom_site_fract_x
_atom_site_fract_y
_atom_site_fract_z
Si Si1 0.500000 0.862595 0.750000
Si Si2 0.246781 0.003101 0.548868
Si Si3 0.234242 0.956733 0.399867
Si Si4 0.971266 0.438361 0.450089
Si Si5 0.679596 0.709591 0.641876
Si Si6 0.371687 0.734483 0.596582
Si Si7 0.644236 0.325788 0.914123
O O1 0.625687 0.931525 0.605307
O O2 0.551810 0.787803 0.766464
O O3 0.139158 0.091628 0.674016
O O4 0.201336 0.942155 0.518405
O O5 0.321948 0.957264 0.549953
O O6 0.400154 0.963356 0.225349
O O7 0.179589 0.858534 0.405988
O O8 0.174746 0.065071 0.424650
O O9 0.971042 0.317620 0.464320
O O10 0.000000 0.500000 0.500000
O O11 0.750000 0.750000 0.500000
O O12 0.793673 0.733064 0.595721
O O13 0.479684 0.684555 0.553571
O O14 0.245569 0.804589 0.748051
#
# Coordination Sequence:
#
# PCOD9260026 Si02
#       7
#     4   8   8   8   8   8   8
#     4  10  18  36  60  96 136 166 218 270 348 398
#     4  11  22  40  67  99 135 179 227 283 346 416
#     4  12  24  46  67  98 140 183 232 288 352 409
#     4  12  23  43  71 100 134 183 234 278 342 423
#     4  10  21  33  62 100 131 169 222 280 344 411
#     4  12  28  43  71 100 140 185 234 284 341 417
#     4  12  24  44  69 105 140 178 230 294 351 410
#
# _framework density 23.050187000000001
#
# number of rings (size 3 to 8) (size 9 to 14) (size 15 to 20)
#    0.000    0.615    7.692    1.385    4.308    0.615 
#    0.000    1.538    0.000    0.000    0.000    0.000 
#    0.000    0.000    0.000    0.000    0.000    0.000 
#
# Total GULP energy -145054.794498 kJ/mol
# GULP energy per Si atom -5579.030558 kJ/mol
# Density = 2.299772 g / cm^3
# Si number density = 23.050187 Si / 1000 Ang^3
#
#
#
# Elastic Constant Matrix: (Units=GPa)
#
#
# Indices 1 2 3 4 5 6 
#
# 1 139.3785 48.4128 8.7262 0.0000 8.0932 0.0000
# 2 48.4128 85.2637 12.7632 0.0000 5.8386 0.0000
# 3 8.7262 12.7632 51.4070 0.0001 1.5169 0.0000
# 4 0.0000 0.0000 0.0001 23.0077 0.0000 -6.7740
# 5 8.0932 5.8386 1.5169 0.0000 35.2452 0.0000
# 6 0.0000 0.0000 0.0000 -6.7740 0.0000 49.8383
#
#
#
# Elastic Compliance Matrix: (Units=1/GPa)
#
#
# Indices 1 2 3 4 5 6 
#
# 1 0.008993 -0.004984 -0.000253 0.000000 -0.001228 0.000000
# 2 -0.004984 0.015071 -0.002859 0.000000 -0.001229 0.000000
# 3 -0.000253 -0.002859 0.020215 0.000000 -0.000338 0.000000
# 4 0.000000 0.000000 0.000000 0.045276 0.000000 0.006154
# 5 -0.001228 -0.001229 -0.000338 0.000000 0.028873 0.000000
# 6 0.000000 0.000000 0.000000 0.006154 0.000000 0.020901
#
#
# Mechanical properties :
#
#
# Convention : Reuss Voigt Hill
#
# Bulk Modulus (GPa) = 35.60475 46.20595 40.90535
# Shear Modulus (GPa) = 30.32433 35.36138 32.84285
#
# Velocity S-wave (km/s) = 3.63103 3.92101 3.77880
# Velocity P-wave (km/s) = 5.74972 6.37091 6.06827
#
# Compressibility (1/GPa) = 0.02808614
#
# Stress axis : x y z
#
# Youngs Moduli (GPa) = 111.19538 66.35423 49.46722
#
# Poissons Ratio (x) = 0.33073 0.01251
# Poissons Ratio (y) = 0.55424 0.14144
# Poissons Ratio (z) = 0.02811 0.18973
#
# Static dielectric constant tensor:
#      x y z
#    x 2.086140 0.000000 0.042240 
#    y 0.000000 1.848230 0.000000 
#    z 0.042240 0.000000 1.995940 
# 
# From -- ./inp_files/211062.got.cif
#   From: 2010.05.17/outbox.cif.g08.bks.cpg/sg15_106_cif.got.tgz:211062.got - 2010.06.03 18:47:42.
