data_PCOD9260327
_publ_section_title
;
Structure prediction by ZEFSAII (Michael W. Deem and Ramdas Pophale) SiO2 
 PCOD9260327
Probable space group: C 2/C
;
_chemical_formula_sum "Si O2"
_cell_formula_units_Z 56
_cell_length_a 19.695723
_cell_length_b 20.939606
_cell_length_c 9.972773
_cell_angle_alpha 90.000000
_cell_angle_beta 135.708688
_cell_angle_gamma 90.000000
_cell_volume 2872.120188
_symmetry_space_group_name_H-M "C 2/C"
_symmetry_group_IT_number 15
_symmetry_cell_setting 'monoclinic'
loop_
_space_group_symop_operation_xyz
x,y,z
-x,y,1/2-z
-x,-y,-z
x,-y,1/2+z
1/2+x,1/2+y,z
1/2-x,1/2+y,1/2-z
1/2-x,1/2-y,-z
1/2+x,1/2-y,1/2+z
loop_
_atom_site_type_symbol
_atom_site_label
_atom_site_fract_x
_atom_site_fract_y
_atom_site_fract_z
Si Si1 0.705808 0.011441 0.713217
Si Si2 0.747598 0.271020 0.316775
Si Si3 0.916560 0.471025 0.716720
Si Si4 0.508301 0.144006 0.006813
Si Si5 0.290450 0.868559 0.837742
Si Si6 0.720901 0.864034 0.368903
Si Si7 0.919582 0.239547 0.731122
O O1 0.670166 0.031403 0.514313
O O2 0.761118 0.071154 0.856361
O O3 0.617911 0.004060 0.696435
O O4 0.744278 0.938622 0.760790
O O5 0.741703 0.194179 0.289199
O O6 0.742748 0.304936 0.167566
O O7 0.849774 0.282039 0.535685
O O8 0.660323 0.295010 0.289041
O O9 0.961140 0.404816 0.831580
O O10 0.000000 0.505859 0.750000
O O11 0.591837 0.132354 0.013287
O O12 0.524087 0.214556 0.087418
O O13 0.396823 0.136578 0.809925
O O14 0.257965 0.861440 0.944677
O O15 0.000000 0.206674 0.750000
#
# Coordination Sequence:
#
# PCOD9260327 Si02
#       7
#     8   8   8   8   8   8   8
#     4  11  22  31  50  72 113 153 191 225 283 332
#     4  10  22  35  58  82 113 148 192 235 278 341
#     4  11  19  29  43  74 107 150 188 221 253 340
#     4  10  20  31  54  77 114 150 194 218 274 338
#     4  10  23  36  47  80 118 155 189 232 275 340
#     4  12  20  35  54  79 116 154 188 233 281 337
#     4  10  18  37  56  82 110 144 187 235 281 335
#
# _framework density 19.497790999999999
#
# number of rings (size 3 to 8) (size 9 to 14) (size 15 to 20)
#    0.000    1.429    4.286    2.571    2.000    1.143 
#    0.000    0.000    0.000    0.000    0.000    1.000 
#    0.000    0.000    0.000    0.000    0.000    0.000 
#
# Total GULP energy -156016.586230 kJ/mol
# GULP energy per Si atom -5572.020937 kJ/mol
# Density = 1.945341 g / cm^3
# Si number density = 19.497791 Si / 1000 Ang^3
#
#
#
# Elastic Constant Matrix: (Units=GPa)
#
#
# Indices 1 2 3 4 5 6 
#
# 1 95.6142 9.3528 18.3266 0.0000 -20.1827 0.0000
# 2 9.3528 62.8625 6.4951 0.0000 -8.5361 0.0000
# 3 18.3266 6.4951 35.8425 0.0000 -18.2778 0.0000
# 4 0.0000 0.0000 0.0000 24.1712 0.0000 -5.3847
# 5 -20.1827 -8.5361 -18.2778 0.0000 30.0104 0.0000
# 6 0.0000 0.0000 0.0000 -5.3847 0.0000 21.9534
#
#
#
# Elastic Compliance Matrix: (Units=1/GPa)
#
#
# Indices 1 2 3 4 5 6 
#
# 1 0.012440 -0.000679 -0.003002 0.000000 0.006344 0.000000
# 2 -0.000679 0.016603 -0.000705 0.000000 0.003836 0.000000
# 3 -0.003002 -0.000705 0.041239 0.000000 0.022897 0.000000
# 4 0.000000 0.000000 0.000000 0.043763 0.000000 0.010734
# 5 0.006344 0.003836 0.022897 0.000000 0.052625 0.000000
# 6 0.000000 0.000000 0.000000 0.010734 0.000000 0.048184
#
#
# Mechanical properties :
#
#
# Convention : Reuss Voigt Hill
#
# Bulk Modulus (GPa) = 16.25792 29.18537 22.72164
# Shear Modulus (GPa) = 20.48102 25.90331 23.19217
#
# Velocity S-wave (km/s) = 3.24455 3.64885 3.45262
# Velocity P-wave (km/s) = 4.73208 5.72304 5.25099
#
# Compressibility (1/GPa) = 0.06150849
#
# Stress axis : x y z
#
# Youngs Moduli (GPa) = 80.38727 60.23175 24.24897
#
# Poissons Ratio (x) = 0.04090 0.07280
# Poissons Ratio (y) = 0.05459 0.01710
# Poissons Ratio (z) = 0.24134 0.04247
#
# Static dielectric constant tensor:
#      x y z
#    x 1.743710 0.000000 -0.009100 
#    y 0.000000 1.737060 0.000000 
#    z -0.009100 0.000000 1.696490 
# 
# From -- ./inp_files/42270.got.cif
#   From: 2010.05.17/outbox.cif.g08.bks.cpg/sg15_22_cif.got.tgz:42270.got - 2010.06.03 18:47:42.
