data_PCOD9260771
_publ_section_title
;
Structure prediction by ZEFSAII (Michael W. Deem and Ramdas Pophale) SiO2 
 PCOD9260771
Probable space group: C 2/C
;
_chemical_formula_sum "Si O2"
_cell_formula_units_Z 44
_cell_length_a 10.305575
_cell_length_b 15.394228
_cell_length_c 19.241527
_cell_angle_alpha 90.000000
_cell_angle_beta 38.151227
_cell_angle_gamma 90.000000
_cell_volume 1885.709749
_symmetry_space_group_name_H-M "C 2/C"
_symmetry_group_IT_number 15
_symmetry_cell_setting 'monoclinic'
loop_
_space_group_symop_operation_xyz
x,y,z
-x,y,1/2-z
-x,-y,-z
x,-y,1/2+z
1/2+x,1/2+y,z
1/2-x,1/2+y,1/2-z
1/2-x,1/2-y,-z
1/2+x,1/2-y,1/2+z
loop_
_atom_site_type_symbol
_atom_site_label
_atom_site_fract_x
_atom_site_fract_y
_atom_site_fract_z
Si Si1 0.500000 0.282665 0.250000
Si Si2 0.000000 0.496129 0.750000
Si Si3 0.776608 0.100084 0.454652
Si Si4 0.500000 0.290508 0.750000
Si Si5 0.849647 0.856108 0.600191
Si Si6 0.565435 0.404351 0.096642
Si Si7 0.088395 0.366590 0.311181
O O1 0.302602 0.222504 0.313191
O O2 0.599227 0.337611 0.145368
O O3 0.800742 0.437254 0.818175
O O4 0.060696 0.562990 0.664639
O O5 0.844007 0.145237 0.354628
O O6 0.936007 0.139274 0.446500
O O7 0.961693 0.366664 0.435302
O O8 0.820850 0.996400 0.437671
O O9 0.408505 0.223127 0.731848
O O10 0.886273 0.866752 0.501143
O O11 0.313696 0.410127 0.211635
#
# Coordination Sequence:
#
# PCOD9260771 Si02
#       7
#     4   4   8   4   8   8   8
#     4  11  27  43  67 102 138 168 217 279 347 379
#     4  10  18  38  64 100 114 170 224 266 296 390
#     4  12  24  44  69 100 132 179 220 273 331 393
#     4  11  25  41  63  98 142 162 215 281 337 377
#     4  11  22  42  70  93 130 177 227 261 317 403
#     4  12  24  45  69 100 133 175 221 278 328 395
#     4  11  23  41  68  97 130 174 227 264 324 396
#
# _framework density 23.333390000000001
#
# number of rings (size 3 to 8) (size 9 to 14) (size 15 to 20)
#    0.000    0.727    3.636    5.455    0.000    1.455 
#    0.000    9.091    0.000    0.000    0.000    0.000 
#    0.000    0.000    0.000    0.000    0.000    0.000 
#
# Total GULP energy -122789.662735 kJ/mol
# GULP energy per Si atom -5581.348306 kJ/mol
# Density = 2.328028 g / cm^3
# Si number density = 23.333390 Si / 1000 Ang^3
#
#
#
# Elastic Constant Matrix: (Units=GPa)
#
#
# Indices 1 2 3 4 5 6 
#
# 1 47.0941 32.5098 18.3759 -0.0021 -14.9892 0.0002
# 2 32.5098 93.3382 34.2995 0.0055 14.6124 -0.0009
# 3 18.3759 34.2995 160.5593 -0.0033 0.9618 0.0010
# 4 -0.0021 0.0055 -0.0033 459.7150 0.0085 -78.9845
# 5 -14.9892 14.6124 0.9618 0.0085 33.2572 -0.0015
# 6 0.0002 -0.0009 0.0010 -78.9845 -0.0015 24.9342
#
#
#
# Elastic Compliance Matrix: (Units=1/GPa)
#
#
# Indices 1 2 3 4 5 6 
#
# 1 0.044118 -0.019427 -0.001069 0.000000 0.028451 0.000001
# 2 -0.019427 0.021091 -0.002175 0.000000 -0.017960 0.000000
# 3 -0.001069 -0.002175 0.006814 0.000000 0.000276 0.000000
# 4 0.000000 0.000000 0.000000 0.004773 0.000000 0.015119
# 5 0.028451 -0.017960 0.000276 0.000000 0.050775 0.000001
# 6 0.000001 0.000000 0.000000 0.015119 0.000001 0.087999
#
#
# Mechanical properties :
#
#
# Convention : Reuss Voigt Hill
#
# Bulk Modulus (GPa) = 37.48186 52.37357 44.92772
# Shear Modulus (GPa) = 18.53188 117.96838 68.25013
#
# Velocity S-wave (km/s) = 2.82125 7.11811 5.41419
# Velocity P-wave (km/s) = 5.16828 9.48953 7.64075
#
# Compressibility (1/GPa) = 0.02667957
#
# Stress axis : x y z
#
# Youngs Moduli (GPa) = 22.66660 47.41342 146.76713
#
# Poissons Ratio (x) = 0.92112 0.15697
# Poissons Ratio (y) = 0.44035 0.31915
# Poissons Ratio (z) = 0.02424 0.10310
#
# Static dielectric constant tensor:
#      x y z
#    x 0.491050 0.000000 -0.473030 
#    y 0.000000 1.917230 0.000000 
#    z -0.473030 0.000000 1.808760 
# 
# From -- ./inp_files/95668.got.cif
#   From: 2010.05.17/outbox.cif.g08.bks.cpg/sg15_48_cif.got.tgz:95668.got - 2010.06.03 18:47:42.
