data_PCOD9260478
_publ_section_title
;
Structure prediction by ZEFSAII (Michael W. Deem and Ramdas Pophale) SiO2 
 PCOD9260478
Probable space group: C 2/C
;
_chemical_formula_sum "Si O2"
_cell_formula_units_Z 52
_cell_length_a 8.576615
_cell_length_b 17.141895
_cell_length_c 24.847080
_cell_angle_alpha 90.000000
_cell_angle_beta 44.938895
_cell_angle_gamma 90.000000
_cell_volume 2580.307377
_symmetry_space_group_name_H-M "C 2/C"
_symmetry_group_IT_number 15
_symmetry_cell_setting 'monoclinic'
loop_
_space_group_symop_operation_xyz
x,y,z
-x,y,1/2-z
-x,-y,-z
x,-y,1/2+z
1/2+x,1/2+y,z
1/2-x,1/2+y,1/2-z
1/2-x,1/2-y,-z
1/2+x,1/2-y,1/2+z
loop_
_atom_site_type_symbol
_atom_site_label
_atom_site_fract_x
_atom_site_fract_y
_atom_site_fract_z
Si Si1 0.917998 0.091036 0.588077
Si Si2 0.507100 0.963942 0.359882
Si Si3 0.538148 0.087962 0.512625
Si Si4 0.000000 0.001741 0.250000
Si Si5 0.169272 0.784795 0.076056
Si Si6 0.008675 0.933789 0.629254
Si Si7 0.241426 0.619298 0.096296
O O1 0.660629 0.071601 0.642670
O O2 0.950177 0.167384 0.616247
O O3 0.061420 0.102417 0.496985
O O4 0.021823 0.018205 0.595558
O O5 0.422497 0.924390 0.434559
O O6 0.770464 0.954470 0.299644
O O7 0.446019 0.056116 0.373245
O O8 0.346235 0.149763 0.549991
O O9 0.767490 0.114860 0.431627
O O10 0.500000 0.000000 0.500000
O O11 0.991853 0.050209 0.196538
O O12 0.160560 0.707914 0.113645
O O13 0.250000 0.750000 0.000000
O O14 0.823649 0.895260 0.637011
#
# Coordination Sequence:
#
# PCOD9260478 Si02
#       7
#     8   8   8   4   8   8   8
#     4  10  18  37  63  91 120 156 196 258 312 355
#     4  11  21  38  63  87 122 157 211 249 310 359
#     4  12  18  36  65  90 120 159 202 263 299 357
#     4  12  26  34  58  98 120 166 212 258 292 380
#     4  10  21  33  57 101 124 146 196 257 315 357
#     4  11  21  37  61  91 124 161 206 250 310 354
#     4  10  20  38  62  95 125 153 197 262 310 367
#
# _framework density 20.152638
#
# number of rings (size 3 to 8) (size 9 to 14) (size 15 to 20)
#    0.000    1.231    6.154    1.846    0.000    3.077 
#    0.000    0.000    0.000   11.077    0.000    0.000 
#    0.000    0.000    0.000    0.000    0.000    0.000 
#
# Total GULP energy -144769.722537 kJ/mol
# GULP energy per Si atom -5568.066251 kJ/mol
# Density = 2.010677 g / cm^3
# Si number density = 20.152638 Si / 1000 Ang^3
#
#
#
# Elastic Constant Matrix: (Units=GPa)
#
#
# Indices 1 2 3 4 5 6 
#
# 1 136.9886 59.4769 36.6574 0.0006 0.7527 -0.0001
# 2 59.4769 125.4578 1.0800 -0.0008 -10.4319 0.0003
# 3 36.6574 1.0800 55.1088 -0.0005 -3.3975 0.0008
# 4 0.0006 -0.0008 -0.0005 -2.7487 -0.0005 -9.0605
# 5 0.7527 -10.4319 -3.3975 -0.0005 32.2749 0.0000
# 6 -0.0001 0.0003 0.0008 -9.0605 0.0000 27.2212
#
#
#
# Elastic Compliance Matrix: (Units=1/GPa)
#
#
# Indices 1 2 3 4 5 6 
#
# 1 0.012034 -0.005888 -0.008077 0.000002 -0.003034 0.000001
# 2 -0.005888 0.011072 0.003954 -0.000002 0.004132 -0.000001
# 3 -0.008077 0.003954 0.023685 -0.000003 0.003960 -0.000002
# 4 0.000002 -0.000002 -0.000003 -0.173477 -0.000004 -0.057741
# 5 -0.003034 0.004132 0.003960 -0.000004 0.032807 -0.000001
# 6 0.000001 -0.000001 -0.000002 -0.057741 -0.000001 0.017517
#
#
# Mechanical properties :
#
#
# Convention : Reuss Voigt Hill
#
# Bulk Modulus (GPa) = 37.35460 56.88709 47.12084
# Shear Modulus (GPa) = -105.44401 26.03887 -39.70257
#
# Velocity S-wave (km/s) = -7.24129 3.59845 -4.44339
# Velocity P-wave (km/s) = 7.16512 6.74941 1.70065
#
# Compressibility (1/GPa) = 0.02677047
#
# Stress axis : x y z
#
# Youngs Moduli (GPa) = 83.09679 90.32053 42.22088
#
# Poissons Ratio (x) = 0.53180 0.34100
# Poissons Ratio (y) = 0.48926 -0.16695
# Poissons Ratio (z) = 0.67114 -0.35715
#
# Static dielectric constant tensor:
#      x y z
#    x 1.758970 0.000000 0.001680 
#    y 0.000000 1.758880 0.000000 
#    z 0.001680 0.000000 1.770640 
# 
# From -- ./inp_files/289523.got.cif
#   From: 2010.05.17/outbox.cif.g08.bks.cpg/sg15_145_cif.got.tgz:289523.got - 2010.06.03 18:47:42.
