data_PCOD9260554
_publ_section_title
;
Structure prediction by ZEFSAII (Michael W. Deem and Ramdas Pophale) SiO2 
 PCOD9260554
Probable space group: C 2/C
;
_chemical_formula_sum "Si O2"
_cell_formula_units_Z 56
_cell_length_a 22.083914
_cell_length_b 20.617119
_cell_length_c 14.545112
_cell_angle_alpha 90.000000
_cell_angle_beta 158.346672
_cell_angle_gamma 90.000000
_cell_volume 2443.629922
_symmetry_space_group_name_H-M "C 2/C"
_symmetry_group_IT_number 15
_symmetry_cell_setting 'monoclinic'
loop_
_space_group_symop_operation_xyz
x,y,z
-x,y,1/2-z
-x,-y,-z
x,-y,1/2+z
1/2+x,1/2+y,z
1/2-x,1/2+y,1/2-z
1/2-x,1/2-y,-z
1/2+x,1/2-y,1/2+z
loop_
_atom_site_type_symbol
_atom_site_label
_atom_site_fract_x
_atom_site_fract_y
_atom_site_fract_z
Si Si1 0.390945 0.371772 0.250018
Si Si2 0.643789 0.511692 0.378061
Si Si3 0.647436 0.899582 0.230987
Si Si4 0.037557 0.644033 0.206779
Si Si5 0.541630 0.769292 0.133073
Si Si6 0.971851 0.136736 0.077236
Si Si7 0.159586 0.773046 0.603308
O O1 0.364060 0.447551 0.193032
O O2 0.402050 0.360696 0.375016
O O3 0.553929 0.338061 0.439663
O O4 0.229775 0.340256 0.977995
O O5 0.500000 0.501649 0.250000
O O6 0.814018 0.531569 0.668014
O O7 0.595946 0.576882 0.255872
O O8 0.822782 0.879967 0.434040
O O9 0.522448 0.893283 0.969004
O O10 0.598058 0.842282 0.231802
O O11 0.000000 0.607650 0.250000
O O12 0.933850 0.710279 0.066418
O O13 0.545976 0.707202 0.205276
O O14 0.346819 0.776933 0.836644
O O15 0.646220 0.743806 0.193466
#
# Coordination Sequence:
#
# PCOD9260554 Si02
#       7
#     8   8   8   8   8   8   8
#     4  11  22  37  64  90 123 167 208 250 312 378
#     4  10  24  40  60  86 125 175 211 252 300 375
#     4  10  21  39  60  92 123 159 209 256 319 368
#     4  11  19  36  62  88 123 159 196 262 327 372
#     4  10  18  37  67  91 126 158 205 266 316 367
#     4  10  19  41  63  88 124 163 211 254 318 372
#     4  10  21  35  59  99 124 155 203 264 323 371
#
# _framework density 22.916727999999999
#
# number of rings (size 3 to 8) (size 9 to 14) (size 15 to 20)
#    0.000    1.714    4.286    1.714    0.000    5.143 
#    0.000    1.429    3.143    0.000    0.000    0.000 
#    0.000    0.000    0.000    0.000    0.000    0.000 
#
# Total GULP energy -156294.719377 kJ/mol
# GULP energy per Si atom -5581.954263 kJ/mol
# Density = 2.286457 g / cm^3
# Si number density = 22.916728 Si / 1000 Ang^3
#
#
#
# Elastic Constant Matrix: (Units=GPa)
#
#
# Indices 1 2 3 4 5 6 
#
# 1 41.0862 20.5424 13.7074 0.0000 -4.6261 0.0000
# 2 20.5424 145.0292 44.1100 0.0000 3.2285 0.0000
# 3 13.7074 44.1100 94.9556 0.0000 -8.5862 0.0000
# 4 0.0000 0.0000 0.0000 30.3536 0.0000 -5.8092
# 5 -4.6261 3.2285 -8.5862 0.0000 24.3811 0.0000
# 6 0.0000 0.0000 0.0000 -5.8092 0.0000 21.2039
#
#
#
# Elastic Compliance Matrix: (Units=1/GPa)
#
#
# Indices 1 2 3 4 5 6 
#
# 1 0.027225 -0.003385 -0.001911 0.000000 0.004941 0.000000
# 2 -0.003385 0.008595 -0.003786 0.000000 -0.003114 0.000000
# 3 -0.001911 -0.003786 0.012992 0.000000 0.004714 0.000000
# 4 0.000000 0.000000 0.000000 0.034768 0.000000 0.009525
# 5 0.004941 -0.003114 0.004714 0.000000 0.044025 0.000000
# 6 0.000000 0.000000 0.000000 0.009525 0.000000 0.049771
#
#
# Mechanical properties :
#
#
# Convention : Reuss Voigt Hill
#
# Bulk Modulus (GPa) = 32.62717 48.64339 40.63528
# Shear Modulus (GPa) = 24.30057 28.70181 26.50119
#
# Velocity S-wave (km/s) = 3.25989 3.54282 3.40430
# Velocity P-wave (km/s) = 5.33267 6.16504 5.76390
#
# Compressibility (1/GPa) = 0.03064930
#
# Stress axis : x y z
#
# Youngs Moduli (GPa) = 36.73042 116.34183 76.97087
#
# Poissons Ratio (x) = 0.39383 0.14708
# Poissons Ratio (y) = 0.12434 0.29139
# Poissons Ratio (z) = 0.07019 0.44044
#
# Static dielectric constant tensor:
#      x y z
#    x 1.906140 0.000000 -0.050180 
#    y 0.000000 1.888310 0.000000 
#    z -0.050180 0.000000 1.911730 
# 
# From -- ./inp_files/222967.got.cif
#   From: 2010.05.17/outbox.cif.g08.bks.cpg/sg15_112_cif.got.tgz:222967.got - 2010.06.03 18:47:42.
