data_PCOD9260607
_publ_section_title
;
Structure prediction by ZEFSAII (Michael W. Deem and Ramdas Pophale) SiO2 
 PCOD9260607
Probable space group: C 2/C
;
_chemical_formula_sum "Si O2"
_cell_formula_units_Z 36
_cell_length_a 12.728830
_cell_length_b 24.270513
_cell_length_c 12.943025
_cell_angle_alpha 90.000000
_cell_angle_beta 157.369418
_cell_angle_gamma 90.000000
_cell_volume 1538.596692
_symmetry_space_group_name_H-M "C 2/C"
_symmetry_group_IT_number 15
_symmetry_cell_setting 'monoclinic'
loop_
_space_group_symop_operation_xyz
x,y,z
-x,y,1/2-z
-x,-y,-z
x,-y,1/2+z
1/2+x,1/2+y,z
1/2-x,1/2+y,1/2-z
1/2-x,1/2-y,-z
1/2+x,1/2-y,1/2+z
loop_
_atom_site_type_symbol
_atom_site_label
_atom_site_fract_x
_atom_site_fract_y
_atom_site_fract_z
Si Si1 0.754046 0.212493 0.160635
Si Si2 0.853833 0.023499 0.717187
Si Si3 0.500000 0.854153 0.250000
Si Si4 0.327597 0.947148 0.236385
Si Si5 0.918495 0.709186 0.281672
O O1 0.696710 0.178716 0.005648
O O2 0.555013 0.265404 0.959864
O O3 0.646488 0.181812 0.166905
O O4 0.610961 0.979880 0.474900
O O5 0.000000 0.049766 0.750000
O O6 0.730187 0.061966 0.694496
O O7 0.093998 0.987336 0.984095
O O8 0.326340 0.892500 0.168578
O O9 0.158216 0.752920 0.520591
O O10 0.000000 0.677561 0.250000
#
# Coordination Sequence:
#
# PCOD9260607 Si02
#       5
#     8   8   4   8   8
#     4  10  22  36  54  80 116 160 193 242 296 338
#     4  10  18  38  57  82 116 144 188 234 296 356
#     4  12  22  38  56  88 122 152 206 242 286 364
#     4  10  22  32  58  87 109 152 189 235 291 349
#     4   8  14  28  50  72  95 134 188 228 275 334
#
# _framework density 23.397943999999999
#
# number of rings (size 3 to 8) (size 9 to 14) (size 15 to 20)
#    0.000    2.222    2.222    0.667    0.000    3.556 
#    0.000    0.000    0.000   21.333    0.000    0.000 
#    0.000    0.000    0.000    0.000    0.000    0.000 
#
# Total GULP energy -100476.842169 kJ/mol
# GULP energy per Si atom -5582.046787 kJ/mol
# Density = 2.334469 g / cm^3
# Si number density = 23.397944 Si / 1000 Ang^3
#
#
#
# Elastic Constant Matrix: (Units=GPa)
#
#
# Indices 1 2 3 4 5 6 
#
# 1 246.8001 33.4667 -11.2956 0.0042 -21.3841 0.0002
# 2 33.4667 35.3962 -3.8800 0.0006 -2.5139 0.0007
# 3 -11.2956 -3.8800 137.6456 0.0073 14.5273 0.0021
# 4 0.0042 0.0006 0.0073 1.8537 0.0024 6.8396
# 5 -21.3841 -2.5139 14.5273 0.0024 38.9683 0.0006
# 6 0.0002 0.0007 0.0021 6.8396 0.0006 29.0921
#
#
#
# Elastic Compliance Matrix: (Units=1/GPa)
#
#
# Indices 1 2 3 4 5 6 
#
# 1 0.004858 -0.004422 0.000024 -0.000097 0.002372 0.000023
# 2 -0.004422 0.032460 0.000611 0.000005 -0.000561 -0.000002
# 3 0.000024 0.000611 0.007577 -0.000187 -0.002772 0.000044
# 4 -0.000097 0.000005 -0.000187 4.070937 -0.000217 -0.957085
# 5 0.002372 -0.000561 -0.002772 -0.000217 0.027961 0.000051
# 6 0.000023 -0.000002 0.000044 -0.957085 0.000051 0.259386
#
#
# Mechanical properties :
#
#
# Convention : Reuss Voigt Hill
#
# Bulk Modulus (GPa) = 26.79506 50.71380 38.75443
# Shear Modulus (GPa) = 1.13041 40.75287 20.94164
#
# Velocity S-wave (km/s) = 0.69582 4.17793 2.99493
# Velocity P-wave (km/s) = 3.48171 6.70783 5.34403
#
# Compressibility (1/GPa) = 0.03732032
#
# Stress axis : x y z
#
# Youngs Moduli (GPa) = 205.84072 30.80716 131.98189
#
# Poissons Ratio (x) = 0.13624 -0.00313
# Poissons Ratio (y) = 0.91028 -0.08068
# Poissons Ratio (z) = -0.00488 -0.01883
#
# Static dielectric constant tensor:
#      x y z
#    x 2.047040 0.000000 -0.004620 
#    y 0.000000 1.858340 0.000000 
#    z -0.004620 0.000000 1.827970 
# 
# From -- ./inp_files/157124.got.cif
#   From: 2010.05.17/outbox.cif.g08.bks.cpg/sg15_79_cif.got.tgz:157124.got - 2010.06.03 18:47:42.
