data_PCOD9260446
_publ_section_title
;
Structure prediction by ZEFSAII (Michael W. Deem and Ramdas Pophale) SiO2 
 PCOD9260446
Probable space group: C 2/C
;
_chemical_formula_sum "Si O2"
_cell_formula_units_Z 64
_cell_length_a 10.676644
_cell_length_b 21.235395
_cell_length_c 23.474380
_cell_angle_alpha 90.000000
_cell_angle_beta 145.018300
_cell_angle_gamma 90.000000
_cell_volume 3051.282158
_symmetry_space_group_name_H-M "C 2/C"
_symmetry_group_IT_number 15
_symmetry_cell_setting 'monoclinic'
loop_
_space_group_symop_operation_xyz
x,y,z
-x,y,1/2-z
-x,-y,-z
x,-y,1/2+z
1/2+x,1/2+y,z
1/2-x,1/2+y,1/2-z
1/2-x,1/2-y,-z
1/2+x,1/2-y,1/2+z
loop_
_atom_site_type_symbol
_atom_site_label
_atom_site_fract_x
_atom_site_fract_y
_atom_site_fract_z
Si Si1 0.509773 0.394305 0.649399
Si Si2 0.584140 0.150569 0.046317
Si Si3 0.355398 0.034202 0.139410
Si Si4 0.253116 0.110506 0.835731
Si Si5 0.074352 0.087549 0.509453
Si Si6 0.497130 0.846282 0.183408
Si Si7 0.306090 0.030943 0.337108
Si Si8 0.689169 0.709451 0.277188
O O1 0.287645 0.356488 0.578876
O O2 0.479707 0.424689 0.577067
O O3 0.582558 0.446596 0.722309
O O4 0.695040 0.340324 0.727908
O O5 0.606764 0.085410 0.089447
O O6 0.609281 0.204210 0.104087
O O7 0.378261 0.151641 0.929158
O O8 0.500000 0.044573 0.250000
O O9 0.520805 0.026423 0.149434
O O10 0.213830 0.969554 0.088473
O O11 0.170700 0.087188 0.057182
O O12 0.359106 0.121054 0.812387
O O13 0.000000 0.124219 0.750000
O O14 0.287797 0.036268 0.859771
O O15 0.239441 0.146722 0.572783
O O16 0.500000 0.870435 0.250000
O O17 0.601768 0.776707 0.226122
O O18 0.500000 0.683864 0.250000
#
# Coordination Sequence:
#
# PCOD9260446 Si02
#       8
#     8   8   8   8   8   8   8   8
#     4  10  18  37  62  91 117 160 212 264 319 383
#     4  10  20  40  61  92 123 164 214 266 330 381
#     4  11  22  37  55  88 134 169 203 260 324 393
#     4  12  25  39  63  96 131 173 220 272 319 392
#     4  11  22  35  61  89 122 170 209 258 320 382
#     4  11  23  43  64  93 126 165 220 269 328 385
#     4  11  21  36  63  90 133 170 206 263 326 403
#     4   8  19  38  65  89 118 158 213 278 318 383
#
# _framework density 20.974789999999999
#
# number of rings (size 3 to 8) (size 9 to 14) (size 15 to 20)
#    0.000    1.500    3.750    2.625    0.000    2.500 
#    2.250    0.625    5.500    0.000    0.000    2.625 
#    0.000    0.000    0.000    0.000    0.000    0.000 
#
# Total GULP energy -178214.358421 kJ/mol
# GULP energy per Si atom -5569.198701 kJ/mol
# Density = 2.092705 g / cm^3
# Si number density = 20.974790 Si / 1000 Ang^3
#
#
#
# Elastic Constant Matrix: (Units=GPa)
#
#
# Indices 1 2 3 4 5 6 
#
# 1 50.6728 9.6373 55.6095 0.0003 4.7311 0.0001
# 2 9.6373 72.5705 22.2024 -0.0001 -0.3062 0.0000
# 3 55.6095 22.2024 123.9326 -0.0004 4.5210 0.0005
# 4 0.0003 -0.0001 -0.0004 13.6530 0.0002 2.3099
# 5 4.7311 -0.3062 4.5210 0.0002 34.2653 0.0002
# 6 0.0001 0.0000 0.0005 2.3099 0.0002 12.2838
#
#
#
# Elastic Compliance Matrix: (Units=1/GPa)
#
#
# Indices 1 2 3 4 5 6 
#
# 1 0.039207 0.000135 -0.017504 -0.000001 -0.003103 0.000001
# 2 0.000135 0.014587 -0.002691 0.000000 0.000467 0.000000
# 3 -0.017504 -0.002691 0.016397 0.000001 0.000229 -0.000001
# 4 -0.000001 0.000000 0.000001 0.075651 0.000000 -0.014226
# 5 -0.003103 0.000467 0.000229 0.000000 0.029586 0.000000
# 6 0.000001 0.000000 -0.000001 -0.014226 0.000000 0.084083
#
#
# Mechanical properties :
#
#
# Convention : Reuss Voigt Hill
#
# Bulk Modulus (GPa) = 33.25320 46.89717 40.07519
# Shear Modulus (GPa) = 16.14703 22.68886 19.41794
#
# Velocity S-wave (km/s) = 2.77759 3.29252 3.04596
# Velocity P-wave (km/s) = 5.11615 6.07138 5.61412
#
# Compressibility (1/GPa) = 0.03007229
#
# Stress axis : x y z
#
# Youngs Moduli (GPa) = 25.50536 68.55422 60.98791
#
# Poissons Ratio (x) = -0.00928 1.06752
# Poissons Ratio (y) = -0.00345 0.16412
# Poissons Ratio (z) = 0.44644 0.18448
#
# Static dielectric constant tensor:
#      x y z
#    x 1.788300 0.000000 0.005990 
#    y 0.000000 1.789490 0.000000 
#    z 0.005990 0.000000 1.849160 
# 
# From -- ./inp_files/271303.got.cif
#   From: 2010.05.17/outbox.cif.g08.bks.cpg/sg15_136_cif.got.tgz:271303.got - 2010.06.03 18:47:42.
