data_PCOD9260970
_publ_section_title
;
Structure prediction by ZEFSAII (Michael W. Deem and Ramdas Pophale) SiO2 
 PCOD9260970
Probable space group: C 2/C
;
_chemical_formula_sum "Si O2"
_cell_formula_units_Z 64
_cell_length_a 22.197168
_cell_length_b 9.542174
_cell_length_c 23.293286
_cell_angle_alpha 90.000000
_cell_angle_beta 135.314168
_cell_angle_gamma 90.000000
_cell_volume 3469.494506
_symmetry_space_group_name_H-M "C 2/C"
_symmetry_group_IT_number 15
_symmetry_cell_setting 'monoclinic'
loop_
_space_group_symop_operation_xyz
x,y,z
-x,y,1/2-z
-x,-y,-z
x,-y,1/2+z
1/2+x,1/2+y,z
1/2-x,1/2+y,1/2-z
1/2-x,1/2-y,-z
1/2+x,1/2-y,1/2+z
loop_
_atom_site_type_symbol
_atom_site_label
_atom_site_fract_x
_atom_site_fract_y
_atom_site_fract_z
Si Si1 0.941321 0.754233 0.133194
Si Si2 0.763644 0.060403 0.963285
Si Si3 0.824792 0.223372 0.446730
Si Si4 0.572306 0.065408 0.841445
Si Si5 0.065558 0.997610 0.201182
Si Si6 0.436287 0.602980 0.422449
Si Si7 0.935742 0.783678 0.570783
Si Si8 0.311990 0.548272 0.617073
O O1 0.941384 0.599998 0.159231
O O2 0.876999 0.847195 0.127979
O O3 0.029209 0.841574 0.187918
O O4 0.902188 0.745396 0.042968
O O5 0.667246 0.102401 0.884136
O O6 0.777280 0.908163 0.944277
O O7 0.840993 0.158352 0.994813
O O8 0.773376 0.044316 0.039074
O O9 0.864645 0.169378 0.414250
O O10 0.761567 0.355507 0.404204
O O11 0.500000 0.119561 0.750000
O O12 0.564658 0.139014 0.897295
O O13 0.134119 0.028692 0.296885
O O14 0.098070 0.022467 0.157891
O O15 0.982099 0.099664 0.143523
O O16 0.500000 0.500000 0.500000
O O17 0.501700 0.717692 0.441032
#
# Coordination Sequence:
#
# PCOD9260970 Si02
#       8
#     8   8   8   8   8   8   8   8
#     4  11  19  35  60  91 115 154 197 256 305 343
#     4  11  20  37  62  92 114 157 197 249 304 359
#     4  11  18  36  65  87 120 151 207 254 291 347
#     4  12  25  37  54  94 134 153 185 249 325 360
#     4  10  21  35  65  87 110 163 212 243 287 355
#     4  10  18  39  64  83 111 161 207 241 286 349
#     4  10  23  38  60  85 115 167 197 237 303 359
#     4  11  19  33  63  91 117 148 210 252 293 348
#
# _framework density 18.446491000000002
#
# number of rings (size 3 to 8) (size 9 to 14) (size 15 to 20)
#    0.750    0.500    7.500    2.250    1.750    0.000 
#    0.000    1.875    2.750    0.000    0.000    0.000 
#    0.000    0.000    0.000    0.000    0.000    0.000 
#
# Total GULP energy -178387.844700 kJ/mol
# GULP energy per Si atom -5574.620147 kJ/mol
# Density = 1.840451 g / cm^3
# Si number density = 18.446491 Si / 1000 Ang^3
#
#
#
# Elastic Constant Matrix: (Units=GPa)
#
#
# Indices 1 2 3 4 5 6 
#
# 1 92.8394 -2.4472 36.0755 0.0000 0.8728 0.0000
# 2 -2.4472 11.3724 -0.3921 0.0000 0.2243 0.0000
# 3 36.0755 -0.3921 93.6585 0.0000 12.6305 0.0000
# 4 0.0000 0.0000 0.0000 9.9988 0.0000 -2.6415
# 5 0.8728 0.2243 12.6305 0.0000 15.8585 0.0000
# 6 0.0000 0.0000 0.0000 -2.6415 0.0000 24.1391
#
#
#
# Elastic Compliance Matrix: (Units=1/GPa)
#
#
# Indices 1 2 3 4 5 6 
#
# 1 0.012922 0.002522 -0.005452 0.000000 0.003595 0.000000
# 2 0.002522 0.088479 -0.000463 0.000000 -0.001021 0.000000
# 3 -0.005452 -0.000463 0.014266 0.000000 -0.011056 0.000000
# 4 0.000000 0.000000 0.000000 0.102990 0.000000 0.011270
# 5 0.003595 -0.001021 -0.011056 0.000000 0.071679 0.000000
# 6 0.000000 0.000000 0.000000 0.011270 0.000000 0.042660
#
#
# Mechanical properties :
#
#
# Convention : Reuss Voigt Hill
#
# Bulk Modulus (GPa) = 9.18433 29.37141 19.27787
# Shear Modulus (GPa) = 13.29517 20.97488 17.13503
#
# Velocity S-wave (km/s) = 2.68758 3.37570 3.05110
# Velocity P-wave (km/s) = 3.82367 5.58129 4.78390
#
# Compressibility (1/GPa) = 0.10888116
#
# Stress axis : x y z
#
# Youngs Moduli (GPa) = 77.38494 11.30211 70.09679
#
# Poissons Ratio (x) = -0.02850 0.38215
# Poissons Ratio (y) = -0.19516 0.03247
# Poissons Ratio (z) = 0.42188 0.00524
#
# Static dielectric constant tensor:
#      x y z
#    x 1.634180 0.000000 0.000910 
#    y 0.000000 1.662150 0.000000 
#    z 0.000910 0.000000 1.657810 
# 
# From -- ./inp_files/281839.got.cif
#   From: 2010.05.17/outbox.cif.g08.bks.cpg/sg15_141_cif.got.tgz:281839.got - 2010.06.03 18:47:42.
