data_PCOD9260788
_publ_section_title
;
Structure prediction by ZEFSAII (Michael W. Deem and Ramdas Pophale) SiO2 
 PCOD9260788
Probable space group: C 2/C
;
_chemical_formula_sum "Si O2"
_cell_formula_units_Z 44
_cell_length_a 20.891597
_cell_length_b 11.299515
_cell_length_c 8.281464
_cell_angle_alpha 90.000000
_cell_angle_beta 72.265194
_cell_angle_gamma 90.000000
_cell_volume 1862.056614
_symmetry_space_group_name_H-M "C 2/C"
_symmetry_group_IT_number 15
_symmetry_cell_setting 'monoclinic'
loop_
_space_group_symop_operation_xyz
x,y,z
-x,y,1/2-z
-x,-y,-z
x,-y,1/2+z
1/2+x,1/2+y,z
1/2-x,1/2+y,1/2-z
1/2-x,1/2-y,-z
1/2+x,1/2-y,1/2+z
loop_
_atom_site_type_symbol
_atom_site_label
_atom_site_fract_x
_atom_site_fract_y
_atom_site_fract_z
Si Si1 0.000000 0.912020 0.750000
Si Si2 0.671572 0.823300 0.894242
Si Si3 0.185039 0.107135 0.667048
Si Si4 0.184949 0.502996 0.100011
Si Si5 0.952294 0.424549 0.424422
Si Si6 0.595797 0.424956 0.946912
O O1 0.051045 0.858552 0.845823
O O2 0.047907 0.992519 0.596412
O O3 0.697243 0.712635 0.780775
O O4 0.685001 0.939418 0.774715
O O5 0.590410 0.818228 0.965951
O O6 0.696078 0.863016 0.052357
O O7 0.254545 0.067982 0.535281
O O8 0.138074 0.144326 0.550731
O O9 0.147555 0.005582 0.801535
O O10 0.107214 0.509351 0.099984
O O11 0.000000 0.377739 0.250000
O O12 0.000000 0.500000 0.500000
#
# Coordination Sequence:
#
# PCOD9260788 Si02
#       6
#     4   8   8   8   8   8
#     4   8  16  38  56  84 122 172 212 262 338 368
#     4  10  22  39  64  92 126 177 220 281 335 404
#     4  11  21  39  62  98 127 179 225 265 352 395
#     4  10  21  38  62  90 133 170 216 286 325 392
#     4  10  18  38  64  86 127 171 216 282 334 379
#     4   9  19  35  63  84 133 170 213 288 312 400
#
# _framework density 23.629785999999999
#
# number of rings (size 3 to 8) (size 9 to 14) (size 15 to 20)
#    1.091    1.091    1.818    1.636    0.000    0.000 
#    1.636   18.182    0.000    0.000    0.000    0.000 
#    0.000    0.000    0.000    0.000    0.000    0.000 
#
# Total GULP energy -122476.075573 kJ/mol
# GULP energy per Si atom -5567.094344 kJ/mol
# Density = 2.357600 g / cm^3
# Si number density = 23.629786 Si / 1000 Ang^3
#
#
#
# Elastic Constant Matrix: (Units=GPa)
#
#
# Indices 1 2 3 4 5 6 
#
# 1 143.7277 26.7578 56.1664 0.0000 15.9257 0.0000
# 2 26.7578 29.8924 14.2452 0.0000 15.2009 0.0000
# 3 56.1664 14.2452 131.1803 0.0000 -20.3311 0.0000
# 4 0.0000 0.0000 0.0000 369.9965 0.0000 -29.8989
# 5 15.9257 15.2009 -20.3311 0.0000 63.5275 0.0000
# 6 0.0000 0.0000 0.0000 -29.8989 0.0000 12.7084
#
#
#
# Elastic Compliance Matrix: (Units=1/GPa)
#
#
# Indices 1 2 3 4 5 6 
#
# 1 0.009828 -0.005712 -0.003954 0.000000 -0.002362 0.000000
# 2 -0.005712 0.046190 -0.004273 0.000000 -0.010988 0.000000
# 3 -0.003954 -0.004273 0.010619 0.000000 0.005412 0.000000
# 4 0.000000 0.000000 0.000000 0.003337 0.000000 0.007851
# 5 -0.002362 -0.010988 0.005412 0.000000 0.020695 0.000000
# 6 0.000000 0.000000 0.000000 0.007851 0.000000 0.097160
#
#
# Mechanical properties :
#
#
# Convention : Reuss Voigt Hill
#
# Bulk Modulus (GPa) = 25.80040 55.45992 40.63016
# Shear Modulus (GPa) = 21.86980 103.08855 62.47917
#
# Velocity S-wave (km/s) = 3.04553 6.61220 5.14765
# Velocity P-wave (km/s) = 4.82797 9.04523 7.25002
#
# Compressibility (1/GPa) = 0.03875909
#
# Stress axis : x y z
#
# Youngs Moduli (GPa) = 101.75241 21.64959 94.17254
#
# Poissons Ratio (x) = 0.12366 0.37234
# Poissons Ratio (y) = 0.58118 0.40244
# Poissons Ratio (z) = 0.40231 0.09252
#
# Static dielectric constant tensor:
#      x y z
#    x 2.061930 0.000000 0.102440 
#    y 0.000000 1.978370 0.000000 
#    z 0.102440 0.000000 1.967180 
# 
# From -- ./inp_files/60489.got.cif
#   From: 2010.05.17/outbox.cif.g08.bks.cpg/sg15_31_cif.got.tgz:60489.got - 2010.06.03 18:47:42.
