data_PCOD9260355
_publ_section_title
;
Structure prediction by ZEFSAII (Michael W. Deem and Ramdas Pophale) SiO2 
 PCOD9260355
Probable space group: C 2/C
;
_chemical_formula_sum "Si O2"
_cell_formula_units_Z 56
_cell_length_a 19.879189
_cell_length_b 9.398802
_cell_length_c 26.409936
_cell_angle_alpha 90.000000
_cell_angle_beta 146.938493
_cell_angle_gamma 90.000000
_cell_volume 2691.933593
_symmetry_space_group_name_H-M "C 2/C"
_symmetry_group_IT_number 15
_symmetry_cell_setting 'monoclinic'
loop_
_space_group_symop_operation_xyz
x,y,z
-x,y,1/2-z
-x,-y,-z
x,-y,1/2+z
1/2+x,1/2+y,z
1/2-x,1/2+y,1/2-z
1/2-x,1/2-y,-z
1/2+x,1/2-y,1/2+z
loop_
_atom_site_type_symbol
_atom_site_label
_atom_site_fract_x
_atom_site_fract_y
_atom_site_fract_z
Si Si1 0.821992 0.204400 0.721200
Si Si2 0.593974 0.818623 0.459241
Si Si3 0.000000 0.360071 0.250000
Si Si4 0.393601 0.430788 0.367073
Si Si5 0.500000 0.612054 0.750000
Si Si6 0.869742 0.527669 0.762617
Si Si7 0.044793 0.772832 0.539313
Si Si8 0.862035 0.119608 0.099465
O O1 0.869106 0.091206 0.792368
O O2 0.895790 0.193884 0.715346
O O3 0.850877 0.361269 0.761589
O O4 0.675131 0.192557 0.619932
O O5 0.474332 0.897880 0.361950
O O6 0.565174 0.804836 0.500188
O O7 0.718712 0.898226 0.522241
O O8 0.612941 0.666405 0.442473
O O9 0.916066 0.450501 0.234669
O O10 0.912257 0.256427 0.162218
O O11 0.261419 0.399081 0.309937
O O12 0.496759 0.326417 0.455019
O O13 0.429035 0.587341 0.409326
O O14 0.564827 0.512828 0.832765
#
# Coordination Sequence:
#
# PCOD9260355 Si02
#       8
#     8   8   4   8   4   8   8   8
#     4  11  23  40  59  86 119 160 202 249 299 360
#     4  10  18  37  58  90 116 147 201 245 293 362
#     4   9  17  34  54  84 113 155 196 232 294 353
#     4  10  21  39  58  87 120 157 202 243 306 356
#     4  11  23  42  58  84 121 161 200 248 308 357
#     4  10  20  35  58  84 119 156 193 250 293 349
#     4  10  21  38  63  85 117 160 199 247 300 361
#     4   9  20  34  60  86 117 153 194 244 301 351
#
# _framework density 20.802890000000001
#
# number of rings (size 3 to 8) (size 9 to 14) (size 15 to 20)
#    0.000    2.000    1.429    2.143    0.000    1.143 
#    5.143    7.143    0.000    0.000    0.000    0.000 
#    0.000    0.000    0.000    0.000    0.000    0.000 
#
# Total GULP energy -156254.068514 kJ/mol
# GULP energy per Si atom -5580.502447 kJ/mol
# Density = 2.075554 g / cm^3
# Si number density = 20.802890 Si / 1000 Ang^3
#
#
#
# Elastic Constant Matrix: (Units=GPa)
#
#
# Indices 1 2 3 4 5 6 
#
# 1 102.4946 -8.2687 18.9741 0.0000 20.2787 0.0000
# 2 -8.2687 22.4220 7.6404 0.0001 5.3087 0.0000
# 3 18.9741 7.6404 84.0647 0.0001 23.2689 0.0000
# 4 0.0000 0.0001 0.0001 11.1982 0.0000 5.1017
# 5 20.2787 5.3087 23.2689 0.0000 28.4867 0.0000
# 6 0.0000 0.0000 0.0000 5.1017 0.0000 11.5896
#
#
#
# Elastic Compliance Matrix: (Units=1/GPa)
#
#
# Indices 1 2 3 4 5 6 
#
# 1 0.012345 0.007065 -0.000816 0.000000 -0.009438 0.000000
# 2 0.007065 0.051069 -0.002855 0.000000 -0.012214 0.000000
# 3 -0.000816 -0.002855 0.015546 0.000000 -0.011586 0.000000
# 4 0.000000 0.000000 0.000000 0.111701 0.000000 -0.049170
# 5 -0.009438 -0.012214 -0.011586 0.000000 0.053562 0.000000
# 6 0.000000 0.000000 0.000000 -0.049170 0.000000 0.107928
#
#
# Mechanical properties :
#
#
# Convention : Reuss Voigt Hill
#
# Bulk Modulus (GPa) = 11.66206 27.29698 19.47952
# Shear Modulus (GPa) = 13.37085 22.96394 18.16739
#
# Velocity S-wave (km/s) = 2.53798 3.32608 2.95839
# Velocity P-wave (km/s) = 3.76917 5.28210 4.58842
#
# Compressibility (1/GPa) = 0.08574814
#
# Stress axis : x y z
#
# Youngs Moduli (GPa) = 81.00447 19.58117 64.32446
#
# Poissons Ratio (x) = -0.13835 0.05249
# Poissons Ratio (y) = -0.57231 0.18367
# Poissons Ratio (z) = 0.06611 0.05591
#
# Static dielectric constant tensor:
#      x y z
#    x 1.747570 0.000000 -0.007760 
#    y 0.000000 1.741330 0.000000 
#    z -0.007760 0.000000 1.734620 
# 
# From -- ./inp_files/317586.got.cif
#   From: 2010.05.17/outbox.cif.g08.bks.cpg/sg15_159_cif.got.tgz:317586.got - 2010.06.03 18:47:42.
