data_PCOD9260336
_publ_section_title
;
Structure prediction by ZEFSAII (Michael W. Deem and Ramdas Pophale) SiO2 
 PCOD9260336
Probable space group: C 2/C
;
_chemical_formula_sum "Si O2"
_cell_formula_units_Z 52
_cell_length_a 14.312390
_cell_length_b 9.859889
_cell_length_c 25.347916
_cell_angle_alpha 90.000000
_cell_angle_beta 140.994636
_cell_angle_gamma 90.000000
_cell_volume 2251.378192
_symmetry_space_group_name_H-M "C 2/C"
_symmetry_group_IT_number 15
_symmetry_cell_setting 'monoclinic'
loop_
_space_group_symop_operation_xyz
x,y,z
-x,y,1/2-z
-x,-y,-z
x,-y,1/2+z
1/2+x,1/2+y,z
1/2-x,1/2+y,1/2-z
1/2-x,1/2-y,-z
1/2+x,1/2-y,1/2+z
loop_
_atom_site_type_symbol
_atom_site_label
_atom_site_fract_x
_atom_site_fract_y
_atom_site_fract_z
Si Si1 0.733056 0.260591 0.072681
Si Si2 0.422474 0.524345 0.522678
Si Si3 0.641435 0.865430 0.754014
Si Si4 0.693010 0.236942 0.382465
Si Si5 0.500000 0.116334 0.750000
Si Si6 0.096172 0.263550 0.630388
Si Si7 0.879778 0.477986 0.493547
O O1 0.653990 0.379695 0.005091
O O2 0.899918 0.301915 0.163878
O O3 0.663045 0.242858 0.101134
O O4 0.687867 0.123011 0.023698
O O5 0.500000 0.500000 0.500000
O O6 0.289901 0.632369 0.458360
O O7 0.533904 0.608867 0.609459
O O8 0.479203 0.793339 0.685203
O O9 0.737129 0.797045 0.841589
O O10 0.698846 0.823322 0.721770
O O11 0.605877 0.016092 0.760969
O O12 0.741302 0.387673 0.414876
O O13 0.968257 0.380241 0.572262
O O14 0.000000 0.500000 0.500000
#
# Coordination Sequence:
#
# PCOD9260336 Si02
#       7
#     8   8   8   8   4   8   8
#     4  10  18  37  57  81 112 150 177 229 288 337
#     4   9  16  31  56  78 103 144 190 221 272 332
#     4  10  19  36  59  82 108 148 191 234 270 331
#     4   9  18  35  57  77 106 153 185 219 279 348
#     4  10  20  36  62  80 118 152 184 230 292 340
#     4   9  20  35  59  83 105 144 195 233 265 327
#     4   9  19  35  55  79 112 145 181 228 284 330
#
# _framework density 23.096964
#
# number of rings (size 3 to 8) (size 9 to 14) (size 15 to 20)
#    0.000    2.769    3.077    0.923    0.000    3.692 
#    5.538    0.769    3.385    0.000    0.000    0.000 
#    0.000    0.000    0.000    0.000    0.000    0.000 
#
# Total GULP energy -144809.345661 kJ/mol
# GULP energy per Si atom -5569.590218 kJ/mol
# Density = 2.304439 g / cm^3
# Si number density = 23.096964 Si / 1000 Ang^3
#
#
#
# Elastic Constant Matrix: (Units=GPa)
#
#
# Indices 1 2 3 4 5 6 
#
# 1 84.2761 5.5097 -0.7783 0.0000 -16.5659 0.0000
# 2 5.5097 177.7259 18.9180 0.0000 4.0425 0.0000
# 3 -0.7783 18.9180 20.6960 0.0000 -6.0080 0.0000
# 4 0.0000 0.0000 0.0000 17.2644 0.0000 9.5330
# 5 -16.5659 4.0425 -6.0080 0.0000 34.9447 0.0000
# 6 0.0000 0.0000 0.0000 9.5330 0.0000 8.0839
#
#
#
# Elastic Compliance Matrix: (Units=1/GPa)
#
#
# Indices 1 2 3 4 5 6 
#
# 1 0.013337 -0.000934 0.003391 0.000000 0.007014 0.000000
# 2 -0.000934 0.006407 -0.006563 0.000000 -0.002312 0.000000
# 3 0.003391 -0.006563 0.058028 0.000000 0.012344 0.000000
# 4 0.000000 0.000000 0.000000 0.166042 0.000000 -0.195806
# 5 0.007014 -0.002312 0.012344 0.000000 0.034331 0.000000
# 6 0.000000 0.000000 0.000000 -0.195806 0.000000 0.354608
#
#
# Mechanical properties :
#
#
# Convention : Reuss Voigt Hill
#
# Bulk Modulus (GPa) = 14.37589 36.66631 25.52110
# Shear Modulus (GPa) = 7.52842 29.32849 18.42846
#
# Velocity S-wave (km/s) = 1.80736 3.56729 2.82773
# Velocity P-wave (km/s) = 3.25470 5.73383 4.66207
#
# Compressibility (1/GPa) = 0.06956092
#
# Stress axis : x y z
#
# Youngs Moduli (GPa) = 74.98069 156.08519 17.23301
#
# Poissons Ratio (x) = 0.14578 -0.05844
# Poissons Ratio (y) = 0.07003 0.11310
# Poissons Ratio (z) = -0.25428 1.02434
#
# Static dielectric constant tensor:
#      x y z
#    x 1.908930 0.000000 0.015060 
#    y 0.000000 1.869090 0.000000 
#    z 0.015060 0.000000 1.878030 
# 
# From -- ./inp_files/315393.got.cif
#   From: 2010.05.17/outbox.cif.g08.bks.cpg/sg15_158_cif.got.tgz:315393.got - 2010.06.03 18:47:42.
