data_PCOD9260228
_publ_section_title
;
Structure prediction by ZEFSAII (Michael W. Deem and Ramdas Pophale) SiO2 
 PCOD9260228
Probable space group: C 2/C
;
_chemical_formula_sum "Si O2"
_cell_formula_units_Z 56
_cell_length_a 17.750571
_cell_length_b 29.067250
_cell_length_c 5.045733
_cell_angle_alpha 90.000000
_cell_angle_beta 70.858662
_cell_angle_gamma 90.000000
_cell_volume 2459.462696
_symmetry_space_group_name_H-M "C 2/C"
_symmetry_group_IT_number 15
_symmetry_cell_setting 'monoclinic'
loop_
_space_group_symop_operation_xyz
x,y,z
-x,y,1/2-z
-x,-y,-z
x,-y,1/2+z
1/2+x,1/2+y,z
1/2-x,1/2+y,1/2-z
1/2-x,1/2-y,-z
1/2+x,1/2-y,1/2+z
loop_
_atom_site_type_symbol
_atom_site_label
_atom_site_fract_x
_atom_site_fract_y
_atom_site_fract_z
Si Si1 0.136956 0.594746 0.814624
Si Si2 0.911191 0.712859 0.206798
Si Si3 0.944927 0.811747 0.059287
Si Si4 0.500000 0.853794 0.250000
Si Si5 0.000000 0.034175 0.750000
Si Si6 0.208069 0.362167 0.716347
Si Si7 0.244264 0.027293 0.948449
Si Si8 0.857778 0.099957 0.761057
O O1 0.188990 0.626258 0.544879
O O2 0.165144 0.544436 0.696271
O O3 0.047510 0.612655 0.888725
O O4 0.159989 0.601137 0.092489
O O5 0.894156 0.766164 0.181864
O O6 0.829450 0.685135 0.365878
O O7 0.000000 0.711436 0.250000
O O8 0.935192 0.681643 0.931234
O O9 0.898969 0.858424 0.055250
O O10 0.000000 0.820866 0.250000
O O11 0.000000 0.798477 0.750000
O O12 0.923867 0.067872 0.822325
O O13 0.000000 0.000000 0.500000
O O14 0.298602 0.373588 0.532489
O O15 0.189649 0.066926 0.885189
O O16 0.229105 0.984490 0.769749
#
# Coordination Sequence:
#
# PCOD9260228 Si02
#       8
#     8   8   8   4   4   8   8   8
#     4  10  21  37  62  97 126 166 217 263 324 375
#     4  10  19  38  65  96 134 173 220 249 319 385
#     4  11  25  41  66  95 135 173 212 270 324 386
#     4  10  18  36  65  92 130 174 211 262 300 400
#     4  12  28  46  71  98 124 172 227 280 332 402
#     4  10  22  37  65  97 130 172 213 271 315 388
#     4  11  23  42  65  88 124 166 211 267 330 387
#     4  11  25  46  67  96 133 168 221 275 337 383
#
# _framework density 22.769202
#
# number of rings (size 3 to 8) (size 9 to 14) (size 15 to 20)
#    0.000    1.429    2.857    2.571    1.000    6.286 
#    0.000    0.714    0.000   10.286    0.000    0.000 
#    0.000    0.000    0.000    0.000    0.000    0.000 
#
# Total GULP energy -156041.373910 kJ/mol
# GULP energy per Si atom -5572.906211 kJ/mol
# Density = 2.271738 g / cm^3
# Si number density = 22.769202 Si / 1000 Ang^3
#
#
#
# Elastic Constant Matrix: (Units=GPa)
#
#
# Indices 1 2 3 4 5 6 
#
# 1 44.8567 53.5356 3.6125 0.0000 3.3641 0.0000
# 2 53.5356 135.0611 16.7659 0.0000 -8.0735 0.0000
# 3 3.6125 16.7659 50.1676 0.0000 10.4779 0.0000
# 4 0.0000 0.0000 0.0000 35.2246 0.0000 -20.0334
# 5 3.3641 -8.0735 10.4779 0.0000 28.2929 0.0000
# 6 0.0000 0.0000 0.0000 -20.0334 0.0000 64.8934
#
#
#
# Elastic Compliance Matrix: (Units=1/GPa)
#
#
# Indices 1 2 3 4 5 6 
#
# 1 0.046891 -0.020173 0.006212 0.000000 -0.013633 0.000000
# 2 -0.020173 0.016722 -0.006106 0.000000 0.009431 0.000000
# 3 0.006212 -0.006106 0.023892 0.000000 -0.011329 0.000000
# 4 0.000000 0.000000 0.000000 0.034435 0.000000 0.010631
# 5 -0.013633 0.009431 -0.011329 0.000000 0.043852 0.000000
# 6 0.000000 0.000000 0.000000 0.010631 0.000000 0.018692
#
#
# Mechanical properties :
#
#
# Convention : Reuss Voigt Hill
#
# Bulk Modulus (GPa) = 21.10889 41.99040 31.54964
# Shear Modulus (GPa) = 20.79795 36.09359 28.44577
#
# Velocity S-wave (km/s) = 3.02557 3.98577 3.53839
# Velocity P-wave (km/s) = 4.63642 6.29790 5.52992
#
# Compressibility (1/GPa) = 0.04737341
#
# Stress axis : x y z
#
# Youngs Moduli (GPa) = 21.32595 59.80183 41.85417
#
# Poissons Ratio (x) = 1.20637 -0.26001
# Poissons Ratio (y) = 0.43021 0.25554
# Poissons Ratio (z) = -0.13248 0.36513
#
# Static dielectric constant tensor:
#      x y z
#    x 1.928530 0.000000 -0.034030 
#    y 0.000000 1.871240 0.000000 
#    z -0.034030 0.000000 1.879630 
# 
# From -- ./inp_files/11981.got.cif
#   From: 2010.05.17/outbox.cif.g08.bks.cpg/sg15_6_cif.got.tgz:11981.got - 2010.06.03 18:47:42.
