data_PCOD9260592
_publ_section_title
;
Structure prediction by ZEFSAII (Michael W. Deem and Ramdas Pophale) SiO2 
 PCOD9260592
Probable space group: C 2/C
;
_chemical_formula_sum "Si O2"
_cell_formula_units_Z 64
_cell_length_a 5.858774
_cell_length_b 18.480808
_cell_length_c 23.845555
_cell_angle_alpha 90.000000
_cell_angle_beta 78.481706
_cell_angle_gamma 90.000000
_cell_volume 2529.878169
_symmetry_space_group_name_H-M "C 2/C"
_symmetry_group_IT_number 15
_symmetry_cell_setting 'monoclinic'
loop_
_space_group_symop_operation_xyz
x,y,z
-x,y,1/2-z
-x,-y,-z
x,-y,1/2+z
1/2+x,1/2+y,z
1/2-x,1/2+y,1/2-z
1/2-x,1/2-y,-z
1/2+x,1/2-y,1/2+z
loop_
_atom_site_type_symbol
_atom_site_label
_atom_site_fract_x
_atom_site_fract_y
_atom_site_fract_z
Si Si1 0.389502 0.210870 0.700411
Si Si2 0.831440 0.417301 0.120103
Si Si3 0.118073 0.162579 0.001868
Si Si4 0.458974 0.082864 0.490252
Si Si5 0.766123 0.867555 0.725180
Si Si6 0.638898 0.571101 0.893623
Si Si7 0.263583 0.848367 0.898068
Si Si8 0.331530 0.735492 0.614680
O O1 0.500000 0.175615 0.750000
O O2 0.295266 0.147338 0.666081
O O3 0.249404 0.279567 0.730592
O O4 0.582877 0.251753 0.652923
O O5 0.593364 0.463416 0.122742
O O6 0.087226 0.450158 0.123359
O O7 0.872287 0.385669 0.054663
O O8 0.311881 0.129370 0.032409
O O9 0.331624 0.277944 0.047844
O O10 0.916064 0.190998 0.051504
O O11 0.084377 0.091383 0.961793
O O12 0.321296 0.088894 0.439610
O O13 0.500000 0.000000 0.500000
O O14 0.500000 0.895822 0.750000
O O15 0.808666 0.881590 0.657166
O O16 0.000000 0.888604 0.750000
O O17 0.634527 0.652338 0.867139
O O18 0.473352 0.792165 0.877520
#
# Coordination Sequence:
#
# PCOD9260592 Si02
#       8
#     8   8   8   8   8   8   8   8
#     4  10  20  36  61  88 129 177 208 261 321 399
#     4  10  18  38  54  86 122 160 206 260 316 382
#     4   9  21  36  60  96 124 168 210 267 337 410
#     4  11  24  41  61  91 131 171 222 282 340 395
#     4  11  26  43  61  96 138 172 219 265 316 403
#     4   8  17  33  52  80 124 150 190 249 311 374
#     4  12  22  37  66  90 129 178 212 266 350 403
#     4   9  19  35  57  95 134 163 210 263 323 411
#
# _framework density 25.29766
#
# number of rings (size 3 to 8) (size 9 to 14) (size 15 to 20)
#    0.750    1.250    2.500    2.625    3.500    4.000 
#    0.000    0.000    0.000    0.750    0.000    0.000 
#    0.000    0.000    0.000    0.000    0.000    0.000 
#
# Total GULP energy -178154.113474 kJ/mol
# GULP energy per Si atom -5567.316046 kJ/mol
# Density = 2.524008 g / cm^3
# Si number density = 25.297660 Si / 1000 Ang^3
#
#
#
# Elastic Constant Matrix: (Units=GPa)
#
#
# Indices 1 2 3 4 5 6 
#
# 1 175.0780 7.5924 41.7820 0.0000 8.9653 0.0000
# 2 7.5924 58.6819 11.3506 0.0000 10.9919 0.0000
# 3 41.7820 11.3506 121.4057 0.0000 32.4390 0.0000
# 4 0.0000 0.0000 0.0000 19.3474 0.0000 1.9286
# 5 8.9653 10.9919 32.4390 0.0000 48.1552 0.0000
# 6 0.0000 0.0000 0.0000 1.9286 0.0000 2.4525
#
#
#
# Elastic Compliance Matrix: (Units=1/GPa)
#
#
# Indices 1 2 3 4 5 6 
#
# 1 0.006239 -0.000460 -0.002222 0.000000 0.000440 0.000000
# 2 -0.000460 0.017886 -0.000544 0.000000 -0.003631 0.000000
# 3 -0.002222 -0.000544 0.010864 0.000000 -0.006781 0.000000
# 4 0.000000 0.000000 0.000000 0.056083 0.000000 -0.044102
# 5 0.000440 -0.003631 -0.006781 0.000000 0.026081 0.000000
# 6 0.000000 0.000000 0.000000 -0.044102 0.000000 0.442421
#
#
# Mechanical properties :
#
#
# Convention : Reuss Voigt Hill
#
# Bulk Modulus (GPa) = 35.04100 52.95728 43.99914
# Shear Modulus (GPa) = 8.68752 33.62040 21.15396
#
# Velocity S-wave (km/s) = 1.85515 3.64949 2.89485
# Velocity P-wave (km/s) = 4.29771 6.22394 5.34826
#
# Compressibility (1/GPa) = 0.02853800
#
# Stress axis : x y z
#
# Youngs Moduli (GPa) = 160.27180 55.91034 92.04614
#
# Poissons Ratio (x) = 0.02572 0.20452
# Poissons Ratio (y) = 0.07371 0.05006
# Poissons Ratio (z) = 0.35611 0.03041
#
# Static dielectric constant tensor:
#      x y z
#    x 2.365410 0.000000 0.022730 
#    y 0.000000 2.015380 0.000000 
#    z 0.022730 0.000000 2.007420 
# 
# From -- ./inp_files/261673.got.cif
#   From: 2010.05.17/outbox.cif.g08.bks.cpg/sg15_131_cif.got.tgz:261673.got - 2010.06.03 18:47:42.
