data_PCOD9260057
_publ_section_title
;
Structure prediction by ZEFSAII (Michael W. Deem and Ramdas Pophale) SiO2 
 PCOD9260057
Probable space group: C 2/C
;
_chemical_formula_sum "Si O2"
_cell_formula_units_Z 64
_cell_length_a 18.896802
_cell_length_b 14.205214
_cell_length_c 15.109831
_cell_angle_alpha 90.000000
_cell_angle_beta 49.796712
_cell_angle_gamma 90.000000
_cell_volume 3097.790429
_symmetry_space_group_name_H-M "C 2/C"
_symmetry_group_IT_number 15
_symmetry_cell_setting 'monoclinic'
loop_
_space_group_symop_operation_xyz
x,y,z
-x,y,1/2-z
-x,-y,-z
x,-y,1/2+z
1/2+x,1/2+y,z
1/2-x,1/2+y,1/2-z
1/2-x,1/2-y,-z
1/2+x,1/2-y,1/2+z
loop_
_atom_site_type_symbol
_atom_site_label
_atom_site_fract_x
_atom_site_fract_y
_atom_site_fract_z
Si Si1 0.729082 0.276685 0.207551
Si Si2 0.421043 0.296627 0.536777
Si Si3 0.164793 0.395334 0.227069
Si Si4 0.814173 0.427072 0.692707
Si Si5 0.530878 0.859777 0.030028
Si Si6 0.369482 0.401215 0.761024
Si Si7 0.393519 0.763110 0.369234
Si Si8 0.949148 0.894907 0.202585
O O1 0.820620 0.237197 0.082408
O O2 0.775558 0.334376 0.251289
O O3 0.683718 0.180214 0.277546
O O4 0.649068 0.341129 0.230587
O O5 0.483722 0.204431 0.494061
O O6 0.406054 0.336578 0.649257
O O7 0.479353 0.371049 0.433960
O O8 0.196430 0.501751 0.217280
O O9 0.166122 0.343043 0.132549
O O10 0.056259 0.393574 0.342065
O O11 0.906951 0.441087 0.561418
O O12 0.728909 0.436651 0.695074
O O13 0.597010 0.791767 0.036466
O O14 0.361538 0.336900 0.855034
O O15 0.431068 0.493457 0.722562
O O16 0.500000 0.765741 0.250000
O O17 0.000000 0.861922 0.250000
#
# Coordination Sequence:
#
# PCOD9260057 Si02
#       8
#     8   8   8   8   8   8   8   8
#     4  10  21  41  61  87 123 165 213 251 309 371
#     4  10  21  41  65  86 121 173 203 254 313 378
#     4  10  19  37  60  83 123 161 201 255 308 376
#     4  11  20  36  62  89 120 165 206 252 310 381
#     4  10  20  35  64  90 122 162 208 256 321 362
#     4  11  21  39  62  91 128 161 203 260 316 367
#     4  10  18  36  61  91 120 155 203 266 305 352
#     4  12  25  40  64  93 122 166 213 258 311 376
#
# _framework density 20.659886
#
# number of rings (size 3 to 8) (size 9 to 14) (size 15 to 20)
#    0.000    1.500    7.500    1.125    0.000    1.000 
#    0.000    4.375    0.000    0.000    0.000    0.000 
#    0.000    0.000    0.000    0.000    0.000    0.000 
#
# Total GULP energy -178399.644164 kJ/mol
# GULP energy per Si atom -5574.988880 kJ/mol
# Density = 2.061286 g / cm^3
# Si number density = 20.659886 Si / 1000 Ang^3
#
#
#
# Elastic Constant Matrix: (Units=GPa)
#
#
# Indices 1 2 3 4 5 6 
#
# 1 118.6411 27.6108 25.7877 0.0000 -17.1676 0.0000
# 2 27.6108 71.7141 21.6844 0.0000 -4.0207 0.0000
# 3 25.7877 21.6844 49.2383 0.0000 -14.0525 0.0000
# 4 0.0000 0.0000 0.0000 11.1181 0.0000 -6.2991
# 5 -17.1676 -4.0207 -14.0525 0.0000 22.7461 0.0000
# 6 0.0000 0.0000 0.0000 -6.2991 0.0000 32.4986
#
#
#
# Elastic Compliance Matrix: (Units=1/GPa)
#
#
# Indices 1 2 3 4 5 6 
#
# 1 0.010513 -0.002953 -0.002538 0.000000 0.005845 0.000000
# 2 -0.002953 0.016981 -0.006934 0.000000 -0.003511 0.000000
# 3 -0.002538 -0.006934 0.028889 0.000000 0.014707 0.000000
# 4 0.000000 0.000000 0.000000 0.101039 0.000000 0.019584
# 5 0.005845 -0.003511 0.014707 0.000000 0.056841 0.000000
# 6 0.000000 0.000000 0.000000 0.019584 0.000000 0.034566
#
#
# Mechanical properties :
#
#
# Convention : Reuss Voigt Hill
#
# Bulk Modulus (GPa) = 31.71050 43.30659 37.50855
# Shear Modulus (GPa) = 17.59387 24.23993 20.91690
#
# Velocity S-wave (km/s) = 2.92138 3.42904 3.18534
# Velocity P-wave (km/s) = 5.17314 6.05681 5.63233
#
# Compressibility (1/GPa) = 0.03153529
#
# Stress axis : x y z
#
# Youngs Moduli (GPa) = 95.11709 58.88981 34.61490
#
# Poissons Ratio (x) = 0.17389 0.08784
# Poissons Ratio (y) = 0.28086 0.24001
# Poissons Ratio (z) = 0.24137 0.40833
#
# Static dielectric constant tensor:
#      x y z
#    x 1.747090 0.000000 -0.026980 
#    y 0.000000 1.756850 0.000000 
#    z -0.026980 0.000000 1.813100 
# 
# From -- ./inp_files/162531.got.cif
#   From: 2010.05.17/outbox.cif.g08.bks.cpg/sg15_82_cif.got.tgz:162531.got - 2010.06.03 18:47:42.
