data_PCOD9260237
_publ_section_title
;
Structure prediction by ZEFSAII (Michael W. Deem and Ramdas Pophale) SiO2 
 PCOD9260237
Probable space group: C 2/C
;
_chemical_formula_sum "Si O2"
_cell_formula_units_Z 48
_cell_length_a 25.608993
_cell_length_b 8.571878
_cell_length_c 12.948822
_cell_angle_alpha 90.000000
_cell_angle_beta 129.031465
_cell_angle_gamma 90.000000
_cell_volume 2208.045893
_symmetry_space_group_name_H-M "C 2/C"
_symmetry_group_IT_number 15
_symmetry_cell_setting 'monoclinic'
loop_
_space_group_symop_operation_xyz
x,y,z
-x,y,1/2-z
-x,-y,-z
x,-y,1/2+z
1/2+x,1/2+y,z
1/2-x,1/2+y,1/2-z
1/2-x,1/2-y,-z
1/2+x,1/2-y,1/2+z
loop_
_atom_site_type_symbol
_atom_site_label
_atom_site_fract_x
_atom_site_fract_y
_atom_site_fract_z
Si Si1 0.551177 0.161342 0.681074
Si Si2 0.000000 0.406748 0.750000
Si Si3 0.393902 0.317949 0.176012
Si Si4 0.670653 0.817420 0.497606
Si Si5 0.500000 0.582460 0.250000
Si Si6 0.370019 0.088443 0.327104
Si Si7 0.261014 0.493327 0.965451
O O1 0.503138 0.308132 0.650137
O O2 0.506800 0.017359 0.661805
O O3 0.590428 0.077989 0.635706
O O4 0.611489 0.184982 0.838918
O O5 0.068225 0.310326 0.845439
O O6 0.437931 0.469237 0.200613
O O7 0.400340 0.234473 0.296966
O O8 0.317693 0.364797 0.058483
O O9 0.642228 0.862893 0.572086
O O10 0.704316 0.647174 0.539647
O O11 0.725270 0.942666 0.524900
O O12 0.297950 0.062972 0.182350
#
# Coordination Sequence:
#
# PCOD9260237 Si02
#       7
#     8   4   8   8   4   8   8
#     4   9  18  39  62  84 116 160 188 241 299 341
#     4   8  18  34  60  84 114 154 192 234 292 342
#     4  10  19  36  60  86 115 156 195 240 292 346
#     4  10  21  38  61  89 120 152 198 244 293 355
#     4  10  18  36  66  80 116 164 192 240 296 344
#     4  10  22  37  61  91 118 151 201 245 290 356
#     4  10  21  38  60  88 120 158 190 243 307 341
#
# _framework density 21.738678
#
# number of rings (size 3 to 8) (size 9 to 14) (size 15 to 20)
#    0.000    2.333    1.667    0.500    2.333    0.000 
#    0.000    8.333    0.000    0.000    0.000    0.000 
#    0.000    0.000    0.000    0.000    0.000    0.000 
#
# Total GULP energy -133603.149016 kJ/mol
# GULP energy per Si atom -5566.797876 kJ/mol
# Density = 2.168920 g / cm^3
# Si number density = 21.738678 Si / 1000 Ang^3
#
#
#
# Elastic Constant Matrix: (Units=GPa)
#
#
# Indices 1 2 3 4 5 6 
#
# 1 118.2104 46.7018 29.5876 0.0000 -9.4002 0.0000
# 2 46.7018 100.6186 23.0348 0.0000 1.7835 0.0000
# 3 29.5876 23.0348 45.6788 0.0000 -10.6575 0.0000
# 4 0.0000 0.0000 0.0000 1.7276 0.0000 13.5140
# 5 -9.4002 1.7835 -10.6575 0.0000 31.7273 0.0000
# 6 0.0000 0.0000 0.0000 13.5140 0.0000 46.2298
#
#
#
# Elastic Compliance Matrix: (Units=1/GPa)
#
#
# Indices 1 2 3 4 5 6 
#
# 1 0.011520 -0.004277 -0.004831 0.000000 0.002031 0.000000
# 2 -0.004277 0.013049 -0.004641 0.000000 -0.003560 0.000000
# 3 -0.004831 -0.004641 0.029392 0.000000 0.008702 0.000000
# 4 0.000000 0.000000 0.000000 -0.449874 0.000000 0.131508
# 5 0.002031 -0.003560 0.008702 0.000000 0.035244 0.000000
# 6 0.000000 0.000000 0.000000 0.131508 0.000000 -0.016812
#
#
# Mechanical properties :
#
#
# Convention : Reuss Voigt Hill
#
# Bulk Modulus (GPa) = 37.78801 51.46181 44.62491
# Shear Modulus (GPa) = -14.65578 26.94919 6.14670
#
# Velocity S-wave (km/s) = -2.59931 3.52474 1.68335
# Velocity P-wave (km/s) = 2.90035 6.34739 4.93464
#
# Compressibility (1/GPa) = 0.02646342
#
# Stress axis : x y z
#
# Youngs Moduli (GPa) = 86.80619 76.63365 34.02295
#
# Poissons Ratio (x) = 0.32775 0.16437
# Poissons Ratio (y) = 0.37126 0.15789
# Poissons Ratio (z) = 0.41938 0.35563
#
# Static dielectric constant tensor:
#      x y z
#    x 1.870550 0.000000 0.014230 
#    y 0.000000 1.857350 0.000000 
#    z 0.014230 0.000000 1.787550 
# 
# From -- ./inp_files/116750.got.cif
#   From: 2010.05.17/outbox.cif.g08.bks.cpg/sg15_59_cif.got.tgz:116750.got - 2010.06.03 18:47:42.
