data_PCOD9260225
_publ_section_title
;
Structure prediction by ZEFSAII (Michael W. Deem and Ramdas Pophale) SiO2 
 PCOD9260225
Probable space group: C 2/C
;
_chemical_formula_sum "Si O2"
_cell_formula_units_Z 52
_cell_length_a 11.986630
_cell_length_b 13.869505
_cell_length_c 20.107120
_cell_angle_alpha 90.000000
_cell_angle_beta 126.756831
_cell_angle_gamma 90.000000
_cell_volume 2678.177585
_symmetry_space_group_name_H-M "C 2/C"
_symmetry_group_IT_number 15
_symmetry_cell_setting 'monoclinic'
loop_
_space_group_symop_operation_xyz
x,y,z
-x,y,1/2-z
-x,-y,-z
x,-y,1/2+z
1/2+x,1/2+y,z
1/2-x,1/2+y,1/2-z
1/2-x,1/2-y,-z
1/2+x,1/2-y,1/2+z
loop_
_atom_site_type_symbol
_atom_site_label
_atom_site_fract_x
_atom_site_fract_y
_atom_site_fract_z
Si Si1 0.142601 0.572636 0.623761
Si Si2 0.822853 0.781180 0.616609
Si Si3 0.416915 0.706985 0.388047
Si Si4 0.143041 0.097411 0.553424
Si Si5 0.000000 0.914713 0.750000
Si Si6 0.658566 0.515776 0.193441
Si Si7 0.180718 0.542776 0.002862
O O1 0.146999 0.688999 0.618974
O O2 0.228553 0.533258 0.717814
O O3 0.194163 0.524580 0.572764
O O4 0.981130 0.541012 0.574963
O O5 0.757362 0.679879 0.608026
O O6 0.715395 0.847573 0.538043
O O7 0.964387 0.772862 0.625269
O O8 0.867175 0.845916 0.694606
O O9 0.506515 0.652720 0.477474
O O10 0.313891 0.625034 0.322530
O O11 0.124016 0.043046 0.615251
O O12 0.212236 0.030684 0.520285
O O13 0.022715 0.975265 0.692161
#
# Coordination Sequence:
#
# PCOD9260225 Si02
#       7
#     8   8   8   8   4   8   8
#     4  11  21  38  62  91 126 162 194 252 307 368
#     4  10  18  36  65  90 116 152 204 260 299 347
#     4  10  21  41  59  93 123 156 207 252 302 359
#     4  11  21  39  65  97 116 158 201 266 298 359
#     4  10  22  40  56  90 124 158 200 258 298 358
#     4  11  25  36  64  87 125 159 210 247 305 356
#     4  10  20  37  62  93 126 149 199 250 318 358
#
# _framework density 19.416188999999999
#
# number of rings (size 3 to 8) (size 9 to 14) (size 15 to 20)
#    0.000    1.538    4.615    1.385    4.308    0.615 
#    0.000    0.769    0.000    0.000    0.000    0.000 
#    0.000    0.000    0.000    0.000    0.000    0.000 
#
# Total GULP energy -144977.360228 kJ/mol
# GULP energy per Si atom -5576.052316 kJ/mol
# Density = 1.937200 g / cm^3
# Si number density = 19.416189 Si / 1000 Ang^3
#
#
#
# Elastic Constant Matrix: (Units=GPa)
#
#
# Indices 1 2 3 4 5 6 
#
# 1 61.0572 52.4448 46.6471 0.0000 -18.0578 0.0000
# 2 52.4448 132.5422 62.6124 0.0000 -16.7393 0.0000
# 3 46.6471 62.6124 131.9413 0.0000 -12.5382 0.0000
# 4 0.0000 0.0000 0.0000 34.1970 0.0000 3.8238
# 5 -18.0578 -16.7393 -12.5382 0.0000 40.0488 0.0000
# 6 0.0000 0.0000 0.0000 3.8238 0.0000 30.5705
#
#
#
# Elastic Compliance Matrix: (Units=1/GPa)
#
#
# Indices 1 2 3 4 5 6 
#
# 1 0.030543 -0.008115 -0.006144 0.000000 0.008456 0.000000
# 2 -0.008115 0.012173 -0.002857 0.000000 0.000534 0.000000
# 3 -0.006144 -0.002857 0.011059 0.000000 -0.000502 0.000000
# 4 0.000000 0.000000 0.000000 0.029657 0.000000 -0.003710
# 5 0.008456 0.000534 -0.000502 0.000000 0.028849 0.000000
# 6 0.000000 0.000000 0.000000 -0.003710 0.000000 0.033175
#
#
# Mechanical properties :
#
#
# Convention : Reuss Voigt Hill
#
# Bulk Modulus (GPa) = 51.16667 72.10549 61.63608
# Shear Modulus (GPa) = 26.85246 31.88568 29.36907
#
# Velocity S-wave (km/s) = 3.72290 4.05683 3.89344
# Velocity P-wave (km/s) = 6.69998 7.69163 7.21287
#
# Compressibility (1/GPa) = 0.01954397
#
# Stress axis : x y z
#
# Youngs Moduli (GPa) = 32.74026 82.15018 90.42269
#
# Poissons Ratio (x) = 0.66667 0.55554
# Poissons Ratio (y) = 0.26570 0.25831
# Poissons Ratio (z) = 0.20115 0.23468
#
# Static dielectric constant tensor:
#      x y z
#    x 1.701340 0.000000 -0.005780 
#    y 0.000000 1.703740 0.000000 
#    z -0.005780 0.000000 1.754970 
# 
# From -- ./inp_files/243800.got.cif
#   From: 2010.05.17/outbox.cif.g08.bks.cpg/sg15_122_cif.got.tgz:243800.got - 2010.06.03 18:47:42.
