data_PCOD9260149
_publ_section_title
;
Structure prediction by ZEFSAII (Michael W. Deem and Ramdas Pophale) SiO2 
 PCOD9260149
Probable space group: C 2/C
;
_chemical_formula_sum "Si O2"
_cell_formula_units_Z 40
_cell_length_a 21.671284
_cell_length_b 9.850711
_cell_length_c 8.864390
_cell_angle_alpha 90.000000
_cell_angle_beta 60.003409
_cell_angle_gamma 90.000000
_cell_volume 1638.878002
_symmetry_space_group_name_H-M "C 2/C"
_symmetry_group_IT_number 15
_symmetry_cell_setting 'monoclinic'
loop_
_space_group_symop_operation_xyz
x,y,z
-x,y,1/2-z
-x,-y,-z
x,-y,1/2+z
1/2+x,1/2+y,z
1/2-x,1/2+y,1/2-z
1/2-x,1/2-y,-z
1/2+x,1/2-y,1/2+z
loop_
_atom_site_type_symbol
_atom_site_label
_atom_site_fract_x
_atom_site_fract_y
_atom_site_fract_z
Si Si1 0.941054 0.364365 0.946688
Si Si2 0.210348 0.569303 0.616190
Si Si3 0.727524 0.851970 0.401202
Si Si4 0.122163 0.636070 0.442093
Si Si5 0.011329 0.147573 0.058231
O O1 0.858943 0.347523 0.995520
O O2 0.941964 0.525774 0.976161
O O3 0.000000 0.334605 0.750000
O O4 0.955500 0.254648 0.057024
O O5 0.257464 0.492881 0.434474
O O6 0.153685 0.638888 0.573685
O O7 0.245724 0.660787 0.702043
O O8 0.174370 0.446850 0.762209
O O9 0.750000 0.750000 0.500000
O O10 0.088256 0.778705 0.435645
O O11 0.000000 0.137741 0.250000
O O12 0.000000 0.000000 0.000000
#
# Coordination Sequence:
#
# PCOD9260149 Si02
#       5
#     8   8   8   8   8
#     4  10  20  38  64  90 111 147 197 245 290 346
#     4   8  18  36  62  88 108 145 200 242 284 349
#     4  10  20  38  58  83 117 147 190 245 291 339
#     4  10  18  36  63  89 113 145 193 243 286 345
#     4  12  23  34  50  82 123 156 187 233 291 347
#
# _framework density 24.406942000000001
#
# number of rings (size 3 to 8) (size 9 to 14) (size 15 to 20)
#    0.000    2.400    0.000    6.600    0.000    1.600 
#    0.000   13.000    0.000    0.000    0.000    0.000 
#    0.000    0.000    0.000    0.000    0.000    0.000 
#
# Total GULP energy -111454.900625 kJ/mol
# GULP energy per Si atom -5572.745031 kJ/mol
# Density = 2.435139 g / cm^3
# Si number density = 24.406942 Si / 1000 Ang^3
#
#
#
# Elastic Constant Matrix: (Units=GPa)
#
#
# Indices 1 2 3 4 5 6 
#
# 1 63.4564 44.8200 36.7974 0.0000 27.2376 0.0000
# 2 44.8200 150.7914 54.5342 0.0000 29.2639 0.0000
# 3 36.7974 54.5342 139.2714 0.0000 34.1767 0.0000
# 4 0.0000 0.0000 0.0000 51.1247 0.0000 9.8865
# 5 27.2376 29.2639 34.1767 0.0000 50.4893 0.0000
# 6 0.0000 0.0000 0.0000 9.8865 0.0000 40.8599
#
#
#
# Elastic Compliance Matrix: (Units=1/GPa)
#
#
# Indices 1 2 3 4 5 6 
#
# 1 0.024172 -0.004610 -0.002443 0.000000 -0.008715 0.000000
# 2 -0.004610 0.008980 -0.001956 0.000000 -0.001394 0.000000
# 3 -0.002443 -0.001956 0.009582 0.000000 -0.004034 0.000000
# 4 0.000000 0.000000 0.000000 0.020520 0.000000 -0.004965
# 5 -0.008715 -0.001394 -0.004034 0.000000 0.028046 0.000000
# 6 0.000000 0.000000 0.000000 -0.004965 0.000000 0.025675
#
#
# Mechanical properties :
#
#
# Convention : Reuss Voigt Hill
#
# Bulk Modulus (GPa) = 40.46073 69.53582 54.99828
# Shear Modulus (GPa) = 34.90845 42.98595 38.94720
#
# Velocity S-wave (km/s) = 3.78599 4.20124 3.99901
# Velocity P-wave (km/s) = 5.97705 7.21706 6.62613
#
# Compressibility (1/GPa) = 0.02471532
#
# Stress axis : x y z
#
# Youngs Moduli (GPa) = 41.36991 111.36047 104.36613
#
# Poissons Ratio (x) = 0.51337 0.25496
# Poissons Ratio (y) = 0.19072 0.20416
# Poissons Ratio (z) = 0.10106 0.21784
#
# Static dielectric constant tensor:
#      x y z
#    x 2.002840 0.000000 -0.032140 
#    y 0.000000 2.110440 0.000000 
#    z -0.032140 0.000000 2.023550 
# 
# From -- ./inp_files/64536.got.cif
#   From: 2010.05.17/outbox.cif.g08.bks.cpg/sg15_33_cif.got.tgz:64536.got - 2010.06.03 18:47:42.
