data_PCOD9260960
_publ_section_title
;
Structure prediction by ZEFSAII (Michael W. Deem and Ramdas Pophale) SiO2 
 PCOD9260960
Probable space group: C 2/C
;
_chemical_formula_sum "Si O2"
_cell_formula_units_Z 48
_cell_length_a 16.069623
_cell_length_b 11.346929
_cell_length_c 11.280570
_cell_angle_alpha 90.000000
_cell_angle_beta 90.694754
_cell_angle_gamma 90.000000
_cell_volume 2056.757746
_symmetry_space_group_name_H-M "C 2/C"
_symmetry_group_IT_number 15
_symmetry_cell_setting 'monoclinic'
loop_
_space_group_symop_operation_xyz
x,y,z
-x,y,1/2-z
-x,-y,-z
x,-y,1/2+z
1/2+x,1/2+y,z
1/2-x,1/2+y,1/2-z
1/2-x,1/2-y,-z
1/2+x,1/2-y,1/2+z
loop_
_atom_site_type_symbol
_atom_site_label
_atom_site_fract_x
_atom_site_fract_y
_atom_site_fract_z
Si Si1 0.872060 0.709653 0.793283
Si Si2 0.224817 0.613661 0.260605
Si Si3 0.723106 0.113929 0.514665
Si Si4 0.574782 0.243100 0.180867
Si Si5 0.868450 0.966230 0.160493
Si Si6 0.031098 0.194417 0.412237
O O1 0.784765 0.771849 0.765304
O O2 0.842611 0.604476 0.878910
O O3 0.919549 0.709187 0.668385
O O4 0.935152 0.786538 0.875838
O O5 0.185996 0.582641 0.387252
O O6 0.152600 0.655491 0.172731
O O7 0.294995 0.517320 0.240315
O O8 0.750000 0.250000 0.500000
O O9 0.811867 0.054866 0.543027
O O10 0.500000 0.181292 0.250000
O O11 0.597503 0.351806 0.271182
O O12 0.548497 0.288419 0.050914
O O13 0.935731 0.066600 0.130852
#
# Coordination Sequence:
#
# PCOD9260960 Si02
#       6
#     8   8   8   8   8   8
#     4   9  19  39  61  85 125 170 194 245 324 366
#     4  10  22  40  61  90 129 165 209 250 314 379
#     4  10  18  39  63  86 123 172 205 245 306 388
#     4  12  25  40  64  95 127 164 208 270 315 355
#     4  11  23  39  63  99 124 165 209 258 317 366
#     4  10  23  38  60  95 128 153 215 266 302 371
#
# _framework density 23.337702
#
# number of rings (size 3 to 8) (size 9 to 14) (size 15 to 20)
#    0.000    1.667    3.333    2.000    7.000    3.333 
#    3.000    0.000    3.667    2.000    0.000    0.000 
#    0.000    0.000    0.000    0.000    0.000    0.000 
#
# Total GULP energy -133755.818098 kJ/mol
# GULP energy per Si atom -5573.159087 kJ/mol
# Density = 2.328458 g / cm^3
# Si number density = 23.337702 Si / 1000 Ang^3
#
#
#
# Elastic Constant Matrix: (Units=GPa)
#
#
# Indices 1 2 3 4 5 6 
#
# 1 119.8704 28.0164 21.5990 0.0000 5.4049 0.0000
# 2 28.0164 44.6362 0.2803 0.0000 3.9661 0.0000
# 3 21.5990 0.2803 110.3806 0.0000 2.9404 0.0000
# 4 0.0000 0.0000 0.0000 9.5018 0.0000 3.0750
# 5 5.4049 3.9661 2.9404 0.0000 46.2262 0.0000
# 6 0.0000 0.0000 0.0000 3.0750 0.0000 37.2402
#
#
#
# Elastic Compliance Matrix: (Units=1/GPa)
#
#
# Indices 1 2 3 4 5 6 
#
# 1 0.010203 -0.006345 -0.001967 0.000000 -0.000523 0.000000
# 2 -0.006345 0.026522 0.001217 0.000000 -0.001611 0.000000
# 3 -0.001967 0.001217 0.009454 0.000000 -0.000476 0.000000
# 4 0.000000 0.000000 0.000000 0.108133 0.000000 -0.008929
# 5 -0.000523 -0.001611 -0.000476 0.000000 0.021862 0.000000
# 6 0.000000 0.000000 0.000000 -0.008929 0.000000 0.027590
#
#
# Mechanical properties :
#
#
# Convention : Reuss Voigt Hill
#
# Bulk Modulus (GPa) = 31.26022 41.63096 36.44559
# Shear Modulus (GPa) = 21.87067 33.59307 27.73187
#
# Velocity S-wave (km/s) = 3.06459 3.79810 3.45089
# Velocity P-wave (km/s) = 5.09373 6.09191 5.61504
#
# Compressibility (1/GPa) = 0.03198954
#
# Stress axis : x y z
#
# Youngs Moduli (GPa) = 98.00704 37.70510 105.77591
#
# Poissons Ratio (x) = 0.23925 0.20801
# Poissons Ratio (y) = 0.62189 -0.12875
# Poissons Ratio (z) = 0.19273 -0.04590
#
# Static dielectric constant tensor:
#      x y z
#    x 1.853370 0.000000 -0.009280 
#    y 0.000000 2.023020 0.000000 
#    z -0.009280 0.000000 2.041540 
# 
# From -- ./inp_files/96199.got.cif
#   From: 2010.05.17/outbox.cif.g08.bks.cpg/sg15_49_cif.got.tgz:96199.got - 2010.06.03 18:47:42.
