data_PCOD9260161
_publ_section_title
;
Structure prediction by ZEFSAII (Michael W. Deem and Ramdas Pophale) SiO2 
 PCOD9260161
Probable space group: C 2/C
;
_chemical_formula_sum "Si O2"
_cell_formula_units_Z 56
_cell_length_a 13.818398
_cell_length_b 11.464781
_cell_length_c 18.230418
_cell_angle_alpha 90.000000
_cell_angle_beta 112.065936
_cell_angle_gamma 90.000000
_cell_volume 2676.601310
_symmetry_space_group_name_H-M "C 2/C"
_symmetry_group_IT_number 15
_symmetry_cell_setting 'monoclinic'
loop_
_space_group_symop_operation_xyz
x,y,z
-x,y,1/2-z
-x,-y,-z
x,-y,1/2+z
1/2+x,1/2+y,z
1/2-x,1/2+y,1/2-z
1/2-x,1/2-y,-z
1/2+x,1/2-y,1/2+z
loop_
_atom_site_type_symbol
_atom_site_label
_atom_site_fract_x
_atom_site_fract_y
_atom_site_fract_z
Si Si1 0.652386 0.714858 0.020355
Si Si2 0.258999 0.742235 0.813985
Si Si3 0.916020 0.337273 0.353382
Si Si4 0.089158 0.412379 0.713992
Si Si5 0.487408 0.455640 0.079574
Si Si6 0.710022 0.498183 0.640115
Si Si7 0.425357 0.358180 0.662320
O O1 0.612705 0.804417 0.071167
O O2 0.690714 0.598929 0.074129
O O3 0.750000 0.750000 0.000000
O O4 0.558398 0.672651 0.941076
O O5 0.186195 0.698992 0.724706
O O6 0.269222 0.632750 0.872121
O O7 0.185957 0.831549 0.835213
O O8 0.366138 0.801639 0.818103
O O9 0.940831 0.472837 0.342852
O O10 0.012050 0.253703 0.354291
O O11 0.194198 0.453155 0.785650
O O12 0.000000 0.389376 0.750000
O O13 0.598676 0.483217 0.148564
O O14 0.410867 0.541557 0.099113
O O15 0.500000 0.500000 0.000000
O O16 0.500000 0.395890 0.750000
#
# Coordination Sequence:
#
# PCOD9260161 Si02
#       7
#     8   8   8   8   8   8   8
#     4  11  23  39  64  90 131 171 214 259 323 379
#     4  10  21  36  65  91 124 155 205 268 317 371
#     4  10  19  39  62  89 123 167 208 256 315 388
#     4  11  22  38  65  93 129 161 197 272 343 378
#     4  10  20  39  63  86 124 170 210 264 309 372
#     4  10  20  42  60  92 124 159 213 256 307 378
#     4  10  18  36  63  94 119 165 219 259 309 383
#
# _framework density 20.922053999999999
#
# number of rings (size 3 to 8) (size 9 to 14) (size 15 to 20)
#    0.000    1.714    4.286    3.000    2.000    1.143 
#    0.000    2.857    0.000    2.571    0.000    0.000 
#    0.000    0.000    0.000    0.000    0.000    0.000 
#
# Total GULP energy -155985.427646 kJ/mol
# GULP energy per Si atom -5570.908130 kJ/mol
# Density = 2.087443 g / cm^3
# Si number density = 20.922054 Si / 1000 Ang^3
#
#
#
# Elastic Constant Matrix: (Units=GPa)
#
#
# Indices 1 2 3 4 5 6 
#
# 1 110.6312 20.9548 27.7378 0.0000 -12.6617 0.0000
# 2 20.9548 63.4090 25.7576 0.0000 -7.7567 0.0000
# 3 27.7378 25.7576 29.7121 0.0000 -16.7668 0.0000
# 4 0.0000 0.0000 0.0000 14.8992 0.0000 8.4098
# 5 -12.6617 -7.7567 -16.7668 0.0000 30.5798 0.0000
# 6 0.0000 0.0000 0.0000 8.4098 0.0000 17.8305
#
#
#
# Elastic Compliance Matrix: (Units=1/GPa)
#
#
# Indices 1 2 3 4 5 6 
#
# 1 0.011920 0.001241 -0.013382 0.000000 -0.002087 0.000000
# 2 0.001241 0.025834 -0.028333 0.000000 -0.008468 0.000000
# 3 -0.013382 -0.028333 0.091991 0.000000 0.037711 0.000000
# 4 0.000000 0.000000 0.000000 0.091468 0.000000 -0.043141
# 5 -0.002087 -0.008468 0.037711 0.000000 0.050366 0.000000
# 6 0.000000 0.000000 0.000000 -0.043141 0.000000 0.076431
#
#
# Mechanical properties :
#
#
# Convention : Reuss Voigt Hill
#
# Bulk Modulus (GPa) = 20.49224 39.18363 29.83794
# Shear Modulus (GPa) = 11.23031 21.28206 16.25618
#
# Velocity S-wave (km/s) = 2.31934 3.19283 2.79047
# Velocity P-wave (km/s) = 4.12168 5.68869 4.96737
#
# Compressibility (1/GPa) = 0.04879895
#
# Stress axis : x y z
#
# Youngs Moduli (GPa) = 83.89109 38.70920 10.87057
#
# Poissons Ratio (x) = -0.04805 0.14547
# Poissons Ratio (y) = -0.10414 0.30799
# Poissons Ratio (z) = 1.12261 1.09674
#
# Static dielectric constant tensor:
#      x y z
#    x 1.809850 0.000000 0.058340 
#    y 0.000000 1.808140 0.000000 
#    z 0.058340 0.000000 1.787420 
# 
# From -- ./inp_files/237060.got.cif
#   From: 2010.05.17/outbox.cif.g08.bks.cpg/sg15_119_cif.got.tgz:237060.got - 2010.06.03 18:47:42.
