data_PCOD9260661
_publ_section_title
;
Structure prediction by ZEFSAII (Michael W. Deem and Ramdas Pophale) SiO2 
 PCOD9260661
Probable space group: C 2/C
;
_chemical_formula_sum "Si O2"
_cell_formula_units_Z 52
_cell_length_a 12.595730
_cell_length_b 7.513138
_cell_length_c 28.096360
_cell_angle_alpha 90.000000
_cell_angle_beta 125.066777
_cell_angle_gamma 90.000000
_cell_volume 2176.228179
_symmetry_space_group_name_H-M "C 2/C"
_symmetry_group_IT_number 15
_symmetry_cell_setting 'monoclinic'
loop_
_space_group_symop_operation_xyz
x,y,z
-x,y,1/2-z
-x,-y,-z
x,-y,1/2+z
1/2+x,1/2+y,z
1/2-x,1/2+y,1/2-z
1/2-x,1/2-y,-z
1/2+x,1/2-y,1/2+z
loop_
_atom_site_type_symbol
_atom_site_label
_atom_site_fract_x
_atom_site_fract_y
_atom_site_fract_z
Si Si1 0.000000 0.848651 0.750000
Si Si2 0.196339 0.704290 0.666515
Si Si3 0.828739 0.784999 0.447398
Si Si4 0.342299 0.536000 0.629023
Si Si5 0.490391 0.690835 0.904103
Si Si6 0.576099 0.096993 0.934345
Si Si7 0.762886 0.688947 0.281067
O O1 0.875456 0.739976 0.735529
O O2 0.954202 0.968900 0.693647
O O3 0.270638 0.702707 0.635511
O O4 0.227220 0.509145 0.695827
O O5 0.254622 0.826075 0.722282
O O6 0.041938 0.704188 0.620842
O O7 0.760539 0.623436 0.401126
O O8 0.921869 0.882362 0.433839
O O9 0.708795 0.892003 0.438713
O O10 0.902741 0.690954 0.509713
O O11 0.394121 0.581729 0.590138
O O12 0.382948 0.708170 0.834710
O O13 0.536629 0.890905 0.928334
#
# Coordination Sequence:
#
# PCOD9260661 Si02
#       7
#     4   8   8   8   8   8   8
#     4  10  18  38  60  88 124 166 194 256 312 370
#     4  10  21  40  61  92 123 169 196 260 305 369
#     4  11  22  45  64  90 126 169 201 263 305 371
#     4  11  22  39  65  87 129 162 206 255 318 358
#     4  11  22  41  63  95 120 164 205 258 304 372
#     4  10  23  42  65  90 128 161 215 250 310 366
#     4  10  20  36  60  88 122 158 207 242 314 362
#
# _framework density 23.894553999999999
#
# number of rings (size 3 to 8) (size 9 to 14) (size 15 to 20)
#    0.000    1.538    4.615    3.231    0.000    0.615 
#    8.308    1.538    0.000    0.000    0.000    0.000 
#    0.000    0.000    0.000    0.000    0.000    0.000 
#
# Total GULP energy -145472.693188 kJ/mol
# GULP energy per Si atom -5595.103584 kJ/mol
# Density = 2.384017 g / cm^3
# Si number density = 23.894554 Si / 1000 Ang^3
#
#
#
# Elastic Constant Matrix: (Units=GPa)
#
#
# Indices 1 2 3 4 5 6 
#
# 1 93.9121 8.3751 7.0120 0.0000 -40.7253 0.0000
# 2 8.3751 27.6840 6.0033 0.0000 -5.1284 0.0000
# 3 7.0120 6.0033 100.8339 0.0000 -8.9827 0.0000
# 4 0.0000 0.0000 0.0000 19.5745 0.0000 -7.3195
# 5 -40.7253 -5.1284 -8.9827 0.0000 33.3905 0.0000
# 6 0.0000 0.0000 0.0000 -7.3195 0.0000 27.4787
#
#
#
# Elastic Compliance Matrix: (Units=1/GPa)
#
#
# Indices 1 2 3 4 5 6 
#
# 1 0.022788 -0.001969 0.001006 0.000000 0.027761 0.000000
# 2 -0.001969 0.037653 -0.001848 0.000000 0.002884 0.000000
# 3 0.001006 -0.001848 0.010288 0.000000 0.003710 0.000000
# 4 0.000000 0.000000 0.000000 0.056738 0.000000 0.015113
# 5 0.027761 0.002884 0.003710 0.000000 0.065249 0.000000
# 6 0.000000 0.000000 0.000000 0.015113 0.000000 0.040417
#
#
# Mechanical properties :
#
#
# Convention : Reuss Voigt Hill
#
# Bulk Modulus (GPa) = 15.35966 29.46787 22.41376
# Shear Modulus (GPa) = 19.19698 29.49140 24.34419
#
# Velocity S-wave (km/s) = 2.83751 3.51697 3.19535
# Velocity P-wave (km/s) = 4.14456 5.37135 4.79733
#
# Compressibility (1/GPa) = 0.06510562
#
# Stress axis : x y z
#
# Youngs Moduli (GPa) = 43.88356 26.55850 97.20130
#
# Poissons Ratio (x) = 0.05230 -0.09775
# Poissons Ratio (y) = 0.08641 0.17961
# Poissons Ratio (z) = -0.04413 0.04908
#
# Static dielectric constant tensor:
#      x y z
#    x 1.985860 0.000000 -0.036680 
#    y 0.000000 1.916580 0.000000 
#    z -0.036680 0.000000 1.927190 
# 
# From -- ./inp_files/291479.got.cif
#   From: 2010.05.17/outbox.cif.g08.bks.cpg/sg15_146_cif.got.tgz:291479.got - 2010.06.03 18:47:42.
