data_PCOD9260533
_publ_section_title
;
Structure prediction by ZEFSAII (Michael W. Deem and Ramdas Pophale) SiO2 
 PCOD9260533
Probable space group: C 2/C
;
_chemical_formula_sum "Si O2"
_cell_formula_units_Z 36
_cell_length_a 7.417512
_cell_length_b 22.577983
_cell_length_c 9.737548
_cell_angle_alpha 90.000000
_cell_angle_beta 111.451999
_cell_angle_gamma 90.000000
_cell_volume 1517.798285
_symmetry_space_group_name_H-M "C 2/C"
_symmetry_group_IT_number 15
_symmetry_cell_setting 'monoclinic'
loop_
_space_group_symop_operation_xyz
x,y,z
-x,y,1/2-z
-x,-y,-z
x,-y,1/2+z
1/2+x,1/2+y,z
1/2-x,1/2+y,1/2-z
1/2-x,1/2-y,-z
1/2+x,1/2-y,1/2+z
loop_
_atom_site_type_symbol
_atom_site_label
_atom_site_fract_x
_atom_site_fract_y
_atom_site_fract_z
Si Si1 0.591832 0.329871 0.553887
Si Si2 0.761409 0.377180 0.849628
Si Si3 0.353235 0.990717 0.333760
Si Si4 0.500000 0.601408 0.750000
Si Si5 0.551670 0.789033 0.424147
O O1 0.767580 0.347611 0.701469
O O2 0.417200 0.356883 0.602087
O O3 0.551270 0.358407 0.395976
O O4 0.592050 0.259135 0.554685
O O5 0.748673 0.445748 0.810486
O O6 0.935463 0.350251 0.990087
O O7 0.500000 0.982402 0.250000
O O8 0.188622 0.940578 0.284588
O O9 0.500000 0.000000 0.500000
O O10 0.500000 0.798084 0.250000
O O11 0.750000 0.750000 0.500000
#
# Coordination Sequence:
#
# PCOD9260533 Si02
#       5
#     8   8   8   4   8
#     4  10  20  40  67 103 134 194 240 281 372 431
#     4  10  21  40  69  96 142 188 237 300 357 434
#     4  12  27  46  69 107 143 189 247 299 366 431
#     4  12  26  46  74 104 150 192 240 310 356 432
#     4  10  18  37  66 100 137 181 236 293 358 429
#
# _framework density 23.718565999999999
#
# number of rings (size 3 to 8) (size 9 to 14) (size 15 to 20)
#    0.000    1.333    4.444    4.000    0.000    7.111 
#    2.000    1.111    0.000    0.000    0.000    0.000 
#    0.000    0.000    0.000    0.000    0.000    0.000 
#
# Total GULP energy -100429.843102 kJ/mol
# GULP energy per Si atom -5579.435728 kJ/mol
# Density = 2.366458 g / cm^3
# Si number density = 23.718566 Si / 1000 Ang^3
#
#
#
# Elastic Constant Matrix: (Units=GPa)
#
#
# Indices 1 2 3 4 5 6 
#
# 1 89.8521 13.3519 58.3287 0.0000 -13.6085 0.0000
# 2 13.3519 96.6344 63.4322 0.0000 -9.2925 0.0000
# 3 58.3287 63.4322 251.8084 0.0000 -9.0770 0.0000
# 4 0.0000 0.0000 0.0000 112.6784 0.0000 111.1639
# 5 -13.6085 -9.2925 -9.0770 0.0000 36.6885 0.0000
# 6 0.0000 0.0000 0.0000 111.1639 0.0000 135.1267
#
#
#
# Elastic Compliance Matrix: (Units=1/GPa)
#
#
# Indices 1 2 3 4 5 6 
#
# 1 0.013785 0.000619 -0.003188 0.000000 0.004481 0.000000
# 2 0.000619 0.012637 -0.003232 0.000000 0.002631 0.000000
# 3 -0.003188 -0.003232 0.005501 0.000000 -0.000640 0.000000
# 4 0.000000 0.000000 0.000000 0.047108 0.000000 -0.038754
# 5 0.004481 0.002631 -0.000640 0.000000 0.029427 0.000000
# 6 0.000000 0.000000 0.000000 -0.038754 0.000000 0.039282
#
#
# Mechanical properties :
#
#
# Convention : Reuss Voigt Hill
#
# Bulk Modulus (GPa) = 49.20856 78.72452 63.96654
# Shear Modulus (GPa) = 30.09956 77.11085 53.60520
#
# Velocity S-wave (km/s) = 3.56621 5.70801 4.75916
# Velocity P-wave (km/s) = 6.14402 8.75813 7.56485
#
# Compressibility (1/GPa) = 0.02032167
#
# Stress axis : x y z
#
# Youngs Moduli (GPa) = 72.54037 79.13133 181.79552
#
# Poissons Ratio (x) = -0.04895 0.57948
# Poissons Ratio (y) = -0.04487 0.58754
# Poissons Ratio (z) = 0.23122 0.25574
#
# Static dielectric constant tensor:
#      x y z
#    x 1.753090 0.000000 -0.242850 
#    y 0.000000 2.082110 0.000000 
#    z -0.242850 0.000000 1.563450 
# 
# From -- ./inp_files/23855.got.cif
#   From: 2010.05.17/outbox.cif.g08.bks.cpg/sg15_12_cif.got.tgz:23855.got - 2010.06.03 18:47:42.
