data_PCOD9260578
_publ_section_title
;
Structure prediction by ZEFSAII (Michael W. Deem and Ramdas Pophale) SiO2 
 PCOD9260578
Probable space group: C 2/C
;
_chemical_formula_sum "Si O2"
_cell_formula_units_Z 40
_cell_length_a 13.328426
_cell_length_b 8.184441
_cell_length_c 18.191667
_cell_angle_alpha 90.000000
_cell_angle_beta 75.096305
_cell_angle_gamma 90.000000
_cell_volume 1917.693089
_symmetry_space_group_name_H-M "C 2/C"
_symmetry_group_IT_number 15
_symmetry_cell_setting 'monoclinic'
loop_
_space_group_symop_operation_xyz
x,y,z
-x,y,1/2-z
-x,-y,-z
x,-y,1/2+z
1/2+x,1/2+y,z
1/2-x,1/2+y,1/2-z
1/2-x,1/2-y,-z
1/2+x,1/2-y,1/2+z
loop_
_atom_site_type_symbol
_atom_site_label
_atom_site_fract_x
_atom_site_fract_y
_atom_site_fract_z
Si Si1 0.378625 0.872779 0.790086
Si Si2 0.621463 0.497573 0.964457
Si Si3 0.605946 0.834377 0.540875
Si Si4 0.142342 0.338965 0.949987
Si Si5 0.721212 0.651536 0.810584
O O1 0.500000 0.878964 0.750000
O O2 0.367869 0.842989 0.878667
O O3 0.326737 0.725528 0.753867
O O4 0.324819 0.046726 0.780804
O O5 0.656417 0.670189 0.992914
O O6 0.651042 0.525624 0.873185
O O7 0.500000 0.500000 0.000000
O O8 0.651050 0.326003 0.993133
O O9 0.478689 0.835412 0.556780
O O10 0.647933 0.995920 0.493269
O O11 0.218746 0.307832 0.866632
#
# Coordination Sequence:
#
# PCOD9260578 Si02
#       5
#     8   8   8   8   8
#     4  12  24  47  67 100 142 193 222 290 355 417
#     4   8  16  38  64  97 130 171 224 288 333 404
#     4  10  18  37  76  93 134 180 223 289 357 383
#     4   8  18  38  63 103 128 169 235 286 325 427
#     4  10  24  43  64 100 144 174 241 278 343 430
#
# _framework density 20.858395000000002
#
# number of rings (size 3 to 8) (size 9 to 14) (size 15 to 20)
#    1.200    1.200    2.000    0.000    0.000    3.200 
#    7.200    1.000    0.000    0.000    0.000    0.000 
#    0.000    0.000    0.000    0.000    0.000    0.000 
#
# Total GULP energy -111383.151044 kJ/mol
# GULP energy per Si atom -5569.157552 kJ/mol
# Density = 2.081092 g / cm^3
# Si number density = 20.858395 Si / 1000 Ang^3
#
#
#
# Elastic Constant Matrix: (Units=GPa)
#
#
# Indices 1 2 3 4 5 6 
#
# 1 102.2462 69.7682 51.2862 0.0000 4.9212 0.0000
# 2 69.7682 205.3137 87.2923 0.0000 27.0698 0.0000
# 3 51.2862 87.2923 125.2979 0.0000 35.3473 0.0000
# 4 0.0000 0.0000 0.0000 40.8791 0.0000 6.4286
# 5 4.9212 27.0698 35.3473 0.0000 20.4138 0.0000
# 6 0.0000 0.0000 0.0000 6.4286 0.0000 40.3807
#
#
#
# Elastic Compliance Matrix: (Units=1/GPa)
#
#
# Indices 1 2 3 4 5 6 
#
# 1 0.015777 -0.003976 -0.008019 0.000000 0.015355 0.000000
# 2 -0.003976 0.007950 -0.002361 0.000000 -0.005496 0.000000
# 3 -0.008019 -0.002361 0.022442 0.000000 -0.033796 0.000000
# 4 0.000000 0.000000 0.000000 0.025091 0.000000 -0.003994
# 5 0.015355 -0.005496 -0.033796 0.000000 0.111091 0.000000
# 6 0.000000 0.000000 0.000000 -0.003994 0.000000 0.025400
#
#
# Mechanical properties :
#
#
# Convention : Reuss Voigt Hill
#
# Bulk Modulus (GPa) = 57.28507 94.39459 75.83983
# Shear Modulus (GPa) = 20.63713 35.30213 27.96963
#
# Velocity S-wave (km/s) = 3.14887 4.11842 3.66584
# Velocity P-wave (km/s) = 6.38310 8.24430 7.37266
#
# Compressibility (1/GPa) = 0.01745656
#
# Stress axis : x y z
#
# Youngs Moduli (GPa) = 63.38390 125.78562 44.55935
#
# Poissons Ratio (x) = 0.50014 0.35734
# Poissons Ratio (y) = 0.25202 0.10519
# Poissons Ratio (z) = 0.50830 0.29694
#
# Static dielectric constant tensor:
#      x y z
#    x 1.866600 0.000000 0.009330 
#    y 0.000000 1.777150 0.000000 
#    z 0.009330 0.000000 1.742810 
# 
# From -- ./inp_files/241747.got.cif
#   From: 2010.05.17/outbox.cif.g08.bks.cpg/sg15_121_cif.got.tgz:241747.got - 2010.06.03 18:47:42.
