data_PCOD9260548
_publ_section_title
;
Structure prediction by ZEFSAII (Michael W. Deem and Ramdas Pophale) SiO2 
 PCOD9260548
Probable space group: C 2/C
;
_chemical_formula_sum "Si O2"
_cell_formula_units_Z 60
_cell_length_a 19.807266
_cell_length_b 11.372321
_cell_length_c 17.721790
_cell_angle_alpha 90.000000
_cell_angle_beta 43.675913
_cell_angle_gamma 90.000000
_cell_volume 2756.729986
_symmetry_space_group_name_H-M "C 2/C"
_symmetry_group_IT_number 15
_symmetry_cell_setting 'monoclinic'
loop_
_space_group_symop_operation_xyz
x,y,z
-x,y,1/2-z
-x,-y,-z
x,-y,1/2+z
1/2+x,1/2+y,z
1/2-x,1/2+y,1/2-z
1/2-x,1/2-y,-z
1/2+x,1/2-y,1/2+z
loop_
_atom_site_type_symbol
_atom_site_label
_atom_site_fract_x
_atom_site_fract_y
_atom_site_fract_z
Si Si1 0.971486 0.734800 0.350581
Si Si2 0.019683 0.110123 0.109877
Si Si3 0.320947 0.427182 0.454048
Si Si4 0.140594 0.927178 0.242183
Si Si5 0.165390 0.197989 0.873540
Si Si6 0.000000 0.307398 0.250000
Si Si7 0.825041 0.558604 0.827066
Si Si8 0.567097 0.077166 0.392891
O O1 0.867679 0.799369 0.431547
O O2 0.000000 0.670074 0.250000
O O3 0.053318 0.837828 0.288915
O O4 0.992076 0.656313 0.405275
O O5 0.009938 0.225255 0.168655
O O6 0.094201 0.022368 0.093439
O O7 0.068226 0.141308 0.990501
O O8 0.915494 0.045836 0.188917
O O9 0.298181 0.441688 0.383777
O O10 0.234080 0.459367 0.579865
O O11 0.188094 0.866708 0.276111
O O12 0.251626 0.162799 0.860465
O O13 0.139979 0.333197 0.877253
O O14 0.094496 0.386397 0.184147
O O15 0.873484 0.501362 0.714436
O O16 0.500000 0.000000 0.500000
#
# Coordination Sequence:
#
# PCOD9260548 Si02
#       8
#     8   8   8   8   8   4   8   8
#     4   8  17  36  69  95 127 166 211 263 327 397
#     4  10  18  37  66  98 128 171 213 260 326 393
#     4   9  18  39  67 100 124 158 223 273 316 390
#     4   9  16  36  66 102 128 161 209 272 330 386
#     4  10  23  41  64  97 136 169 219 272 325 391
#     4  12  24  42  64  88 134 182 226 268 334 386
#     4  11  27  43  62  97 131 175 225 277 326 389
#     4  11  24  45  64  94 135 178 217 266 339 396
#
# _framework density 21.764917000000001
#
# number of rings (size 3 to 8) (size 9 to 14) (size 15 to 20)
#    0.000    2.133    1.333    2.000    0.933    5.333 
#    4.800    6.000    0.000    0.000    0.000    0.000 
#    0.000    0.000    0.000    0.000    0.000    0.000 
#
# Total GULP energy -167710.189888 kJ/mol
# GULP energy per Si atom -5590.339663 kJ/mol
# Density = 2.171538 g / cm^3
# Si number density = 21.764917 Si / 1000 Ang^3
#
#
#
# Elastic Constant Matrix: (Units=GPa)
#
#
# Indices 1 2 3 4 5 6 
#
# 1 53.5958 19.0615 11.7953 0.0000 -8.1559 0.0000
# 2 19.0615 90.9821 40.5267 0.0000 -3.2617 0.0000
# 3 11.7953 40.5267 117.0464 0.0000 7.9649 0.0000
# 4 0.0000 0.0000 0.0000 32.9269 0.0000 12.5078
# 5 -8.1559 -3.2617 7.9649 0.0000 27.1959 0.0000
# 6 0.0000 0.0000 0.0000 12.5078 0.0000 22.4086
#
#
#
# Elastic Compliance Matrix: (Units=1/GPa)
#
#
# Indices 1 2 3 4 5 6 
#
# 1 0.021197 -0.003633 -0.001307 0.000000 0.006304 0.000000
# 2 -0.003633 0.013852 -0.004560 0.000000 0.001907 0.000000
# 3 -0.001307 -0.004560 0.010528 0.000000 -0.004022 0.000000
# 4 0.000000 0.000000 0.000000 0.038542 0.000000 -0.021513
# 5 0.006304 0.001907 -0.004022 0.000000 0.040068 0.000000
# 6 0.000000 0.000000 0.000000 -0.021513 0.000000 0.056634
#
#
# Mechanical properties :
#
#
# Convention : Reuss Voigt Hill
#
# Bulk Modulus (GPa) = 37.62622 44.93237 41.27929
# Shear Modulus (GPa) = 23.96025 29.18899 26.57462
#
# Velocity S-wave (km/s) = 3.32153 3.66608 3.49805
# Velocity P-wave (km/s) = 5.65996 6.21365 5.94326
#
# Compressibility (1/GPa) = 0.02657721
#
# Stress axis : x y z
#
# Youngs Moduli (GPa) = 47.17607 72.19323 94.98592
#
# Poissons Ratio (x) = 0.26225 0.12418
# Poissons Ratio (y) = 0.17137 0.43312
# Poissons Ratio (z) = 0.06168 0.32919
#
# Static dielectric constant tensor:
#      x y z
#    x 1.827900 0.000000 0.008810 
#    y 0.000000 1.793780 0.000000 
#    z 0.008810 0.000000 1.782800 
# 
# From -- ./inp_files/215177.got.cif
#   From: 2010.05.17/outbox.cif.g08.bks.cpg/sg15_108_cif.got.tgz:215177.got - 2010.06.03 18:47:42.
