data_PCOD9260783
_publ_section_title
;
Structure prediction by ZEFSAII (Michael W. Deem and Ramdas Pophale) SiO2 
 PCOD9260783
Probable space group: C 2/C
;
_chemical_formula_sum "Si O2"
_cell_formula_units_Z 64
_cell_length_a 35.833368
_cell_length_b 7.510532
_cell_length_c 20.034582
_cell_angle_alpha 90.000000
_cell_angle_beta 143.545635
_cell_angle_gamma 90.000000
_cell_volume 3203.748067
_symmetry_space_group_name_H-M "C 2/C"
_symmetry_group_IT_number 15
_symmetry_cell_setting 'monoclinic'
loop_
_space_group_symop_operation_xyz
x,y,z
-x,y,1/2-z
-x,-y,-z
x,-y,1/2+z
1/2+x,1/2+y,z
1/2-x,1/2+y,1/2-z
1/2-x,1/2-y,-z
1/2+x,1/2-y,1/2+z
loop_
_atom_site_type_symbol
_atom_site_label
_atom_site_fract_x
_atom_site_fract_y
_atom_site_fract_z
Si Si1 0.356456 0.992603 0.171970
Si Si2 0.224440 0.539859 0.061462
Si Si3 0.340022 0.419204 0.136539
Si Si4 0.684010 0.351366 0.548060
Si Si5 0.289378 0.124225 0.711520
Si Si6 0.025866 0.391878 0.598256
Si Si7 0.071757 0.959691 0.123342
Si Si8 0.104054 0.213696 0.055344
O O1 0.339140 0.203237 0.142225
O O2 0.431176 0.992862 0.291107
O O3 0.322130 0.912152 0.186907
O O4 0.332434 0.903989 0.069458
O O5 0.280623 0.494627 0.090609
O O6 0.205041 0.353697 0.067521
O O7 0.248684 0.695126 0.144397
O O8 0.399778 0.502666 0.262372
O O9 0.334482 0.439864 0.049467
O O10 0.742596 0.463361 0.659579
O O11 0.626572 0.353875 0.516612
O O12 0.344803 0.145155 0.844679
O O13 0.072588 0.252121 0.629233
O O14 0.000000 0.500000 0.500000
O O15 0.966634 0.291936 0.546197
O O16 0.108670 0.059978 0.118658
O O17 0.000000 0.000000 0.000000
#
# Coordination Sequence:
#
# PCOD9260783 Si02
#       8
#     8   8   8   8   8   8   8   8
#     4  10  19  36  62  91 116 156 219 262 300 377
#     4  11  21  38  61  95 122 165 212 254 317 384
#     4  10  18  38  64  84 128 168 203 262 307 383
#     4  11  25  41  56  98 134 163 206 257 338 383
#     4  12  22  36  64  92 128 163 205 268 319 378
#     4  10  20  39  64  87 115 169 215 258 310 371
#     4   9  20  38  60  89 113 160 219 257 299 373
#     4  11  24  40  59  95 131 164 212 269 322 378
#
# _framework density 19.976600999999999
#
# number of rings (size 3 to 8) (size 9 to 14) (size 15 to 20)
#    0.000    1.500    5.000    1.125    1.750    0.000 
#    2.250   10.000    0.000    0.000    0.000    0.000 
#    0.000    0.000    0.000    0.000    0.000    0.000 
#
# Total GULP energy -178452.915640 kJ/mol
# GULP energy per Si atom -5576.653614 kJ/mol
# Density = 1.993113 g / cm^3
# Si number density = 19.976601 Si / 1000 Ang^3
#
#
#
# Elastic Constant Matrix: (Units=GPa)
#
#
# Indices 1 2 3 4 5 6 
#
# 1 84.8703 19.1875 9.7345 0.0000 5.3646 0.0000
# 2 19.1875 40.7159 13.2200 -0.0001 4.9669 0.0000
# 3 9.7345 13.2200 106.1685 0.0000 13.8614 0.0000
# 4 0.0000 -0.0001 0.0000 30.4563 0.0000 5.3176
# 5 5.3646 4.9669 13.8614 0.0000 16.9281 0.0000
# 6 0.0000 0.0000 0.0000 5.3176 0.0000 8.7912
#
#
#
# Elastic Compliance Matrix: (Units=1/GPa)
#
#
# Indices 1 2 3 4 5 6 
#
# 1 0.013289 -0.005921 -0.000177 0.000000 -0.002329 0.000000
# 2 -0.005921 0.028697 -0.002437 0.000000 -0.004548 0.000000
# 3 -0.000177 -0.002437 0.010792 0.000000 -0.008066 0.000000
# 4 0.000000 0.000000 0.000000 0.036711 0.000000 -0.022206
# 5 -0.002329 -0.004548 -0.008066 0.000000 0.067750 0.000000
# 6 0.000000 0.000000 0.000000 -0.022206 0.000000 0.127182
#
#
# Mechanical properties :
#
#
# Convention : Reuss Voigt Hill
#
# Bulk Modulus (GPa) = 28.00480 35.11542 31.56011
# Shear Modulus (GPa) = 15.95445 23.87595 19.91520
#
# Velocity S-wave (km/s) = 2.82912 3.46091 3.16084
# Velocity P-wave (km/s) = 4.97203 5.79543 5.39945
#
# Compressibility (1/GPa) = 0.03570816
#
# Stress axis : x y z
#
# Youngs Moduli (GPa) = 75.25141 34.84739 92.66408
#
# Poissons Ratio (x) = 0.20632 0.01641
# Poissons Ratio (y) = 0.44555 0.22578
# Poissons Ratio (z) = 0.01333 0.08491
#
# Static dielectric constant tensor:
#      x y z
#    x 1.659750 0.000000 -0.066040 
#    y 0.000000 1.717740 0.000000 
#    z -0.066040 0.000000 1.671900 
# 
# From -- ./inp_files/224618.got.cif
#   From: 2010.05.17/outbox.cif.g08.bks.cpg/sg15_113_cif.got.tgz:224618.got - 2010.06.03 18:47:42.
