data_PCOD9260092
_publ_section_title
;
Structure prediction by ZEFSAII (Michael W. Deem and Ramdas Pophale) SiO2 
 PCOD9260092
Probable space group: C 2/C
;
_chemical_formula_sum "Si O2"
_cell_formula_units_Z 60
_cell_length_a 21.370200
_cell_length_b 7.941577
_cell_length_c 13.647757
_cell_angle_alpha 90.000000
_cell_angle_beta 84.628607
_cell_angle_gamma 90.000000
_cell_volume 2306.032149
_symmetry_space_group_name_H-M "C 2/C"
_symmetry_group_IT_number 15
_symmetry_cell_setting 'monoclinic'
loop_
_space_group_symop_operation_xyz
x,y,z
-x,y,1/2-z
-x,-y,-z
x,-y,1/2+z
1/2+x,1/2+y,z
1/2-x,1/2+y,1/2-z
1/2-x,1/2-y,-z
1/2+x,1/2-y,1/2+z
loop_
_atom_site_type_symbol
_atom_site_label
_atom_site_fract_x
_atom_site_fract_y
_atom_site_fract_z
Si Si1 0.375721 0.959664 0.138553
Si Si2 0.998896 0.375317 0.591769
Si Si3 0.324599 0.748944 0.506577
Si Si4 0.405728 0.570612 0.356916
Si Si5 0.868699 0.715516 0.449959
Si Si6 0.500000 0.500000 0.500000
Si Si7 0.708971 0.882945 0.701664
Si Si8 0.660369 0.539234 0.809752
O O1 0.442134 0.042214 0.160594
O O2 0.347572 0.087534 0.060822
O O3 0.328141 0.970337 0.235212
O O4 0.379236 0.797663 0.065940
O O5 0.000000 0.500000 0.500000
O O6 0.071362 0.370305 0.612752
O O7 0.986835 0.184061 0.558527
O O8 0.250000 0.750000 0.500000
O O9 0.362526 0.722137 0.401314
O O10 0.345107 0.599454 0.578279
O O11 0.374399 0.406461 0.413568
O O12 0.472122 0.579602 0.400487
O O13 0.397606 0.534620 0.243389
O O14 0.807314 0.634457 0.410592
O O15 0.683839 0.711434 0.753776
O O16 0.781787 0.912188 0.706604
#
# Coordination Sequence:
#
# PCOD9260092 Si02
#       8
#     8   8   8   8   8   4   8   8
#     4  10  19  35  56  82 111 152 197 241 299 369
#     4   9  18  34  57  88 116 150 204 245 301 377
#     4  11  21  36  59  85 116 158 203 244 304 373
#     4  10  20  37  58  83 117 156 196 252 307 369
#     4   9  20  35  56  83 112 150 194 244 304 363
#     4  10  18  36  62  86 120 164 196 254 322 366
#     4  10  21  37  55  80 114 151 195 245 304 358
#     4  10  22  37  54  85 116 151 204 245 300 374
#
# _framework density 26.018718
#
# number of rings (size 3 to 8) (size 9 to 14) (size 15 to 20)
#    0.000    2.133    1.333    2.400    0.000    1.600 
#    0.000    4.000    0.000    0.000    0.000    0.000 
#    0.000    0.000    0.000    0.000    0.000    0.000 
#
# Total GULP energy -167115.850304 kJ/mol
# GULP energy per Si atom -5570.528343 kJ/mol
# Density = 2.595950 g / cm^3
# Si number density = 26.018718 Si / 1000 Ang^3
#
#
#
# Elastic Constant Matrix: (Units=GPa)
#
#
# Indices 1 2 3 4 5 6 
#
# 1 92.8354 -1.6848 28.6594 0.0000 16.9777 0.0000
# 2 -1.6848 55.0504 21.3794 0.0000 -4.0766 0.0000
# 3 28.6594 21.3794 110.8605 0.0000 20.6270 0.0000
# 4 0.0000 0.0000 0.0000 28.8218 0.0000 0.5529
# 5 16.9777 -4.0766 20.6270 0.0000 37.9007 0.0000
# 6 0.0000 0.0000 0.0000 0.5529 0.0000 22.9696
#
#
#
# Elastic Compliance Matrix: (Units=1/GPa)
#
#
# Indices 1 2 3 4 5 6 
#
# 1 0.012340 0.001122 -0.002671 0.000000 -0.003953 0.000000
# 2 0.001122 0.020501 -0.005074 0.000000 0.004464 0.000000
# 3 -0.002671 -0.005074 0.011759 0.000000 -0.005749 0.000000
# 4 0.000000 0.000000 0.000000 0.034712 0.000000 -0.000836
# 5 -0.003953 0.004464 -0.005749 0.000000 0.031765 0.000000
# 6 0.000000 0.000000 0.000000 -0.000836 0.000000 0.043556
#
#
# Mechanical properties :
#
#
# Convention : Reuss Voigt Hill
#
# Bulk Modulus (GPa) = 31.89435 39.49493 35.69464
# Shear Modulus (GPa) = 28.03807 31.96458 30.00132
#
# Velocity S-wave (km/s) = 3.28626 3.50883 3.39937
# Velocity P-wave (km/s) = 5.16567 5.62390 5.39965
#
# Compressibility (1/GPa) = 0.03135351
#
# Stress axis : x y z
#
# Youngs Moduli (GPa) = 81.03982 48.77877 85.04074
#
# Poissons Ratio (x) = -0.05474 0.22713
# Poissons Ratio (y) = -0.09094 0.43152
# Poissons Ratio (z) = 0.21645 0.24752
#
# Static dielectric constant tensor:
#      x y z
#    x 2.278900 0.000000 -0.002490 
#    y 0.000000 2.124970 0.000000 
#    z -0.002490 0.000000 1.994990 
# 
# From -- ./inp_files/171901.got.cif
#   From: 2010.05.17/outbox.cif.g08.bks.cpg/sg15_86_cif.got.tgz:171901.got - 2010.06.03 18:47:42.
