data_PCOD9260706
_publ_section_title
;
Structure prediction by ZEFSAII (Michael W. Deem and Ramdas Pophale) SiO2 
 PCOD9260706
Probable space group: C 2/C
;
_chemical_formula_sum "Si O2"
_cell_formula_units_Z 48
_cell_length_a 21.370588
_cell_length_b 8.836497
_cell_length_c 21.608858
_cell_angle_alpha 90.000000
_cell_angle_beta 33.219811
_cell_angle_gamma 90.000000
_cell_volume 2235.589609
_symmetry_space_group_name_H-M "C 2/C"
_symmetry_group_IT_number 15
_symmetry_cell_setting 'monoclinic'
loop_
_space_group_symop_operation_xyz
x,y,z
-x,y,1/2-z
-x,-y,-z
x,-y,1/2+z
1/2+x,1/2+y,z
1/2-x,1/2+y,1/2-z
1/2-x,1/2-y,-z
1/2+x,1/2-y,1/2+z
loop_
_atom_site_type_symbol
_atom_site_label
_atom_site_fract_x
_atom_site_fract_y
_atom_site_fract_z
Si Si1 0.029034 0.131579 0.830204
Si Si2 0.725896 0.527376 0.745816
Si Si3 0.340758 0.131179 0.847298
Si Si4 0.500000 0.124440 0.250000
Si Si5 0.500000 0.618689 0.250000
Si Si6 0.109926 0.068837 0.975236
Si Si7 0.393590 0.780303 0.168100
O O1 0.155335 0.126418 0.754695
O O2 0.002896 0.273376 0.809045
O O3 0.015909 0.987506 0.795740
O O4 0.943062 0.089257 0.956556
O O5 0.664968 0.545503 0.862892
O O6 0.704565 0.351978 0.746436
O O7 0.850695 0.595145 0.654641
O O8 0.389099 0.274220 0.844336
O O9 0.208770 0.120451 0.940295
O O10 0.401447 0.145849 0.729398
O O11 0.389402 0.982505 0.839629
O O12 0.008592 0.191161 0.057057
#
# Coordination Sequence:
#
# PCOD9260706 Si02
#       7
#     8   8   8   4   4   8   8
#     4  10  20  38  61  85 122 158 199 243 303 349
#     4  10  21  37  67  86 122 156 197 247 307 350
#     4  10  21  39  62  88 118 158 203 245 300 349
#     4  10  24  38  60  86 122 168 196 248 290 358
#     4  10  18  38  62  84 118 166 196 240 304 358
#     4  10  21  39  66  89 119 156 203 248 302 356
#     4  10  20  39  62  88 120 158 192 256 296 354
#
# _framework density 21.470846999999999
#
# number of rings (size 3 to 8) (size 9 to 14) (size 15 to 20)
#    0.000    2.000    3.333    2.000    4.667    1.333 
#    0.000    3.333    7.333    0.000    0.000    0.000 
#    0.000    0.000    0.000    0.000    0.000    0.000 
#
# Total GULP energy -134041.828833 kJ/mol
# GULP energy per Si atom -5585.076201 kJ/mol
# Density = 2.142198 g / cm^3
# Si number density = 21.470847 Si / 1000 Ang^3
#
#
#
# Elastic Constant Matrix: (Units=GPa)
#
#
# Indices 1 2 3 4 5 6 
#
# 1 134.6446 37.6980 10.6750 0.0000 -6.1772 0.0000
# 2 37.6980 92.2042 6.6795 0.0001 -4.3965 -0.0001
# 3 10.6750 6.6795 33.5692 0.0000 -1.7578 0.0000
# 4 0.0000 0.0001 0.0000 12.8267 0.0000 0.7540
# 5 -6.1772 -4.3965 -1.7578 0.0000 35.4933 0.0000
# 6 0.0000 -0.0001 0.0000 0.7540 0.0000 50.6344
#
#
#
# Elastic Compliance Matrix: (Units=1/GPa)
#
#
# Indices 1 2 3 4 5 6 
#
# 1 0.008557 -0.003306 -0.002012 0.000000 0.000980 0.000000
# 2 -0.003306 0.012338 -0.001357 0.000000 0.000886 0.000000
# 3 -0.002012 -0.001357 0.030752 0.000000 0.001005 0.000000
# 4 0.000000 0.000000 0.000000 0.078030 0.000000 -0.001162
# 5 0.000980 0.000886 0.001005 0.000000 0.028504 0.000000
# 6 0.000000 0.000000 0.000000 -0.001162 0.000000 0.019767
#
#
# Mechanical properties :
#
#
# Convention : Reuss Voigt Hill
#
# Bulk Modulus (GPa) = 26.11243 41.16923 33.64083
# Shear Modulus (GPa) = 24.50211 33.48193 28.99202
#
# Velocity S-wave (km/s) = 3.38180 3.95322 3.67863
# Velocity P-wave (km/s) = 5.23803 6.32878 5.80906
#
# Compressibility (1/GPa) = 0.03829594
#
# Stress axis : x y z
#
# Youngs Moduli (GPa) = 116.86217 81.05197 32.51850
#
# Poissons Ratio (x) = 0.26797 0.06543
# Poissons Ratio (y) = 0.38636 0.04413
# Poissons Ratio (z) = 0.23513 0.11001
#
# Static dielectric constant tensor:
#      x y z
#    x 1.807530 0.000000 0.000250 
#    y 0.000000 1.790050 0.000000 
#    z 0.000250 0.000000 1.802970 
# 
# From -- ./inp_files/116840.got.cif
#   From: 2010.05.17/outbox.cif.g08.bks.cpg/sg15_59_cif.got.tgz:116840.got - 2010.06.03 18:47:42.
