data_PCOD9260150
_publ_section_title
;
Structure prediction by ZEFSAII (Michael W. Deem and Ramdas Pophale) SiO2 
 PCOD9260150
Probable space group: C 2/C
;
_chemical_formula_sum "Si O2"
_cell_formula_units_Z 52
_cell_length_a 16.268175
_cell_length_b 8.940730
_cell_length_c 16.973680
_cell_angle_alpha 90.000000
_cell_angle_beta 63.865687
_cell_angle_gamma 90.000000
_cell_volume 2216.409414
_symmetry_space_group_name_H-M "C 2/C"
_symmetry_group_IT_number 15
_symmetry_cell_setting 'monoclinic'
loop_
_space_group_symop_operation_xyz
x,y,z
-x,y,1/2-z
-x,-y,-z
x,-y,1/2+z
1/2+x,1/2+y,z
1/2-x,1/2+y,1/2-z
1/2-x,1/2-y,-z
1/2+x,1/2-y,1/2+z
loop_
_atom_site_type_symbol
_atom_site_label
_atom_site_fract_x
_atom_site_fract_y
_atom_site_fract_z
Si Si1 0.590822 0.449395 0.866837
Si Si2 0.000000 0.057318 0.750000
Si Si3 0.658193 0.816403 0.421664
Si Si4 0.644071 0.190661 0.178247
Si Si5 0.336514 0.682858 0.542485
Si Si6 0.783798 0.404630 0.696710
Si Si7 0.652238 0.048580 0.561549
O O1 0.524875 0.470844 0.820025
O O2 0.584518 0.301409 0.922799
O O3 0.601337 0.583992 0.925640
O O4 0.689045 0.430858 0.781353
O O5 0.080995 0.168622 0.689478
O O6 0.754255 0.730964 0.395580
O O7 0.678976 0.935314 0.344399
O O8 0.634395 0.918235 0.505698
O O9 0.649932 0.173504 0.269279
O O10 0.615307 0.030374 0.155567
O O11 0.279691 0.797290 0.623080
O O12 0.382091 0.794553 0.459698
O O13 0.260346 0.581080 0.531828
#
# Coordination Sequence:
#
# PCOD9260150 Si02
#       7
#     8   4   8   8   8   8   8
#     4  11  20  36  61  89 124 158 204 250 307 360
#     4  12  24  40  58  96 126 166 196 262 320 366
#     4  10  20  36  65  90 122 153 213 252 301 362
#     4  11  21  36  60  91 123 163 203 255 307 365
#     4  10  19  35  62  96 117 152 208 263 294 351
#     4  10  18  36  63  89 117 160 208 257 287 358
#     4  10  21  35  63  95 119 158 211 257 301 359
#
# _framework density 23.461369999999999
#
# number of rings (size 3 to 8) (size 9 to 14) (size 15 to 20)
#    0.000    1.538    6.154    1.385    0.000    0.000 
#    0.000    2.308    0.000    0.000    0.000    0.000 
#    0.000    0.000    0.000    0.000    0.000    0.000 
#
# Total GULP energy -145239.900443 kJ/mol
# GULP energy per Si atom -5586.150017 kJ/mol
# Density = 2.340797 g / cm^3
# Si number density = 23.461370 Si / 1000 Ang^3
#
#
#
# Elastic Constant Matrix: (Units=GPa)
#
#
# Indices 1 2 3 4 5 6 
#
# 1 84.2857 47.0169 36.5585 0.0000 28.8186 0.0000
# 2 47.0169 138.0700 36.4929 0.0000 31.0459 0.0000
# 3 36.5585 36.4929 60.6498 0.0000 39.6638 0.0000
# 4 0.0000 0.0000 0.0000 39.1159 0.0000 20.6592
# 5 28.8186 31.0459 39.6638 0.0000 38.7070 0.0000
# 6 0.0000 0.0000 0.0000 20.6592 0.0000 32.0518
#
#
#
# Elastic Compliance Matrix: (Units=1/GPa)
#
#
# Indices 1 2 3 4 5 6 
#
# 1 0.017876 -0.003550 -0.005449 0.000000 -0.004878 0.000000
# 2 -0.003550 0.009628 -0.001005 0.000000 -0.004049 0.000000
# 3 -0.005449 -0.001005 0.052135 0.000000 -0.048561 0.000000
# 4 0.000000 0.000000 0.000000 0.038760 0.000000 -0.024983
# 5 -0.004878 -0.004049 -0.048561 0.000000 0.082476 0.000000
# 6 0.000000 0.000000 0.000000 -0.024983 0.000000 0.047303
#
#
# Mechanical properties :
#
#
# Convention : Reuss Voigt Hill
#
# Bulk Modulus (GPa) = 16.76992 58.12689 37.44840
# Shear Modulus (GPa) = 17.35731 32.83741 25.09736
#
# Velocity S-wave (km/s) = 2.72292 3.74523 3.27422
# Velocity P-wave (km/s) = 4.12906 6.59786 5.50367
#
# Compressibility (1/GPa) = 0.05963058
#
# Stress axis : x y z
#
# Youngs Moduli (GPa) = 55.94004 103.86631 19.18091
#
# Poissons Ratio (x) = 0.36876 0.10452
# Poissons Ratio (y) = 0.19860 0.01927
# Poissons Ratio (z) = 0.30482 0.10438
#
# Static dielectric constant tensor:
#      x y z
#    x 1.920600 0.000000 0.019290 
#    y 0.000000 1.930940 0.000000 
#    z 0.019290 0.000000 1.928040 
# 
# From -- ./inp_files/209157.got.cif
#   From: 2010.05.17/outbox.cif.g08.bks.cpg/sg15_105_cif.got.tgz:209157.got - 2010.06.03 18:47:42.
