data_PCOD9260862
_publ_section_title
;
Structure prediction by ZEFSAII (Michael W. Deem and Ramdas Pophale) SiO2 
 PCOD9260862
Probable space group: C 2/C
;
_chemical_formula_sum "Si O2"
_cell_formula_units_Z 56
_cell_length_a 28.226246
_cell_length_b 6.088915
_cell_length_c 15.457770
_cell_angle_alpha 90.000000
_cell_angle_beta 57.005297
_cell_angle_gamma 90.000000
_cell_volume 2228.216308
_symmetry_space_group_name_H-M "C 2/C"
_symmetry_group_IT_number 15
_symmetry_cell_setting 'monoclinic'
loop_
_space_group_symop_operation_xyz
x,y,z
-x,y,1/2-z
-x,-y,-z
x,-y,1/2+z
1/2+x,1/2+y,z
1/2-x,1/2+y,1/2-z
1/2-x,1/2-y,-z
1/2+x,1/2-y,1/2+z
loop_
_atom_site_type_symbol
_atom_site_label
_atom_site_fract_x
_atom_site_fract_y
_atom_site_fract_z
Si Si1 0.450069 0.982220 0.695071
Si Si2 0.211405 0.542125 0.653219
Si Si3 0.000000 0.154858 0.250000
Si Si4 0.327853 0.708021 0.481078
Si Si5 0.500000 0.000000 0.500000
Si Si6 0.353808 0.360237 0.316786
Si Si7 0.569769 0.389293 0.521389
Si Si8 0.879019 0.231837 0.150575
O O1 0.453591 0.179723 0.757135
O O2 0.509468 0.926094 0.596166
O O3 0.430862 0.100080 0.621344
O O4 0.406560 0.804014 0.766781
O O5 0.272476 0.651503 0.592052
O O6 0.185990 0.628610 0.585382
O O7 0.200652 0.281696 0.658400
O O8 0.175754 0.623222 0.772090
O O9 0.971195 0.040960 0.358997
O O10 0.342047 0.481506 0.417204
O O11 0.380208 0.764532 0.489313
O O12 0.533204 0.252861 0.489003
O O13 0.371103 0.543345 0.230600
O O14 0.604295 0.594517 0.448433
#
# Coordination Sequence:
#
# PCOD9260862 Si02
#       8
#     8   8   4   8   4   8   8   8
#     4  10  21  42  60  92 124 173 221 282 333 407
#     4   9  20  40  66  97 132 174 212 280 343 413
#     4  10  22  38  64  86 126 164 234 288 326 394
#     4  10  21  40  66  98 135 166 226 279 335 409
#     4  10  22  40  66  82 132 180 222 286 344 402
#     4  10  18  38  66  92 125 178 207 270 342 415
#     4  11  22  43  61  99 129 178 229 285 337 411
#     4  10  21  39  65  89 132 169 216 268 340 410
#
# _framework density 25.132210000000001
#
# number of rings (size 3 to 8) (size 9 to 14) (size 15 to 20)
#    0.000    2.000    1.429    3.000    0.000    2.286 
#   12.857    0.714    3.143    0.000    0.000    0.000 
#    0.000    0.000    0.000    0.000    0.000    0.000 
#
# Total GULP energy -156081.565167 kJ/mol
# GULP energy per Si atom -5574.341613 kJ/mol
# Density = 2.507501 g / cm^3
# Si number density = 25.132210 Si / 1000 Ang^3
#
#
#
# Elastic Constant Matrix: (Units=GPa)
#
#
# Indices 1 2 3 4 5 6 
#
# 1 54.9834 5.1760 14.9060 -0.0010 -13.9005 -0.0008
# 2 5.1760 74.1319 23.1304 -0.0053 6.7089 -0.0096
# 3 14.9060 23.1304 134.9691 0.0008 -9.4969 0.0012
# 4 -0.0010 -0.0053 0.0008 33.1244 0.0000 -1.5503
# 5 -13.9005 6.7089 -9.4969 0.0000 31.6569 -0.0007
# 6 -0.0008 -0.0096 0.0012 -1.5503 -0.0007 19.2214
#
#
#
# Elastic Compliance Matrix: (Units=1/GPa)
#
#
# Indices 1 2 3 4 5 6 
#
# 1 0.021069 -0.001886 -0.001353 0.000000 0.009245 0.000000
# 2 -0.001886 0.014891 -0.002681 0.000003 -0.004788 0.000008
# 3 -0.001353 -0.002681 0.008189 -0.000001 0.002431 -0.000002
# 4 0.000000 0.000003 -0.000001 0.030304 -0.000001 0.002444
# 5 0.009245 -0.004788 0.002431 -0.000001 0.037392 -0.000001
# 6 0.000000 0.000008 -0.000002 0.002444 -0.000001 0.052222
#
#
# Mechanical properties :
#
#
# Convention : Reuss Voigt Hill
#
# Bulk Modulus (GPa) = 30.95010 38.94547 34.94778
# Shear Modulus (GPa) = 26.78449 31.52535 29.15492
#
# Velocity S-wave (km/s) = 3.26811 3.54557 3.40966
# Velocity P-wave (km/s) = 5.15581 5.68254 5.42557
#
# Compressibility (1/GPa) = 0.03231008
#
# Stress axis : x y z
#
# Youngs Moduli (GPa) = 47.46333 67.15552 122.11563
#
# Poissons Ratio (x) = 0.12662 0.16525
# Poissons Ratio (y) = 0.08949 0.32734
# Poissons Ratio (z) = 0.06423 0.18002
#
# Static dielectric constant tensor:
#      x y z
#    x 2.123130 0.000000 -0.056070 
#    y 0.000000 2.056160 0.000000 
#    z -0.056070 0.000000 2.060820 
# 
# From -- ./inp_files/223838.got.cif
#   From: 2010.05.17/outbox.cif.g08.bks.cpg/sg15_112_cif.got.tgz:223838.got - 2010.06.03 18:47:42.
