data_PCOD9260935
_publ_section_title
;
Structure prediction by ZEFSAII (Michael W. Deem and Ramdas Pophale) SiO2 
 PCOD9260935
Probable space group: C 2/C
;
_chemical_formula_sum "Si O2"
_cell_formula_units_Z 60
_cell_length_a 12.859291
_cell_length_b 28.199830
_cell_length_c 18.082457
_cell_angle_alpha 90.000000
_cell_angle_beta 152.133475
_cell_angle_gamma 90.000000
_cell_volume 3064.940938
_symmetry_space_group_name_H-M "C 2/C"
_symmetry_group_IT_number 15
_symmetry_cell_setting 'monoclinic'
loop_
_space_group_symop_operation_xyz
x,y,z
-x,y,1/2-z
-x,-y,-z
x,-y,1/2+z
1/2+x,1/2+y,z
1/2-x,1/2+y,1/2-z
1/2-x,1/2-y,-z
1/2+x,1/2-y,1/2+z
loop_
_atom_site_type_symbol
_atom_site_label
_atom_site_fract_x
_atom_site_fract_y
_atom_site_fract_z
Si Si1 0.500000 0.644899 0.750000
Si Si2 0.873826 0.138900 0.348221
Si Si3 0.593725 0.442922 0.894450
Si Si4 0.991650 0.612588 0.597692
Si Si5 0.964787 0.594614 0.038013
Si Si6 0.511795 0.369159 0.416420
Si Si7 0.187978 0.538095 0.429755
Si Si8 0.170385 0.801051 0.924406
O O1 0.476654 0.663930 0.650430
O O2 0.284982 0.612809 0.625687
O O3 0.613690 0.136481 0.166119
O O4 0.949619 0.087022 0.363200
O O5 0.902249 0.149964 0.451738
O O6 0.027729 0.174081 0.398945
O O7 0.500000 0.438210 0.750000
O O8 0.840312 0.419573 0.054731
O O9 0.635411 0.496775 0.943495
O O10 0.955488 0.588743 0.494933
O O11 0.872773 0.664067 0.528388
O O12 0.254956 0.616989 0.772690
O O13 0.949909 0.549983 0.082276
O O14 0.668387 0.415016 0.499995
O O15 0.000000 0.528297 0.250000
O O16 0.000000 0.797095 0.750000
O O17 0.250000 0.750000 0.000000
#
# Coordination Sequence:
#
# PCOD9260935 Si02
#       8
#     4   8   8   8   8   8   8   8
#     4   8  20  34  58  88 112 144 210 254 288 334
#     4  11  21  40  62  84 122 161 202 237 306 360
#     4  11  24  36  53  81 120 164 205 253 296 350
#     4  10  21  41  60  81 119 161 197 239 301 359
#     4  10  18  39  58  79 114 164 199 250 289 347
#     4  10  22  37  60  84 115 161 206 243 299 349
#     4  11  24  36  52  85 119 154 213 263 286 333
#     4  11  24  41  65  97 129 150 186 241 296 366
#
# _framework density 19.576233999999999
#
# number of rings (size 3 to 8) (size 9 to 14) (size 15 to 20)
#    0.000    1.600    4.000    0.800    9.333    3.200 
#    0.000    0.000    0.000    0.000    0.000   39.200 
#    0.000    0.000    0.000    0.000    0.000    0.000 
#
# Total GULP energy -167012.112185 kJ/mol
# GULP energy per Si atom -5567.070406 kJ/mol
# Density = 1.953168 g / cm^3
# Si number density = 19.576234 Si / 1000 Ang^3
#
#
#
# Elastic Constant Matrix: (Units=GPa)
#
#
# Indices 1 2 3 4 5 6 
#
# 1 86.3038 23.8834 14.5216 0.0023 -4.0459 0.0043
# 2 23.8834 67.9459 0.0456 0.0012 2.6549 0.0017
# 3 14.5216 0.0456 73.1545 0.0042 11.6559 0.0078
# 4 0.0023 0.0012 0.0042 20.6671 0.0013 12.5812
# 5 -4.0459 2.6549 11.6559 0.0013 35.2349 0.0028
# 6 0.0043 0.0017 0.0078 12.5812 0.0028 28.9378
#
#
#
# Elastic Compliance Matrix: (Units=1/GPa)
#
#
# Indices 1 2 3 4 5 6 
#
# 1 0.013617 -0.004901 -0.003175 0.000000 0.002983 -0.000001
# 2 -0.004901 0.016527 0.001320 0.000000 -0.002245 0.000000
# 3 -0.003175 0.001320 0.015173 -0.000001 -0.005483 -0.000003
# 4 0.000000 0.000000 -0.000001 0.065802 0.000000 -0.028608
# 5 0.002983 -0.002245 -0.005483 0.000000 0.030707 -0.000002
# 6 -0.000001 0.000000 -0.000003 -0.028608 -0.000002 0.046995
#
#
# Mechanical properties :
#
#
# Convention : Reuss Voigt Hill
#
# Bulk Modulus (GPa) = 31.44154 33.81171 32.62663
# Shear Modulus (GPa) = 23.48138 29.56487 26.52312
#
# Velocity S-wave (km/s) = 3.46711 3.89040 3.68484
# Velocity P-wave (km/s) = 5.66778 6.12288 5.89972
#
# Compressibility (1/GPa) = 0.03180506
#
# Stress axis : x y z
#
# Youngs Moduli (GPa) = 73.43527 60.50640 65.90697
#
# Poissons Ratio (x) = 0.29655 0.20928
# Poissons Ratio (y) = 0.35991 -0.08701
# Poissons Ratio (z) = 0.23319 -0.07988
#
# Static dielectric constant tensor:
#      x y z
#    x 1.756510 0.000000 -0.035020 
#    y 0.000000 1.663150 0.000000 
#    z -0.035020 0.000000 1.722110 
# 
# From -- ./inp_files/201281.got.cif
#   From: 2010.05.17/outbox.cif.g08.bks.cpg/sg15_101_cif.got.tgz:201281.got - 2010.06.03 18:47:42.
