data_PCOD9260559
_publ_section_title
;
Structure prediction by ZEFSAII (Michael W. Deem and Ramdas Pophale) SiO2 
 PCOD9260559
Probable space group: C 2/C
;
_chemical_formula_sum "Si O2"
_cell_formula_units_Z 44
_cell_length_a 11.788241
_cell_length_b 8.250276
_cell_length_c 20.413599
_cell_angle_alpha 90.000000
_cell_angle_beta 105.384933
_cell_angle_gamma 90.000000
_cell_volume 1914.205311
_symmetry_space_group_name_H-M "C 2/C"
_symmetry_group_IT_number 15
_symmetry_cell_setting 'monoclinic'
loop_
_space_group_symop_operation_xyz
x,y,z
-x,y,1/2-z
-x,-y,-z
x,-y,1/2+z
1/2+x,1/2+y,z
1/2-x,1/2+y,1/2-z
1/2-x,1/2-y,-z
1/2+x,1/2-y,1/2+z
loop_
_atom_site_type_symbol
_atom_site_label
_atom_site_fract_x
_atom_site_fract_y
_atom_site_fract_z
Si Si1 0.304963 0.281550 0.119567
Si Si2 0.962419 0.809318 0.674681
Si Si3 0.337609 0.042123 0.805597
Si Si4 0.264809 0.421772 0.346403
Si Si5 0.500000 0.795554 0.750000
Si Si6 0.484760 0.423394 0.068368
O O1 0.221196 0.428108 0.132346
O O2 0.254406 0.099510 0.123172
O O3 0.410680 0.289343 0.188277
O O4 0.372396 0.306587 0.061295
O O5 0.844280 0.700106 0.658655
O O6 0.000000 0.884933 0.750000
O O7 0.071511 0.689537 0.681381
O O8 0.959154 0.931883 0.614964
O O9 0.239913 0.055418 0.733005
O O10 0.418798 0.900707 0.787809
O O11 0.388114 0.353887 0.390986
O O12 0.500000 0.500000 0.000000
#
# Coordination Sequence:
#
# PCOD9260559 Si02
#       6
#     8   8   8   8   4   8
#     4  11  22  37  65  93 123 168 206 260 318 380
#     4  10  21  43  66  95 128 161 209 276 327 370
#     4  10  18  37  67  98 125 156 203 271 327 368
#     4  10  22  42  64  92 130 162 213 267 315 383
#     4  10  20  38  60 106 128 148 210 266 324 378
#     4  12  28  43  61  94 133 176 219 255 315 387
#
# _framework density 22.986039999999999
#
# number of rings (size 3 to 8) (size 9 to 14) (size 15 to 20)
#    0.000    1.455    6.364    1.091    3.818    4.364 
#    0.000    0.909    0.000    0.000    0.000    0.000 
#    0.000    0.000    0.000    0.000    0.000    0.000 
#
# Total GULP energy -122767.310985 kJ/mol
# GULP energy per Si atom -5580.332318 kJ/mol
# Density = 2.293372 g / cm^3
# Si number density = 22.986040 Si / 1000 Ang^3
#
#
#
# Elastic Constant Matrix: (Units=GPa)
#
#
# Indices 1 2 3 4 5 6 
#
# 1 121.2577 26.3324 37.7963 0.0000 -9.7916 0.0000
# 2 26.3324 76.1459 29.7924 0.0000 -15.3634 0.0000
# 3 37.7963 29.7924 57.0502 0.0000 -21.7955 0.0000
# 4 0.0000 0.0000 0.0000 8.6241 0.0000 -0.8808
# 5 -9.7916 -15.3634 -21.7955 0.0000 36.2259 0.0000
# 6 0.0000 0.0000 0.0000 -0.8808 0.0000 32.2599
#
#
#
# Elastic Compliance Matrix: (Units=1/GPa)
#
#
# Indices 1 2 3 4 5 6 
#
# 1 0.010575 -0.001279 -0.007081 0.000000 -0.001944 0.000000
# 2 -0.001279 0.016816 -0.006936 0.000000 0.002613 0.000000
# 3 -0.007081 -0.006936 0.031146 0.000000 0.013884 0.000000
# 4 0.000000 0.000000 0.000000 0.116279 0.000000 0.003175
# 5 -0.001944 0.002613 0.013884 0.000000 0.036540 0.000000
# 6 0.000000 0.000000 0.000000 0.003175 0.000000 0.031085
#
#
# Mechanical properties :
#
#
# Convention : Reuss Voigt Hill
#
# Bulk Modulus (GPa) = 35.78465 49.14398 42.46432
# Shear Modulus (GPa) = 17.70872 26.12417 21.91644
#
# Velocity S-wave (km/s) = 2.77864 3.37489 3.09118
# Velocity P-wave (km/s) = 5.08884 6.05086 5.59058
#
# Compressibility (1/GPa) = 0.02794494
#
# Stress axis : x y z
#
# Youngs Moduli (GPa) = 94.56519 59.46780 32.10709
#
# Poissons Ratio (x) = 0.07605 0.22735
# Poissons Ratio (y) = 0.12093 0.22270
# Poissons Ratio (z) = 0.66960 0.41247
#
# Static dielectric constant tensor:
#      x y z
#    x 1.959560 0.000000 -0.031430 
#    y 0.000000 1.943430 0.000000 
#    z -0.031430 0.000000 1.847010 
# 
# From -- ./inp_files/236180.got.cif
#   From: 2010.05.17/outbox.cif.g08.bks.cpg/sg15_119_cif.got.tgz:236180.got - 2010.06.03 18:47:42.
