data_PCOD9260475
_publ_section_title
;
Structure prediction by ZEFSAII (Michael W. Deem and Ramdas Pophale) SiO2 
 PCOD9260475
Probable space group: C 2/C
;
_chemical_formula_sum "Si O2"
_cell_formula_units_Z 40
_cell_length_a 5.306500
_cell_length_b 25.584005
_cell_length_c 17.113107
_cell_angle_alpha 90.000000
_cell_angle_beta 60.564775
_cell_angle_gamma 90.000000
_cell_volume 2023.390757
_symmetry_space_group_name_H-M "C 2/C"
_symmetry_group_IT_number 15
_symmetry_cell_setting 'monoclinic'
loop_
_space_group_symop_operation_xyz
x,y,z
-x,y,1/2-z
-x,-y,-z
x,-y,1/2+z
1/2+x,1/2+y,z
1/2-x,1/2+y,1/2-z
1/2-x,1/2-y,-z
1/2+x,1/2-y,1/2+z
loop_
_atom_site_type_symbol
_atom_site_label
_atom_site_fract_x
_atom_site_fract_y
_atom_site_fract_z
Si Si1 0.671233 0.363043 0.991771
Si Si2 0.575074 0.075728 0.325768
Si Si3 0.748915 0.300428 0.554877
Si Si4 0.000000 0.172719 0.250000
Si Si5 0.000000 0.990949 0.250000
Si Si6 0.831577 0.112236 0.700979
O O1 0.503028 0.375971 0.096355
O O2 0.437874 0.342050 0.965506
O O3 0.825711 0.411378 0.924780
O O4 0.930380 0.322092 0.973541
O O5 0.500000 0.057694 0.250000
O O6 0.735737 0.131320 0.285952
O O7 0.785370 0.030886 0.325800
O O8 0.750000 0.250000 0.500000
O O9 0.572647 0.293703 0.662718
O O10 0.845597 0.950140 0.215705
O O11 0.500000 0.129384 0.750000
O O12 0.000000 0.135842 0.750000
#
# Coordination Sequence:
#
# PCOD9260475 Si02
#       6
#     8   8   8   4   4   8
#     4  11  23  41  68  91 124 172 207 261 319 371
#     4  10  18  37  63  89 124 164 214 253 309 360
#     4  11  23  42  65  98 125 157 216 258 317 383
#     4   9  20  38  60  90 128 162 198 266 308 365
#     4   9  22  36  60  94 130 164 210 260 298 375
#     4  10  22  43  60  86 134 166 209 254 308 375
#
# _framework density 19.768796999999999
#
# number of rings (size 3 to 8) (size 9 to 14) (size 15 to 20)
#    0.600    1.200    2.000    2.400    0.000    0.800 
#    5.400    2.000    0.000    0.000    0.000    0.000 
#    0.000    0.000    0.000    0.000    0.000    0.000 
#
# Total GULP energy -111439.529423 kJ/mol
# GULP energy per Si atom -5571.976471 kJ/mol
# Density = 1.972380 g / cm^3
# Si number density = 19.768797 Si / 1000 Ang^3
#
#
#
# Elastic Constant Matrix: (Units=GPa)
#
#
# Indices 1 2 3 4 5 6 
#
# 1 78.2767 -7.3491 34.5220 0.0000 -5.9103 0.0000
# 2 -7.3491 20.7466 19.5121 0.0000 -4.2071 0.0000
# 3 34.5220 19.5121 194.5384 0.0000 -10.2649 0.0000
# 4 0.0000 0.0000 0.0000 -41.8396 0.0000 -18.3416
# 5 -5.9103 -4.2071 -10.2649 0.0000 30.8846 0.0000
# 6 0.0000 0.0000 0.0000 -18.3416 0.0000 -6.2927
#
#
#
# Elastic Compliance Matrix: (Units=1/GPa)
#
#
# Indices 1 2 3 4 5 6 
#
# 1 0.015443 0.009404 -0.003522 0.000000 0.003066 0.000000
# 2 0.009404 0.059908 -0.007280 0.000000 0.007541 0.000000
# 3 -0.003522 -0.007280 0.006522 0.000000 0.000502 0.000000
# 4 0.000000 0.000000 0.000000 0.086048 0.000000 -0.250809
# 5 0.003066 0.007541 0.000502 0.000000 0.034159 0.000000
# 6 0.000000 0.000000 0.000000 -0.250809 0.000000 0.572129
#
#
# Mechanical properties :
#
#
# Convention : Reuss Voigt Hill
#
# Bulk Modulus (GPa) = 12.64572 42.99239 27.81906
# Shear Modulus (GPa) = 6.22383 13.00891 9.61637
#
# Velocity S-wave (km/s) = 1.77627 2.56804 2.20794
# Velocity P-wave (km/s) = 3.25846 5.53063 4.53902
#
# Compressibility (1/GPa) = 0.07907815
#
# Stress axis : x y z
#
# Youngs Moduli (GPa) = 64.75474 16.69237 153.32732
#
# Poissons Ratio (x) = -0.15698 0.54001
# Poissons Ratio (y) = -0.60898 1.11617
# Poissons Ratio (z) = 0.22806 0.12151
#
# Static dielectric constant tensor:
#      x y z
#    x 1.775020 0.000000 0.015500 
#    y 0.000000 1.692460 0.000000 
#    z 0.015500 0.000000 1.706970 
# 
# From -- ./inp_files/129699.got.cif
#   From: 2010.05.17/outbox.cif.g08.bks.cpg/sg15_65_cif.got.tgz:129699.got - 2010.06.03 18:47:42.
