data_PCOD9260451
_publ_section_title
;
Structure prediction by ZEFSAII (Michael W. Deem and Ramdas Pophale) SiO2 
 PCOD9260451
Probable space group: C 2/C
;
_chemical_formula_sum "Si O2"
_cell_formula_units_Z 60
_cell_length_a 13.384363
_cell_length_b 27.426951
_cell_length_c 7.592645
_cell_angle_alpha 90.000000
_cell_angle_beta 116.394171
_cell_angle_gamma 90.000000
_cell_volume 2496.655026
_symmetry_space_group_name_H-M "C 2/C"
_symmetry_group_IT_number 15
_symmetry_cell_setting 'monoclinic'
loop_
_space_group_symop_operation_xyz
x,y,z
-x,y,1/2-z
-x,-y,-z
x,-y,1/2+z
1/2+x,1/2+y,z
1/2-x,1/2+y,1/2-z
1/2-x,1/2-y,-z
1/2+x,1/2-y,1/2+z
loop_
_atom_site_type_symbol
_atom_site_label
_atom_site_fract_x
_atom_site_fract_y
_atom_site_fract_z
Si Si1 0.222518 0.954377 0.234993
Si Si2 0.373428 0.019915 0.156293
Si Si3 0.546647 0.296705 0.087998
Si Si4 0.002138 0.687628 0.035289
Si Si5 0.261525 0.848068 0.335093
Si Si6 0.306686 0.881649 0.772059
Si Si7 0.063855 0.106449 0.138301
Si Si8 0.000000 0.045008 0.750000
O O1 0.334631 0.957736 0.442035
O O2 0.207363 0.896694 0.210359
O O3 0.108479 0.976115 0.229770
O O4 0.271545 0.983047 0.109974
O O5 0.500000 0.001609 0.250000
O O6 0.363252 0.065846 0.280573
O O7 0.500000 0.300329 0.250000
O O8 0.517694 0.243470 0.994140
O O9 0.678391 0.305103 0.216120
O O10 0.490380 0.340719 0.938329
O O11 0.106328 0.654063 0.069989
O O12 0.000000 0.686833 0.250000
O O13 0.886877 0.664679 0.880545
O O14 0.269131 0.858585 0.552399
O O15 0.192775 0.888494 0.784920
O O16 0.000000 0.081598 0.250000
O O17 0.055166 0.077030 0.948867
#
# Coordination Sequence:
#
# PCOD9260451 Si02
#       8
#     8   8   8   8   8   8   8   4
#     4  11  23  41  68  94 135 179 217 288 337 403
#     4  11  23  41  66  97 130 173 225 280 340 405
#     4  11  19  36  63  94 131 172 218 274 331 400
#     4   9  21  30  63 100 125 174 228 269 329 414
#     4  10  18  37  62  91 131 174 213 274 338 388
#     4  10  19  40  59  93 134 169 219 278 334 398
#     4  12  23  40  70  95 130 182 221 273 337 399
#     4  12  22  50  64  98 142 174 226 280 338 398
#
# _framework density 24.032153999999998
#
# number of rings (size 3 to 8) (size 9 to 14) (size 15 to 20)
#    0.000    1.333    6.000    2.400    1.867    3.200 
#    1.200    0.667    0.000    0.000    0.000    0.000 
#    0.000    0.000    0.000    0.000    0.000    0.000 
#
# Total GULP energy -167741.969267 kJ/mol
# GULP energy per Si atom -5591.398976 kJ/mol
# Density = 2.397746 g / cm^3
# Si number density = 24.032154 Si / 1000 Ang^3
#
#
#
# Elastic Constant Matrix: (Units=GPa)
#
#
# Indices 1 2 3 4 5 6 
#
# 1 169.9268 32.4538 37.9387 0.0000 33.0485 0.0000
# 2 32.4538 64.4133 9.9801 0.0000 5.7288 0.0000
# 3 37.9387 9.9801 47.1170 0.0000 0.4192 0.0000
# 4 0.0000 0.0000 0.0000 15.8432 0.0000 14.3567
# 5 33.0485 5.7288 0.4192 0.0000 36.9343 0.0000
# 6 0.0000 0.0000 0.0000 14.3567 0.0000 34.6431
#
#
#
# Elastic Compliance Matrix: (Units=1/GPa)
#
#
# Indices 1 2 3 4 5 6 
#
# 1 0.009591 -0.003032 -0.007009 0.000000 -0.008032 0.000000
# 2 -0.003032 0.017235 -0.001210 0.000000 0.000053 0.000000
# 3 -0.007009 -0.001210 0.027069 0.000000 0.006152 0.000000
# 4 0.000000 0.000000 0.000000 0.101076 0.000000 -0.041888
# 5 -0.008032 0.000053 0.006152 0.000000 0.034184 0.000000
# 6 0.000000 0.000000 0.000000 -0.041888 0.000000 0.046225
#
#
# Mechanical properties :
#
#
# Convention : Reuss Voigt Hill
#
# Bulk Modulus (GPa) = 31.85375 49.13360 40.49367
# Shear Modulus (GPa) = 18.63270 30.88975 24.76122
#
# Velocity S-wave (km/s) = 2.78748 3.58907 3.21337
# Velocity P-wave (km/s) = 4.86246 6.13714 5.53661
#
# Compressibility (1/GPa) = 0.03139348
#
# Stress axis : x y z
#
# Youngs Moduli (GPa) = 104.26516 58.02130 36.94278
#
# Poissons Ratio (x) = 0.17592 0.25893
# Poissons Ratio (y) = 0.31613 0.04469
# Poissons Ratio (z) = 0.73079 0.07019
#
# Static dielectric constant tensor:
#      x y z
#    x 1.938460 0.000000 -0.079930 
#    y 0.000000 1.958720 0.000000 
#    z -0.079930 0.000000 1.928650 
# 
# From -- ./inp_files/35741.got.cif
#   From: 2010.05.17/outbox.cif.g08.bks.cpg/sg15_18_cif.got.tgz:35741.got - 2010.06.03 18:47:42.
