data_PCOD9260898
_publ_section_title
;
Structure prediction by ZEFSAII (Michael W. Deem and Ramdas Pophale) SiO2 
 PCOD9260898
Probable space group: C 2/C
;
_chemical_formula_sum "Si O2"
_cell_formula_units_Z 60
_cell_length_a 25.253718
_cell_length_b 20.199660
_cell_length_c 13.995691
_cell_angle_alpha 90.000000
_cell_angle_beta 23.008554
_cell_angle_gamma 90.000000
_cell_volume 2790.579893
_symmetry_space_group_name_H-M "C 2/C"
_symmetry_group_IT_number 15
_symmetry_cell_setting 'monoclinic'
loop_
_space_group_symop_operation_xyz
x,y,z
-x,y,1/2-z
-x,-y,-z
x,-y,1/2+z
1/2+x,1/2+y,z
1/2-x,1/2+y,1/2-z
1/2-x,1/2-y,-z
1/2+x,1/2-y,1/2+z
loop_
_atom_site_type_symbol
_atom_site_label
_atom_site_fract_x
_atom_site_fract_y
_atom_site_fract_z
Si Si1 0.308964 0.158822 0.669206
Si Si2 0.263580 0.484435 0.406743
Si Si3 0.195706 0.258080 0.698093
Si Si4 0.939120 0.410023 0.244676
Si Si5 0.000000 0.423034 0.750000
Si Si6 0.389841 0.776160 0.229105
Si Si7 0.291201 0.083416 0.303749
Si Si8 0.871544 0.971807 0.032892
O O1 0.268488 0.206570 0.648860
O O2 0.451546 0.123032 0.414721
O O3 0.338913 0.199631 0.711855
O O4 0.203927 0.098478 0.857878
O O5 0.208664 0.557152 0.524824
O O6 0.130783 0.460874 0.568000
O O7 0.264276 0.440414 0.500822
O O8 0.381663 0.477886 0.131953
O O9 0.250000 0.250000 0.500000
O O10 0.218582 0.336398 0.687307
O O11 0.034921 0.241111 0.972302
O O12 0.926751 0.333734 0.241768
O O13 0.000000 0.417464 0.250000
O O14 0.051987 0.435112 0.980977
O O15 0.250000 0.750000 0.500000
O O16 0.210088 0.037837 0.363244
O O17 0.000000 0.971102 0.750000
#
# Coordination Sequence:
#
# PCOD9260898 Si02
#       8
#     8   8   8   8   4   8   8   8
#     4  11  23  43  69  95 141 178 231 295 346 426
#     4  11  20  39  69  98 131 169 226 290 345 415
#     4  11  25  47  71 102 139 188 241 296 353 423
#     4  11  20  40  69  99 137 168 229 297 350 417
#     4  10  18  38  68  96 118 168 222 276 348 392
#     4  11  27  40  65 100 131 186 234 280 357 418
#     4  11  23  42  68  99 135 178 231 295 348 420
#     4  11  25  43  64 100 139 188 228 280 354 418
#
# _framework density 21.500907000000002
#
# number of rings (size 3 to 8) (size 9 to 14) (size 15 to 20)
#    0.000    1.067    2.000    6.000    5.600    0.533 
#    6.000    0.000    0.000    0.000    0.000    0.000 
#    0.000    0.000    0.000    0.000    0.000    0.000 
#
# Total GULP energy -167215.581055 kJ/mol
# GULP energy per Si atom -5573.852702 kJ/mol
# Density = 2.145197 g / cm^3
# Si number density = 21.500907 Si / 1000 Ang^3
#
#
#
# Elastic Constant Matrix: (Units=GPa)
#
#
# Indices 1 2 3 4 5 6 
#
# 1 83.8715 27.2741 12.1109 -0.0007 11.6393 0.0007
# 2 27.2741 50.9690 11.9606 -0.0004 -3.5848 0.0010
# 3 12.1109 11.9606 104.1760 -0.0017 23.6991 0.0023
# 4 -0.0007 -0.0004 -0.0017 26.9962 0.0014 1.9941
# 5 11.6393 -3.5848 23.6991 0.0014 31.1388 -0.0013
# 6 0.0007 0.0010 0.0023 1.9941 -0.0013 37.1576
#
#
#
# Elastic Compliance Matrix: (Units=1/GPa)
#
#
# Indices 1 2 3 4 5 6 
#
# 1 0.015870 -0.009267 0.000981 0.000001 -0.007745 0.000000
# 2 -0.009267 0.026222 -0.004122 -0.000001 0.009620 0.000000
# 3 0.000981 -0.004122 0.012275 0.000001 -0.010183 -0.000001
# 4 0.000001 -0.000001 0.000001 0.037190 -0.000003 -0.001996
# 5 -0.007745 0.009620 -0.010183 -0.000003 0.043867 0.000002
# 6 0.000000 0.000000 -0.000001 -0.001996 0.000002 0.027020
#
#
# Mechanical properties :
#
#
# Convention : Reuss Voigt Hill
#
# Bulk Modulus (GPa) = 33.83891 37.96751 35.90321
# Shear Modulus (GPa) = 25.36660 31.56990 28.46825
#
# Velocity S-wave (km/s) = 3.43854 3.83600 3.64270
# Velocity P-wave (km/s) = 5.61580 6.10875 5.86745
#
# Compressibility (1/GPa) = 0.02955178
#
# Stress axis : x y z
#
# Youngs Moduli (GPa) = 63.01297 38.13529 81.46671
#
# Poissons Ratio (x) = 0.35340 -0.07992
# Poissons Ratio (y) = 0.58394 0.33578
# Poissons Ratio (z) = -0.06182 0.15718
#
# Static dielectric constant tensor:
#      x y z
#    x 1.768330 0.000000 -0.005590 
#    y 0.000000 2.028100 0.000000 
#    z -0.005590 0.000000 1.696920 
# 
# From -- ./inp_files/179085.got.cif
#   From: 2010.05.17/outbox.cif.g08.bks.cpg/sg15_90_cif.got.tgz:179085.got - 2010.06.03 18:47:42.
