data_PCOD9260954
_publ_section_title
;
Structure prediction by ZEFSAII (Michael W. Deem and Ramdas Pophale) SiO2 
 PCOD9260954
Probable space group: C 2/C
;
_chemical_formula_sum "Si O2"
_cell_formula_units_Z 48
_cell_length_a 31.970716
_cell_length_b 19.683753
_cell_length_c 8.732155
_cell_angle_alpha 90.000000
_cell_angle_beta 28.937587
_cell_angle_gamma 90.000000
_cell_volume 2658.877773
_symmetry_space_group_name_H-M "C 2/C"
_symmetry_group_IT_number 15
_symmetry_cell_setting 'monoclinic'
loop_
_space_group_symop_operation_xyz
x,y,z
-x,y,1/2-z
-x,-y,-z
x,-y,1/2+z
1/2+x,1/2+y,z
1/2-x,1/2+y,1/2-z
1/2-x,1/2-y,-z
1/2+x,1/2-y,1/2+z
loop_
_atom_site_type_symbol
_atom_site_label
_atom_site_fract_x
_atom_site_fract_y
_atom_site_fract_z
Si Si1 0.230242 0.918545 0.835734
Si Si2 0.824691 0.709206 0.166796
Si Si3 0.823295 0.791125 0.858840
Si Si4 0.197673 0.943927 0.601521
Si Si5 0.500000 0.565889 0.750000
Si Si6 0.939369 0.839208 0.208789
Si Si7 0.000000 0.740887 0.750000
O O1 0.289789 0.863966 0.727797
O O2 0.246188 0.930568 0.605306
O O3 0.135096 0.883197 0.135910
O O4 0.234090 0.992129 0.897701
O O5 0.750000 0.750000 0.500000
O O6 0.842933 0.750027 0.949894
O O7 0.911780 0.703204 0.987120
O O8 0.799200 0.868782 0.982427
O O9 0.896660 0.802185 0.493522
O O10 0.750000 0.750000 0.000000
O O11 0.095996 0.964652 0.957334
O O12 0.493793 0.609739 0.926108
O O13 0.978059 0.788175 0.964791
#
# Coordination Sequence:
#
# PCOD9260954 Si02
#       7
#     8   8   8   8   4   8   4
#     4  10  22  38  54  88 121 156 203 235 309 358
#     4  12  23  40  61  92 122 155 209 252 292 360
#     4  10  18  39  62  84 123 161 199 242 297 365
#     4  10  21  34  57  84 119 163 190 246 300 362
#     4   8  18  35  50  82 121 160 194 224 294 385
#     4  10  20  36  57  90 122 160 193 240 309 364
#     4  12  22  35  64  92 121 158 194 268 294 343
#
# _framework density 18.052728999999999
#
# number of rings (size 3 to 8) (size 9 to 14) (size 15 to 20)
#    0.000    2.000    5.000    2.000    2.333    4.667 
#    0.000    0.000    0.000    1.000    0.000    0.000 
#    0.000    0.000    0.000    0.000    0.000    0.000 
#
# Total GULP energy -133661.170073 kJ/mol
# GULP energy per Si atom -5569.215420 kJ/mol
# Density = 1.801164 g / cm^3
# Si number density = 18.052729 Si / 1000 Ang^3
#
#
#
# Elastic Constant Matrix: (Units=GPa)
#
#
# Indices 1 2 3 4 5 6 
#
# 1 98.5346 32.3152 28.0573 0.0000 -20.5582 0.0000
# 2 32.3152 98.6477 20.6937 0.0000 -1.9268 0.0000
# 3 28.0573 20.6937 40.1576 0.0000 -6.4996 0.0000
# 4 0.0000 0.0000 0.0000 14.5467 0.0000 13.4182
# 5 -20.5582 -1.9268 -6.4996 0.0000 29.7025 0.0000
# 6 0.0000 0.0000 0.0000 13.4182 0.0000 22.0994
#
#
#
# Elastic Compliance Matrix: (Units=1/GPa)
#
#
# Indices 1 2 3 4 5 6 
#
# 1 0.015147 -0.003214 -0.007530 0.000000 0.008627 0.000000
# 2 -0.003214 0.012057 -0.004355 0.000000 -0.002395 0.000000
# 3 -0.007530 -0.004355 0.032676 0.000000 0.001656 0.000000
# 4 0.000000 0.000000 0.000000 0.156262 0.000000 -0.094879
# 5 0.008627 -0.002395 0.001656 0.000000 0.039846 0.000000
# 6 0.000000 0.000000 0.000000 -0.094879 0.000000 0.102858
#
#
# Mechanical properties :
#
#
# Convention : Reuss Voigt Hill
#
# Bulk Modulus (GPa) = 33.69231 44.38581 39.03906
# Shear Modulus (GPa) = 12.53328 23.68796 18.11062
#
# Velocity S-wave (km/s) = 2.63774 3.62630 3.17078
# Velocity P-wave (km/s) = 5.28968 6.49411 5.92259
#
# Compressibility (1/GPa) = 0.02968036
#
# Stress axis : x y z
#
# Youngs Moduli (GPa) = 66.01982 82.94166 30.60389
#
# Poissons Ratio (x) = 0.26655 0.23046
# Poissons Ratio (y) = 0.21217 0.13329
# Poissons Ratio (z) = 0.49716 0.36124
#
# Static dielectric constant tensor:
#      x y z
#    x 1.641450 0.000000 -0.013100 
#    y 0.000000 1.641220 0.000000 
#    z -0.013100 0.000000 1.666400 
# 
# From -- ./inp_files/70758.got.cif
#   From: 2010.05.17/outbox.cif.g08.bks.cpg/sg15_36_cif.got.tgz:70758.got - 2010.06.03 18:47:42.
