data_PCOD9260408
_publ_section_title
;
Structure prediction by ZEFSAII (Michael W. Deem and Ramdas Pophale) SiO2 
 PCOD9260408
Probable space group: C 2/C
;
_chemical_formula_sum "Si O2"
_cell_formula_units_Z 56
_cell_length_a 18.598982
_cell_length_b 8.566486
_cell_length_c 24.072340
_cell_angle_alpha 90.000000
_cell_angle_beta 38.767097
_cell_angle_gamma 90.000000
_cell_volume 2401.556732
_symmetry_space_group_name_H-M "C 2/C"
_symmetry_group_IT_number 15
_symmetry_cell_setting 'monoclinic'
loop_
_space_group_symop_operation_xyz
x,y,z
-x,y,1/2-z
-x,-y,-z
x,-y,1/2+z
1/2+x,1/2+y,z
1/2-x,1/2+y,1/2-z
1/2-x,1/2-y,-z
1/2+x,1/2-y,1/2+z
loop_
_atom_site_type_symbol
_atom_site_label
_atom_site_fract_x
_atom_site_fract_y
_atom_site_fract_z
Si Si1 0.300684 0.409544 0.490864
Si Si2 0.772425 0.973385 0.192510
Si Si3 0.089749 0.297698 0.237246
Si Si4 0.733144 0.072870 0.427511
Si Si5 0.963904 0.032338 0.149483
Si Si6 0.545955 0.722703 0.991748
Si Si7 0.706194 0.741262 0.394854
O O1 0.250000 0.250000 0.500000
O O2 0.247063 0.544249 0.484991
O O3 0.437773 0.406545 0.399500
O O4 0.273162 0.397567 0.572457
O O5 0.652942 0.894162 0.247832
O O6 0.833521 0.979547 0.215742
O O7 0.759156 0.154399 0.182368
O O8 0.867269 0.875077 0.099605
O O9 0.184138 0.210114 0.142853
O O10 0.028925 0.155691 0.305713
O O11 0.000000 0.380340 0.250000
O O12 0.610058 0.130288 0.479993
O O13 0.758985 0.904213 0.383353
O O14 0.006911 0.116599 0.067104
O O15 0.431098 0.764448 0.027553
#
# Coordination Sequence:
#
# PCOD9260408 Si02
#       7
#     8   8   8   8   8   8   8
#     4  10  19  33  58  90 116 149 193 247 302 348
#     4  10  21  38  63  82 114 156 198 242 291 360
#     4  11  24  40  59  85 121 162 199 241 301 356
#     4  10  22  35  58  88 120 150 191 244 297 355
#     4  11  20  38  62  83 120 157 197 245 302 351
#     4  10  19  35  61  89 108 148 195 247 291 346
#     4  10  18  37  61  86 113 146 196 245 298 344
#
# _framework density 23.318207000000001
#
# number of rings (size 3 to 8) (size 9 to 14) (size 15 to 20)
#    0.000    1.714    4.286    1.286    0.000    4.000 
#    0.000    0.714   12.571    0.000    0.000    0.000 
#    0.000    0.000    0.000    0.000    0.000    0.000 
#
# Total GULP energy -156253.147140 kJ/mol
# GULP energy per Si atom -5580.469541 kJ/mol
# Density = 2.326513 g / cm^3
# Si number density = 23.318207 Si / 1000 Ang^3
#
#
#
# Elastic Constant Matrix: (Units=GPa)
#
#
# Indices 1 2 3 4 5 6 
#
# 1 97.9155 30.6281 -5.8103 0.0127 -0.6126 -0.0148
# 2 30.6281 79.2459 -0.2621 0.0331 -18.9362 -0.0388
# 3 -5.8103 -0.2621 9.8348 0.0039 1.6202 -0.0045
# 4 0.0127 0.0331 0.0039 702.2698 -0.0119 -808.2246
# 5 -0.6126 -18.9362 1.6202 -0.0119 21.6275 0.0139
# 6 -0.0148 -0.0388 -0.0045 -808.2246 0.0139 980.8799
#
#
#
# Elastic Compliance Matrix: (Units=1/GPa)
#
#
# Indices 1 2 3 4 5 6 
#
# 1 0.012606 -0.006205 0.008220 0.000000 -0.005692 0.000000
# 2 -0.006205 0.019047 -0.005950 0.000000 0.016947 0.000000
# 3 0.008220 -0.005950 0.108537 -0.000001 -0.013108 0.000000
# 4 0.000000 0.000000 -0.000001 0.027541 0.000000 0.022693
# 5 -0.005692 0.016947 -0.013108 0.000000 0.061896 0.000000
# 6 0.000000 0.000000 0.000000 0.022693 0.000000 0.019718
#
#
# Mechanical properties :
#
#
# Convention : Reuss Voigt Hill
#
# Bulk Modulus (GPa) = 7.55749 26.23419 16.89584
# Shear Modulus (GPa) = 16.59353 351.78478 184.18916
#
# Velocity S-wave (km/s) = 2.67050 12.29594 8.89724
# Velocity P-wave (km/s) = 3.57167 14.58979 10.62118
#
# Compressibility (1/GPa) = 0.13231898
#
# Stress axis : x y z
#
# Youngs Moduli (GPa) = 79.32754 52.50172 9.21347
#
# Poissons Ratio (x) = 0.32577 -0.07573
# Poissons Ratio (y) = 0.49223 0.05482
# Poissons Ratio (z) = -0.65205 0.31239
#
# Static dielectric constant tensor:
#      x y z
#    x 1.965000 0.000000 0.006720 
#    y 0.000000 1.871490 0.000000 
#    z 0.006720 0.000000 1.947050 
# 
# From -- ./inp_files/247010.got.cif
#   From: 2010.05.17/outbox.cif.g08.bks.cpg/sg15_124_cif.got.tgz:247010.got - 2010.06.03 18:47:42.
