data_PCOD9260393
_publ_section_title
;
Structure prediction by ZEFSAII (Michael W. Deem and Ramdas Pophale) SiO2 
 PCOD9260393
Probable space group: C 2/C
;
_chemical_formula_sum "Si O2"
_cell_formula_units_Z 48
_cell_length_a 33.941122
_cell_length_b 8.578448
_cell_length_c 16.834581
_cell_angle_alpha 90.000000
_cell_angle_beta 22.911274
_cell_angle_gamma 90.000000
_cell_volume 1908.215579
_symmetry_space_group_name_H-M "C 2/C"
_symmetry_group_IT_number 15
_symmetry_cell_setting 'monoclinic'
loop_
_space_group_symop_operation_xyz
x,y,z
-x,y,1/2-z
-x,-y,-z
x,-y,1/2+z
1/2+x,1/2+y,z
1/2-x,1/2+y,1/2-z
1/2-x,1/2-y,-z
1/2+x,1/2-y,1/2+z
loop_
_atom_site_type_symbol
_atom_site_label
_atom_site_fract_x
_atom_site_fract_y
_atom_site_fract_z
Si Si1 0.000000 0.546817 0.250000
Si Si2 0.315712 0.605238 0.694683
Si Si3 0.619309 0.467866 0.765195
Si Si4 0.319998 0.953398 0.688207
Si Si5 0.076556 0.642825 0.881585
Si Si6 0.413372 0.705041 0.798919
Si Si7 0.500000 0.449779 0.750000
O O1 0.082500 0.648878 0.147018
O O2 0.931760 0.455780 0.439999
O O3 0.322996 0.498491 0.758984
O O4 0.282928 0.780152 0.777103
O O5 0.251200 0.526883 0.745765
O O6 0.425922 0.628889 0.450032
O O7 0.617822 0.281336 0.747112
O O8 0.650419 0.614071 0.650906
O O9 0.500000 0.500000 0.000000
O O10 0.331288 0.059748 0.744802
O O11 0.000000 0.500000 0.000000
O O12 0.013070 0.739362 0.064536
O O13 0.433530 0.561662 0.819132
#
# Coordination Sequence:
#
# PCOD9260393 Si02
#       7
#     4   8   8   8   8   8   4
#     4   9  21  42  64  93 129 164 208 273 319 378
#     4  12  24  39  68  93 127 169 210 264 315 380
#     4  10  18  37  60  93 120 169 210 253 315 380
#     4  11  24  40  63  95 127 163 217 260 320 379
#     4  10  19  35  63  90 125 164 209 258 317 373
#     4   9  19  35  66  87 123 163 208 255 319 372
#     4  11  21  38  66  91 127 166 210 253 317 370
#
# _framework density 25.154392000000001
#
# number of rings (size 3 to 8) (size 9 to 14) (size 15 to 20)
#    0.000    1.667    3.333    3.500    4.667    0.000 
#    0.000    0.833    7.333    2.000    0.000    0.000 
#    0.000    0.000    0.000    0.000    0.000    0.000 
#
# Total GULP energy -133682.032714 kJ/mol
# GULP energy per Si atom -5570.084696 kJ/mol
# Density = 2.509714 g / cm^3
# Si number density = 25.154392 Si / 1000 Ang^3
#
#
#
# Elastic Constant Matrix: (Units=GPa)
#
#
# Indices 1 2 3 4 5 6 
#
# 1 104.8452 41.0686 2.5457 0.0000 -32.4268 0.0000
# 2 41.0686 167.2516 14.3922 0.0000 -16.8706 0.0000
# 3 2.5457 14.3922 57.7738 0.0000 4.7183 0.0000
# 4 0.0000 0.0000 0.0000 46.9047 0.0000 -0.7859
# 5 -32.4268 -16.8706 4.7183 0.0000 39.1107 0.0000
# 6 0.0000 0.0000 0.0000 -0.7859 0.0000 23.3972
#
#
#
# Elastic Compliance Matrix: (Units=1/GPa)
#
#
# Indices 1 2 3 4 5 6 
#
# 1 0.013674 -0.002222 -0.000906 0.000000 0.010488 0.000000
# 2 -0.002222 0.006802 -0.001703 0.000000 0.001297 0.000000
# 3 -0.000906 -0.001703 0.018072 0.000000 -0.003665 0.000000
# 4 0.000000 0.000000 0.000000 0.021332 0.000000 0.000717
# 5 0.010488 0.001297 -0.003665 0.000000 0.035266 0.000000
# 6 0.000000 0.000000 0.000000 0.000717 0.000000 0.042764
#
#
# Mechanical properties :
#
#
# Convention : Reuss Voigt Hill
#
# Bulk Modulus (GPa) = 34.61600 49.54262 42.07931
# Shear Modulus (GPa) = 31.80677 40.00679 35.90678
#
# Velocity S-wave (km/s) = 3.55978 3.99237 3.78227
# Velocity P-wave (km/s) = 5.53962 6.40236 5.98655
#
# Compressibility (1/GPa) = 0.02888837
#
# Stress axis : x y z
#
# Youngs Moduli (GPa) = 73.13204 147.01684 55.33342
#
# Poissons Ratio (x) = 0.32664 0.05011
# Poissons Ratio (y) = 0.16248 0.09421
# Poissons Ratio (z) = 0.06623 0.25030
#
# Static dielectric constant tensor:
#      x y z
#    x 1.885420 0.000000 -0.161570 
#    y 0.000000 2.007090 0.000000 
#    z -0.161570 0.000000 1.927370 
# 
# From -- ./inp_files/209330.got.cif
#   From: 2010.05.17/outbox.cif.g08.bks.cpg/sg15_105_cif.got.tgz:209330.got - 2010.06.03 18:47:42.
