data_PCOD9260059
_publ_section_title
;
Structure prediction by ZEFSAII (Michael W. Deem and Ramdas Pophale) SiO2 
 PCOD9260059
Probable space group: C 2/C
;
_chemical_formula_sum "Si O2"
_cell_formula_units_Z 40
_cell_length_a 7.995015
_cell_length_b 12.175884
_cell_length_c 25.670645
_cell_angle_alpha 90.000000
_cell_angle_beta 41.664195
_cell_angle_gamma 90.000000
_cell_volume 1661.207268
_symmetry_space_group_name_H-M "C 2/C"
_symmetry_group_IT_number 15
_symmetry_cell_setting 'monoclinic'
loop_
_space_group_symop_operation_xyz
x,y,z
-x,y,1/2-z
-x,-y,-z
x,-y,1/2+z
1/2+x,1/2+y,z
1/2-x,1/2+y,1/2-z
1/2-x,1/2-y,-z
1/2+x,1/2-y,1/2+z
loop_
_atom_site_type_symbol
_atom_site_label
_atom_site_fract_x
_atom_site_fract_y
_atom_site_fract_z
Si Si1 0.500000 0.458134 0.250000
Si Si2 0.611807 0.222804 0.875543
Si Si3 0.833598 0.331540 0.920375
Si Si4 0.746692 0.363935 0.753787
Si Si5 0.138428 0.837908 0.419262
Si Si6 0.000000 0.664350 0.750000
O O1 0.724977 0.380153 0.180952
O O2 0.439928 0.537973 0.215996
O O3 0.679378 0.245272 0.919815
O O4 0.725375 0.329130 0.818385
O O5 0.331386 0.198912 0.919888
O O6 0.015246 0.392734 0.837873
O O7 0.014009 0.268900 0.919414
O O8 0.612000 0.396652 0.001153
O O9 0.657492 0.247827 0.749310
O O10 0.306488 0.893220 0.334249
#
# Coordination Sequence:
#
# PCOD9260059 Si02
#       6
#     4   8   8   8   8   4
#     4  11  22  38  68  97 128 175 220 270 310 391
#     4  11  20  39  64  93 125 174 218 258 324 389
#     4  10  18  36  61  91 129 168 209 269 324 375
#     4   9  18  35  59  88 126 161 207 266 313 367
#     4   9  19  32  61  94 123 169 212 262 328 378
#     4   7  14  30  54  81 112 159 202 242 312 373
#
# _framework density 24.078873999999999
#
# number of rings (size 3 to 8) (size 9 to 14) (size 15 to 20)
#    0.000    2.400    2.000    1.800    0.000    0.000 
#    0.000    5.000    0.000   40.800    0.000    0.000 
#    0.000    0.000    0.000    0.000    0.000    0.000 
#
# Total GULP energy -111481.289363 kJ/mol
# GULP energy per Si atom -5574.064468 kJ/mol
# Density = 2.402407 g / cm^3
# Si number density = 24.078874 Si / 1000 Ang^3
#
#
#
# Elastic Constant Matrix: (Units=GPa)
#
#
# Indices 1 2 3 4 5 6 
#
# 1 137.6184 26.6046 11.5030 0.0002 -4.0597 -0.0008
# 2 26.6046 80.4742 10.1208 -0.0003 -2.7612 0.0001
# 3 11.5030 10.1208 109.3070 -0.0008 -31.7153 -0.0054
# 4 0.0002 -0.0003 -0.0008 -7.8273 -0.0002 -20.6878
# 5 -4.0597 -2.7612 -31.7153 -0.0002 39.3871 0.0028
# 6 -0.0008 0.0001 -0.0054 -20.6878 0.0028 51.3045
#
#
#
# Elastic Compliance Matrix: (Units=1/GPa)
#
#
# Indices 1 2 3 4 5 6 
#
# 1 0.007801 -0.002505 -0.000531 0.000000 0.000201 0.000000
# 2 -0.002505 0.013378 -0.001015 0.000000 -0.000138 0.000000
# 3 -0.000531 -0.001015 0.012085 -0.000002 0.009606 0.000000
# 4 0.000000 0.000000 -0.000002 -0.061845 0.000000 -0.024938
# 5 0.000201 -0.000138 0.009606 0.000000 0.033135 -0.000001
# 6 0.000000 0.000000 0.000000 -0.024938 -0.000001 0.009435
#
#
# Mechanical properties :
#
#
# Convention : Reuss Voigt Hill
#
# Bulk Modulus (GPa) = 39.74213 47.09515 43.41864
# Shear Modulus (GPa) = 164.05170 35.18427 99.61799
#
# Velocity S-wave (km/s) = 8.26310 3.82672 6.43905
# Velocity P-wave (km/s) = 10.37204 6.25510 8.56462
#
# Compressibility (1/GPa) = 0.02516221
#
# Stress axis : x y z
#
# Youngs Moduli (GPa) = 128.18700 74.75214 82.74445
#
# Poissons Ratio (x) = 0.18728 0.04390
# Poissons Ratio (y) = 0.32116 0.08398
# Poissons Ratio (z) = 0.06802 0.07587
#
# Static dielectric constant tensor:
#      x y z
#    x 2.190060 0.000000 0.063850 
#    y 0.000000 1.835310 0.000000 
#    z 0.063850 0.000000 2.078150 
# 
# From -- ./inp_files/307016.got.cif
#   From: 2010.05.17/outbox.cif.g08.bks.cpg/sg15_154_cif.got.tgz:307016.got - 2010.06.03 18:47:42.
