data_PCOD9260779
_publ_section_title
;
Structure prediction by ZEFSAII (Michael W. Deem and Ramdas Pophale) SiO2 
 PCOD9260779
Probable space group: C 2/C
;
_chemical_formula_sum "Si O2"
_cell_formula_units_Z 56
_cell_length_a 11.002769
_cell_length_b 18.543414
_cell_length_c 14.311191
_cell_angle_alpha 90.000000
_cell_angle_beta 120.956468
_cell_angle_gamma 90.000000
_cell_volume 2503.981733
_symmetry_space_group_name_H-M "C 2/C"
_symmetry_group_IT_number 15
_symmetry_cell_setting 'monoclinic'
loop_
_space_group_symop_operation_xyz
x,y,z
-x,y,1/2-z
-x,-y,-z
x,-y,1/2+z
1/2+x,1/2+y,z
1/2-x,1/2+y,1/2-z
1/2-x,1/2-y,-z
1/2+x,1/2-y,1/2+z
loop_
_atom_site_type_symbol
_atom_site_label
_atom_site_fract_x
_atom_site_fract_y
_atom_site_fract_z
Si Si1 0.448573 0.078202 0.822211
Si Si2 0.255072 0.032969 0.482183
Si Si3 0.460994 0.580004 0.612250
Si Si4 0.213622 0.971135 0.742142
Si Si5 0.356927 0.690093 0.076446
Si Si6 0.175850 0.808315 0.711526
Si Si7 0.308848 0.334947 0.221347
O O1 0.500000 0.118616 0.750000
O O2 0.348730 0.132411 0.837670
O O3 0.338807 0.016821 0.745764
O O4 0.581290 0.043200 0.926142
O O5 0.246482 0.026136 0.366164
O O6 0.181700 0.109837 0.473848
O O7 0.166713 0.964584 0.488395
O O8 0.562182 0.510696 0.674227
O O9 0.592483 0.637215 0.652634
O O10 0.376389 0.627007 0.657033
O O11 0.211380 0.890726 0.704234
O O12 0.339302 0.692037 0.181987
O O13 0.517901 0.706770 0.112467
O O14 0.250000 0.750000 0.000000
O O15 0.287772 0.750244 0.718668
#
# Coordination Sequence:
#
# PCOD9260779 Si02
#       7
#     8   8   8   8   8   8   8
#     4  11  24  35  55  88 123 145 191 256 307 335
#     4  11  18  36  64  83 107 156 210 245 268 359
#     4  10  18  38  64  83 106 160 213 225 272 369
#     4  10  19  40  62  85 108 157 207 233 287 361
#     4  10  21  34  56  87 117 149 191 241 309 345
#     4  10  21  35  59  83 121 148 189 250 291 347
#     4  10  20  35  59  86 120 147 194 244 291 345
#
# _framework density 22.364380000000001
#
# number of rings (size 3 to 8) (size 9 to 14) (size 15 to 20)
#    0.000    1.714    5.714    1.286    4.000    0.000 
#    2.571    4.286    0.000    0.857    0.000    0.000 
#    0.000    0.000    0.000    0.000    0.000    0.000 
#
# Total GULP energy -155995.486078 kJ/mol
# GULP energy per Si atom -5571.267360 kJ/mol
# Density = 2.231348 g / cm^3
# Si number density = 22.364380 Si / 1000 Ang^3
#
#
#
# Elastic Constant Matrix: (Units=GPa)
#
#
# Indices 1 2 3 4 5 6 
#
# 1 71.5360 40.1749 40.7959 0.0000 24.3108 0.0000
# 2 40.1749 163.8826 11.2513 0.0000 13.3175 0.0000
# 3 40.7959 11.2513 56.2245 0.0000 21.9324 0.0000
# 4 0.0000 0.0000 0.0000 20.0793 0.0000 5.8885
# 5 24.3108 13.3175 21.9324 0.0000 32.3971 0.0000
# 6 0.0000 0.0000 0.0000 5.8885 0.0000 34.1729
#
#
#
# Elastic Compliance Matrix: (Units=1/GPa)
#
#
# Indices 1 2 3 4 5 6 
#
# 1 0.029662 -0.005409 -0.017155 0.000000 -0.008421 0.000000
# 2 -0.005409 0.007304 0.002787 0.000000 -0.000830 0.000000
# 3 -0.017155 0.002787 0.034108 0.000000 -0.011363 0.000000
# 4 0.000000 0.000000 0.000000 0.052453 0.000000 -0.009038
# 5 -0.008421 -0.000830 -0.011363 0.000000 0.045220 0.000000
# 6 0.000000 0.000000 0.000000 -0.009038 0.000000 0.030820
#
#
# Mechanical properties :
#
#
# Convention : Reuss Voigt Hill
#
# Bulk Modulus (GPa) = 31.72596 52.89860 42.31228
# Shear Modulus (GPa) = 20.02972 30.62461 25.32717
#
# Velocity S-wave (km/s) = 2.99592 3.70448 3.36888
# Velocity P-wave (km/s) = 5.11704 6.48090 5.83893
#
# Compressibility (1/GPa) = 0.03151992
#
# Stress axis : x y z
#
# Youngs Moduli (GPa) = 33.71320 136.90908 29.31844
#
# Poissons Ratio (x) = 0.74059 0.50296
# Poissons Ratio (y) = 0.18237 -0.08172
# Poissons Ratio (z) = 0.57835 -0.38159
#
# Static dielectric constant tensor:
#      x y z
#    x 1.881830 0.000000 -0.053660 
#    y 0.000000 1.831540 0.000000 
#    z -0.053660 0.000000 1.917830 
# 
# From -- ./inp_files/199578.got.cif
#   From: 2010.05.17/outbox.cif.g08.bks.cpg/sg15_100_cif.got.tgz:199578.got - 2010.06.03 18:47:42.
