data_PCOD9260131
_publ_section_title
;
Structure prediction by ZEFSAII (Michael W. Deem and Ramdas Pophale) SiO2 
 PCOD9260131
Probable space group: C 2/C
;
_chemical_formula_sum "Si O2"
_cell_formula_units_Z 44
_cell_length_a 8.855576
_cell_length_b 29.558674
_cell_length_c 9.424765
_cell_angle_alpha 90.000000
_cell_angle_beta 117.395595
_cell_angle_gamma 90.000000
_cell_volume 2190.343685
_symmetry_space_group_name_H-M "C 2/C"
_symmetry_group_IT_number 15
_symmetry_cell_setting 'monoclinic'
loop_
_space_group_symop_operation_xyz
x,y,z
-x,y,1/2-z
-x,-y,-z
x,-y,1/2+z
1/2+x,1/2+y,z
1/2-x,1/2+y,1/2-z
1/2-x,1/2-y,-z
1/2+x,1/2-y,1/2+z
loop_
_atom_site_type_symbol
_atom_site_label
_atom_site_fract_x
_atom_site_fract_y
_atom_site_fract_z
Si Si1 0.841875 0.100640 0.970238
Si Si2 0.281834 0.699859 0.860097
Si Si3 0.505334 0.217020 0.987047
Si Si4 0.500000 0.149309 0.250000
Si Si5 0.273153 0.415907 0.754134
Si Si6 0.370557 0.485337 0.322201
O O1 0.829354 0.147462 0.882242
O O2 0.784183 0.059766 0.843757
O O3 0.745931 0.099951 0.079835
O O4 0.035311 0.092741 0.107565
O O5 0.443960 0.732576 0.941765
O O6 0.166905 0.714778 0.677926
O O7 0.159633 0.705053 0.945592
O O8 0.496103 0.182077 0.112131
O O9 0.343448 0.114753 0.197750
O O10 0.254609 0.470590 0.744989
O O11 0.500000 0.475603 0.250000
O O12 0.500000 0.500000 0.500000
#
# Coordination Sequence:
#
# PCOD9260131 Si02
#       6
#     8   8   8   4   8   8
#     4  10  20  39  70  90 127 173 226 261 328 391
#     4  10  22  43  66  94 123 180 214 267 329 390
#     4  10  24  41  65  92 135 164 221 271 323 387
#     4  12  24  42  62  96 138 166 214 280 324 392
#     4  10  21  38  64  95 127 174 212 270 334 383
#     4  10  18  36  62  94 124 161 224 273 308 387
#
# _framework density 20.088170999999999
#
# number of rings (size 3 to 8) (size 9 to 14) (size 15 to 20)
#    0.000    1.818    5.455    0.000    2.545    5.091 
#    1.636    2.727    0.000    0.000    0.000    0.000 
#    0.000    0.000    0.000    0.000    0.000    0.000 
#
# Total GULP energy -122689.933560 kJ/mol
# GULP energy per Si atom -5576.815162 kJ/mol
# Density = 2.004245 g / cm^3
# Si number density = 20.088171 Si / 1000 Ang^3
#
#
#
# Elastic Constant Matrix: (Units=GPa)
#
#
# Indices 1 2 3 4 5 6 
#
# 1 34.5902 31.8426 27.8259 0.0000 -8.5917 0.0000
# 2 31.8426 191.7350 52.3657 0.0000 14.1505 0.0000
# 3 27.8259 52.3657 90.5990 0.0000 -5.3091 0.0000
# 4 0.0000 0.0000 0.0000 22.5446 0.0000 -12.2627
# 5 -8.5917 14.1505 -5.3091 0.0000 12.5124 0.0000
# 6 0.0000 0.0000 0.0000 -12.2627 0.0000 24.9623
#
#
#
# Elastic Compliance Matrix: (Units=1/GPa)
#
#
# Indices 1 2 3 4 5 6 
#
# 1 0.057800 -0.010780 -0.008697 0.000000 0.048190 0.000000
# 2 -0.010780 0.009301 -0.003195 0.000000 -0.019277 0.000000
# 3 -0.008697 -0.003195 0.015810 0.000000 0.004349 0.000000
# 4 0.000000 0.000000 0.000000 0.060531 0.000000 0.029735
# 5 0.048190 -0.019277 0.004349 0.000000 0.136656 0.000000
# 6 0.000000 0.000000 0.000000 0.029735 0.000000 0.054668
#
#
# Mechanical properties :
#
#
# Convention : Reuss Voigt Hill
#
# Bulk Modulus (GPa) = 26.61921 60.11028 43.36475
# Shear Modulus (GPa) = 12.73454 25.66318 19.19886
#
# Velocity S-wave (km/s) = 2.52053 3.57813 3.09484
# Velocity P-wave (km/s) = 4.66377 6.85995 5.86556
#
# Compressibility (1/GPa) = 0.03756685
#
# Stress axis : x y z
#
# Youngs Moduli (GPa) = 17.30096 107.51490 63.25038
#
# Poissons Ratio (x) = 1.15905 0.55011
# Poissons Ratio (y) = 0.18651 0.20206
# Poissons Ratio (z) = 0.15047 0.34346
#
# Static dielectric constant tensor:
#      x y z
#    x 1.721510 0.000000 -0.027530 
#    y 0.000000 1.750350 0.000000 
#    z -0.027530 0.000000 1.688580 
# 
# From -- ./inp_files/25707.got.cif
#   From: 2010.05.17/outbox.cif.g08.bks.cpg/sg15_13_cif.got.tgz:25707.got - 2010.06.03 18:47:42.
