data_PCOD9260371
_publ_section_title
;
Structure prediction by ZEFSAII (Michael W. Deem and Ramdas Pophale) SiO2 
 PCOD9260371
Probable space group: C 2/C
;
_chemical_formula_sum "Si O2"
_cell_formula_units_Z 44
_cell_length_a 25.878336
_cell_length_b 6.824707
_cell_length_c 17.177518
_cell_angle_alpha 90.000000
_cell_angle_beta 31.460647
_cell_angle_gamma 90.000000
_cell_volume 1583.356579
_symmetry_space_group_name_H-M "C 2/C"
_symmetry_group_IT_number 15
_symmetry_cell_setting 'monoclinic'
loop_
_space_group_symop_operation_xyz
x,y,z
-x,y,1/2-z
-x,-y,-z
x,-y,1/2+z
1/2+x,1/2+y,z
1/2-x,1/2+y,1/2-z
1/2-x,1/2-y,-z
1/2+x,1/2-y,1/2+z
loop_
_atom_site_type_symbol
_atom_site_label
_atom_site_fract_x
_atom_site_fract_y
_atom_site_fract_z
Si Si1 0.917553 0.429990 0.004465
Si Si2 0.884074 0.012069 0.555308
Si Si3 0.000000 0.631688 0.250000
Si Si4 0.365535 0.932009 0.717288
Si Si5 0.172565 0.946285 0.039036
Si Si6 0.117886 0.896242 0.771973
O O1 0.952905 0.501774 0.876263
O O2 0.023403 0.370343 0.906256
O O3 0.866216 0.222151 0.063657
O O4 0.857770 0.580761 0.133548
O O5 0.851434 0.019988 0.689456
O O6 0.847138 0.074475 0.515658
O O7 0.000491 0.065694 0.409537
O O8 0.912606 0.782591 0.340811
O O9 0.368077 0.167390 0.727711
O O10 0.279509 0.855665 0.881811
O O11 0.171659 0.060195 0.121617
#
# Coordination Sequence:
#
# PCOD9260371 Si02
#       6
#     8   8   4   8   8   8
#     4   9  19  42  55  83 116 157 185 251 287 357
#     4   9  19  37  64  79 115 162 200 224 299 362
#     4  10  20  40  66  80 120 164 210 220 296 376
#     4  10  22  35  61  87 123 141 195 254 309 321
#     4  11  19  38  62  86 115 159 198 243 282 367
#     4  10  18  37  59  87 113 153 192 244 292 350
#
# _framework density 27.789066999999999
#
# number of rings (size 3 to 8) (size 9 to 14) (size 15 to 20)
#    0.000    2.182    3.636    0.545    0.000    0.727 
#    6.545   20.000    0.000    0.000    0.000    0.000 
#    0.000    0.000    0.000    0.000    0.000    0.000 
#
# Total GULP energy -122919.324686 kJ/mol
# GULP energy per Si atom -5587.242031 kJ/mol
# Density = 2.772582 g / cm^3
# Si number density = 27.789067 Si / 1000 Ang^3
#
#
#
# Elastic Constant Matrix: (Units=GPa)
#
#
# Indices 1 2 3 4 5 6 
#
# 1 136.1986 14.9330 69.1587 0.0021 36.4946 -0.0023
# 2 14.9330 55.3297 28.8735 0.0048 -2.0195 -0.0061
# 3 69.1587 28.8735 222.6593 0.0022 44.1995 -0.0016
# 4 0.0021 0.0048 0.0022 32.3461 -0.0001 4.5460
# 5 36.4946 -2.0195 44.1995 -0.0001 77.3473 0.0010
# 6 -0.0023 -0.0061 -0.0016 4.5460 0.0010 20.8163
#
#
#
# Elastic Compliance Matrix: (Units=1/GPa)
#
#
# Indices 1 2 3 4 5 6 
#
# 1 0.009459 -0.001593 -0.002072 0.000000 -0.003320 0.000001
# 2 -0.001593 0.019988 -0.002651 -0.000004 0.002788 0.000006
# 3 -0.002072 -0.002651 0.005976 0.000000 -0.002506 0.000000
# 4 0.000000 -0.000004 0.000000 0.031895 0.000000 -0.006965
# 5 -0.003320 0.002788 -0.002506 0.000000 0.016000 0.000000
# 6 0.000001 0.000006 0.000000 -0.006965 0.000000 0.049560
#
#
# Mechanical properties :
#
#
# Convention : Reuss Voigt Hill
#
# Bulk Modulus (GPa) = 43.87532 71.12422 57.49977
# Shear Modulus (GPa) = 32.65684 46.18345 39.42014
#
# Velocity S-wave (km/s) = 3.43179 4.08110 3.77045
# Velocity P-wave (km/s) = 5.61479 6.91788 6.30012
#
# Compressibility (1/GPa) = 0.02279186
#
# Stress axis : x y z
#
# Youngs Moduli (GPa) = 105.72189 50.02914 167.33265
#
# Poissons Ratio (x) = 0.07968 0.34676
# Poissons Ratio (y) = 0.16837 0.44356
# Poissons Ratio (z) = 0.21909 0.13262
#
# Static dielectric constant tensor:
#      x y z
#    x 2.334670 0.000000 0.094480 
#    y 0.000000 2.167080 0.000000 
#    z 0.094480 0.000000 2.155700 
# 
# From -- ./inp_files/224360.got.cif
#   From: 2010.05.17/outbox.cif.g08.bks.cpg/sg15_113_cif.got.tgz:224360.got - 2010.06.03 18:47:42.
