data_PCOD9260318
_publ_section_title
;
Structure prediction by ZEFSAII (Michael W. Deem and Ramdas Pophale) SiO2 
 PCOD9260318
Probable space group: C 2/C
;
_chemical_formula_sum "Si O2"
_cell_formula_units_Z 52
_cell_length_a 5.292689
_cell_length_b 29.135245
_cell_length_c 17.352381
_cell_angle_alpha 90.000000
_cell_angle_beta 68.528129
_cell_angle_gamma 90.000000
_cell_volume 2490.095214
_symmetry_space_group_name_H-M "C 2/C"
_symmetry_group_IT_number 15
_symmetry_cell_setting 'monoclinic'
loop_
_space_group_symop_operation_xyz
x,y,z
-x,y,1/2-z
-x,-y,-z
x,-y,1/2+z
1/2+x,1/2+y,z
1/2-x,1/2+y,1/2-z
1/2-x,1/2-y,-z
1/2+x,1/2-y,1/2+z
loop_
_atom_site_type_symbol
_atom_site_label
_atom_site_fract_x
_atom_site_fract_y
_atom_site_fract_z
Si Si1 0.301928 0.816309 0.063366
Si Si2 0.500000 0.070233 0.750000
Si Si3 0.507098 0.517899 0.877748
Si Si4 0.936184 0.072348 0.467406
Si Si5 0.450063 0.677605 0.457991
Si Si6 0.810859 0.757561 0.696257
Si Si7 0.383167 0.911742 0.101765
O O1 0.282437 0.785360 0.141096
O O2 0.210505 0.868557 0.093483
O O3 0.623927 0.818132 0.005733
O O4 0.111035 0.801472 0.013633
O O5 0.523867 0.101741 0.823010
O O6 0.749047 0.037797 0.698543
O O7 0.509367 0.464356 0.894120
O O8 0.239231 0.538098 0.869179
O O9 0.492544 0.546183 0.960643
O O10 0.038118 0.123910 0.444942
O O11 0.614561 0.079588 0.513454
O O12 0.541839 0.703533 0.371259
O O13 0.500000 0.771168 0.750000
O O14 0.000000 0.748396 0.750000
#
# Coordination Sequence:
#
# PCOD9260318 Si02
#       7
#     8   4   8   8   8   8   8
#     4  11  23  41  70  93 124 167 221 261 325 380
#     4  10  22  32  50  84 124 158 190 256 326 378
#     4  10  18  37  54  86 118 158 202 259 308 375
#     4   9  20  35  61  84 113 157 218 250 305 360
#     4  11  22  45  66  97 121 175 216 266 305 394
#     4  12  26  43  65  98 135 168 207 270 329 383
#     4  10  20  35  59  85 120 155 208 265 314 369
#
# _framework density 20.882738
#
# number of rings (size 3 to 8) (size 9 to 14) (size 15 to 20)
#    0.000    1.538    1.538    3.692    1.077    1.231 
#    1.385    1.538    0.000    0.000    0.000    0.000 
#    0.000    0.000    0.000    0.000    0.000    0.000 
#
# Total GULP energy -144938.472461 kJ/mol
# GULP energy per Si atom -5574.556633 kJ/mol
# Density = 2.083521 g / cm^3
# Si number density = 20.882738 Si / 1000 Ang^3
#
#
#
# Elastic Constant Matrix: (Units=GPa)
#
#
# Indices 1 2 3 4 5 6 
#
# 1 74.7832 -0.3314 20.0325 0.0000 9.4523 0.0000
# 2 -0.3314 84.0503 23.1008 0.0000 14.2722 0.0000
# 3 20.0325 23.1008 79.4668 0.0000 5.3959 0.0000
# 4 0.0000 0.0000 0.0000 -6.2111 0.0000 14.9000
# 5 9.4523 14.2722 5.3959 0.0000 22.6759 0.0000
# 6 0.0000 0.0000 0.0000 14.9000 0.0000 8.6636
#
#
#
# Elastic Compliance Matrix: (Units=1/GPa)
#
#
# Indices 1 2 3 4 5 6 
#
# 1 0.015350 0.002357 -0.004085 0.000000 -0.006910 0.000000
# 2 0.002357 0.014627 -0.004223 0.000000 -0.009184 0.000000
# 3 -0.004085 -0.004223 0.014784 0.000000 0.000843 0.000000
# 4 0.000000 0.000000 0.000000 -0.031410 0.000000 0.054021
# 5 -0.006910 -0.009184 0.000843 0.000000 0.052560 0.000000
# 6 0.000000 0.000000 0.000000 0.054021 0.000000 0.022518
#
#
# Mechanical properties :
#
#
# Convention : Reuss Voigt Hill
#
# Bulk Modulus (GPa) = 30.43344 35.98933 33.21139
# Shear Modulus (GPa) = 44.92989 18.05893 31.49441
#
# Velocity S-wave (km/s) = 4.64349 2.94390 3.88771
# Velocity P-wave (km/s) = 6.58441 5.36906 6.00755
#
# Compressibility (1/GPa) = 0.03285859
#
# Stress axis : x y z
#
# Youngs Moduli (GPa) = 65.14577 68.36708 67.64067
#
# Poissons Ratio (x) = -0.16112 0.27634
# Poissons Ratio (y) = -0.15353 0.28561
# Poissons Ratio (z) = 0.26615 0.28868
#
# Static dielectric constant tensor:
#      x y z
#    x 1.939110 0.000000 0.041470 
#    y 0.000000 1.772280 0.000000 
#    z 0.041470 0.000000 1.751450 
# 
# From -- ./inp_files/130852.got.cif
#   From: 2010.05.17/outbox.cif.g08.bks.cpg/sg15_66_cif.got.tgz:130852.got - 2010.06.03 18:47:42.
