data_PCOD9260019
_publ_section_title
;
Structure prediction by ZEFSAII (Michael W. Deem and Ramdas Pophale) SiO2 
 PCOD9260019
Probable space group: C 2/C
;
_chemical_formula_sum "Si O2"
_cell_formula_units_Z 56
_cell_length_a 9.954377
_cell_length_b 20.150041
_cell_length_c 14.354517
_cell_angle_alpha 90.000000
_cell_angle_beta 113.834055
_cell_angle_gamma 90.000000
_cell_volume 2633.701867
_symmetry_space_group_name_H-M "C 2/C"
_symmetry_group_IT_number 15
_symmetry_cell_setting 'monoclinic'
loop_
_space_group_symop_operation_xyz
x,y,z
-x,y,1/2-z
-x,-y,-z
x,-y,1/2+z
1/2+x,1/2+y,z
1/2-x,1/2+y,1/2-z
1/2-x,1/2-y,-z
1/2+x,1/2-y,1/2+z
loop_
_atom_site_type_symbol
_atom_site_label
_atom_site_fract_x
_atom_site_fract_y
_atom_site_fract_z
Si Si1 0.615976 0.946879 0.489608
Si Si2 0.344115 0.967675 0.664250
Si Si3 0.202028 0.255319 0.735190
Si Si4 0.515197 0.267711 0.490842
Si Si5 0.689627 0.171445 0.417605
Si Si6 0.325885 0.398873 0.714747
Si Si7 0.470612 0.821722 0.351066
O O1 0.729313 0.922035 0.599390
O O2 0.526521 0.885672 0.420623
O O3 0.500000 0.000000 0.500000
O O4 0.702079 0.979518 0.426055
O O5 0.500000 0.990322 0.750000
O O6 0.374742 0.900530 0.614924
O O7 0.235206 0.942937 0.715108
O O8 0.142849 0.285336 0.815372
O O9 0.289087 0.320881 0.722525
O O10 0.298920 0.194705 0.799018
O O11 0.104010 0.229012 0.623053
O O12 0.619587 0.207021 0.485810
O O13 0.632613 0.327171 0.529936
O O14 0.460441 0.242685 0.575842
O O15 0.500000 0.407105 0.750000
O O16 0.500000 0.825528 0.250000
#
# Coordination Sequence:
#
# PCOD9260019 Si02
#       7
#     8   8   8   8   8   8   8
#     4  12  24  44  70  97 133 186 232 273 334 411
#     4  11  21  40  69  94 126 178 231 271 322 411
#     4  10  20  40  64  94 134 171 216 276 346 405
#     4  10  18  36  60  92 129 169 211 281 338 393
#     4   9  19  33  61  95 124 165 224 269 332 396
#     4  11  24  44  69 100 137 174 225 285 344 397
#     4  11  24  39  59  96 127 168 225 273 327 401
#
# _framework density 21.262848000000002
#
# number of rings (size 3 to 8) (size 9 to 14) (size 15 to 20)
#    0.000    1.429    2.857    3.857    0.000    1.143 
#    7.714    1.429    0.000    0.000    0.000    0.000 
#    0.000    0.000    0.000    0.000    0.000    0.000 
#
# Total GULP energy -156190.800905 kJ/mol
# GULP energy per Si atom -5578.242889 kJ/mol
# Density = 2.121445 g / cm^3
# Si number density = 21.262848 Si / 1000 Ang^3
#
#
#
# Elastic Constant Matrix: (Units=GPa)
#
#
# Indices 1 2 3 4 5 6 
#
# 1 78.8725 12.3131 51.0614 0.0000 1.8729 0.0000
# 2 12.3131 23.8647 35.0822 0.0000 -3.8337 0.0000
# 3 51.0614 35.0822 190.0368 0.0000 13.1818 0.0000
# 4 0.0000 0.0000 0.0000 41.0191 0.0000 -4.6087
# 5 1.8729 -3.8337 13.1818 0.0000 34.0816 0.0000
# 6 0.0000 0.0000 0.0000 -4.6087 0.0000 19.9191
#
#
#
# Elastic Compliance Matrix: (Units=1/GPa)
#
#
# Indices 1 2 3 4 5 6 
#
# 1 0.015465 -0.002454 -0.003724 0.000000 0.000314 0.000000
# 2 -0.002454 0.062103 -0.011611 0.000000 0.011611 0.000000
# 3 -0.003724 -0.011611 0.008716 0.000000 -0.004473 0.000000
# 4 0.000000 0.000000 0.000000 0.025030 0.000000 0.005791
# 5 0.000314 0.011611 -0.004473 0.000000 0.032360 0.000000
# 6 0.000000 0.000000 0.000000 0.005791 0.000000 0.051543
#
#
# Mechanical properties :
#
#
# Convention : Reuss Voigt Hill
#
# Bulk Modulus (GPa) = 19.72136 54.40973 37.06555
# Shear Modulus (GPa) = 20.18596 31.95845 26.07220
#
# Velocity S-wave (km/s) = 3.08450 3.88108 3.50549
# Velocity P-wave (km/s) = 4.68836 6.76228 5.81847
#
# Compressibility (1/GPa) = 0.05070643
#
# Stress axis : x y z
#
# Youngs Moduli (GPa) = 64.66069 16.10240 114.72569
#
# Poissons Ratio (x) = 0.03952 0.42726
# Poissons Ratio (y) = 0.15869 1.33203
# Poissons Ratio (z) = 0.24081 0.18696
#
# Static dielectric constant tensor:
#      x y z
#    x 1.849570 0.000000 -0.026790 
#    y 0.000000 1.759350 0.000000 
#    z -0.026790 0.000000 1.813910 
# 
# From -- ./inp_files/146149.got.cif
#   From: 2010.05.17/outbox.cif.g08.bks.cpg/sg15_74_cif.got.tgz:146149.got - 2010.06.03 18:47:42.
