data_PCOD9260339
_publ_section_title
;
Structure prediction by ZEFSAII (Michael W. Deem and Ramdas Pophale) SiO2 
 PCOD9260339
Probable space group: C 2/C
;
_chemical_formula_sum "Si O2"
_cell_formula_units_Z 56
_cell_length_a 9.419991
_cell_length_b 18.804258
_cell_length_c 17.543605
_cell_angle_alpha 90.000000
_cell_angle_beta 63.947676
_cell_angle_gamma 90.000000
_cell_volume 2791.849821
_symmetry_space_group_name_H-M "C 2/C"
_symmetry_group_IT_number 15
_symmetry_cell_setting 'monoclinic'
loop_
_space_group_symop_operation_xyz
x,y,z
-x,y,1/2-z
-x,-y,-z
x,-y,1/2+z
1/2+x,1/2+y,z
1/2-x,1/2+y,1/2-z
1/2-x,1/2-y,-z
1/2+x,1/2-y,1/2+z
loop_
_atom_site_type_symbol
_atom_site_label
_atom_site_fract_x
_atom_site_fract_y
_atom_site_fract_z
Si Si1 0.907203 0.848915 0.070494
Si Si2 0.790011 0.085342 0.459134
Si Si3 0.620856 0.492222 0.869366
Si Si4 0.442517 0.770901 0.687626
Si Si5 0.737426 0.827897 0.537360
Si Si6 0.107896 0.535154 0.068680
Si Si7 0.273394 0.909603 0.698208
O O1 0.896628 0.782667 0.130635
O O2 0.887436 0.922188 0.122580
O O3 0.793475 0.854916 0.023960
O O4 0.081479 0.846393 0.991926
O O5 0.789413 0.107468 0.371723
O O6 0.948628 0.037777 0.432922
O O7 0.641180 0.034593 0.511710
O O8 0.763444 0.469832 0.892598
O O9 0.664866 0.457623 0.777727
O O10 0.500000 0.730671 0.750000
O O11 0.601635 0.815462 0.631069
O O12 0.312951 0.832984 0.725878
O O13 0.750000 0.750000 0.500000
O O14 0.662809 0.894294 0.509451
O O15 0.935976 0.546876 0.144328
#
# Coordination Sequence:
#
# PCOD9260339 Si02
#       7
#     8   8   8   8   8   8   8
#     4  10  20  38  61  86 116 155 203 245 297 352
#     4  11  21  35  60  87 121 155 198 247 297 357
#     4  11  20  37  61  87 117 156 199 252 296 344
#     4  10  22  37  59  86 119 156 199 249 298 356
#     4   9  16  32  57  83 110 150 195 240 285 346
#     4  10  18  37  57  82 117 156 204 238 286 357
#     4  11  23  35  57  90 123 158 195 243 306 353
#
# _framework density 20.058385999999999
#
# number of rings (size 3 to 8) (size 9 to 14) (size 15 to 20)
#    0.000    1.714    2.857    3.857    0.000    1.714 
#    0.000    0.000    0.000    6.857    0.000    0.000 
#    0.000    0.000    0.000    0.000    0.000    0.000 
#
# Total GULP energy -155874.016693 kJ/mol
# GULP energy per Si atom -5566.929168 kJ/mol
# Density = 2.001273 g / cm^3
# Si number density = 20.058386 Si / 1000 Ang^3
#
#
#
# Elastic Constant Matrix: (Units=GPa)
#
#
# Indices 1 2 3 4 5 6 
#
# 1 60.3661 25.9517 19.3154 0.0000 7.6937 0.0000
# 2 25.9517 95.7502 33.2058 0.0000 10.5719 0.0000
# 3 19.3154 33.2058 67.6439 0.0000 23.9154 0.0000
# 4 0.0000 0.0000 0.0000 26.0782 0.0000 -0.5863
# 5 7.6937 10.5719 23.9154 0.0000 43.6189 0.0000
# 6 0.0000 0.0000 0.0000 -0.5863 0.0000 28.5659
#
#
#
# Elastic Compliance Matrix: (Units=1/GPa)
#
#
# Indices 1 2 3 4 5 6 
#
# 1 0.019455 -0.004042 -0.003354 0.000000 -0.000613 0.000000
# 2 -0.004042 0.013432 -0.005633 0.000000 0.000546 0.000000
# 3 -0.003354 -0.005633 0.022098 0.000000 -0.010159 0.000000
# 4 0.000000 0.000000 0.000000 0.038364 0.000000 0.000787
# 5 -0.000613 0.000546 -0.010159 0.000000 0.028472 0.000000
# 6 0.000000 0.000000 0.000000 0.000787 0.000000 0.035023
#
#
# Mechanical properties :
#
#
# Convention : Reuss Voigt Hill
#
# Bulk Modulus (GPa) = 34.56979 42.30069 38.43524
# Shear Modulus (GPa) = 25.96811 29.33841 27.65326
#
# Velocity S-wave (km/s) = 3.60200 3.82861 3.71703
# Velocity P-wave (km/s) = 5.87972 6.37800 6.13392
#
# Compressibility (1/GPa) = 0.02892699
#
# Stress axis : x y z
#
# Youngs Moduli (GPa) = 51.40160 74.44639 45.25324
#
# Poissons Ratio (x) = 0.30091 0.15180
# Poissons Ratio (y) = 0.20776 0.25489
# Poissons Ratio (z) = 0.17242 0.41933
#
# Static dielectric constant tensor:
#      x y z
#    x 1.768410 0.000000 0.036330 
#    y 0.000000 1.750880 0.000000 
#    z 0.036330 0.000000 1.754080 
# 
# From -- ./inp_files/190912.got.cif
#   From: 2010.05.17/outbox.cif.g08.bks.cpg/sg15_96_cif.got.tgz:190912.got - 2010.06.03 18:47:42.
