data_PCOD9260053
_publ_section_title
;
Structure prediction by ZEFSAII (Michael W. Deem and Ramdas Pophale) SiO2 
 PCOD9260053
Probable space group: C 2/C
;
_chemical_formula_sum "Si O2"
_cell_formula_units_Z 48
_cell_length_a 27.302422
_cell_length_b 9.926001
_cell_length_c 18.886223
_cell_angle_alpha 90.000000
_cell_angle_beta 22.304647
_cell_angle_gamma 90.000000
_cell_volume 1942.531563
_symmetry_space_group_name_H-M "C 2/C"
_symmetry_group_IT_number 15
_symmetry_cell_setting 'monoclinic'
loop_
_space_group_symop_operation_xyz
x,y,z
-x,y,1/2-z
-x,-y,-z
x,-y,1/2+z
1/2+x,1/2+y,z
1/2-x,1/2+y,1/2-z
1/2-x,1/2-y,-z
1/2+x,1/2-y,1/2+z
loop_
_atom_site_type_symbol
_atom_site_label
_atom_site_fract_x
_atom_site_fract_y
_atom_site_fract_z
Si Si1 0.538347 0.215711 0.779550
Si Si2 0.646203 0.713460 0.531998
Si Si3 0.300050 0.650425 0.639282
Si Si4 0.883822 0.856698 0.591176
Si Si5 0.780723 0.945172 0.006218
Si Si6 0.167026 0.946621 0.251774
O O1 0.500000 0.183002 0.750000
O O2 0.642841 0.108660 0.665859
O O3 0.608613 0.363425 0.684243
O O4 0.408684 0.231895 0.999420
O O5 0.500000 0.734380 0.750000
O O6 0.651558 0.645343 0.446682
O O7 0.705448 0.605687 0.508220
O O8 0.720297 0.854692 0.426345
O O9 0.156309 0.697227 0.847043
O O10 0.307417 0.601769 0.550280
O O11 0.338405 0.550582 0.652515
O O12 0.035974 0.886471 0.397499
O O13 0.825917 0.894343 0.751223
#
# Coordination Sequence:
#
# PCOD9260053 Si02
#       6
#     8   8   8   8   8   8
#     4   9  19  34  57  94 127 162 216 270 320 375
#     4  11  23  42  67  95 130 171 217 265 324 386
#     4  10  18  36  61  90 122 164 212 271 311 378
#     4  10  22  41  64  89 126 171 214 261 322 386
#     4  10  19  36  62  93 127 168 212 267 325 381
#     4  10  22  41  62  92 126 173 213 260 321 388
#
# _framework density 24.710023
#
# number of rings (size 3 to 8) (size 9 to 14) (size 15 to 20)
#    0.000    2.000    1.667    2.500    0.000    0.667 
#   12.000    5.000    0.000    0.000    0.000    0.000 
#    0.000    0.000    0.000    0.000    0.000    0.000 
#
# Total GULP energy -133752.209614 kJ/mol
# GULP energy per Si atom -5573.008734 kJ/mol
# Density = 2.465378 g / cm^3
# Si number density = 24.710023 Si / 1000 Ang^3
#
#
#
# Elastic Constant Matrix: (Units=GPa)
#
#
# Indices 1 2 3 4 5 6 
#
# 1 110.9993 7.1457 -3.9958 0.0000 10.8588 0.0000
# 2 7.1457 37.2483 20.6433 0.0001 15.5794 0.0000
# 3 -3.9958 20.6433 42.2190 0.0001 8.1959 0.0000
# 4 0.0000 0.0001 0.0001 0.9656 0.0000 -28.8170
# 5 10.8588 15.5794 8.1959 0.0000 23.2759 0.0000
# 6 0.0000 0.0000 0.0000 -28.8170 0.0000 8.4954
#
#
#
# Elastic Compliance Matrix: (Units=1/GPa)
#
#
# Indices 1 2 3 4 5 6 
#
# 1 0.009617 -0.001325 0.002423 0.000000 -0.004453 0.000000
# 2 -0.001325 0.047849 -0.018702 0.000000 -0.024823 0.000000
# 3 0.002423 -0.018702 0.033113 0.000000 -0.000272 0.000000
# 4 0.000000 0.000000 0.000000 -0.010332 0.000000 -0.035048
# 5 -0.004453 -0.024823 -0.000272 0.000000 0.061751 0.000000
# 6 0.000000 0.000000 0.000000 -0.035048 0.000000 -0.001174
#
#
# Mechanical properties :
#
#
# Convention : Reuss Voigt Hill
#
# Bulk Modulus (GPa) = 18.06090 26.45036 22.25563
# Shear Modulus (GPa) = 25.70842 17.65894 21.68368
#
# Velocity S-wave (km/s) = 3.22903 2.67619 2.96552
# Velocity P-wave (km/s) = 4.60730 4.50298 4.55544
#
# Compressibility (1/GPa) = 0.05536824
#
# Stress axis : x y z
#
# Youngs Moduli (GPa) = 103.98055 20.89928 30.19985
#
# Poissons Ratio (x) = 0.02770 -0.07316
# Poissons Ratio (y) = 0.13780 0.56481
# Poissons Ratio (z) = -0.25190 0.39087
#
# Static dielectric constant tensor:
#      x y z
#    x 2.063750 0.000000 0.045770 
#    y 0.000000 2.198340 0.000000 
#    z 0.045770 0.000000 2.031060 
# 
# From -- ./inp_files/259208.got.cif
#   From: 2010.05.17/outbox.cif.g08.bks.cpg/sg15_130_cif.got.tgz:259208.got - 2010.06.03 18:47:42.
