data_PCOD9260419
_publ_section_title
;
Structure prediction by ZEFSAII (Michael W. Deem and Ramdas Pophale) SiO2 
 PCOD9260419
Probable space group: C 2/C
;
_chemical_formula_sum "Si O2"
_cell_formula_units_Z 64
_cell_length_a 16.808617
_cell_length_b 9.074288
_cell_length_c 18.589439
_cell_angle_alpha 90.000000
_cell_angle_beta 110.919082
_cell_angle_gamma 90.000000
_cell_volume 2648.484936
_symmetry_space_group_name_H-M "C 2/C"
_symmetry_group_IT_number 15
_symmetry_cell_setting 'monoclinic'
loop_
_space_group_symop_operation_xyz
x,y,z
-x,y,1/2-z
-x,-y,-z
x,-y,1/2+z
1/2+x,1/2+y,z
1/2-x,1/2+y,1/2-z
1/2-x,1/2-y,-z
1/2+x,1/2-y,1/2+z
loop_
_atom_site_type_symbol
_atom_site_label
_atom_site_fract_x
_atom_site_fract_y
_atom_site_fract_z
Si Si1 0.864747 0.530117 0.474209
Si Si2 0.437314 0.655474 0.958244
Si Si3 0.090385 0.247985 0.102068
Si Si4 0.256649 0.162250 0.235826
Si Si5 0.222911 0.913737 0.017161
Si Si6 0.320576 0.885075 0.194025
Si Si7 0.019365 0.550531 0.844947
Si Si8 0.942605 0.778334 0.298583
O O1 0.889522 0.683048 0.443499
O O2 0.892000 0.397486 0.434437
O O3 0.768214 0.497350 0.468725
O O4 0.920619 0.537160 0.564703
O O5 0.374373 0.572167 0.993453
O O6 0.446259 0.630000 0.875153
O O7 0.526259 0.661874 0.029159
O O8 0.178916 0.176565 0.154414
O O9 0.039824 0.309634 0.154918
O O10 0.213152 0.225445 0.293975
O O11 0.342596 0.255695 0.247106
O O12 0.291282 0.995701 0.247739
O O13 0.269028 0.935838 0.107614
O O14 0.250000 0.750000 0.000000
O O15 0.416517 0.911778 0.199489
O O16 0.979326 0.387253 0.825087
O O17 0.000000 0.835527 0.250000
#
# Coordination Sequence:
#
# PCOD9260419 Si02
#       8
#     8   8   8   8   8   8   8   8
#     4   9  17  32  63  98 120 162 228 274 324 383
#     4  10  18  37  61  89 129 172 218 267 333 404
#     4  11  21  37  62  98 128 168 223 287 331 384
#     4  12  27  40  67  98 139 175 223 288 342 403
#     4   9  19  35  65  97 130 174 221 268 332 418
#     4  11  24  44  67 102 136 177 234 278 346 399
#     4  10  19  38  68  95 125 172 234 281 318 409
#     4  12  21  37  63  93 120 176 224 274 339 390
#
# _framework density 24.164757000000002
#
# number of rings (size 3 to 8) (size 9 to 14) (size 15 to 20)
#    0.000    1.500    5.000    2.250    0.000    0.000 
#    0.000    6.250    5.500    0.000    0.000    0.000 
#    0.000    0.000    0.000    0.000    0.000    0.000 
#
# Total GULP energy -178726.599340 kJ/mol
# GULP energy per Si atom -5585.206229 kJ/mol
# Density = 2.410976 g / cm^3
# Si number density = 24.164757 Si / 1000 Ang^3
#
#
#
# Elastic Constant Matrix: (Units=GPa)
#
#
# Indices 1 2 3 4 5 6 
#
# 1 199.8890 50.4659 53.5842 0.0000 -0.8894 0.0000
# 2 50.4659 29.0190 0.0976 0.0000 -3.4340 0.0000
# 3 53.5842 0.0976 88.6830 0.0000 5.0083 0.0000
# 4 0.0000 0.0000 0.0000 27.6165 0.0000 0.6011
# 5 -0.8894 -3.4340 5.0083 0.0000 49.0444 0.0000
# 6 0.0000 0.0000 0.0000 0.6011 0.0000 27.4731
#
#
#
# Elastic Compliance Matrix: (Units=1/GPa)
#
#
# Indices 1 2 3 4 5 6 
#
# 1 0.012521 -0.021813 -0.007511 0.000000 -0.000533 0.000000
# 2 -0.021813 0.072750 0.012909 0.000000 0.003380 0.000000
# 3 -0.007511 0.012909 0.015848 0.000000 -0.000851 0.000000
# 4 0.000000 0.000000 0.000000 0.036227 0.000000 -0.000793
# 5 -0.000533 0.003380 -0.000851 0.000000 0.020704 0.000000
# 6 0.000000 0.000000 0.000000 -0.000793 0.000000 0.036417
#
#
# Mechanical properties :
#
#
# Convention : Reuss Voigt Hill
#
# Bulk Modulus (GPa) = 14.64358 58.43183 36.53770
# Shear Modulus (GPa) = 19.99512 35.05636 27.52574
#
# Velocity S-wave (km/s) = 2.87966 3.81297 3.37870
# Velocity P-wave (km/s) = 4.13880 6.60440 5.51125
#
# Compressibility (1/GPa) = 0.06828931
#
# Stress axis : x y z
#
# Youngs Moduli (GPa) = 79.86573 13.74564 63.09748
#
# Poissons Ratio (x) = 0.29983 0.47395
# Poissons Ratio (y) = 1.74208 -0.81451
# Poissons Ratio (z) = 0.59990 -0.17744
#
# Static dielectric constant tensor:
#      x y z
#    x 1.999080 0.000000 0.036610 
#    y 0.000000 1.934290 0.000000 
#    z 0.036610 0.000000 2.009050 
# 
# From -- ./inp_files/248401.got.cif
#   From: 2010.05.17/outbox.cif.g08.bks.cpg/sg15_125_cif.got.tgz:248401.got - 2010.06.03 18:47:42.
