data_PCOD9260375
_publ_section_title
;
Structure prediction by ZEFSAII (Michael W. Deem and Ramdas Pophale) SiO2 
 PCOD9260375
Probable space group: C 2/C
;
_chemical_formula_sum "Si O2"
_cell_formula_units_Z 64
_cell_length_a 9.407635
_cell_length_b 13.859069
_cell_length_c 29.879831
_cell_angle_alpha 90.000000
_cell_angle_beta 126.620494
_cell_angle_gamma 90.000000
_cell_volume 3126.756492
_symmetry_space_group_name_H-M "C 2/C"
_symmetry_group_IT_number 15
_symmetry_cell_setting 'monoclinic'
loop_
_space_group_symop_operation_xyz
x,y,z
-x,y,1/2-z
-x,-y,-z
x,-y,1/2+z
1/2+x,1/2+y,z
1/2-x,1/2+y,1/2-z
1/2-x,1/2-y,-z
1/2+x,1/2-y,1/2+z
loop_
_atom_site_type_symbol
_atom_site_label
_atom_site_fract_x
_atom_site_fract_y
_atom_site_fract_z
Si Si1 0.179110 0.755589 0.806555
Si Si2 0.059354 0.239483 0.861038
Si Si3 0.828525 0.904868 0.186997
Si Si4 0.440811 0.117572 0.642817
Si Si5 0.173580 0.563608 0.430237
Si Si6 0.089450 0.825778 0.464955
Si Si7 0.245116 0.767940 0.947073
Si Si8 0.788514 0.574292 0.394659
O O1 0.352002 0.745175 0.808573
O O2 0.128274 0.657597 0.823070
O O3 0.241758 0.835354 0.853828
O O4 0.000000 0.789757 0.750000
O O5 0.161077 0.194249 0.838747
O O6 0.136689 0.341911 0.892310
O O7 0.060619 0.171799 0.906114
O O8 0.646262 0.911928 0.180657
O O9 0.000000 0.917295 0.250000
O O10 0.815734 0.985556 0.145715
O O11 0.415532 0.208131 0.604618
O O12 0.326239 0.030159 0.600995
O O13 0.339660 0.583106 0.493742
O O14 0.997239 0.553896 0.428005
O O15 0.250000 0.750000 0.500000
O O16 0.919509 0.778928 0.456773
O O17 0.243749 0.881110 0.934276
O O18 0.250000 0.750000 0.000000
#
# Coordination Sequence:
#
# PCOD9260375 Si02
#       8
#     8   8   8   8   8   8   8   8
#     4  10  18  37  60  76 108 151 189 238 291 337
#     4  10  20  37  58  81 109 151 196 226 284 351
#     4  11  23  38  60  87 113 150 199 246 287 339
#     4  10  22  38  54  87 119 142 194 244 285 335
#     4   9  19  36  61  78 114 160 185 224 283 358
#     4  10  18  37  61  80 114 157 192 214 289 356
#     4  11  22  37  59  93 121 149 189 248 293 340
#     4   9  19  39  56  84 113 149 194 231 288 348
#
# _framework density 20.468494
#
# number of rings (size 3 to 8) (size 9 to 14) (size 15 to 20)
#    0.000    2.000    5.000    1.125    3.500    1.500 
#    2.250    3.125    0.000    0.000    0.000    0.000 
#    0.000    0.000    0.000    0.000    0.000    0.000 
#
# Total GULP energy -178467.196363 kJ/mol
# GULP energy per Si atom -5577.099886 kJ/mol
# Density = 2.042191 g / cm^3
# Si number density = 20.468494 Si / 1000 Ang^3
#
#
#
# Elastic Constant Matrix: (Units=GPa)
#
#
# Indices 1 2 3 4 5 6 
#
# 1 47.2806 6.6628 15.2979 0.0000 10.7149 0.0000
# 2 6.6628 50.7323 -13.1423 0.0000 -5.0235 0.0000
# 3 15.2979 -13.1423 46.2145 0.0000 20.4814 0.0000
# 4 0.0000 0.0000 0.0000 21.1643 0.0000 -2.3479
# 5 10.7149 -5.0235 20.4814 0.0000 33.1196 0.0000
# 6 0.0000 0.0000 0.0000 -2.3479 0.0000 19.0369
#
#
#
# Elastic Compliance Matrix: (Units=1/GPa)
#
#
# Indices 1 2 3 4 5 6 
#
# 1 0.025607 -0.005933 -0.008394 0.000000 -0.003994 0.000000
# 2 -0.005933 0.022666 0.008314 0.000000 0.000216 0.000000
# 3 -0.008394 0.008314 0.034464 0.000000 -0.017336 0.000000
# 4 0.000000 0.000000 0.000000 0.047905 0.000000 0.005908
# 5 -0.003994 0.000216 -0.017336 0.000000 0.042239 0.000000
# 6 0.000000 0.000000 0.000000 0.005908 0.000000 0.053258
#
#
# Mechanical properties :
#
#
# Convention : Reuss Voigt Hill
#
# Bulk Modulus (GPa) = 14.14212 17.98492 16.06352
# Shear Modulus (GPa) = 19.10324 23.69141 21.39732
#
# Velocity S-wave (km/s) = 3.05831 3.40583 3.23674
# Velocity P-wave (km/s) = 4.40400 4.92666 4.67264
#
# Compressibility (1/GPa) = 0.07071078
#
# Stress axis : x y z
#
# Youngs Moduli (GPa) = 39.05128 44.11974 29.01575
#
# Poissons Ratio (x) = 0.26176 0.24355
# Poissons Ratio (y) = 0.23169 -0.24123
# Poissons Ratio (z) = 0.32779 -0.36680
#
# Static dielectric constant tensor:
#      x y z
#    x 1.735630 0.000000 0.007830 
#    y 0.000000 1.764950 0.000000 
#    z 0.007830 0.000000 1.766740 
# 
# From -- ./inp_files/308036.got.cif
#   From: 2010.05.17/outbox.cif.g08.bks.cpg/sg15_155_cif.got.tgz:308036.got - 2010.06.03 18:47:42.
