data_PCOD9260880
_publ_section_title
;
Structure prediction by ZEFSAII (Michael W. Deem and Ramdas Pophale) SiO2 
 PCOD9260880
Probable space group: C 2/C
;
_chemical_formula_sum "Si O2"
_cell_formula_units_Z 52
_cell_length_a 29.059795
_cell_length_b 8.533503
_cell_length_c 15.320258
_cell_angle_alpha 90.000000
_cell_angle_beta 38.960984
_cell_angle_gamma 90.000000
_cell_volume 2388.868900
_symmetry_space_group_name_H-M "C 2/C"
_symmetry_group_IT_number 15
_symmetry_cell_setting 'monoclinic'
loop_
_space_group_symop_operation_xyz
x,y,z
-x,y,1/2-z
-x,-y,-z
x,-y,1/2+z
1/2+x,1/2+y,z
1/2-x,1/2+y,1/2-z
1/2-x,1/2-y,-z
1/2+x,1/2-y,1/2+z
loop_
_atom_site_type_symbol
_atom_site_label
_atom_site_fract_x
_atom_site_fract_y
_atom_site_fract_z
Si Si1 0.776166 0.154030 0.088266
Si Si2 0.139461 0.347658 0.664464
Si Si3 0.524102 0.164883 0.114327
Si Si4 0.700627 0.642829 0.824158
Si Si5 0.500000 0.655901 0.250000
Si Si6 0.056313 0.015661 0.495626
Si Si7 0.621488 0.899756 0.046671
O O1 0.698974 0.143306 0.152032
O O2 0.767184 0.303588 0.165592
O O3 0.787677 0.995424 0.124087
O O4 0.839086 0.195164 0.925541
O O5 0.149570 0.493532 0.583750
O O6 0.054593 0.350737 0.816603
O O7 0.500000 0.205295 0.250000
O O8 0.568320 0.302659 0.002516
O O9 0.571391 0.008511 0.057497
O O10 0.631334 0.579243 0.870738
O O11 0.679108 0.801932 0.906286
O O12 0.480059 0.556522 0.363909
O O13 0.568271 0.769267 0.166412
O O14 0.000000 0.000000 0.500000
#
# Coordination Sequence:
#
# PCOD9260880 Si02
#       7
#     8   8   8   8   4   8   8
#     4  11  24  41  61  85 128 169 208 250 304 377
#     4  10  21  40  64  91 117 165 214 246 307 393
#     4  10  18  38  67  93 121 164 199 262 332 362
#     4  11  24  43  58  90 127 163 207 261 309 378
#     4  10  20  38  58  96 126 150 202 266 320 374
#     4  11  23  39  64  97 126 162 208 266 325 370
#     4  10  20  39  65  90 121 158 207 265 325 356
#
# _framework density 21.767624999999999
#
# number of rings (size 3 to 8) (size 9 to 14) (size 15 to 20)
#    0.000    1.538    3.077    3.692    2.154    0.615 
#    5.538    2.308    0.000    0.000    0.000    0.000 
#    0.000    0.000    0.000    0.000    0.000    0.000 
#
# Total GULP energy -145343.007291 kJ/mol
# GULP energy per Si atom -5590.115665 kJ/mol
# Density = 2.171808 g / cm^3
# Si number density = 21.767625 Si / 1000 Ang^3
#
#
#
# Elastic Constant Matrix: (Units=GPa)
#
#
# Indices 1 2 3 4 5 6 
#
# 1 107.1976 40.8140 4.9848 0.0001 -4.4666 0.0000
# 2 40.8140 117.3881 21.3604 0.0003 4.4833 0.0000
# 3 4.9848 21.3604 48.3764 0.0000 -7.9794 0.0000
# 4 0.0001 0.0003 0.0000 14.3505 -0.0001 -6.6041
# 5 -4.4666 4.4833 -7.9794 -0.0001 14.4416 0.0000
# 6 0.0000 0.0000 0.0000 -6.6041 0.0000 20.2160
#
#
#
# Elastic Compliance Matrix: (Units=1/GPa)
#
#
# Indices 1 2 3 4 5 6 
#
# 1 0.011174 -0.004427 0.001760 0.000000 0.005803 0.000000
# 2 -0.004427 0.011456 -0.005958 0.000000 -0.008217 0.000000
# 3 0.001760 -0.005958 0.025873 0.000000 0.016690 0.000000
# 4 0.000000 0.000000 0.000000 0.082014 0.000001 0.026792
# 5 0.005803 -0.008217 0.016690 0.000001 0.082812 0.000000
# 6 0.000000 0.000000 0.000000 0.026792 0.000000 0.058218
#
#
# Mechanical properties :
#
#
# Convention : Reuss Voigt Hill
#
# Bulk Modulus (GPa) = 31.99481 45.25338 38.62409
# Shear Modulus (GPa) = 16.71051 23.52182 20.11616
#
# Velocity S-wave (km/s) = 2.77370 3.29079 3.04325
# Velocity P-wave (km/s) = 4.99882 5.93915 5.48916
#
# Compressibility (1/GPa) = 0.03125507
#
# Stress axis : x y z
#
# Youngs Moduli (GPa) = 89.49335 87.29174 38.64999
#
# Poissons Ratio (x) = 0.38644 -0.06804
# Poissons Ratio (y) = 0.39619 0.23026
# Poissons Ratio (z) = -0.15755 0.52004
#
# Static dielectric constant tensor:
#      x y z
#    x 1.799090 0.000000 -0.025430 
#    y 0.000000 1.800210 0.000000 
#    z -0.025430 0.000000 1.821300 
# 
# From -- ./inp_files/181091.got.cif
#   From: 2010.05.17/outbox.cif.g08.bks.cpg/sg15_91_cif.got.tgz:181091.got - 2010.06.03 18:47:42.
