data_PCOD9260897
_publ_section_title
;
Structure prediction by ZEFSAII (Michael W. Deem and Ramdas Pophale) SiO2 
 PCOD9260897
Probable space group: C 2/C
;
_chemical_formula_sum "Si O2"
_cell_formula_units_Z 52
_cell_length_a 19.779431
_cell_length_b 27.376763
_cell_length_c 5.654666
_cell_angle_alpha 90.000000
_cell_angle_beta 131.901387
_cell_angle_gamma 90.000000
_cell_volume 2279.020181
_symmetry_space_group_name_H-M "C 2/C"
_symmetry_group_IT_number 15
_symmetry_cell_setting 'monoclinic'
loop_
_space_group_symop_operation_xyz
x,y,z
-x,y,1/2-z
-x,-y,-z
x,-y,1/2+z
1/2+x,1/2+y,z
1/2-x,1/2+y,1/2-z
1/2-x,1/2-y,-z
1/2+x,1/2-y,1/2+z
loop_
_atom_site_type_symbol
_atom_site_label
_atom_site_fract_x
_atom_site_fract_y
_atom_site_fract_z
Si Si1 0.000000 0.030097 0.250000
Si Si2 0.835780 0.187398 0.313258
Si Si3 0.079698 0.383993 0.253490
Si Si4 0.836700 0.090271 0.055183
Si Si5 0.223321 0.347450 0.938780
Si Si6 0.676993 0.027873 0.816393
Si Si7 0.134772 0.293390 0.116447
O O1 0.087382 0.064774 0.424599
O O2 0.000000 0.000000 0.500000
O O3 0.808843 0.179728 0.523161
O O4 0.890880 0.237202 0.409655
O O5 0.871721 0.136320 0.292712
O O6 0.736852 0.198412 0.962788
O O7 0.171338 0.377501 0.619599
O O8 0.102016 0.429024 0.138516
O O9 0.072153 0.332860 0.098460
O O10 0.000000 0.392867 0.250000
O O11 0.760357 0.114765 0.713341
O O12 0.779675 0.049858 0.063480
O O13 0.152924 0.309566 0.889645
O O14 0.665995 0.999693 0.541822
#
# Coordination Sequence:
#
# PCOD9260897 Si02
#       7
#     4   8   8   8   8   8   8
#     4  12  30  48  74 106 142 186 232 296 358 414
#     4   9  18  34  68  95 131 167 226 273 342 416
#     4  11  24  41  63  94 141 177 230 288 337 412
#     4  11  23  44  69 100 133 176 225 291 342 427
#     4  10  18  38  68  95 132 180 223 278 344 407
#     4  12  25  43  69  96 128 176 230 280 339 403
#     4   9  18  36  60 100 126 175 222 275 342 407
#
# _framework density 22.816824
#
# number of rings (size 3 to 8) (size 9 to 14) (size 15 to 20)
#    0.000    1.538    4.615    2.308    2.154    2.462 
#    1.385    0.000    3.385    0.000    0.000    0.000 
#    0.000    0.000    0.000    0.000    0.000    0.000 
#
# Total GULP energy -145170.713931 kJ/mol
# GULP energy per Si atom -5583.488997 kJ/mol
# Density = 2.276489 g / cm^3
# Si number density = 22.816824 Si / 1000 Ang^3
#
#
#
# Elastic Constant Matrix: (Units=GPa)
#
#
# Indices 1 2 3 4 5 6 
#
# 1 147.9353 80.5024 13.4223 0.0000 -13.6880 0.0000
# 2 80.5024 123.6880 22.7902 0.0000 -9.9966 0.0000
# 3 13.4223 22.7902 46.5174 0.0000 -16.4988 0.0000
# 4 0.0000 0.0000 0.0000 5.0163 0.0000 -14.4858
# 5 -13.6880 -9.9966 -16.4988 0.0000 34.0207 0.0000
# 6 0.0000 0.0000 0.0000 -14.4858 0.0000 27.5148
#
#
#
# Elastic Compliance Matrix: (Units=1/GPa)
#
#
# Indices 1 2 3 4 5 6 
#
# 1 0.010706 -0.006984 0.001368 0.000000 0.002919 0.000000
# 2 -0.006984 0.013454 -0.005037 0.000000 -0.001300 0.000000
# 3 0.001368 -0.005037 0.028069 0.000000 0.012682 0.000000
# 4 0.000000 0.000000 0.000000 -0.383132 0.000000 -0.201708
# 5 0.002919 -0.001300 0.012682 0.000000 0.036337 0.000000
# 6 0.000000 0.000000 0.000000 -0.201708 0.000000 -0.069850
#
#
# Mechanical properties :
#
#
# Convention : Reuss Voigt Hill
#
# Bulk Modulus (GPa) = 32.33992 61.28561 46.81277
# Shear Modulus (GPa) = -15.02396 26.73875 5.85740
#
# Velocity S-wave (km/s) = -2.56883 3.42700 1.60397
# Velocity P-wave (km/s) = 2.32507 6.52512 4.89812
#
# Compressibility (1/GPa) = 0.03092153
#
# Stress axis : x y z
#
# Youngs Moduli (GPa) = 93.40224 74.32898 35.62690
#
# Poissons Ratio (x) = 0.51914 -0.04873
# Poissons Ratio (y) = 0.65236 0.17945
# Poissons Ratio (z) = -0.12775 0.37440
#
# Static dielectric constant tensor:
#      x y z
#    x 1.939990 0.000000 -0.062430 
#    y 0.000000 1.918950 0.000000 
#    z -0.062430 0.000000 1.996880 
# 
# From -- ./inp_files/14416.got.cif
#   From: 2010.05.17/outbox.cif.g08.bks.cpg/sg15_8_cif.got.tgz:14416.got - 2010.06.03 18:47:42.
