data_PCOD9260647
_publ_section_title
;
Structure prediction by ZEFSAII (Michael W. Deem and Ramdas Pophale) SiO2 
 PCOD9260647
Probable space group: C 2/C
;
_chemical_formula_sum "Si O2"
_cell_formula_units_Z 44
_cell_length_a 8.888387
_cell_length_b 17.234372
_cell_length_c 13.303000
_cell_angle_alpha 90.000000
_cell_angle_beta 96.150968
_cell_angle_gamma 90.000000
_cell_volume 2026.098529
_symmetry_space_group_name_H-M "C 2/C"
_symmetry_group_IT_number 15
_symmetry_cell_setting 'monoclinic'
loop_
_space_group_symop_operation_xyz
x,y,z
-x,y,1/2-z
-x,-y,-z
x,-y,1/2+z
1/2+x,1/2+y,z
1/2-x,1/2+y,1/2-z
1/2-x,1/2-y,-z
1/2+x,1/2-y,1/2+z
loop_
_atom_site_type_symbol
_atom_site_label
_atom_site_fract_x
_atom_site_fract_y
_atom_site_fract_z
Si Si1 0.500000 0.109838 0.250000
Si Si2 0.311333 0.005399 0.378408
Si Si3 0.114694 0.860043 0.351508
Si Si4 0.396121 0.102060 0.567763
Si Si5 0.049008 0.726246 0.085156
Si Si6 0.828286 0.288198 0.225592
O O1 0.460924 0.166673 0.153845
O O2 0.363564 0.057018 0.285681
O O3 0.170572 0.947305 0.366638
O O4 0.457988 0.950819 0.405670
O O5 0.297439 0.058950 0.476463
O O6 0.256525 0.807555 0.327761
O O7 0.000000 0.855936 0.250000
O O8 0.028960 0.810009 0.429314
O O9 0.435178 0.183489 0.518116
O O10 0.329954 0.127618 0.669255
O O11 0.211055 0.737344 0.152591
O O12 0.000000 0.260640 0.250000
#
# Coordination Sequence:
#
# PCOD9260647 Si02
#       6
#     4   8   8   8   8   8
#     4  10  18  38  60  84 118 160 192 240 290 364
#     4  10  20  35  58  87 118 159 201 232 301 354
#     4  10  20  38  61  86 118 161 197 243 292 353
#     4  10  21  35  57  88 119 155 198 247 290 355
#     4  10  21  38  60  87 122 154 197 250 297 339
#     4  11  19  36  60  88 114 157 203 242 289 353
#
# _framework density 21.716614
#
# number of rings (size 3 to 8) (size 9 to 14) (size 15 to 20)
#    0.000    1.818    4.545    1.636    0.000    0.727 
#    0.000    7.273    0.000    0.000    0.000    0.000 
#    0.000    0.000    0.000    0.000    0.000    0.000 
#
# Total GULP energy -122663.826559 kJ/mol
# GULP energy per Si atom -5575.628480 kJ/mol
# Density = 2.166719 g / cm^3
# Si number density = 21.716614 Si / 1000 Ang^3
#
#
#
# Elastic Constant Matrix: (Units=GPa)
#
#
# Indices 1 2 3 4 5 6 
#
# 1 76.4515 35.3172 15.7253 0.0000 9.7546 0.0000
# 2 35.3172 105.7941 13.6857 0.0000 -0.5651 0.0000
# 3 15.7253 13.6857 28.8677 0.0000 1.6670 0.0000
# 4 0.0000 0.0000 0.0000 37.7402 0.0000 -4.6664
# 5 9.7546 -0.5651 1.6670 0.0000 17.2692 0.0000
# 6 0.0000 0.0000 0.0000 -4.6664 0.0000 44.4579
#
#
#
# Elastic Compliance Matrix: (Units=1/GPa)
#
#
# Indices 1 2 3 4 5 6 
#
# 1 0.018147 -0.005225 -0.006845 0.000000 -0.009761 0.000000
# 2 -0.005225 0.011585 -0.002854 0.000000 0.003606 0.000000
# 3 -0.006845 -0.002854 0.039726 0.000000 -0.000062 0.000000
# 4 0.000000 0.000000 0.000000 0.026845 0.000000 0.002818
# 5 -0.009761 0.003606 -0.000062 0.000000 0.063544 0.000000
# 6 0.000000 0.000000 0.000000 0.002818 0.000000 0.022789
#
#
# Mechanical properties :
#
#
# Convention : Reuss Voigt Hill
#
# Bulk Modulus (GPa) = 25.24586 37.84110 31.54348
# Shear Modulus (GPa) = 22.15449 29.65247 25.90348
#
# Velocity S-wave (km/s) = 3.19746 3.69918 3.45743
# Velocity P-wave (km/s) = 5.02813 5.97562 5.52223
#
# Compressibility (1/GPa) = 0.03961045
#
# Stress axis : x y z
#
# Youngs Moduli (GPa) = 55.10523 86.31855 25.17234
#
# Poissons Ratio (x) = 0.45099 0.17230
# Poissons Ratio (y) = 0.28791 0.07185
# Poissons Ratio (z) = 0.37718 0.24639
#
# Static dielectric constant tensor:
#      x y z
#    x 1.858390 0.000000 -0.041610 
#    y 0.000000 1.832980 0.000000 
#    z -0.041610 0.000000 1.810380 
# 
# From -- ./inp_files/134436.got.cif
#   From: 2010.05.17/outbox.cif.g08.bks.cpg/sg15_68_cif.got.tgz:134436.got - 2010.06.03 18:47:42.
