data_PCOD9260625
_publ_section_title
;
Structure prediction by ZEFSAII (Michael W. Deem and Ramdas Pophale) SiO2 
 PCOD9260625
Probable space group: C 2/C
;
_chemical_formula_sum "Si O2"
_cell_formula_units_Z 44
_cell_length_a 11.647222
_cell_length_b 16.924342
_cell_length_c 13.833840
_cell_angle_alpha 90.000000
_cell_angle_beta 49.684652
_cell_angle_gamma 90.000000
_cell_volume 2079.284519
_symmetry_space_group_name_H-M "C 2/C"
_symmetry_group_IT_number 15
_symmetry_cell_setting 'monoclinic'
loop_
_space_group_symop_operation_xyz
x,y,z
-x,y,1/2-z
-x,-y,-z
x,-y,1/2+z
1/2+x,1/2+y,z
1/2-x,1/2+y,1/2-z
1/2-x,1/2-y,-z
1/2+x,1/2-y,1/2+z
loop_
_atom_site_type_symbol
_atom_site_label
_atom_site_fract_x
_atom_site_fract_y
_atom_site_fract_z
Si Si1 0.972338 0.372242 0.012465
Si Si2 0.622011 0.550022 0.992629
Si Si3 0.348385 0.602496 0.725025
Si Si4 0.000000 0.041237 0.250000
Si Si5 0.067460 0.755661 0.111359
Si Si6 0.421169 0.989100 0.395172
O O1 0.798628 0.365709 0.141254
O O2 0.063837 0.407436 0.053089
O O3 0.006047 0.292092 0.937775
O O4 0.986894 0.441361 0.924467
O O5 0.560412 0.589147 0.124447
O O6 0.500000 0.500000 0.000000
O O7 0.691801 0.598805 0.866874
O O8 0.748536 0.492684 0.966092
O O9 0.385189 0.518921 0.757226
O O10 0.497542 0.656467 0.647838
O O11 0.000000 0.722479 0.250000
O O12 0.250000 0.750000 0.000000
O O13 0.500000 0.983734 0.250000
#
# Coordination Sequence:
#
# PCOD9260625 Si02
#       6
#     8   8   8   4   8   8
#     4  11  23  39  65  95 128 168 216 271 325 389
#     4  10  22  35  65  93 124 170 209 257 326 391
#     4  11  20  40  63  90 127 171 209 267 330 374
#     4  10  18  38  58  88 130 158 208 260 320 380
#     4  12  24  42  66  92 131 174 225 271 325 393
#     4  11  22  41  66  95 131 165 212 270 329 389
#
# _framework density 21.161127
#
# number of rings (size 3 to 8) (size 9 to 14) (size 15 to 20)
#    0.000    1.091    6.364    0.545    2.545    0.000 
#    3.273    0.909    2.000    0.000    0.000    0.000 
#    0.000    0.000    0.000    0.000    0.000    0.000 
#
# Total GULP energy -122500.232938 kJ/mol
# GULP energy per Si atom -5568.192406 kJ/mol
# Density = 2.111296 g / cm^3
# Si number density = 21.161127 Si / 1000 Ang^3
#
#
#
# Elastic Constant Matrix: (Units=GPa)
#
#
# Indices 1 2 3 4 5 6 
#
# 1 79.8346 7.2352 33.1813 0.0000 0.9786 0.0000
# 2 7.2352 39.3108 19.8389 0.0000 4.9508 0.0000
# 3 33.1813 19.8389 183.6403 0.0000 39.3131 0.0000
# 4 0.0000 0.0000 0.0000 26.6603 0.0000 7.2927
# 5 0.9786 4.9508 39.3131 0.0000 41.8816 0.0000
# 6 0.0000 0.0000 0.0000 7.2927 0.0000 24.7077
#
#
#
# Elastic Compliance Matrix: (Units=1/GPa)
#
#
# Indices 1 2 3 4 5 6 
#
# 1 0.013825 -0.001406 -0.002894 0.000000 0.002560 0.000000
# 2 -0.001406 0.027059 -0.002492 0.000000 -0.000826 0.000000
# 3 -0.002894 -0.002492 0.007709 0.000000 -0.006874 0.000000
# 4 0.000000 0.000000 0.000000 0.040803 0.000000 -0.012044
# 5 0.002560 -0.000826 -0.006874 0.000000 0.030367 0.000000
# 6 0.000000 0.000000 0.000000 -0.012044 0.000000 0.044028
#
#
# Mechanical properties :
#
#
# Convention : Reuss Voigt Hill
#
# Bulk Modulus (GPa) = 28.56500 47.03293 37.79896
# Shear Modulus (GPa) = 26.44861 34.81860 30.63361
#
# Velocity S-wave (km/s) = 3.53918 4.06076 3.80891
# Velocity P-wave (km/s) = 5.49811 6.65287 6.10286
#
# Compressibility (1/GPa) = 0.03500788
#
# Stress axis : x y z
#
# Youngs Moduli (GPa) = 72.33376 36.95637 129.71569
#
# Poissons Ratio (x) = 0.05197 0.37540
# Poissons Ratio (y) = 0.10172 0.32328
# Poissons Ratio (z) = 0.20933 0.09210
#
# Static dielectric constant tensor:
#      x y z
#    x 2.162520 0.000000 -0.160840 
#    y 0.000000 1.773400 0.000000 
#    z -0.160840 0.000000 1.997710 
# 
# From -- ./inp_files/88318.got.cif
#   From: 2010.05.17/outbox.cif.g08.bks.cpg/sg15_45_cif.got.tgz:88318.got - 2010.06.03 18:47:42.
