data_PCOD9260891
_publ_section_title
;
Structure prediction by ZEFSAII (Michael W. Deem and Ramdas Pophale) SiO2 
 PCOD9260891
Probable space group: C 2/C
;
_chemical_formula_sum "Si O2"
_cell_formula_units_Z 52
_cell_length_a 9.881979
_cell_length_b 29.347755
_cell_length_c 15.850547
_cell_angle_alpha 90.000000
_cell_angle_beta 39.489359
_cell_angle_gamma 90.000000
_cell_volume 2923.315756
_symmetry_space_group_name_H-M "C 2/C"
_symmetry_group_IT_number 15
_symmetry_cell_setting 'monoclinic'
loop_
_space_group_symop_operation_xyz
x,y,z
-x,y,1/2-z
-x,-y,-z
x,-y,1/2+z
1/2+x,1/2+y,z
1/2-x,1/2+y,1/2-z
1/2-x,1/2-y,-z
1/2+x,1/2-y,1/2+z
loop_
_atom_site_type_symbol
_atom_site_label
_atom_site_fract_x
_atom_site_fract_y
_atom_site_fract_z
Si Si1 0.472044 0.415273 0.161929
Si Si2 0.491643 0.245318 0.848618
Si Si3 0.544049 0.954772 0.323983
Si Si4 0.500000 0.668234 0.250000
Si Si5 0.565880 0.939567 0.623698
Si Si6 0.210574 0.175133 0.699698
Si Si7 0.918055 0.611482 0.035408
O O1 0.500000 0.419284 0.250000
O O2 0.378642 0.364124 0.193777
O O3 0.296633 0.451319 0.217087
O O4 0.693506 0.424620 0.010949
O O5 0.500000 0.224081 0.750000
O O6 0.436718 0.297124 0.705010
O O7 0.653359 0.216041 0.826376
O O8 0.250000 0.250000 0.000000
O O9 0.500000 0.938604 0.250000
O O10 0.448154 0.922688 0.442554
O O11 0.459263 0.005985 0.372999
O O12 0.701444 0.638670 0.129259
O O13 0.500000 0.927091 0.750000
O O14 0.425480 0.915769 0.619166
O O15 0.382495 0.146495 0.562248
O O16 0.000000 0.190080 0.750000
#
# Coordination Sequence:
#
# PCOD9260891 Si02
#       7
#     8   8   8   4   8   8   8
#     4  10  20  38  63  87 122 173 217 252 308 387
#     4  10  21  42  63  90 124 160 201 268 312 380
#     4  10  23  38  64  94 124 168 225 253 311 379
#     4  10  24  40  60  94 132 154 212 262 334 372
#     4  11  23  40  60  95 134 163 217 270 311 365
#     4  10  18  38  68  87 117 166 220 245 309 389
#     4  11  21  41  61  92 129 174 209 259 323 377
#
# _framework density 17.788019999999999
#
# number of rings (size 3 to 8) (size 9 to 14) (size 15 to 20)
#    0.462    1.231    6.154    0.462    0.000    7.385 
#    2.769    3.846    0.000    0.000    0.000    0.000 
#    0.000    0.000    0.000    0.000    0.000    0.000 
#
# Total GULP energy -144845.221177 kJ/mol
# GULP energy per Si atom -5570.970045 kJ/mol
# Density = 1.774753 g / cm^3
# Si number density = 17.788020 Si / 1000 Ang^3
#
#
#
# Elastic Constant Matrix: (Units=GPa)
#
#
# Indices 1 2 3 4 5 6 
#
# 1 112.1121 58.1397 59.0222 0.0000 4.6963 0.0000
# 2 58.1397 84.4693 57.4055 0.0000 0.5131 0.0000
# 3 59.0222 57.4055 123.6180 0.0000 -1.6675 0.0000
# 4 0.0000 0.0000 0.0000 -0.3784 0.0000 -24.2364
# 5 4.6963 0.5131 -1.6675 0.0000 38.0267 0.0000
# 6 0.0000 0.0000 0.0000 -24.2364 0.0000 25.1192
#
#
#
# Elastic Compliance Matrix: (Units=1/GPa)
#
#
# Indices 1 2 3 4 5 6 
#
# 1 0.014928 -0.007893 -0.003488 0.000000 -0.001890 0.000000
# 2 -0.007893 0.021484 -0.006203 0.000000 0.000413 0.000000
# 3 -0.003488 -0.006203 0.012649 0.000000 0.001069 0.000000
# 4 0.000000 0.000000 0.000000 -0.042082 0.000000 -0.040603
# 5 -0.001890 0.000413 0.001069 0.000000 0.026572 0.000000
# 6 0.000000 0.000000 0.000000 -0.040603 0.000000 0.000634
#
#
# Mechanical properties :
#
#
# Convention : Reuss Voigt Hill
#
# Bulk Modulus (GPa) = 71.96862 74.37048 73.16955
# Shear Modulus (GPa) = 67.58200 22.26231 44.92215
#
# Velocity S-wave (km/s) = 6.17053 3.54154 5.03080
# Velocity P-wave (km/s) = 9.55584 7.65659 8.65845
#
# Compressibility (1/GPa) = 0.01389495
#
# Stress axis : x y z
#
# Youngs Moduli (GPa) = 66.98695 46.54551 79.05545
#
# Poissons Ratio (x) = 0.36740 0.27571
# Poissons Ratio (y) = 0.52875 0.49034
# Poissons Ratio (z) = 0.23362 0.28870
#
# Static dielectric constant tensor:
#      x y z
#    x 1.615800 0.000000 0.011360 
#    y 0.000000 1.618640 0.000000 
#    z 0.011360 0.000000 1.613000 
# 
# From -- ./inp_files/139720.got.cif
#   From: 2010.05.17/outbox.cif.g08.bks.cpg/sg15_70_cif.got.tgz:139720.got - 2010.06.03 18:47:42.
