data_PCOD9260545
_publ_section_title
;
Structure prediction by ZEFSAII (Michael W. Deem and Ramdas Pophale) SiO2 
 PCOD9260545
Probable space group: C 2/C
;
_chemical_formula_sum "Si O2"
_cell_formula_units_Z 56
_cell_length_a 6.111047
_cell_length_b 29.719529
_cell_length_c 15.343845
_cell_angle_alpha 90.000000
_cell_angle_beta 109.000539
_cell_angle_gamma 90.000000
_cell_volume 2634.877370
_symmetry_space_group_name_H-M "C 2/C"
_symmetry_group_IT_number 15
_symmetry_cell_setting 'monoclinic'
loop_
_space_group_symop_operation_xyz
x,y,z
-x,y,1/2-z
-x,-y,-z
x,-y,1/2+z
1/2+x,1/2+y,z
1/2-x,1/2+y,1/2-z
1/2-x,1/2-y,-z
1/2+x,1/2-y,1/2+z
loop_
_atom_site_type_symbol
_atom_site_label
_atom_site_fract_x
_atom_site_fract_y
_atom_site_fract_z
Si Si1 0.145929 0.593409 0.356390
Si Si2 0.953719 0.918184 0.474745
Si Si3 0.066030 0.656075 0.881163
Si Si4 0.417967 0.006923 0.587510
Si Si5 0.135299 0.684277 0.459916
Si Si6 0.728797 0.417824 0.332988
Si Si7 0.884921 0.229548 0.934797
O O1 0.423420 0.589124 0.415517
O O2 0.089273 0.638054 0.404471
O O3 0.000000 0.601017 0.250000
O O4 0.077876 0.542675 0.373497
O O5 0.756742 0.881128 0.433153
O O6 0.824068 0.965853 0.445673
O O7 0.148649 0.913672 0.423978
O O8 0.209869 0.697371 0.859260
O O9 0.857810 0.626805 0.814679
O O10 0.952431 0.676371 0.953557
O O11 0.599820 0.040498 0.655285
O O12 0.500000 0.000000 0.500000
O O13 0.403401 0.698957 0.502024
O O14 0.999418 0.727374 0.403469
O O15 0.500000 0.425681 0.250000
O O16 0.750000 0.250000 0.000000
#
# Coordination Sequence:
#
# PCOD9260545 Si02
#       7
#     8   8   8   8   8   8   8
#     4  12  24  39  64  94 132 175 218 267 331 396
#     4  11  22  42  63  88 131 169 217 270 328 385
#     4  10  18  37  66  94 122 162 214 263 337 387
#     4  11  24  41  63  89 129 179 224 266 322 393
#     4  10  19  39  60  96 125 164 217 267 323 397
#     4  11  24  38  64  92 131 167 218 277 326 387
#     4   9  18  33  70  91 118 165 215 260 329 393
#
# _framework density 21.253363
#
# number of rings (size 3 to 8) (size 9 to 14) (size 15 to 20)
#    0.000    1.429    4.286    1.286    2.000    1.714 
#    0.000    2.143    0.000   20.571    0.000    0.000 
#    0.000    0.000    0.000    0.000    0.000    0.000 
#
# Total GULP energy -156061.221494 kJ/mol
# GULP energy per Si atom -5573.615053 kJ/mol
# Density = 2.120499 g / cm^3
# Si number density = 21.253363 Si / 1000 Ang^3
#
#
#
# Elastic Constant Matrix: (Units=GPa)
#
#
# Indices 1 2 3 4 5 6 
#
# 1 78.8815 34.1664 10.2439 0.0000 16.0825 0.0000
# 2 34.1664 137.4321 19.5578 0.0000 17.9232 0.0000
# 3 10.2439 19.5578 78.9417 0.0000 25.9340 0.0000
# 4 0.0000 0.0000 0.0000 17.1285 0.0000 1.0369
# 5 16.0825 17.9232 25.9340 0.0000 31.8718 0.0000
# 6 0.0000 0.0000 0.0000 1.0369 0.0000 39.8470
#
#
#
# Elastic Compliance Matrix: (Units=1/GPa)
#
#
# Indices 1 2 3 4 5 6 
#
# 1 0.015254 -0.003049 0.001012 0.000000 -0.006806 0.000000
# 2 -0.003049 0.008488 -0.000880 0.000000 -0.002519 0.000000
# 3 0.001012 -0.000880 0.017415 0.000000 -0.014186 0.000000
# 4 0.000000 0.000000 0.000000 0.058474 0.000000 -0.001522
# 5 -0.006806 -0.002519 -0.014186 0.000000 0.047770 0.000000
# 6 0.000000 0.000000 0.000000 -0.001522 0.000000 0.025136
#
#
# Mechanical properties :
#
#
# Convention : Reuss Voigt Hill
#
# Bulk Modulus (GPa) = 28.30979 47.02126 37.66553
# Shear Modulus (GPa) = 26.29591 33.18862 29.74227
#
# Velocity S-wave (km/s) = 3.52129 3.95596 3.74493
# Velocity P-wave (km/s) = 5.46641 6.56036 6.03821
#
# Compressibility (1/GPa) = 0.03532347
#
# Stress axis : x y z
#
# Youngs Moduli (GPa) = 65.55686 117.81423 57.42291
#
# Poissons Ratio (x) = 0.35917 -0.05810
# Poissons Ratio (y) = 0.19986 0.05052
# Poissons Ratio (z) = -0.06633 0.10364
#
# Static dielectric constant tensor:
#      x y z
#    x 1.799960 0.000000 0.003380 
#    y 0.000000 1.847610 0.000000 
#    z 0.003380 0.000000 1.819180 
# 
# From -- ./inp_files/130780.got.cif
#   From: 2010.05.17/outbox.cif.g08.bks.cpg/sg15_66_cif.got.tgz:130780.got - 2010.06.03 18:47:42.
