data_PCOD9260381
_publ_section_title
;
Structure prediction by ZEFSAII (Michael W. Deem and Ramdas Pophale) SiO2 
 PCOD9260381
Probable space group: C 2/C
;
_chemical_formula_sum "Si O2"
_cell_formula_units_Z 48
_cell_length_a 12.935385
_cell_length_b 11.697298
_cell_length_c 27.733581
_cell_angle_alpha 90.000000
_cell_angle_beta 150.212810
_cell_angle_gamma 90.000000
_cell_volume 2084.658453
_symmetry_space_group_name_H-M "C 2/C"
_symmetry_group_IT_number 15
_symmetry_cell_setting 'monoclinic'
loop_
_space_group_symop_operation_xyz
x,y,z
-x,y,1/2-z
-x,-y,-z
x,-y,1/2+z
1/2+x,1/2+y,z
1/2-x,1/2+y,1/2-z
1/2-x,1/2-y,-z
1/2+x,1/2-y,1/2+z
loop_
_atom_site_type_symbol
_atom_site_label
_atom_site_fract_x
_atom_site_fract_y
_atom_site_fract_z
Si Si1 0.895652 0.670959 0.002310
Si Si2 0.001030 0.895343 0.610657
Si Si3 0.292620 0.424009 0.982435
Si Si4 0.429295 0.888927 0.167510
Si Si5 0.590957 0.209302 0.991474
Si Si6 0.659158 0.669204 0.269341
O O1 0.745208 0.602800 0.976285
O O2 0.110537 0.665612 0.118503
O O3 0.818524 0.801961 0.968594
O O4 0.954072 0.634943 0.972176
O O5 0.763506 0.861795 0.531917
O O6 0.054819 0.781539 0.602747
O O7 0.122072 0.912718 0.708942
O O8 0.997121 0.997148 0.570474
O O9 0.123574 0.502522 0.886789
O O10 0.500000 0.923434 0.250000
O O11 0.607756 0.795980 0.227971
O O12 0.226776 0.803730 0.077493
O O13 0.500000 0.649509 0.250000
#
# Coordination Sequence:
#
# PCOD9260381 Si02
#       6
#     8   8   8   8   8   8
#     4  11  21  39  54  79 119 150 167 230 293 316
#     4   9  18  35  58  85 100 140 197 223 261 335
#     4  10  24  35  54  83 118 148 178 221 285 331
#     4   9  16  35  58  82 104 141 194 226 262 324
#     4   9  17  34  59  78 111 141 180 232 271 319
#     4  10  18  37  60  81 109 143 187 235 270 314
#
# _framework density 23.025354
#
# number of rings (size 3 to 8) (size 9 to 14) (size 15 to 20)
#    0.000    2.333    5.000    1.000    0.000    4.667 
#    3.000    0.000    0.000    0.000    0.000    0.000 
#    0.000    0.000    0.000    0.000    0.000    0.000 
#
# Total GULP energy -133707.909203 kJ/mol
# GULP energy per Si atom -5571.162883 kJ/mol
# Density = 2.297295 g / cm^3
# Si number density = 23.025354 Si / 1000 Ang^3
#
#
#
# Elastic Constant Matrix: (Units=GPa)
#
#
# Indices 1 2 3 4 5 6 
#
# 1 47.1138 -0.9660 -1.6510 0.0000 -19.6802 0.0001
# 2 -0.9660 69.0923 0.1232 0.0000 -10.7445 0.0000
# 3 -1.6510 0.1232 56.7897 -0.0006 -27.7533 0.0003
# 4 0.0000 0.0000 -0.0006 25.8570 0.0000 -9.3859
# 5 -19.6802 -10.7445 -27.7533 0.0000 38.8690 0.0001
# 6 0.0001 0.0000 0.0003 -9.3859 0.0001 6.8150
#
#
#
# Elastic Compliance Matrix: (Units=1/GPa)
#
#
# Indices 1 2 3 4 5 6 
#
# 1 0.034424 0.005124 0.015667 0.000000 0.030032 -0.000002
# 2 0.005124 0.016247 0.005493 0.000000 0.011008 -0.000001
# 3 0.015667 0.005493 0.034822 0.000000 0.034314 -0.000002
# 4 0.000000 0.000000 0.000000 0.077338 0.000000 0.106514
# 5 0.030032 0.011008 0.034314 0.000000 0.068477 -0.000004
# 6 -0.000002 -0.000001 -0.000002 0.106514 -0.000004 0.293433
#
#
# Mechanical properties :
#
#
# Convention : Reuss Voigt Hill
#
# Bulk Modulus (GPa) = 7.24325 18.66758 12.95542
# Shear Modulus (GPa) = 9.64887 26.00750 17.82819
#
# Velocity S-wave (km/s) = 2.04930 3.36447 2.78562
# Velocity P-wave (km/s) = 2.95840 4.81850 3.99813
#
# Compressibility (1/GPa) = 0.13805959
#
# Stress axis : x y z
#
# Youngs Moduli (GPa) = 29.04932 61.54979 28.71762
#
# Poissons Ratio (x) = -0.31536 -0.44990
# Poissons Ratio (y) = -0.14884 -0.15775
# Poissons Ratio (z) = -0.45510 -0.33810
#
# Static dielectric constant tensor:
#      x y z
#    x 1.948530 0.000000 -0.001700 
#    y 0.000000 1.896490 0.000000 
#    z -0.001700 0.000000 1.862880 
# 
# From -- ./inp_files/313635.got.cif
#   From: 2010.05.17/outbox.cif.g08.bks.cpg/sg15_157_cif.got.tgz:313635.got - 2010.06.03 18:47:42.
