data_PCOD9260141
_publ_section_title
;
Structure prediction by ZEFSAII (Michael W. Deem and Ramdas Pophale) SiO2 
 PCOD9260141
Probable space group: C 2/C
;
_chemical_formula_sum "Si O2"
_cell_formula_units_Z 60
_cell_length_a 26.885210
_cell_length_b 17.738901
_cell_length_c 5.598108
_cell_angle_alpha 90.000000
_cell_angle_beta 94.747217
_cell_angle_gamma 90.000000
_cell_volume 2660.657776
_symmetry_space_group_name_H-M "C 2/C"
_symmetry_group_IT_number 15
_symmetry_cell_setting 'monoclinic'
loop_
_space_group_symop_operation_xyz
x,y,z
-x,y,1/2-z
-x,-y,-z
x,-y,1/2+z
1/2+x,1/2+y,z
1/2-x,1/2+y,1/2-z
1/2-x,1/2-y,-z
1/2+x,1/2-y,1/2+z
loop_
_atom_site_type_symbol
_atom_site_label
_atom_site_fract_x
_atom_site_fract_y
_atom_site_fract_z
Si Si1 0.377935 0.278869 0.795253
Si Si2 0.500000 0.048267 0.750000
Si Si3 0.950135 0.315418 0.010723
Si Si4 0.150021 0.514194 0.233465
Si Si5 0.760401 0.960102 0.263109
Si Si6 0.021488 0.180572 0.005045
Si Si7 0.795877 0.800786 0.432297
Si Si8 0.357988 0.176711 0.174789
O O1 0.415594 0.248987 0.610642
O O2 0.418169 0.320074 0.980093
O O3 0.331697 0.322937 0.668946
O O4 0.357339 0.201783 0.902090
O O5 0.542927 0.110899 0.824947
O O6 0.500000 0.000000 0.500000
O O7 0.001014 0.268011 0.994749
O O8 0.915859 0.336802 0.771627
O O9 0.122846 0.500821 0.473679
O O10 0.199888 0.464225 0.247459
O O11 0.167847 0.600546 0.253064
O O12 0.778177 0.874467 0.288491
O O13 0.775932 0.997732 0.016819
O O14 0.000000 0.149113 0.250000
O O15 0.000000 0.147260 0.750000
O O16 0.750000 0.750000 0.500000
O O17 0.830264 0.746357 0.286987
#
# Coordination Sequence:
#
# PCOD9260141 Si02
#       8
#     8   4   8   8   8   8   8   8
#     4  10  22  37  64  91 123 163 212 283 330 381
#     4  12  28  38  58  86 126 182 232 262 320 392
#     4  10  22  41  59  83 125 164 209 275 327 376
#     4  10  23  41  59  82 120 168 214 262 325 389
#     4  10  23  43  65  85 126 174 211 257 334 401
#     4  10  18  36  63  84 120 163 190 253 334 379
#     4  11  25  41  63  98 129 169 228 286 333 392
#     4  11  24  38  68  92 125 166 228 286 328 388
#
# _framework density 22.550813999999999
#
# number of rings (size 3 to 8) (size 9 to 14) (size 15 to 20)
#    0.000    1.600    3.333    1.600   12.133    1.600 
#    0.000    0.000    0.000    0.000    0.000    0.000 
#    0.000   33.067    0.000    0.000    0.000    0.000 
#
# Total GULP energy -167173.152308 kJ/mol
# GULP energy per Si atom -5572.438410 kJ/mol
# Density = 2.249949 g / cm^3
# Si number density = 22.550814 Si / 1000 Ang^3
#
#
#
# Elastic Constant Matrix: (Units=GPa)
#
#
# Indices 1 2 3 4 5 6 
#
# 1 99.9273 21.6815 12.3157 0.0000 16.8190 0.0000
# 2 21.6815 61.2924 18.6851 0.0000 4.2790 0.0000
# 3 12.3157 18.6851 129.9985 0.0000 0.2073 0.0000
# 4 0.0000 0.0000 0.0000 30.2262 0.0000 10.1856
# 5 16.8190 4.2790 0.2073 0.0000 23.7339 0.0000
# 6 0.0000 0.0000 0.0000 10.1856 0.0000 27.0263
#
#
#
# Elastic Compliance Matrix: (Units=1/GPa)
#
#
# Indices 1 2 3 4 5 6 
#
# 1 0.012206 -0.003567 -0.000631 0.000000 -0.008001 0.000000
# 2 -0.003567 0.018330 -0.002295 0.000000 -0.000757 0.000000
# 3 -0.000631 -0.002295 0.008081 0.000000 0.000790 0.000000
# 4 0.000000 0.000000 0.000000 0.037897 0.000000 -0.014283
# 5 -0.008001 -0.000757 0.000790 0.000000 0.047933 0.000000
# 6 0.000000 0.000000 0.000000 -0.014283 0.000000 0.042384
#
#
# Mechanical properties :
#
#
# Convention : Reuss Voigt Hill
#
# Bulk Modulus (GPa) = 39.01702 44.06476 41.54089
# Shear Modulus (GPa) = 26.54502 32.09966 29.32234
#
# Velocity S-wave (km/s) = 3.43464 3.77694 3.60985
# Velocity P-wave (km/s) = 5.75051 6.21313 5.98629
#
# Compressibility (1/GPa) = 0.02562984
#
# Stress axis : x y z
#
# Youngs Moduli (GPa) = 81.92983 54.55672 123.74944
#
# Poissons Ratio (x) = 0.19459 0.07807
# Poissons Ratio (y) = 0.29222 0.28406
# Poissons Ratio (z) = 0.05169 0.12523
#
# Static dielectric constant tensor:
#      x y z
#    x 1.923920 0.000000 0.262780 
#    y 0.000000 1.814400 0.000000 
#    z 0.262780 0.000000 4.941950 
# 
# From -- ./inp_files/17198.got.cif
#   From: 2010.05.17/outbox.cif.g08.bks.cpg/sg15_9_cif.got.tgz:17198.got - 2010.06.03 18:47:42.
