data_PCOD9260314
_publ_section_title
;
Structure prediction by ZEFSAII (Michael W. Deem and Ramdas Pophale) SiO2 
 PCOD9260314
Probable space group: C 2/C
;
_chemical_formula_sum "Si O2"
_cell_formula_units_Z 56
_cell_length_a 5.598541
_cell_length_b 22.579878
_cell_length_c 23.331080
_cell_angle_alpha 90.000000
_cell_angle_beta 100.713116
_cell_angle_gamma 90.000000
_cell_volume 2897.976875
_symmetry_space_group_name_H-M "C 2/C"
_symmetry_group_IT_number 15
_symmetry_cell_setting 'monoclinic'
loop_
_space_group_symop_operation_xyz
x,y,z
-x,y,1/2-z
-x,-y,-z
x,-y,1/2+z
1/2+x,1/2+y,z
1/2-x,1/2+y,1/2-z
1/2-x,1/2-y,-z
1/2+x,1/2-y,1/2+z
loop_
_atom_site_type_symbol
_atom_site_label
_atom_site_fract_x
_atom_site_fract_y
_atom_site_fract_z
Si Si1 0.776086 0.185321 0.783946
Si Si2 0.300712 0.824822 0.810978
Si Si3 0.313122 0.550650 0.510866
Si Si4 0.509592 0.990186 0.904487
Si Si5 0.191607 0.129803 0.178356
Si Si6 0.553652 0.487199 0.818841
Si Si7 0.121298 0.092164 0.617301
O O1 0.500000 0.172116 0.750000
O O2 0.793805 0.255598 0.795239
O O3 0.807352 0.150054 0.844915
O O4 0.000000 0.170209 0.750000
O O5 0.573163 0.842649 0.841313
O O6 0.247844 0.859836 0.748826
O O7 0.071088 0.839001 0.841407
O O8 0.500000 0.500000 0.500000
O O9 0.150697 0.519798 0.552113
O O10 0.464700 0.600038 0.552119
O O11 0.159048 0.559689 0.446402
O O12 0.323620 0.967006 0.848360
O O13 0.663956 0.046058 0.888588
O O14 0.136779 0.060735 0.164834
O O15 0.500000 0.489780 0.750000
O O16 0.526878 0.551872 0.844149
#
# Coordination Sequence:
#
# PCOD9260314 Si02
#       7
#     8   8   8   8   8   8   8
#     4  12  23  37  54  78 121 152 190 229 275 341
#     4  10  18  37  52  71  98 155 196 226 255 316
#     4   8  16  37  54  70 102 139 194 224 262 338
#     4   9  19  34  53  75 108 145 180 225 276 335
#     4  10  19  34  54  71 104 145 197 225 258 320
#     4  11  22  32  48  82 119 146 174 223 286 339
#     4  10  23  32  52  82 112 149 178 226 284 333
#
# _framework density 19.323827000000001
#
# number of rings (size 3 to 8) (size 9 to 14) (size 15 to 20)
#    0.000    2.000    4.286    0.429    8.000    0.000 
#    0.000    0.000    0.000    0.000    0.000    2.000 
#    0.000    0.000    0.000    0.000    0.000    0.000 
#
# Total GULP energy -155904.917362 kJ/mol
# GULP energy per Si atom -5568.032763 kJ/mol
# Density = 1.927984 g / cm^3
# Si number density = 19.323827 Si / 1000 Ang^3
#
#
#
# Elastic Constant Matrix: (Units=GPa)
#
#
# Indices 1 2 3 4 5 6 
#
# 1 123.4235 0.7444 24.3123 0.0000 14.8913 0.0000
# 2 0.7444 48.9972 12.5585 0.0000 7.7559 0.0000
# 3 24.3123 12.5585 102.6909 0.0000 24.3673 0.0000
# 4 0.0000 0.0000 0.0000 9.5735 0.0000 2.0626
# 5 14.8913 7.7559 24.3673 0.0000 34.7405 0.0000
# 6 0.0000 0.0000 0.0000 2.0626 0.0000 17.3983
#
#
#
# Elastic Compliance Matrix: (Units=1/GPa)
#
#
# Indices 1 2 3 4 5 6 
#
# 1 0.008734 0.000699 -0.001473 0.000000 -0.002867 0.000000
# 2 0.000699 0.021481 -0.001900 0.000000 -0.003763 0.000000
# 3 -0.001473 -0.001900 0.012079 0.000000 -0.007417 0.000000
# 4 0.000000 0.000000 0.000000 0.107193 0.000000 -0.012708
# 5 -0.002867 -0.003763 -0.007417 0.000000 0.036056 0.000000
# 6 0.000000 0.000000 0.000000 -0.012708 0.000000 0.058984
#
#
# Mechanical properties :
#
#
# Convention : Reuss Voigt Hill
#
# Bulk Modulus (GPa) = 27.06635 38.92686 32.99661
# Shear Modulus (GPa) = 19.07011 28.17554 23.62282
#
# Velocity S-wave (km/s) = 3.14486 3.82261 3.50018
# Velocity P-wave (km/s) = 5.21766 6.29852 5.78340
#
# Compressibility (1/GPa) = 0.03694624
#
# Stress axis : x y z
#
# Youngs Moduli (GPa) = 114.49525 46.55225 82.78878
#
# Poissons Ratio (x) = -0.03252 0.12195
# Poissons Ratio (y) = -0.07999 0.15726
# Poissons Ratio (z) = 0.16866 0.08843
#
# Static dielectric constant tensor:
#      x y z
#    x 1.825280 0.000000 0.018040 
#    y 0.000000 1.644260 0.000000 
#    z 0.018040 0.000000 1.709690 
# 
# From -- ./inp_files/261337.got.cif
#   From: 2010.05.17/outbox.cif.g08.bks.cpg/sg15_131_cif.got.tgz:261337.got - 2010.06.03 18:47:42.
