data_PCOD9260465
_publ_section_title
;
Structure prediction by ZEFSAII (Michael W. Deem and Ramdas Pophale) SiO2 
 PCOD9260465
Probable space group: C 2/C
;
_chemical_formula_sum "Si O2"
_cell_formula_units_Z 40
_cell_length_a 7.843870
_cell_length_b 25.406083
_cell_length_c 11.286184
_cell_angle_alpha 90.000000
_cell_angle_beta 119.637241
_cell_angle_gamma 90.000000
_cell_volume 1954.887637
_symmetry_space_group_name_H-M "C 2/C"
_symmetry_group_IT_number 15
_symmetry_cell_setting 'monoclinic'
loop_
_space_group_symop_operation_xyz
x,y,z
-x,y,1/2-z
-x,-y,-z
x,-y,1/2+z
1/2+x,1/2+y,z
1/2-x,1/2+y,1/2-z
1/2-x,1/2-y,-z
1/2+x,1/2-y,1/2+z
loop_
_atom_site_type_symbol
_atom_site_label
_atom_site_fract_x
_atom_site_fract_y
_atom_site_fract_z
Si Si1 0.230457 0.739846 0.853990
Si Si2 0.780556 0.454230 0.672029
Si Si3 0.491599 0.548043 0.875229
Si Si4 0.204761 0.627114 0.887598
Si Si5 0.737378 0.353375 0.819824
O O1 0.304102 0.680227 0.866285
O O2 0.302565 0.792974 0.814438
O O3 0.000000 0.735509 0.750000
O O4 0.250000 0.750000 0.000000
O O5 0.618748 0.492102 0.676532
O O6 0.701414 0.452419 0.510394
O O7 0.785729 0.398094 0.740845
O O8 0.000000 0.476422 0.750000
O O9 0.500000 0.573447 0.750000
O O10 0.351430 0.579989 0.914330
O O11 0.000000 0.618369 0.750000
O O12 0.180018 0.633481 0.020645
O O13 0.500000 0.352098 0.750000
#
# Coordination Sequence:
#
# PCOD9260465 Si02
#       5
#     8   8   8   8   8
#     4   8  16  30  56  87 114 150 193 235 279 336
#     4  11  25  41  61  86 114 157 198 238 295 350
#     4  11  25  41  59  85 121 152 193 246 293 345
#     4  10  20  36  60  91 119 153 195 239 288 337
#     4  10  18  37  63  85 118 155 197 240 282 343
#
# _framework density 20.461535000000001
#
# number of rings (size 3 to 8) (size 9 to 14) (size 15 to 20)
#    0.000    2.000    2.000    1.200    5.600    0.800 
#    0.000    1.000    0.000    2.400    0.000    0.000 
#    0.000    0.000    0.000    0.000    0.000    0.000 
#
# Total GULP energy -111423.284389 kJ/mol
# GULP energy per Si atom -5571.164219 kJ/mol
# Density = 2.041496 g / cm^3
# Si number density = 20.461535 Si / 1000 Ang^3
#
#
#
# Elastic Constant Matrix: (Units=GPa)
#
#
# Indices 1 2 3 4 5 6 
#
# 1 25.2301 8.1492 29.6311 0.0000 5.7381 0.0000
# 2 8.1492 117.3688 7.5966 0.0000 -2.3515 0.0000
# 3 29.6311 7.5966 148.6618 0.0000 26.8016 0.0000
# 4 0.0000 0.0000 0.0000 26.9332 0.0000 -2.4248
# 5 5.7381 -2.3515 26.8016 0.0000 25.7041 0.0000
# 6 0.0000 0.0000 0.0000 -2.4248 0.0000 11.7215
#
#
#
# Elastic Compliance Matrix: (Units=1/GPa)
#
#
# Indices 1 2 3 4 5 6 
#
# 1 0.052826 -0.003045 -0.010095 0.000000 -0.001545 0.000000
# 2 -0.003045 0.008773 -0.000134 0.000000 0.001622 0.000000
# 3 -0.010095 -0.000134 0.010273 0.000000 -0.008470 0.000000
# 4 0.000000 0.000000 0.000000 0.037834 0.000000 0.007827
# 5 -0.001545 0.001622 -0.008470 0.000000 0.048229 0.000000
# 6 0.000000 0.000000 0.000000 0.007827 0.000000 0.086933
#
#
# Mechanical properties :
#
#
# Convention : Reuss Voigt Hill
#
# Bulk Modulus (GPa) = 22.06365 42.44605 32.25485
# Shear Modulus (GPa) = 17.45060 29.26400 23.35730
#
# Velocity S-wave (km/s) = 2.92353 3.78590 3.38231
# Velocity P-wave (km/s) = 4.71194 6.31665 5.57236
#
# Compressibility (1/GPa) = 0.04532342
#
# Stress axis : x y z
#
# Youngs Moduli (GPa) = 18.93000 113.98936 97.34608
#
# Poissons Ratio (x) = 0.34714 0.98271
# Poissons Ratio (y) = 0.05765 0.01301
# Poissons Ratio (z) = 0.19110 0.01524
#
# Static dielectric constant tensor:
#      x y z
#    x 1.692660 0.000000 0.001550 
#    y 0.000000 1.827730 0.000000 
#    z 0.001550 0.000000 1.746570 
# 
# From -- ./inp_files/23601.got.cif
#   From: 2010.05.17/outbox.cif.g08.bks.cpg/sg15_12_cif.got.tgz:23601.got - 2010.06.03 18:47:42.
