data_PCOD9260853
_publ_section_title
;
Structure prediction by ZEFSAII (Michael W. Deem and Ramdas Pophale) SiO2 
 PCOD9260853
Probable space group: C 2/C
;
_chemical_formula_sum "Si O2"
_cell_formula_units_Z 52
_cell_length_a 16.989997
_cell_length_b 11.060999
_cell_length_c 15.412179
_cell_angle_alpha 90.000000
_cell_angle_beta 61.957139
_cell_angle_gamma 90.000000
_cell_volume 2556.311233
_symmetry_space_group_name_H-M "C 2/C"
_symmetry_group_IT_number 15
_symmetry_cell_setting 'monoclinic'
loop_
_space_group_symop_operation_xyz
x,y,z
-x,y,1/2-z
-x,-y,-z
x,-y,1/2+z
1/2+x,1/2+y,z
1/2-x,1/2+y,1/2-z
1/2-x,1/2-y,-z
1/2+x,1/2-y,1/2+z
loop_
_atom_site_type_symbol
_atom_site_label
_atom_site_fract_x
_atom_site_fract_y
_atom_site_fract_z
Si Si1 0.692653 0.998029 0.864343
Si Si2 0.000000 0.240689 0.750000
Si Si3 0.890600 0.749702 0.045917
Si Si4 0.879495 0.933178 0.195872
Si Si5 0.057960 0.625087 0.051829
Si Si6 0.551455 0.924898 0.314320
Si Si7 0.989823 0.841550 0.654817
O O1 0.795092 0.019067 0.792367
O O2 0.641168 0.007440 0.797508
O O3 0.672022 0.867066 0.915743
O O4 0.647083 0.099540 0.950675
O O5 0.065666 0.156641 0.770641
O O6 0.055946 0.319114 0.650200
O O7 0.852644 0.854787 0.126459
O O8 0.986121 0.707779 0.038374
O O9 0.917789 0.803564 0.938884
O O10 0.941249 0.045864 0.136193
O O11 0.017133 0.490738 0.085255
O O12 0.500000 0.936370 0.250000
O O13 0.565991 0.782791 0.318635
O O14 0.000000 0.874943 0.750000
#
# Coordination Sequence:
#
# PCOD9260853 Si02
#       7
#     8   4   8   8   8   8   8
#     4  11  22  39  64 100 122 158 214 278 297 374
#     4  10  22  42  64  90 122 184 198 262 310 390
#     4  10  21  40  66  89 122 175 208 251 320 381
#     4  11  25  40  62  91 136 161 213 255 325 365
#     4  10  18  38  66  89 123 155 226 245 317 371
#     4  10  19  36  64  93 117 162 205 253 314 373
#     4  11  21  40  65  86 127 171 208 247 317 393
#
# _framework density 20.341809999999999
#
# number of rings (size 3 to 8) (size 9 to 14) (size 15 to 20)
#    0.000    1.538    4.615    1.385    2.154    0.615 
#    0.000    2.308    0.000    0.000    0.000    0.000 
#    0.000    0.000    0.000    0.000    0.000    0.000 
#
# Total GULP energy -144887.772567 kJ/mol
# GULP energy per Si atom -5572.606637 kJ/mol
# Density = 2.029551 g / cm^3
# Si number density = 20.341810 Si / 1000 Ang^3
#
#
#
# Elastic Constant Matrix: (Units=GPa)
#
#
# Indices 1 2 3 4 5 6 
#
# 1 32.9315 15.0505 27.5207 0.0000 7.4208 0.0000
# 2 15.0505 106.6367 46.0317 0.0000 -6.0437 0.0000
# 3 27.5207 46.0317 116.8085 0.0000 1.0632 0.0000
# 4 0.0000 0.0000 0.0000 15.0550 0.0000 -3.5762
# 5 7.4208 -6.0437 1.0632 0.0000 33.1935 0.0000
# 6 0.0000 0.0000 0.0000 -3.5762 0.0000 6.9970
#
#
#
# Elastic Compliance Matrix: (Units=1/GPa)
#
#
# Indices 1 2 3 4 5 6 
#
# 1 0.040753 -0.002617 -0.008486 0.000000 -0.009315 0.000000
# 2 -0.002617 0.011631 -0.003993 0.000000 0.002831 0.000000
# 3 -0.008486 -0.003993 0.012127 0.000000 0.000782 0.000000
# 4 0.000000 0.000000 0.000000 0.075602 0.000000 0.038641
# 5 -0.009315 0.002831 0.000782 0.000000 0.032699 0.000000
# 6 0.000000 0.000000 0.000000 0.038641 0.000000 0.162668
#
#
# Mechanical properties :
#
#
# Convention : Reuss Voigt Hill
#
# Bulk Modulus (GPa) = 29.13754 48.17584 38.65669
# Shear Modulus (GPa) = 13.25876 22.23401 17.74638
#
# Velocity S-wave (km/s) = 2.55580 3.30967 2.95686
# Velocity P-wave (km/s) = 4.80256 6.19192 5.54096
#
# Compressibility (1/GPa) = 0.03431999
#
# Stress axis : x y z
#
# Youngs Moduli (GPa) = 24.53836 85.97775 82.46337
#
# Poissons Ratio (x) = 0.22498 0.69975
# Poissons Ratio (y) = 0.06421 0.32925
# Poissons Ratio (z) = 0.20822 0.34329
#
# Static dielectric constant tensor:
#      x y z
#    x 1.754290 0.000000 0.050510 
#    y 0.000000 1.745050 0.000000 
#    z 0.050510 0.000000 1.771550 
# 
# From -- ./inp_files/215009.got.cif
#   From: 2010.05.17/outbox.cif.g08.bks.cpg/sg15_108_cif.got.tgz:215009.got - 2010.06.03 18:47:42.
