data_PCOD9260740
_publ_section_title
;
Structure prediction by ZEFSAII (Michael W. Deem and Ramdas Pophale) SiO2 
 PCOD9260740
Probable space group: C 2/C
;
_chemical_formula_sum "Si O2"
_cell_formula_units_Z 60
_cell_length_a 21.499982
_cell_length_b 8.336000
_cell_length_c 14.673669
_cell_angle_alpha 90.000000
_cell_angle_beta 99.593025
_cell_angle_gamma 90.000000
_cell_volume 2593.096201
_symmetry_space_group_name_H-M "C 2/C"
_symmetry_group_IT_number 15
_symmetry_cell_setting 'monoclinic'
loop_
_space_group_symop_operation_xyz
x,y,z
-x,y,1/2-z
-x,-y,-z
x,-y,1/2+z
1/2+x,1/2+y,z
1/2-x,1/2+y,1/2-z
1/2-x,1/2-y,-z
1/2+x,1/2-y,1/2+z
loop_
_atom_site_type_symbol
_atom_site_label
_atom_site_fract_x
_atom_site_fract_y
_atom_site_fract_z
Si Si1 0.679360 0.010423 0.650380
Si Si2 0.928888 0.326169 0.442517
Si Si3 0.349476 0.509696 0.386050
Si Si4 0.771450 0.572671 0.533232
Si Si5 0.500000 0.220237 0.250000
Si Si6 0.206727 0.804270 0.272875
Si Si7 0.877443 0.391878 0.630001
Si Si8 0.531098 0.659928 0.552489
O O1 0.604500 0.038594 0.625489
O O2 0.720087 0.153729 0.703557
O O3 0.708142 0.005404 0.556434
O O4 0.695716 0.847610 0.705268
O O5 0.905079 0.356239 0.538500
O O6 0.002729 0.297579 0.478918
O O7 0.893266 0.165279 0.400079
O O8 0.286940 0.514072 0.431706
O O9 0.327535 0.456082 0.280824
O O10 0.394486 0.366350 0.433803
O O11 0.750000 0.750000 0.500000
O O12 0.833026 0.548767 0.612743
O O13 0.562708 0.119008 0.288832
O O14 0.486524 0.315943 0.343454
O O15 0.170701 0.750901 0.354640
O O16 0.500000 0.500000 0.500000
#
# Coordination Sequence:
#
# PCOD9260740 Si02
#       8
#     8   8   8   8   4   8   8   8
#     4  11  23  37  57  88 119 161 201 256 312 373
#     4   9  20  39  61  85 117 159 207 246 305 381
#     4  11  20  38  60  89 122 155 203 251 308 377
#     4  11  22  39  57  85 123 162 203 252 311 379
#     4  10  18  38  62  94 126 160 224 262 302 390
#     4  12  22  35  58  89 118 153 199 254 318 366
#     4  10  21  37  61  86 119 165 206 255 308 372
#     4   9  19  36  64  90 121 163 205 259 312 367
#
# _framework density 23.138362000000001
#
# number of rings (size 3 to 8) (size 9 to 14) (size 15 to 20)
#    0.000    1.600    2.667    3.200    0.000    2.133 
#    0.000    2.000    0.000    0.000    0.000    0.000 
#    0.000    0.000    0.000    0.000    0.000    0.000 
#
# Total GULP energy -167409.348852 kJ/mol
# GULP energy per Si atom -5580.311628 kJ/mol
# Density = 2.308570 g / cm^3
# Si number density = 23.138362 Si / 1000 Ang^3
#
#
#
# Elastic Constant Matrix: (Units=GPa)
#
#
# Indices 1 2 3 4 5 6 
#
# 1 88.8153 13.9292 37.6843 0.0000 27.9274 0.0000
# 2 13.9292 65.7681 46.7908 0.0000 14.6791 0.0000
# 3 37.6843 46.7908 97.8056 0.0000 24.3537 0.0000
# 4 0.0000 0.0000 0.0000 38.0960 0.0000 9.2316
# 5 27.9274 14.6791 24.3537 0.0000 50.4637 0.0000
# 6 0.0000 0.0000 0.0000 9.2316 0.0000 27.4282
#
#
#
# Elastic Compliance Matrix: (Units=1/GPa)
#
#
# Indices 1 2 3 4 5 6 
#
# 1 0.015178 0.001886 -0.005140 0.000000 -0.006468 0.000000
# 2 0.001886 0.023395 -0.011325 0.000000 -0.002383 0.000000
# 3 -0.005140 -0.011325 0.018292 0.000000 -0.002689 0.000000
# 4 0.000000 0.000000 0.000000 0.028581 0.000000 -0.009620
# 5 -0.006468 -0.002383 -0.002689 0.000000 0.025387 0.000000
# 6 0.000000 0.000000 0.000000 -0.009620 0.000000 0.039697
#
#
# Mechanical properties :
#
#
# Convention : Reuss Voigt Hill
#
# Bulk Modulus (GPa) = 36.09253 49.91084 43.00169
# Shear Modulus (GPa) = 26.46571 33.46322 29.96447
#
# Velocity S-wave (km/s) = 3.38568 3.80705 3.60253
# Velocity P-wave (km/s) = 5.56024 6.39861 5.99410
#
# Compressibility (1/GPa) = 0.02770656
#
# Stress axis : x y z
#
# Youngs Moduli (GPa) = 65.88413 42.74431 54.66752
#
# Poissons Ratio (x) = -0.08060 0.28097
# Poissons Ratio (y) = -0.12423 0.61913
# Poissons Ratio (z) = 0.33862 0.48410
#
# Static dielectric constant tensor:
#      x y z
#    x 1.874680 0.000000 0.035310 
#    y 0.000000 1.872420 0.000000 
#    z 0.035310 0.000000 1.923970 
# 
# From -- ./inp_files/172430.got.cif
#   From: 2010.05.17/outbox.cif.g08.bks.cpg/sg15_87_cif.got.tgz:172430.got - 2010.06.03 18:47:42.
