data_PCOD9260032
_publ_section_title
;
Structure prediction by ZEFSAII (Michael W. Deem and Ramdas Pophale) SiO2 
 PCOD9260032
Probable space group: C 2/C
;
_chemical_formula_sum "Si O2"
_cell_formula_units_Z 56
_cell_length_a 16.978802
_cell_length_b 8.554715
_cell_length_c 27.521598
_cell_angle_alpha 90.000000
_cell_angle_beta 42.094972
_cell_angle_gamma 90.000000
_cell_volume 2679.756316
_symmetry_space_group_name_H-M "C 2/C"
_symmetry_group_IT_number 15
_symmetry_cell_setting 'monoclinic'
loop_
_space_group_symop_operation_xyz
x,y,z
-x,y,1/2-z
-x,-y,-z
x,-y,1/2+z
1/2+x,1/2+y,z
1/2-x,1/2+y,1/2-z
1/2-x,1/2-y,-z
1/2+x,1/2-y,1/2+z
loop_
_atom_site_type_symbol
_atom_site_label
_atom_site_fract_x
_atom_site_fract_y
_atom_site_fract_z
Si Si1 0.278301 0.678080 0.538846
Si Si2 0.998993 0.163969 0.651171
Si Si3 0.306353 0.843078 0.890595
Si Si4 0.614348 0.416163 0.668022
Si Si5 0.917114 0.335098 0.979399
Si Si6 0.274493 0.321029 0.311459
Si Si7 0.991480 0.671864 0.557509
O O1 0.250000 0.750000 0.500000
O O2 0.232668 0.506010 0.569781
O O3 0.209751 0.790157 0.608108
O O4 0.419208 0.686840 0.476724
O O5 0.063236 0.297890 0.653848
O O6 0.025168 0.214099 0.584395
O O7 0.862196 0.170887 0.726439
O O8 0.058747 0.008293 0.646796
O O9 0.290672 0.827565 0.839900
O O10 0.218720 0.713781 0.954499
O O11 0.500000 0.355953 0.750000
O O12 0.680833 0.538457 0.673414
O O13 0.941878 0.515225 0.954993
O O14 0.967638 0.327543 0.010632
O O15 0.137993 0.327642 0.360533
#
# Coordination Sequence:
#
# PCOD9260032 Si02
#       7
#     8   8   8   8   8   8   8
#     4  12  23  36  56  83 113 144 185 235 281 333
#     4  10  18  36  61  85 106 142 193 229 267 332
#     4  10  20  33  56  85 113 145 181 230 280 323
#     4   9  19  36  58  82 112 147 186 231 281 329
#     4  10  19  35  60  81 107 148 191 227 267 328
#     4   9  20  38  59  80 110 149 188 229 273 333
#     4  10  21  38  55  79 113 149 183 224 281 331
#
# _framework density 20.897424999999998
#
# number of rings (size 3 to 8) (size 9 to 14) (size 15 to 20)
#    0.000    2.000    0.000    6.857    0.000    3.429 
#    0.000    7.143    0.000    0.000    0.000    0.000 
#    0.000    0.000    0.000    0.000    0.000    0.000 
#
# Total GULP energy -156252.854776 kJ/mol
# GULP energy per Si atom -5580.459099 kJ/mol
# Density = 2.084986 g / cm^3
# Si number density = 20.897425 Si / 1000 Ang^3
#
#
#
# Elastic Constant Matrix: (Units=GPa)
#
#
# Indices 1 2 3 4 5 6 
#
# 1 32.5225 1.9936 12.1424 0.0000 -16.3002 0.0002
# 2 1.9936 48.7241 11.1175 0.0000 -10.8177 0.0003
# 3 12.1424 11.1175 126.8772 0.0000 -17.8717 0.0000
# 4 0.0000 0.0000 0.0000 24.2795 0.0000 -1.2100
# 5 -16.3002 -10.8177 -17.8717 0.0000 31.7277 0.0000
# 6 0.0002 0.0003 0.0000 -1.2100 0.0000 11.6662
#
#
#
# Elastic Compliance Matrix: (Units=1/GPa)
#
#
# Indices 1 2 3 4 5 6 
#
# 1 0.042071 0.003465 -0.001215 0.000000 0.022111 -0.000001
# 2 0.003465 0.022597 -0.001060 0.000000 0.008888 -0.000001
# 3 -0.001215 -0.001060 0.008637 0.000000 0.003880 0.000000
# 4 0.000000 0.000000 0.000000 0.041401 0.000000 0.004294
# 5 0.022111 0.008888 0.003880 0.000000 0.048093 -0.000001
# 6 -0.000001 -0.000001 0.000000 0.004294 -0.000001 0.086163
#
#
# Mechanical properties :
#
#
# Convention : Reuss Voigt Hill
#
# Bulk Modulus (GPa) = 13.21261 28.73678 20.97469
# Shear Modulus (GPa) = 18.39506 25.72603 22.06054
#
# Velocity S-wave (km/s) = 2.97013 3.51246 3.25261
# Velocity P-wave (km/s) = 4.25424 5.49827 4.91577
#
# Compressibility (1/GPa) = 0.07568528
#
# Stress axis : x y z
#
# Youngs Moduli (GPa) = 23.76917 44.25367 115.77727
#
# Poissons Ratio (x) = -0.15334 0.14071
# Poissons Ratio (y) = -0.08236 0.12269
# Poissons Ratio (z) = 0.02889 0.04690
#
# Static dielectric constant tensor:
#      x y z
#    x 1.769730 0.000000 0.000850 
#    y 0.000000 1.772870 0.000000 
#    z 0.000850 0.000000 1.764670 
# 
# From -- ./inp_files/298519.got.cif
#   From: 2010.05.17/outbox.cif.g08.bks.cpg/sg15_150_cif.got.tgz:298519.got - 2010.06.03 18:47:42.
