data_PCOD9260925
_publ_section_title
;
Structure prediction by ZEFSAII (Michael W. Deem and Ramdas Pophale) SiO2 
 PCOD9260925
Probable space group: C 2/C
;
_chemical_formula_sum "Si O2"
_cell_formula_units_Z 48
_cell_length_a 10.879098
_cell_length_b 14.264587
_cell_length_c 12.275865
_cell_angle_alpha 90.000000
_cell_angle_beta 78.852349
_cell_angle_gamma 90.000000
_cell_volume 1869.096519
_symmetry_space_group_name_H-M "C 2/C"
_symmetry_group_IT_number 15
_symmetry_cell_setting 'monoclinic'
loop_
_space_group_symop_operation_xyz
x,y,z
-x,y,1/2-z
-x,-y,-z
x,-y,1/2+z
1/2+x,1/2+y,z
1/2-x,1/2+y,1/2-z
1/2-x,1/2-y,-z
1/2+x,1/2-y,1/2+z
loop_
_atom_site_type_symbol
_atom_site_label
_atom_site_fract_x
_atom_site_fract_y
_atom_site_fract_z
Si Si1 0.273788 0.416325 0.588723
Si Si2 0.479593 0.834651 0.884897
Si Si3 0.993416 0.135743 0.907355
Si Si4 0.287766 0.382681 0.265836
Si Si5 0.650128 0.305189 0.713658
Si Si6 0.198402 0.552014 0.435471
O O1 0.165957 0.345501 0.561436
O O2 0.410249 0.410775 0.512231
O O3 0.292855 0.374599 0.704309
O O4 0.211474 0.512049 0.555333
O O5 0.500000 0.842135 0.750000
O O6 0.536990 0.739948 0.925233
O O7 0.561948 0.913354 0.927782
O O8 0.887987 0.159736 0.833959
O O9 0.109065 0.079320 0.838599
O O10 0.203175 0.299475 0.230870
O O11 0.226904 0.465837 0.346337
O O12 0.500000 0.304104 0.750000
O O13 0.703209 0.361874 0.599713
#
# Coordination Sequence:
#
# PCOD9260925 Si02
#       6
#     8   8   8   8   8   8
#     4  11  24  41  69 103 129 183 228 274 338 411
#     4  12  19  41  70 104 138 167 220 291 336 390
#     4  10  18  38  74  96 129 175 228 267 328 408
#     4  10  21  43  67 100 133 179 220 276 336 397
#     4  12  26  47  63  95 143 181 224 285 340 392
#     4  11  25  41  73 100 136 176 228 279 339 408
#
# _framework density 25.680859000000002
#
# number of rings (size 3 to 8) (size 9 to 14) (size 15 to 20)
#    0.000    1.000    6.667    1.000    7.000    1.333 
#    0.000    0.833    0.000    0.000    0.000    0.000 
#    0.000    0.000    0.000    0.000    0.000    0.000 
#
# Total GULP energy -134024.577156 kJ/mol
# GULP energy per Si atom -5584.357382 kJ/mol
# Density = 2.562241 g / cm^3
# Si number density = 25.680859 Si / 1000 Ang^3
#
#
#
# Elastic Constant Matrix: (Units=GPa)
#
#
# Indices 1 2 3 4 5 6 
#
# 1 121.1300 46.9715 24.5931 0.0000 -4.8561 0.0000
# 2 46.9715 113.8980 16.4251 0.0000 9.0861 0.0000
# 3 24.5931 16.4251 34.8200 0.0000 -11.2612 0.0000
# 4 0.0000 0.0000 0.0000 41.1404 0.0000 -0.2989
# 5 -4.8561 9.0861 -11.2612 0.0000 24.7389 0.0000
# 6 0.0000 0.0000 0.0000 -0.2989 0.0000 49.4780
#
#
#
# Elastic Compliance Matrix: (Units=1/GPa)
#
#
# Indices 1 2 3 4 5 6 
#
# 1 0.010890 -0.003760 -0.005605 0.000000 0.000967 0.000000
# 2 -0.003760 0.011680 -0.005253 0.000000 -0.007419 0.000000
# 3 -0.005605 -0.005253 0.041540 0.000000 0.019738 0.000000
# 4 0.000000 0.000000 0.000000 0.024308 0.000000 0.000147
# 5 0.000967 -0.007419 0.019738 0.000000 0.052322 0.000000
# 6 0.000000 0.000000 0.000000 0.000147 0.000000 0.020212
#
#
# Mechanical properties :
#
#
# Convention : Reuss Voigt Hill
#
# Bulk Modulus (GPa) = 28.67579 49.53637 39.10608
# Shear Modulus (GPa) = 24.77529 35.19534 29.98532
#
# Velocity S-wave (km/s) = 3.10939 3.70603 3.42074
# Velocity P-wave (km/s) = 4.90730 6.13547 5.55543
#
# Compressibility (1/GPa) = 0.03487262
#
# Stress axis : x y z
#
# Youngs Moduli (GPa) = 91.82318 85.61743 24.07326
#
# Poissons Ratio (x) = 0.32192 0.13494
# Poissons Ratio (y) = 0.34526 0.12647
# Poissons Ratio (z) = 0.51471 0.44978
#
# Static dielectric constant tensor:
#      x y z
#    x 1.979720 0.000000 0.031830 
#    y 0.000000 2.144050 0.000000 
#    z 0.031830 0.000000 2.150500 
# 
# From -- ./inp_files/143471.got.cif
#   From: 2010.05.17/outbox.cif.g08.bks.cpg/sg15_72_cif.got.tgz:143471.got - 2010.06.03 18:47:42.
