data_PCOD9260644
_publ_section_title
;
Structure prediction by ZEFSAII (Michael W. Deem and Ramdas Pophale) SiO2 
 PCOD9260644
Probable space group: C 2/C
;
_chemical_formula_sum "Si O2"
_cell_formula_units_Z 56
_cell_length_a 18.034100
_cell_length_b 7.214247
_cell_length_c 23.822056
_cell_angle_alpha 90.000000
_cell_angle_beta 49.393314
_cell_angle_gamma 90.000000
_cell_volume 2352.980176
_symmetry_space_group_name_H-M "C 2/C"
_symmetry_group_IT_number 15
_symmetry_cell_setting 'monoclinic'
loop_
_space_group_symop_operation_xyz
x,y,z
-x,y,1/2-z
-x,-y,-z
x,-y,1/2+z
1/2+x,1/2+y,z
1/2-x,1/2+y,1/2-z
1/2-x,1/2-y,-z
1/2+x,1/2-y,1/2+z
loop_
_atom_site_type_symbol
_atom_site_label
_atom_site_fract_x
_atom_site_fract_y
_atom_site_fract_z
Si Si1 0.309844 0.222979 0.625879
Si Si2 0.922117 0.728080 0.675509
Si Si3 0.134955 0.621952 0.609737
Si Si4 0.943973 0.778201 0.333581
Si Si5 0.746048 0.867004 0.159671
Si Si6 0.368472 0.664392 0.700336
Si Si7 0.250929 0.430903 0.459407
O O1 0.399969 0.175116 0.622005
O O2 0.300881 0.442217 0.617035
O O3 0.212594 0.192874 0.711700
O O4 0.303985 0.112326 0.571323
O O5 0.848062 0.616622 0.752714
O O6 0.030899 0.705144 0.644312
O O7 0.889357 0.943727 0.691977
O O8 0.109074 0.418560 0.649213
O O9 0.201748 0.716659 0.624691
O O10 0.196839 0.580928 0.523628
O O11 0.866043 0.932811 0.388990
O O12 0.000000 0.835664 0.250000
O O13 0.027462 0.745984 0.338434
O O14 0.822424 0.769864 0.164145
O O15 0.250000 0.250000 0.500000
#
# Coordination Sequence:
#
# PCOD9260644 Si02
#       7
#     8   8   8   8   8   8   8
#     4  10  18  38  60  84 112 151 197 241 272 339
#     4  10  22  33  58  88 120 147 188 240 296 332
#     4  11  21  37  59  85 113 154 194 230 286 348
#     4  11  19  35  64  85 106 149 207 239 265 334
#     4  10  19  37  59  83 115 152 193 235 279 340
#     4  10  21  35  58  88 114 146 190 243 288 323
#     4  10  20  35  62  86 110 150 200 236 276 336
#
# _framework density 23.799606000000001
#
# number of rings (size 3 to 8) (size 9 to 14) (size 15 to 20)
#    0.000    1.714    4.286    2.143    0.000    2.857 
#    0.000    1.429    0.000    0.000    0.000    0.000 
#    0.000    0.000    0.000    0.000    0.000    0.000 
#
# Total GULP energy -156545.883545 kJ/mol
# GULP energy per Si atom -5590.924412 kJ/mol
# Density = 2.374544 g / cm^3
# Si number density = 23.799606 Si / 1000 Ang^3
#
#
#
# Elastic Constant Matrix: (Units=GPa)
#
#
# Indices 1 2 3 4 5 6 
#
# 1 191.0969 11.9296 41.1423 0.0003 29.9274 0.0027
# 2 11.9296 36.2898 -1.8029 0.0009 -1.3635 0.0056
# 3 41.1423 -1.8029 89.4328 -0.0001 12.7163 0.0002
# 4 0.0003 0.0009 -0.0001 -0.5290 -0.0002 4.7781
# 5 29.9274 -1.3635 12.7163 -0.0002 40.9599 0.0003
# 6 0.0027 0.0056 0.0002 4.7781 0.0003 31.6374
#
#
#
# Elastic Compliance Matrix: (Units=1/GPa)
#
#
# Indices 1 2 3 4 5 6 
#
# 1 0.006563 -0.002435 -0.002485 0.000000 -0.004105 0.000000
# 2 -0.002435 0.028511 0.001367 0.000000 0.002304 -0.000005
# 3 -0.002485 0.001367 0.012646 -0.000001 -0.002065 0.000000
# 4 0.000000 0.000000 -0.000001 -0.799571 -0.000005 0.120758
# 5 -0.004105 0.002304 -0.002065 -0.000005 0.028131 0.000000
# 6 0.000000 -0.000005 0.000000 0.120758 0.000000 0.013370
#
#
# Mechanical properties :
#
#
# Convention : Reuss Voigt Hill
#
# Bulk Modulus (GPa) = 24.62140 46.59528 35.60834
# Shear Modulus (GPa) = -7.24945 32.11701 12.43378
#
# Velocity S-wave (km/s) = -1.74718 3.67751 2.28817
# Velocity P-wave (km/s) = 2.50949 6.13618 4.68777
#
# Compressibility (1/GPa) = 0.04061508
#
# Stress axis : x y z
#
# Youngs Moduli (GPa) = 152.37624 35.07430 79.07793
#
# Poissons Ratio (x) = 0.08541 0.19647
# Poissons Ratio (y) = 0.37104 -0.10813
# Poissons Ratio (z) = 0.37858 -0.04796
#
# Static dielectric constant tensor:
#      x y z
#    x 1.922690 0.000000 0.018130 
#    y 0.000000 2.029910 0.000000 
#    z 0.018130 0.000000 1.856730 
# 
# From -- ./inp_files/276501.got.cif
#   From: 2010.05.17/outbox.cif.g08.bks.cpg/sg15_139_cif.got.tgz:276501.got - 2010.06.03 18:47:42.
