data_PCOD9260461
_publ_section_title
;
Structure prediction by ZEFSAII (Michael W. Deem and Ramdas Pophale) SiO2 
 PCOD9260461
Probable space group: C 2/C
;
_chemical_formula_sum "Si O2"
_cell_formula_units_Z 48
_cell_length_a 13.034063
_cell_length_b 8.988616
_cell_length_c 19.219483
_cell_angle_alpha 90.000000
_cell_angle_beta 112.208491
_cell_angle_gamma 90.000000
_cell_volume 2084.675010
_symmetry_space_group_name_H-M "C 2/C"
_symmetry_group_IT_number 15
_symmetry_cell_setting 'monoclinic'
loop_
_space_group_symop_operation_xyz
x,y,z
-x,y,1/2-z
-x,-y,-z
x,-y,1/2+z
1/2+x,1/2+y,z
1/2-x,1/2+y,1/2-z
1/2-x,1/2-y,-z
1/2+x,1/2-y,1/2+z
loop_
_atom_site_type_symbol
_atom_site_label
_atom_site_fract_x
_atom_site_fract_y
_atom_site_fract_z
Si Si1 0.056591 0.752901 0.339319
Si Si2 0.602465 0.671087 0.195237
Si Si3 0.486800 0.959354 0.385777
Si Si4 0.148194 0.952320 0.848970
Si Si5 0.918506 0.943677 0.418610
Si Si6 0.651326 0.843894 0.539018
O O1 0.059997 0.583821 0.365453
O O2 0.000000 0.750641 0.250000
O O3 0.985892 0.841846 0.379884
O O4 0.155876 0.868583 0.351252
O O5 0.584548 0.846167 0.179481
O O6 0.477260 0.605887 0.173047
O O7 0.674180 0.620255 0.280137
O O8 0.638271 0.581183 0.135527
O O9 0.570588 0.861529 0.453412
O O10 0.406340 0.050217 0.417033
O O11 0.224511 0.901734 0.931450
O O12 0.839001 0.823680 0.432262
O O13 0.000000 0.000000 0.500000
#
# Coordination Sequence:
#
# PCOD9260461 Si02
#       6
#     8   8   8   8   8   8
#     4  10  20  39  62  83 122 168 202 252 321 375
#     4  10  20  39  61  84 120 161 204 253 311 376
#     4  10  22  38  59  85 121 160 199 259 315 372
#     4  10  21  39  60  88 118 158 208 254 306 377
#     4  10  18  37  63  84 119 167 199 247 319 371
#     4  10  22  38  59  90 121 155 207 258 308 377
#
# _framework density 23.025172999999999
#
# number of rings (size 3 to 8) (size 9 to 14) (size 15 to 20)
#    0.000    2.000    5.000    0.000    2.333    2.667 
#    0.000    1.667    0.000    0.000    0.000    0.000 
#    0.000    0.000    0.000    0.000    0.000    0.000 
#
# Total GULP energy -133847.661993 kJ/mol
# GULP energy per Si atom -5576.985916 kJ/mol
# Density = 2.297277 g / cm^3
# Si number density = 23.025173 Si / 1000 Ang^3
#
#
#
# Elastic Constant Matrix: (Units=GPa)
#
#
# Indices 1 2 3 4 5 6 
#
# 1 18.7437 7.1517 20.9056 0.0000 5.3654 0.0000
# 2 7.1517 147.3863 25.2564 0.0000 -18.0538 0.0000
# 3 20.9056 25.2564 77.8269 0.0000 -20.7254 0.0000
# 4 0.0000 0.0000 0.0000 25.7444 0.0000 -16.3998
# 5 5.3654 -18.0538 -20.7254 0.0000 23.1706 0.0000
# 6 0.0000 0.0000 0.0000 -16.3998 0.0000 5.3181
#
#
#
# Elastic Compliance Matrix: (Units=1/GPa)
#
#
# Indices 1 2 3 4 5 6 
#
# 1 0.168248 -0.009417 -0.071497 0.000000 -0.110249 0.000000
# 2 -0.009417 0.008107 0.002837 0.000000 0.011035 0.000000
# 3 -0.071497 0.002837 0.047429 0.000000 0.061190 0.000000
# 4 0.000000 0.000000 0.000000 -0.040277 0.000000 -0.124203
# 5 -0.110249 0.011035 0.061190 0.000000 0.132019 0.000000
# 6 0.000000 0.000000 0.000000 -0.124203 0.000000 -0.194974
#
#
# Mechanical properties :
#
#
# Convention : Reuss Voigt Hill
#
# Bulk Modulus (GPa) = 14.78644 38.95382 26.87013
# Shear Modulus (GPa) = 16.70849 23.55618 20.13233
#
# Velocity S-wave (km/s) = 2.69673 3.20200 2.96017
# Velocity P-wave (km/s) = 4.01650 5.53399 4.83515
#
# Compressibility (1/GPa) = 0.06762951
#
# Stress axis : x y z
#
# Youngs Moduli (GPa) = 5.94362 123.34423 21.08432
#
# Poissons Ratio (x) = 1.16150 1.50747
# Poissons Ratio (y) = 0.05597 -0.05982
# Poissons Ratio (z) = 0.42495 -0.34995
#
# Static dielectric constant tensor:
#      x y z
#    x 1.967050 0.000000 -0.086950 
#    y 0.000000 1.938060 0.000000 
#    z -0.086950 0.000000 1.823980 
# 
# From -- ./inp_files/247085.got.cif
#   From: 2010.05.17/outbox.cif.g08.bks.cpg/sg15_124_cif.got.tgz:247085.got - 2010.06.03 18:47:42.
