data_PCOD9260742
_publ_section_title
;
Structure prediction by ZEFSAII (Michael W. Deem and Ramdas Pophale) SiO2 
 PCOD9260742
Probable space group: C 2/C
;
_chemical_formula_sum "Si O2"
_cell_formula_units_Z 60
_cell_length_a 17.015224
_cell_length_b 7.561240
_cell_length_c 24.217064
_cell_angle_alpha 90.000000
_cell_angle_beta 128.647337
_cell_angle_gamma 90.000000
_cell_volume 2433.357211
_symmetry_space_group_name_H-M "C 2/C"
_symmetry_group_IT_number 15
_symmetry_cell_setting 'monoclinic'
loop_
_space_group_symop_operation_xyz
x,y,z
-x,y,1/2-z
-x,-y,-z
x,-y,1/2+z
1/2+x,1/2+y,z
1/2-x,1/2+y,1/2-z
1/2-x,1/2-y,-z
1/2+x,1/2-y,1/2+z
loop_
_atom_site_type_symbol
_atom_site_label
_atom_site_fract_x
_atom_site_fract_y
_atom_site_fract_z
Si Si1 0.000000 0.409893 0.750000
Si Si2 0.990177 0.777800 0.885151
Si Si3 0.342830 0.559068 0.119578
Si Si4 0.870010 0.507258 0.003248
Si Si5 0.671669 0.865235 0.896710
Si Si6 0.826176 0.159053 0.236810
Si Si7 0.846164 0.186731 0.408336
Si Si8 0.836572 0.241003 0.758600
O O1 0.908570 0.482134 0.672644
O O2 0.934559 0.314025 0.770233
O O3 0.073325 0.877899 0.886020
O O4 0.039417 0.613551 0.937970
O O5 0.903465 0.715681 0.803583
O O6 0.936716 0.885612 0.911517
O O7 0.345139 0.343565 0.125109
O O8 0.351959 0.641744 0.184268
O O9 0.230613 0.605695 0.051039
O O10 0.844492 0.621013 0.046055
O O11 0.880785 0.636842 0.955942
O O12 0.783408 0.920234 0.926458
O O13 0.710802 0.193231 0.204115
O O14 0.851913 0.966083 0.271433
O O15 0.757302 0.226691 0.324686
#
# Coordination Sequence:
#
# PCOD9260742 Si02
#       8
#     4   8   8   8   8   8   8   8
#     4  10  18  38  62  94 128 160 210 260 320 380
#     4  11  24  38  66  98 130 165 217 265 322 385
#     4  11  21  43  70  89 134 174 208 264 335 377
#     4  11  22  43  67  93 128 173 218 260 323 386
#     4  10  21  40  71  92 126 175 215 259 324 390
#     4  11  22  42  67  95 129 172 213 270 326 378
#     4   9  19  41  65  90 129 171 204 266 318 378
#     4  10  21  39  69  92 125 168 219 259 325 386
#
# _framework density 24.657292999999999
#
# number of rings (size 3 to 8) (size 9 to 14) (size 15 to 20)
#    0.000    1.600    4.000    3.600    0.000    2.133 
#   12.000    2.667    0.000    0.000    0.000    0.000 
#    0.000    0.000    0.000    0.000    0.000    0.000 
#
# Total GULP energy -167483.400929 kJ/mol
# GULP energy per Si atom -5582.780031 kJ/mol
# Density = 2.460117 g / cm^3
# Si number density = 24.657293 Si / 1000 Ang^3
#
#
#
# Elastic Constant Matrix: (Units=GPa)
#
#
# Indices 1 2 3 4 5 6 
#
# 1 237.2494 38.3339 37.8649 0.0000 -29.3097 0.0000
# 2 38.3339 39.5479 -9.7125 0.0000 -1.1580 0.0000
# 3 37.8649 -9.7125 67.7177 0.0000 3.6687 0.0000
# 4 0.0000 0.0000 0.0000 -0.3869 0.0000 -5.5673
# 5 -29.3097 -1.1580 3.6687 0.0000 25.3474 0.0000
# 6 0.0000 0.0000 0.0000 -5.5673 0.0000 20.2800
#
#
#
# Elastic Compliance Matrix: (Units=1/GPa)
#
#
# Indices 1 2 3 4 5 6 
#
# 1 0.007780 -0.008766 -0.006121 0.000000 0.009481 0.000000
# 2 -0.008766 0.036098 0.010622 0.000000 -0.010025 0.000000
# 3 -0.006121 0.010622 0.020229 0.000000 -0.009520 0.000000
# 4 0.000000 0.000000 0.000000 -0.522122 0.000000 -0.143332
# 5 0.009481 -0.010025 -0.009520 0.000000 0.051335 0.000000
# 6 0.000000 0.000000 0.000000 -0.143332 0.000000 0.009962
#
#
# Mechanical properties :
#
#
# Convention : Reuss Voigt Hill
#
# Bulk Modulus (GPa) = 17.99310 53.05418 35.52364
# Shear Modulus (GPa) = -13.52588 27.58336 7.02874
#
# Velocity S-wave (km/s) = -2.34467 3.34828 1.69020
# Velocity P-wave (km/s) = 0.12974 6.04246 4.27168
#
# Compressibility (1/GPa) = 0.05557687
#
# Stress axis : x y z
#
# Youngs Moduli (GPa) = 128.54058 27.70210 49.43371
#
# Poissons Ratio (x) = 0.24285 0.30259
# Poissons Ratio (y) = 1.12685 -0.52510
# Poissons Ratio (z) = 0.78680 -0.29426
#
# Static dielectric constant tensor:
#      x y z
#    x 2.012500 0.000000 0.014640 
#    y 0.000000 1.989350 0.000000 
#    z 0.014640 0.000000 2.012070 
# 
# From -- ./inp_files/273655.got.cif
#   From: 2010.05.17/outbox.cif.g08.bks.cpg/sg15_137_cif.got.tgz:273655.got - 2010.06.03 18:47:42.
