data_PCOD9260617
_publ_section_title
;
Structure prediction by ZEFSAII (Michael W. Deem and Ramdas Pophale) SiO2 
 PCOD9260617
Probable space group: C 2/C
;
_chemical_formula_sum "Si O2"
_cell_formula_units_Z 52
_cell_length_a 5.169321
_cell_length_b 26.006178
_cell_length_c 16.722768
_cell_angle_alpha 90.000000
_cell_angle_beta 68.769133
_cell_angle_gamma 90.000000
_cell_volume 2095.531269
_symmetry_space_group_name_H-M "C 2/C"
_symmetry_group_IT_number 15
_symmetry_cell_setting 'monoclinic'
loop_
_space_group_symop_operation_xyz
x,y,z
-x,y,1/2-z
-x,-y,-z
x,-y,1/2+z
1/2+x,1/2+y,z
1/2-x,1/2+y,1/2-z
1/2-x,1/2-y,-z
1/2+x,1/2-y,1/2+z
loop_
_atom_site_type_symbol
_atom_site_label
_atom_site_fract_x
_atom_site_fract_y
_atom_site_fract_z
Si Si1 0.441709 0.185919 0.952480
Si Si2 0.500000 0.516882 0.750000
Si Si3 0.955770 0.398336 0.169643
Si Si4 0.660866 0.632966 0.488605
Si Si5 0.185342 0.757992 0.803901
Si Si6 0.510364 0.534589 0.922126
Si Si7 0.807325 0.882313 0.697399
O O1 0.627903 0.148460 0.875985
O O2 0.530331 0.240023 0.903477
O O3 0.572416 0.170516 0.024164
O O4 0.124839 0.167195 0.971109
O O5 0.248210 0.555939 0.787997
O O6 0.512576 0.499370 0.841445
O O7 0.000000 0.372843 0.250000
O O8 0.220583 0.429172 0.108993
O O9 0.708448 0.580960 0.537411
O O10 0.632731 0.609730 0.402640
O O11 0.500000 0.740491 0.750000
O O12 0.193126 0.820006 0.800717
O O13 0.000000 0.741674 0.750000
O O14 0.500000 0.500000 0.000000
O O15 0.500000 0.902655 0.750000
O O16 0.000000 0.900144 0.750000
#
# Coordination Sequence:
#
# PCOD9260617 Si02
#       7
#     8   4   8   8   8   8   8
#     4  11  21  35  58  92 121 155 203 247 311 370
#     4  10  18  38  58  82 116 154 184 252 306 354
#     4   9  19  33  57  83 117 156 189 241 305 362
#     4  11  23  40  61  90 119 162 202 261 309 362
#     4  10  21  35  57  89 124 165 202 249 299 361
#     4  10  22  40  59  88 121 156 203 251 310 369
#     4  10  22  42  61  83 122 165 210 252 300 361
#
# _framework density 24.814710000000002
#
# number of rings (size 3 to 8) (size 9 to 14) (size 15 to 20)
#    0.000    1.846    1.538    2.308    1.077    1.846 
#    1.385    2.308    0.000    0.000    0.000    0.000 
#    0.000    0.000    0.000    0.000    0.000    0.000 
#
# Total GULP energy -144776.298039 kJ/mol
# GULP energy per Si atom -5568.319155 kJ/mol
# Density = 2.475823 g / cm^3
# Si number density = 24.814710 Si / 1000 Ang^3
#
#
#
# Elastic Constant Matrix: (Units=GPa)
#
#
# Indices 1 2 3 4 5 6 
#
# 1 65.2891 4.9812 -8.2873 0.0000 25.8575 0.0000
# 2 4.9812 47.0305 22.7280 0.0000 10.1581 0.0000
# 3 -8.2873 22.7280 113.0667 0.0000 22.9437 0.0000
# 4 0.0000 0.0000 0.0000 34.5643 0.0000 19.0189
# 5 25.8575 10.1581 22.9437 0.0000 28.8631 0.0000
# 6 0.0000 0.0000 0.0000 19.0189 0.0000 2.0100
#
#
#
# Elastic Compliance Matrix: (Units=1/GPa)
#
#
# Indices 1 2 3 4 5 6 
#
# 1 0.029986 -0.000246 0.009158 0.000000 -0.034057 0.000000
# 2 -0.000246 0.024279 -0.003826 0.000000 -0.005283 0.000000
# 3 0.009158 -0.003826 0.013922 0.000000 -0.017925 0.000000
# 4 0.000000 0.000000 0.000000 -0.006878 0.000000 0.065078
# 5 -0.034057 -0.005283 -0.017925 0.000000 0.081264 0.000000
# 6 0.000000 0.000000 0.000000 0.065078 0.000000 -0.118271
#
#
# Mechanical properties :
#
#
# Convention : Reuss Voigt Hill
#
# Bulk Modulus (GPa) = 12.76187 29.35891 21.06039
# Shear Modulus (GPa) = 124.22370 26.81842 75.52106
#
# Velocity S-wave (km/s) = 7.08302 3.29104 5.52269
# Velocity P-wave (km/s) = 8.48801 5.12817 7.01229
#
# Compressibility (1/GPa) = 0.07835840
#
# Stress axis : x y z
#
# Youngs Moduli (GPa) = 33.34927 41.18771 71.82866
#
# Poissons Ratio (x) = 0.01012 -0.65781
# Poissons Ratio (y) = 0.00820 0.27485
# Poissons Ratio (z) = -0.30541 0.15760
#
# Static dielectric constant tensor:
#      x y z
#    x 2.006690 0.000000 0.135710 
#    y 0.000000 2.034670 0.000000 
#    z 0.135710 0.000000 1.963270 
# 
# From -- ./inp_files/130710.got.cif
#   From: 2010.05.17/outbox.cif.g08.bks.cpg/sg15_66_cif.got.tgz:130710.got - 2010.06.03 18:47:42.
