data_PCOD9260976
_publ_section_title
;
Structure prediction by ZEFSAII (Michael W. Deem and Ramdas Pophale) SiO2 
 PCOD9260976
Probable space group: C 2/C
;
_chemical_formula_sum "Si O2"
_cell_formula_units_Z 56
_cell_length_a 20.050069
_cell_length_b 8.918326
_cell_length_c 17.321966
_cell_angle_alpha 90.000000
_cell_angle_beta 48.056408
_cell_angle_gamma 90.000000
_cell_volume 2303.851359
_symmetry_space_group_name_H-M "C 2/C"
_symmetry_group_IT_number 15
_symmetry_cell_setting 'monoclinic'
loop_
_space_group_symop_operation_xyz
x,y,z
-x,y,1/2-z
-x,-y,-z
x,-y,1/2+z
1/2+x,1/2+y,z
1/2-x,1/2+y,1/2-z
1/2-x,1/2-y,-z
1/2+x,1/2-y,1/2+z
loop_
_atom_site_type_symbol
_atom_site_label
_atom_site_fract_x
_atom_site_fract_y
_atom_site_fract_z
Si Si1 0.187024 0.052397 0.349345
Si Si2 0.458486 0.385199 0.940439
Si Si3 0.831366 0.408819 0.350278
Si Si4 0.620473 0.414407 0.256826
Si Si5 0.945105 0.584602 0.160250
Si Si6 0.584962 0.841770 0.435762
Si Si7 0.183325 0.095822 0.082193
O O1 0.168531 0.229082 0.369903
O O2 0.095791 0.978037 0.453658
O O3 0.264144 0.991591 0.343907
O O4 0.191856 0.988079 0.259919
O O5 0.530503 0.490342 0.842634
O O6 0.509251 0.248368 0.943027
O O7 0.383473 0.350377 0.934160
O O8 0.925212 0.478432 0.249495
O O9 0.826081 0.228932 0.347728
O O10 0.782285 0.428323 0.470903
O O11 0.601727 0.242769 0.288846
O O12 0.649851 0.444603 0.147008
O O13 0.903737 0.495256 0.119245
O O14 0.044519 0.624027 0.051575
#
# Coordination Sequence:
#
# PCOD9260976 Si02
#       7
#     8   8   8   8   8   8   8
#     4  10  19  38  66  89 124 162 225 270 328 393
#     4  10  18  39  64  89 119 173 217 272 333 394
#     4  10  23  42  60  94 126 176 214 270 335 398
#     4  11  20  36  62  95 123 171 219 272 324 386
#     4  11  22  36  62  94 132 162 218 281 327 380
#     4  10  20  39  64  97 127 166 222 283 324 388
#     4  10  23  41  64  87 134 173 221 265 334 415
#
# _framework density 24.307124000000002
#
# number of rings (size 3 to 8) (size 9 to 14) (size 15 to 20)
#    0.000    1.714    2.857    3.000    0.000    2.857 
#    2.571    2.857    0.000    0.000    0.000    0.000 
#    0.000    0.000    0.000    0.000    0.000    0.000 
#
# Total GULP energy -156478.675365 kJ/mol
# GULP energy per Si atom -5588.524120 kJ/mol
# Density = 2.425180 g / cm^3
# Si number density = 24.307124 Si / 1000 Ang^3
#
#
#
# Elastic Constant Matrix: (Units=GPa)
#
#
# Indices 1 2 3 4 5 6 
#
# 1 70.2743 15.2565 15.8567 0.0000 3.5041 0.0000
# 2 15.2565 126.3510 60.4260 -0.0001 7.4019 0.0001
# 3 15.8567 60.4260 130.0156 0.0000 1.4410 0.0000
# 4 0.0000 -0.0001 0.0000 54.7090 0.0000 0.0354
# 5 3.5041 7.4019 1.4410 0.0000 15.5967 0.0000
# 6 0.0000 0.0001 0.0000 0.0354 0.0000 25.1000
#
#
#
# Elastic Compliance Matrix: (Units=1/GPa)
#
#
# Indices 1 2 3 4 5 6 
#
# 1 0.014882 -0.001006 -0.001317 0.000000 -0.002744 0.000000
# 2 -0.001006 0.010555 -0.004735 0.000000 -0.004346 0.000000
# 3 -0.001317 -0.004735 0.010035 0.000000 0.001616 0.000000
# 4 0.000000 0.000000 0.000000 0.018279 0.000000 -0.000026
# 5 -0.002744 -0.004346 0.001616 0.000000 0.066646 0.000000
# 6 0.000000 0.000000 0.000000 -0.000026 0.000000 0.039841
#
#
# Mechanical properties :
#
#
# Convention : Reuss Voigt Hill
#
# Bulk Modulus (GPa) = 46.82526 56.63549 51.73037
# Shear Modulus (GPa) = 27.55259 34.75459 31.15359
#
# Velocity S-wave (km/s) = 3.37043 3.78539 3.58392
# Velocity P-wave (km/s) = 5.86960 6.51583 6.20114
#
# Compressibility (1/GPa) = 0.02135599
#
# Stress axis : x y z
#
# Youngs Moduli (GPa) = 67.19328 94.74364 99.65617
#
# Poissons Ratio (x) = 0.09536 0.13123
# Poissons Ratio (y) = 0.06763 0.47183
# Poissons Ratio (z) = 0.08849 0.44857
#
# Static dielectric constant tensor:
#      x y z
#    x 1.974590 0.000000 -0.023310 
#    y 0.000000 1.931340 0.000000 
#    z -0.023310 0.000000 2.020320 
# 
# From -- ./inp_files/218505.got.cif
#   From: 2010.05.17/outbox.cif.g08.bks.cpg/sg15_110_cif.got.tgz:218505.got - 2010.06.03 18:47:42.
