data_PCOD9260532
_publ_section_title
;
Structure prediction by ZEFSAII (Michael W. Deem and Ramdas Pophale) SiO2 
 PCOD9260532
Probable space group: C 2/C
;
_chemical_formula_sum "Si O2"
_cell_formula_units_Z 64
_cell_length_a 11.600459
_cell_length_b 28.264407
_cell_length_c 8.781141
_cell_angle_alpha 90.000000
_cell_angle_beta 91.775405
_cell_angle_gamma 90.000000
_cell_volume 2877.779205
_symmetry_space_group_name_H-M "C 2/C"
_symmetry_group_IT_number 15
_symmetry_cell_setting 'monoclinic'
loop_
_space_group_symop_operation_xyz
x,y,z
-x,y,1/2-z
-x,-y,-z
x,-y,1/2+z
1/2+x,1/2+y,z
1/2-x,1/2+y,1/2-z
1/2-x,1/2-y,-z
1/2+x,1/2-y,1/2+z
loop_
_atom_site_type_symbol
_atom_site_label
_atom_site_fract_x
_atom_site_fract_y
_atom_site_fract_z
Si Si1 0.626488 0.165467 0.332256
Si Si2 0.738302 0.353896 0.119772
Si Si3 0.918405 0.480190 0.867312
Si Si4 0.888681 0.020832 0.408223
Si Si5 0.016270 0.305168 0.423183
Si Si6 0.259124 0.446855 0.201915
Si Si7 0.783968 0.908874 0.675217
Si Si8 0.344295 0.254336 0.369127
O O1 0.500000 0.157395 0.250000
O O2 0.593537 0.169019 0.508246
O O3 0.715224 0.125232 0.288007
O O4 0.672034 0.215052 0.261846
O O5 0.867911 0.337675 0.073383
O O6 0.746189 0.393326 0.248157
O O7 0.668892 0.308415 0.176787
O O8 0.679411 0.376759 0.966564
O O9 0.862269 0.526596 0.790105
O O10 0.811584 0.445690 0.896048
O O11 0.000000 0.454559 0.750000
O O12 0.000000 0.500000 0.000000
O O13 0.806941 0.042410 0.535942
O O14 0.877082 0.060242 0.272243
O O15 0.839780 0.974707 0.322813
O O16 0.000000 0.000000 0.500000
O O17 0.040386 0.261521 0.538093
O O18 0.000000 0.289917 0.250000
O O19 0.250000 0.250000 0.500000
#
# Coordination Sequence:
#
# PCOD9260532 Si02
#       8
#     8   8   8   8   8   8   8   8
#     4  10  18  37  65  97 134 181 215 266 347 432
#     4  11  22  40  66  96 137 175 219 278 342 414
#     4  11  22  36  57  93 139 170 207 263 330 420
#     4  11  25  47  68  88 127 178 238 294 340 385
#     4  10  22  37  62  97 137 172 213 271 345 414
#     4  11  24  43  65  97 129 179 229 282 344 403
#     4  11  21  38  66  97 130 178 225 267 346 407
#     4   9  18  40  62  86 133 184 217 267 330 403
#
# _framework density 22.239369
#
# number of rings (size 3 to 8) (size 9 to 14) (size 15 to 20)
#    0.000    1.500    3.750    4.500    1.750    1.500 
#    0.000    8.750    0.000    0.000    0.000    0.000 
#    0.000    0.000    0.000    0.000    0.000    0.000 
#
# Total GULP energy -178632.684540 kJ/mol
# GULP energy per Si atom -5582.271392 kJ/mol
# Density = 2.218875 g / cm^3
# Si number density = 22.239369 Si / 1000 Ang^3
#
#
#
# Elastic Constant Matrix: (Units=GPa)
#
#
# Indices 1 2 3 4 5 6 
#
# 1 66.8091 34.3224 23.5969 0.0000 15.4346 0.0000
# 2 34.3224 168.6483 38.0998 0.0000 11.1047 0.0000
# 3 23.5969 38.0998 73.3937 0.0000 6.3927 0.0000
# 4 0.0000 0.0000 0.0000 36.7973 0.0000 1.7400
# 5 15.4346 11.1047 6.3927 0.0000 40.5199 0.0000
# 6 0.0000 0.0000 0.0000 1.7400 0.0000 16.5952
#
#
#
# Elastic Compliance Matrix: (Units=1/GPa)
#
#
# Indices 1 2 3 4 5 6 
#
# 1 0.019168 -0.002532 -0.004332 0.000000 -0.005924 0.000000
# 2 -0.002532 0.007121 -0.002835 0.000000 -0.000540 0.000000
# 3 -0.004332 -0.002835 0.016505 0.000000 -0.000177 0.000000
# 4 0.000000 0.000000 0.000000 0.027311 0.000000 -0.002864
# 5 -0.005924 -0.000540 -0.000177 0.000000 0.027111 0.000000
# 6 0.000000 0.000000 0.000000 -0.002864 0.000000 0.060559
#
#
# Mechanical properties :
#
#
# Convention : Reuss Voigt Hill
#
# Bulk Modulus (GPa) = 42.74551 55.65439 49.19995
# Shear Modulus (GPa) = 27.03101 32.97128 30.00114
#
# Velocity S-wave (km/s) = 3.49012 3.85458 3.67687
# Velocity P-wave (km/s) = 5.95849 6.69999 6.34009
#
# Compressibility (1/GPa) = 0.02339427
#
# Stress axis : x y z
#
# Youngs Moduli (GPa) = 52.17161 140.43107 60.58659
#
# Poissons Ratio (x) = 0.35559 0.26247
# Poissons Ratio (y) = 0.13211 0.17179
# Poissons Ratio (z) = 0.22601 0.39819
#
# Static dielectric constant tensor:
#      x y z
#    x 1.871170 0.000000 -0.019760 
#    y 0.000000 1.842760 0.000000 
#    z -0.019760 0.000000 1.882860 
# 
# From -- ./inp_files/35684.got.cif
#   From: 2010.05.17/outbox.cif.g08.bks.cpg/sg15_18_cif.got.tgz:35684.got - 2010.06.03 18:47:42.
