data_PCOD9260147
_publ_section_title
;
Structure prediction by ZEFSAII (Michael W. Deem and Ramdas Pophale) SiO2 
 PCOD9260147
Probable space group: C 2/C
;
_chemical_formula_sum "Si O2"
_cell_formula_units_Z 44
_cell_length_a 17.730574
_cell_length_b 12.076199
_cell_length_c 20.221806
_cell_angle_alpha 90.000000
_cell_angle_beta 156.008043
_cell_angle_gamma 90.000000
_cell_volume 1760.553961
_symmetry_space_group_name_H-M "C 2/C"
_symmetry_group_IT_number 15
_symmetry_cell_setting 'monoclinic'
loop_
_space_group_symop_operation_xyz
x,y,z
-x,y,1/2-z
-x,-y,-z
x,-y,1/2+z
1/2+x,1/2+y,z
1/2-x,1/2+y,1/2-z
1/2-x,1/2-y,-z
1/2+x,1/2-y,1/2+z
loop_
_atom_site_type_symbol
_atom_site_label
_atom_site_fract_x
_atom_site_fract_y
_atom_site_fract_z
Si Si1 0.914387 0.560265 0.789397
Si Si2 0.907166 0.105716 0.781341
Si Si3 0.211550 0.583889 0.194927
Si Si4 0.226885 0.489072 0.967251
Si Si5 0.000000 0.718791 0.250000
Si Si6 0.937446 0.807935 0.452025
O O1 0.879035 0.459674 0.810459
O O2 0.833543 0.532796 0.652534
O O3 0.771915 0.652447 0.700057
O O4 0.132908 0.566037 0.947435
O O5 0.976234 0.155531 0.907199
O O6 0.891070 0.206580 0.716785
O O7 0.749238 0.020902 0.678319
O O8 0.056935 0.027712 0.865648
O O9 0.080347 0.676224 0.058098
O O10 0.409206 0.635949 0.378111
O O11 0.138711 0.365126 0.899129
#
# Coordination Sequence:
#
# PCOD9260147 Si02
#       6
#     8   8   8   8   4   8
#     4   9  18  37  59  87 113 154 199 242 297 356
#     4  11  21  40  61  85 127 153 200 250 305 353
#     4  11  22  40  63  88 120 165 198 248 293 361
#     4  10  18  36  63  87 115 151 197 245 305 354
#     4  10  22  32  58  96 114 148 198 254 298 342
#     4  11  21  40  63  86 120 163 205 235 302 360
#
# _framework density 24.992132999999999
#
# number of rings (size 3 to 8) (size 9 to 14) (size 15 to 20)
#    0.000    1.818    3.636    3.818    0.000    0.000 
#    3.273    4.545    0.000    0.000    0.000    0.000 
#    0.000    0.000    0.000    0.000    0.000    0.000 
#
# Total GULP energy -122968.049589 kJ/mol
# GULP energy per Si atom -5589.456800 kJ/mol
# Density = 2.493525 g / cm^3
# Si number density = 24.992133 Si / 1000 Ang^3
#
#
#
# Elastic Constant Matrix: (Units=GPa)
#
#
# Indices 1 2 3 4 5 6 
#
# 1 145.5163 34.3720 46.3720 0.0000 23.8989 -0.0003
# 2 34.3720 83.4534 24.0645 0.0026 10.5791 -0.0005
# 3 46.3720 24.0645 76.0422 0.0038 7.0169 -0.0003
# 4 0.0000 0.0026 0.0038 32.5657 0.0012 6.0428
# 5 23.8989 10.5791 7.0169 0.0012 48.7991 -0.0003
# 6 -0.0003 -0.0005 -0.0003 6.0428 -0.0003 35.3808
#
#
#
# Elastic Compliance Matrix: (Units=1/GPa)
#
#
# Indices 1 2 3 4 5 6 
#
# 1 0.009463 -0.002072 -0.004792 0.000001 -0.003496 0.000000
# 2 -0.002072 0.013897 -0.002989 -0.000001 -0.001568 0.000000
# 3 -0.004792 -0.002989 0.016968 -0.000002 0.000555 0.000000
# 4 0.000001 -0.000001 -0.000002 0.031712 -0.000001 -0.005416
# 5 -0.003496 -0.001568 0.000555 -0.000001 0.022464 0.000000
# 6 0.000000 0.000000 0.000000 -0.005416 0.000000 0.029189
#
#
# Mechanical properties :
#
#
# Convention : Reuss Voigt Hill
#
# Bulk Modulus (GPa) = 48.49743 57.18098 52.83920
# Shear Modulus (GPa) = 33.27239 36.69601 34.98420
#
# Velocity S-wave (km/s) = 3.65268 3.83600 3.74546
# Velocity P-wave (km/s) = 6.10218 6.52297 6.31608
#
# Compressibility (1/GPa) = 0.02061965
#
# Stress axis : x y z
#
# Youngs Moduli (GPa) = 105.67552 71.95743 58.93520
#
# Poissons Ratio (x) = 0.14913 0.28243
# Poissons Ratio (y) = 0.21901 0.17618
# Poissons Ratio (z) = 0.50642 0.21511
#
# Static dielectric constant tensor:
#      x y z
#    x 1.949370 0.000000 0.016090 
#    y 0.000000 1.980040 0.000000 
#    z 0.016090 0.000000 2.112790 
# 
# From -- ./inp_files/277168.got.cif
#   From: 2010.05.17/outbox.cif.g08.bks.cpg/sg15_139_cif.got.tgz:277168.got - 2010.06.03 18:47:42.
