data_PCOD9260454
_publ_section_title
;
Structure prediction by ZEFSAII (Michael W. Deem and Ramdas Pophale) SiO2 
 PCOD9260454
Probable space group: C 2/C
;
_chemical_formula_sum "Si O2"
_cell_formula_units_Z 36
_cell_length_a 7.734477
_cell_length_b 18.980977
_cell_length_c 11.998867
_cell_angle_alpha 90.000000
_cell_angle_beta 85.889451
_cell_angle_gamma 90.000000
_cell_volume 1756.997474
_symmetry_space_group_name_H-M "C 2/C"
_symmetry_group_IT_number 15
_symmetry_cell_setting 'monoclinic'
loop_
_space_group_symop_operation_xyz
x,y,z
-x,y,1/2-z
-x,-y,-z
x,-y,1/2+z
1/2+x,1/2+y,z
1/2-x,1/2+y,1/2-z
1/2-x,1/2-y,-z
1/2+x,1/2-y,1/2+z
loop_
_atom_site_type_symbol
_atom_site_label
_atom_site_fract_x
_atom_site_fract_y
_atom_site_fract_z
Si Si1 0.071915 0.577906 0.011497
Si Si2 0.500000 0.864880 0.750000
Si Si3 0.791427 0.318168 0.420203
Si Si4 0.084121 0.839677 0.019792
Si Si5 0.227587 0.243996 0.308147
O O1 0.043056 0.591034 0.142026
O O2 0.954461 0.636270 0.953553
O O3 0.000000 0.500000 0.000000
O O4 0.272619 0.598424 0.980764
O O5 0.664293 0.815325 0.761241
O O6 0.750000 0.250000 0.500000
O O7 0.611473 0.361095 0.443551
O O8 0.821023 0.295559 0.290544
O O9 0.144804 0.784114 0.111802
O O10 0.100844 0.798402 0.899292
#
# Coordination Sequence:
#
# PCOD9260454 Si02
#       5
#     8   4   8   8   8
#     4  11  26  42  60  92 134 174 213 260 330 401
#     4  10  18  42  60  86 136 156 204 284 314 366
#     4  12  21  38  66  96 120 164 220 264 318 393
#     4  10  22  38  62  93 129 169 204 275 324 365
#     4  10  18  37  62  98 126 152 216 280 315 360
#
# _framework density 20.4895
#
# number of rings (size 3 to 8) (size 9 to 14) (size 15 to 20)
#    0.000    1.333    4.444    2.667    0.000    6.222 
#    0.000    0.000    0.000    0.000    0.000    0.000 
#    0.000    0.000    0.000    0.000    0.000    0.000 
#
# Total GULP energy -100443.581164 kJ/mol
# GULP energy per Si atom -5580.198954 kJ/mol
# Density = 2.044287 g / cm^3
# Si number density = 20.489500 Si / 1000 Ang^3
#
#
#
# Elastic Constant Matrix: (Units=GPa)
#
#
# Indices 1 2 3 4 5 6 
#
# 1 133.7870 27.9074 35.3795 0.0000 -14.8439 0.0000
# 2 27.9074 82.7521 14.8909 0.0000 3.3952 0.0000
# 3 35.3795 14.8909 88.4087 0.0000 0.8925 0.0000
# 4 0.0000 0.0000 0.0000 8.6127 0.0000 3.1341
# 5 -14.8439 3.3952 0.8925 0.0000 27.9740 0.0000
# 6 0.0000 0.0000 0.0000 3.1341 0.0000 14.6761
#
#
#
# Elastic Compliance Matrix: (Units=1/GPa)
#
#
# Indices 1 2 3 4 5 6 
#
# 1 0.009585 -0.002846 -0.003412 0.000000 0.005541 0.000000
# 2 -0.002846 0.013366 -0.001081 0.000000 -0.003098 0.000000
# 3 -0.003412 -0.001081 0.012880 0.000000 -0.002091 0.000000
# 4 0.000000 0.000000 0.000000 0.125890 0.000000 -0.026884
# 5 0.005541 -0.003098 -0.002091 0.000000 0.039130 0.000000
# 6 0.000000 0.000000 0.000000 -0.026884 0.000000 0.073879
#
#
# Mechanical properties :
#
#
# Convention : Reuss Voigt Hill
#
# Bulk Modulus (GPa) = 47.27663 51.25595 49.26629
# Shear Modulus (GPa) = 16.86570 25.37056 21.11813
#
# Velocity S-wave (km/s) = 2.87215 3.52266 3.21390
# Velocity P-wave (km/s) = 5.84146 6.45101 6.15379
#
# Compressibility (1/GPa) = 0.02115210
#
# Stress axis : x y z
#
# Youngs Moduli (GPa) = 104.32589 74.81871 77.64025
#
# Poissons Ratio (x) = 0.21292 0.26495
# Poissons Ratio (y) = 0.29689 0.08394
# Poissons Ratio (z) = 0.35601 0.08089
#
# Static dielectric constant tensor:
#      x y z
#    x 1.823300 0.000000 0.033200 
#    y 0.000000 1.749660 0.000000 
#    z 0.033200 0.000000 1.738700 
# 
# From -- ./inp_files/77335.got.cif
#   From: 2010.05.17/outbox.cif.g08.bks.cpg/sg15_39_cif.got.tgz:77335.got - 2010.06.03 18:47:42.
