data_PCOD9260025
_publ_section_title
;
Structure prediction by ZEFSAII (Michael W. Deem and Ramdas Pophale) SiO2 
 PCOD9260025
Probable space group: C 2/C
;
_chemical_formula_sum "Si O2"
_cell_formula_units_Z 44
_cell_length_a 9.019463
_cell_length_b 11.865347
_cell_length_c 20.681332
_cell_angle_alpha 90.000000
_cell_angle_beta 66.011436
_cell_angle_gamma 90.000000
_cell_volume 2022.126765
_symmetry_space_group_name_H-M "C 2/C"
_symmetry_group_IT_number 15
_symmetry_cell_setting 'monoclinic'
loop_
_space_group_symop_operation_xyz
x,y,z
-x,y,1/2-z
-x,-y,-z
x,-y,1/2+z
1/2+x,1/2+y,z
1/2-x,1/2+y,1/2-z
1/2-x,1/2-y,-z
1/2+x,1/2-y,1/2+z
loop_
_atom_site_type_symbol
_atom_site_label
_atom_site_fract_x
_atom_site_fract_y
_atom_site_fract_z
Si Si1 0.770909 0.941514 0.348793
Si Si2 0.315935 0.122996 0.783058
Si Si3 0.686400 0.885545 0.647950
Si Si4 0.613505 0.236491 0.968731
Si Si5 0.373158 0.176256 0.115646
Si Si6 0.500000 0.294575 0.250000
O O1 0.721496 0.916717 0.283388
O O2 0.659025 0.872276 0.417960
O O3 0.948486 0.882614 0.316437
O O4 0.750653 0.072137 0.367448
O O5 0.500000 0.164514 0.750000
O O6 0.208530 0.221602 0.832105
O O7 0.305791 0.010903 0.828167
O O8 0.849205 0.842639 0.584089
O O9 0.530837 0.869462 0.627828
O O10 0.644550 0.797200 0.712978
O O11 0.750000 0.250000 0.000000
O O12 0.444392 0.219620 0.034835
#
# Coordination Sequence:
#
# PCOD9260025 Si02
#       6
#     8   8   8   8   8   4
#     4  11  22  38  68  93 136 170 227 276 330 392
#     4  12  24  39  67 101 131 175 220 280 336 393
#     4  10  19  40  64  89 128 168 223 268 331 391
#     4   9  22  41  68  92 128 182 225 267 335 404
#     4  11  22  41  62  94 133 171 221 271 332 396
#     4  10  18  36  60  96 116 178 214 268 324 386
#
# _framework density 21.759269
#
# number of rings (size 3 to 8) (size 9 to 14) (size 15 to 20)
#    0.000    1.455    4.545    0.545    3.818    0.727 
#    0.000    0.909    0.000    0.000    0.000    0.000 
#    0.000    0.000    0.000    0.000    0.000    0.000 
#
# Total GULP energy -122674.224776 kJ/mol
# GULP energy per Si atom -5576.101126 kJ/mol
# Density = 2.170974 g / cm^3
# Si number density = 21.759269 Si / 1000 Ang^3
#
#
#
# Elastic Constant Matrix: (Units=GPa)
#
#
# Indices 1 2 3 4 5 6 
#
# 1 39.9297 34.6085 25.3556 0.0000 -4.2651 0.0000
# 2 34.6085 146.1477 65.8655 0.0000 -8.6631 0.0000
# 3 25.3556 65.8655 171.1626 0.0000 -10.7194 0.0000
# 4 0.0000 0.0000 0.0000 29.5825 0.0000 4.2743
# 5 -4.2651 -8.6631 -10.7194 0.0000 15.9705 0.0000
# 6 0.0000 0.0000 0.0000 4.2743 0.0000 28.5349
#
#
#
# Elastic Compliance Matrix: (Units=1/GPa)
#
#
# Indices 1 2 3 4 5 6 
#
# 1 0.032404 -0.006526 -0.002055 0.000000 0.003735 0.000000
# 2 -0.006526 0.009686 -0.002652 0.000000 0.001731 0.000000
# 3 -0.002055 -0.002652 0.007352 0.000000 0.002947 0.000000
# 4 0.000000 0.000000 0.000000 0.034552 0.000000 -0.005176
# 5 0.003735 0.001731 0.002947 0.000000 0.066530 0.000000
# 6 0.000000 0.000000 0.000000 -0.005176 0.000000 0.035820
#
#
# Mechanical properties :
#
#
# Convention : Reuss Voigt Hill
#
# Bulk Modulus (GPa) = 37.07052 67.65549 52.36301
# Shear Modulus (GPa) = 22.95673 30.24495 26.60084
#
# Velocity S-wave (km/s) = 3.25165 3.73229 3.50023
# Velocity P-wave (km/s) = 5.58312 7.05220 6.36022
#
# Compressibility (1/GPa) = 0.02697561
#
# Stress axis : x y z
#
# Youngs Moduli (GPa) = 30.86024 103.24655 136.01865
#
# Poissons Ratio (x) = 0.67378 0.27954
# Poissons Ratio (y) = 0.20139 0.36072
# Poissons Ratio (z) = 0.06342 0.27381
#
# Static dielectric constant tensor:
#      x y z
#    x 2.101110 0.000000 0.042930 
#    y 0.000000 1.775300 0.000000 
#    z 0.042930 0.000000 1.810060 
# 
# From -- ./inp_files/268376.got.cif
#   From: 2010.05.17/outbox.cif.g08.bks.cpg/sg15_135_cif.got.tgz:268376.got - 2010.06.03 18:47:42.
