data_PCOD9260715
_publ_section_title
;
Structure prediction by ZEFSAII (Michael W. Deem and Ramdas Pophale) SiO2 
 PCOD9260715
Probable space group: C 2/C
;
_chemical_formula_sum "Si O2"
_cell_formula_units_Z 64
_cell_length_a 19.364553
_cell_length_b 8.960361
_cell_length_c 21.153830
_cell_angle_alpha 90.000000
_cell_angle_beta 59.852235
_cell_angle_gamma 90.000000
_cell_volume 3173.978953
_symmetry_space_group_name_H-M "C 2/C"
_symmetry_group_IT_number 15
_symmetry_cell_setting 'monoclinic'
loop_
_space_group_symop_operation_xyz
x,y,z
-x,y,1/2-z
-x,-y,-z
x,-y,1/2+z
1/2+x,1/2+y,z
1/2-x,1/2+y,1/2-z
1/2-x,1/2-y,-z
1/2+x,1/2-y,1/2+z
loop_
_atom_site_type_symbol
_atom_site_label
_atom_site_fract_x
_atom_site_fract_y
_atom_site_fract_z
Si Si1 0.886688 0.439866 0.082311
Si Si2 0.588820 0.858602 0.183734
Si Si3 0.918746 0.969475 0.759318
Si Si4 0.117256 0.891508 0.969837
Si Si5 0.271634 0.352857 0.277366
Si Si6 0.558135 0.877216 0.053383
Si Si7 0.258999 0.015866 0.331104
Si Si8 0.503836 0.448131 0.910106
O O1 0.885796 0.282586 0.045099
O O2 0.810291 0.431254 0.161983
O O3 0.969898 0.449341 0.082677
O O4 0.887037 0.564330 0.028284
O O5 0.500000 0.890049 0.250000
O O6 0.601196 0.680752 0.192164
O O7 0.590034 0.898212 0.109169
O O8 0.655557 0.951380 0.189370
O O9 0.000000 0.039350 0.750000
O O10 0.947604 0.922288 0.676057
O O11 0.844757 0.078791 0.783772
O O12 0.205686 0.954202 0.918392
O O13 0.068502 0.970022 0.935065
O O14 0.064689 0.926411 0.055720
O O15 0.263789 0.176799 0.294069
O O16 0.279761 0.398966 0.200483
O O17 0.543216 0.702390 0.053387
#
# Coordination Sequence:
#
# PCOD9260715 Si02
#       8
#     8   8   8   8   8   8   8   8
#     4   9  21  40  63  89 121 161 202 262 307 366
#     4  11  22  40  63  90 126 165 202 257 314 363
#     4  11  22  41  62  90 124 165 205 256 309 368
#     4   9  20  38  61  87 119 156 204 258 308 357
#     4  11  23  42  63  91 124 161 211 256 311 374
#     4  10  19  39  64  89 118 160 211 244 311 370
#     4  11  23  40  65  91 124 162 207 262 309 371
#     4  10  18  38  62  86 119 159 206 249 304 367
#
# _framework density 20.163965000000001
#
# number of rings (size 3 to 8) (size 9 to 14) (size 15 to 20)
#    0.000    1.750    3.750    1.500    1.750    2.500 
#   11.250    2.500    0.000    0.000    0.000    0.000 
#    0.000    0.000    0.000    0.000    0.000    0.000 
#
# Total GULP energy -178503.951875 kJ/mol
# GULP energy per Si atom -5578.248496 kJ/mol
# Density = 2.011807 g / cm^3
# Si number density = 20.163965 Si / 1000 Ang^3
#
#
#
# Elastic Constant Matrix: (Units=GPa)
#
#
# Indices 1 2 3 4 5 6 
#
# 1 78.4864 7.8189 -13.3165 0.0000 6.5365 0.0002
# 2 7.8189 29.3168 10.8111 0.0000 -2.0556 0.0003
# 3 -13.3165 10.8111 33.4875 0.0000 9.3665 0.0000
# 4 0.0000 0.0000 0.0000 17.0249 0.0000 -2.1081
# 5 6.5365 -2.0556 9.3665 0.0000 30.2157 0.0000
# 6 0.0002 0.0003 0.0000 -2.1081 0.0000 29.6050
#
#
#
# Elastic Compliance Matrix: (Units=1/GPa)
#
#
# Indices 1 2 3 4 5 6 
#
# 1 0.016262 -0.009151 0.011583 0.000000 -0.007731 0.000000
# 2 -0.009151 0.045323 -0.021556 0.000000 0.011745 0.000000
# 3 0.011583 -0.021556 0.046577 0.000000 -0.018410 0.000000
# 4 0.000000 0.000000 0.000000 0.059260 0.000000 0.004220
# 5 -0.007731 0.011745 -0.018410 0.000000 0.041274 0.000000
# 6 0.000000 0.000000 0.000000 0.004220 0.000000 0.034079
#
#
# Mechanical properties :
#
#
# Convention : Reuss Voigt Hill
#
# Bulk Modulus (GPa) = 14.30317 16.87973 15.59145
# Shear Modulus (GPa) = 16.42974 24.43424 20.43199
#
# Velocity S-wave (km/s) = 2.85758 3.48484 3.18668
# Velocity P-wave (km/s) = 4.24223 4.95798 4.61400
#
# Compressibility (1/GPa) = 0.06991456
#
# Stress axis : x y z
#
# Youngs Moduli (GPa) = 61.49391 22.06369 21.47005
#
# Poissons Ratio (x) = 0.20190 -0.24869
# Poissons Ratio (y) = 0.56271 0.46281
# Poissons Ratio (z) = -0.71229 0.47561
#
# Static dielectric constant tensor:
#      x y z
#    x 1.730510 0.000000 -0.003550 
#    y 0.000000 1.706040 0.000000 
#    z -0.003550 0.000000 1.772720 
# 
# From -- ./inp_files/251876.got.cif
#   From: 2010.05.17/outbox.cif.g08.bks.cpg/sg15_126_cif.got.tgz:251876.got - 2010.06.03 18:47:42.
