data_PCOD9260276
_publ_section_title
;
Structure prediction by ZEFSAII (Michael W. Deem and Ramdas Pophale) SiO2 
 PCOD9260276
Probable space group: C 2/C
;
_chemical_formula_sum "Si O2"
_cell_formula_units_Z 40
_cell_length_a 9.207464
_cell_length_b 16.289736
_cell_length_c 21.254639
_cell_angle_alpha 90.000000
_cell_angle_beta 148.331559
_cell_angle_gamma 90.000000
_cell_volume 1673.668883
_symmetry_space_group_name_H-M "C 2/C"
_symmetry_group_IT_number 15
_symmetry_cell_setting 'monoclinic'
loop_
_space_group_symop_operation_xyz
x,y,z
-x,y,1/2-z
-x,-y,-z
x,-y,1/2+z
1/2+x,1/2+y,z
1/2-x,1/2+y,1/2-z
1/2-x,1/2-y,-z
1/2+x,1/2-y,1/2+z
loop_
_atom_site_type_symbol
_atom_site_label
_atom_site_fract_x
_atom_site_fract_y
_atom_site_fract_z
Si Si1 0.205280 0.057444 0.956063
Si Si2 0.293639 0.401813 0.616493
Si Si3 0.815544 0.630347 0.127423
Si Si4 0.219175 0.776554 0.067476
Si Si5 0.350504 0.713335 0.807101
O O1 0.035326 0.133229 0.864102
O O2 0.093877 0.972150 0.887963
O O3 0.518479 0.066122 0.048469
O O4 0.222147 0.070041 0.037200
O O5 0.500000 0.382427 0.750000
O O6 0.215541 0.319599 0.550919
O O7 0.000000 0.591337 0.250000
O O8 0.001874 0.705942 0.167304
O O9 0.537668 0.671726 0.051898
O O10 0.163198 0.777194 0.122415
O O11 0.534046 0.802642 0.171000
#
# Coordination Sequence:
#
# PCOD9260276 Si02
#       5
#     8   8   8   8   8
#     4  10  21  37  59  98 142 169 218 288 335 391
#     4  11  19  36  67 100 133 167 221 286 345 383
#     4  11  21  36  61  97 144 181 223 270 336 404
#     4  10  18  36  67  98 129 174 227 284 329 397
#     4  10  18  37  62  97 135 167 229 284 334 385
#
# _framework density 23.89959
#
# number of rings (size 3 to 8) (size 9 to 14) (size 15 to 20)
#    0.000    1.600    6.000    1.200    0.000    1.600 
#    0.000    0.000    0.000    4.800   31.200    0.000 
#    6.000    0.000    0.000    0.000    0.000    0.000 
#
# Total GULP energy -111923.417307 kJ/mol
# GULP energy per Si atom -5596.170865 kJ/mol
# Density = 2.384519 g / cm^3
# Si number density = 23.899590 Si / 1000 Ang^3
#
#
#
# Elastic Constant Matrix: (Units=GPa)
#
#
# Indices 1 2 3 4 5 6 
#
# 1 84.1961 16.9371 28.6379 0.0005 -0.8769 0.0000
# 2 16.9371 72.5171 -6.7313 0.0014 -12.3070 -0.0007
# 3 28.6379 -6.7313 76.9096 0.0052 -4.6795 -0.0016
# 4 0.0005 0.0014 0.0052 13.1163 0.0002 12.6919
# 5 -0.8769 -12.3070 -4.6795 0.0002 38.0380 0.0005
# 6 0.0000 -0.0007 -0.0016 12.6919 0.0005 35.9056
#
#
#
# Elastic Compliance Matrix: (Units=1/GPa)
#
#
# Indices 1 2 3 4 5 6 
#
# 1 0.014759 -0.004306 -0.005981 0.000004 -0.001789 -0.000002
# 2 -0.004306 0.016039 0.003342 -0.000005 0.005501 0.000002
# 3 -0.005981 0.003342 0.015697 -0.000011 0.002874 0.000005
# 4 0.000004 -0.000005 -0.000011 0.115876 -0.000003 -0.040960
# 5 -0.001789 0.005501 0.002874 -0.000003 0.028382 0.000001
# 6 -0.000002 0.000002 0.000005 -0.040960 0.000001 0.042329
#
#
# Mechanical properties :
#
#
# Convention : Reuss Voigt Hill
#
# Bulk Modulus (GPa) = 30.67062 34.59003 32.63033
# Shear Modulus (GPa) = 19.39175 30.39722 24.89449
#
# Velocity S-wave (km/s) = 2.85157 3.57020 3.23093
# Velocity P-wave (km/s) = 4.86856 5.61245 5.25369
#
# Compressibility (1/GPa) = 0.03260449
#
# Stress axis : x y z
#
# Youngs Moduli (GPa) = 67.75501 62.34656 63.70703
#
# Poissons Ratio (x) = 0.26846 0.38105
# Poissons Ratio (y) = 0.29175 -0.21290
# Poissons Ratio (z) = 0.40527 -0.20835
#
# Static dielectric constant tensor:
#      x y z
#    x 1.967090 0.000000 -0.029090 
#    y 0.000000 1.893540 0.000000 
#    z -0.029090 0.000000 1.895960 
# 
# From -- ./inp_files/197584.got.cif
#   From: 2010.05.17/outbox.cif.g08.bks.cpg/sg15_99_cif.got.tgz:197584.got - 2010.06.03 18:47:42.
