data_PCOD9260802
_publ_section_title
;
Structure prediction by ZEFSAII (Michael W. Deem and Ramdas Pophale) SiO2 
 PCOD9260802
Probable space group: C 2/C
;
_chemical_formula_sum "Si O2"
_cell_formula_units_Z 40
_cell_length_a 15.983948
_cell_length_b 10.503346
_cell_length_c 13.862922
_cell_angle_alpha 90.000000
_cell_angle_beta 125.432762
_cell_angle_gamma 90.000000
_cell_volume 1896.337467
_symmetry_space_group_name_H-M "C 2/C"
_symmetry_group_IT_number 15
_symmetry_cell_setting 'monoclinic'
loop_
_space_group_symop_operation_xyz
x,y,z
-x,y,1/2-z
-x,-y,-z
x,-y,1/2+z
1/2+x,1/2+y,z
1/2-x,1/2+y,1/2-z
1/2-x,1/2-y,-z
1/2+x,1/2-y,1/2+z
loop_
_atom_site_type_symbol
_atom_site_label
_atom_site_fract_x
_atom_site_fract_y
_atom_site_fract_z
Si Si1 0.626327 0.717423 0.528289
Si Si2 0.216724 0.066054 0.429700
Si Si3 0.205464 0.851481 0.277123
Si Si4 0.666850 0.846672 0.897744
Si Si5 0.555422 0.866880 0.012618
O O1 0.703871 0.837719 0.568272
O O2 0.633274 0.644482 0.432467
O O3 0.669269 0.634170 0.644699
O O4 0.514699 0.762173 0.484463
O O5 0.170847 0.966022 0.323605
O O6 0.282977 0.984675 0.552412
O O7 0.161475 0.716456 0.289013
O O8 0.329145 0.858293 0.368551
O O9 0.750000 0.750000 0.000000
O O10 0.571084 0.847519 0.907512
O O11 0.500000 0.000000 0.000000
#
# Coordination Sequence:
#
# PCOD9260802 Si02
#       5
#     8   8   8   8   8
#     4  11  21  36  68  87 125 161 202 256 311 351
#     4   9  20  38  56  93 125 151 203 258 297 360
#     4  10  22  39  63  91 123 166 199 247 324 355
#     4   8  17  36  59  81 124 150 194 253 299 350
#     4  10  18  38  64  91 115 155 214 253 282 375
#
# _framework density 21.093292000000002
#
# number of rings (size 3 to 8) (size 9 to 14) (size 15 to 20)
#    0.000    2.800    4.000    0.000    2.800    0.800 
#    0.000   15.000   13.200    0.000    0.000    0.000 
#    0.000    0.000    0.000    0.000    0.000    0.000 
#
# Total GULP energy -111497.209016 kJ/mol
# GULP energy per Si atom -5574.860451 kJ/mol
# Density = 2.104528 g / cm^3
# Si number density = 21.093292 Si / 1000 Ang^3
#
#
#
# Elastic Constant Matrix: (Units=GPa)
#
#
# Indices 1 2 3 4 5 6 
#
# 1 144.5627 39.6495 21.6577 0.0000 -13.4916 0.0000
# 2 39.6495 76.8096 14.6353 0.0000 -13.8804 0.0000
# 3 21.6577 14.6353 41.1366 0.0000 -6.7379 0.0000
# 4 0.0000 0.0000 0.0000 18.0453 0.0000 -15.1789
# 5 -13.4916 -13.8804 -6.7379 0.0000 30.0782 0.0000
# 6 0.0000 0.0000 0.0000 -15.1789 0.0000 44.9302
#
#
#
# Elastic Compliance Matrix: (Units=1/GPa)
#
#
# Indices 1 2 3 4 5 6 
#
# 1 0.008471 -0.003538 -0.002955 0.000000 0.001505 0.000000
# 2 -0.003538 0.016391 -0.003104 0.000000 0.005282 0.000000
# 3 -0.002955 -0.003104 0.027527 0.000000 0.003409 0.000000
# 4 0.000000 0.000000 0.000000 0.077415 0.000000 0.026153
# 5 0.001505 0.005282 0.003409 0.000000 0.037123 0.000000
# 6 0.000000 0.000000 0.000000 0.026153 0.000000 0.031092
#
#
# Mechanical properties :
#
#
# Convention : Reuss Voigt Hill
#
# Bulk Modulus (GPa) = 30.12303 46.04376 38.08340
# Shear Modulus (GPa) = 21.90312 31.04850 26.47581
#
# Velocity S-wave (km/s) = 3.22591 3.84078 3.54669
# Velocity P-wave (km/s) = 5.30916 6.44552 5.90474
#
# Compressibility (1/GPa) = 0.03319719
#
# Stress axis : x y z
#
# Youngs Moduli (GPa) = 118.05226 61.00781 36.32741
#
# Poissons Ratio (x) = 0.21583 0.10733
# Poissons Ratio (y) = 0.41764 0.11276
# Poissons Ratio (z) = 0.34879 0.18936
#
# Static dielectric constant tensor:
#      x y z
#    x 1.775510 0.000000 -0.015200 
#    y 0.000000 1.808580 0.000000 
#    z -0.015200 0.000000 1.801660 
# 
# From -- ./inp_files/151460.got.cif
#   From: 2010.05.17/outbox.cif.g08.bks.cpg/sg15_76_cif.got.tgz:151460.got - 2010.06.03 18:47:42.
