data_PCOD9260531
_publ_section_title
;
Structure prediction by ZEFSAII (Michael W. Deem and Ramdas Pophale) SiO2 
 PCOD9260531
Probable space group: C 2/C
;
_chemical_formula_sum "Si O2"
_cell_formula_units_Z 48
_cell_length_a 9.210017
_cell_length_b 21.995608
_cell_length_c 17.526159
_cell_angle_alpha 90.000000
_cell_angle_beta 146.616300
_cell_angle_gamma 90.000000
_cell_volume 1953.609889
_symmetry_space_group_name_H-M "C 2/C"
_symmetry_group_IT_number 15
_symmetry_cell_setting 'monoclinic'
loop_
_space_group_symop_operation_xyz
x,y,z
-x,y,1/2-z
-x,-y,-z
x,-y,1/2+z
1/2+x,1/2+y,z
1/2-x,1/2+y,1/2-z
1/2-x,1/2-y,-z
1/2+x,1/2-y,1/2+z
loop_
_atom_site_type_symbol
_atom_site_label
_atom_site_fract_x
_atom_site_fract_y
_atom_site_fract_z
Si Si1 0.500000 0.288571 0.250000
Si Si2 0.945497 0.416895 0.535157
Si Si3 0.206600 0.396389 0.193895
Si Si4 0.000000 0.856828 0.750000
Si Si5 0.204818 0.509562 0.271140
Si Si6 0.774753 0.328239 0.591228
Si Si7 0.096377 0.874822 0.954564
O O1 0.331728 0.330966 0.232123
O O2 0.673210 0.243405 0.378419
O O3 0.787768 0.425260 0.388842
O O4 0.831165 0.363231 0.538251
O O5 0.233271 0.395100 0.633964
O O6 0.010215 0.473608 0.615806
O O7 0.331747 0.444541 0.307169
O O8 0.906052 0.386632 0.089052
O O9 0.986531 0.832975 0.656135
O O10 0.425929 0.562161 0.374971
O O11 0.000000 0.505654 0.250000
O O12 0.499603 0.343392 0.510139
O O13 0.000000 0.352969 0.750000
#
# Coordination Sequence:
#
# PCOD9260531 Si02
#       7
#     4   8   8   4   8   8   8
#     4  10  24  45  58  94 134 167 210 268 322 354
#     4  10  18  37  65  97 116 170 215 255 315 379
#     4  11  26  37  62  97 136 161 208 265 318 383
#     4   8  14  27  56  90 122 137 204 256 294 356
#     4  11  20  40  63  93 132 169 204 264 317 378
#     4  10  18  41  72  84 124 170 215 264 305 372
#     4  10  19  39  66  94 117 171 218 251 315 378
#
# _framework density 24.569901000000002
#
# number of rings (size 3 to 8) (size 9 to 14) (size 15 to 20)
#    0.500    1.333    5.000    0.500    0.000    7.333 
#    3.000    0.000   11.000    0.000    0.000    0.000 
#    0.000    0.000    0.000    0.000    0.000    0.000 
#
# Total GULP energy -134086.026286 kJ/mol
# GULP energy per Si atom -5586.917762 kJ/mol
# Density = 2.451398 g / cm^3
# Si number density = 24.569901 Si / 1000 Ang^3
#
#
#
# Elastic Constant Matrix: (Units=GPa)
#
#
# Indices 1 2 3 4 5 6 
#
# 1 172.1763 73.8705 31.4147 0.0014 25.3432 -0.0033
# 2 73.8705 158.2165 32.0368 -0.0007 15.5753 -0.0006
# 3 31.4147 32.0368 73.7092 0.0157 22.8360 -0.0067
# 4 0.0014 -0.0007 0.0157 25.8643 -0.0002 -0.1495
# 5 25.3432 15.5753 22.8360 -0.0002 36.7227 -0.0031
# 6 -0.0033 -0.0006 -0.0067 -0.1495 -0.0031 50.6848
#
#
#
# Elastic Compliance Matrix: (Units=1/GPa)
#
#
# Indices 1 2 3 4 5 6 
#
# 1 0.007832 -0.003130 -0.000885 0.000000 -0.003527 0.000000
# 2 -0.003130 0.008234 -0.002269 0.000002 0.000079 0.000000
# 3 -0.000885 -0.002269 0.017889 -0.000011 -0.009552 0.000002
# 4 0.000000 0.000002 -0.000011 0.038664 0.000006 0.000114
# 5 -0.003527 0.000079 -0.009552 0.000006 0.035571 0.000001
# 6 0.000000 0.000000 0.000002 0.000114 0.000001 0.019730
#
#
# Mechanical properties :
#
#
# Convention : Reuss Voigt Hill
#
# Bulk Modulus (GPa) = 46.75793 75.41625 61.08709
# Shear Modulus (GPa) = 33.87159 40.43969 37.15564
#
# Velocity S-wave (km/s) = 3.71695 4.06138 3.89297
# Velocity P-wave (km/s) = 6.12314 7.26321 6.71741
#
# Compressibility (1/GPa) = 0.02138675
#
# Stress axis : x y z
#
# Youngs Moduli (GPa) = 127.68905 121.45377 55.89956
#
# Poissons Ratio (x) = 0.38017 0.04945
# Poissons Ratio (y) = 0.39969 0.12684
# Poissons Ratio (z) = 0.11295 0.27559
#
# Static dielectric constant tensor:
#      x y z
#    x 1.989490 0.000000 -0.050340 
#    y 0.000000 1.952560 0.000000 
#    z -0.050340 0.000000 2.037250 
# 
# From -- ./inp_files/234014.got.cif
#   From: 2010.05.17/outbox.cif.g08.bks.cpg/sg15_118_cif.got.tgz:234014.got - 2010.06.03 18:47:42.
