data_PCOD9260509
_publ_section_title
;
Structure prediction by ZEFSAII (Michael W. Deem and Ramdas Pophale) SiO2 
 PCOD9260509
Probable space group: C 2/C
;
_chemical_formula_sum "Si O2"
_cell_formula_units_Z 60
_cell_length_a 13.820992
_cell_length_b 20.254768
_cell_length_c 13.898394
_cell_angle_alpha 90.000000
_cell_angle_beta 47.317001
_cell_angle_gamma 90.000000
_cell_volume 2860.137146
_symmetry_space_group_name_H-M "C 2/C"
_symmetry_group_IT_number 15
_symmetry_cell_setting 'monoclinic'
loop_
_space_group_symop_operation_xyz
x,y,z
-x,y,1/2-z
-x,-y,-z
x,-y,1/2+z
1/2+x,1/2+y,z
1/2-x,1/2+y,1/2-z
1/2-x,1/2-y,-z
1/2+x,1/2-y,1/2+z
loop_
_atom_site_type_symbol
_atom_site_label
_atom_site_fract_x
_atom_site_fract_y
_atom_site_fract_z
Si Si1 0.000000 0.785578 0.250000
Si Si2 0.146522 0.964847 0.107721
Si Si3 0.690073 0.215751 0.248495
Si Si4 0.912845 0.137036 0.998675
Si Si5 0.310269 0.343284 0.114540
Si Si6 0.350039 0.619891 0.383190
Si Si7 0.658978 0.053727 0.843308
Si Si8 0.378231 0.907026 0.611583
O O1 0.128105 0.746367 0.195033
O O2 0.041128 0.824844 0.127797
O O3 0.159510 0.925432 0.999337
O O4 0.252018 0.943305 0.118526
O O5 0.000000 0.953464 0.250000
O O6 0.154051 0.042695 0.084115
O O7 0.698767 0.273428 0.322756
O O8 0.593016 0.155968 0.342549
O O9 0.825477 0.181911 0.126430
O O10 0.046922 0.123271 0.964058
O O11 0.211636 0.394857 0.230062
O O12 0.300715 0.337383 0.006510
O O13 0.500000 0.635911 0.250000
O O14 0.243197 0.620093 0.370171
O O15 0.664507 0.976237 0.811304
O O16 0.508508 0.073343 0.965880
#
# Coordination Sequence:
#
# PCOD9260509 Si02
#       8
#     4   8   8   8   8   8   8   8
#     4  10  22  38  58  94 128 168 202 252 332 384
#     4  10  18  37  64  98 127 162 201 262 323 380
#     4  11  25  38  63  93 129 165 216 263 315 384
#     4  11  21  38  62  98 127 160 208 257 321 390
#     4  11  24  40  66  92 125 172 212 264 324 367
#     4  10  23  42  65  93 125 165 222 268 317 383
#     4  10  22  42  65  90 134 166 208 264 319 382
#     4  10  24  44  62  93 128 171 214 262 315 376
#
# _framework density 20.978014000000002
#
# number of rings (size 3 to 8) (size 9 to 14) (size 15 to 20)
#    0.000    1.600    2.000    2.000    7.467    1.600 
#    0.000    0.000    0.000    0.000    0.000    0.000 
#    0.000    0.000    0.000    0.000    0.000    0.000 
#
# Total GULP energy -167414.502351 kJ/mol
# GULP energy per Si atom -5580.483412 kJ/mol
# Density = 2.093027 g / cm^3
# Si number density = 20.978014 Si / 1000 Ang^3
#
#
#
# Elastic Constant Matrix: (Units=GPa)
#
#
# Indices 1 2 3 4 5 6 
#
# 1 40.4469 -0.3796 15.2104 0.0000 -10.3315 -0.0001
# 2 -0.3796 64.9542 24.7113 -0.0001 12.8195 0.0000
# 3 15.2104 24.7113 87.7795 -0.0001 -2.9672 0.0001
# 4 0.0000 -0.0001 -0.0001 9.5134 0.0001 -4.1971
# 5 -10.3315 12.8195 -2.9672 0.0001 26.5785 -0.0001
# 6 -0.0001 0.0000 0.0001 -4.1971 -0.0001 -6.0094
#
#
#
# Elastic Compliance Matrix: (Units=1/GPa)
#
#
# Indices 1 2 3 4 5 6 
#
# 1 0.029267 -0.000230 -0.004636 0.000000 0.010970 0.000000
# 2 -0.000230 0.019627 -0.005830 0.000000 -0.010207 0.000000
# 3 -0.004636 -0.005830 0.013923 0.000000 0.002565 0.000000
# 4 0.000000 0.000000 0.000000 0.080355 -0.000001 -0.056122
# 5 0.010970 -0.010207 0.002565 -0.000001 0.047098 0.000000
# 6 0.000000 0.000000 0.000000 -0.056122 0.000000 -0.127209
#
#
# Mechanical properties :
#
#
# Convention : Reuss Voigt Hill
#
# Bulk Modulus (GPa) = 24.14043 30.25165 27.19604
# Shear Modulus (GPa) = 50.88444 16.25907 33.57175
#
# Velocity S-wave (km/s) = 4.93039 2.78700 4.00475
# Velocity P-wave (km/s) = 6.62904 4.98081 5.86313
#
# Compressibility (1/GPa) = 0.04142428
#
# Stress axis : x y z
#
# Youngs Moduli (GPa) = 34.16813 50.95104 71.82115
#
# Poissons Ratio (x) = 0.01174 0.33294
# Poissons Ratio (y) = 0.00787 0.41874
# Poissons Ratio (z) = 0.15839 0.29706
#
# Static dielectric constant tensor:
#      x y z
#    x 1.806380 0.000000 -0.031360 
#    y 0.000000 1.820360 0.000000 
#    z -0.031360 0.000000 1.798430 
# 
# From -- ./inp_files/156347.got.cif
#   From: 2010.05.17/outbox.cif.g08.bks.cpg/sg15_79_cif.got.tgz:156347.got - 2010.06.03 18:47:42.
