data_PCOD9260924
_publ_section_title
;
Structure prediction by ZEFSAII (Michael W. Deem and Ramdas Pophale) SiO2 
 PCOD9260924
Probable space group: C 2/C
;
_chemical_formula_sum "Si O2"
_cell_formula_units_Z 60
_cell_length_a 13.676917
_cell_length_b 12.926294
_cell_length_c 29.342493
_cell_angle_alpha 90.000000
_cell_angle_beta 31.906790
_cell_angle_gamma 90.000000
_cell_volume 2741.802957
_symmetry_space_group_name_H-M "C 2/C"
_symmetry_group_IT_number 15
_symmetry_cell_setting 'monoclinic'
loop_
_space_group_symop_operation_xyz
x,y,z
-x,y,1/2-z
-x,-y,-z
x,-y,1/2+z
1/2+x,1/2+y,z
1/2-x,1/2+y,1/2-z
1/2-x,1/2-y,-z
1/2+x,1/2-y,1/2+z
loop_
_atom_site_type_symbol
_atom_site_label
_atom_site_fract_x
_atom_site_fract_y
_atom_site_fract_z
Si Si1 0.800998 0.408789 0.110262
Si Si2 0.802127 0.252359 0.926276
Si Si3 0.765705 0.389211 0.573584
Si Si4 0.197935 0.103597 0.390071
Si Si5 0.022898 0.304985 0.161321
Si Si6 0.500000 0.062898 0.750000
Si Si7 0.308473 0.737425 0.770775
Si Si8 0.814959 0.870195 0.989131
O O1 0.750440 0.347067 0.083968
O O2 0.762523 0.528331 0.115175
O O3 0.701058 0.368175 0.195508
O O4 0.019881 0.383447 0.026881
O O5 0.705808 0.347254 0.937223
O O6 0.020827 0.257538 0.829708
O O7 0.750000 0.250000 0.000000
O O8 0.668581 0.279964 0.622797
O O9 0.665207 0.426387 0.566854
O O10 0.301810 0.180675 0.314037
O O11 0.990573 0.108330 0.451560
O O12 0.324124 0.002737 0.336554
O O13 0.876814 0.254066 0.185349
O O14 0.923707 0.363117 0.240936
O O15 0.134264 0.393470 0.089830
O O16 0.750000 0.750000 0.000000
#
# Coordination Sequence:
#
# PCOD9260924 Si02
#       8
#     8   8   8   8   8   4   8   8
#     4  10  21  40  72 103 133 177 232 290 357 419
#     4  11  24  41  68 100 137 178 234 298 348 416
#     4  10  20  40  68 105 133 174 230 289 348 416
#     4  11  21  44  71  96 139 189 227 280 359 423
#     4  11  23  42  65 100 141 183 230 287 345 418
#     4  12  28  42  60 104 146 188 232 280 346 418
#     4  11  20  44  72  93 135 188 228 290 353 421
#     4  10  18  38  74  95 131 180 224 277 349 411
#
# _framework density 21.883409
#
# number of rings (size 3 to 8) (size 9 to 14) (size 15 to 20)
#    0.000    1.333    5.333    3.600    0.000    4.800 
#    2.400    0.000    0.000    0.000    0.000    0.000 
#    0.000    0.000    0.000    0.000    0.000    0.000 
#
# Total GULP energy -167208.280238 kJ/mol
# GULP energy per Si atom -5573.609341 kJ/mol
# Density = 2.183360 g / cm^3
# Si number density = 21.883409 Si / 1000 Ang^3
#
#
#
# Elastic Constant Matrix: (Units=GPa)
#
#
# Indices 1 2 3 4 5 6 
#
# 1 120.8127 20.7157 50.4495 -0.0003 -7.1230 0.0000
# 2 20.7157 46.1462 -4.0033 -0.0005 11.5538 -0.0001
# 3 50.4495 -4.0033 87.1751 -0.0002 8.7811 -0.0018
# 4 -0.0003 -0.0005 -0.0002 19.3488 -0.0006 -1.4520
# 5 -7.1230 11.5538 8.7811 -0.0006 49.0872 0.0003
# 6 0.0000 -0.0001 -0.0018 -1.4520 0.0003 17.5797
#
#
#
# Elastic Compliance Matrix: (Units=1/GPa)
#
#
# Indices 1 2 3 4 5 6 
#
# 1 0.013749 -0.008333 -0.008898 0.000000 0.005548 -0.000001
# 2 -0.008333 0.028309 0.007042 0.000000 -0.009132 0.000001
# 3 -0.008898 0.007042 0.017558 0.000000 -0.006090 0.000002
# 4 0.000000 0.000000 0.000000 0.052005 0.000000 0.004295
# 5 0.005548 -0.009132 -0.006090 0.000000 0.024416 -0.000001
# 6 -0.000001 0.000001 0.000002 0.004295 -0.000001 0.057238
#
#
# Mechanical properties :
#
#
# Convention : Reuss Voigt Hill
#
# Bulk Modulus (GPa) = 25.48622 43.16198 34.32410
# Shear Modulus (GPa) = 22.05246 29.66796 25.86021
#
# Velocity S-wave (km/s) = 3.17791 3.68602 3.44135
# Velocity P-wave (km/s) = 5.01370 6.15484 5.61334
#
# Compressibility (1/GPa) = 0.03923689
#
# Stress axis : x y z
#
# Youngs Moduli (GPa) = 72.73178 35.32499 56.95531
#
# Poissons Ratio (x) = 0.29437 0.50681
# Poissons Ratio (y) = 0.60610 -0.40111
# Poissons Ratio (z) = 0.64720 -0.24878
#
# Static dielectric constant tensor:
#      x y z
#    x 1.828310 0.000000 0.001110 
#    y 0.000000 1.893260 0.000000 
#    z 0.001110 0.000000 1.878150 
# 
# From -- ./inp_files/313967.got.cif
#   From: 2010.05.17/outbox.cif.g08.bks.cpg/sg15_157_cif.got.tgz:313967.got - 2010.06.03 18:47:42.
