data_PCOD9260620
_publ_section_title
;
Structure prediction by ZEFSAII (Michael W. Deem and Ramdas Pophale) SiO2 
 PCOD9260620
Probable space group: C 2/C
;
_chemical_formula_sum "Si O2"
_cell_formula_units_Z 60
_cell_length_a 19.836889
_cell_length_b 9.657460
_cell_length_c 20.962001
_cell_angle_alpha 90.000000
_cell_angle_beta 132.069803
_cell_angle_gamma 90.000000
_cell_volume 2981.025500
_symmetry_space_group_name_H-M "C 2/C"
_symmetry_group_IT_number 15
_symmetry_cell_setting 'monoclinic'
loop_
_space_group_symop_operation_xyz
x,y,z
-x,y,1/2-z
-x,-y,-z
x,-y,1/2+z
1/2+x,1/2+y,z
1/2-x,1/2+y,1/2-z
1/2-x,1/2-y,-z
1/2+x,1/2-y,1/2+z
loop_
_atom_site_type_symbol
_atom_site_label
_atom_site_fract_x
_atom_site_fract_y
_atom_site_fract_z
Si Si1 0.164670 0.837364 0.642430
Si Si2 0.500000 0.372357 0.750000
Si Si3 0.640412 0.776914 0.544810
Si Si4 0.054171 0.047178 0.660975
Si Si5 0.533965 0.079614 0.585114
Si Si6 0.867372 0.323659 0.813168
Si Si7 0.648414 0.463510 0.501740
Si Si8 0.303134 0.639829 0.078403
O O1 0.110271 0.693918 0.617396
O O2 0.261029 0.843283 0.737677
O O3 0.185505 0.866497 0.581029
O O4 0.104080 0.955363 0.638744
O O5 0.537927 0.458970 0.714231
O O6 0.595673 0.309665 0.837513
O O7 0.557274 0.841253 0.451725
O O8 0.615445 0.780512 0.602824
O O9 0.649991 0.617635 0.532319
O O10 0.733008 0.862932 0.592627
O O11 0.103624 0.190210 0.708268
O O12 0.954687 0.083393 0.572206
O O13 0.500000 0.000000 0.500000
O O14 0.576284 0.965403 0.659214
O O15 0.688792 0.497079 0.457030
O O16 0.250000 0.750000 0.000000
#
# Coordination Sequence:
#
# PCOD9260620 Si02
#       8
#     8   4   8   8   8   8   8   8
#     4  12  21  36  61  90 122 157 204 257 308 371
#     4  10  22  40  62  90 122 166 218 256 306 384
#     4  10  18  38  58  83 122 156 201 250 309 368
#     4  11  21  39  63  84 117 163 204 253 307 373
#     4  10  22  36  57  88 123 156 199 257 312 366
#     4  11  23  36  58  91 120 156 204 257 310 368
#     4  10  19  35  60  87 113 156 205 245 303 375
#     4   9  20  36  59  91 123 161 205 257 308 367
#
# _framework density 20.127300999999999
#
# number of rings (size 3 to 8) (size 9 to 14) (size 15 to 20)
#    0.000    1.600    2.667    3.600    0.000    1.067 
#    0.000    1.333    0.000    7.200    0.000    0.000 
#    0.000    0.000    0.000    0.000    0.000    0.000 
#
# Total GULP energy -167106.889810 kJ/mol
# GULP energy per Si atom -5570.229660 kJ/mol
# Density = 2.008149 g / cm^3
# Si number density = 20.127301 Si / 1000 Ang^3
#
#
#
# Elastic Constant Matrix: (Units=GPa)
#
#
# Indices 1 2 3 4 5 6 
#
# 1 48.6574 2.2505 9.4929 0.0000 13.5443 0.0000
# 2 2.2505 54.9787 18.0270 0.0000 13.1463 0.0000
# 3 9.4929 18.0270 79.4256 0.0000 17.7153 0.0000
# 4 0.0000 0.0000 0.0000 15.8893 0.0000 -0.5049
# 5 13.5443 13.1463 17.7153 0.0000 32.4000 0.0000
# 6 0.0000 0.0000 0.0000 -0.5049 0.0000 11.8772
#
#
#
# Elastic Compliance Matrix: (Units=1/GPa)
#
#
# Indices 1 2 3 4 5 6 
#
# 1 0.023437 0.001744 -0.000973 0.000000 -0.009974 0.000000
# 2 0.001744 0.020981 -0.003313 0.000000 -0.007431 0.000000
# 3 -0.000973 -0.003313 0.014883 0.000000 -0.006387 0.000000
# 4 0.000000 0.000000 0.000000 0.063021 0.000000 0.002679
# 5 -0.009974 -0.007431 -0.006387 0.000000 0.041541 0.000000
# 6 0.000000 0.000000 0.000000 0.002679 0.000000 0.084308
#
#
# Mechanical properties :
#
#
# Convention : Reuss Voigt Hill
#
# Bulk Modulus (GPa) = 18.44393 26.95582 22.69987
# Shear Modulus (GPa) = 18.42803 22.25273 20.34038
#
# Velocity S-wave (km/s) = 3.02913 3.32866 3.18242
# Velocity P-wave (km/s) = 4.62792 5.30990 4.98060
#
# Compressibility (1/GPa) = 0.05421837
#
# Stress axis : x y z
#
# Youngs Moduli (GPa) = 42.66725 47.66323 67.19025
#
# Poissons Ratio (x) = -0.08314 0.06535
# Poissons Ratio (y) = -0.07443 0.22260
# Poissons Ratio (z) = 0.04150 0.15791
#
# Static dielectric constant tensor:
#      x y z
#    x 1.802420 0.000000 -0.024720 
#    y 0.000000 2.002170 0.000000 
#    z -0.024720 0.000000 1.754600 
# 
# From -- ./inp_files/279705.got.cif
#   From: 2010.05.17/outbox.cif.g08.bks.cpg/sg15_140_cif.got.tgz:279705.got - 2010.06.03 18:47:42.
