data_PCOD9260731
_publ_section_title
;
Structure prediction by ZEFSAII (Michael W. Deem and Ramdas Pophale) SiO2 
 PCOD9260731
Probable space group: C 2/C
;
_chemical_formula_sum "Si O2"
_cell_formula_units_Z 60
_cell_length_a 32.828049
_cell_length_b 5.260670
_cell_length_c 17.188750
_cell_angle_alpha 90.000000
_cell_angle_beta 131.103858
_cell_angle_gamma 90.000000
_cell_volume 2236.787401
_symmetry_space_group_name_H-M "C 2/C"
_symmetry_group_IT_number 15
_symmetry_cell_setting 'monoclinic'
loop_
_space_group_symop_operation_xyz
x,y,z
-x,y,1/2-z
-x,-y,-z
x,-y,1/2+z
1/2+x,1/2+y,z
1/2-x,1/2+y,1/2-z
1/2-x,1/2-y,-z
1/2+x,1/2-y,1/2+z
loop_
_atom_site_type_symbol
_atom_site_label
_atom_site_fract_x
_atom_site_fract_y
_atom_site_fract_z
Si Si1 0.112576 0.696126 0.555883
Si Si2 0.768731 0.775633 0.402817
Si Si3 0.498045 0.683021 0.591258
Si Si4 0.382380 0.738360 0.765338
Si Si5 0.000000 0.529234 0.750000
Si Si6 0.839188 0.758819 0.635996
Si Si7 0.577377 0.683429 0.433754
Si Si8 0.201507 0.595374 0.229110
O O1 0.054366 0.731960 0.524230
O O2 0.106070 0.422760 0.507883
O O3 0.164726 0.660298 0.673826
O O4 0.111616 0.926672 0.492619
O O5 0.717373 0.689050 0.388934
O O6 0.820127 0.746135 0.522727
O O7 0.777056 0.649317 0.329434
O O8 0.749842 0.057023 0.351220
O O9 0.556259 0.724416 0.629430
O O10 0.478828 0.402049 0.593119
O O11 0.499043 0.847637 0.673094
O O12 0.374632 0.504252 0.697944
O O13 0.341624 0.715674 0.786836
O O14 0.365087 0.998600 0.700468
O O15 0.947030 0.707673 0.676783
#
# Coordination Sequence:
#
# PCOD9260731 Si02
#       8
#     8   8   8   8   4   8   8   8
#     4   9  22  39  62  96 135 177 229 280 340 413
#     4  10  24  47  74 101 143 180 237 306 354 410
#     4   9  22  40  63  98 143 183 220 289 336 418
#     4  11  25  44  73 107 142 184 235 281 359 427
#     4  10  18  38  62  90 132 200 232 268 346 398
#     4  10  25  47  72 108 138 181 234 296 360 417
#     4   9  20  38  57  93 135 177 225 282 327 407
#     4  11  24  46  73 105 137 190 238 291 358 427
#
# _framework density 26.824186000000001
#
# number of rings (size 3 to 8) (size 9 to 14) (size 15 to 20)
#    0.800    1.333    0.000    1.200    3.733   11.733 
#    2.400    0.667    0.000    0.000    0.000    0.000 
#    0.000    0.000    0.000    0.000    0.000    0.000 
#
# Total GULP energy -167712.053044 kJ/mol
# GULP energy per Si atom -5590.401768 kJ/mol
# Density = 2.676313 g / cm^3
# Si number density = 26.824186 Si / 1000 Ang^3
#
#
#
# Elastic Constant Matrix: (Units=GPa)
#
#
# Indices 1 2 3 4 5 6 
#
# 1 108.8446 38.8058 48.8003 0.0001 -4.4996 0.0026
# 2 38.8058 168.3058 38.8395 -0.0194 -4.7170 0.0045
# 3 48.8003 38.8395 122.8607 -0.0021 1.8341 0.0006
# 4 0.0001 -0.0194 -0.0021 34.4920 0.0003 -10.5856
# 5 -4.4996 -4.7170 1.8341 0.0003 46.0073 0.0008
# 6 0.0026 0.0045 0.0006 -10.5856 0.0008 27.7295
#
#
#
# Elastic Compliance Matrix: (Units=1/GPa)
#
#
# Indices 1 2 3 4 5 6 
#
# 1 0.011692 -0.001713 -0.004119 -0.000002 0.001132 -0.000001
# 2 -0.001713 0.006685 -0.001441 0.000004 0.000575 0.000001
# 3 -0.004119 -0.001441 0.010245 0.000000 -0.000959 0.000000
# 4 -0.000002 0.000004 0.000000 0.032840 0.000000 0.012536
# 5 0.001132 0.000575 -0.000959 0.000000 0.021944 -0.000001
# 6 -0.000001 0.000001 0.000000 0.012536 -0.000001 0.040848
#
#
# Mechanical properties :
#
#
# Convention : Reuss Voigt Hill
#
# Bulk Modulus (GPa) = 71.05052 72.54468 71.79760
# Shear Modulus (GPa) = 34.84455 39.88346 37.36401
#
# Velocity S-wave (km/s) = 3.60807 3.86015 3.73624
# Velocity P-wave (km/s) = 6.62590 6.85353 6.74068
#
# Compressibility (1/GPa) = 0.01407449
#
# Stress axis : x y z
#
# Youngs Moduli (GPa) = 85.52878 149.57990 97.60417
#
# Poissons Ratio (x) = 0.25630 0.40206
# Poissons Ratio (y) = 0.14655 0.14069
# Poissons Ratio (z) = 0.35232 0.21561
#
# Static dielectric constant tensor:
#      x y z
#    x 2.229250 0.000000 0.047200 
#    y 0.000000 2.122430 0.000000 
#    z 0.047200 0.000000 2.145620 
# 
# From -- ./inp_files/284082.got.cif
#   From: 2010.05.17/outbox.cif.g08.bks.cpg/sg15_143_cif.got.tgz:284082.got - 2010.06.03 18:47:42.
