data_PCOD9260971
_publ_section_title
;
Structure prediction by ZEFSAII (Michael W. Deem and Ramdas Pophale) SiO2 
 PCOD9260971
Probable space group: C 2/C
;
_chemical_formula_sum "Si O2"
_cell_formula_units_Z 40
_cell_length_a 8.270938
_cell_length_b 23.112006
_cell_length_c 19.543783
_cell_angle_alpha 90.000000
_cell_angle_beta 29.760848
_cell_angle_gamma 90.000000
_cell_volume 1854.454055
_symmetry_space_group_name_H-M "C 2/C"
_symmetry_group_IT_number 15
_symmetry_cell_setting 'monoclinic'
loop_
_space_group_symop_operation_xyz
x,y,z
-x,y,1/2-z
-x,-y,-z
x,-y,1/2+z
1/2+x,1/2+y,z
1/2-x,1/2+y,1/2-z
1/2-x,1/2-y,-z
1/2+x,1/2-y,1/2+z
loop_
_atom_site_type_symbol
_atom_site_label
_atom_site_fract_x
_atom_site_fract_y
_atom_site_fract_z
Si Si1 0.120918 0.841003 0.526201
Si Si2 0.973510 0.947079 0.177820
Si Si3 0.253417 0.243297 0.717543
Si Si4 0.249595 0.525037 0.535173
Si Si5 0.617821 0.336156 0.376738
O O1 0.454238 0.803335 0.402331
O O2 0.176589 0.908737 0.513394
O O3 0.964361 0.834977 0.507837
O O4 0.897749 0.807489 0.661645
O O5 0.610774 0.973059 0.300580
O O6 0.003441 0.884580 0.130941
O O7 0.000000 0.943101 0.250000
O O8 0.217694 0.987010 0.045162
O O9 0.109790 0.225219 0.842846
O O10 0.000000 0.235871 0.750000
O O11 0.500000 0.500000 0.500000
O O12 0.000000 0.351119 0.250000
#
# Coordination Sequence:
#
# PCOD9260971 Si02
#       5
#     8   8   8   8   8
#     4  10  22  40  63  93 125 169 223 263 326 404
#     4  12  24  41  65  99 132 173 221 280 334 386
#     4  10  21  38  63  91 124 164 211 277 321 387
#     4  12  23  43  69  96 133 182 222 271 329 412
#     4  10  18  39  64  84 121 171 211 254 332 400
#
# _framework density 21.569690999999999
#
# number of rings (size 3 to 8) (size 9 to 14) (size 15 to 20)
#    0.000    1.200    6.000    1.800    0.000    2.400 
#    0.000    5.000    0.000    0.000    0.000    0.000 
#    0.000    0.000    0.000    0.000    0.000    0.000 
#
# Total GULP energy -111707.742744 kJ/mol
# GULP energy per Si atom -5585.387137 kJ/mol
# Density = 2.152060 g / cm^3
# Si number density = 21.569691 Si / 1000 Ang^3
#
#
#
# Elastic Constant Matrix: (Units=GPa)
#
#
# Indices 1 2 3 4 5 6 
#
# 1 62.1706 -0.8896 -3.8323 0.0043 2.4889 0.0001
# 2 -0.8896 100.3600 19.4049 0.0084 15.2653 -0.0003
# 3 -3.8323 19.4049 45.2502 -0.0079 7.4821 0.0102
# 4 0.0043 0.0084 -0.0079 22.3529 0.0000 10.2873
# 5 2.4889 15.2653 7.4821 0.0000 36.2179 0.0005
# 6 0.0001 -0.0003 0.0102 10.2873 0.0005 31.2246
#
#
#
# Elastic Compliance Matrix: (Units=1/GPa)
#
#
# Indices 1 2 3 4 5 6 
#
# 1 0.016243 0.000060 0.001593 -0.000003 -0.001470 0.000000
# 2 0.000060 0.011379 -0.004225 -0.000008 -0.003927 0.000004
# 3 0.001593 -0.004225 0.024611 0.000016 -0.003413 -0.000013
# 4 -0.000003 -0.000008 0.000016 0.052733 0.000000 -0.017373
# 5 -0.001470 -0.003927 -0.003413 0.000000 0.030072 0.000001
# 6 0.000000 0.000004 -0.000013 -0.017373 0.000001 0.037750
#
#
# Mechanical properties :
#
#
# Convention : Reuss Voigt Hill
#
# Bulk Modulus (GPa) = 21.23720 26.34966 23.79343
# Shear Modulus (GPa) = 25.82276 30.83226 28.32751
#
# Velocity S-wave (km/s) = 3.46378 3.78488 3.62788
# Velocity P-wave (km/s) = 5.08569 5.59848 5.34823
#
# Compressibility (1/GPa) = 0.04708719
#
# Stress axis : x y z
#
# Youngs Moduli (GPa) = 61.56612 87.88128 40.63299
#
# Poissons Ratio (x) = -0.00524 -0.06474
# Poissons Ratio (y) = -0.00367 0.17169
# Poissons Ratio (z) = -0.09809 0.37133
#
# Static dielectric constant tensor:
#      x y z
#    x 1.807490 0.000000 -0.016480 
#    y 0.000000 1.774500 0.000000 
#    z -0.016480 0.000000 1.836480 
# 
# From -- ./inp_files/266011.got.cif
#   From: 2010.05.17/outbox.cif.g08.bks.cpg/sg15_134_cif.got.tgz:266011.got - 2010.06.03 18:47:42.
