data_PCOD9260703
_publ_section_title
;
Structure prediction by ZEFSAII (Michael W. Deem and Ramdas Pophale) SiO2 
 PCOD9260703
Probable space group: C 2/C
;
_chemical_formula_sum "Si O2"
_cell_formula_units_Z 48
_cell_length_a 16.439282
_cell_length_b 13.754295
_cell_length_c 9.358309
_cell_angle_alpha 90.000000
_cell_angle_beta 93.737800
_cell_angle_gamma 90.000000
_cell_volume 2111.512991
_symmetry_space_group_name_H-M "C 2/C"
_symmetry_group_IT_number 15
_symmetry_cell_setting 'monoclinic'
loop_
_space_group_symop_operation_xyz
x,y,z
-x,y,1/2-z
-x,-y,-z
x,-y,1/2+z
1/2+x,1/2+y,z
1/2-x,1/2+y,1/2-z
1/2-x,1/2-y,-z
1/2+x,1/2-y,1/2+z
loop_
_atom_site_type_symbol
_atom_site_label
_atom_site_fract_x
_atom_site_fract_y
_atom_site_fract_z
Si Si1 0.883736 0.088703 0.186994
Si Si2 0.099827 0.905485 0.132988
Si Si3 0.615963 0.251174 0.578114
Si Si4 0.217048 0.666925 0.107822
Si Si5 0.780451 0.177124 0.663256
Si Si6 0.962413 0.689599 0.388205
O O1 0.896236 0.187338 0.278475
O O2 0.786899 0.086645 0.133933
O O3 0.918483 0.002405 0.284953
O O4 0.920318 0.084890 0.034285
O O5 0.192224 0.890732 0.203531
O O6 0.063264 0.799752 0.161600
O O7 0.687121 0.171241 0.606681
O O8 0.656284 0.323584 0.461784
O O9 0.533526 0.204507 0.510929
O O10 0.214152 0.715896 0.264886
O O11 0.122600 0.644255 0.065119
O O12 0.250000 0.750000 0.000000
O O13 0.000000 0.641849 0.250000
#
# Coordination Sequence:
#
# PCOD9260703 Si02
#       6
#     8   8   8   8   8   8
#     4  11  23  38  59  85 120 166 200 236 301 368
#     4  11  22  38  56  85 121 159 198 243 300 362
#     4  10  20  35  59  88 115 156 198 243 295 350
#     4  10  18  38  62  82 115 158 206 244 288 352
#     4   9  18  36  59  81 117 154 201 238 291 359
#     4  11  21  38  61  91 122 150 199 258 297 349
#
# _framework density 22.732516
#
# number of rings (size 3 to 8) (size 9 to 14) (size 15 to 20)
#    0.000    1.667    6.667    1.000    0.000    1.333 
#    0.000    0.000    0.000    1.000    0.000    0.000 
#    0.000    0.000    0.000    0.000    0.000    0.000 
#
# Total GULP energy -133706.554950 kJ/mol
# GULP energy per Si atom -5571.106456 kJ/mol
# Density = 2.268078 g / cm^3
# Si number density = 22.732516 Si / 1000 Ang^3
#
#
#
# Elastic Constant Matrix: (Units=GPa)
#
#
# Indices 1 2 3 4 5 6 
#
# 1 156.1953 -1.1940 24.2925 0.0000 33.7511 0.0000
# 2 -1.1940 11.0748 5.6555 0.0000 -1.3499 0.0000
# 3 24.2925 5.6555 128.1181 0.0000 11.6437 0.0000
# 4 0.0000 0.0000 0.0000 27.9847 0.0000 9.8457
# 5 33.7511 -1.3499 11.6437 0.0000 43.7827 0.0000
# 6 0.0000 0.0000 0.0000 9.8457 0.0000 5.6862
#
#
#
# Elastic Compliance Matrix: (Units=1/GPa)
#
#
# Indices 1 2 3 4 5 6 
#
# 1 0.007799 0.000646 -0.000987 0.000000 -0.005730 0.000000
# 2 0.000646 0.093130 -0.004559 0.000000 0.003586 0.000000
# 3 -0.000987 -0.004559 0.008339 0.000000 -0.001598 0.000000
# 4 0.000000 0.000000 0.000000 0.091435 0.000000 -0.158319
# 5 -0.005730 0.003586 -0.001598 0.000000 0.027792 0.000000
# 6 0.000000 0.000000 0.000000 -0.158319 0.000000 0.449994
#
#
# Mechanical properties :
#
#
# Convention : Reuss Voigt Hill
#
# Bulk Modulus (GPa) = 10.05344 39.21068 24.63206
# Shear Modulus (GPa) = 6.93055 33.26635 20.09845
#
# Velocity S-wave (km/s) = 1.74796 3.82957 2.97665
# Velocity P-wave (km/s) = 2.91649 6.06962 4.76163
#
# Compressibility (1/GPa) = 0.09946841
#
# Stress axis : x y z
#
# Youngs Moduli (GPa) = 128.22710 10.73764 119.92095
#
# Poissons Ratio (x) = -0.00694 0.11830
# Poissons Ratio (y) = -0.08286 0.54677
# Poissons Ratio (z) = 0.12650 0.04896
#
# Static dielectric constant tensor:
#      x y z
#    x 2.022500 0.000000 -0.022410 
#    y 0.000000 1.865110 0.000000 
#    z -0.022410 0.000000 1.885990 
# 
# From -- ./inp_files/39635.got.cif
#   From: 2010.05.17/outbox.cif.g08.bks.cpg/sg15_20_cif.got.tgz:39635.got - 2010.06.03 18:47:42.
