data_PCOD9260293
_publ_section_title
;
Structure prediction by ZEFSAII (Michael W. Deem and Ramdas Pophale) SiO2 
 PCOD9260293
Probable space group: C 2/C
;
_chemical_formula_sum "Si O2"
_cell_formula_units_Z 52
_cell_length_a 25.010124
_cell_length_b 8.250097
_cell_length_c 15.828581
_cell_angle_alpha 90.000000
_cell_angle_beta 45.842081
_cell_angle_gamma 90.000000
_cell_volume 2343.105506
_symmetry_space_group_name_H-M "C 2/C"
_symmetry_group_IT_number 15
_symmetry_cell_setting 'monoclinic'
loop_
_space_group_symop_operation_xyz
x,y,z
-x,y,1/2-z
-x,-y,-z
x,-y,1/2+z
1/2+x,1/2+y,z
1/2-x,1/2+y,1/2-z
1/2-x,1/2-y,-z
1/2+x,1/2-y,1/2+z
loop_
_atom_site_type_symbol
_atom_site_label
_atom_site_fract_x
_atom_site_fract_y
_atom_site_fract_z
Si Si1 0.250472 0.883544 0.427768
Si Si2 0.619848 0.116218 0.250400
Si Si3 0.000000 0.159727 0.250000
Si Si4 0.509579 0.862617 0.402474
Si Si5 0.652645 0.285891 0.382842
Si Si6 0.621893 0.566886 0.651941
Si Si7 0.419310 0.570416 0.115791
O O1 0.250000 0.750000 0.500000
O O2 0.216263 0.794130 0.382965
O O3 0.330512 0.961678 0.325878
O O4 0.199755 0.027352 0.522771
O O5 0.663946 0.206650 0.278047
O O6 0.610576 0.244192 0.184571
O O7 0.539290 0.045648 0.367926
O O8 0.024678 0.279365 0.295767
O O9 0.935052 0.033193 0.344767
O O10 0.422590 0.813017 0.508120
O O11 0.564507 0.760346 0.403470
O O12 0.635570 0.476105 0.385153
O O13 0.605881 0.486625 0.762413
O O14 0.500000 0.500000 0.000000
#
# Coordination Sequence:
#
# PCOD9260293 Si02
#       7
#     8   8   4   8   8   8   8
#     4  12  25  44  66  94 134 185 221 273 341 406
#     4  11  25  40  65  99 138 170 225 286 331 406
#     4  10  18  36  68  94 126 180 208 274 330 400
#     4  10  19  38  67  97 128 167 223 271 336 392
#     4  10  22  42  66  91 131 176 225 274 335 397
#     4  10  21  40  61  95 132 168 222 271 331 387
#     4   8  17  35  63  89 123 170 215 264 322 394
#
# _framework density 22.192769999999999
#
# number of rings (size 3 to 8) (size 9 to 14) (size 15 to 20)
#    0.000    1.846    1.538    2.769    0.000    4.308 
#    0.000    1.538    0.000    0.000    0.000    0.000 
#    0.000    0.000    0.000    0.000    0.000    0.000 
#
# Total GULP energy -144822.890506 kJ/mol
# GULP energy per Si atom -5570.111173 kJ/mol
# Density = 2.214226 g / cm^3
# Si number density = 22.192770 Si / 1000 Ang^3
#
#
#
# Elastic Constant Matrix: (Units=GPa)
#
#
# Indices 1 2 3 4 5 6 
#
# 1 78.2684 28.6253 -9.0749 -0.0024 11.7068 0.0016
# 2 28.6253 99.5937 12.3957 -0.0044 3.7637 0.0044
# 3 -9.0749 12.3957 67.8403 -0.0039 -6.1158 0.0033
# 4 -0.0024 -0.0044 -0.0039 44.6559 0.0022 5.6244
# 5 11.7068 3.7637 -6.1158 0.0022 23.1963 -0.0015
# 6 0.0016 0.0044 0.0033 5.6244 -0.0015 25.6695
#
#
#
# Elastic Compliance Matrix: (Units=1/GPa)
#
#
# Indices 1 2 3 4 5 6 
#
# 1 0.015696 -0.004554 0.002340 0.000001 -0.006565 -0.000001
# 2 -0.004554 0.011708 -0.002779 0.000001 -0.000334 -0.000002
# 3 0.002340 -0.002779 0.015873 0.000001 0.003455 -0.000002
# 4 0.000001 0.000001 0.000001 0.023029 -0.000003 -0.005046
# 5 -0.006565 -0.000334 0.003455 -0.000003 0.047389 0.000003
# 6 -0.000001 -0.000002 -0.000002 -0.005046 0.000003 0.040062
#
#
# Mechanical properties :
#
#
# Convention : Reuss Voigt Hill
#
# Bulk Modulus (GPa) = 30.03889 34.39942 32.21915
# Shear Modulus (GPa) = 28.59766 32.95477 30.77622
#
# Velocity S-wave (km/s) = 3.59361 3.85766 3.72797
# Velocity P-wave (km/s) = 5.54829 5.94777 5.75150
#
# Compressibility (1/GPa) = 0.03329018
#
# Stress axis : x y z
#
# Youngs Moduli (GPa) = 63.71249 85.40987 63.00143
#
# Poissons Ratio (x) = 0.38898 -0.14741
# Poissons Ratio (y) = 0.29017 0.17506
# Poissons Ratio (z) = -0.14908 0.23732
#
# Static dielectric constant tensor:
#      x y z
#    x 1.413510 0.000000 0.072720 
#    y 0.000000 1.834070 0.000000 
#    z 0.072720 0.000000 1.982160 
# 
# From -- ./inp_files/221854.got.cif
#   From: 2010.05.17/outbox.cif.g08.bks.cpg/sg15_111_cif.got.tgz:221854.got - 2010.06.03 18:47:42.
