data_PCOD9260942
_publ_section_title
;
Structure prediction by ZEFSAII (Michael W. Deem and Ramdas Pophale) SiO2 
 PCOD9260942
Probable space group: C 2/C
;
_chemical_formula_sum "Si O2"
_cell_formula_units_Z 48
_cell_length_a 13.885893
_cell_length_b 13.753199
_cell_length_c 33.481457
_cell_angle_alpha 90.000000
_cell_angle_beta 155.160271
_cell_angle_gamma 90.000000
_cell_volume 2686.057963
_symmetry_space_group_name_H-M "C 2/C"
_symmetry_group_IT_number 15
_symmetry_cell_setting 'monoclinic'
loop_
_space_group_symop_operation_xyz
x,y,z
-x,y,1/2-z
-x,-y,-z
x,-y,1/2+z
1/2+x,1/2+y,z
1/2-x,1/2+y,1/2-z
1/2-x,1/2-y,-z
1/2+x,1/2-y,1/2+z
loop_
_atom_site_type_symbol
_atom_site_label
_atom_site_fract_x
_atom_site_fract_y
_atom_site_fract_z
Si Si1 0.253480 0.658442 0.678054
Si Si2 0.838074 0.242357 0.988342
Si Si3 0.197613 0.402596 0.291540
Si Si4 0.902849 0.481233 0.826828
Si Si5 0.579677 0.486541 0.984845
Si Si6 0.164592 0.224940 0.226366
O O1 0.500000 0.658451 0.750000
O O2 0.189000 0.554823 0.673710
O O3 0.239461 0.733519 0.710704
O O4 0.063117 0.690553 0.573602
O O5 0.615272 0.269305 0.878168
O O6 0.750000 0.250000 0.000000
O O7 0.901807 0.129786 0.009727
O O8 0.114953 0.462818 0.222040
O O9 0.398377 0.463807 0.387431
O O10 0.257802 0.298121 0.295329
O O11 0.000000 0.391494 0.250000
O O12 0.761144 0.382116 0.770119
O O13 0.174623 0.467768 0.933657
O O14 0.500000 0.500000 0.000000
#
# Coordination Sequence:
#
# PCOD9260942 Si02
#       6
#     8   8   8   8   8   8
#     4  10  22  39  61  88 118 161 208 245 295 367
#     4  10  18  39  60  85 117 159 193 245 301 357
#     4  11  21  39  62  89 123 156 194 253 305 356
#     4  11  23  39  60  93 122 156 203 252 300 357
#     4  12  22  36  63  94 119 153 204 248 306 359
#     4  10  22  39  60  87 122 155 197 251 308 348
#
# _framework density 17.870054
#
# number of rings (size 3 to 8) (size 9 to 14) (size 15 to 20)
#    0.000    1.333    6.667    2.000    2.333    2.667 
#    0.000    0.833    0.000    0.000    0.000    0.000 
#    0.000    0.000    0.000    0.000    0.000    0.000 
#
# Total GULP energy -133803.992350 kJ/mol
# GULP energy per Si atom -5575.166348 kJ/mol
# Density = 1.782938 g / cm^3
# Si number density = 17.870054 Si / 1000 Ang^3
#
#
#
# Elastic Constant Matrix: (Units=GPa)
#
#
# Indices 1 2 3 4 5 6 
#
# 1 88.6738 41.8169 44.1380 0.0000 19.2715 -0.0001
# 2 41.8169 130.7149 23.5503 0.0004 4.5306 -0.0003
# 3 44.1380 23.5503 78.9811 -0.0003 17.7226 0.0001
# 4 0.0000 0.0004 -0.0003 32.9477 -0.0002 -2.8115
# 5 19.2715 4.5306 17.7226 -0.0002 28.3579 0.0002
# 6 -0.0001 -0.0003 0.0001 -2.8115 0.0002 15.8412
#
#
#
# Elastic Compliance Matrix: (Units=1/GPa)
#
#
# Indices 1 2 3 4 5 6 
#
# 1 0.018645 -0.004364 -0.007481 0.000000 -0.007298 0.000000
# 2 -0.004364 0.009107 -0.000716 0.000000 0.001958 0.000000
# 3 -0.007481 -0.000716 0.018481 0.000000 -0.006352 0.000000
# 4 0.000000 0.000000 0.000000 0.030818 0.000000 0.005470
# 5 -0.007298 0.001958 -0.006352 0.000000 0.043880 0.000000
# 6 0.000000 0.000000 0.000000 0.005470 0.000000 0.064097
#
#
# Mechanical properties :
#
#
# Convention : Reuss Voigt Hill
#
# Bulk Modulus (GPa) = 47.36824 57.48666 52.42745
# Shear Modulus (GPa) = 23.02163 28.02035 25.52099
#
# Velocity S-wave (km/s) = 3.59316 3.96410 3.78318
# Velocity P-wave (km/s) = 6.61657 7.29323 6.96312
#
# Compressibility (1/GPa) = 0.02111119
#
# Stress axis : x y z
#
# Youngs Moduli (GPa) = 53.63377 109.79973 54.11087
#
# Poissons Ratio (x) = 0.47916 0.40479
# Poissons Ratio (y) = 0.23406 0.03876
# Poissons Ratio (z) = 0.40122 0.07865
#
# Static dielectric constant tensor:
#      x y z
#    x 1.553070 0.000000 -0.134910 
#    y 0.000000 1.596010 -0.000010 
#    z -0.134910 -0.000010 0.890900 
# 
# From -- ./inp_files/237729.got.cif
#   From: 2010.05.17/outbox.cif.g08.bks.cpg/sg15_119_cif.got.tgz:237729.got - 2010.06.03 18:47:42.
