data_PCOD9260404
_publ_section_title
;
Structure prediction by ZEFSAII (Michael W. Deem and Ramdas Pophale) SiO2 
 PCOD9260404
Probable space group: C 2/C
;
_chemical_formula_sum "Si O2"
_cell_formula_units_Z 60
_cell_length_a 8.043394
_cell_length_b 11.633705
_cell_length_c 28.313206
_cell_angle_alpha 90.000000
_cell_angle_beta 90.863913
_cell_angle_gamma 90.000000
_cell_volume 2649.092166
_symmetry_space_group_name_H-M "C 2/C"
_symmetry_group_IT_number 15
_symmetry_cell_setting 'monoclinic'
loop_
_space_group_symop_operation_xyz
x,y,z
-x,y,1/2-z
-x,-y,-z
x,-y,1/2+z
1/2+x,1/2+y,z
1/2-x,1/2+y,1/2-z
1/2-x,1/2-y,-z
1/2+x,1/2-y,1/2+z
loop_
_atom_site_type_symbol
_atom_site_label
_atom_site_fract_x
_atom_site_fract_y
_atom_site_fract_z
Si Si1 0.251969 0.917627 0.897027
Si Si2 0.335029 0.429633 0.014690
Si Si3 0.173365 0.408276 0.454133
Si Si4 0.827627 0.573489 0.813691
Si Si5 0.302853 0.758954 0.236041
Si Si6 0.000000 0.585654 0.250000
Si Si7 0.026840 0.278398 0.541419
Si Si8 0.571597 0.208161 0.865405
O O1 0.422149 0.849565 0.911359
O O2 0.105134 0.823274 0.894947
O O3 0.238382 0.987468 0.848478
O O4 0.231464 0.002995 0.940252
O O5 0.218861 0.462795 0.969779
O O6 0.500000 0.500000 0.000000
O O7 0.368227 0.301255 0.032054
O O8 0.059442 0.352715 0.494360
O O9 0.331098 0.322322 0.456137
O O10 0.104426 0.395432 0.401537
O O11 0.750222 0.629381 0.766605
O O12 0.983800 0.499677 0.794620
O O13 0.891273 0.682328 0.843860
O O14 0.500000 0.734224 0.250000
O O15 0.308291 0.781440 0.179791
O O16 0.167722 0.661583 0.248030
#
# Coordination Sequence:
#
# PCOD9260404 Si02
#       8
#     8   8   8   8   8   4   8   8
#     4  10  20  35  61  86 114 165 207 254 323 373
#     4   9  16  31  55  85 120 156 205 259 306 377
#     4   8  15  28  52  79 113 158 194 249 315 358
#     4  11  23  42  62  90 130 162 210 274 319 381
#     4  10  23  44  66  95 130 168 215 270 323 391
#     4  12  22  46  70  88 132 172 208 272 332 374
#     4   8  15  30  52  81 116 153 200 251 306 370
#     4  10  18  37  61  84 120 161 207 254 317 376
#
# _framework density 22.649267999999999
#
# number of rings (size 3 to 8) (size 9 to 14) (size 15 to 20)
#    0.000    2.400    3.333    2.400    0.000    1.067 
#    3.600   13.333    0.000    4.000    0.000    0.000 
#    0.000    0.000    0.000    0.000    0.000    0.000 
#
# Total GULP energy -167108.186983 kJ/mol
# GULP energy per Si atom -5570.272899 kJ/mol
# Density = 2.259772 g / cm^3
# Si number density = 22.649268 Si / 1000 Ang^3
#
#
#
# Elastic Constant Matrix: (Units=GPa)
#
#
# Indices 1 2 3 4 5 6 
#
# 1 36.0911 15.0970 -4.4147 0.0000 2.3190 0.0000
# 2 15.0970 90.2757 4.1007 0.0000 10.1634 0.0000
# 3 -4.4147 4.1007 67.4559 0.0000 13.8580 0.0000
# 4 0.0000 0.0000 0.0000 26.8611 0.0000 -6.0194
# 5 2.3190 10.1634 13.8580 0.0000 15.4954 0.0000
# 6 0.0000 0.0000 0.0000 -6.0194 0.0000 39.1484
#
#
#
# Elastic Compliance Matrix: (Units=1/GPa)
#
#
# Indices 1 2 3 4 5 6 
#
# 1 0.030348 -0.004740 0.003147 0.000000 -0.004247 0.000000
# 2 -0.004740 0.012766 0.000598 0.000000 -0.008198 0.000000
# 3 0.003147 0.000598 0.018586 0.000000 -0.017485 0.000000
# 4 0.000000 0.000000 0.000000 0.038557 0.000000 0.005928
# 5 -0.004247 -0.008198 -0.017485 0.000000 0.086186 0.000000
# 6 0.000000 0.000000 0.000000 0.005928 0.000000 0.026455
#
#
# Mechanical properties :
#
#
# Convention : Reuss Voigt Hill
#
# Bulk Modulus (GPa) = 16.74766 24.82096 20.78431
# Shear Modulus (GPa) = 21.29544 28.23697 24.76621
#
# Velocity S-wave (km/s) = 3.06964 3.53470 3.31035
# Velocity P-wave (km/s) = 4.46922 5.25751 4.87931
#
# Compressibility (1/GPa) = 0.05970984
#
# Stress axis : x y z
#
# Youngs Moduli (GPa) = 32.95087 78.33501 53.80321
#
# Poissons Ratio (x) = 0.37131 -0.16931
# Poissons Ratio (y) = 0.15619 -0.03218
# Poissons Ratio (z) = -0.10369 -0.04685
#
# Static dielectric constant tensor:
#      x y z
#    x 1.846490 0.000000 0.255770 
#    y 0.000000 1.911960 0.000000 
#    z 0.255770 0.000000 1.543600 
# 
# From -- ./inp_files/288039.got.cif
#   From: 2010.05.17/outbox.cif.g08.bks.cpg/sg15_145_cif.got.tgz:288039.got - 2010.06.03 18:47:42.
