data_PCOD9260400
_publ_section_title
;
Structure prediction by ZEFSAII (Michael W. Deem and Ramdas Pophale) SiO2 
 PCOD9260400
Probable space group: C 2/C
;
_chemical_formula_sum "Si O2"
_cell_formula_units_Z 64
_cell_length_a 14.470672
_cell_length_b 8.605206
_cell_length_c 27.276920
_cell_angle_alpha 90.000000
_cell_angle_beta 67.279533
_cell_angle_gamma 90.000000
_cell_volume 3133.030909
_symmetry_space_group_name_H-M "C 2/C"
_symmetry_group_IT_number 15
_symmetry_cell_setting 'monoclinic'
loop_
_space_group_symop_operation_xyz
x,y,z
-x,y,1/2-z
-x,-y,-z
x,-y,1/2+z
1/2+x,1/2+y,z
1/2-x,1/2+y,1/2-z
1/2-x,1/2-y,-z
1/2+x,1/2-y,1/2+z
loop_
_atom_site_type_symbol
_atom_site_label
_atom_site_fract_x
_atom_site_fract_y
_atom_site_fract_z
Si Si1 0.442929 0.589865 0.632087
Si Si2 0.401004 0.094530 0.182354
Si Si3 0.740045 0.806113 0.556817
Si Si4 0.559947 0.295602 0.577801
Si Si5 0.161032 0.361155 0.379193
Si Si6 0.891253 0.472583 0.363522
Si Si7 0.244851 0.411553 0.696821
Si Si8 0.896039 0.086646 0.531976
O O1 0.451346 0.738566 0.664461
O O2 0.533584 0.467851 0.604335
O O3 0.351237 0.496317 0.675127
O O4 0.409064 0.646719 0.584541
O O5 0.493323 0.981904 0.176416
O O6 0.316737 0.093823 0.240829
O O7 0.355474 0.028169 0.141062
O O8 0.750000 0.750000 0.500000
O O9 0.778695 0.666688 0.583275
O O10 0.635372 0.883725 0.594174
O O11 0.813191 0.952862 0.550248
O O12 0.449712 0.216689 0.592269
O O13 0.614372 0.305826 0.513809
O O14 0.618767 0.187038 0.604038
O O15 0.226077 0.260046 0.327563
O O16 0.821241 0.502137 0.331238
O O17 0.000000 0.000000 0.500000
#
# Coordination Sequence:
#
# PCOD9260400 Si02
#       8
#     8   8   8   8   8   8   8   8
#     4  10  20  37  60  87 113 151 202 237 280 353
#     4  11  22  34  64  85 108 158 194 240 291 347
#     4  11  22  37  58  86 121 154 182 243 299 340
#     4   9  19  36  62  81 114 157 190 231 286 353
#     4   9  19  39  55  83 116 145 197 235 277 356
#     4  10  22  38  55  88 118 151 190 242 297 351
#     4  10  19  41  58  80 117 150 193 245 296 330
#     4  10  18  37  61  79 113 157 185 230 288 345
#
# _framework density 20.427503000000002
#
# number of rings (size 3 to 8) (size 9 to 14) (size 15 to 20)
#    0.000    2.000    5.000    1.125    3.500    1.500 
#    2.250    2.500    0.000    4.500    0.000    0.000 
#    0.000    0.000    0.000    0.000    0.000    0.000 
#
# Total GULP energy -178394.491871 kJ/mol
# GULP energy per Si atom -5574.827871 kJ/mol
# Density = 2.038101 g / cm^3
# Si number density = 20.427503 Si / 1000 Ang^3
#
#
#
# Elastic Constant Matrix: (Units=GPa)
#
#
# Indices 1 2 3 4 5 6 
#
# 1 34.2634 8.8953 7.3673 0.0000 -8.3925 0.0000
# 2 8.8953 61.6036 20.4830 0.0000 15.1795 0.0000
# 3 7.3673 20.4830 92.9166 0.0000 -12.1619 0.0000
# 4 0.0000 0.0000 0.0000 23.2997 0.0000 5.8442
# 5 -8.3925 15.1795 -12.1619 0.0000 28.0468 0.0000
# 6 0.0000 0.0000 0.0000 5.8442 0.0000 24.0216
#
#
#
# Elastic Compliance Matrix: (Units=1/GPa)
#
#
# Indices 1 2 3 4 5 6 
#
# 1 0.035409 -0.009661 0.001477 0.000000 0.016465 0.000000
# 2 -0.009661 0.024843 -0.007261 0.000000 -0.019485 0.000000
# 3 0.001477 -0.007261 0.013589 0.000000 0.010265 0.000000
# 4 0.000000 0.000000 0.000000 0.045708 0.000000 -0.011120
# 5 0.016465 -0.019485 0.010265 0.000000 0.055578 0.000000
# 6 0.000000 0.000000 0.000000 -0.011120 0.000000 0.044335
#
#
# Mechanical properties :
#
#
# Convention : Reuss Voigt Hill
#
# Bulk Modulus (GPa) = 23.28171 29.14163 26.21167
# Shear Modulus (GPa) = 18.89142 25.20948 22.05045
#
# Velocity S-wave (km/s) = 3.04436 3.51678 3.28906
# Velocity P-wave (km/s) = 4.87642 5.54862 5.22334
#
# Compressibility (1/GPa) = 0.04295218
#
# Stress axis : x y z
#
# Youngs Moduli (GPa) = 28.24126 40.25222 73.58685
#
# Poissons Ratio (x) = 0.38888 -0.10871
# Poissons Ratio (y) = 0.27284 0.53431
# Poissons Ratio (z) = -0.04172 0.29227
#
# Static dielectric constant tensor:
#      x y z
#    x 1.777410 0.000000 -0.030640 
#    y 0.000000 1.761450 0.000000 
#    z -0.030640 0.000000 1.786330 
# 
# From -- ./inp_files/295097.got.cif
#   From: 2010.05.17/outbox.cif.g08.bks.cpg/sg15_148_cif.got.tgz:295097.got - 2010.06.03 18:47:42.
