data_PCOD9260303
_publ_section_title
;
Structure prediction by ZEFSAII (Michael W. Deem and Ramdas Pophale) SiO2 
 PCOD9260303
Probable space group: C 2/C
;
_chemical_formula_sum "Si O2"
_cell_formula_units_Z 44
_cell_length_a 26.494050
_cell_length_b 13.003509
_cell_length_c 15.863451
_cell_angle_alpha 90.000000
_cell_angle_beta 157.272180
_cell_angle_gamma 90.000000
_cell_volume 2111.504087
_symmetry_space_group_name_H-M "C 2/C"
_symmetry_group_IT_number 15
_symmetry_cell_setting 'monoclinic'
loop_
_space_group_symop_operation_xyz
x,y,z
-x,y,1/2-z
-x,-y,-z
x,-y,1/2+z
1/2+x,1/2+y,z
1/2-x,1/2+y,1/2-z
1/2-x,1/2-y,-z
1/2+x,1/2-y,1/2+z
loop_
_atom_site_type_symbol
_atom_site_label
_atom_site_fract_x
_atom_site_fract_y
_atom_site_fract_z
Si Si1 0.094618 0.584685 0.686419
Si Si2 0.862676 0.230337 0.371481
Si Si3 0.576588 0.779625 0.451290
Si Si4 0.745050 0.397658 0.530328
Si Si5 0.500000 0.312151 0.250000
Si Si6 0.121432 0.804471 0.189893
O O1 0.144335 0.666013 0.694163
O O2 0.212000 0.514164 0.898551
O O3 0.000000 0.500000 0.500000
O O4 0.018077 0.643725 0.642885
O O5 0.920260 0.247775 0.554303
O O6 0.977652 0.168172 0.502003
O O7 0.721245 0.177379 0.153861
O O8 0.500000 0.746667 0.250000
O O9 0.615042 0.693519 0.579921
O O10 0.610299 0.377275 0.371936
O O11 0.844092 0.313211 0.725107
O O12 0.726183 0.367796 0.403730
#
# Coordination Sequence:
#
# PCOD9260303 Si02
#       6
#     8   8   8   8   4   8
#     4  11  21  39  60  95 135 156 212 281 315 363
#     4  10  20  36  64  89 124 172 213 255 322 387
#     4  11  23  41  61  91 127 179 209 250 329 400
#     4  10  18  37  61  95 131 160 212 276 315 374
#     4  10  18  36  70  92 122 172 222 256 324 384
#     4   9  19  36  63  89 124 168 209 259 323 377
#
# _framework density 20.838225999999999
#
# number of rings (size 3 to 8) (size 9 to 14) (size 15 to 20)
#    0.000    1.818    5.455    0.000    0.000    2.909 
#    6.545    0.000    0.000    3.273    0.000    0.000 
#    0.000    0.000    0.000    0.000    0.000    0.000 
#
# Total GULP energy -122591.259559 kJ/mol
# GULP energy per Si atom -5572.329980 kJ/mol
# Density = 2.079080 g / cm^3
# Si number density = 20.838226 Si / 1000 Ang^3
#
#
#
# Elastic Constant Matrix: (Units=GPa)
#
#
# Indices 1 2 3 4 5 6 
#
# 1 114.2555 27.9693 68.0282 0.0000 -12.6363 0.0000
# 2 27.9693 66.0013 24.4590 0.0000 -7.7443 0.0000
# 3 68.0282 24.4590 126.6801 0.0000 -14.4529 0.0000
# 4 0.0000 0.0000 0.0000 28.1025 0.0000 -0.0852
# 5 -12.6363 -7.7443 -14.4529 0.0000 54.4028 0.0000
# 6 0.0000 0.0000 0.0000 -0.0852 0.0000 10.4746
#
#
#
# Elastic Compliance Matrix: (Units=1/GPa)
#
#
# Indices 1 2 3 4 5 6 
#
# 1 0.013536 -0.003200 -0.006543 0.000000 0.000950 0.000000
# 2 -0.003200 0.017200 -0.001452 0.000000 0.001319 0.000000
# 3 -0.006543 -0.001452 0.011850 0.000000 0.001422 0.000000
# 4 0.000000 0.000000 0.000000 0.035585 0.000000 0.000290
# 5 0.000950 0.001319 0.001422 0.000000 0.019168 0.000000
# 6 0.000000 0.000000 0.000000 0.000290 0.000000 0.095471
#
#
# Mechanical properties :
#
#
# Convention : Reuss Voigt Hill
#
# Bulk Modulus (GPa) = 49.51280 60.87222 55.19251
# Shear Modulus (GPa) = 22.52937 31.02801 26.77869
#
# Velocity S-wave (km/s) = 3.29166 3.86294 3.58868
# Velocity P-wave (km/s) = 6.18537 7.01225 6.61175
#
# Compressibility (1/GPa) = 0.02019680
#
# Stress axis : x y z
#
# Youngs Moduli (GPa) = 73.87444 58.13879 84.38806
#
# Poissons Ratio (x) = 0.18605 0.55214
# Poissons Ratio (y) = 0.23641 0.12252
# Poissons Ratio (z) = 0.48335 0.08441
#
# Static dielectric constant tensor:
#      x y z
#    x 1.802530 0.000000 0.004400 
#    y 0.000000 1.737410 0.000000 
#    z 0.004400 0.000000 1.819980 
# 
# From -- ./inp_files/225416.got.cif
#   From: 2010.05.17/outbox.cif.g08.bks.cpg/sg15_113_cif.got.tgz:225416.got - 2010.06.03 18:47:42.
