data_PCOD9260473
_publ_section_title
;
Structure prediction by ZEFSAII (Michael W. Deem and Ramdas Pophale) SiO2 
 PCOD9260473
Probable space group: C 2/C
;
_chemical_formula_sum "Si O2"
_cell_formula_units_Z 56
_cell_length_a 18.038614
_cell_length_b 20.931617
_cell_length_c 8.204814
_cell_angle_alpha 90.000000
_cell_angle_beta 55.279501
_cell_angle_gamma 90.000000
_cell_volume 2546.331645
_symmetry_space_group_name_H-M "C 2/C"
_symmetry_group_IT_number 15
_symmetry_cell_setting 'monoclinic'
loop_
_space_group_symop_operation_xyz
x,y,z
-x,y,1/2-z
-x,-y,-z
x,-y,1/2+z
1/2+x,1/2+y,z
1/2-x,1/2+y,1/2-z
1/2-x,1/2-y,-z
1/2+x,1/2-y,1/2+z
loop_
_atom_site_type_symbol
_atom_site_label
_atom_site_fract_x
_atom_site_fract_y
_atom_site_fract_z
Si Si1 0.120190 0.982140 0.524708
Si Si2 0.154906 0.193091 0.276455
Si Si3 0.755994 0.325460 0.978102
Si Si4 0.216052 0.663235 0.690510
Si Si5 0.328966 0.971577 0.193996
Si Si6 0.904754 0.578448 0.282148
Si Si7 0.535627 0.414864 0.942715
O O1 0.225709 0.987725 0.363197
O O2 0.095139 0.950675 0.727977
O O3 0.065862 0.935584 0.468421
O O4 0.074763 0.050863 0.552856
O O5 0.198166 0.163334 0.387363
O O6 0.160379 0.270232 0.272490
O O7 0.057480 0.159491 0.395740
O O8 0.213784 0.171931 0.045146
O O9 0.854291 0.355013 0.815950
O O10 0.750000 0.250000 0.000000
O O11 0.736891 0.346074 0.190131
O O12 0.157167 0.598774 0.742054
O O13 0.398181 0.028664 0.144231
O O14 0.340502 0.958653 0.989501
O O15 0.000000 0.586757 0.250000
#
# Coordination Sequence:
#
# PCOD9260473 Si02
#       7
#     8   8   8   8   8   8   8
#     4  10  20  34  56  87 123 162 195 259 305 383
#     4  10  18  37  63  87 122 170 210 259 321 372
#     4   9  20  39  66  88 122 168 210 251 324 380
#     4   9  20  35  61  89 119 164 219 257 302 391
#     4  11  21  38  61  89 126 162 211 250 333 373
#     4  11  24  39  64  93 127 160 208 274 316 373
#     4  10  20  34  55  89 127 155 210 251 316 371
#
# _framework density 21.992422999999999
#
# number of rings (size 3 to 8) (size 9 to 14) (size 15 to 20)
#    0.000    2.000    1.429    2.143    2.000    1.143 
#    0.000    0.000   31.429    0.000    3.714    0.000 
#    0.000    0.000    0.000    0.000    0.000    0.000 
#
# Total GULP energy -155971.561351 kJ/mol
# GULP energy per Si atom -5570.412905 kJ/mol
# Density = 2.194237 g / cm^3
# Si number density = 21.992423 Si / 1000 Ang^3
#
#
#
# Elastic Constant Matrix: (Units=GPa)
#
#
# Indices 1 2 3 4 5 6 
#
# 1 87.5406 47.5301 19.0527 0.0000 -13.6126 0.0000
# 2 47.5301 134.2791 7.1941 0.0000 -11.3036 0.0000
# 3 19.0527 7.1941 45.0531 0.0000 15.1633 0.0000
# 4 0.0000 0.0000 0.0000 15.0888 0.0000 -6.5300
# 5 -13.6126 -11.3036 15.1633 0.0000 34.0379 0.0000
# 6 0.0000 0.0000 0.0000 -6.5300 0.0000 19.2667
#
#
#
# Elastic Compliance Matrix: (Units=1/GPa)
#
#
# Indices 1 2 3 4 5 6 
#
# 1 0.017871 -0.004938 -0.010143 0.000000 0.010026 0.000000
# 2 -0.004938 0.009262 0.000281 0.000000 0.000976 0.000000
# 3 -0.010143 0.000281 0.032674 0.000000 -0.018519 0.000000
# 4 0.000000 0.000000 0.000000 0.077666 0.000000 0.026323
# 5 0.010026 0.000976 -0.018519 0.000000 0.041963 0.000000
# 6 0.000000 0.000000 0.000000 0.026323 0.000000 0.060825
#
#
# Mechanical properties :
#
#
# Convention : Reuss Voigt Hill
#
# Bulk Modulus (GPa) = 33.10662 46.04740 39.57701
# Shear Modulus (GPa) = 17.86159 26.55174 22.20666
#
# Velocity S-wave (km/s) = 2.85295 3.47841 3.18109
# Velocity P-wave (km/s) = 5.09301 6.09227 5.61491
#
# Compressibility (1/GPa) = 0.03020544
#
# Stress axis : x y z
#
# Youngs Moduli (GPa) = 55.95582 107.96489 30.60582
#
# Poissons Ratio (x) = 0.53317 0.31045
# Poissons Ratio (y) = 0.27633 -0.00860
# Poissons Ratio (z) = 0.56758 -0.03034
#
# Static dielectric constant tensor:
#      x y z
#    x 1.827430 0.000000 0.057350 
#    y 0.000000 1.904960 0.000000 
#    z 0.057350 0.000000 1.855800 
# 
# From -- ./inp_files/50119.got.cif
#   From: 2010.05.17/outbox.cif.g08.bks.cpg/sg15_26_cif.got.tgz:50119.got - 2010.06.03 18:47:42.
