data_PCOD9260764
_publ_section_title
;
Structure prediction by ZEFSAII (Michael W. Deem and Ramdas Pophale) SiO2 
 PCOD9260764
Probable space group: C 2/C
;
_chemical_formula_sum "Si O2"
_cell_formula_units_Z 56
_cell_length_a 17.256725
_cell_length_b 15.940231
_cell_length_c 22.007980
_cell_angle_alpha 90.000000
_cell_angle_beta 154.150941
_cell_angle_gamma 90.000000
_cell_volume 2639.498889
_symmetry_space_group_name_H-M "C 2/C"
_symmetry_group_IT_number 15
_symmetry_cell_setting 'monoclinic'
loop_
_space_group_symop_operation_xyz
x,y,z
-x,y,1/2-z
-x,-y,-z
x,-y,1/2+z
1/2+x,1/2+y,z
1/2-x,1/2+y,1/2-z
1/2-x,1/2-y,-z
1/2+x,1/2-y,1/2+z
loop_
_atom_site_type_symbol
_atom_site_label
_atom_site_fract_x
_atom_site_fract_y
_atom_site_fract_z
Si Si1 0.000000 0.565179 0.250000
Si Si2 0.305635 0.830051 0.711771
Si Si3 0.705079 0.397354 0.164311
Si Si4 0.106117 0.421652 0.414190
Si Si5 0.711526 0.367639 0.841419
Si Si6 0.000000 0.281509 0.250000
Si Si7 0.050409 0.946969 0.613992
Si Si8 0.984839 0.279077 0.952664
O O1 0.131081 0.623336 0.303658
O O2 0.099087 0.504361 0.368032
O O3 0.183502 0.892756 0.665276
O O4 0.466871 0.808115 0.870553
O O5 0.180262 0.750532 0.609244
O O6 0.606589 0.457683 0.142599
O O7 0.640127 0.303497 0.129546
O O8 0.913746 0.411703 0.310754
O O9 0.637003 0.427457 0.049613
O O10 0.246895 0.416689 0.567459
O O11 0.112113 0.341276 0.373772
O O12 0.625041 0.279479 0.799659
O O13 0.581361 0.415318 0.703420
O O14 0.892607 0.346547 0.932091
#
# Coordination Sequence:
#
# PCOD9260764 Si02
#       8
#     4   8   8   8   8   4   8   8
#     4  11  24  42  60  83 128 160 198 241 310 364
#     4  10  21  41  62  89 118 158 200 252 298 353
#     4  10  18  38  63  90 119 159 200 241 299 356
#     4  11  23  39  62  91 118 166 197 238 303 368
#     4  11  23  39  61  94 124 153 202 252 293 353
#     4  11  24  38  58  91 132 156 188 243 310 368
#     4   9  21  37  63  90 121 158 198 249 299 348
#     4  10  21  38  66  91 116 154 207 249 294 347
#
# _framework density 21.216148
#
# number of rings (size 3 to 8) (size 9 to 14) (size 15 to 20)
#    0.000    1.714    2.857    1.286    4.000    3.429 
#    2.571    0.000    0.000    0.000    0.000    0.000 
#    0.000    0.000    0.000    0.000    0.000    0.000 
#
# Total GULP energy -156550.900583 kJ/mol
# GULP energy per Si atom -5591.103592 kJ/mol
# Density = 2.116786 g / cm^3
# Si number density = 21.216148 Si / 1000 Ang^3
#
#
#
# Elastic Constant Matrix: (Units=GPa)
#
#
# Indices 1 2 3 4 5 6 
#
# 1 66.3962 13.3820 39.1354 -0.0110 -12.8245 0.0040
# 2 13.3820 40.3946 17.9774 0.0110 -16.0877 -0.0003
# 3 39.1354 17.9774 89.5997 0.0021 -33.0898 0.0021
# 4 -0.0110 0.0110 0.0021 8.4334 0.0105 1.5171
# 5 -12.8245 -16.0877 -33.0898 0.0105 26.5241 0.0004
# 6 0.0040 -0.0003 0.0021 1.5171 0.0004 21.9225
#
#
#
# Elastic Compliance Matrix: (Units=1/GPa)
#
#
# Indices 1 2 3 4 5 6 
#
# 1 0.020969 -0.004535 -0.010237 0.000044 -0.005383 -0.000006
# 2 -0.004535 0.033718 0.003632 -0.000080 0.022789 0.000006
# 3 -0.010237 0.003632 0.025755 -0.000062 0.029383 0.000003
# 4 0.000044 -0.000080 -0.000062 0.120071 -0.000152 -0.008310
# 5 -0.005383 0.022789 0.029383 -0.000152 0.085578 0.000007
# 6 -0.000006 0.000006 0.000003 -0.008310 0.000007 0.046190
#
#
# Mechanical properties :
#
#
# Convention : Reuss Voigt Hill
#
# Bulk Modulus (GPa) = 17.19332 37.48666 27.33999
# Shear Modulus (GPa) = 13.37078 19.76903 16.56991
#
# Velocity S-wave (km/s) = 2.51314 3.05584 2.79768
# Velocity P-wave (km/s) = 4.06726 5.49164 4.83222
#
# Compressibility (1/GPa) = 0.05816213
#
# Stress axis : x y z
#
# Youngs Moduli (GPa) = 47.68876 29.65784 38.82747
#
# Poissons Ratio (x) = 0.13449 0.39748
# Poissons Ratio (y) = 0.21625 -0.14101
# Poissons Ratio (z) = 0.48819 -0.10771
#
# Static dielectric constant tensor:
#      x y z
#    x 1.780520 0.000000 0.006410 
#    y 0.000000 1.755930 -0.000020 
#    z 0.006410 -0.000020 1.784080 
# 
# From -- ./inp_files/67158.got.cif
#   From: 2010.05.17/outbox.cif.g08.bks.cpg/sg15_34_cif.got.tgz:67158.got - 2010.06.03 18:47:42.
