data_PCOD9260602
_publ_section_title
;
Structure prediction by ZEFSAII (Michael W. Deem and Ramdas Pophale) SiO2 
 PCOD9260602
Probable space group: C 2/C
;
_chemical_formula_sum "Si O2"
_cell_formula_units_Z 60
_cell_length_a 31.964247
_cell_length_b 13.207884
_cell_length_c 21.063749
_cell_angle_alpha 90.000000
_cell_angle_beta 17.908467
_cell_angle_gamma 90.000000
_cell_volume 2734.479139
_symmetry_space_group_name_H-M "C 2/C"
_symmetry_group_IT_number 15
_symmetry_cell_setting 'monoclinic'
loop_
_space_group_symop_operation_xyz
x,y,z
-x,y,1/2-z
-x,-y,-z
x,-y,1/2+z
1/2+x,1/2+y,z
1/2-x,1/2+y,1/2-z
1/2-x,1/2-y,-z
1/2+x,1/2-y,1/2+z
loop_
_atom_site_type_symbol
_atom_site_label
_atom_site_fract_x
_atom_site_fract_y
_atom_site_fract_z
Si Si1 0.247476 0.144391 0.467004
Si Si2 0.867429 0.586026 0.079200
Si Si3 0.522548 0.190351 0.453816
Si Si4 0.105269 0.408797 0.542729
Si Si5 0.000000 0.918072 0.250000
Si Si6 0.906452 0.030075 0.508283
Si Si7 0.736752 0.210683 0.743001
Si Si8 0.876503 0.920561 0.227118
O O1 0.250000 0.250000 0.500000
O O2 0.387931 0.129074 0.227510
O O3 0.131478 0.145693 0.580479
O O4 0.202708 0.075652 0.590259
O O5 0.941573 0.641710 0.030330
O O6 0.745952 0.513734 0.277598
O O7 0.782752 0.675024 0.168019
O O8 0.947979 0.509089 0.917320
O O9 0.363517 0.181465 0.669028
O O10 0.567616 0.307997 0.374284
O O11 0.143659 0.315781 0.439796
O O12 0.252341 0.441130 0.358764
O O13 0.000000 0.380709 0.750000
O O14 0.973553 0.988271 0.348163
O O15 0.875556 0.148226 0.551132
O O16 0.994059 0.990952 0.441673
#
# Coordination Sequence:
#
# PCOD9260602 Si02
#       8
#     8   8   8   8   4   8   8   8
#     4   9  19  31  57  91 123 158 195 259 325 377
#     4  11  23  42  64  94 131 170 211 272 327 383
#     4  11  20  38  63  96 127 167 213 271 334 385
#     4  11  25  44  66  95 134 175 220 269 325 392
#     4  10  18  38  56  84 132 154 206 254 320 388
#     4  10  22  39  63  92 124 171 208 268 321 387
#     4  11  24  41  66  93 128 168 221 268 325 385
#     4  10  20  39  65  93 128 170 219 262 321 396
#
# _framework density 21.942022999999999
#
# number of rings (size 3 to 8) (size 9 to 14) (size 15 to 20)
#    0.000    1.600    4.000    0.800    0.000    5.333 
#   12.000    0.000    0.000    1.600    0.000    0.000 
#    0.000    0.000    0.000    0.000    0.000    0.000 
#
# Total GULP energy -167298.221796 kJ/mol
# GULP energy per Si atom -5576.607393 kJ/mol
# Density = 2.189208 g / cm^3
# Si number density = 21.942023 Si / 1000 Ang^3
#
#
#
# Elastic Constant Matrix: (Units=GPa)
#
#
# Indices 1 2 3 4 5 6 
#
# 1 107.5613 8.7174 15.9151 0.0000 -25.2607 0.0000
# 2 8.7174 72.5532 5.7855 0.0000 -8.4841 0.0000
# 3 15.9151 5.7855 49.3618 -0.0001 -15.2346 0.0000
# 4 0.0000 0.0000 -0.0001 18.6960 0.0000 -10.7774
# 5 -25.2607 -8.4841 -15.2346 0.0000 33.3909 0.0000
# 6 0.0000 0.0000 0.0000 -10.7774 0.0000 25.6930
#
#
#
# Elastic Compliance Matrix: (Units=1/GPa)
#
#
# Indices 1 2 3 4 5 6 
#
# 1 0.011372 -0.000340 -0.001162 0.000000 0.007987 0.000000
# 2 -0.000340 0.014233 -0.000607 0.000000 0.003082 0.000000
# 3 -0.001162 -0.000607 0.023726 0.000000 0.009792 0.000000
# 4 0.000000 0.000000 0.000000 0.070546 0.000000 0.029592
# 5 0.007987 0.003082 0.009792 0.000000 0.041241 0.000000
# 6 0.000000 0.000000 0.000000 0.029592 0.000000 0.051334
#
#
# Mechanical properties :
#
#
# Convention : Reuss Voigt Hill
#
# Bulk Modulus (GPa) = 22.16631 32.25692 27.21161
# Shear Modulus (GPa) = 21.57887 28.82651 25.20269
#
# Velocity S-wave (km/s) = 3.13940 3.62851 3.39278
# Velocity P-wave (km/s) = 4.82341 5.68223 5.27034
#
# Compressibility (1/GPa) = 0.04511351
#
# Stress axis : x y z
#
# Youngs Moduli (GPa) = 87.93397 70.26090 42.14698
#
# Poissons Ratio (x) = 0.02387 0.04897
# Poissons Ratio (y) = 0.02988 0.02560
# Poissons Ratio (z) = 0.10216 0.04267
#
# Static dielectric constant tensor:
#      x y z
#    x 1.953220 0.000000 -0.004290 
#    y 0.000000 1.930200 0.000000 
#    z -0.004290 0.000000 1.872280 
# 
# From -- ./inp_files/259377.got.cif
#   From: 2010.05.17/outbox.cif.g08.bks.cpg/sg15_130_cif.got.tgz:259377.got - 2010.06.03 18:47:42.
