data_PCOD9260207
_publ_section_title
;
Structure prediction by ZEFSAII (Michael W. Deem and Ramdas Pophale) SiO2 
 PCOD9260207
Probable space group: C 2/C
;
_chemical_formula_sum "Si O2"
_cell_formula_units_Z 36
_cell_length_a 18.602404
_cell_length_b 7.607394
_cell_length_c 26.600497
_cell_angle_alpha 90.000000
_cell_angle_beta 158.496452
_cell_angle_gamma 90.000000
_cell_volume 1379.870824
_symmetry_space_group_name_H-M "C 2/C"
_symmetry_group_IT_number 15
_symmetry_cell_setting 'monoclinic'
loop_
_space_group_symop_operation_xyz
x,y,z
-x,y,1/2-z
-x,-y,-z
x,-y,1/2+z
1/2+x,1/2+y,z
1/2-x,1/2+y,1/2-z
1/2-x,1/2-y,-z
1/2+x,1/2-y,1/2+z
loop_
_atom_site_type_symbol
_atom_site_label
_atom_site_fract_x
_atom_site_fract_y
_atom_site_fract_z
Si Si1 0.093494 0.497451 0.615349
Si Si2 0.535594 0.606466 0.598397
Si Si3 0.805505 0.425225 0.174635
Si Si4 0.000000 0.094336 0.250000
Si Si5 0.842807 0.577813 0.535214
O O1 0.325520 0.526913 0.768201
O O2 0.033401 0.315021 0.602127
O O3 0.000000 0.500000 0.500000
O O4 0.989714 0.635140 0.585174
O O5 0.323176 0.525846 0.450439
O O6 0.663095 0.579992 0.630250
O O7 0.869170 0.231692 0.197644
O O8 0.010272 0.505947 0.328180
O O9 0.154365 0.991209 0.385274
O O10 0.750000 0.750000 0.500000
#
# Coordination Sequence:
#
# PCOD9260207 Si02
#       5
#     8   8   8   4   8
#     4  11  24  39  67 103 137 177 236 292 356 416
#     4  10  23  39  64  96 140 177 226 298 353 409
#     4   9  20  37  63  89 133 178 228 278 351 414
#     4  10  18  36  64  94 116 176 234 274 334 426
#     4   9  20  38  63  91 128 176 230 274 341 422
#
# _framework density 26.089400000000001
#
# number of rings (size 3 to 8) (size 9 to 14) (size 15 to 20)
#    0.000    2.222    0.000    1.333   15.556    0.000 
#    4.000    1.111    0.000   13.333    0.000    0.000 
#    0.000    0.000    0.000    0.000    0.000    0.000 
#
# Total GULP energy -100563.552373 kJ/mol
# GULP energy per Si atom -5586.864021 kJ/mol
# Density = 2.603002 g / cm^3
# Si number density = 26.089400 Si / 1000 Ang^3
#
#
#
# Elastic Constant Matrix: (Units=GPa)
#
#
# Indices 1 2 3 4 5 6 
#
# 1 108.4317 8.6700 47.9569 0.0029 3.4629 0.0008
# 2 8.6700 68.6077 68.4532 0.0019 -15.4360 0.0005
# 3 47.9569 68.4532 325.9964 0.1030 -38.2449 -0.0376
# 4 0.0029 0.0019 0.1030 41.8577 -0.0298 6.5347
# 5 3.4629 -15.4360 -38.2449 -0.0298 39.4458 0.0079
# 6 0.0008 0.0005 -0.0376 6.5347 0.0079 21.1117
#
#
#
# Elastic Compliance Matrix: (Units=1/GPa)
#
#
# Indices 1 2 3 4 5 6 
#
# 1 0.010100 -0.000101 -0.001775 0.000002 -0.002647 -0.000003
# 2 -0.000101 0.018989 -0.003498 0.000013 0.004049 -0.000012
# 3 -0.001775 -0.003498 0.004424 -0.000010 0.003077 0.000010
# 4 0.000002 0.000013 -0.000010 0.025104 0.000016 -0.007770
# 5 -0.002647 0.004049 0.003077 0.000016 0.030151 -0.000011
# 6 -0.000003 -0.000012 0.000010 -0.007770 -0.000011 0.049772
#
#
# Mechanical properties :
#
#
# Convention : Reuss Voigt Hill
#
# Bulk Modulus (GPa) = 43.92506 83.68844 63.80675
# Shear Modulus (GPa) = 31.87240 45.68006 38.77623
#
# Velocity S-wave (km/s) = 3.49902 4.18892 3.85942
# Velocity P-wave (km/s) = 5.76169 7.45274 6.66110
#
# Compressibility (1/GPa) = 0.02276605
#
# Stress axis : x y z
#
# Youngs Moduli (GPa) = 99.00842 52.66232 226.03861
#
# Poissons Ratio (x) = 0.00530 0.40127
# Poissons Ratio (y) = 0.00997 0.79058
# Poissons Ratio (z) = 0.17576 0.18419
#
# Static dielectric constant tensor:
#      x y z
#    x 2.140770 -0.000010 -0.036690 
#    y -0.000010 2.138280 -0.000040 
#    z -0.036690 -0.000040 2.122860 
# 
# From -- ./inp_files/317427.got.cif
#   From: 2010.05.17/outbox.cif.g08.bks.cpg/sg15_159_cif.got.tgz:317427.got - 2010.06.03 18:47:42.
