data_PCOD9260770
_publ_section_title
;
Structure prediction by ZEFSAII (Michael W. Deem and Ramdas Pophale) SiO2 
 PCOD9260770
Probable space group: C 2/C
;
_chemical_formula_sum "Si O2"
_cell_formula_units_Z 40
_cell_length_a 9.392330
_cell_length_b 16.384588
_cell_length_c 13.939219
_cell_angle_alpha 90.000000
_cell_angle_beta 126.253334
_cell_angle_gamma 90.000000
_cell_volume 1729.829581
_symmetry_space_group_name_H-M "C 2/C"
_symmetry_group_IT_number 15
_symmetry_cell_setting 'monoclinic'
loop_
_space_group_symop_operation_xyz
x,y,z
-x,y,1/2-z
-x,-y,-z
x,-y,1/2+z
1/2+x,1/2+y,z
1/2-x,1/2+y,1/2-z
1/2-x,1/2-y,-z
1/2+x,1/2-y,1/2+z
loop_
_atom_site_type_symbol
_atom_site_label
_atom_site_fract_x
_atom_site_fract_y
_atom_site_fract_z
Si Si1 0.176546 0.661921 0.567594
Si Si2 0.189453 0.657478 0.785319
Si Si3 0.741544 0.812855 0.587055
Si Si4 0.193571 0.653605 0.366622
Si Si5 0.958427 0.917244 0.540364
O O1 0.214096 0.626607 0.687249
O O2 0.223383 0.619200 0.486594
O O3 0.275535 0.749321 0.610623
O O4 0.964886 0.671971 0.478147
O O5 0.188320 0.756290 0.797796
O O6 0.350117 0.629640 0.914245
O O7 0.000000 0.628509 0.750000
O O8 0.750000 0.750000 0.500000
O O9 0.843258 0.893765 0.589684
O O10 0.347852 0.618127 0.363800
O O11 0.000000 0.636576 0.250000
O O12 0.000000 0.000000 0.500000
#
# Coordination Sequence:
#
# PCOD9260770 Si02
#       5
#     8   8   8   8   8
#     4  11  21  38  69 101 124 161 222 280 340 376
#     4  11  19  37  71  96 127 166 229 279 318 391
#     4  10  18  38  63  97 120 166 220 272 317 384
#     4  11  24  40  63  98 136 166 209 286 342 386
#     4  11  24  43  64  93 138 181 220 267 337 407
#
# _framework density 23.123664000000002
#
# number of rings (size 3 to 8) (size 9 to 14) (size 15 to 20)
#    0.000    1.200    8.000    1.200    2.800    0.800 
#    0.000    1.000   17.600    0.000    0.000    0.000 
#    0.000    0.000    0.000    0.000    0.000    0.000 
#
# Total GULP energy -111505.071947 kJ/mol
# GULP energy per Si atom -5575.253597 kJ/mol
# Density = 2.307103 g / cm^3
# Si number density = 23.123664 Si / 1000 Ang^3
#
#
#
# Elastic Constant Matrix: (Units=GPa)
#
#
# Indices 1 2 3 4 5 6 
#
# 1 87.8906 13.6175 47.1404 0.0000 10.2784 0.0000
# 2 13.6175 64.4411 12.6574 0.0000 1.2649 0.0000
# 3 47.1404 12.6574 81.8642 0.0000 5.5428 0.0000
# 4 0.0000 0.0000 0.0000 3.5458 0.0000 -5.3757
# 5 10.2784 1.2649 5.5428 0.0000 55.6155 0.0000
# 6 0.0000 0.0000 0.0000 -5.3757 0.0000 23.3667
#
#
#
# Elastic Compliance Matrix: (Units=1/GPa)
#
#
# Indices 1 2 3 4 5 6 
#
# 1 0.016890 -0.001697 -0.009318 0.000000 -0.002154 0.000000
# 2 -0.001697 0.016175 -0.001531 0.000000 0.000098 0.000000
# 3 -0.009318 -0.001531 0.017819 0.000000 -0.000019 0.000000
# 4 0.000000 0.000000 0.000000 0.433071 0.000000 0.099631
# 5 -0.002154 0.000098 -0.000019 0.000000 0.018378 0.000000
# 6 0.000000 0.000000 0.000000 0.099631 0.000000 0.065717
#
#
# Mechanical properties :
#
#
# Convention : Reuss Voigt Hill
#
# Bulk Modulus (GPa) = 38.76843 42.33627 40.55235
# Shear Modulus (GPa) = 8.30925 27.22432 17.76678
#
# Velocity S-wave (km/s) = 1.89768 3.43496 2.77490
# Velocity P-wave (km/s) = 4.64798 5.83783 5.27655
#
# Compressibility (1/GPa) = 0.02579418
#
# Stress axis : x y z
#
# Youngs Moduli (GPa) = 59.20578 61.82265 56.12038
#
# Poissons Ratio (x) = 0.10490 0.52292
# Poissons Ratio (y) = 0.10045 0.08590
# Poissons Ratio (z) = 0.55167 0.09462
#
# Static dielectric constant tensor:
#      x y z
#    x 1.951000 0.000000 -0.042710 
#    y 0.000000 1.998090 0.000000 
#    z -0.042710 0.000000 1.910400 
# 
# From -- ./inp_files/134613.got.cif
#   From: 2010.05.17/outbox.cif.g08.bks.cpg/sg15_68_cif.got.tgz:134613.got - 2010.06.03 18:47:42.
