data_PCOD9260896
_publ_section_title
;
Structure prediction by ZEFSAII (Michael W. Deem and Ramdas Pophale) SiO2 
 PCOD9260896
Probable space group: C 2/C
;
_chemical_formula_sum "Si O2"
_cell_formula_units_Z 48
_cell_length_a 15.122752
_cell_length_b 11.410771
_cell_length_c 27.748392
_cell_angle_alpha 90.000000
_cell_angle_beta 25.768931
_cell_angle_gamma 90.000000
_cell_volume 2081.690072
_symmetry_space_group_name_H-M "C 2/C"
_symmetry_group_IT_number 15
_symmetry_cell_setting 'monoclinic'
loop_
_space_group_symop_operation_xyz
x,y,z
-x,y,1/2-z
-x,-y,-z
x,-y,1/2+z
1/2+x,1/2+y,z
1/2-x,1/2+y,1/2-z
1/2-x,1/2-y,-z
1/2+x,1/2-y,1/2+z
loop_
_atom_site_type_symbol
_atom_site_label
_atom_site_fract_x
_atom_site_fract_y
_atom_site_fract_z
Si Si1 0.723749 0.050441 0.880533
Si Si2 0.840371 0.109887 0.409148
Si Si3 0.281230 0.827494 0.379410
Si Si4 0.639613 0.963395 0.593181
Si Si5 0.788552 0.418216 0.707742
Si Si6 0.585591 0.259272 0.005546
O O1 0.849079 0.971305 0.856905
O O2 0.745390 0.026176 0.813077
O O3 0.719111 0.182159 0.902485
O O4 0.500000 0.000000 0.000000
O O5 0.740091 0.230753 0.441127
O O6 0.064772 0.135381 0.319654
O O7 0.717774 0.034930 0.508148
O O8 0.500000 0.789486 0.250000
O O9 0.093666 0.824364 0.435242
O O10 0.312954 0.954561 0.385309
O O11 0.397818 0.950646 0.703672
O O12 0.767955 0.845317 0.537224
O O13 0.954087 0.329973 0.603100
#
# Coordination Sequence:
#
# PCOD9260896 Si02
#       6
#     8   8   8   8   8   8
#     4  10  18  38  68  94 126 172 215 260 318 385
#     4  12  22  41  71  98 126 173 228 268 319 385
#     4  12  24  45  67  90 134 181 218 258 333 406
#     4  12  27  41  66 104 133 167 214 285 329 377
#     4  11  22  41  70  98 129 172 225 267 320 386
#     4  11  22  44  67  91 137 175 208 269 335 386
#
# _framework density 23.058185999999999
#
# number of rings (size 3 to 8) (size 9 to 14) (size 15 to 20)
#    0.000    0.667    8.333    2.000    2.333    0.000 
#    0.000    1.667    0.000    0.000    0.000    0.000 
#    0.000    0.000    0.000    0.000    0.000    0.000 
#
# Total GULP energy -134106.390432 kJ/mol
# GULP energy per Si atom -5587.766268 kJ/mol
# Density = 2.300570 g / cm^3
# Si number density = 23.058186 Si / 1000 Ang^3
#
#
#
# Elastic Constant Matrix: (Units=GPa)
#
#
# Indices 1 2 3 4 5 6 
#
# 1 86.7667 35.0843 22.9663 0.0000 -40.4381 0.0004
# 2 35.0843 73.3692 5.7907 0.0015 -9.8209 0.0001
# 3 22.9663 5.7907 43.9357 0.0022 -26.1479 0.0093
# 4 0.0000 0.0015 0.0022 -6.1422 0.0002 7.1080
# 5 -40.4381 -9.8209 -26.1479 0.0002 45.8015 -0.0012
# 6 0.0004 0.0001 0.0093 7.1080 -0.0012 29.0734
#
#
#
# Elastic Compliance Matrix: (Units=1/GPa)
#
#
# Indices 1 2 3 4 5 6 
#
# 1 0.024229 -0.008981 0.000157 -0.000001 0.019556 0.000001
# 2 -0.008981 0.017362 -0.000147 0.000003 -0.004290 -0.000001
# 3 0.000157 -0.000147 0.034475 0.000001 0.019789 -0.000010
# 4 -0.000001 0.000003 0.000001 -0.126903 0.000002 0.031026
# 5 0.019556 -0.004290 0.019789 0.000002 0.049476 -0.000005
# 6 0.000001 -0.000001 -0.000010 0.031026 -0.000005 0.026810
#
#
# Mechanical properties :
#
#
# Convention : Reuss Voigt Hill
#
# Bulk Modulus (GPa) = 17.20476 36.86156 27.03316
# Shear Modulus (GPa) = 79.66156 23.09522 51.37839
#
# Velocity S-wave (km/s) = 5.88414 3.16825 4.72551
# Velocity P-wave (km/s) = 7.32405 5.42262 6.44385
#
# Compressibility (1/GPa) = 0.05812345
#
# Stress axis : x y z
#
# Youngs Moduli (GPa) = 41.27272 57.59861 29.00660
#
# Poissons Ratio (x) = 0.51728 -0.00455
# Poissons Ratio (y) = 0.37066 0.00427
# Poissons Ratio (z) = -0.00648 0.00848
#
# Static dielectric constant tensor:
#      x y z
#    x 1.901370 0.000000 0.019070 
#    y 0.000000 1.892030 0.000000 
#    z 0.019070 0.000000 1.969180 
# 
# From -- ./inp_files/313523.got.cif
#   From: 2010.05.17/outbox.cif.g08.bks.cpg/sg15_157_cif.got.tgz:313523.got - 2010.06.03 18:47:42.
