data_PCOD9260205
_publ_section_title
;
Structure prediction by ZEFSAII (Michael W. Deem and Ramdas Pophale) SiO2 
 PCOD9260205
Probable space group: C 2/C
;
_chemical_formula_sum "Si O2"
_cell_formula_units_Z 56
_cell_length_a 16.452120
_cell_length_b 9.686198
_cell_length_c 18.805883
_cell_angle_alpha 90.000000
_cell_angle_beta 53.295732
_cell_angle_gamma 90.000000
_cell_volume 2402.689690
_symmetry_space_group_name_H-M "C 2/C"
_symmetry_group_IT_number 15
_symmetry_cell_setting 'monoclinic'
loop_
_space_group_symop_operation_xyz
x,y,z
-x,y,1/2-z
-x,-y,-z
x,-y,1/2+z
1/2+x,1/2+y,z
1/2-x,1/2+y,1/2-z
1/2-x,1/2-y,-z
1/2+x,1/2-y,1/2+z
loop_
_atom_site_type_symbol
_atom_site_label
_atom_site_fract_x
_atom_site_fract_y
_atom_site_fract_z
Si Si1 0.337182 0.181844 0.003492
Si Si2 0.582488 0.475339 0.542782
Si Si3 0.532445 0.929534 0.556203
Si Si4 0.186358 0.677367 0.318470
Si Si5 0.143465 0.987964 0.316014
Si Si6 0.391667 0.388672 0.315407
Si Si7 0.292982 0.284286 0.555676
O O1 0.302195 0.145769 0.102329
O O2 0.250000 0.250000 0.000000
O O3 0.411870 0.312065 0.969836
O O4 0.395830 0.045544 0.943981
O O5 0.465837 0.511607 0.589729
O O6 0.608327 0.529210 0.609987
O O7 0.670354 0.558568 0.454459
O O8 0.426517 0.876741 0.644295
O O9 0.603125 0.801837 0.497915
O O10 0.500000 0.000000 0.500000
O O11 0.191530 0.841183 0.308937
O O12 0.272992 0.606349 0.226392
O O13 0.112782 0.990455 0.248469
O O14 0.500000 0.313729 0.250000
O O15 0.298222 0.284888 0.353955
O O16 0.250000 0.250000 0.500000
#
# Coordination Sequence:
#
# PCOD9260205 Si02
#       7
#     8   8   8   8   8   8   8
#     4  11  23  42  67  98 129 168 220 275 332 390
#     4  10  21  38  67  95 122 166 223 268 317 390
#     4  10  21  40  62  93 127 165 215 264 325 386
#     4  11  25  42  64  95 131 176 218 272 335 396
#     4  11  23  42  62  91 133 168 218 261 341 395
#     4   9  19  36  62  94 124 171 208 263 331 386
#     4  10  18  36  64  93 124 165 218 270 311 392
#
# _framework density 23.307210999999999
#
# number of rings (size 3 to 8) (size 9 to 14) (size 15 to 20)
#    0.000    1.714    1.429    4.286    2.000    1.714 
#    0.000    0.000    0.000    0.000    0.000    0.000 
#    0.000    0.000    0.000    0.000    0.000    0.000 
#
# Total GULP energy -156304.854251 kJ/mol
# GULP energy per Si atom -5582.316223 kJ/mol
# Density = 2.325416 g / cm^3
# Si number density = 23.307211 Si / 1000 Ang^3
#
#
#
# Elastic Constant Matrix: (Units=GPa)
#
#
# Indices 1 2 3 4 5 6 
#
# 1 93.3454 9.8849 24.4904 0.0000 -14.9648 0.0000
# 2 9.8849 116.0345 24.6694 0.0000 -28.1086 0.0000
# 3 24.4904 24.6694 111.1962 0.0000 -20.5157 0.0000
# 4 0.0000 0.0000 0.0000 -93.2299 0.0000 81.2592
# 5 -14.9648 -28.1086 -20.5157 0.0000 45.9921 0.0000
# 6 0.0000 0.0000 0.0000 81.2592 0.0000 -13.3581
#
#
#
# Elastic Compliance Matrix: (Units=1/GPa)
#
#
# Indices 1 2 3 4 5 6 
#
# 1 0.011717 0.000166 -0.002065 0.000000 0.002993 0.000000
# 2 0.000166 0.010268 -0.001250 0.000000 0.005772 0.000000
# 3 -0.002065 -0.001250 0.010309 0.000000 0.003163 0.000000
# 4 0.000000 0.000000 0.000000 0.002493 0.000000 0.015167
# 5 0.002993 0.005772 0.003163 0.000000 0.027655 0.000000
# 6 0.000000 0.000000 0.000000 0.015167 0.000000 0.017401
#
#
# Mechanical properties :
#
#
# Convention : Reuss Voigt Hill
#
# Bulk Modulus (GPa) = 38.46815 48.74062 43.60439
# Shear Modulus (GPa) = 52.73923 5.31624 29.02773
#
# Velocity S-wave (km/s) = 4.76204 1.51192 3.53291
# Velocity P-wave (km/s) = 6.83934 4.89954 5.94904
#
# Compressibility (1/GPa) = 0.02599553
#
# Stress axis : x y z
#
# Youngs Moduli (GPa) = 85.34653 97.39119 97.00516
#
# Poissons Ratio (x) = -0.01615 0.20034
# Poissons Ratio (y) = -0.01415 0.12122
# Poissons Ratio (z) = 0.17626 0.12170
#
# Static dielectric constant tensor:
#      x y z
#    x 1.967010 0.000000 0.003680 
#    y 0.000000 1.867760 0.000000 
#    z 0.003680 0.000000 2.041020 
# 
# From -- ./inp_files/276498.got.cif
#   From: 2010.05.17/outbox.cif.g08.bks.cpg/sg15_139_cif.got.tgz:276498.got - 2010.06.03 18:47:42.
