data_PCOD9260490
_publ_section_title
;
Structure prediction by ZEFSAII (Michael W. Deem and Ramdas Pophale) SiO2 
 PCOD9260490
Probable space group: C 2/C
;
_chemical_formula_sum "Si O2"
_cell_formula_units_Z 48
_cell_length_a 28.624441
_cell_length_b 18.339878
_cell_length_c 15.271358
_cell_angle_alpha 90.000000
_cell_angle_beta 161.199312
_cell_angle_gamma 90.000000
_cell_volume 2583.690636
_symmetry_space_group_name_H-M "C 2/C"
_symmetry_group_IT_number 15
_symmetry_cell_setting 'monoclinic'
loop_
_space_group_symop_operation_xyz
x,y,z
-x,y,1/2-z
-x,-y,-z
x,-y,1/2+z
1/2+x,1/2+y,z
1/2-x,1/2+y,1/2-z
1/2-x,1/2-y,-z
1/2+x,1/2-y,1/2+z
loop_
_atom_site_type_symbol
_atom_site_label
_atom_site_fract_x
_atom_site_fract_y
_atom_site_fract_z
Si Si1 0.160686 0.161129 0.620601
Si Si2 0.158601 0.911481 0.945905
Si Si3 0.344795 0.830201 0.939278
Si Si4 0.850378 0.917006 0.037931
Si Si5 0.837246 0.179622 0.687141
Si Si6 0.823773 0.182900 0.180428
O O1 0.232682 0.130057 0.659655
O O2 0.139228 0.247555 0.568594
O O3 0.228765 0.151562 0.837500
O O4 0.007566 0.118185 0.351326
O O5 0.211329 0.886178 0.944214
O O6 0.163334 0.996759 0.971889
O O7 0.276803 0.882195 0.745886
O O8 0.239418 0.826856 0.835613
O O9 0.500000 0.854684 0.250000
O O10 0.845795 0.878128 0.123949
O O11 0.000000 0.902962 0.250000
O O12 0.750000 0.250000 0.500000
O O13 0.004695 0.197250 0.007102
O O14 0.750000 0.250000 0.000000
#
# Coordination Sequence:
#
# PCOD9260490 Si02
#       6
#     8   8   8   8   8   8
#     4  10  18  37  64  86 124 169 213 253 313 378
#     4  10  21  39  64  93 123 165 220 267 308 381
#     4  12  22  40  66  93 125 172 218 263 320 397
#     4  12  24  40  63  97 130 163 219 275 320 373
#     4  11  23  37  61  96 127 164 209 271 319 370
#     4  11  22  37  67  94 119 172 225 252 321 396
#
# _framework density 18.578074999999998
#
# number of rings (size 3 to 8) (size 9 to 14) (size 15 to 20)
#    0.000    1.000    8.333    1.000    0.000    4.000 
#    0.000    0.833    3.667    0.000    0.000    0.000 
#    0.000    0.000    0.000    0.000    0.000    0.000 
#
# Total GULP energy -133860.118603 kJ/mol
# GULP energy per Si atom -5577.504942 kJ/mol
# Density = 1.853579 g / cm^3
# Si number density = 18.578075 Si / 1000 Ang^3
#
#
#
# Elastic Constant Matrix: (Units=GPa)
#
#
# Indices 1 2 3 4 5 6 
#
# 1 108.6628 46.2447 36.7270 0.0000 -37.2837 0.0000
# 2 46.2447 149.0441 63.3613 0.0000 -23.6321 0.0000
# 3 36.7270 63.3613 102.5703 0.0000 -25.3946 0.0000
# 4 0.0000 0.0000 0.0000 25.2234 0.0000 -3.9615
# 5 -37.2837 -23.6321 -25.3946 0.0000 36.2359 0.0000
# 6 0.0000 0.0000 0.0000 -3.9615 0.0000 41.3212
#
#
#
# Elastic Compliance Matrix: (Units=1/GPa)
#
#
# Indices 1 2 3 4 5 6 
#
# 1 0.015020 -0.002240 -0.000641 0.000000 0.013544 0.000000
# 2 -0.002240 0.009611 -0.005026 0.000000 0.000441 0.000000
# 3 -0.000641 -0.005026 0.014651 0.000000 0.006330 0.000000
# 4 0.000000 0.000000 0.000000 0.040252 0.000000 0.003859
# 5 0.013544 0.000441 0.006330 0.000000 0.046257 0.000000
# 6 0.000000 0.000000 0.000000 0.003859 0.000000 0.024571
#
#
# Mechanical properties :
#
#
# Convention : Reuss Voigt Hill
#
# Bulk Modulus (GPa) = 42.61177 72.54926 57.58051
# Shear Modulus (GPa) = 28.73610 34.81905 31.77758
#
# Velocity S-wave (km/s) = 3.93717 4.33390 4.14029
# Velocity P-wave (km/s) = 6.60718 8.01120 7.34283
#
# Compressibility (1/GPa) = 0.02346770
#
# Stress axis : x y z
#
# Youngs Moduli (GPa) = 66.57784 104.04801 68.25599
#
# Poissons Ratio (x) = 0.23310 0.04375
# Poissons Ratio (y) = 0.14916 0.34303
# Poissons Ratio (z) = 0.04267 0.52291
#
# Static dielectric constant tensor:
#      x y z
#    x 1.763500 0.000000 0.016390 
#    y 0.000000 1.611910 0.000000 
#    z 0.016390 0.000000 1.641000 
# 
# From -- ./inp_files/182533.got.cif
#   From: 2010.05.17/outbox.cif.g08.bks.cpg/sg15_92_cif.got.tgz:182533.got - 2010.06.03 18:47:42.
