data_PCOD9260285
_publ_section_title
;
Structure prediction by ZEFSAII (Michael W. Deem and Ramdas Pophale) SiO2 
 PCOD9260285
Probable space group: C 2/C
;
_chemical_formula_sum "Si O2"
_cell_formula_units_Z 44
_cell_length_a 12.646575
_cell_length_b 13.418277
_cell_length_c 10.807136
_cell_angle_alpha 90.000000
_cell_angle_beta 75.069432
_cell_angle_gamma 90.000000
_cell_volume 1772.004204
_symmetry_space_group_name_H-M "C 2/C"
_symmetry_group_IT_number 15
_symmetry_cell_setting 'monoclinic'
loop_
_space_group_symop_operation_xyz
x,y,z
-x,y,1/2-z
-x,-y,-z
x,-y,1/2+z
1/2+x,1/2+y,z
1/2-x,1/2+y,1/2-z
1/2-x,1/2-y,-z
1/2+x,1/2-y,1/2+z
loop_
_atom_site_type_symbol
_atom_site_label
_atom_site_fract_x
_atom_site_fract_y
_atom_site_fract_z
Si Si1 0.223069 0.369514 0.748643
Si Si2 0.017904 0.616599 0.967534
Si Si3 0.625898 0.471158 0.970904
Si Si4 0.710758 0.138597 0.531258
Si Si5 0.262799 0.673697 0.881259
Si Si6 0.000000 0.370788 0.750000
O O1 0.335912 0.397144 0.649882
O O2 0.219255 0.402838 0.888810
O O3 0.201377 0.250931 0.735651
O O4 0.119270 0.421378 0.712801
O O5 0.919135 0.643375 0.905041
O O6 0.002197 0.671824 0.107453
O O7 0.000000 0.500000 0.000000
O O8 0.141313 0.635085 0.888403
O O9 0.500000 0.500000 0.000000
O O10 0.704596 0.567076 0.925281
O O11 0.658286 0.411843 0.087952
O O12 0.750000 0.250000 0.500000
O O13 0.250000 0.750000 0.000000
#
# Coordination Sequence:
#
# PCOD9260285 Si02
#       6
#     8   8   8   8   8   4
#     4  10  23  42  69  95 128 176 225 270 336 398
#     4  11  20  41  66  89 126 163 220 271 320 393
#     4  11  24  43  68  94 137 177 222 274 333 404
#     4  11  26  42  63 101 131 167 220 282 332 387
#     4  10  20  41  67  94 123 176 220 264 329 396
#     4  10  18  36  68  90 120 160 220 266 316 388
#
# _framework density 24.830642000000001
#
# number of rings (size 3 to 8) (size 9 to 14) (size 15 to 20)
#    0.000    1.455    5.455    0.000    5.091    2.182 
#    3.273    0.000    0.000    0.000    0.000    0.000 
#    0.000    0.000    0.000    0.000    0.000    0.000 
#
# Total GULP energy -122691.711278 kJ/mol
# GULP energy per Si atom -5576.895967 kJ/mol
# Density = 2.477413 g / cm^3
# Si number density = 24.830642 Si / 1000 Ang^3
#
#
#
# Elastic Constant Matrix: (Units=GPa)
#
#
# Indices 1 2 3 4 5 6 
#
# 1 226.1445 62.6849 14.1614 0.0000 -22.7401 0.0000
# 2 62.6849 120.5537 -11.2923 0.0000 1.4018 0.0000
# 3 14.1614 -11.2923 55.7944 0.0000 -8.6435 0.0000
# 4 0.0000 0.0000 0.0000 30.1152 0.0000 0.5646
# 5 -22.7401 1.4018 -8.6435 0.0000 30.6170 0.0000
# 6 0.0000 0.0000 0.0000 0.5646 0.0000 41.1662
#
#
#
# Elastic Compliance Matrix: (Units=1/GPa)
#
#
# Indices 1 2 3 4 5 6 
#
# 1 0.005812 -0.003209 -0.001499 0.000000 0.004040 0.000000
# 2 -0.003209 0.010228 0.002555 0.000000 -0.002131 0.000000
# 3 -0.001499 0.002555 0.019482 0.000000 0.004270 0.000000
# 4 0.000000 0.000000 0.000000 0.033214 0.000000 -0.000456
# 5 0.004040 -0.002131 0.004270 0.000000 0.036965 0.000000
# 6 0.000000 0.000000 0.000000 -0.000456 0.000000 0.024298
#
#
# Mechanical properties :
#
#
# Convention : Reuss Voigt Hill
#
# Bulk Modulus (GPa) = 32.03651 59.28895 45.66273
# Shear Modulus (GPa) = 34.55168 42.84227 38.69697
#
# Velocity S-wave (km/s) = 3.73432 4.15827 3.95199
# Velocity P-wave (km/s) = 5.61458 6.85450 6.26529
#
# Compressibility (1/GPa) = 0.03121439
#
# Stress axis : x y z
#
# Youngs Moduli (GPa) = 172.06805 97.77215 51.32995
#
# Poissons Ratio (x) = 0.31378 0.07693
# Poissons Ratio (y) = 0.55221 -0.13112
# Poissons Ratio (z) = 0.25788 -0.24976
#
# Static dielectric constant tensor:
#      x y z
#    x 8.421660 0.000000 2.930570 
#    y 0.000000 2.057450 0.000000 
#    z 2.930570 0.000000 3.430190 
# 
# From -- ./inp_files/86119.got.cif
#   From: 2010.05.17/outbox.cif.g08.bks.cpg/sg15_44_cif.got.tgz:86119.got - 2010.06.03 18:47:42.
