data_PCOD9260187
_publ_section_title
;
Structure prediction by ZEFSAII (Michael W. Deem and Ramdas Pophale) SiO2 
 PCOD9260187
Probable space group: C 2/C
;
_chemical_formula_sum "Si O2"
_cell_formula_units_Z 52
_cell_length_a 11.525480
_cell_length_b 21.356600
_cell_length_c 15.692953
_cell_angle_alpha 90.000000
_cell_angle_beta 39.129209
_cell_angle_gamma 90.000000
_cell_volume 2437.666406
_symmetry_space_group_name_H-M "C 2/C"
_symmetry_group_IT_number 15
_symmetry_cell_setting 'monoclinic'
loop_
_space_group_symop_operation_xyz
x,y,z
-x,y,1/2-z
-x,-y,-z
x,-y,1/2+z
1/2+x,1/2+y,z
1/2-x,1/2+y,1/2-z
1/2-x,1/2-y,-z
1/2+x,1/2-y,1/2+z
loop_
_atom_site_type_symbol
_atom_site_label
_atom_site_fract_x
_atom_site_fract_y
_atom_site_fract_z
Si Si1 0.000000 0.838370 0.750000
Si Si2 0.650337 0.772955 0.970279
Si Si3 0.132094 0.597511 0.249265
Si Si4 0.994079 0.397832 0.012350
Si Si5 0.207412 0.014908 0.910340
Si Si6 0.953720 0.862642 0.969216
Si Si7 0.215359 0.994318 0.104352
O O1 0.173309 0.797553 0.681333
O O2 0.053135 0.870819 0.630732
O O3 0.514751 0.832838 0.052703
O O4 0.750000 0.750000 0.000000
O O5 0.568776 0.707958 0.986245
O O6 0.049398 0.619229 0.384478
O O7 0.153275 0.521523 0.230319
O O8 0.341676 0.618404 0.120656
O O9 0.000000 0.618972 0.250000
O O10 0.155037 0.446318 0.947653
O O11 0.805431 0.436765 0.106890
O O12 0.205595 0.090088 0.909076
O O13 0.229302 0.988224 0.993773
O O14 0.000000 0.000000 0.000000
O O15 0.000000 0.001523 0.250000
#
# Coordination Sequence:
#
# PCOD9260187 Si02
#       7
#     4   8   8   8   8   8   8
#     4  10  18  36  64  86 120 166 194 264 324 388
#     4  10  21  38  61  96 121 164 222 271 327 394
#     4  11  21  41  61  88 127 174 215 260 325 398
#     4  11  23  40  69  93 131 181 223 267 341 404
#     4  10  21  36  62  93 127 169 215 272 325 393
#     4  10  21  37  62  91 125 163 219 263 329 386
#     4  11  22  38  64 101 132 174 222 277 335 391
#
# _framework density 21.331876999999999
#
# number of rings (size 3 to 8) (size 9 to 14) (size 15 to 20)
#    0.000    1.538    3.077    3.692    2.154    0.000 
#    1.385   10.769    0.000    0.000    0.000    0.000 
#    0.000    0.000    0.000    0.000    0.000    0.000 
#
# Total GULP energy -144945.593336 kJ/mol
# GULP energy per Si atom -5574.830513 kJ/mol
# Density = 2.128332 g / cm^3
# Si number density = 21.331877 Si / 1000 Ang^3
#
#
#
# Elastic Constant Matrix: (Units=GPa)
#
#
# Indices 1 2 3 4 5 6 
#
# 1 129.0743 34.6489 16.0961 0.0000 -12.1704 0.0001
# 2 34.6489 140.9236 12.6832 0.0000 -16.6906 0.0000
# 3 16.0961 12.6832 37.4320 0.0007 -19.7460 0.0001
# 4 0.0000 0.0000 0.0007 17.5917 0.0000 -1.3186
# 5 -12.1704 -16.6906 -19.7460 0.0000 34.9238 -0.0002
# 6 0.0001 0.0000 0.0001 -1.3186 -0.0002 32.9851
#
#
#
# Elastic Compliance Matrix: (Units=1/GPa)
#
#
# Indices 1 2 3 4 5 6 
#
# 1 0.008635 -0.001804 -0.002806 0.000000 0.000560 0.000000
# 2 -0.001804 0.007921 -0.000346 0.000000 0.002961 0.000000
# 3 -0.002806 -0.000346 0.039097 -0.000002 0.020962 0.000000
# 4 0.000000 0.000000 -0.000002 0.057016 -0.000001 0.002279
# 5 0.000560 0.002961 0.020962 -0.000001 0.042096 0.000000
# 6 0.000000 0.000000 0.000000 0.002279 0.000000 0.030408
#
#
# Mechanical properties :
#
#
# Convention : Reuss Voigt Hill
#
# Bulk Modulus (GPa) = 21.86255 48.25404 35.05829
# Shear Modulus (GPa) = 23.77193 33.36692 28.56942
#
# Velocity S-wave (km/s) = 3.34186 3.95926 3.66359
# Velocity P-wave (km/s) = 5.01615 6.60082 5.86227
#
# Compressibility (1/GPa) = 0.04574032
#
# Stress axis : x y z
#
# Youngs Moduli (GPa) = 115.81420 126.23879 25.57747
#
# Poissons Ratio (x) = 0.22774 0.07177
# Poissons Ratio (y) = 0.20894 0.00885
# Poissons Ratio (z) = 0.32499 0.04369
#
# Static dielectric constant tensor:
#      x y z
#    x 1.822090 0.000000 0.010990 
#    y 0.000000 1.944680 0.000000 
#    z 0.010990 0.000000 1.805900 
# 
# From -- ./inp_files/200325.got.cif
#   From: 2010.05.17/outbox.cif.g08.bks.cpg/sg15_101_cif.got.tgz:200325.got - 2010.06.03 18:47:42.
