data_PCOD9260591
_publ_section_title
;
Structure prediction by ZEFSAII (Michael W. Deem and Ramdas Pophale) SiO2 
 PCOD9260591
Probable space group: C 2/C
;
_chemical_formula_sum "Si O2"
_cell_formula_units_Z 36
_cell_length_a 8.455094
_cell_length_b 17.404386
_cell_length_c 13.210720
_cell_angle_alpha 90.000000
_cell_angle_beta 55.966394
_cell_angle_gamma 90.000000
_cell_volume 1611.038513
_symmetry_space_group_name_H-M "C 2/C"
_symmetry_group_IT_number 15
_symmetry_cell_setting 'monoclinic'
loop_
_space_group_symop_operation_xyz
x,y,z
-x,y,1/2-z
-x,-y,-z
x,-y,1/2+z
1/2+x,1/2+y,z
1/2-x,1/2+y,1/2-z
1/2-x,1/2-y,-z
1/2+x,1/2-y,1/2+z
loop_
_atom_site_type_symbol
_atom_site_label
_atom_site_fract_x
_atom_site_fract_y
_atom_site_fract_z
Si Si1 0.500000 0.421855 0.750000
Si Si2 0.146991 0.508696 0.832582
Si Si3 0.956604 0.669446 0.878240
Si Si4 0.988261 0.170036 0.454789
Si Si5 0.663517 0.915298 0.627359
O O1 0.321166 0.476893 0.834541
O O2 0.453325 0.366774 0.673633
O O3 0.204755 0.483642 0.694787
O O4 0.088220 0.596424 0.851809
O O5 0.958980 0.455731 0.916139
O O6 0.990653 0.737992 0.945384
O O7 0.000000 0.698962 0.750000
O O8 0.732699 0.648325 0.954519
O O9 0.149732 0.132059 0.467536
O O10 0.500000 0.868053 0.750000
#
# Coordination Sequence:
#
# PCOD9260591 Si02
#       5
#     4   8   8   8   8
#     4  10  18  38  54  84 106 144 172 224 272 316
#     4   8  17  33  55  78 108 137 181 218 260 310
#     4  11  20  36  54  83 108 143 180 220 260 328
#     4  10  21  33  61  76 109 146 174 219 276 309
#     4   7  15  34  53  81  97 143 179 209 262 319
#
# _framework density 22.345834
#
# number of rings (size 3 to 8) (size 9 to 14) (size 15 to 20)
#    1.333    1.333    3.333    0.000    0.000    1.778 
#    2.000    0.000    0.000    4.000    0.000    0.000 
#    0.000    0.000    0.000    0.000    0.000    0.000 
#
# Total GULP energy -100246.410765 kJ/mol
# GULP energy per Si atom -5569.245043 kJ/mol
# Density = 2.229497 g / cm^3
# Si number density = 22.345834 Si / 1000 Ang^3
#
#
#
# Elastic Constant Matrix: (Units=GPa)
#
#
# Indices 1 2 3 4 5 6 
#
# 1 74.0846 58.1564 -2.8622 0.0000 -31.2575 0.0000
# 2 58.1564 112.7121 28.1429 0.0000 -40.2254 0.0000
# 3 -2.8622 28.1429 45.1644 0.0000 -17.3496 0.0000
# 4 0.0000 0.0000 0.0000 15.8452 0.0000 -3.2923
# 5 -31.2575 -40.2254 -17.3496 0.0000 35.1132 0.0000
# 6 0.0000 0.0000 0.0000 -3.2923 0.0000 8.0657
#
#
#
# Elastic Compliance Matrix: (Units=1/GPa)
#
#
# Indices 1 2 3 4 5 6 
#
# 1 0.038066 -0.015567 0.022561 0.000000 0.027200 0.000000
# 2 -0.015567 0.021807 -0.012715 0.000000 0.004842 0.000000
# 3 0.022561 -0.012715 0.041488 0.000000 0.026017 0.000000
# 4 0.000000 0.000000 0.000000 0.068959 0.000000 0.028148
# 5 0.027200 0.004842 0.026017 0.000000 0.071095 0.000000
# 6 0.000000 0.000000 0.000000 0.028148 0.000000 0.135472
#
#
# Mechanical properties :
#
#
# Convention : Reuss Voigt Hill
#
# Bulk Modulus (GPa) = 11.12096 44.31504 27.71800
# Shear Modulus (GPa) = 11.95308 21.70641 16.82975
#
# Velocity S-wave (km/s) = 2.31533 3.12009 2.74733
# Velocity P-wave (km/s) = 3.48356 5.73188 4.74287
#
# Compressibility (1/GPa) = 0.08992030
#
# Stress axis : x y z
#
# Youngs Moduli (GPa) = 26.27019 45.85672 24.10310
#
# Poissons Ratio (x) = 0.71384 -0.54380
# Poissons Ratio (y) = 0.40894 0.30647
# Poissons Ratio (z) = -0.59269 0.58307
#
# Static dielectric constant tensor:
#      x y z
#    x 1.910780 0.000000 0.025840 
#    y 0.000000 1.812690 0.000000 
#    z 0.025840 0.000000 1.943230 
# 
# From -- ./inp_files/189610.got.cif
#   From: 2010.05.17/outbox.cif.g08.bks.cpg/sg15_95_cif.got.tgz:189610.got - 2010.06.03 18:47:42.
