data_PCOD9260938
_publ_section_title
;
Structure prediction by ZEFSAII (Michael W. Deem and Ramdas Pophale) SiO2 
 PCOD9260938
Probable space group: C 2/C
;
_chemical_formula_sum "Si O2"
_cell_formula_units_Z 56
_cell_length_a 17.021424
_cell_length_b 9.429623
_cell_length_c 25.812276
_cell_angle_alpha 90.000000
_cell_angle_beta 139.744630
_cell_angle_gamma 90.000000
_cell_volume 2677.197780
_symmetry_space_group_name_H-M "C 2/C"
_symmetry_group_IT_number 15
_symmetry_cell_setting 'monoclinic'
loop_
_space_group_symop_operation_xyz
x,y,z
-x,y,1/2-z
-x,-y,-z
x,-y,1/2+z
1/2+x,1/2+y,z
1/2-x,1/2+y,1/2-z
1/2-x,1/2-y,-z
1/2+x,1/2-y,1/2+z
loop_
_atom_site_type_symbol
_atom_site_label
_atom_site_fract_x
_atom_site_fract_y
_atom_site_fract_z
Si Si1 0.057259 0.925350 0.478581
Si Si2 0.709975 0.942620 0.442608
Si Si3 0.869721 0.851330 0.621993
Si Si4 0.109744 0.924116 0.691601
Si Si5 0.637470 0.355935 0.341833
Si Si6 0.212878 0.782728 0.275065
Si Si7 0.450096 0.804263 0.603485
O O1 0.053812 0.761636 0.456411
O O2 0.197213 0.969384 0.545486
O O3 0.000000 0.000000 0.500000
O O4 0.977073 0.999359 0.393473
O O5 0.795206 0.885176 0.531817
O O6 0.658134 0.812537 0.383068
O O7 0.606892 0.041464 0.416175
O O8 0.013770 0.871741 0.686015
O O9 0.828630 0.978488 0.638334
O O10 0.179302 0.795154 0.700010
O O11 0.197665 0.050359 0.754543
O O12 0.500000 0.345093 0.250000
O O13 0.718086 0.275958 0.340000
O O14 0.627841 0.295245 0.395394
O O15 0.088152 0.708276 0.192946
#
# Coordination Sequence:
#
# PCOD9260938 Si02
#       7
#     8   8   8   8   8   8   8
#     4  10  21  38  58  86 122 151 188 252 306 339
#     4  10  21  36  61  87 113 157 200 242 288 359
#     4  10  20  39  58  83 121 152 193 246 299 345
#     4  10  21  40  56  84 117 155 187 249 296 346
#     4  10  18  39  59  80 112 158 193 233 296 352
#     4  10  22  37  62  84 118 156 198 243 301 355
#     4  10  20  38  60  86 114 155 203 243 285 356
#
# _framework density 20.917394999999999
#
# number of rings (size 3 to 8) (size 9 to 14) (size 15 to 20)
#    0.000    2.000    5.714    0.429    4.000    0.000 
#    5.143    2.143    0.000    5.143    0.000    0.000 
#    0.000    0.000    0.000    0.000    0.000    0.000 
#
# Total GULP energy -156045.011670 kJ/mol
# GULP energy per Si atom -5573.036131 kJ/mol
# Density = 2.086979 g / cm^3
# Si number density = 20.917395 Si / 1000 Ang^3
#
#
#
# Elastic Constant Matrix: (Units=GPa)
#
#
# Indices 1 2 3 4 5 6 
#
# 1 72.6637 18.1530 12.3215 0.0000 3.0876 0.0000
# 2 18.1530 88.0196 21.0320 0.0000 12.6983 0.0000
# 3 12.3215 21.0320 26.4603 0.0000 0.0006 0.0000
# 4 0.0000 0.0000 0.0000 20.9259 0.0000 1.7597
# 5 3.0876 12.6983 0.0006 0.0000 25.4694 0.0000
# 6 0.0000 0.0000 0.0000 1.7597 0.0000 38.0095
#
#
#
# Elastic Compliance Matrix: (Units=1/GPa)
#
#
# Indices 1 2 3 4 5 6 
#
# 1 0.015189 -0.001594 -0.005806 0.000000 -0.001046 0.000000
# 2 -0.001594 0.015559 -0.011624 0.000000 -0.007564 0.000000
# 3 -0.005806 -0.011624 0.049735 0.000000 0.006498 0.000000
# 4 0.000000 0.000000 0.000000 0.047974 0.000000 -0.002221
# 5 -0.001046 -0.007564 0.006498 0.000000 0.043160 0.000000
# 6 0.000000 0.000000 0.000000 -0.002221 0.000000 0.026412
#
#
# Mechanical properties :
#
#
# Convention : Reuss Voigt Hill
#
# Bulk Modulus (GPa) = 23.56564 32.23963 27.90264
# Shear Modulus (GPa) = 19.98212 25.92344 22.95278
#
# Velocity S-wave (km/s) = 3.09412 3.52422 3.31615
# Velocity P-wave (km/s) = 4.90462 5.65743 5.29442
#
# Compressibility (1/GPa) = 0.04243466
#
# Stress axis : x y z
#
# Youngs Moduli (GPa) = 65.83594 64.27284 20.10640
#
# Poissons Ratio (x) = 0.10248 0.11673
# Poissons Ratio (y) = 0.10497 0.23372
# Poissons Ratio (z) = 0.38223 0.74712
#
# Static dielectric constant tensor:
#      x y z
#    x 1.769270 0.000000 -0.028790 
#    y 0.000000 1.806100 0.000000 
#    z -0.028790 0.000000 1.776700 
# 
# From -- ./inp_files/315542.got.cif
#   From: 2010.05.17/outbox.cif.g08.bks.cpg/sg15_158_cif.got.tgz:315542.got - 2010.06.03 18:47:42.
