data_PCOD9260814
_publ_section_title
;
Structure prediction by ZEFSAII (Michael W. Deem and Ramdas Pophale) SiO2 
 PCOD9260814
Probable space group: C 2/C
;
_chemical_formula_sum "Si O2"
_cell_formula_units_Z 64
_cell_length_a 16.932316
_cell_length_b 8.457058
_cell_length_c 21.720981
_cell_angle_alpha 90.000000
_cell_angle_beta 94.540248
_cell_angle_gamma 90.000000
_cell_volume 3100.631389
_symmetry_space_group_name_H-M "C 2/C"
_symmetry_group_IT_number 15
_symmetry_cell_setting 'monoclinic'
loop_
_space_group_symop_operation_xyz
x,y,z
-x,y,1/2-z
-x,-y,-z
x,-y,1/2+z
1/2+x,1/2+y,z
1/2-x,1/2+y,1/2-z
1/2-x,1/2-y,-z
1/2+x,1/2-y,1/2+z
loop_
_atom_site_type_symbol
_atom_site_label
_atom_site_fract_x
_atom_site_fract_y
_atom_site_fract_z
Si Si1 0.411899 0.693929 0.433229
Si Si2 0.292426 0.946151 0.247248
Si Si3 0.073325 0.758478 0.798728
Si Si4 0.937637 0.652689 0.302329
Si Si5 0.996546 0.946096 0.139618
Si Si6 0.528193 0.048072 0.908279
Si Si7 0.262422 0.715488 0.344295
Si Si8 0.369131 0.235156 0.061148
O O1 0.458825 0.542102 0.411335
O O2 0.476857 0.831940 0.445067
O O3 0.351871 0.734890 0.374187
O O4 0.364929 0.683021 0.494301
O O5 0.344853 0.795474 0.226976
O O6 0.242387 0.862939 0.298007
O O7 0.355761 0.073170 0.277587
O O8 0.249463 0.048108 0.191783
O O9 0.000000 0.712021 0.750000
O O10 0.070484 0.655360 0.860029
O O11 0.050669 0.934084 0.818818
O O12 0.940799 0.837332 0.320056
O O13 0.969145 0.560416 0.364291
O O14 0.000000 0.635409 0.250000
O O15 0.932051 0.833674 0.104896
O O16 0.593181 0.939028 0.943807
O O17 0.207550 0.721869 0.401130
#
# Coordination Sequence:
#
# PCOD9260814 Si02
#       8
#     8   8   8   8   8   8   8   8
#     4  11  23  44  65  93 128 171 222 270 318 385
#     4  12  23  40  62  89 146 168 216 258 340 401
#     4  11  18  37  62  95 129 163 208 272 319 392
#     4  11  18  37  62  95 129 163 208 272 319 392
#     4  10  24  36  68  96 124 163 223 262 332 376
#     4  10  18  38  64  94 116 167 221 260 322 374
#     4  12  27  40  64  96 131 178 206 274 328 392
#     4  11  23  44  65  93 128 171 222 270 318 385
#
# _framework density 20.640958000000001
#
# number of rings (size 3 to 8) (size 9 to 14) (size 15 to 20)
#    0.000    1.000    5.000    3.000    3.500    0.000 
#    0.000    0.000    0.000    1.500    0.000    0.000 
#    0.000    0.000    0.000    0.000    0.000    0.000 
#
# Total GULP energy -178638.731987 kJ/mol
# GULP energy per Si atom -5582.460375 kJ/mol
# Density = 2.059398 g / cm^3
# Si number density = 20.640958 Si / 1000 Ang^3
#
#
#
# Elastic Constant Matrix: (Units=GPa)
#
#
# Indices 1 2 3 4 5 6 
#
# 1 42.0752 1.4879 -3.2262 0.0000 -7.7007 0.0000
# 2 1.4879 74.5057 -7.0867 0.0000 -2.4327 0.0000
# 3 -3.2262 -7.0867 31.5779 0.0000 -10.5971 0.0000
# 4 0.0000 0.0000 0.0000 3.5043 0.0000 -6.2334
# 5 -7.7007 -2.4327 -10.5971 0.0000 24.3084 0.0000
# 6 0.0000 0.0000 0.0000 -6.2334 0.0000 9.8539
#
#
#
# Elastic Compliance Matrix: (Units=1/GPa)
#
#
# Indices 1 2 3 4 5 6 
#
# 1 0.026312 0.000466 0.006566 0.000000 0.011245 0.000000
# 2 0.000466 0.013936 0.004326 0.000000 0.003428 0.000000
# 3 0.006566 0.004326 0.040005 0.000000 0.019953 0.000000
# 4 0.000000 0.000000 0.000000 -2.278358 0.000000 -1.441261
# 5 0.011245 0.003428 0.019953 0.000000 0.053742 0.000000
# 6 0.000000 0.000000 0.000000 -1.441261 0.000000 -0.810240
#
#
# Mechanical properties :
#
#
# Convention : Reuss Voigt Hill
#
# Bulk Modulus (GPa) = 9.71164 14.50099 12.10632
# Shear Modulus (GPa) = -1.69895 17.99889 8.14997
#
# Velocity S-wave (km/s) = -0.90823 2.95617 1.98923
# Velocity P-wave (km/s) = 1.90142 4.32348 3.33975
#
# Compressibility (1/GPa) = 0.10296920
#
# Stress axis : x y z
#
# Youngs Moduli (GPa) = 38.00555 71.75746 24.99674
#
# Poissons Ratio (x) = -0.03346 -0.16414
# Poissons Ratio (y) = -0.01772 -0.10812
# Poissons Ratio (z) = -0.24956 -0.31039
#
# Static dielectric constant tensor:
#      x y z
#    x 1.811360 0.000000 0.189100 
#    y 0.000000 1.773440 0.000000 
#    z 0.189100 0.000000 2.686610 
# 
# From -- ./inp_files/247467.got.cif
#   From: 2010.05.17/outbox.cif.g08.bks.cpg/sg15_124_cif.got.tgz:247467.got - 2010.06.03 18:47:42.
