data_PCOD9260250
_publ_section_title
;
Structure prediction by ZEFSAII (Michael W. Deem and Ramdas Pophale) SiO2 
 PCOD9260250
Probable space group: C 2/C
;
_chemical_formula_sum "Si O2"
_cell_formula_units_Z 56
_cell_length_a 29.075088
_cell_length_b 5.604808
_cell_length_c 25.256625
_cell_angle_alpha 90.000000
_cell_angle_beta 141.884106
_cell_angle_gamma 90.000000
_cell_volume 2540.511188
_symmetry_space_group_name_H-M "C 2/C"
_symmetry_group_IT_number 15
_symmetry_cell_setting 'monoclinic'
loop_
_space_group_symop_operation_xyz
x,y,z
-x,y,1/2-z
-x,-y,-z
x,-y,1/2+z
1/2+x,1/2+y,z
1/2-x,1/2+y,1/2-z
1/2-x,1/2-y,-z
1/2+x,1/2-y,1/2+z
loop_
_atom_site_type_symbol
_atom_site_label
_atom_site_fract_x
_atom_site_fract_y
_atom_site_fract_z
Si Si1 0.675281 0.272335 0.030038
Si Si2 0.719684 0.152474 0.401292
Si Si3 0.259445 0.581772 0.684979
Si Si4 0.057630 0.165814 0.941027
Si Si5 0.632556 0.891655 0.918179
Si Si6 0.082824 0.078456 0.619849
Si Si7 0.896311 0.405576 0.417498
O O1 0.742790 0.396410 0.059952
O O2 0.719328 0.125599 0.114633
O O3 0.621257 0.466449 0.008546
O O4 0.626152 0.148507 0.939589
O O5 0.717721 0.220238 0.338054
O O6 0.644447 0.150771 0.367069
O O7 0.785132 0.320352 0.484183
O O8 0.335187 0.532529 0.783184
O O9 0.192337 0.642523 0.663741
O O10 0.070976 0.235998 0.892324
O O11 0.976792 0.091326 0.886647
O O12 0.079604 0.390003 0.998810
O O13 0.085526 0.339506 0.592890
O O14 0.065945 0.835169 0.571847
#
# Coordination Sequence:
#
# PCOD9260250 Si02
#       7
#     8   8   8   8   8   8   8
#     4  10  18  36  66  89 133 162 217 261 322 370
#     4   9  18  34  62  93 122 161 211 265 315 381
#     4  11  23  41  63  92 130 165 215 272 318 384
#     4  11  23  41  64  94 131 166 215 271 317 386
#     4   9  18  34  62  93 123 160 213 261 320 376
#     4  12  29  40  66  95 133 171 217 265 332 375
#     4  12  24  44  65  92 125 176 221 263 312 385
#
# _framework density 22.042805000000001
#
# number of rings (size 3 to 8) (size 9 to 14) (size 15 to 20)
#    0.000    1.429    4.286    3.000    4.000    1.143 
#    0.000    0.714    0.000    0.000    0.000    0.000 
#    0.000    0.000    0.000    0.000    0.000    0.000 
#
# Total GULP energy -156013.909760 kJ/mol
# GULP energy per Si atom -5571.925349 kJ/mol
# Density = 2.199263 g / cm^3
# Si number density = 22.042805 Si / 1000 Ang^3
#
#
#
# Elastic Constant Matrix: (Units=GPa)
#
#
# Indices 1 2 3 4 5 6 
#
# 1 176.7572 60.5809 28.8900 0.0007 41.1480 -0.0006
# 2 60.5809 99.6815 15.0765 0.0044 -0.0727 0.0140
# 3 28.8900 15.0765 49.7558 -0.0015 23.4956 0.0017
# 4 0.0007 0.0044 -0.0015 12.0935 -0.0014 -2.2680
# 5 41.1480 -0.0727 23.4956 -0.0014 25.9975 0.0002
# 6 -0.0006 0.0140 0.0017 -2.2680 0.0002 19.1687
#
#
#
# Elastic Compliance Matrix: (Units=1/GPa)
#
#
# Indices 1 2 3 4 5 6 
#
# 1 0.015881 -0.011282 0.010610 0.000002 -0.034756 0.000008
# 2 -0.011282 0.018926 -0.013330 -0.000007 0.029957 -0.000014
# 3 0.010610 -0.013330 0.045225 0.000005 -0.057703 0.000007
# 4 0.000002 -0.000007 0.000005 0.084565 -0.000003 0.010006
# 5 -0.034756 0.029957 -0.057703 -0.000003 0.145710 -0.000020
# 6 0.000008 -0.000014 0.000007 0.010006 -0.000020 0.053352
#
#
# Mechanical properties :
#
#
# Convention : Reuss Voigt Hill
#
# Bulk Modulus (GPa) = 19.22025 59.47660 39.34843
# Shear Modulus (GPa) = 12.22473 26.22844 19.22659
#
# Velocity S-wave (km/s) = 2.35753 3.45322 2.95657
# Velocity P-wave (km/s) = 4.01859 6.55290 5.43551
#
# Compressibility (1/GPa) = 0.05202846
#
# Stress axis : x y z
#
# Youngs Moduli (GPa) = 62.96839 52.83645 22.11146
#
# Poissons Ratio (x) = 0.59608 -0.23460
# Poissons Ratio (y) = 0.71039 0.29475
# Poissons Ratio (z) = -0.66809 0.70433
#
# Static dielectric constant tensor:
#      x y z
#    x 1.904150 -0.000020 -0.025130 
#    y -0.000020 1.948400 0.000000 
#    z -0.025130 0.000000 1.781900 
# 
# From -- ./inp_files/319187.got.cif
#   From: 2010.05.17/outbox.cif.g08.bks.cpg/sg15_160_cif.got.tgz:319187.got - 2010.06.03 18:47:42.
