data_PCOD9260374
_publ_section_title
;
Structure prediction by ZEFSAII (Michael W. Deem and Ramdas Pophale) SiO2 
 PCOD9260374
Probable space group: C 2/C
;
_chemical_formula_sum "Si O2"
_cell_formula_units_Z 44
_cell_length_a 27.812643
_cell_length_b 7.007074
_cell_length_c 9.904306
_cell_angle_alpha 90.000000
_cell_angle_beta 56.393080
_cell_angle_gamma 90.000000
_cell_volume 1607.578163
_symmetry_space_group_name_H-M "C 2/C"
_symmetry_group_IT_number 15
_symmetry_cell_setting 'monoclinic'
loop_
_space_group_symop_operation_xyz
x,y,z
-x,y,1/2-z
-x,-y,-z
x,-y,1/2+z
1/2+x,1/2+y,z
1/2-x,1/2+y,1/2-z
1/2-x,1/2-y,-z
1/2+x,1/2-y,1/2+z
loop_
_atom_site_type_symbol
_atom_site_label
_atom_site_fract_x
_atom_site_fract_y
_atom_site_fract_z
Si Si1 0.501163 0.770408 0.532568
Si Si2 0.216140 0.368304 0.441647
Si Si3 0.393529 0.786191 0.570422
Si Si4 0.616567 0.639562 0.470557
Si Si5 0.000000 0.726016 0.750000
Si Si6 0.307263 0.881506 0.299495
O O1 0.433098 0.733404 0.640259
O O2 0.550215 0.707212 0.558572
O O3 0.515596 0.670836 0.364995
O O4 0.500000 0.000000 0.500000
O O5 0.250000 0.250000 0.500000
O O6 0.155483 0.260593 0.512831
O O7 0.238506 0.375124 0.253020
O O8 0.211610 0.572233 0.521007
O O9 0.377286 0.585635 0.530641
O O10 0.439665 0.871933 0.388343
O O11 0.346641 0.937480 0.688124
O O12 0.650218 0.703189 0.280166
#
# Coordination Sequence:
#
# PCOD9260374 Si02
#       6
#     8   8   8   8   4   8
#     4  10  18  37  59  95 142 185 223 275 334 407
#     4  10  25  49  72 103 135 177 240 295 362 420
#     4  10  21  39  62 103 140 187 228 285 333 422
#     4  10  22  40  68  97 134 185 232 276 347 416
#     4   8  22  32  58  92 148 172 236 262 340 384
#     4  10  24  45  72  99 142 179 231 291 360 408
#
# _framework density 27.370363999999999
#
# number of rings (size 3 to 8) (size 9 to 14) (size 15 to 20)
#    2.182    0.000    1.818    0.545    2.545    2.909 
#    0.000    2.727    0.000    0.000    0.000    0.000 
#    0.000    0.000    0.000    0.000    0.000    0.000 
#
# Total GULP energy -122539.743885 kJ/mol
# GULP energy per Si atom -5569.988358 kJ/mol
# Density = 2.730807 g / cm^3
# Si number density = 27.370364 Si / 1000 Ang^3
#
#
#
# Elastic Constant Matrix: (Units=GPa)
#
#
# Indices 1 2 3 4 5 6 
#
# 1 169.0355 17.4356 29.4195 0.0000 31.8706 0.0000
# 2 17.4356 110.9528 12.6605 0.0000 5.1869 0.0000
# 3 29.4195 12.6605 108.9798 0.0000 9.9588 0.0000
# 4 0.0000 0.0000 0.0000 28.1170 0.0000 6.9828
# 5 31.8706 5.1869 9.9588 0.0000 36.8610 0.0000
# 6 0.0000 0.0000 0.0000 6.9828 0.0000 36.2951
#
#
#
# Elastic Compliance Matrix: (Units=1/GPa)
#
#
# Indices 1 2 3 4 5 6 
#
# 1 0.007334 -0.000723 -0.001359 0.000000 -0.005872 0.000000
# 2 -0.000723 0.009243 -0.000838 0.000000 -0.000449 0.000000
# 3 -0.001359 -0.000838 0.009763 0.000000 -0.001345 0.000000
# 4 0.000000 0.000000 0.000000 0.037350 0.000000 -0.007186
# 5 -0.005872 -0.000449 -0.001345 0.000000 0.032633 0.000000
# 6 0.000000 0.000000 0.000000 -0.007186 0.000000 0.028934
#
#
# Mechanical properties :
#
#
# Convention : Reuss Voigt Hill
#
# Bulk Modulus (GPa) = 48.77851 56.44436 52.61143
# Shear Modulus (GPa) = 36.25002 42.21812 39.23407
#
# Velocity S-wave (km/s) = 3.64321 3.93170 3.79020
# Velocity P-wave (km/s) = 5.96303 6.42481 6.19822
#
# Compressibility (1/GPa) = 0.02050083
#
# Stress axis : x y z
#
# Youngs Moduli (GPa) = 136.34652 108.18971 102.42606
#
# Poissons Ratio (x) = 0.07821 0.13923
# Poissons Ratio (y) = 0.09857 0.08579
# Poissons Ratio (z) = 0.18534 0.09062
#
# Static dielectric constant tensor:
#      x y z
#    x 2.193320 0.000000 -0.006310 
#    y 0.000000 2.255440 0.000000 
#    z -0.006310 0.000000 2.342150 
# 
# From -- ./inp_files/68524.got.cif
#   From: 2010.05.17/outbox.cif.g08.bks.cpg/sg15_35_cif.got.tgz:68524.got - 2010.06.03 18:47:42.
