data_PCOD9260363
_publ_section_title
;
Structure prediction by ZEFSAII (Michael W. Deem and Ramdas Pophale) SiO2 
 PCOD9260363
Probable space group: C 2/C
;
_chemical_formula_sum "Si O2"
_cell_formula_units_Z 56
_cell_length_a 13.301465
_cell_length_b 15.807627
_cell_length_c 17.378106
_cell_angle_alpha 90.000000
_cell_angle_beta 121.922621
_cell_angle_gamma 90.000000
_cell_volume 3101.380349
_symmetry_space_group_name_H-M "C 2/C"
_symmetry_group_IT_number 15
_symmetry_cell_setting 'monoclinic'
loop_
_space_group_symop_operation_xyz
x,y,z
-x,y,1/2-z
-x,-y,-z
x,-y,1/2+z
1/2+x,1/2+y,z
1/2-x,1/2+y,1/2-z
1/2-x,1/2-y,-z
1/2+x,1/2-y,1/2+z
loop_
_atom_site_type_symbol
_atom_site_label
_atom_site_fract_x
_atom_site_fract_y
_atom_site_fract_z
Si Si1 0.413820 0.379401 0.916159
Si Si2 0.188904 0.287543 0.050769
Si Si3 0.345466 0.469425 0.508071
Si Si4 0.111941 0.464256 0.335309
Si Si5 0.996156 0.568253 0.066988
Si Si6 0.731430 0.948910 0.736062
Si Si7 0.860198 0.072489 0.674323
O O1 0.377150 0.289076 0.934006
O O2 0.549453 0.401415 0.953220
O O3 0.336498 0.390759 0.808205
O O4 0.376390 0.452311 0.962861
O O5 0.294206 0.338028 0.136373
O O6 0.250000 0.250000 0.000000
O O7 0.089353 0.356290 0.990465
O O8 0.224474 0.427276 0.427041
O O9 0.340506 0.514680 0.589594
O O10 0.057724 0.525403 0.378395
O O11 0.168073 0.515499 0.286927
O O12 0.000000 0.416246 0.250000
O O13 0.130310 0.592673 0.142866
O O14 0.000000 0.500000 0.000000
O O15 0.792102 0.025200 0.715051
O O16 0.000000 0.079971 0.750000
#
# Coordination Sequence:
#
# PCOD9260363 Si02
#       7
#     8   8   8   8   8   8   8
#     4  10  21  36  57  85 129 164 198 254 320 374
#     4  12  23  38  60  98 131 154 206 279 323 357
#     4  10  18  37  59  82 124 169 201 243 315 383
#     4   9  18  32  59  91 114 154 214 254 295 367
#     4  11  20  37  64  90 122 168 206 255 317 384
#     4  10  20  36  58  89 120 169 211 249 307 387
#     4  12  22  37  65  95 121 164 219 258 308 385
#
# _framework density 18.056477000000001
#
# number of rings (size 3 to 8) (size 9 to 14) (size 15 to 20)
#    0.000    1.429    5.714    0.857    0.000    1.143 
#    0.000    0.714    0.000    6.857    0.000    0.000 
#    0.000    0.000    0.000    0.000    0.000    0.000 
#
# Total GULP energy -155977.313849 kJ/mol
# GULP energy per Si atom -5570.618352 kJ/mol
# Density = 1.801538 g / cm^3
# Si number density = 18.056477 Si / 1000 Ang^3
#
#
#
# Elastic Constant Matrix: (Units=GPa)
#
#
# Indices 1 2 3 4 5 6 
#
# 1 79.5238 51.3296 55.7291 0.0000 27.1269 0.0000
# 2 51.3296 85.2080 49.3346 0.0000 6.2379 0.0000
# 3 55.7291 49.3346 144.9546 0.0000 39.5879 0.0000
# 4 0.0000 0.0000 0.0000 13.7809 0.0000 7.8874
# 5 27.1269 6.2379 39.5879 0.0000 46.5351 0.0000
# 6 0.0000 0.0000 0.0000 7.8874 0.0000 30.4992
#
#
#
# Elastic Compliance Matrix: (Units=1/GPa)
#
#
# Indices 1 2 3 4 5 6 
#
# 1 0.027725 -0.014400 -0.002438 0.000000 -0.012158 0.000000
# 2 -0.014400 0.022416 -0.004644 0.000000 0.009340 0.000000
# 3 -0.002438 -0.004644 0.011539 0.000000 -0.007773 0.000000
# 4 0.000000 0.000000 0.000000 0.085170 0.000000 -0.022026
# 5 -0.012158 0.009340 -0.007773 0.000000 0.033937 0.000000
# 6 0.000000 0.000000 0.000000 -0.022026 0.000000 0.038484
#
#
# Mechanical properties :
#
#
# Convention : Reuss Voigt Hill
#
# Bulk Modulus (GPa) = 53.42779 69.16368 61.29573
# Shear Modulus (GPa) = 18.62380 28.38259 23.50320
#
# Velocity S-wave (km/s) = 3.21506 3.96899 3.61175
# Velocity P-wave (km/s) = 6.59057 7.70656 7.17031
#
# Compressibility (1/GPa) = 0.01871685
#
# Stress axis : x y z
#
# Youngs Moduli (GPa) = 36.06813 44.61182 86.66123
#
# Poissons Ratio (x) = 0.64242 0.21126
# Poissons Ratio (y) = 0.51939 0.40241
# Poissons Ratio (z) = 0.08793 0.20716
#
# Static dielectric constant tensor:
#      x y z
#    x 1.660720 0.000000 0.024680 
#    y 0.000000 1.579630 0.000000 
#    z 0.024680 0.000000 1.678070 
# 
# From -- ./inp_files/205471.got.cif
#   From: 2010.05.17/outbox.cif.g08.bks.cpg/sg15_103_cif.got.tgz:205471.got - 2010.06.03 18:47:42.
