data_PCOD9260200
_publ_section_title
;
Structure prediction by ZEFSAII (Michael W. Deem and Ramdas Pophale) SiO2 
 PCOD9260200
Probable space group: C 2/C
;
_chemical_formula_sum "Si O2"
_cell_formula_units_Z 44
_cell_length_a 14.644681
_cell_length_b 9.571747
_cell_length_c 17.678300
_cell_angle_alpha 90.000000
_cell_angle_beta 130.846531
_cell_angle_gamma 90.000000
_cell_volume 1874.562729
_symmetry_space_group_name_H-M "C 2/C"
_symmetry_group_IT_number 15
_symmetry_cell_setting 'monoclinic'
loop_
_space_group_symop_operation_xyz
x,y,z
-x,y,1/2-z
-x,-y,-z
x,-y,1/2+z
1/2+x,1/2+y,z
1/2-x,1/2+y,1/2-z
1/2-x,1/2-y,-z
1/2+x,1/2-y,1/2+z
loop_
_atom_site_type_symbol
_atom_site_label
_atom_site_fract_x
_atom_site_fract_y
_atom_site_fract_z
Si Si1 0.468637 0.434437 0.364544
Si Si2 0.975841 0.235554 0.323281
Si Si3 0.174276 0.247368 0.037357
Si Si4 0.000000 0.712825 0.250000
Si Si5 0.979885 0.471393 0.598397
Si Si6 0.751095 0.115307 0.269817
O O1 0.526878 0.582426 0.371077
O O2 0.560327 0.356892 0.469226
O O3 0.456095 0.329428 0.287725
O O4 0.337740 0.479121 0.323705
O O5 0.024452 0.362641 0.399262
O O6 0.000000 0.268574 0.250000
O O7 0.833117 0.212198 0.260419
O O8 0.111242 0.399164 0.009672
O O9 0.250000 0.250000 0.000000
O O10 0.248560 0.192138 0.148772
O O11 0.054956 0.599973 0.339667
O O12 0.119934 0.423713 0.668793
#
# Coordination Sequence:
#
# PCOD9260200 Si02
#       6
#     8   8   8   4   8   8
#     4   9  20  38  64  93 131 170 222 269 334 389
#     4  10  22  41  64  99 133 171 224 275 341 390
#     4  11  24  43  68 100 134 183 229 273 333 411
#     4  10  18  36  64  90 128 176 220 258 328 402
#     4  11  23  40  70  96 131 179 231 275 336 405
#     4  10  23  41  70  94 137 174 224 281 336 397
#
# _framework density 23.47214
#
# number of rings (size 3 to 8) (size 9 to 14) (size 15 to 20)
#    1.091    0.727    1.818    2.727    5.091    0.727 
#    3.273    0.909    0.000    0.000    0.000    0.000 
#    0.000    0.000    0.000    0.000    0.000    0.000 
#
# Total GULP energy -122588.724602 kJ/mol
# GULP energy per Si atom -5572.214755 kJ/mol
# Density = 2.341872 g / cm^3
# Si number density = 23.472140 Si / 1000 Ang^3
#
#
#
# Elastic Constant Matrix: (Units=GPa)
#
#
# Indices 1 2 3 4 5 6 
#
# 1 54.0014 8.3584 15.2423 0.0000 -7.9205 0.0000
# 2 8.3584 162.9154 17.6754 0.0000 9.0398 0.0000
# 3 15.2423 17.6754 55.7954 0.0000 -6.8440 0.0000
# 4 0.0000 0.0000 0.0000 -3.4712 0.0000 -9.0018
# 5 -7.9205 9.0398 -6.8440 0.0000 34.9560 0.0000
# 6 0.0000 0.0000 0.0000 -9.0018 0.0000 34.3960
#
#
#
# Elastic Compliance Matrix: (Units=1/GPa)
#
#
# Indices 1 2 3 4 5 6 
#
# 1 0.020590 -0.000739 -0.004913 0.000000 0.003895 0.000000
# 2 -0.000739 0.006536 -0.002148 0.000000 -0.002278 0.000000
# 3 -0.004913 -0.002148 0.020366 0.000000 0.003430 0.000000
# 4 0.000000 0.000000 0.000000 -0.171612 0.000000 -0.044913
# 5 0.003895 -0.002278 0.003430 0.000000 0.030751 0.000000
# 6 0.000000 0.000000 0.000000 -0.044913 0.000000 0.017319
#
#
# Mechanical properties :
#
#
# Convention : Reuss Voigt Hill
#
# Bulk Modulus (GPa) = 31.35644 39.47382 35.41513
# Shear Modulus (GPa) = -100.36287 28.60521 -35.87883
#
# Velocity S-wave (km/s) = -6.54608 3.49476 -3.91394
# Velocity P-wave (km/s) = 6.61414 5.75658 2.30310
#
# Compressibility (1/GPa) = 0.03189137
#
# Stress axis : x y z
#
# Youngs Moduli (GPa) = 48.56619 153.00967 49.10185
#
# Poissons Ratio (x) = 0.11315 0.24123
# Poissons Ratio (y) = 0.03591 0.10546
# Poissons Ratio (z) = 0.23860 0.32864
#
# Static dielectric constant tensor:
#      x y z
#    x 2.109310 0.000000 0.022950 
#    y 0.000000 1.890550 0.000000 
#    z 0.022950 0.000000 1.884200 
# 
# From -- ./inp_files/275958.got.cif
#   From: 2010.05.17/outbox.cif.g08.bks.cpg/sg15_138_cif.got.tgz:275958.got - 2010.06.03 18:47:42.
