data_PCOD9260129
_publ_section_title
;
Structure prediction by ZEFSAII (Michael W. Deem and Ramdas Pophale) SiO2 
 PCOD9260129
Probable space group: C 2/C
;
_chemical_formula_sum "Si O2"
_cell_formula_units_Z 56
_cell_length_a 9.077695
_cell_length_b 19.699264
_cell_length_c 15.111735
_cell_angle_alpha 90.000000
_cell_angle_beta 88.341209
_cell_angle_gamma 90.000000
_cell_volume 2701.207098
_symmetry_space_group_name_H-M "C 2/C"
_symmetry_group_IT_number 15
_symmetry_cell_setting 'monoclinic'
loop_
_space_group_symop_operation_xyz
x,y,z
-x,y,1/2-z
-x,-y,-z
x,-y,1/2+z
1/2+x,1/2+y,z
1/2-x,1/2+y,1/2-z
1/2-x,1/2-y,-z
1/2+x,1/2-y,1/2+z
loop_
_atom_site_type_symbol
_atom_site_label
_atom_site_fract_x
_atom_site_fract_y
_atom_site_fract_z
Si Si1 0.259111 0.608372 0.629899
Si Si2 0.313823 0.267394 0.401893
Si Si3 0.000000 0.082912 0.750000
Si Si4 0.352410 0.527820 0.053290
Si Si5 0.086290 0.166643 0.341056
Si Si6 0.000000 0.405500 0.250000
Si Si7 0.896410 0.791647 0.007313
Si Si8 0.747745 0.427481 0.126737
O O1 0.381043 0.626429 0.700473
O O2 0.272191 0.527930 0.615491
O O3 0.104447 0.630830 0.674777
O O4 0.327400 0.637165 0.539553
O O5 0.250000 0.250000 0.500000
O O6 0.234488 0.213642 0.338155
O O7 0.488689 0.265720 0.419990
O O8 0.271934 0.345374 0.379818
O O9 0.099365 0.044353 0.676838
O O10 0.382013 0.594269 0.112288
O O11 0.500000 0.500000 0.000000
O O12 0.246076 0.546824 0.972894
O O13 0.000000 0.160569 0.250000
O O14 0.979753 0.203331 0.413621
O O15 0.882788 0.443334 0.189302
O O16 0.750000 0.750000 0.000000
#
# Coordination Sequence:
#
# PCOD9260129 Si02
#       8
#     8   8   4   8   8   4   8   8
#     4  11  23  42  65  97 124 175 215 273 324 381
#     4  10  20  41  61  90 132 168 216 254 334 390
#     4  10  18  36  62  94 120 154 228 262 302 378
#     4  12  21  42  72  90 126 178 229 262 322 404
#     4  11  25  40  66 104 132 175 216 278 334 388
#     4  10  28  38  62 104 126 160 220 282 328 374
#     4  11  23  43  68  97 132 175 219 264 333 406
#     4  11  21  40  65  93 128 172 215 270 325 390
#
# _framework density 20.731470999999999
#
# number of rings (size 3 to 8) (size 9 to 14) (size 15 to 20)
#    0.000    1.143    7.143    0.000    6.000    1.714 
#    0.000    0.000    0.000    0.000    0.000    0.000 
#    0.000    0.000    0.000    0.000    0.000    0.000 
#
# Total GULP energy -155907.407237 kJ/mol
# GULP energy per Si atom -5568.121687 kJ/mol
# Density = 2.068429 g / cm^3
# Si number density = 20.731471 Si / 1000 Ang^3
#
#
#
# Elastic Constant Matrix: (Units=GPa)
#
#
# Indices 1 2 3 4 5 6 
#
# 1 135.0655 29.8977 43.5155 0.0000 9.8951 0.0000
# 2 29.8977 83.5501 28.1080 0.0000 12.2946 0.0000
# 3 43.5155 28.1080 124.8547 0.0000 20.5554 0.0000
# 4 0.0000 0.0000 0.0000 6.7462 0.0000 -0.7864
# 5 9.8951 12.2946 20.5554 0.0000 37.0778 0.0000
# 6 0.0000 0.0000 0.0000 -0.7864 0.0000 19.0394
#
#
#
# Elastic Compliance Matrix: (Units=1/GPa)
#
#
# Indices 1 2 3 4 5 6 
#
# 1 0.008722 -0.002251 -0.002501 0.000000 -0.000195 0.000000
# 2 -0.002251 0.013830 -0.001841 0.000000 -0.002965 0.000000
# 3 -0.002501 -0.001841 0.009998 0.000000 -0.004265 0.000000
# 4 0.000000 0.000000 0.000000 0.148948 0.000000 0.006152
# 5 -0.000195 -0.002965 -0.004265 0.000000 0.030370 0.000000
# 6 0.000000 0.000000 0.000000 0.006152 0.000000 0.052777
#
#
# Mechanical properties :
#
#
# Convention : Reuss Voigt Hill
#
# Bulk Modulus (GPa) = 51.64328 60.72365 56.18346
# Shear Modulus (GPa) = 17.58800 28.70262 23.14531
#
# Velocity S-wave (km/s) = 2.91584 3.72492 3.34493
# Velocity P-wave (km/s) = 6.02502 6.91767 6.48672
#
# Compressibility (1/GPa) = 0.01936360
#
# Stress axis : x y z
#
# Youngs Moduli (GPa) = 114.65027 72.30691 100.02469
#
# Poissons Ratio (x) = 0.16277 0.25017
# Poissons Ratio (y) = 0.25809 0.18413
# Poissons Ratio (z) = 0.28675 0.13311
#
# Static dielectric constant tensor:
#      x y z
#    x 1.804330 0.000000 0.001600 
#    y 0.000000 2.035240 0.000000 
#    z 0.001600 0.000000 2.293660 
# 
# From -- ./inp_files/136498.got.cif
#   From: 2010.05.17/outbox.cif.g08.bks.cpg/sg15_69_cif.got.tgz:136498.got - 2010.06.03 18:47:42.
