data_PCOD9260778
_publ_section_title
;
Structure prediction by ZEFSAII (Michael W. Deem and Ramdas Pophale) SiO2 
 PCOD9260778
Probable space group: C 2/C
;
_chemical_formula_sum "Si O2"
_cell_formula_units_Z 52
_cell_length_a 15.100172
_cell_length_b 15.906473
_cell_length_c 11.660501
_cell_angle_alpha 90.000000
_cell_angle_beta 63.913497
_cell_angle_gamma 90.000000
_cell_volume 2515.433116
_symmetry_space_group_name_H-M "C 2/C"
_symmetry_group_IT_number 15
_symmetry_cell_setting 'monoclinic'
loop_
_space_group_symop_operation_xyz
x,y,z
-x,y,1/2-z
-x,-y,-z
x,-y,1/2+z
1/2+x,1/2+y,z
1/2-x,1/2+y,1/2-z
1/2-x,1/2-y,-z
1/2+x,1/2-y,1/2+z
loop_
_atom_site_type_symbol
_atom_site_label
_atom_site_fract_x
_atom_site_fract_y
_atom_site_fract_z
Si Si1 0.368675 0.097493 0.935645
Si Si2 0.000000 0.540875 0.250000
Si Si3 0.963714 0.352041 0.994552
Si Si4 0.918060 0.012705 0.891970
Si Si5 0.770890 0.537157 0.640166
Si Si6 0.009215 0.177496 0.882776
Si Si7 0.809648 0.118765 0.600670
O O1 0.288470 0.149582 0.909164
O O2 0.410323 0.021977 0.831542
O O3 0.463171 0.140568 0.938745
O O4 0.312948 0.051387 0.072628
O O5 0.990509 0.598379 0.142045
O O6 0.952128 0.255617 0.967761
O O7 0.860757 0.397628 0.078618
O O8 0.821336 0.054742 0.890064
O O9 0.000000 0.993083 0.750000
O O10 0.966010 0.086276 0.940773
O O11 0.879114 0.928494 0.971260
O O12 0.726924 0.546437 0.791078
O O13 0.121952 0.180865 0.864621
O O14 0.000000 0.181910 0.750000
#
# Coordination Sequence:
#
# PCOD9260778 Si02
#       7
#     8   4   8   8   8   8   8
#     4  10  21  35  60  91 118 157 208 243 294 353
#     4  10  18  38  64  82 124 160 198 254 288 346
#     4  11  22  37  60  92 126 156 196 243 307 361
#     4  10  21  39  65  90 115 155 210 246 291 349
#     4  10  20  36  62  91 115 155 206 246 294 351
#     4  11  22  40  60  86 124 160 194 246 300 355
#     4  11  21  39  65  85 121 159 199 255 291 346
#
# _framework density 20.672383
#
# number of rings (size 3 to 8) (size 9 to 14) (size 15 to 20)
#    0.000    1.538    3.846    4.154    0.000    1.231 
#    0.000    0.000    5.077    0.000    0.000    0.000 
#    0.000    0.000    0.000    0.000    0.000    0.000 
#
# Total GULP energy -144994.447025 kJ/mol
# GULP energy per Si atom -5576.709501 kJ/mol
# Density = 2.062533 g / cm^3
# Si number density = 20.672383 Si / 1000 Ang^3
#
#
#
# Elastic Constant Matrix: (Units=GPa)
#
#
# Indices 1 2 3 4 5 6 
#
# 1 167.8533 1.2719 13.2720 0.0000 8.5490 0.0000
# 2 1.2719 21.8440 6.7411 0.0000 0.8728 0.0000
# 3 13.2720 6.7411 64.0913 0.0000 -8.6009 0.0000
# 4 0.0000 0.0000 0.0000 550.6482 0.0000 -115.2832
# 5 8.5490 0.8728 -8.6009 0.0000 22.8669 0.0000
# 6 0.0000 0.0000 0.0000 -115.2832 0.0000 31.2215
#
#
#
# Elastic Compliance Matrix: (Units=1/GPa)
#
#
# Indices 1 2 3 4 5 6 
#
# 1 0.006244 0.000288 -0.001725 0.000000 -0.002994 0.000000
# 2 0.000288 0.047656 -0.005614 0.000000 -0.004038 0.000000
# 3 -0.001725 -0.005614 0.017552 0.000000 0.007461 0.000000
# 4 0.000000 0.000000 0.000000 0.008002 0.000000 0.029546
# 5 -0.002994 -0.004038 0.007461 0.000000 0.047811 0.000000
# 6 0.000000 0.000000 0.000000 0.029546 0.000000 0.141126
#
#
# Mechanical properties :
#
#
# Convention : Reuss Voigt Hill
#
# Bulk Modulus (GPa) = 17.43666 32.92873 25.18269
# Shear Modulus (GPa) = 16.57772 136.44757 76.51264
#
# Velocity S-wave (km/s) = 2.83490 8.13315 6.09035
# Velocity P-wave (km/s) = 4.37820 10.20592 7.85269
#
# Compressibility (1/GPa) = 0.05735045
#
# Stress axis : x y z
#
# Youngs Moduli (GPa) = 160.14558 20.98360 56.97439
#
# Poissons Ratio (x) = -0.00605 0.09830
# Poissons Ratio (y) = -0.04620 0.31986
# Poissons Ratio (z) = 0.27629 0.11781
#
# Static dielectric constant tensor:
#      x y z
#    x 1.805810 0.000000 0.023200 
#    y 0.000000 1.710330 0.000000 
#    z 0.023200 0.000000 1.750810 
# 
# From -- ./inp_files/98204.got.cif
#   From: 2010.05.17/outbox.cif.g08.bks.cpg/sg15_50_cif.got.tgz:98204.got - 2010.06.03 18:47:42.
