data_PCOD9260825
_publ_section_title
;
Structure prediction by ZEFSAII (Michael W. Deem and Ramdas Pophale) SiO2 
 PCOD9260825
Probable space group: C 2/C
;
_chemical_formula_sum "Si O2"
_cell_formula_units_Z 56
_cell_length_a 14.346627
_cell_length_b 18.478383
_cell_length_c 8.837695
_cell_angle_alpha 90.000000
_cell_angle_beta 96.578552
_cell_angle_gamma 90.000000
_cell_volume 2327.468488
_symmetry_space_group_name_H-M "C 2/C"
_symmetry_group_IT_number 15
_symmetry_cell_setting 'monoclinic'
loop_
_space_group_symop_operation_xyz
x,y,z
-x,y,1/2-z
-x,-y,-z
x,-y,1/2+z
1/2+x,1/2+y,z
1/2-x,1/2+y,1/2-z
1/2-x,1/2-y,-z
1/2+x,1/2-y,1/2+z
loop_
_atom_site_type_symbol
_atom_site_label
_atom_site_fract_x
_atom_site_fract_y
_atom_site_fract_z
Si Si1 0.400445 0.181711 0.299211
Si Si2 0.056030 0.922866 0.449953
Si Si3 0.133927 0.941205 0.771361
Si Si4 0.067461 0.531905 0.642262
Si Si5 0.758943 0.663025 0.498117
Si Si6 0.370255 0.650073 0.785230
Si Si7 0.813950 0.430956 0.614765
O O1 0.500000 0.161092 0.250000
O O2 0.361106 0.148068 0.448455
O O3 0.399677 0.267629 0.319955
O O4 0.325046 0.153033 0.163777
O O5 0.058010 0.920287 0.630081
O O6 0.123819 0.862611 0.391342
O O7 0.098229 0.994652 0.374966
O O8 0.048671 0.099009 0.625899
O O9 0.216472 0.961122 0.663605
O O10 0.181872 0.877336 0.878115
O O11 0.112791 0.472370 0.761392
O O12 0.153059 0.560461 0.551661
O O13 0.000000 0.575202 0.750000
O O14 0.000000 0.500000 0.500000
O O15 0.750000 0.750000 0.500000
O O16 0.729675 0.636750 0.657737
#
# Coordination Sequence:
#
# PCOD9260825 Si02
#       7
#     8   8   8   8   8   8   8
#     4  10  18  38  65  90 119 176 220 255 332 400
#     4  11  23  40  65  98 132 170 224 274 339 402
#     4  11  23  38  61  98 131 176 215 272 340 400
#     4   9  17  31  53  88 120 158 217 271 327 383
#     4   9  21  40  63  92 128 173 220 264 330 390
#     4  10  22  41  64  93 130 175 222 283 332 398
#     4  10  20  35  58  89 129 170 212 268 333 403
#
# _framework density 24.060476999999999
#
# number of rings (size 3 to 8) (size 9 to 14) (size 15 to 20)
#    0.000    2.000    1.429    3.000    0.000    6.857 
#    0.000    7.857    0.000    5.143    0.000    0.000 
#    0.000    0.000    0.000    0.000    0.000    0.000 
#
# Total GULP energy -155976.493763 kJ/mol
# GULP energy per Si atom -5570.589063 kJ/mol
# Density = 2.400571 g / cm^3
# Si number density = 24.060477 Si / 1000 Ang^3
#
#
#
# Elastic Constant Matrix: (Units=GPa)
#
#
# Indices 1 2 3 4 5 6 
#
# 1 84.8420 34.6224 50.2158 0.0000 -34.1106 0.0000
# 2 34.6224 95.4878 34.8699 0.0000 0.2929 0.0000
# 3 50.2158 34.8699 173.1963 0.0000 -35.1875 0.0000
# 4 0.0000 0.0000 0.0000 21.1599 0.0000 -13.1905
# 5 -34.1106 0.2929 -35.1875 0.0000 71.9616 0.0000
# 6 0.0000 0.0000 0.0000 -13.1905 0.0000 16.4491
#
#
#
# Elastic Compliance Matrix: (Units=1/GPa)
#
#
# Indices 1 2 3 4 5 6 
#
# 1 0.018868 -0.005864 -0.002740 0.000000 0.007628 0.000000
# 2 -0.005864 0.013234 -0.001710 0.000000 -0.003670 0.000000
# 3 -0.002740 -0.001710 0.007384 0.000000 0.002318 0.000000
# 4 0.000000 0.000000 0.000000 0.094495 0.000000 0.075775
# 5 0.007628 -0.003670 0.002318 0.000000 0.018660 0.000000
# 6 0.000000 0.000000 0.000000 0.075775 0.000000 0.121557
#
#
# Mechanical properties :
#
#
# Convention : Reuss Voigt Hill
#
# Bulk Modulus (GPa) = 53.02821 65.88249 59.45535
# Shear Modulus (GPa) = 16.60504 37.50200 27.05352
#
# Velocity S-wave (km/s) = 2.62990 3.95226 3.35684
# Velocity P-wave (km/s) = 5.59546 6.94757 6.30785
#
# Compressibility (1/GPa) = 0.01885789
#
# Stress axis : x y z
#
# Youngs Moduli (GPa) = 52.99923 75.56068 135.43584
#
# Poissons Ratio (x) = 0.44309 0.37113
# Poissons Ratio (y) = 0.31079 0.23157
# Poissons Ratio (z) = 0.14523 0.12920
#
# Static dielectric constant tensor:
#      x y z
#    x 2.074750 0.000000 -0.035060 
#    y 0.000000 1.962750 0.000000 
#    z -0.035060 0.000000 2.000020 
# 
# From -- ./inp_files/56095.got.cif
#   From: 2010.05.17/outbox.cif.g08.bks.cpg/sg15_29_cif.got.tgz:56095.got - 2010.06.03 18:47:42.
