data_PCOD9260484
_publ_section_title
;
Structure prediction by ZEFSAII (Michael W. Deem and Ramdas Pophale) SiO2 
 PCOD9260484
Probable space group: C 2/C
;
_chemical_formula_sum "Si O2"
_cell_formula_units_Z 40
_cell_length_a 10.075475
_cell_length_b 22.540264
_cell_length_c 10.581327
_cell_angle_alpha 90.000000
_cell_angle_beta 137.163326
_cell_angle_gamma 90.000000
_cell_volume 1633.866663
_symmetry_space_group_name_H-M "C 2/C"
_symmetry_group_IT_number 15
_symmetry_cell_setting 'monoclinic'
loop_
_space_group_symop_operation_xyz
x,y,z
-x,y,1/2-z
-x,-y,-z
x,-y,1/2+z
1/2+x,1/2+y,z
1/2-x,1/2+y,1/2-z
1/2-x,1/2-y,-z
1/2+x,1/2-y,1/2+z
loop_
_atom_site_type_symbol
_atom_site_label
_atom_site_fract_x
_atom_site_fract_y
_atom_site_fract_z
Si Si1 0.189281 0.560989 0.613369
Si Si2 0.000000 0.975406 0.750000
Si Si3 0.111783 0.185463 0.693779
Si Si4 0.000000 0.394591 0.750000
Si Si5 0.229835 0.185620 0.236604
Si Si6 0.848359 0.397454 0.036427
O O1 0.366863 0.515476 0.749308
O O2 0.264230 0.626793 0.699524
O O3 0.014371 0.441516 0.453069
O O4 0.141345 0.564961 0.431039
O O5 0.844458 0.935031 0.565734
O O6 0.231078 0.244661 0.746974
O O7 0.000000 0.195606 0.750000
O O8 0.970327 0.174861 0.476777
O O9 0.114598 0.351254 0.737248
O O10 0.265043 0.157862 0.398500
O O11 0.000000 0.378904 0.250000
#
# Coordination Sequence:
#
# PCOD9260484 Si02
#       6
#     8   4   8   4   8   8
#     4  11  24  45  75 112 144 188 254 314 379 437
#     4  12  26  51  76 106 146 203 254 320 366 434
#     4  12  21  41  75 117 146 184 241 324 389 428
#     4  10  18  37  64 106 146 171 234 308 374 436
#     4  11  22  40  70 109 150 189 238 306 377 445
#     4  11  29  50  72 106 154 207 254 297 365 457
#
# _framework density 24.481801000000001
#
# number of rings (size 3 to 8) (size 9 to 14) (size 15 to 20)
#    0.000    0.800    4.000    3.600    4.200    0.800 
#    0.000    4.000    2.200    0.000    0.000    0.000 
#    0.000    0.000    0.000    0.000    0.000    0.000 
#
# Total GULP energy -111969.039108 kJ/mol
# GULP energy per Si atom -5598.451955 kJ/mol
# Density = 2.442608 g / cm^3
# Si number density = 24.481801 Si / 1000 Ang^3
#
#
#
# Elastic Constant Matrix: (Units=GPa)
#
#
# Indices 1 2 3 4 5 6 
#
# 1 63.7127 47.6847 41.0029 0.0000 11.4966 0.0000
# 2 47.6847 127.1401 66.1933 0.0000 7.4295 0.0000
# 3 41.0029 66.1933 211.6301 0.0000 3.2596 0.0000
# 4 0.0000 0.0000 0.0000 83.5530 0.0000 42.3038
# 5 11.4966 7.4295 3.2596 0.0000 38.3909 0.0000
# 6 0.0000 0.0000 0.0000 42.3038 0.0000 47.5193
#
#
#
# Elastic Compliance Matrix: (Units=1/GPa)
#
#
# Indices 1 2 3 4 5 6 
#
# 1 0.023626 -0.007409 -0.002176 0.000000 -0.005456 0.000000
# 2 -0.007409 0.011814 -0.002262 0.000000 0.000124 0.000000
# 3 -0.002176 -0.002262 0.005845 0.000000 0.000593 0.000000
# 4 0.000000 0.000000 0.000000 0.021790 0.000000 -0.019399
# 5 -0.005456 0.000124 0.000593 0.000000 0.027607 0.000000
# 6 0.000000 0.000000 0.000000 -0.019399 0.000000 0.038313
#
#
# Mechanical properties :
#
#
# Convention : Reuss Voigt Hill
#
# Bulk Modulus (GPa) = 56.84567 79.13829 67.99198
# Shear Modulus (GPa) = 31.53500 50.39944 40.96722
#
# Velocity S-wave (km/s) = 3.59290 4.54216 4.09513
# Velocity P-wave (km/s) = 6.36254 7.73975 7.08469
#
# Compressibility (1/GPa) = 0.01759149
#
# Stress axis : x y z
#
# Youngs Moduli (GPa) = 42.32672 84.64191 171.08385
#
# Poissons Ratio (x) = 0.62713 0.37227
# Poissons Ratio (y) = 0.31361 0.38694
# Poissons Ratio (z) = 0.09210 0.19143
#
# Static dielectric constant tensor:
#      x y z
#    x 1.979230 0.000000 -0.069010 
#    y 0.000000 1.926350 0.000000 
#    z -0.069010 0.000000 1.794390 
# 
# From -- ./inp_files/89913.got.cif
#   From: 2010.05.17/outbox.cif.g08.bks.cpg/sg15_45_cif.got.tgz:89913.got - 2010.06.03 18:47:42.
