data_PCOD9260629
_publ_section_title
;
Structure prediction by ZEFSAII (Michael W. Deem and Ramdas Pophale) SiO2 
 PCOD9260629
Probable space group: C 2/C
;
_chemical_formula_sum "Si O2"
_cell_formula_units_Z 44
_cell_length_a 12.332489
_cell_length_b 12.650930
_cell_length_c 23.342321
_cell_angle_alpha 90.000000
_cell_angle_beta 136.402047
_cell_angle_gamma 90.000000
_cell_volume 2511.368794
_symmetry_space_group_name_H-M "C 2/C"
_symmetry_group_IT_number 15
_symmetry_cell_setting 'monoclinic'
loop_
_space_group_symop_operation_xyz
x,y,z
-x,y,1/2-z
-x,-y,-z
x,-y,1/2+z
1/2+x,1/2+y,z
1/2-x,1/2+y,1/2-z
1/2-x,1/2-y,-z
1/2+x,1/2-y,1/2+z
loop_
_atom_site_type_symbol
_atom_site_label
_atom_site_fract_x
_atom_site_fract_y
_atom_site_fract_z
Si Si1 0.537058 0.604483 0.330355
Si Si2 0.910022 0.603784 0.485381
Si Si3 0.000000 0.502183 0.250000
Si Si4 0.079566 0.834207 0.033186
Si Si5 0.348915 0.465964 0.865615
Si Si6 0.076523 0.340955 0.379939
O O1 0.500000 0.582790 0.250000
O O2 0.722175 0.583661 0.412061
O O3 0.424373 0.545430 0.331960
O O4 0.511913 0.728791 0.334244
O O5 0.945306 0.710847 0.462530
O O6 0.962527 0.631996 0.570053
O O7 0.000000 0.500000 0.500000
O O8 0.835474 0.559867 0.199022
O O9 0.975713 0.429249 0.184871
O O10 0.234323 0.833918 0.052363
O O11 0.121188 0.914145 0.100497
O O12 0.941685 0.888047 0.944131
#
# Coordination Sequence:
#
# PCOD9260629 Si02
#       6
#     8   8   4   8   8   8
#     4  11  21  37  62  87 113 152 194 245 279 335
#     4  11  22  37  59  89 116 151 196 242 284 339
#     4  10  22  32  60  88 114 154 188 242 284 340
#     4   9  18  37  63  79 109 155 196 233 284 346
#     4  10  19  36  61  86 115 149 196 233 290 345
#     4  10  18  38  59  85 109 151 208 233 266 340
#
# _framework density 17.520326000000001
#
# number of rings (size 3 to 8) (size 9 to 14) (size 15 to 20)
#    0.000    1.818    4.545    1.091    2.545    0.000 
#    0.000    0.909    6.000    0.000    0.000    0.000 
#    0.000    0.000    0.000    0.000    0.000    0.000 
#
# Total GULP energy -122676.961782 kJ/mol
# GULP energy per Si atom -5576.225536 kJ/mol
# Density = 1.748045 g / cm^3
# Si number density = 17.520326 Si / 1000 Ang^3
#
#
#
# Elastic Constant Matrix: (Units=GPa)
#
#
# Indices 1 2 3 4 5 6 
#
# 1 108.9769 52.6110 43.0034 0.0000 -5.8613 0.0000
# 2 52.6110 92.6066 13.5787 0.0000 9.3804 0.0000
# 3 43.0034 13.5787 76.2522 0.0000 3.5492 0.0000
# 4 0.0000 0.0000 0.0000 19.0390 0.0000 1.5341
# 5 -5.8613 9.3804 3.5492 0.0000 27.2323 0.0000
# 6 0.0000 0.0000 0.0000 1.5341 0.0000 30.9331
#
#
#
# Elastic Compliance Matrix: (Units=1/GPa)
#
#
# Indices 1 2 3 4 5 6 
#
# 1 0.017662 -0.009602 -0.008634 0.000000 0.008234 0.000000
# 2 -0.009602 0.016667 0.002828 0.000000 -0.008176 0.000000
# 3 -0.008634 0.002828 0.017719 0.000000 -0.005142 0.000000
# 4 0.000000 0.000000 0.000000 0.052735 0.000000 -0.002615
# 5 0.008234 -0.008176 -0.005142 0.000000 0.041980 0.000000
# 6 0.000000 0.000000 0.000000 -0.002615 0.000000 0.032458
#
#
# Mechanical properties :
#
#
# Convention : Reuss Voigt Hill
#
# Bulk Modulus (GPa) = 47.09934 55.13576 51.11755
# Shear Modulus (GPa) = 23.02944 26.68372 24.85658
#
# Velocity S-wave (km/s) = 3.62946 3.90682 3.77069
# Velocity P-wave (km/s) = 6.67120 7.20339 6.94240
#
# Compressibility (1/GPa) = 0.02123172
#
# Stress axis : x y z
#
# Youngs Moduli (GPa) = 56.61966 59.99909 56.43538
#
# Poissons Ratio (x) = 0.57611 0.48726
# Poissons Ratio (y) = 0.54366 -0.15958
# Poissons Ratio (z) = 0.48885 -0.16966
#
# Static dielectric constant tensor:
#      x y z
#    x 1.580070 0.000000 0.001560 
#    y 0.000000 1.614260 0.000000 
#    z 0.001560 0.000000 1.620600 
# 
# From -- ./inp_files/142946.got.cif
#   From: 2010.05.17/outbox.cif.g08.bks.cpg/sg15_72_cif.got.tgz:142946.got - 2010.06.03 18:47:42.
