data_PCOD9260414
_publ_section_title
;
Structure prediction by ZEFSAII (Michael W. Deem and Ramdas Pophale) SiO2 
 PCOD9260414
Probable space group: C 2/C
;
_chemical_formula_sum "Si O2"
_cell_formula_units_Z 52
_cell_length_a 10.477576
_cell_length_b 16.186207
_cell_length_c 19.625864
_cell_angle_alpha 90.000000
_cell_angle_beta 121.477216
_cell_angle_gamma 90.000000
_cell_volume 2838.613506
_symmetry_space_group_name_H-M "C 2/C"
_symmetry_group_IT_number 15
_symmetry_cell_setting 'monoclinic'
loop_
_space_group_symop_operation_xyz
x,y,z
-x,y,1/2-z
-x,-y,-z
x,-y,1/2+z
1/2+x,1/2+y,z
1/2-x,1/2+y,1/2-z
1/2-x,1/2-y,-z
1/2+x,1/2-y,1/2+z
loop_
_atom_site_type_symbol
_atom_site_label
_atom_site_fract_x
_atom_site_fract_y
_atom_site_fract_z
Si Si1 0.509771 0.592202 0.626160
Si Si2 0.500000 0.287067 0.250000
Si Si3 0.034425 0.082412 0.336637
Si Si4 0.401448 0.728206 0.500977
Si Si5 0.814630 0.221966 0.320120
Si Si6 0.159297 0.358320 0.285884
Si Si7 0.230208 0.274916 0.574229
O O1 0.463836 0.652742 0.676166
O O2 0.447952 0.500724 0.615829
O O3 0.454276 0.638753 0.543193
O O4 0.690777 0.588653 0.680560
O O5 0.636675 0.228907 0.267890
O O6 0.176645 0.142392 0.384636
O O7 0.000000 0.056190 0.250000
O O8 0.893124 0.138987 0.317430
O O9 0.250000 0.750000 0.500000
O O10 0.362608 0.732095 0.411139
O O11 0.556306 0.780729 0.549197
O O12 0.861380 0.297833 0.284691
O O13 0.197399 0.297187 0.359311
O O14 0.000000 0.402342 0.250000
O O15 0.250000 0.250000 0.500000
#
# Coordination Sequence:
#
# PCOD9260414 Si02
#       7
#     8   4   8   8   8   8   8
#     4  10  23  36  60  87 122 154 193 250 313 350
#     4  10  20  38  62  86 114 160 198 238 298 364
#     4  12  22  39  61  90 120 156 203 253 302 356
#     4  11  22  38  62  87 120 160 202 248 303 361
#     4  11  20  36  64  86 117 156 208 245 292 364
#     4  10  18  37  61  88 110 158 207 244 291 365
#     4  11  20  37  62  89 115 159 207 246 292 366
#
# _framework density 18.318802999999999
#
# number of rings (size 3 to 8) (size 9 to 14) (size 15 to 20)
#    0.000    1.231    6.923    0.000    0.000    0.615 
#    1.385    0.769    0.000    0.000    0.000    0.000 
#    0.000    0.000    0.000    0.000    0.000    0.000 
#
# Total GULP energy -144942.651388 kJ/mol
# GULP energy per Si atom -5574.717361 kJ/mol
# Density = 1.827711 g / cm^3
# Si number density = 18.318803 Si / 1000 Ang^3
#
#
#
# Elastic Constant Matrix: (Units=GPa)
#
#
# Indices 1 2 3 4 5 6 
#
# 1 109.4709 19.8605 3.5340 0.0000 24.0596 0.0000
# 2 19.8605 70.7355 4.0157 0.0000 16.8322 0.0000
# 3 3.5340 4.0157 40.9959 0.0000 -10.7620 0.0000
# 4 0.0000 0.0000 0.0000 17.2601 0.0000 -1.6437
# 5 24.0596 16.8322 -10.7620 0.0000 31.3184 0.0000
# 6 0.0000 0.0000 0.0000 -1.6437 0.0000 20.1170
#
#
#
# Elastic Compliance Matrix: (Units=1/GPa)
#
#
# Indices 1 2 3 4 5 6 
#
# 1 0.011494 -0.000744 -0.003441 0.000000 -0.009612 0.000000
# 2 -0.000744 0.016965 -0.004222 0.000000 -0.009997 0.000000
# 3 -0.003441 -0.004222 0.029009 0.000000 0.014881 0.000000
# 4 0.000000 0.000000 0.000000 0.058391 0.000000 0.004771
# 5 -0.009612 -0.009997 0.014881 0.000000 0.049801 0.000000
# 6 0.000000 0.000000 0.000000 0.004771 0.000000 0.050099
#
#
# Mechanical properties :
#
#
# Convention : Reuss Voigt Hill
#
# Bulk Modulus (GPa) = 24.59857 30.66918 27.63388
# Shear Modulus (GPa) = 20.31494 26.65857 23.48675
#
# Velocity S-wave (km/s) = 3.33373 3.81892 3.58454
# Velocity P-wave (km/s) = 5.31747 6.01862 5.67888
#
# Compressibility (1/GPa) = 0.04065276
#
# Stress axis : x y z
#
# Youngs Moduli (GPa) = 87.00552 58.94605 34.47167
#
# Poissons Ratio (x) = 0.04388 0.11862
# Poissons Ratio (y) = 0.06477 0.14553
# Poissons Ratio (z) = 0.29940 0.24886
#
# Static dielectric constant tensor:
#      x y z
#    x 1.710930 0.000000 0.003070 
#    y 0.000000 1.582380 0.000000 
#    z 0.003070 0.000000 1.652560 
# 
# From -- ./inp_files/238823.got.cif
#   From: 2010.05.17/outbox.cif.g08.bks.cpg/sg15_120_cif.got.tgz:238823.got - 2010.06.03 18:47:42.
