data_PCOD9260999
_publ_section_title
;
Structure prediction by ZEFSAII (Michael W. Deem and Ramdas Pophale) SiO2 
 PCOD9260999
Probable space group: C 2/C
;
_chemical_formula_sum "Si O2"
_cell_formula_units_Z 52
_cell_length_a 15.667238
_cell_length_b 9.027765
_cell_length_c 25.428137
_cell_angle_alpha 90.000000
_cell_angle_beta 39.489681
_cell_angle_gamma 90.000000
_cell_volume 2287.193207
_symmetry_space_group_name_H-M "C 2/C"
_symmetry_group_IT_number 15
_symmetry_cell_setting 'monoclinic'
loop_
_space_group_symop_operation_xyz
x,y,z
-x,y,1/2-z
-x,-y,-z
x,-y,1/2+z
1/2+x,1/2+y,z
1/2-x,1/2+y,1/2-z
1/2-x,1/2-y,-z
1/2+x,1/2-y,1/2+z
loop_
_atom_site_type_symbol
_atom_site_label
_atom_site_fract_x
_atom_site_fract_y
_atom_site_fract_z
Si Si1 0.566662 0.355451 0.330326
Si Si2 0.500000 0.432086 0.250000
Si Si3 0.428824 0.767600 0.435765
Si Si4 0.896333 0.954331 0.501648
Si Si5 0.307501 0.315673 0.885236
Si Si6 0.701709 0.653052 0.291890
Si Si7 0.340756 0.991492 0.321346
O O1 0.525604 0.331794 0.289356
O O2 0.459906 0.346537 0.428253
O O3 0.618231 0.526179 0.302474
O O4 0.687312 0.249128 0.288758
O O5 0.618771 0.544423 0.175309
O O6 0.382222 0.605317 0.476213
O O7 0.395456 0.764955 0.389875
O O8 0.331336 0.862924 0.519428
O O9 0.588448 0.766507 0.368027
O O10 0.749977 0.919078 0.593100
O O11 0.000000 0.000000 0.500000
O O12 0.296827 0.180831 0.849138
O O13 0.783053 0.558489 0.295657
O O14 0.500000 0.000118 0.250000
#
# Coordination Sequence:
#
# PCOD9260999 Si02
#       7
#     8   4   8   8   8   8   8
#     4  11  26  42  70  94 136 178 216 278 332 401
#     4  12  22  42  60 100 138 174 214 270 346 388
#     4   9  19  37  61  97 127 166 226 279 315 396
#     4  10  18  39  66  96 128 174 222 270 337 388
#     4  10  20  35  65  98 127 167 225 274 329 383
#     4  11  24  44  64  98 131 175 225 268 339 393
#     4  11  23  36  68  99 130 170 228 277 321 400
#
# _framework density 22.735288000000001
#
# number of rings (size 3 to 8) (size 9 to 14) (size 15 to 20)
#    0.000    1.538    6.923    0.000    5.385    0.000 
#    0.000    1.538    0.000    0.000    0.000    0.000 
#    0.000    0.000    0.000    0.000    0.000    0.000 
#
# Total GULP energy -144937.629310 kJ/mol
# GULP energy per Si atom -5574.524204 kJ/mol
# Density = 2.268354 g / cm^3
# Si number density = 22.735288 Si / 1000 Ang^3
#
#
#
# Elastic Constant Matrix: (Units=GPa)
#
#
# Indices 1 2 3 4 5 6 
#
# 1 110.4538 3.5262 47.0250 0.0000 11.1343 0.0000
# 2 3.5262 28.1793 1.2181 0.0000 7.9875 0.0000
# 3 47.0250 1.2181 115.4095 0.0000 -2.0356 0.0000
# 4 0.0000 0.0000 0.0000 16.2698 0.0000 -2.0535
# 5 11.1343 7.9875 -2.0356 0.0000 32.7514 0.0000
# 6 0.0000 0.0000 0.0000 -2.0535 0.0000 26.6125
#
#
#
# Elastic Compliance Matrix: (Units=1/GPa)
#
#
# Indices 1 2 3 4 5 6 
#
# 1 0.011505 -0.000044 -0.004761 0.000000 -0.004196 0.000000
# 2 -0.000044 0.038160 -0.000549 0.000000 -0.009326 0.000000
# 3 -0.004761 -0.000549 0.010653 0.000000 0.002415 0.000000
# 4 0.000000 0.000000 0.000000 0.062068 0.000000 0.004789
# 5 -0.004196 -0.009326 0.002415 0.000000 0.034384 0.000000
# 6 0.000000 0.000000 0.000000 0.004789 0.000000 0.037946
#
#
# Mechanical properties :
#
#
# Convention : Reuss Voigt Hill
#
# Bulk Modulus (GPa) = 20.15799 39.73126 29.94462
# Shear Modulus (GPa) = 22.52634 28.61162 25.56898
#
# Velocity S-wave (km/s) = 3.15113 3.55134 3.35720
# Velocity P-wave (km/s) = 4.70373 5.85914 5.31294
#
# Compressibility (1/GPa) = 0.04960813
#
# Stress axis : x y z
#
# Youngs Moduli (GPa) = 86.91746 26.20566 93.86760
#
# Poissons Ratio (x) = 0.00116 0.44695
# Poissons Ratio (y) = 0.00386 0.05155
# Poissons Ratio (z) = 0.41385 0.01439
#
# Static dielectric constant tensor:
#      x y z
#    x 1.958120 0.000000 0.039160 
#    y 0.000000 1.856990 0.000000 
#    z 0.039160 0.000000 1.966300 
# 
# From -- ./inp_files/273810.got.cif
#   From: 2010.05.17/outbox.cif.g08.bks.cpg/sg15_137_cif.got.tgz:273810.got - 2010.06.03 18:47:42.
