data_PCOD9260810
_publ_section_title
;
Structure prediction by ZEFSAII (Michael W. Deem and Ramdas Pophale) SiO2 
 PCOD9260810
Probable space group: C 2/C
;
_chemical_formula_sum "Si O2"
_cell_formula_units_Z 52
_cell_length_a 21.702651
_cell_length_b 13.565425
_cell_length_c 27.324690
_cell_angle_alpha 90.000000
_cell_angle_beta 17.896031
_cell_angle_gamma 90.000000
_cell_volume 2472.013561
_symmetry_space_group_name_H-M "C 2/C"
_symmetry_group_IT_number 15
_symmetry_cell_setting 'monoclinic'
loop_
_space_group_symop_operation_xyz
x,y,z
-x,y,1/2-z
-x,-y,-z
x,-y,1/2+z
1/2+x,1/2+y,z
1/2-x,1/2+y,1/2-z
1/2-x,1/2-y,-z
1/2+x,1/2-y,1/2+z
loop_
_atom_site_type_symbol
_atom_site_label
_atom_site_fract_x
_atom_site_fract_y
_atom_site_fract_z
Si Si1 0.047898 0.812569 0.156771
Si Si2 0.500000 0.999694 0.250000
Si Si3 0.316105 0.865587 0.803517
Si Si4 0.593999 0.553801 0.881298
Si Si5 0.521950 0.025782 0.581578
Si Si6 0.231089 0.867085 0.517895
Si Si7 0.398999 0.485996 0.731658
O O1 0.000000 0.822059 0.250000
O O2 0.887327 0.745560 0.250836
O O3 0.250000 0.750000 0.000000
O O4 0.035913 0.920699 0.143973
O O5 0.333578 0.924948 0.395510
O O6 0.589106 0.071743 0.223460
O O7 0.417248 0.925920 0.682109
O O8 0.078663 0.864983 0.992942
O O9 0.598047 0.486427 0.829419
O O10 0.822096 0.586417 0.718077
O O11 0.500000 0.500000 0.000000
O O12 0.652541 0.083606 0.523945
O O13 0.675352 0.001965 0.422091
O O14 0.250000 0.750000 0.500000
O O15 0.999286 0.895741 0.685146
#
# Coordination Sequence:
#
# PCOD9260810 Si02
#       7
#     8   4   8   8   8   8   8
#     4  12  22  35  63 101 134 163 202 265 331 400
#     4  10  18  38  64  92 122 168 216 260 310 388
#     4  10  19  39  64  94 128 170 211 249 324 401
#     4  10  22  43  66  88 127 177 217 262 327 396
#     4  10  23  41  63  94 130 166 215 275 331 381
#     4  11  24  40  66  95 126 169 226 275 322 377
#     4  12  23  42  64  95 130 166 213 278 332 380
#
# _framework density 21.035482999999999
#
# number of rings (size 3 to 8) (size 9 to 14) (size 15 to 20)
#    0.000    1.231    2.308    5.538    2.154    0.000 
#    0.000    6.154    0.000    0.000    0.000    0.000 
#    0.000    0.000    0.000    0.000    0.000    0.000 
#
# Total GULP energy -145049.804100 kJ/mol
# GULP energy per Si atom -5578.838619 kJ/mol
# Density = 2.098761 g / cm^3
# Si number density = 21.035483 Si / 1000 Ang^3
#
#
#
# Elastic Constant Matrix: (Units=GPa)
#
#
# Indices 1 2 3 4 5 6 
#
# 1 90.1076 15.1292 49.7419 -0.0026 6.5355 0.0030
# 2 15.1292 96.0428 16.1866 0.0051 7.3145 -0.0202
# 3 49.7419 16.1866 143.2873 -0.0031 0.0359 -0.0445
# 4 -0.0026 0.0051 -0.0031 23.0661 -0.0084 -0.9718
# 5 6.5355 7.3145 0.0359 -0.0084 32.9104 0.0042
# 6 0.0030 -0.0202 -0.0445 -0.9718 0.0042 7.1926
#
#
#
# Elastic Compliance Matrix: (Units=1/GPa)
#
#
# Indices 1 2 3 4 5 6 
#
# 1 0.014115 -0.001229 -0.004761 -0.000001 -0.002525 -0.000037
# 2 -0.001229 0.010907 -0.000805 -0.000002 -0.002179 0.000027
# 3 -0.004761 -0.000805 0.008722 0.000003 0.001115 0.000053
# 4 -0.000001 -0.000002 0.000003 0.043602 0.000011 0.005891
# 5 -0.002525 -0.002179 0.001115 0.000011 0.031370 -0.000015
# 6 -0.000037 0.000027 0.000053 0.005891 -0.000015 0.139829
#
#
# Mechanical properties :
#
#
# Convention : Reuss Voigt Hill
#
# Bulk Modulus (GPa) = 49.61354 54.61700 52.11527
# Shear Modulus (GPa) = 18.59749 29.19248 23.89498
#
# Velocity S-wave (km/s) = 2.97661 3.72932 3.37402
# Velocity P-wave (km/s) = 5.95403 6.67566 6.32514
#
# Compressibility (1/GPa) = 0.02015579
#
# Stress axis : x y z
#
# Youngs Moduli (GPa) = 70.84505 91.68209 114.64849
#
# Poissons Ratio (x) = 0.11267 0.54580
# Poissons Ratio (y) = 0.08706 0.09229
# Poissons Ratio (z) = 0.33727 0.07380
#
# Static dielectric constant tensor:
#      x y z
#    x 1.822810 0.000000 -0.013010 
#    y 0.000000 1.724300 0.000030 
#    z -0.013010 0.000030 1.719980 
# 
# From -- ./inp_files/301133.got.cif
#   From: 2010.05.17/outbox.cif.g08.bks.cpg/sg15_151_cif.got.tgz:301133.got - 2010.06.03 18:47:42.
