data_PCOD9260605
_publ_section_title
;
Structure prediction by ZEFSAII (Michael W. Deem and Ramdas Pophale) SiO2 
 PCOD9260605
Probable space group: C 2/C
;
_chemical_formula_sum "Si O2"
_cell_formula_units_Z 48
_cell_length_a 21.319546
_cell_length_b 13.603674
_cell_length_c 17.233670
_cell_angle_alpha 90.000000
_cell_angle_beta 149.326836
_cell_angle_gamma 90.000000
_cell_volume 2549.772465
_symmetry_space_group_name_H-M "C 2/C"
_symmetry_group_IT_number 15
_symmetry_cell_setting 'monoclinic'
loop_
_space_group_symop_operation_xyz
x,y,z
-x,y,1/2-z
-x,-y,-z
x,-y,1/2+z
1/2+x,1/2+y,z
1/2-x,1/2+y,1/2-z
1/2-x,1/2-y,-z
1/2+x,1/2-y,1/2+z
loop_
_atom_site_type_symbol
_atom_site_label
_atom_site_fract_x
_atom_site_fract_y
_atom_site_fract_z
Si Si1 0.943818 0.001611 0.317561
Si Si2 0.903804 0.639743 0.447193
Si Si3 0.331362 0.962499 0.264844
Si Si4 0.903289 0.862283 0.409545
Si Si5 0.161759 0.958862 0.954394
Si Si6 0.129312 0.735316 0.925824
O O1 0.849253 0.031390 0.149275
O O2 0.985420 0.085690 0.423478
O O3 0.065903 0.973290 0.398710
O O4 0.901494 0.911174 0.323598
O O5 0.831410 0.561454 0.316908
O O6 0.916922 0.746053 0.421978
O O7 0.851791 0.669586 0.477250
O O8 0.037756 0.590238 0.596460
O O9 0.225899 0.893273 0.188789
O O10 0.291132 0.976385 0.132534
O O11 0.109942 0.850835 0.922550
O O12 0.000000 0.702017 0.750000
O O13 0.250000 0.750000 0.000000
#
# Coordination Sequence:
#
# PCOD9260605 Si02
#       6
#     8   8   8   8   8   8
#     4   9  18  33  60  88 117 144 204 252 303 358
#     4  11  23  41  57  87 127 159 206 245 316 380
#     4  10  23  38  59  84 127 164 200 256 306 376
#     4  10  20  37  61  87 112 166 200 253 304 364
#     4  10  18  38  56  89 121 149 201 260 301 356
#     4  12  23  36  62  94 124 158 197 260 325 375
#
# _framework density 18.825208
#
# number of rings (size 3 to 8) (size 9 to 14) (size 15 to 20)
#    0.000    1.667    5.000    1.000    2.333    4.000 
#    0.000    0.833    0.000    0.000    0.000    0.000 
#    0.000    0.000    0.000    0.000    0.000    0.000 
#
# Total GULP energy -133645.938038 kJ/mol
# GULP energy per Si atom -5568.580752 kJ/mol
# Density = 1.878236 g / cm^3
# Si number density = 18.825208 Si / 1000 Ang^3
#
#
#
# Elastic Constant Matrix: (Units=GPa)
#
#
# Indices 1 2 3 4 5 6 
#
# 1 91.1018 40.9414 29.8663 0.0000 -10.7009 0.0000
# 2 40.9414 101.4355 43.1395 0.0000 -20.3204 0.0000
# 3 29.8663 43.1395 108.6496 0.0000 -24.9048 0.0000
# 4 0.0000 0.0000 0.0000 17.9378 0.0000 -0.1047
# 5 -10.7009 -20.3204 -24.9048 0.0000 35.5885 0.0000
# 6 0.0000 0.0000 0.0000 -0.1047 0.0000 24.9769
#
#
#
# Elastic Compliance Matrix: (Units=1/GPa)
#
#
# Indices 1 2 3 4 5 6 
#
# 1 0.013726 -0.004720 -0.001871 0.000000 0.000123 0.000000
# 2 -0.004720 0.014020 -0.003287 0.000000 0.004286 0.000000
# 3 -0.001871 -0.003287 0.012463 0.000000 0.006283 0.000000
# 4 0.000000 0.000000 0.000000 0.055749 0.000000 0.000234
# 5 0.000123 0.004286 0.006283 0.000000 0.034980 0.000000
# 6 0.000000 0.000000 0.000000 0.000234 0.000000 0.040038
#
#
# Mechanical properties :
#
#
# Convention : Reuss Voigt Hill
#
# Bulk Modulus (GPa) = 48.88995 58.78683 53.83839
# Shear Modulus (GPa) = 25.31028 28.18330 26.74679
#
# Velocity S-wave (km/s) = 3.67070 3.87344 3.77343
# Velocity P-wave (km/s) = 6.63267 7.16242 6.90263
#
# Compressibility (1/GPa) = 0.02045410
#
# Stress axis : x y z
#
# Youngs Moduli (GPa) = 72.85706 71.32749 80.23556
#
# Poissons Ratio (x) = 0.33664 0.15011
# Poissons Ratio (y) = 0.34386 0.26372
# Poissons Ratio (z) = 0.13630 0.23444
#
# Static dielectric constant tensor:
#      x y z
#    x 1.732310 0.000000 0.020030 
#    y 0.000000 1.684160 0.000000 
#    z 0.020030 0.000000 1.772580 
# 
# From -- ./inp_files/215489.got.cif
#   From: 2010.05.17/outbox.cif.g08.bks.cpg/sg15_108_cif.got.tgz:215489.got - 2010.06.03 18:47:42.
