data_PCOD9260238
_publ_section_title
;
Structure prediction by ZEFSAII (Michael W. Deem and Ramdas Pophale) SiO2 
 PCOD9260238
Probable space group: C 2/C
;
_chemical_formula_sum "Si O2"
_cell_formula_units_Z 44
_cell_length_a 15.457786
_cell_length_b 11.858328
_cell_length_c 26.295735
_cell_angle_alpha 90.000000
_cell_angle_beta 154.167965
_cell_angle_gamma 90.000000
_cell_volume 2100.283524
_symmetry_space_group_name_H-M "C 2/C"
_symmetry_group_IT_number 15
_symmetry_cell_setting 'monoclinic'
loop_
_space_group_symop_operation_xyz
x,y,z
-x,y,1/2-z
-x,-y,-z
x,-y,1/2+z
1/2+x,1/2+y,z
1/2-x,1/2+y,1/2-z
1/2-x,1/2-y,-z
1/2+x,1/2-y,1/2+z
loop_
_atom_site_type_symbol
_atom_site_label
_atom_site_fract_x
_atom_site_fract_y
_atom_site_fract_z
Si Si1 0.415400 0.232493 0.630904
Si Si2 0.835497 0.381358 0.935347
Si Si3 0.906400 0.850549 0.091684
Si Si4 0.341916 0.191101 0.332870
Si Si5 0.052868 0.485997 0.401540
Si Si6 0.500000 0.431334 0.250000
O O1 0.250000 0.250000 0.500000
O O2 0.304178 0.277612 0.621450
O O3 0.608283 0.305400 0.719354
O O4 0.477686 0.102561 0.659534
O O5 0.941161 0.342267 0.939652
O O6 0.690686 0.486435 0.847033
O O7 0.958129 0.419521 0.049951
O O8 0.980608 0.859391 0.188633
O O9 0.083497 0.811225 0.148713
O O10 0.750000 0.750000 0.000000
O O11 0.776292 0.963107 0.014417
O O12 0.405529 0.091600 0.328281
#
# Coordination Sequence:
#
# PCOD9260238 Si02
#       6
#     8   8   8   8   8   4
#     4  10  21  35  54  87 125 150 194 245 301 355
#     4  10  19  36  59  89 113 153 203 248 292 359
#     4   9  21  39  59  91 122 152 200 254 299 357
#     4  11  20  36  61  87 115 152 205 244 297 356
#     4   9  21  37  60  86 119 155 197 253 304 349
#     4  10  18  36  66  80 122 158 198 244 302 348
#
# _framework density 20.949552000000001
#
# number of rings (size 3 to 8) (size 9 to 14) (size 15 to 20)
#    0.000    2.182    1.818    0.545    2.545    0.000 
#    6.545    0.909   16.000    0.000    0.000    0.000 
#    0.000    0.000    0.000    0.000    0.000    0.000 
#
# Total GULP energy -122723.195262 kJ/mol
# GULP energy per Si atom -5578.327057 kJ/mol
# Density = 2.090187 g / cm^3
# Si number density = 20.949552 Si / 1000 Ang^3
#
#
#
# Elastic Constant Matrix: (Units=GPa)
#
#
# Indices 1 2 3 4 5 6 
#
# 1 97.8518 50.7042 9.0172 -0.0001 1.9368 0.0000
# 2 50.7042 96.2853 7.9198 0.0002 -2.7313 0.0000
# 3 9.0172 7.9198 40.0841 0.0011 -2.4095 -0.0002
# 4 -0.0001 0.0002 0.0011 26.1571 0.0000 -5.5700
# 5 1.9368 -2.7313 -2.4095 0.0000 27.9736 -0.0001
# 6 0.0000 0.0000 -0.0002 -5.5700 -0.0001 42.2488
#
#
#
# Elastic Compliance Matrix: (Units=1/GPa)
#
#
# Indices 1 2 3 4 5 6 
#
# 1 0.014270 -0.007415 -0.001858 0.000000 -0.001872 0.000000
# 2 -0.007415 0.014431 -0.001073 0.000000 0.001830 0.000000
# 3 -0.001858 -0.001073 0.025712 -0.000001 0.002239 0.000000
# 4 0.000000 0.000000 -0.000001 0.039335 0.000000 0.005186
# 5 -0.001872 0.001830 0.002239 0.000000 0.036249 0.000000
# 6 0.000000 0.000000 0.000000 0.005186 0.000000 0.024353
#
#
# Mechanical properties :
#
#
# Convention : Reuss Voigt Hill
#
# Bulk Modulus (GPa) = 29.65487 41.05598 35.35542
# Shear Modulus (GPa) = 26.84107 30.38122 28.61114
#
# Velocity S-wave (km/s) = 3.58330 3.81229 3.69957
# Velocity P-wave (km/s) = 5.59519 6.24645 5.92977
#
# Compressibility (1/GPa) = 0.03372128
#
# Stress axis : x y z
#
# Youngs Moduli (GPa) = 70.07704 69.29657 38.89225
#
# Poissons Ratio (x) = 0.51383 0.07225
# Poissons Ratio (y) = 0.51962 0.04174
# Poissons Ratio (z) = 0.13018 0.07437
#
# Static dielectric constant tensor:
#      x y z
#    x 1.805790 0.000000 0.045320 
#    y 0.000000 1.807820 0.000000 
#    z 0.045320 0.000000 1.826090 
# 
# From -- ./inp_files/151754.got.cif
#   From: 2010.05.17/outbox.cif.g08.bks.cpg/sg15_76_cif.got.tgz:151754.got - 2010.06.03 18:47:42.
