data_PCOD9260908
_publ_section_title
;
Structure prediction by ZEFSAII (Michael W. Deem and Ramdas Pophale) SiO2 
 PCOD9260908
Probable space group: C 2/C
;
_chemical_formula_sum "Si O2"
_cell_formula_units_Z 28
_cell_length_a 13.700087
_cell_length_b 8.170551
_cell_length_c 15.944541
_cell_angle_alpha 90.000000
_cell_angle_beta 33.375444
_cell_angle_gamma 90.000000
_cell_volume 981.852852
_symmetry_space_group_name_H-M "C 2/C"
_symmetry_group_IT_number 15
_symmetry_cell_setting 'monoclinic'
loop_
_space_group_symop_operation_xyz
x,y,z
-x,y,1/2-z
-x,-y,-z
x,-y,1/2+z
1/2+x,1/2+y,z
1/2-x,1/2+y,1/2-z
1/2-x,1/2-y,-z
1/2+x,1/2-y,1/2+z
loop_
_atom_site_type_symbol
_atom_site_label
_atom_site_fract_x
_atom_site_fract_y
_atom_site_fract_z
Si Si1 0.367978 0.846004 0.086095
Si Si2 0.448219 0.539575 0.139994
Si Si3 0.664479 0.059092 0.077032
Si Si4 0.500000 0.747461 0.250000
O O1 0.432745 0.674359 0.078317
O O2 0.322230 0.845817 0.019674
O O3 0.192821 0.894361 0.264187
O O4 0.500000 0.000000 0.000000
O O5 0.389599 0.632079 0.268399
O O6 0.647724 0.482826 0.015495
O O7 0.500000 0.131605 0.250000
O O8 0.591000 0.872571 0.120169
#
# Coordination Sequence:
#
# PCOD9260908 Si02
#       4
#     8   8   8   4
#     4  12  24  43  75 116 149 198 263 309 379 468
#     4  12  23  44  78 111 149 202 253 315 385 454
#     4  10  22  42  76 107 149 201 247 313 389 449
#     4  10  18  38  70 104 138 194 240 294 382 436
#
# _framework density 28.517513000000001
#
# number of rings (size 3 to 8) (size 9 to 14) (size 15 to 20)
#    0.857    0.000    5.714    2.571    0.000    0.000 
#    0.000   15.714    6.286   13.714    0.000    2.000 
#    0.000    0.000    0.000    0.000    0.000    0.000 
#
# Total GULP energy -78483.809901 kJ/mol
# GULP energy per Si atom -5605.986421 kJ/mol
# Density = 2.845261 g / cm^3
# Si number density = 28.517513 Si / 1000 Ang^3
#
#
#
# Elastic Constant Matrix: (Units=GPa)
#
#
# Indices 1 2 3 4 5 6 
#
# 1 227.2106 83.2465 94.8184 0.0000 10.2123 0.0000
# 2 83.2465 159.1241 75.9626 0.0000 -12.2106 0.0000
# 3 94.8184 75.9626 233.4127 0.0000 -11.2283 0.0000
# 4 0.0000 0.0000 0.0000 46.1498 0.0000 -1.2141
# 5 10.2123 -12.2106 -11.2283 0.0000 62.2953 0.0000
# 6 0.0000 0.0000 0.0000 -1.2141 0.0000 63.3905
#
#
#
# Elastic Compliance Matrix: (Units=1/GPa)
#
#
# Indices 1 2 3 4 5 6 
#
# 1 0.006138 -0.002508 -0.001765 0.000000 -0.001816 0.000000
# 2 -0.002508 0.008531 -0.001672 0.000000 0.001782 0.000000
# 3 -0.001765 -0.001672 0.005592 0.000000 0.000969 0.000000
# 4 0.000000 0.000000 0.000000 0.021680 0.000000 0.000415
# 5 -0.001816 0.001782 0.000969 0.000000 0.016874 0.000000
# 6 0.000000 0.000000 0.000000 0.000415 0.000000 0.015783
#
#
# Mechanical properties :
#
#
# Convention : Reuss Voigt Hill
#
# Bulk Modulus (GPa) = 119.44371 125.31138 122.37755
# Shear Modulus (GPa) = 56.00457 58.74843 57.37650
#
# Velocity S-wave (km/s) = 4.43636 4.54374 4.49037
# Velocity P-wave (km/s) = 8.25936 8.45959 8.36007
#
# Compressibility (1/GPa) = 0.00837214
#
# Stress axis : x y z
#
# Youngs Moduli (GPa) = 162.91515 117.21340 178.83297
#
# Poissons Ratio (x) = 0.29399 0.31556
# Poissons Ratio (y) = 0.40862 0.29899
# Poissons Ratio (z) = 0.28747 0.19597
#
# Static dielectric constant tensor:
#      x y z
#    x 2.277340 0.000000 0.063700 
#    y 0.000000 2.250370 0.000000 
#    z 0.063700 0.000000 2.197720 
# 
# From -- ./inp_files/242189.got.cif
#   From: 2010.05.17/outbox.cif.g08.bks.cpg/sg15_122_cif.got.tgz:242189.got - 2010.06.03 18:47:42.
