data_PCOD9260702
_publ_section_title
;
Structure prediction by ZEFSAII (Michael W. Deem and Ramdas Pophale) SiO2 
 PCOD9260702
Probable space group: C 2/C
;
_chemical_formula_sum "Si O2"
_cell_formula_units_Z 60
_cell_length_a 10.599859
_cell_length_b 10.725196
_cell_length_c 21.991531
_cell_angle_alpha 90.000000
_cell_angle_beta 75.745315
_cell_angle_gamma 90.000000
_cell_volume 2423.142898
_symmetry_space_group_name_H-M "C 2/C"
_symmetry_group_IT_number 15
_symmetry_cell_setting 'monoclinic'
loop_
_space_group_symop_operation_xyz
x,y,z
-x,y,1/2-z
-x,-y,-z
x,-y,1/2+z
1/2+x,1/2+y,z
1/2-x,1/2+y,1/2-z
1/2-x,1/2-y,-z
1/2+x,1/2-y,1/2+z
loop_
_atom_site_type_symbol
_atom_site_label
_atom_site_fract_x
_atom_site_fract_y
_atom_site_fract_z
Si Si1 0.356766 0.037547 0.612338
Si Si2 0.749349 0.193990 0.582750
Si Si3 0.975494 0.275898 0.470013
Si Si4 0.404573 0.778334 0.670861
Si Si5 0.274581 0.275879 0.699972
Si Si6 0.844750 0.064416 0.077693
Si Si7 0.075535 0.056780 0.623393
Si Si8 0.500000 0.599343 0.250000
O O1 0.461397 0.093793 0.554222
O O2 0.318019 0.144684 0.666057
O O3 0.223181 0.026653 0.590599
O O4 0.402398 0.916487 0.643337
O O5 0.866264 0.264989 0.534041
O O6 0.611145 0.250779 0.580692
O O7 0.788502 0.205864 0.647976
O O8 0.759137 0.048561 0.562358
O O9 0.093223 0.178887 0.467151
O O10 0.357554 0.775059 0.745764
O O11 0.533780 0.700189 0.639665
O O12 0.275490 0.373552 0.644096
O O13 0.385735 0.321381 0.733354
O O14 0.974839 0.995454 0.086443
O O15 0.052422 0.987160 0.689883
#
# Coordination Sequence:
#
# PCOD9260702 Si02
#       8
#     8   8   8   8   8   8   8   4
#     4  11  23  38  56  89 128 155 201 258 312 374
#     4  10  22  40  64  86 117 160 216 253 313 370
#     4  10  22  40  61  89 119 159 206 270 305 364
#     4  11  23  38  62  89 122 166 202 252 314 380
#     4  10  22  35  61  90 119 161 204 250 310 372
#     4   9  20  39  63  87 115 164 210 256 307 376
#     4  10  20  37  59  85 120 160 204 247 310 374
#     4  10  18  38  62  80 118 164 202 246 300 374
#
# _framework density 24.761230000000001
#
# number of rings (size 3 to 8) (size 9 to 14) (size 15 to 20)
#    0.000    1.867    1.333    2.000    7.467    2.667 
#    0.000    4.667    0.000    0.000    0.000    0.000 
#    0.000    0.000    0.000    0.000    0.000    0.000 
#
# Total GULP energy -167899.910465 kJ/mol
# GULP energy per Si atom -5596.663682 kJ/mol
# Density = 2.470487 g / cm^3
# Si number density = 24.761230 Si / 1000 Ang^3
#
#
#
# Elastic Constant Matrix: (Units=GPa)
#
#
# Indices 1 2 3 4 5 6 
#
# 1 72.8944 22.5292 7.9575 0.0000 -10.4539 0.0000
# 2 22.5292 154.7869 28.0404 0.0000 -10.6183 0.0000
# 3 7.9575 28.0404 72.0032 0.0000 -18.2733 0.0000
# 4 0.0000 0.0000 0.0000 35.0331 0.0000 4.5746
# 5 -10.4539 -10.6183 -18.2733 0.0000 31.5427 0.0000
# 6 0.0000 0.0000 0.0000 4.5746 0.0000 37.5945
#
#
#
# Elastic Compliance Matrix: (Units=1/GPa)
#
#
# Indices 1 2 3 4 5 6 
#
# 1 0.014919 -0.001907 0.000218 0.000000 0.004429 0.000000
# 2 -0.001907 0.007217 -0.002513 0.000000 0.000341 0.000000
# 3 0.000218 -0.002513 0.017171 0.000000 0.009174 0.000000
# 4 0.000000 0.000000 0.000000 0.029005 0.000000 -0.003529
# 5 0.004429 0.000341 0.009174 0.000000 0.038600 0.000000
# 6 0.000000 0.000000 0.000000 -0.003529 0.000000 0.027029
#
#
# Mechanical properties :
#
#
# Convention : Reuss Voigt Hill
#
# Bulk Modulus (GPa) = 32.35996 46.30429 39.33212
# Shear Modulus (GPa) = 32.75528 36.91122 34.83325
#
# Velocity S-wave (km/s) = 3.64104 3.86513 3.75476
# Velocity P-wave (km/s) = 5.54738 6.21771 5.89208
#
# Compressibility (1/GPa) = 0.03090239
#
# Stress axis : x y z
#
# Youngs Moduli (GPa) = 67.02744 138.56654 58.23775
#
# Poissons Ratio (x) = 0.26427 -0.01269
# Poissons Ratio (y) = 0.12783 0.14635
# Poissons Ratio (z) = -0.01460 0.34822
#
# Static dielectric constant tensor:
#      x y z
#    x 1.977400 0.000000 0.025800 
#    y 0.000000 1.993120 0.000000 
#    z 0.025800 0.000000 1.977240 
# 
# From -- ./inp_files/291999.got.cif
#   From: 2010.05.17/outbox.cif.g08.bks.cpg/sg15_146_cif.got.tgz:291999.got - 2010.06.03 18:47:42.
