data_PCOD9260356
_publ_section_title
;
Structure prediction by ZEFSAII (Michael W. Deem and Ramdas Pophale) SiO2 
 PCOD9260356
Probable space group: C 2/C
;
_chemical_formula_sum "Si O2"
_cell_formula_units_Z 56
_cell_length_a 22.145535
_cell_length_b 8.177991
_cell_length_c 29.176812
_cell_angle_alpha 90.000000
_cell_angle_beta 29.767088
_cell_angle_gamma 90.000000
_cell_volume 2623.423408
_symmetry_space_group_name_H-M "C 2/C"
_symmetry_group_IT_number 15
_symmetry_cell_setting 'monoclinic'
loop_
_space_group_symop_operation_xyz
x,y,z
-x,y,1/2-z
-x,-y,-z
x,-y,1/2+z
1/2+x,1/2+y,z
1/2-x,1/2+y,1/2-z
1/2-x,1/2-y,-z
1/2+x,1/2-y,1/2+z
loop_
_atom_site_type_symbol
_atom_site_label
_atom_site_fract_x
_atom_site_fract_y
_atom_site_fract_z
Si Si1 0.468724 0.730062 0.536717
Si Si2 0.735468 0.840590 0.136385
Si Si3 0.045348 0.926241 0.766110
Si Si4 0.956263 0.504469 0.170043
Si Si5 0.871520 0.415030 0.133035
Si Si6 0.913831 0.875517 0.169899
Si Si7 0.344540 0.146640 0.909076
O O1 0.370364 0.656808 0.566751
O O2 0.590860 0.779498 0.429189
O O3 0.473418 0.623331 0.580006
O O4 0.410201 0.906265 0.589412
O O5 0.679614 0.654374 0.172776
O O6 0.648401 0.940259 0.227561
O O7 0.716405 0.906995 0.097919
O O8 0.037200 0.016330 0.820150
O O9 0.000000 0.020709 0.750000
O O10 0.953983 0.772767 0.826838
O O11 0.947928 0.394439 0.129605
O O12 0.927913 0.688798 0.176058
O O13 0.088206 0.491136 0.106083
O O14 0.730035 0.413095 0.239082
O O15 0.250000 0.250000 0.000000
#
# Coordination Sequence:
#
# PCOD9260356 Si02
#       7
#     8   8   8   8   8   8   8
#     4  10  20  35  62  87 113 156 197 229 285 356
#     4  10  18  37  59  80 110 155 196 231 283 351
#     4   9  20  37  61  80 108 158 196 229 291 351
#     4  10  21  35  58  84 117 152 192 240 295 333
#     4  10  20  36  58  87 118 154 191 234 289 352
#     4  11  21  38  60  87 122 148 188 251 292 337
#     4  10  21  38  59  82 112 155 200 238 279 352
#
# _framework density 21.346153000000001
#
# number of rings (size 3 to 8) (size 9 to 14) (size 15 to 20)
#    0.000    2.000    2.857    2.143    0.000    1.143 
#    2.571    1.429    0.000    0.000    0.000    0.000 
#    0.000    0.000    0.000    0.000    0.000    0.000 
#
# Total GULP energy -156292.011259 kJ/mol
# GULP energy per Si atom -5581.857545 kJ/mol
# Density = 2.129757 g / cm^3
# Si number density = 21.346153 Si / 1000 Ang^3
#
#
#
# Elastic Constant Matrix: (Units=GPa)
#
#
# Indices 1 2 3 4 5 6 
#
# 1 158.6866 24.0409 8.3111 -0.0095 15.3524 -0.0185
# 2 24.0409 36.1269 4.8911 -0.0131 6.3201 -0.0316
# 3 8.3111 4.8911 46.4460 -0.0074 15.8030 -0.0066
# 4 -0.0095 -0.0131 -0.0074 23.9049 0.0014 19.5623
# 5 15.3524 6.3201 15.8030 0.0014 20.5803 0.0010
# 6 -0.0185 -0.0316 -0.0066 19.5623 0.0010 88.0635
#
#
#
# Elastic Compliance Matrix: (Units=1/GPa)
#
#
# Indices 1 2 3 4 5 6 
#
# 1 0.007356 -0.004159 0.000750 0.000001 -0.004786 0.000000
# 2 -0.004159 0.031604 -0.000457 0.000009 -0.006252 0.000009
# 3 0.000750 -0.000457 0.029221 0.000010 -0.022858 0.000000
# 4 0.000001 0.000009 0.000010 0.051126 -0.000014 -0.011357
# 5 -0.004786 -0.006252 -0.022858 -0.000014 0.071632 -0.000003
# 6 0.000000 0.000009 0.000000 -0.011357 -0.000003 0.013878
#
#
# Mechanical properties :
#
#
# Convention : Reuss Voigt Hill
#
# Bulk Modulus (GPa) = 16.54281 35.08286 25.81283
# Shear Modulus (GPa) = 21.48712 40.11086 30.79899
#
# Velocity S-wave (km/s) = 3.17614 4.33952 3.80259
# Velocity P-wave (km/s) = 4.60621 6.44822 5.60342
#
# Compressibility (1/GPa) = 0.06044922
#
# Stress axis : x y z
#
# Youngs Moduli (GPa) = 135.95168 31.64205 34.22151
#
# Poissons Ratio (x) = 0.13160 -0.02567
# Poissons Ratio (y) = 0.56544 0.01563
# Poissons Ratio (z) = -0.10198 0.01445
#
# Static dielectric constant tensor:
#      x y z
#    x 1.852160 0.000000 0.030930 
#    y 0.000000 1.785870 0.000000 
#    z 0.030930 0.000000 1.812540 
# 
# From -- ./inp_files/317482.got.cif
#   From: 2010.05.17/outbox.cif.g08.bks.cpg/sg15_159_cif.got.tgz:317482.got - 2010.06.03 18:47:42.
