data_PCOD9260480
_publ_section_title
;
Structure prediction by ZEFSAII (Michael W. Deem and Ramdas Pophale) SiO2 
 PCOD9260480
Probable space group: C 2/C
;
_chemical_formula_sum "Si O2"
_cell_formula_units_Z 60
_cell_length_a 30.769436
_cell_length_b 18.726927
_cell_length_c 17.421370
_cell_angle_alpha 90.000000
_cell_angle_beta 161.536884
_cell_angle_gamma 90.000000
_cell_volume 3179.130415
_symmetry_space_group_name_H-M "C 2/C"
_symmetry_group_IT_number 15
_symmetry_cell_setting 'monoclinic'
loop_
_space_group_symop_operation_xyz
x,y,z
-x,y,1/2-z
-x,-y,-z
x,-y,1/2+z
1/2+x,1/2+y,z
1/2-x,1/2+y,1/2-z
1/2-x,1/2-y,-z
1/2+x,1/2-y,1/2+z
loop_
_atom_site_type_symbol
_atom_site_label
_atom_site_fract_x
_atom_site_fract_y
_atom_site_fract_z
Si Si1 0.500000 0.991678 0.250000
Si Si2 0.039228 0.918418 0.549354
Si Si3 0.393252 0.383715 0.004174
Si Si4 0.241733 0.467407 0.257870
Si Si5 0.463513 0.645914 0.073644
Si Si6 0.646035 0.877596 0.396546
Si Si7 0.706890 0.763125 0.624413
Si Si8 0.214541 0.362320 0.341533
O O1 0.545638 0.938762 0.257957
O O2 0.627731 0.034418 0.499547
O O3 0.022466 0.899971 0.432596
O O4 0.201183 0.909002 0.836118
O O5 0.965451 0.865323 0.485324
O O6 0.000000 0.000000 0.500000
O O7 0.500000 0.371468 0.250000
O O8 0.298173 0.452730 0.860639
O O9 0.294599 0.317322 0.822037
O O10 0.371723 0.418675 0.452483
O O11 0.186186 0.432473 0.243394
O O12 0.621464 0.639317 0.364836
O O13 0.395516 0.716718 0.994842
O O14 0.640403 0.810705 0.445019
O O15 0.635353 0.858252 0.289305
O O16 0.804620 0.706470 0.744380
#
# Coordination Sequence:
#
# PCOD9260480 Si02
#       8
#     4   8   8   8   8   8   8   8
#     4  12  22  38  58  80 132 160 184 244 320 366
#     4  10  18  37  63  92 116 150 208 257 296 347
#     4  11  22  38  60  89 123 157 199 255 300 354
#     4  11  21  37  59  90 117 160 200 249 308 354
#     4  10  20  37  66  92 113 152 211 257 294 355
#     4  10  22  36  58  90 118 157 197 252 305 354
#     4  10  20  38  56  91 120 155 191 246 317 349
#     4  10  22  38  64  89 114 152 216 251 290 358
#
# _framework density 18.873086000000001
#
# number of rings (size 3 to 8) (size 9 to 14) (size 15 to 20)
#    0.000    1.600    4.000    2.800    3.733    0.533 
#    4.800    0.667    0.000    0.000    0.000    0.000 
#    0.000    0.000    0.000    0.000    0.000    0.000 
#
# Total GULP energy -167484.615745 kJ/mol
# GULP energy per Si atom -5582.820525 kJ/mol
# Density = 1.883013 g / cm^3
# Si number density = 18.873086 Si / 1000 Ang^3
#
#
#
# Elastic Constant Matrix: (Units=GPa)
#
#
# Indices 1 2 3 4 5 6 
#
# 1 118.7890 52.3961 22.5685 0.0000 -8.5628 0.0000
# 2 52.3961 118.6957 42.4425 0.0000 -9.0966 0.0000
# 3 22.5685 42.4425 52.4625 0.0000 -8.8053 0.0000
# 4 0.0000 0.0000 0.0000 24.2485 0.0000 -1.9108
# 5 -8.5628 -9.0966 -8.8053 0.0000 31.3811 0.0000
# 6 0.0000 0.0000 0.0000 -1.9108 0.0000 25.3399
#
#
#
# Elastic Compliance Matrix: (Units=1/GPa)
#
#
# Indices 1 2 3 4 5 6 
#
# 1 0.010556 -0.004239 -0.000876 0.000000 0.001406 0.000000
# 2 -0.004239 0.013574 -0.009122 0.000000 0.000219 0.000000
# 3 -0.000876 -0.009122 0.027635 0.000000 0.004871 0.000000
# 4 0.000000 0.000000 0.000000 0.041486 0.000000 0.003128
# 5 0.001406 0.000219 0.004871 0.000000 0.033680 0.000000
# 6 0.000000 0.000000 0.000000 0.003128 0.000000 0.039699
#
#
# Mechanical properties :
#
#
# Convention : Reuss Voigt Hill
#
# Bulk Modulus (GPa) = 42.93162 58.30682 50.61922
# Shear Modulus (GPa) = 24.64663 27.69656 26.17160
#
# Velocity S-wave (km/s) = 3.61766 3.83497 3.72790
# Velocity P-wave (km/s) = 6.34405 7.11130 6.73860
#
# Compressibility (1/GPa) = 0.02329285
#
# Stress axis : x y z
#
# Youngs Moduli (GPa) = 94.73606 73.66772 36.18590
#
# Poissons Ratio (x) = 0.31226 0.03169
# Poissons Ratio (y) = 0.40156 0.33008
# Poissons Ratio (z) = 0.08297 0.67197
#
# Static dielectric constant tensor:
#      x y z
#    x 1.706200 0.000000 0.011840 
#    y 0.000000 1.663850 0.000000 
#    z 0.011840 0.000000 1.639950 
# 
# From -- ./inp_files/225806.got.cif
#   From: 2010.05.17/outbox.cif.g08.bks.cpg/sg15_113_cif.got.tgz:225806.got - 2010.06.03 18:47:42.
