data_PCOD9260068
_publ_section_title
;
Structure prediction by ZEFSAII (Michael W. Deem and Ramdas Pophale) SiO2 
 PCOD9260068
Probable space group: C 2/C
;
_chemical_formula_sum "Si O2"
_cell_formula_units_Z 44
_cell_length_a 10.635834
_cell_length_b 21.227609
_cell_length_c 17.154087
_cell_angle_alpha 90.000000
_cell_angle_beta 150.505085
_cell_angle_gamma 90.000000
_cell_volume 1906.825404
_symmetry_space_group_name_H-M "C 2/C"
_symmetry_group_IT_number 15
_symmetry_cell_setting 'monoclinic'
loop_
_space_group_symop_operation_xyz
x,y,z
-x,y,1/2-z
-x,-y,-z
x,-y,1/2+z
1/2+x,1/2+y,z
1/2-x,1/2+y,1/2-z
1/2-x,1/2-y,-z
1/2+x,1/2-y,1/2+z
loop_
_atom_site_type_symbol
_atom_site_label
_atom_site_fract_x
_atom_site_fract_y
_atom_site_fract_z
Si Si1 0.961234 0.440017 0.566729
Si Si2 0.704719 0.586757 0.587126
Si Si3 0.721766 0.173954 0.131571
Si Si4 0.059626 0.210088 0.087678
Si Si5 0.500000 0.862490 0.750000
Si Si6 0.058960 0.020711 0.658694
O O1 0.047435 0.386137 0.553923
O O2 0.995544 0.407655 0.671618
O O3 0.162557 0.496757 0.666062
O O4 0.668035 0.460214 0.406451
O O5 0.658303 0.656485 0.530590
O O6 0.597232 0.575561 0.615664
O O7 0.557404 0.539019 0.451219
O O8 0.000000 0.570025 0.750000
O O9 0.786723 0.207647 0.248776
O O10 0.000000 0.154925 0.250000
O O11 0.570450 0.223641 0.997937
O O12 0.258334 0.183890 0.130310
#
# Coordination Sequence:
#
# PCOD9260068 Si02
#       6
#     8   8   8   8   4   8
#     4  11  21  38  65  97 138 172 222 285 338 387
#     4  11  19  31  61  98 131 161 223 280 324 388
#     4  11  25  45  67  93 137 179 226 275 336 401
#     4  11  23  41  68  98 132 175 225 273 340 399
#     4  10  18  36  62 104 130 168 218 284 338 378
#     4  11  19  34  60  99 132 171 217 279 336 395
#
# _framework density 23.075002000000001
#
# number of rings (size 3 to 8) (size 9 to 14) (size 15 to 20)
#    0.000    1.091    7.273    2.182    0.000    2.909 
#    0.000    0.909    0.000    0.000    0.000    0.000 
#    0.000    0.000    0.000    0.000    0.000    0.000 
#
# Total GULP energy -123157.931074 kJ/mol
# GULP energy per Si atom -5598.087776 kJ/mol
# Density = 2.302248 g / cm^3
# Si number density = 23.075002 Si / 1000 Ang^3
#
#
#
# Elastic Constant Matrix: (Units=GPa)
#
#
# Indices 1 2 3 4 5 6 
#
# 1 102.7855 36.9323 45.6500 -0.0112 39.9262 0.0021
# 2 36.9323 61.6905 20.2329 -0.0495 4.3717 -0.0034
# 3 45.6500 20.2329 118.1217 -0.1322 28.4681 -0.0171
# 4 -0.0112 -0.0495 -0.1322 11.4487 -0.0202 6.8644
# 5 39.9262 4.3717 28.4681 -0.0202 44.9754 -0.0016
# 6 0.0021 -0.0034 -0.0171 6.8644 -0.0016 22.5240
#
#
#
# Elastic Compliance Matrix: (Units=1/GPa)
#
#
# Indices 1 2 3 4 5 6 
#
# 1 0.020726 -0.010501 -0.002387 -0.000094 -0.015867 0.000022
# 2 -0.010501 0.022497 -0.001788 0.000096 0.008267 -0.000026
# 3 -0.002387 -0.001788 0.010788 0.000125 -0.004535 -0.000030
# 4 -0.000094 0.000096 0.000125 0.106877 0.000042 -0.032572
# 5 -0.015867 0.008267 -0.004535 0.000042 0.038388 -0.000011
# 6 0.000022 -0.000026 -0.000030 -0.032572 -0.000011 0.054324
#
#
# Mechanical properties :
#
#
# Convention : Reuss Voigt Hill
#
# Bulk Modulus (GPa) = 40.55167 54.24756 47.39961
# Shear Modulus (GPa) = 17.17214 27.77511 22.47363
#
# Velocity S-wave (km/s) = 2.73094 3.47319 3.12418
# Velocity P-wave (km/s) = 5.24939 6.29637 5.79657
#
# Compressibility (1/GPa) = 0.02465990
#
# Stress axis : x y z
#
# Youngs Moduli (GPa) = 48.24923 44.45057 92.69760
#
# Poissons Ratio (x) = 0.46676 0.22128
# Poissons Ratio (y) = 0.50665 0.16570
# Poissons Ratio (z) = 0.11518 0.07946
#
# Static dielectric constant tensor:
#      x y z
#    x 1.915420 0.000000 -0.030290 
#    y 0.000000 1.805320 -0.000020 
#    z -0.030290 -0.000020 1.875260 
# 
# From -- ./inp_files/240336.got.cif
#   From: 2010.05.17/outbox.cif.g08.bks.cpg/sg15_121_cif.got.tgz:240336.got - 2010.06.03 18:47:42.
