data_PCOD9260295
_publ_section_title
;
Structure prediction by ZEFSAII (Michael W. Deem and Ramdas Pophale) SiO2 
 PCOD9260295
Probable space group: C 2/C
;
_chemical_formula_sum "Si O2"
_cell_formula_units_Z 44
_cell_length_a 11.896968
_cell_length_b 19.596018
_cell_length_c 7.555773
_cell_angle_alpha 90.000000
_cell_angle_beta 109.624621
_cell_angle_gamma 90.000000
_cell_volume 1659.181573
_symmetry_space_group_name_H-M "C 2/C"
_symmetry_group_IT_number 15
_symmetry_cell_setting 'monoclinic'
loop_
_space_group_symop_operation_xyz
x,y,z
-x,y,1/2-z
-x,-y,-z
x,-y,1/2+z
1/2+x,1/2+y,z
1/2-x,1/2+y,1/2-z
1/2-x,1/2-y,-z
1/2+x,1/2-y,1/2+z
loop_
_atom_site_type_symbol
_atom_site_label
_atom_site_fract_x
_atom_site_fract_y
_atom_site_fract_z
Si Si1 0.250000 0.750000 0.500000
Si Si2 0.589314 0.129503 0.074191
Si Si3 0.164945 0.402530 0.005449
Si Si4 0.125005 0.988101 0.231345
Si Si5 0.841235 0.110580 0.072450
Si Si6 0.997171 0.784350 0.450771
O O1 0.227649 0.671110 0.554217
O O2 0.364144 0.725279 0.433750
O O3 0.461092 0.098847 0.956384
O O4 0.628017 0.094859 0.279422
O O5 0.565290 0.209762 0.103628
O O6 0.700995 0.126129 0.003668
O O7 0.254993 0.460268 0.112417
O O8 0.131414 0.950100 0.049310
O O9 0.000000 0.966227 0.250000
O O10 0.126513 0.070806 0.229329
O O11 0.918537 0.173153 0.044318
O O12 0.000000 0.811294 0.250000
#
# Coordination Sequence:
#
# PCOD9260295 Si02
#       6
#     4   8   8   8   8   8
#     4  10  18  36  68  96 134 182 218 280 362 418
#     4  10  22  44  74 108 139 181 245 300 370 427
#     4  10  21  43  74 100 144 188 234 296 367 426
#     4  12  27  46  67 102 146 193 243 286 354 432
#     4  12  26  43  71 101 146 188 243 297 351 430
#     4  11  21  43  70 103 140 182 229 298 364 426
#
# _framework density 26.519098
#
# number of rings (size 3 to 8) (size 9 to 14) (size 15 to 20)
#    0.000    1.091    3.636    4.909    0.000    2.909 
#    0.000    0.000    0.000    0.000    0.000    0.000 
#    0.000    0.000    0.000    0.000    0.000    0.000 
#
# Total GULP energy -122734.031998 kJ/mol
# GULP energy per Si atom -5578.819636 kJ/mol
# Density = 2.645874 g / cm^3
# Si number density = 26.519098 Si / 1000 Ang^3
#
#
#
# Elastic Constant Matrix: (Units=GPa)
#
#
# Indices 1 2 3 4 5 6 
#
# 1 300.8881 70.0986 46.7598 0.0000 -21.6087 0.0000
# 2 70.0986 97.5618 18.4201 0.0000 -0.8769 0.0000
# 3 46.7598 18.4201 62.7266 0.0000 10.5062 0.0000
# 4 0.0000 0.0000 0.0000 -6.0233 0.0000 -12.3595
# 5 -21.6087 -0.8769 10.5062 0.0000 41.7652 0.0000
# 6 0.0000 0.0000 0.0000 -12.3595 0.0000 44.7069
#
#
#
# Elastic Compliance Matrix: (Units=1/GPa)
#
#
# Indices 1 2 3 4 5 6 
#
# 1 0.004690 -0.002732 -0.003227 0.000000 0.003181 0.000000
# 2 -0.002732 0.012489 -0.001502 0.000000 -0.000773 0.000000
# 3 -0.003227 -0.001502 0.019912 0.000000 -0.006710 0.000000
# 4 0.000000 0.000000 0.000000 -0.105931 0.000000 -0.029285
# 5 0.003181 -0.000773 -0.006710 0.000000 0.027261 0.000000
# 6 0.000000 0.000000 0.000000 -0.029285 0.000000 0.014272
#
#
# Mechanical properties :
#
#
# Convention : Reuss Voigt Hill
#
# Bulk Modulus (GPa) = 45.10303 81.30372 63.20337
# Shear Modulus (GPa) = -1000.70566 37.81630 -481.44468
#
# Velocity S-wave (km/s) = -19.44665 3.78034 -13.48853
# Velocity P-wave (km/s) = 22.07226 7.05548 14.78859
#
# Compressibility (1/GPa) = 0.02217146
#
# Stress axis : x y z
#
# Youngs Moduli (GPa) = 213.22893 80.06841 50.22036
#
# Poissons Ratio (x) = 0.21874 0.16204
# Poissons Ratio (y) = 0.58251 0.07541
# Poissons Ratio (z) = 0.68799 0.12023
#
# Static dielectric constant tensor:
#      x y z
#    x 2.106830 0.000000 -0.004970 
#    y 0.000000 1.945780 0.000000 
#    z -0.004970 0.000000 2.666600 
# 
# From -- ./inp_files/30967.got.cif
#   From: 2010.05.17/outbox.cif.g08.bks.cpg/sg15_16_cif.got.tgz:30967.got - 2010.06.03 18:47:42.
