data_PCOD9260066
_publ_section_title
;
Structure prediction by ZEFSAII (Michael W. Deem and Ramdas Pophale) SiO2 
 PCOD9260066
Probable space group: C 2/C
;
_chemical_formula_sum "Si O2"
_cell_formula_units_Z 48
_cell_length_a 18.268336
_cell_length_b 5.054534
_cell_length_c 17.987011
_cell_angle_alpha 90.000000
_cell_angle_beta 79.342414
_cell_angle_gamma 90.000000
_cell_volume 1632.232993
_symmetry_space_group_name_H-M "C 2/C"
_symmetry_group_IT_number 15
_symmetry_cell_setting 'monoclinic'
loop_
_space_group_symop_operation_xyz
x,y,z
-x,y,1/2-z
-x,-y,-z
x,-y,1/2+z
1/2+x,1/2+y,z
1/2-x,1/2+y,1/2-z
1/2-x,1/2-y,-z
1/2+x,1/2-y,1/2+z
loop_
_atom_site_type_symbol
_atom_site_label
_atom_site_fract_x
_atom_site_fract_y
_atom_site_fract_z
Si Si1 0.351836 0.647051 0.727141
Si Si2 0.187567 0.555979 0.131248
Si Si3 0.552423 0.742864 0.364093
Si Si4 0.601222 0.559206 0.087021
Si Si5 0.861779 0.387149 0.562101
Si Si6 0.000000 0.368069 0.750000
Si Si7 0.250000 0.250000 0.500000
O O1 0.296260 0.804658 0.792770
O O2 0.375438 0.355628 0.695770
O O3 0.350730 0.789151 0.648405
O O4 0.424304 0.706863 0.765640
O O5 0.140986 0.283705 0.133566
O O6 0.151143 0.789767 0.082787
O O7 0.260913 0.531056 0.069165
O O8 0.487458 0.523110 0.383730
O O9 0.577352 0.877622 0.434866
O O10 0.510817 0.952102 0.319573
O O11 0.605440 0.691690 0.005541
O O12 0.789492 0.522288 0.543368
#
# Coordination Sequence:
#
# PCOD9260066 Si02
#       7
#     8   8   8   8   8   4   4
#     4  11  23  40  68 112 141 193 242 309 377 447
#     4  11  25  47  76 103 146 200 251 303 377 442
#     4  11  22  39  69 107 148 183 238 305 374 454
#     4  11  24  45  73 108 148 195 237 306 384 459
#     4  10  26  44  70 104 144 194 254 298 372 439
#     4  10  18  36  62 100 148 178 220 298 368 448
#     4  10  26  56  70  98 144 206 250 312 356 442
#
# _framework density 29.407565000000002
#
# number of rings (size 3 to 8) (size 9 to 14) (size 15 to 20)
#    0.000    1.333    1.667    3.000    9.333    3.333 
#    3.000    0.000    0.000    0.000    0.000    0.000 
#    0.000    0.000    0.000    0.000    0.000    0.000 
#
# Total GULP energy -133952.224031 kJ/mol
# GULP energy per Si atom -5581.342668 kJ/mol
# Density = 2.934063 g / cm^3
# Si number density = 29.407565 Si / 1000 Ang^3
#
#
#
# Elastic Constant Matrix: (Units=GPa)
#
#
# Indices 1 2 3 4 5 6 
#
# 1 96.7874 16.9336 36.6873 0.0000 7.4272 0.0000
# 2 16.9336 156.0569 33.2041 0.0000 15.3460 0.0000
# 3 36.6873 33.2041 177.8297 0.0000 21.0400 0.0000
# 4 0.0000 0.0000 0.0000 56.9823 0.0000 17.0841
# 5 7.4272 15.3460 21.0400 0.0000 45.3033 0.0000
# 6 0.0000 0.0000 0.0000 17.0841 0.0000 41.1752
#
#
#
# Elastic Compliance Matrix: (Units=1/GPa)
#
#
# Indices 1 2 3 4 5 6 
#
# 1 0.011311 -0.000713 -0.002126 0.000000 -0.000625 0.000000
# 2 -0.000713 0.006856 -0.000923 0.000000 -0.001777 0.000000
# 3 -0.002126 -0.000923 0.006514 0.000000 -0.002364 0.000000
# 4 0.000000 0.000000 0.000000 0.020043 0.000000 -0.008316
# 5 -0.000625 -0.001777 -0.002364 0.000000 0.023876 0.000000
# 6 0.000000 0.000000 0.000000 -0.008316 0.000000 0.027737
#
#
# Mechanical properties :
#
#
# Convention : Reuss Voigt Hill
#
# Bulk Modulus (GPa) = 58.28822 67.14711 62.71767
# Shear Modulus (GPa) = 45.62875 51.61542 48.62209
#
# Velocity S-wave (km/s) = 3.94331 4.19403 4.07060
# Velocity P-wave (km/s) = 6.37156 6.80705 6.59290
#
# Compressibility (1/GPa) = 0.01715612
#
# Stress axis : x y z
#
# Youngs Moduli (GPa) = 88.41198 145.84880 153.51465
#
# Poissons Ratio (x) = 0.10405 0.32642
# Poissons Ratio (y) = 0.06308 0.14166
# Poissons Ratio (z) = 0.18799 0.13459
#
# Static dielectric constant tensor:
#      x y z
#    x -0.095240 0.000000 2.006800 
#    y 0.000000 2.401620 0.000000 
#    z 2.006800 0.000000 0.463500 
# 
# From -- ./inp_files/217551.got.cif
#   From: 2010.05.17/outbox.cif.g08.bks.cpg/sg15_109_cif.got.tgz:217551.got - 2010.06.03 18:47:42.
