data_PCOD9260464
_publ_section_title
;
Structure prediction by ZEFSAII (Michael W. Deem and Ramdas Pophale) SiO2 
 PCOD9260464
Probable space group: C 2/C
;
_chemical_formula_sum "Si O2"
_cell_formula_units_Z 64
_cell_length_a 16.053273
_cell_length_b 11.100577
_cell_length_c 29.789414
_cell_angle_alpha 90.000000
_cell_angle_beta 38.754365
_cell_angle_gamma 90.000000
_cell_volume 3323.024661
_symmetry_space_group_name_H-M "C 2/C"
_symmetry_group_IT_number 15
_symmetry_cell_setting 'monoclinic'
loop_
_space_group_symop_operation_xyz
x,y,z
-x,y,1/2-z
-x,-y,-z
x,-y,1/2+z
1/2+x,1/2+y,z
1/2-x,1/2+y,1/2-z
1/2-x,1/2-y,-z
1/2+x,1/2-y,1/2+z
loop_
_atom_site_type_symbol
_atom_site_label
_atom_site_fract_x
_atom_site_fract_y
_atom_site_fract_z
Si Si1 0.456823 0.903659 0.680968
Si Si2 0.104199 0.089929 0.240706
Si Si3 0.872867 0.343671 0.056784
Si Si4 0.820982 0.179918 0.158986
Si Si5 0.611274 0.170174 0.785050
Si Si6 0.604563 0.559200 0.831708
Si Si7 0.397281 0.910004 0.599470
Si Si8 0.156272 0.207310 0.579985
O O1 0.330075 0.845936 0.760187
O O2 0.428601 0.903713 0.639173
O O3 0.586570 0.822518 0.632889
O O4 0.464013 0.044570 0.690116
O O5 0.056346 0.218299 0.279811
O O6 0.242990 0.118914 0.158860
O O7 0.000000 0.035921 0.250000
O O8 0.129681 0.000465 0.271785
O O9 0.834960 0.231944 0.103843
O O10 0.906579 0.455700 0.074994
O O11 0.747298 0.365405 0.076844
O O12 0.000342 0.328422 0.971134
O O13 0.883708 0.278306 0.166517
O O14 0.896143 0.054087 0.134828
O O15 0.767419 0.140050 0.710096
O O16 0.467675 0.630210 0.886179
O O17 0.250000 0.250000 0.500000
#
# Coordination Sequence:
#
# PCOD9260464 Si02
#       8
#     8   8   8   8   8   8   8   8
#     4  11  20  39  64  85 123 168 200 249 311 374
#     4  11  21  37  63  93 118 152 209 262 296 356
#     4  11  24  37  62  96 124 157 209 259 309 371
#     4  10  19  38  63  90 116 161 211 251 300 372
#     4  10  18  37  63  85 114 160 201 245 307 362
#     4  10  20  37  63  85 115 165 209 242 305 373
#     4  11  20  39  65  89 123 163 205 253 311 371
#     4  12  24  39  60  93 130 161 202 260 317 361
#
# _framework density 19.259563
#
# number of rings (size 3 to 8) (size 9 to 14) (size 15 to 20)
#    0.000    1.250    7.500    0.750    0.000    0.500 
#    4.500    1.875    0.000    4.500    0.000    0.000 
#    0.000    0.000    0.000    0.000    0.000    0.000 
#
# Total GULP energy -178564.433720 kJ/mol
# GULP energy per Si atom -5580.138554 kJ/mol
# Density = 1.921573 g / cm^3
# Si number density = 19.259563 Si / 1000 Ang^3
#
#
#
# Elastic Constant Matrix: (Units=GPa)
#
#
# Indices 1 2 3 4 5 6 
#
# 1 43.8076 -9.9116 15.5142 0.0000 0.5198 0.0000
# 2 -9.9116 61.9802 23.4962 0.0000 -1.3941 0.0000
# 3 15.5142 23.4962 94.8852 0.0000 -3.5106 0.0000
# 4 0.0000 0.0000 0.0000 21.5838 0.0000 -3.5495
# 5 0.5198 -1.3941 -3.5106 0.0000 24.8634 0.0000
# 6 0.0000 0.0000 0.0000 -3.5495 0.0000 17.6562
#
#
#
# Elastic Compliance Matrix: (Units=1/GPa)
#
#
# Indices 1 2 3 4 5 6 
#
# 1 0.026409 0.006458 -0.005955 0.000000 -0.001031 0.000000
# 2 0.006458 0.019388 -0.005852 0.000000 0.000126 0.000000
# 3 -0.005955 -0.005852 0.013022 0.000000 0.001635 0.000000
# 4 0.000000 0.000000 0.000000 0.047915 0.000000 0.009633
# 5 -0.001031 0.000126 0.001635 0.000000 0.040479 0.000000
# 6 0.000000 0.000000 0.000000 0.009633 0.000000 0.058574
#
#
# Mechanical properties :
#
#
# Convention : Reuss Voigt Hill
#
# Bulk Modulus (GPa) = 20.78125 28.76341 24.77233
# Shear Modulus (GPa) = 21.50277 24.25897 22.88087
#
# Velocity S-wave (km/s) = 3.34499 3.55291 3.45052
# Velocity P-wave (km/s) = 5.07269 5.63896 5.36330
#
# Compressibility (1/GPa) = 0.04812030
#
# Stress axis : x y z
#
# Youngs Moduli (GPa) = 37.86528 51.57769 76.79045
#
# Poissons Ratio (x) = -0.33307 0.45731
# Poissons Ratio (y) = -0.24452 0.44940
# Poissons Ratio (z) = 0.22550 0.30185
#
# Static dielectric constant tensor:
#      x y z
#    x 1.664760 0.000000 0.013090 
#    y 0.000000 1.703660 0.000000 
#    z 0.013090 0.000000 1.676570 
# 
# From -- ./inp_files/296105.got.cif
#   From: 2010.05.17/outbox.cif.g08.bks.cpg/sg15_149_cif.got.tgz:296105.got - 2010.06.03 18:47:42.
