data_PCOD9260206
_publ_section_title
;
Structure prediction by ZEFSAII (Michael W. Deem and Ramdas Pophale) SiO2 
 PCOD9260206
Probable space group: C 2/C
;
_chemical_formula_sum "Si O2"
_cell_formula_units_Z 56
_cell_length_a 19.117391
_cell_length_b 15.455016
_cell_length_c 8.893461
_cell_angle_alpha 90.000000
_cell_angle_beta 92.956575
_cell_angle_gamma 90.000000
_cell_volume 2624.160646
_symmetry_space_group_name_H-M "C 2/C"
_symmetry_group_IT_number 15
_symmetry_cell_setting 'monoclinic'
loop_
_space_group_symop_operation_xyz
x,y,z
-x,y,1/2-z
-x,-y,-z
x,-y,1/2+z
1/2+x,1/2+y,z
1/2-x,1/2+y,1/2-z
1/2-x,1/2-y,-z
1/2+x,1/2-y,1/2+z
loop_
_atom_site_type_symbol
_atom_site_label
_atom_site_fract_x
_atom_site_fract_y
_atom_site_fract_z
Si Si1 0.929770 0.383234 0.165172
Si Si2 0.334470 0.281693 0.646512
Si Si3 0.111769 0.929042 0.648796
Si Si4 0.630259 0.986784 0.591388
Si Si5 0.229790 0.474601 0.837431
Si Si6 0.073614 0.106875 0.814585
Si Si7 0.286892 0.667500 0.809392
O O1 0.878433 0.304736 0.127166
O O2 0.901979 0.449762 0.289168
O O3 0.000000 0.349885 0.250000
O O4 0.928527 0.434646 0.006840
O O5 0.383439 0.349521 0.736933
O O6 0.310098 0.321353 0.485784
O O7 0.266448 0.245874 0.728902
O O8 0.070893 0.910343 0.491875
O O9 0.193776 0.940735 0.615466
O O10 0.085623 0.015447 0.728974
O O11 0.689394 0.933505 0.690862
O O12 0.677093 0.032599 0.469778
O O13 0.246287 0.575426 0.797214
O O14 0.142730 0.162058 0.781082
O O15 0.000000 0.144591 0.750000
#
# Coordination Sequence:
#
# PCOD9260206 Si02
#       7
#     8   8   8   8   8   8   8
#     4  11  24  40  60  88 124 163 208 256 314 381
#     4  11  23  40  64  95 128 162 212 263 332 371
#     4  11  23  37  68  94 127 164 209 269 312 374
#     4  10  19  37  61  84 116 158 204 253 301 370
#     4  10  18  36  64  94 115 153 207 256 302 366
#     4  11  24  43  64  94 130 175 220 253 315 394
#     4  10  21  41  64  93 126 164 208 265 315 378
#
# _framework density 21.340157000000001
#
# number of rings (size 3 to 8) (size 9 to 14) (size 15 to 20)
#    0.000    1.429    2.857    5.143    2.000    2.286 
#    0.000    0.000    0.000    1.714    0.000    0.000 
#    0.000    0.000    0.000    0.000    0.000    0.000 
#
# Total GULP energy -156299.225026 kJ/mol
# GULP energy per Si atom -5582.115179 kJ/mol
# Density = 2.129159 g / cm^3
# Si number density = 21.340157 Si / 1000 Ang^3
#
#
#
# Elastic Constant Matrix: (Units=GPa)
#
#
# Indices 1 2 3 4 5 6 
#
# 1 57.6068 3.4281 9.1110 0.0000 22.7207 0.0000
# 2 3.4281 31.9663 -7.0595 0.0000 -1.1842 0.0000
# 3 9.1110 -7.0595 85.1308 0.0000 26.5457 0.0000
# 4 0.0000 0.0000 0.0000 12.7713 0.0000 -4.6311
# 5 22.7207 -1.1842 26.5457 0.0000 35.6293 0.0000
# 6 0.0000 0.0000 0.0000 -4.6311 0.0000 10.3785
#
#
#
# Elastic Compliance Matrix: (Units=1/GPa)
#
#
# Indices 1 2 3 4 5 6 
#
# 1 0.023921 -0.002629 0.002613 0.000000 -0.017288 0.000000
# 2 -0.002629 0.032194 0.002729 0.000000 0.000713 0.000000
# 3 0.002613 0.002729 0.015872 0.000000 -0.013401 0.000000
# 4 0.000000 0.000000 0.000000 0.093416 0.000000 0.041684
# 5 -0.017288 0.000713 -0.013401 0.000000 0.049100 0.000000
# 6 0.000000 0.000000 0.000000 0.041684 0.000000 0.114953
#
#
# Mechanical properties :
#
#
# Convention : Reuss Voigt Hill
#
# Bulk Modulus (GPa) = 12.91789 20.62923 16.77356
# Shear Modulus (GPa) = 14.29250 23.03745 18.66497
#
# Velocity S-wave (km/s) = 2.59075 3.28919 2.96064
# Velocity P-wave (km/s) = 3.87502 4.91049 4.42316
#
# Compressibility (1/GPa) = 0.07741200
#
# Stress axis : x y z
#
# Youngs Moduli (GPa) = 41.80440 31.06185 63.00416
#
# Poissons Ratio (x) = 0.08165 -0.16462
# Poissons Ratio (y) = 0.10989 -0.17191
# Poissons Ratio (z) = -0.10923 -0.08475
#
# Static dielectric constant tensor:
#      x y z
#    x 1.840650 0.000000 0.019330 
#    y 0.000000 1.773160 0.000000 
#    z 0.019330 0.000000 1.785840 
# 
# From -- ./inp_files/55637.got.cif
#   From: 2010.05.17/outbox.cif.g08.bks.cpg/sg15_28_cif.got.tgz:55637.got - 2010.06.03 18:47:42.
