data_PCOD9260734
_publ_section_title
;
Structure prediction by ZEFSAII (Michael W. Deem and Ramdas Pophale) SiO2 
 PCOD9260734
Probable space group: C 2/C
;
_chemical_formula_sum "Si O2"
_cell_formula_units_Z 44
_cell_length_a 8.884403
_cell_length_b 10.739494
_cell_length_c 18.779800
_cell_angle_alpha 90.000000
_cell_angle_beta 83.688935
_cell_angle_gamma 90.000000
_cell_volume 1780.996598
_symmetry_space_group_name_H-M "C 2/C"
_symmetry_group_IT_number 15
_symmetry_cell_setting 'monoclinic'
loop_
_space_group_symop_operation_xyz
x,y,z
-x,y,1/2-z
-x,-y,-z
x,-y,1/2+z
1/2+x,1/2+y,z
1/2-x,1/2+y,1/2-z
1/2-x,1/2-y,-z
1/2+x,1/2-y,1/2+z
loop_
_atom_site_type_symbol
_atom_site_label
_atom_site_fract_x
_atom_site_fract_y
_atom_site_fract_z
Si Si1 0.955417 0.520599 0.408858
Si Si2 0.121090 0.223032 0.947775
Si Si3 0.500000 0.904481 0.750000
Si Si4 0.741831 0.222632 0.704617
Si Si5 0.829677 0.132345 0.032861
Si Si6 0.074300 0.716267 0.848251
O O1 0.940604 0.525718 0.323353
O O2 0.796315 0.525408 0.458409
O O3 0.048572 0.642266 0.428664
O O4 0.038833 0.388736 0.409107
O O5 0.176124 0.167000 0.868980
O O6 0.250000 0.250000 0.000000
O O7 0.992488 0.133618 0.987105
O O8 0.360225 0.822878 0.728331
O O9 0.682586 0.160449 0.781066
O O10 0.582598 0.264492 0.677550
O O11 0.850805 0.171146 0.113918
O O12 0.750000 0.250000 0.000000
#
# Coordination Sequence:
#
# PCOD9260734 Si02
#       6
#     8   8   4   8   8   8
#     4  10  22  38  67  89 122 170 221 260 327 396
#     4  10  20  39  62  93 128 171 208 264 335 387
#     4  10  18  38  62  92 120 168 216 270 330 378
#     4  10  21  36  65  89 129 169 214 276 320 384
#     4  10  21  39  63  91 128 168 211 257 331 395
#     4  11  21  40  64  94 124 170 223 270 321 393
#
# _framework density 24.705266999999999
#
# number of rings (size 3 to 8) (size 9 to 14) (size 15 to 20)
#    0.000    1.818    3.636    1.091    0.000    2.909 
#    0.000    2.727    4.000    0.000    0.000    0.000 
#    0.000    0.000    0.000    0.000    0.000    0.000 
#
# Total GULP energy -122815.686807 kJ/mol
# GULP energy per Si atom -5582.531219 kJ/mol
# Density = 2.464904 g / cm^3
# Si number density = 24.705267 Si / 1000 Ang^3
#
#
#
# Elastic Constant Matrix: (Units=GPa)
#
#
# Indices 1 2 3 4 5 6 
#
# 1 115.4993 34.7113 62.6360 0.0000 -27.7379 0.0000
# 2 34.7113 72.3579 20.5930 0.0000 -1.4473 0.0000
# 3 62.6360 20.5930 192.4112 0.0000 -30.3619 0.0000
# 4 0.0000 0.0000 0.0000 43.4707 0.0000 -0.8845
# 5 -27.7379 -1.4473 -30.3619 0.0000 63.2185 0.0000
# 6 0.0000 0.0000 0.0000 -0.8845 0.0000 35.2023
#
#
#
# Elastic Compliance Matrix: (Units=1/GPa)
#
#
# Indices 1 2 3 4 5 6 
#
# 1 0.012817 -0.005222 -0.002970 0.000000 0.004078 0.000000
# 2 -0.005222 0.016393 -0.000386 0.000000 -0.002101 0.000000
# 3 -0.002970 -0.000386 0.006490 0.000000 0.001805 0.000000
# 4 0.000000 0.000000 0.000000 0.023016 0.000000 0.000578
# 5 0.004078 -0.002101 0.001805 0.000000 0.018426 0.000000
# 6 0.000000 0.000000 0.000000 0.000578 0.000000 0.028422
#
#
# Mechanical properties :
#
#
# Convention : Reuss Voigt Hill
#
# Bulk Modulus (GPa) = 53.92476 68.46101 61.19289
# Shear Modulus (GPa) = 38.78906 45.86684 42.32795
#
# Velocity S-wave (km/s) = 3.96671 4.31346 4.14371
# Velocity P-wave (km/s) = 6.54632 7.25115 6.90773
#
# Compressibility (1/GPa) = 0.01854436
#
# Stress axis : x y z
#
# Youngs Moduli (GPa) = 78.01863 61.00128 154.07747
#
# Poissons Ratio (x) = 0.31854 0.45763
# Poissons Ratio (y) = 0.40740 0.05950
# Poissons Ratio (z) = 0.23173 0.02356
#
# Static dielectric constant tensor:
#      x y z
#    x 1.936470 0.000000 -0.075560 
#    y 0.000000 1.995340 0.000000 
#    z -0.075560 0.000000 1.953470 
# 
# From -- ./inp_files/188825.got.cif
#   From: 2010.05.17/outbox.cif.g08.bks.cpg/sg15_95_cif.got.tgz:188825.got - 2010.06.03 18:47:42.
