data_PCOD9260953
_publ_section_title
;
Structure prediction by ZEFSAII (Michael W. Deem and Ramdas Pophale) SiO2 
 PCOD9260953
Probable space group: C 2/C
;
_chemical_formula_sum "Si O2"
_cell_formula_units_Z 56
_cell_length_a 19.062514
_cell_length_b 8.212727
_cell_length_c 28.252068
_cell_angle_alpha 90.000000
_cell_angle_beta 32.866955
_cell_angle_gamma 90.000000
_cell_volume 2400.323159
_symmetry_space_group_name_H-M "C 2/C"
_symmetry_group_IT_number 15
_symmetry_cell_setting 'monoclinic'
loop_
_space_group_symop_operation_xyz
x,y,z
-x,y,1/2-z
-x,-y,-z
x,-y,1/2+z
1/2+x,1/2+y,z
1/2-x,1/2+y,1/2-z
1/2-x,1/2-y,-z
1/2+x,1/2-y,1/2+z
loop_
_atom_site_type_symbol
_atom_site_label
_atom_site_fract_x
_atom_site_fract_y
_atom_site_fract_z
Si Si1 0.165298 0.345486 0.473770
Si Si2 0.782822 0.355871 0.165397
Si Si3 0.061902 0.198571 0.019917
Si Si4 0.860074 0.711755 0.126210
Si Si5 0.101876 0.610969 0.582792
Si Si6 0.235096 0.523859 0.092400
Si Si7 0.324560 0.020370 0.266196
O O1 0.221480 0.371997 0.389093
O O2 0.173931 0.493266 0.504858
O O3 0.010431 0.308727 0.556287
O O4 0.252188 0.194149 0.441109
O O5 0.787471 0.541761 0.181536
O O6 0.918646 0.263278 0.096429
O O7 0.689609 0.213584 0.237789
O O8 0.093694 0.226015 0.057145
O O9 0.133620 0.288302 0.935404
O O10 0.114552 0.018748 0.981167
O O11 0.786787 0.881794 0.180539
O O12 0.165840 0.603755 0.597662
O O13 0.956968 0.547592 0.671358
O O14 0.167416 0.526900 0.181126
#
# Coordination Sequence:
#
# PCOD9260953 Si02
#       7
#     8   8   8   8   8   8   8
#     4  10  19  36  61  83 105 145 192 231 274 320
#     4  10  18  39  62  82 112 144 185 233 280 334
#     4  10  19  36  61  83 105 145 192 231 274 320
#     4  10  18  39  62  82 112 144 185 233 280 334
#     4  12  21  37  54  85 118 142 183 236 272 324
#     4  10  22  38  58  77 112 156 188 218 272 341
#     4  10  24  36  58  84 114 152 181 222 291 331
#
# _framework density 23.330192
#
# number of rings (size 3 to 8) (size 9 to 14) (size 15 to 20)
#    0.000    1.714    2.857    3.000    0.000    4.571 
#    2.571    0.000    0.000    3.429    0.000    0.000 
#    0.000    0.000    0.000    0.000    0.000    0.000 
#
# Total GULP energy -155980.606892 kJ/mol
# GULP energy per Si atom -5570.735960 kJ/mol
# Density = 2.327709 g / cm^3
# Si number density = 23.330192 Si / 1000 Ang^3
#
#
#
# Elastic Constant Matrix: (Units=GPa)
#
#
# Indices 1 2 3 4 5 6 
#
# 1 58.9069 -16.0605 -12.3754 -0.0020 23.2618 0.0062
# 2 -16.0605 48.9147 20.0276 -0.0044 2.8863 0.0061
# 3 -12.3754 20.0276 61.7002 0.0001 10.2576 -0.0012
# 4 -0.0020 -0.0044 0.0001 34.8383 -0.0006 10.1139
# 5 23.2618 2.8863 10.2576 -0.0006 23.9647 -0.0004
# 6 0.0062 0.0061 -0.0012 10.1139 -0.0004 21.3985
#
#
#
# Elastic Compliance Matrix: (Units=1/GPa)
#
#
# Indices 1 2 3 4 5 6 
#
# 1 0.040841 0.011114 0.012270 0.000008 -0.046234 -0.000019
# 2 0.011114 0.026606 -0.004394 0.000008 -0.012111 -0.000015
# 3 0.012270 -0.004394 0.023671 0.000000 -0.021513 -0.000001
# 4 0.000008 0.000008 0.000000 0.033269 -0.000009 -0.015724
# 5 -0.046234 -0.012111 -0.021513 -0.000009 0.097272 0.000022
# 6 -0.000019 -0.000015 -0.000001 -0.015724 0.000022 0.054164
#
#
# Mechanical properties :
#
#
# Convention : Reuss Voigt Hill
#
# Bulk Modulus (GPa) = 7.74597 16.96727 12.35662
# Shear Modulus (GPa) = 17.80141 27.90232 22.85187
#
# Velocity S-wave (km/s) = 2.76528 3.46204 3.13309
# Velocity P-wave (km/s) = 3.67737 4.82384 4.28908
#
# Compressibility (1/GPa) = 0.12909942
#
# Stress axis : x y z
#
# Youngs Moduli (GPa) = 24.48518 37.58499 42.24537
#
# Poissons Ratio (x) = -0.41771 -0.51837
# Poissons Ratio (y) = -0.27212 0.18561
# Poissons Ratio (z) = -0.30044 0.16514
#
# Static dielectric constant tensor:
#      x y z
#    x 1.975150 0.000000 -0.013000 
#    y 0.000000 1.956420 0.000000 
#    z -0.013000 0.000000 1.857060 
# 
# From -- ./inp_files/247580.got.cif
#   From: 2010.05.17/outbox.cif.g08.bks.cpg/sg15_124_cif.got.tgz:247580.got - 2010.06.03 18:47:42.
