data_PCOD9260806
_publ_section_title
;
Structure prediction by ZEFSAII (Michael W. Deem and Ramdas Pophale) SiO2 
 PCOD9260806
Probable space group: C 2/C
;
_chemical_formula_sum "Si O2"
_cell_formula_units_Z 36
_cell_length_a 17.649015
_cell_length_b 6.678092
_cell_length_c 14.238750
_cell_angle_alpha 90.000000
_cell_angle_beta 121.009031
_cell_angle_gamma 90.000000
_cell_volume 1438.365281
_symmetry_space_group_name_H-M "C 2/C"
_symmetry_group_IT_number 15
_symmetry_cell_setting 'monoclinic'
loop_
_space_group_symop_operation_xyz
x,y,z
-x,y,1/2-z
-x,-y,-z
x,-y,1/2+z
1/2+x,1/2+y,z
1/2-x,1/2+y,1/2-z
1/2-x,1/2-y,-z
1/2+x,1/2-y,1/2+z
loop_
_atom_site_type_symbol
_atom_site_label
_atom_site_fract_x
_atom_site_fract_y
_atom_site_fract_z
Si Si1 0.086330 0.505256 0.359324
Si Si2 0.762597 0.369821 0.670599
Si Si3 0.500000 0.598541 0.750000
Si Si4 0.851453 0.493097 0.405379
Si Si5 0.572504 0.596909 0.112767
O O1 0.176907 0.501134 0.359232
O O2 0.062821 0.744818 0.347263
O O3 0.106057 0.420373 0.474062
O O4 0.000000 0.425068 0.250000
O O5 0.818543 0.365801 0.802178
O O6 0.731841 0.149572 0.617565
O O7 0.669063 0.464954 0.637086
O O8 0.446972 0.473935 0.793836
O O9 0.918658 0.335811 0.399113
O O10 0.500000 0.500000 0.000000
#
# Coordination Sequence:
#
# PCOD9260806 Si02
#       5
#     8   8   4   8   8
#     4  10  21  39  69  89 126 179 214 254 327 392
#     4  10  22  39  63  99 129 169 212 268 325 374
#     4  10  18  38  64  92 116 172 212 246 312 394
#     4  10  22  39  66  91 133 167 214 268 314 386
#     4  10  20  37  64  91 124 169 220 255 309 384
#
# _framework density 25.028413
#
# number of rings (size 3 to 8) (size 9 to 14) (size 15 to 20)
#    2.000    0.000    2.222    2.000    0.000    2.667 
#    2.000    1.111    0.000    0.000    0.000    0.000 
#    0.000    0.000    0.000    0.000    0.000    0.000 
#
# Total GULP energy -100516.785526 kJ/mol
# GULP energy per Si atom -5584.265863 kJ/mol
# Density = 2.497145 g / cm^3
# Si number density = 25.028413 Si / 1000 Ang^3
#
#
#
# Elastic Constant Matrix: (Units=GPa)
#
#
# Indices 1 2 3 4 5 6 
#
# 1 172.1143 9.0578 40.0948 0.0000 12.2330 0.0000
# 2 9.0578 43.5857 6.7828 0.0000 14.1969 0.0000
# 3 40.0948 6.7828 162.1029 0.0000 9.9245 0.0000
# 4 0.0000 0.0000 0.0000 24.0879 0.0000 -8.7204
# 5 12.2330 14.1969 9.9245 0.0000 20.7416 0.0000
# 6 0.0000 0.0000 0.0000 -8.7204 0.0000 -47.4339
#
#
#
# Elastic Compliance Matrix: (Units=1/GPa)
#
#
# Indices 1 2 3 4 5 6 
#
# 1 0.006352 -0.000129 -0.001382 0.000000 -0.002997 0.000000
# 2 -0.000129 0.029529 0.000030 0.000000 -0.020150 0.000000
# 3 -0.001382 0.000030 0.006656 0.000000 -0.002390 0.000000
# 4 0.000000 0.000000 0.000000 0.038924 0.000000 -0.007156
# 5 -0.002997 -0.020150 -0.002390 0.000000 0.064915 0.000000
# 6 0.000000 0.000000 0.000000 -0.007156 0.000000 -0.019766
#
#
# Mechanical properties :
#
#
# Convention : Reuss Voigt Hill
#
# Bulk Modulus (GPa) = 25.26900 54.40818 39.83859
# Shear Modulus (GPa) = 35.02316 20.93697 27.98006
#
# Velocity S-wave (km/s) = 3.74483 2.89542 3.34718
# Velocity P-wave (km/s) = 5.36809 5.74140 5.55788
#
# Compressibility (1/GPa) = 0.03957417
#
# Stress axis : x y z
#
# Youngs Moduli (GPa) = 157.43434 33.86543 150.24325
#
# Poissons Ratio (x) = 0.00436 0.20767
# Poissons Ratio (y) = 0.02028 -0.00450
# Poissons Ratio (z) = 0.21761 -0.00101
#
# Static dielectric constant tensor:
#      x y z
#    x 2.158010 0.000000 0.048170 
#    y 0.000000 1.998950 0.000000 
#    z 0.048170 0.000000 1.936220 
# 
# From -- ./inp_files/165908.got.cif
#   From: 2010.05.17/outbox.cif.g08.bks.cpg/sg15_83_cif.got.tgz:165908.got - 2010.06.03 18:47:42.
