data_PCOD9260366
_publ_section_title
;
Structure prediction by ZEFSAII (Michael W. Deem and Ramdas Pophale) SiO2 
 PCOD9260366
Probable space group: C 2/C
;
_chemical_formula_sum "Si O2"
_cell_formula_units_Z 60
_cell_length_a 27.621307
_cell_length_b 15.620748
_cell_length_c 23.619869
_cell_angle_alpha 90.000000
_cell_angle_beta 17.618427
_cell_angle_gamma 90.000000
_cell_volume 3084.623353
_symmetry_space_group_name_H-M "C 2/C"
_symmetry_group_IT_number 15
_symmetry_cell_setting 'monoclinic'
loop_
_space_group_symop_operation_xyz
x,y,z
-x,y,1/2-z
-x,-y,-z
x,-y,1/2+z
1/2+x,1/2+y,z
1/2-x,1/2+y,1/2-z
1/2-x,1/2-y,-z
1/2+x,1/2-y,1/2+z
loop_
_atom_site_type_symbol
_atom_site_label
_atom_site_fract_x
_atom_site_fract_y
_atom_site_fract_z
Si Si1 0.641561 0.336113 0.996738
Si Si2 0.207311 0.138052 0.292104
Si Si3 0.630790 0.037533 0.897625
Si Si4 0.233512 0.812960 0.072361
Si Si5 0.745999 0.633421 0.843373
Si Si6 0.500000 0.953349 0.750000
Si Si7 0.871871 0.523451 0.276542
Si Si8 0.995850 0.768678 0.941397
O O1 0.451730 0.338444 0.217025
O O2 0.680207 0.360914 0.889256
O O3 0.709211 0.243044 0.937731
O O4 0.740123 0.402128 0.925840
O O5 0.356964 0.200631 0.111844
O O6 0.056804 0.176766 0.426863
O O7 0.249371 0.041579 0.225582
O O8 0.708470 0.112077 0.773463
O O9 0.525678 0.058324 0.069646
O O10 0.500000 0.000000 0.000000
O O11 0.250000 0.750000 0.000000
O O12 0.354531 0.891442 0.930797
O O13 0.789361 0.552413 0.832920
O O14 0.567374 0.667692 0.036407
O O15 0.855965 0.710529 0.741753
O O16 0.564000 0.002823 0.733571
#
# Coordination Sequence:
#
# PCOD9260366 Si02
#       8
#     8   8   8   8   8   4   8   8
#     4  12  21  36  63  85 128 169 209 252 304 357
#     4  11  20  36  58  96 124 165 201 250 314 388
#     4  10  18  37  59  84 130 161 194 258 318 366
#     4  12  23  40  58  87 126 172 216 253 286 357
#     4  10  20  40  60  86 123 157 197 257 320 382
#     4  12  26  42  64  86 120 178 218 252 306 364
#     4  11  22  40  61  86 122 169 208 264 312 360
#     4  10  21  34  60  87 122 156 202 244 312 385
#
# _framework density 19.451321
#
# number of rings (size 3 to 8) (size 9 to 14) (size 15 to 20)
#    0.000    1.067    8.000    0.800    0.000    4.800 
#    2.400    0.000    0.000    0.800    0.000    0.000 
#    0.000    0.000    0.000    0.000    0.000    0.000 
#
# Total GULP energy -167452.180690 kJ/mol
# GULP energy per Si atom -5581.739356 kJ/mol
# Density = 1.940705 g / cm^3
# Si number density = 19.451321 Si / 1000 Ang^3
#
#
#
# Elastic Constant Matrix: (Units=GPa)
#
#
# Indices 1 2 3 4 5 6 
#
# 1 84.8712 19.6763 24.9596 0.0052 -18.7441 -0.0010
# 2 19.6763 61.1556 16.5433 0.0153 -11.9176 -0.0108
# 3 24.9596 16.5433 77.8864 0.0145 -12.2428 -0.0134
# 4 0.0052 0.0153 0.0145 23.9045 -0.0172 -8.9043
# 5 -18.7441 -11.9176 -12.2428 -0.0172 20.3302 0.0157
# 6 -0.0010 -0.0108 -0.0134 -8.9043 0.0157 30.4128
#
#
#
# Elastic Compliance Matrix: (Units=1/GPa)
#
#
# Indices 1 2 3 4 5 6 
#
# 1 0.015614 -0.002027 -0.002758 0.000006 0.011546 -0.000006
# 2 -0.002027 0.019158 -0.002152 -0.000005 0.008065 0.000000
# 3 -0.002758 -0.002152 0.015002 -0.000002 0.005230 0.000002
# 4 0.000006 -0.000005 -0.000002 0.046954 0.000030 0.013747
# 5 0.011546 0.008065 0.005230 0.000030 0.067711 -0.000021
# 6 -0.000006 0.000000 0.000002 0.013747 -0.000021 0.036906
#
#
# Mechanical properties :
#
#
# Convention : Reuss Voigt Hill
#
# Bulk Modulus (GPa) = 27.85565 38.47460 33.16512
# Shear Modulus (GPa) = 22.00849 25.77843 23.89346
#
# Velocity S-wave (km/s) = 3.36737 3.64439 3.50862
# Velocity P-wave (km/s) = 5.42870 6.12631 5.78802
#
# Compressibility (1/GPa) = 0.03589937
#
# Stress axis : x y z
#
# Youngs Moduli (GPa) = 64.04621 52.19799 66.65691
#
# Poissons Ratio (x) = 0.10583 0.18384
# Poissons Ratio (y) = 0.12985 0.14342
# Poissons Ratio (z) = 0.17664 0.11231
#
# Static dielectric constant tensor:
#      x y z
#    x 1.726710 -0.000020 -0.004980 
#    y -0.000020 1.718100 0.000010 
#    z -0.004980 0.000010 1.688730 
# 
# From -- ./inp_files/283650.got.cif
#   From: 2010.05.17/outbox.cif.g08.bks.cpg/sg15_142_cif.got.tgz:283650.got - 2010.06.03 18:47:42.
