data_PCOD9260769
_publ_section_title
;
Structure prediction by ZEFSAII (Michael W. Deem and Ramdas Pophale) SiO2 
 PCOD9260769
Probable space group: C 2/C
;
_chemical_formula_sum "Si O2"
_cell_formula_units_Z 44
_cell_length_a 9.877336
_cell_length_b 26.992015
_cell_length_c 15.372145
_cell_angle_alpha 90.000000
_cell_angle_beta 34.296769
_cell_angle_gamma 90.000000
_cell_volume 2309.339046
_symmetry_space_group_name_H-M "C 2/C"
_symmetry_group_IT_number 15
_symmetry_cell_setting 'monoclinic'
loop_
_space_group_symop_operation_xyz
x,y,z
-x,y,1/2-z
-x,-y,-z
x,-y,1/2+z
1/2+x,1/2+y,z
1/2-x,1/2+y,1/2-z
1/2-x,1/2-y,-z
1/2+x,1/2-y,1/2+z
loop_
_atom_site_type_symbol
_atom_site_label
_atom_site_fract_x
_atom_site_fract_y
_atom_site_fract_z
Si Si1 0.103059 0.127239 0.293829
Si Si2 0.000000 0.885345 0.250000
Si Si3 0.491168 0.941386 0.987740
Si Si4 0.891273 0.600449 0.888236
Si Si5 0.525118 0.270965 0.560328
Si Si6 0.772692 0.816292 0.226335
O O1 0.323262 0.088570 0.173650
O O2 0.000000 0.128798 0.250000
O O3 0.891020 0.108385 0.469422
O O4 0.119021 0.184534 0.314406
O O5 0.772723 0.920222 0.390834
O O6 0.937420 0.851260 0.199326
O O7 0.564280 0.923514 0.044066
O O8 0.500000 0.000000 0.000000
O O9 0.000000 0.571202 0.750000
O O10 0.049475 0.650355 0.811568
O O11 0.750000 0.250000 0.500000
O O12 0.343104 0.225375 0.650816
O O13 0.611867 0.290957 0.420417
#
# Coordination Sequence:
#
# PCOD9260769 Si02
#       6
#     8   4   8   8   8   8
#     4  10  20  35  62  94 124 157 219 265 322 378
#     4  10  26  46  58  88 138 170 218 260 340 398
#     4  10  24  43  68  88 121 171 217 272 333 399
#     4  10  18  38  63  94 123 153 210 281 321 361
#     4  12  21  36  65  98 131 170 226 259 320 375
#     4  11  23  38  60  91 136 177 206 267 310 392
#
# _framework density 19.053072
#
# number of rings (size 3 to 8) (size 9 to 14) (size 15 to 20)
#    0.000    1.455    3.636    1.636    8.909    0.727 
#    0.000    2.727    0.000    0.000    0.000    0.000 
#    0.000    0.000    0.000    0.000    0.000    0.000 
#
# Total GULP energy -122493.905298 kJ/mol
# GULP energy per Si atom -5567.904786 kJ/mol
# Density = 1.900971 g / cm^3
# Si number density = 19.053072 Si / 1000 Ang^3
#
#
#
# Elastic Constant Matrix: (Units=GPa)
#
#
# Indices 1 2 3 4 5 6 
#
# 1 61.9294 46.3203 43.3019 0.0000 -8.0789 0.0000
# 2 46.3203 137.9804 64.8382 0.0000 -14.2272 0.0000
# 3 43.3019 64.8382 120.0846 0.0000 -3.5532 0.0000
# 4 0.0000 0.0000 0.0000 14.4241 0.0000 2.0323
# 5 -8.0789 -14.2272 -3.5532 0.0000 33.3769 0.0000
# 6 0.0000 0.0000 0.0000 2.0323 0.0000 0.3672
#
#
#
# Elastic Compliance Matrix: (Units=1/GPa)
#
#
# Indices 1 2 3 4 5 6 
#
# 1 0.024578 -0.005101 -0.006016 0.000000 0.003134 0.000000
# 2 -0.005101 0.011219 -0.004126 0.000000 0.003108 0.000000
# 3 -0.006016 -0.004126 0.012670 0.000000 -0.001866 0.000000
# 4 0.000000 0.000000 0.000000 0.314829 0.000000 -1.742439
# 5 0.003134 0.003108 -0.001866 0.000000 0.031846 0.000000
# 6 0.000000 0.000000 0.000000 -1.742439 0.000000 12.366987
#
#
# Mechanical properties :
#
#
# Convention : Reuss Voigt Hill
#
# Bulk Modulus (GPa) = 55.61541 69.87946 62.74743
# Shear Modulus (GPa) = 0.39067 20.66922 10.52994
#
# Velocity S-wave (km/s) = 0.45331 3.29724 2.35343
# Velocity P-wave (km/s) = 5.43388 7.15902 6.35526
#
# Compressibility (1/GPa) = 0.01798063
#
# Stress axis : x y z
#
# Youngs Moduli (GPa) = 40.68720 89.13212 78.92948
#
# Poissons Ratio (x) = 0.45464 0.47482
# Poissons Ratio (y) = 0.20753 0.32570
# Poissons Ratio (z) = 0.24477 0.36780
#
# Static dielectric constant tensor:
#      x y z
#    x 1.666560 0.000000 0.013590 
#    y 0.000000 1.753690 0.000000 
#    z 0.013590 0.000000 1.758590 
# 
# From -- ./inp_files/91951.got.cif
#   From: 2010.05.17/outbox.cif.g08.bks.cpg/sg15_46_cif.got.tgz:91951.got - 2010.06.03 18:47:42.
