data_PCOD9260304
_publ_section_title
;
Structure prediction by ZEFSAII (Michael W. Deem and Ramdas Pophale) SiO2 
 PCOD9260304
Probable space group: C 2/C
;
_chemical_formula_sum "Si O2"
_cell_formula_units_Z 56
_cell_length_a 7.060479
_cell_length_b 13.364281
_cell_length_c 21.258044
_cell_angle_alpha 90.000000
_cell_angle_beta 89.409264
_cell_angle_gamma 90.000000
_cell_volume 2005.764693
_symmetry_space_group_name_H-M "C 2/C"
_symmetry_group_IT_number 15
_symmetry_cell_setting 'monoclinic'
loop_
_space_group_symop_operation_xyz
x,y,z
-x,y,1/2-z
-x,-y,-z
x,-y,1/2+z
1/2+x,1/2+y,z
1/2-x,1/2+y,1/2-z
1/2-x,1/2-y,-z
1/2+x,1/2-y,1/2+z
loop_
_atom_site_type_symbol
_atom_site_label
_atom_site_fract_x
_atom_site_fract_y
_atom_site_fract_z
Si Si1 0.000000 0.537279 0.250000
Si Si2 0.000000 0.199106 0.250000
Si Si3 0.877064 0.878731 0.377199
Si Si4 0.588232 0.663930 0.997327
Si Si5 0.847693 0.109424 0.370823
Si Si6 0.416397 0.175676 0.363366
Si Si7 0.634851 0.010760 0.560182
Si Si8 0.716171 0.883766 0.189509
O O1 0.919015 0.612625 0.300354
O O2 0.172793 0.458559 0.247821
O O3 0.852390 0.279508 0.281806
O O4 0.975993 0.122678 0.309148
O O5 0.925054 0.828168 0.445943
O O6 0.794846 0.775404 0.350109
O O7 0.070798 0.885818 0.335951
O O8 0.799776 0.990822 0.381462
O O9 0.540098 0.647524 0.069220
O O10 0.750000 0.750000 0.000000
O O11 0.685903 0.563991 0.970425
O O12 0.648166 0.171387 0.373602
O O13 0.343442 0.101084 0.416223
O O14 0.602756 0.077049 0.625776
O O15 0.500000 0.000000 0.500000
#
# Coordination Sequence:
#
# PCOD9260304 Si02
#       8
#     4   4   8   8   8   8   8   8
#     4   9  22  39  62  82 124 179 214 263 334 398
#     4  11  22  41  60  94 130 185 232 271 348 406
#     4  11  23  39  65  97 129 165 223 278 338 400
#     4  11  20  42  70  94 130 173 213 280 348 408
#     4  12  24  38  68  95 130 174 226 275 331 416
#     4  11  22  43  62  92 136 171 217 281 339 396
#     4  10  18  36  70  93 123 175 219 277 348 402
#     4   9  20  39  62  90 126 173 223 272 336 404
#
# _framework density 27.919528
#
# number of rings (size 3 to 8) (size 9 to 14) (size 15 to 20)
#    0.000    1.429    4.286    1.286    2.000    0.571 
#    0.000    0.714    9.429    0.000    0.000    0.000 
#    0.000    0.000    0.000    0.000    0.000    0.000 
#
# Total GULP energy -156080.388396 kJ/mol
# GULP energy per Si atom -5574.299586 kJ/mol
# Density = 2.785598 g / cm^3
# Si number density = 27.919528 Si / 1000 Ang^3
#
#
#
# Elastic Constant Matrix: (Units=GPa)
#
#
# Indices 1 2 3 4 5 6 
#
# 1 66.9188 7.4310 29.1002 0.0000 -13.5185 0.0000
# 2 7.4310 126.3195 63.3566 0.0000 11.6806 0.0000
# 3 29.1002 63.3566 147.8294 0.0000 -24.8332 0.0000
# 4 0.0000 0.0000 0.0000 29.5633 0.0000 -7.6218
# 5 -13.5185 11.6806 -24.8332 0.0000 27.9741 0.0000
# 6 0.0000 0.0000 0.0000 -7.6218 0.0000 25.8781
#
#
#
# Elastic Compliance Matrix: (Units=1/GPa)
#
#
# Indices 1 2 3 4 5 6 
#
# 1 0.017259 -0.000674 -0.001951 0.000000 0.006889 0.000000
# 2 -0.000674 0.012809 -0.007416 0.000000 -0.012258 0.000000
# 3 -0.001951 -0.007416 0.012562 0.000000 0.013305 0.000000
# 4 0.000000 0.000000 0.000000 0.036605 0.000000 0.010781
# 5 0.006889 -0.012258 0.013305 0.000000 0.056006 0.000000
# 6 0.000000 0.000000 0.000000 0.010781 0.000000 0.041818
#
#
# Mechanical properties :
#
#
# Convention : Reuss Voigt Hill
#
# Bulk Modulus (GPa) = 44.35063 60.09370 52.22217
# Shear Modulus (GPa) = 24.43101 32.76176 28.59638
#
# Velocity S-wave (km/s) = 2.96134 3.42926 3.20385
# Velocity P-wave (km/s) = 5.25474 6.10331 5.69485
#
# Compressibility (1/GPa) = 0.02254760
#
# Stress axis : x y z
#
# Youngs Moduli (GPa) = 57.94228 78.06905 79.60357
#
# Poissons Ratio (x) = 0.05259 0.15534
# Poissons Ratio (y) = 0.03903 0.59036
# Poissons Ratio (z) = 0.11307 0.57898
#
# Static dielectric constant tensor:
#      x y z
#    x 2.496030 0.000000 0.305400 
#    y 0.000000 2.314860 0.000000 
#    z 0.305400 0.000000 2.471600 
# 
# From -- ./inp_files/237006.got.cif
#   From: 2010.05.17/outbox.cif.g08.bks.cpg/sg15_119_cif.got.tgz:237006.got - 2010.06.03 18:47:42.
