data_PCOD9260612
_publ_section_title
;
Structure prediction by ZEFSAII (Michael W. Deem and Ramdas Pophale) SiO2 
 PCOD9260612
Probable space group: C 2/C
;
_chemical_formula_sum "Si O2"
_cell_formula_units_Z 52
_cell_length_a 24.141176
_cell_length_b 15.010943
_cell_length_c 14.572886
_cell_angle_alpha 90.000000
_cell_angle_beta 25.020599
_cell_angle_gamma 90.000000
_cell_volume 2233.546027
_symmetry_space_group_name_H-M "C 2/C"
_symmetry_group_IT_number 15
_symmetry_cell_setting 'monoclinic'
loop_
_space_group_symop_operation_xyz
x,y,z
-x,y,1/2-z
-x,-y,-z
x,-y,1/2+z
1/2+x,1/2+y,z
1/2-x,1/2+y,1/2-z
1/2-x,1/2-y,-z
1/2+x,1/2-y,1/2+z
loop_
_atom_site_type_symbol
_atom_site_label
_atom_site_fract_x
_atom_site_fract_y
_atom_site_fract_z
Si Si1 0.000000 0.175860 0.750000
Si Si2 0.758750 0.118176 0.309041
Si Si3 0.324194 0.702860 0.660408
Si Si4 0.500601 0.267932 0.043758
Si Si5 0.582087 0.083490 0.950820
Si Si6 0.500000 0.620243 0.250000
Si Si7 0.201596 0.973749 0.928292
Si Si8 0.000000 0.521107 0.750000
O O1 0.008896 0.228176 0.641735
O O2 0.127811 0.113640 0.574287
O O3 0.706410 0.195994 0.320658
O O4 0.815545 0.041354 0.156674
O O5 0.634117 0.079374 0.549424
O O6 0.880481 0.169870 0.171776
O O7 0.366991 0.696410 0.701136
O O8 0.207285 0.637960 0.806396
O O9 0.448140 0.677451 0.411559
O O10 0.514687 0.164005 0.997656
O O11 0.648094 0.004514 0.791526
O O12 0.508093 0.039935 0.147307
O O13 0.381402 0.554028 0.404518
#
# Coordination Sequence:
#
# PCOD9260612 Si02
#       8
#     4   8   8   8   8   4   8   4
#     4   9  17  34  57  77 106 142 180 227 271 318
#     4   9  19  36  57  80 113 145 181 229 272 322
#     4  10  20  37  58  83 110 144 185 226 271 327
#     4  10  20  37  58  83 110 144 185 226 271 327
#     4   9  19  36  57  80 113 145 181 229 272 322
#     4   9  17  34  57  77 106 142 180 227 271 318
#     4   8  16  34  53  74 109 142 174 229 275 308
#     4  10  18  38  58  78 114 150 176 226 280 318
#
# _framework density 23.281364
#
# number of rings (size 3 to 8) (size 9 to 14) (size 15 to 20)
#    0.000    2.769    0.000    0.923    0.000    0.000 
#    0.000   58.462    0.000    0.000    0.000    0.000 
#    0.000    0.000    0.000    0.000    0.000    0.000 
#
# Total GULP energy -144921.338365 kJ/mol
# GULP energy per Si atom -5573.897629 kJ/mol
# Density = 2.322837 g / cm^3
# Si number density = 23.281364 Si / 1000 Ang^3
#
#
#
# Elastic Constant Matrix: (Units=GPa)
#
#
# Indices 1 2 3 4 5 6 
#
# 1 72.9156 5.5598 6.1232 0.0000 -8.9376 0.0000
# 2 5.5598 87.1857 26.1775 0.0000 0.3206 0.0000
# 3 6.1232 26.1775 106.7963 0.0000 18.1752 0.0000
# 4 0.0000 0.0000 0.0000 37.5302 0.0000 12.9929
# 5 -8.9376 0.3206 18.1752 0.0000 20.5968 0.0000
# 6 0.0000 0.0000 0.0000 12.9929 0.0000 10.0462
#
#
#
# Elastic Compliance Matrix: (Units=1/GPa)
#
#
# Indices 1 2 3 4 5 6 
#
# 1 0.014961 -0.000319 -0.002219 0.000000 0.008455 0.000000
# 2 -0.000319 0.012539 -0.003528 0.000000 0.002780 0.000000
# 3 -0.002219 -0.003528 0.012367 0.000000 -0.011821 0.000000
# 4 0.000000 0.000000 0.000000 0.048248 0.000000 -0.062399
# 5 0.008455 0.002780 -0.011821 0.000000 0.062608 0.000000
# 6 0.000000 0.000000 0.000000 -0.062399 0.000000 0.180242
#
#
# Mechanical properties :
#
#
# Convention : Reuss Voigt Hill
#
# Bulk Modulus (GPa) = 36.05382 38.06872 37.06127
# Shear Modulus (GPa) = 14.19068 28.90378 21.54723
#
# Velocity S-wave (km/s) = 2.47154 3.52731 3.04553
# Velocity P-wave (km/s) = 4.86461 5.74250 5.32169
#
# Compressibility (1/GPa) = 0.02773631
#
# Stress axis : x y z
#
# Youngs Moduli (GPa) = 66.83826 79.74924 80.85713
#
# Poissons Ratio (x) = 0.02544 0.17938
# Poissons Ratio (y) = 0.02133 0.28530
# Poissons Ratio (z) = 0.14828 0.28139
#
# Static dielectric constant tensor:
#      x y z
#    x 1.865650 0.000000 -0.046520 
#    y 0.000000 1.886780 0.000000 
#    z -0.046520 0.000000 1.941340 
# 
# From -- ./inp_files/225499.got.cif
#   From: 2010.05.17/outbox.cif.g08.bks.cpg/sg15_113_cif.got.tgz:225499.got - 2010.06.03 18:47:42.
