data_PCOD9260482
_publ_section_title
;
Structure prediction by ZEFSAII (Michael W. Deem and Ramdas Pophale) SiO2 
 PCOD9260482
Probable space group: C 2/C
;
_chemical_formula_sum "Si O2"
_cell_formula_units_Z 56
_cell_length_a 23.548455
_cell_length_b 6.781902
_cell_length_c 19.590713
_cell_angle_alpha 90.000000
_cell_angle_beta 136.546168
_cell_angle_gamma 90.000000
_cell_volume 2151.826785
_symmetry_space_group_name_H-M "C 2/C"
_symmetry_group_IT_number 15
_symmetry_cell_setting 'monoclinic'
loop_
_space_group_symop_operation_xyz
x,y,z
-x,y,1/2-z
-x,-y,-z
x,-y,1/2+z
1/2+x,1/2+y,z
1/2-x,1/2+y,1/2-z
1/2-x,1/2-y,-z
1/2+x,1/2-y,1/2+z
loop_
_atom_site_type_symbol
_atom_site_label
_atom_site_fract_x
_atom_site_fract_y
_atom_site_fract_z
Si Si1 0.430920 0.628860 0.975649
Si Si2 0.801199 0.392437 0.805908
Si Si3 0.822687 0.992826 0.503283
Si Si4 0.143620 0.300383 0.346394
Si Si5 0.429932 0.203255 0.233605
Si Si6 0.444841 0.091371 0.857064
Si Si7 0.254744 0.681344 0.635017
O O1 0.395069 0.538947 0.012845
O O2 0.477162 0.828618 0.036775
O O3 0.500000 0.500000 0.000000
O O4 0.353093 0.692794 0.863003
O O5 0.766267 0.475676 0.846615
O O6 0.867254 0.552090 0.837500
O O7 0.748250 0.335185 0.693195
O O8 0.850201 0.876430 0.595207
O O9 0.735853 0.880720 0.410980
O O10 0.800340 0.224753 0.473748
O O11 0.098388 0.503006 0.332073
O O12 0.500000 0.305198 0.250000
O O13 0.464471 0.109930 0.333974
O O14 0.347145 0.309664 0.186076
O O15 0.409801 0.239121 0.768199
#
# Coordination Sequence:
#
# PCOD9260482 Si02
#       7
#     8   8   8   8   8   8   8
#     4  12  25  38  63  99 134 180 225 292 353 426
#     4  11  22  41  62  96 138 180 238 284 355 426
#     4  10  18  37  63  98 132 172 239 281 341 427
#     4   8  18  34  64  97 129 181 236 281 343 420
#     4   8  15  32  60  96 130 181 228 281 349 410
#     4   9  20  37  61  96 132 185 230 287 355 405
#     4  10  21  37  65  99 132 183 231 299 348 418
#
# _framework density 26.024398999999999
#
# number of rings (size 3 to 8) (size 9 to 14) (size 15 to 20)
#    0.857    1.429    1.429    3.000    0.000    0.000 
#    0.000    0.000    0.000   22.286    0.000    4.000 
#    0.000    0.000    0.000    0.000    0.000    0.000 
#
# Total GULP energy -156441.623265 kJ/mol
# GULP energy per Si atom -5587.200831 kJ/mol
# Density = 2.596517 g / cm^3
# Si number density = 26.024399 Si / 1000 Ang^3
#
#
#
# Elastic Constant Matrix: (Units=GPa)
#
#
# Indices 1 2 3 4 5 6 
#
# 1 175.0161 58.4807 4.5483 0.0000 7.0447 0.0000
# 2 58.4807 65.6259 37.9854 0.0001 -9.4341 0.0002
# 3 4.5483 37.9854 61.8481 0.0000 -20.2835 0.0000
# 4 0.0000 0.0001 0.0000 36.1476 0.0000 -2.2499
# 5 7.0447 -9.4341 -20.2835 0.0000 28.3491 0.0000
# 6 0.0000 0.0002 0.0000 -2.2499 0.0000 53.4351
#
#
#
# Elastic Compliance Matrix: (Units=1/GPa)
#
#
# Indices 1 2 3 4 5 6 
#
# 1 0.009960 -0.012963 0.006536 0.000000 -0.002112 0.000000
# 2 -0.012963 0.040751 -0.024265 0.000000 -0.000579 0.000000
# 3 0.006536 -0.024265 0.035813 0.000000 0.015925 0.000000
# 4 0.000000 0.000000 0.000000 0.027737 0.000000 0.001168
# 5 -0.002112 -0.000579 0.015925 0.000000 0.047001 0.000000
# 6 0.000000 0.000000 0.000000 0.001168 0.000000 0.018763
#
#
# Mechanical properties :
#
#
# Convention : Reuss Voigt Hill
#
# Bulk Modulus (GPa) = 39.77385 56.05765 47.91575
# Shear Modulus (GPa) = 20.01682 37.01806 28.51744
#
# Velocity S-wave (km/s) = 2.77637 3.77561 3.31387
# Velocity P-wave (km/s) = 5.05907 6.37136 5.75275
#
# Compressibility (1/GPa) = 0.02514215
#
# Stress axis : x y z
#
# Youngs Moduli (GPa) = 100.39760 24.53926 27.92250
#
# Poissons Ratio (x) = 0.31810 -0.18251
# Poissons Ratio (y) = 1.30144 0.67753
# Poissons Ratio (z) = -0.65622 0.59544
#
# Static dielectric constant tensor:
#      x y z
#    x 2.143380 0.000000 -0.013480 
#    y 0.000000 2.147900 0.000000 
#    z -0.013480 0.000000 2.015900 
# 
# From -- ./inp_files/251961.got.cif
#   From: 2010.05.17/outbox.cif.g08.bks.cpg/sg15_126_cif.got.tgz:251961.got - 2010.06.03 18:47:42.
