data_PCOD9260912
_publ_section_title
;
Structure prediction by ZEFSAII (Michael W. Deem and Ramdas Pophale) SiO2 
 PCOD9260912
Probable space group: C 2/C
;
_chemical_formula_sum "Si O2"
_cell_formula_units_Z 48
_cell_length_a 23.332236
_cell_length_b 10.737995
_cell_length_c 13.254758
_cell_angle_alpha 90.000000
_cell_angle_beta 145.168867
_cell_angle_gamma 90.000000
_cell_volume 1896.744782
_symmetry_space_group_name_H-M "C 2/C"
_symmetry_group_IT_number 15
_symmetry_cell_setting 'monoclinic'
loop_
_space_group_symop_operation_xyz
x,y,z
-x,y,1/2-z
-x,-y,-z
x,-y,1/2+z
1/2+x,1/2+y,z
1/2-x,1/2+y,1/2-z
1/2-x,1/2-y,-z
1/2+x,1/2-y,1/2+z
loop_
_atom_site_type_symbol
_atom_site_label
_atom_site_fract_x
_atom_site_fract_y
_atom_site_fract_z
Si Si1 0.753361 0.617178 0.447250
Si Si2 0.897837 0.525778 0.045356
Si Si3 0.595387 0.554886 0.052044
Si Si4 0.044227 0.209214 0.530313
Si Si5 0.864228 0.614993 0.787274
Si Si6 0.269957 0.256044 0.836276
O O1 0.750000 0.750000 0.500000
O O2 0.840676 0.599696 0.491223
O O3 0.656756 0.563031 0.248946
O O4 0.801245 0.543741 0.612274
O O5 0.000000 0.535478 0.250000
O O6 0.910886 0.535270 0.944661
O O7 0.827368 0.643117 0.974556
O O8 0.561821 0.414111 0.986713
O O9 0.669578 0.614856 0.078126
O O10 0.502411 0.647743 0.935001
O O11 0.155358 0.261805 0.702152
O O12 0.955340 0.303534 0.371425
O O13 0.791439 0.704479 0.751585
#
# Coordination Sequence:
#
# PCOD9260912 Si02
#       6
#     8   8   8   8   8   8
#     4  12  20  42  68 102 135 184 240 298 353 429
#     4  10  23  43  66  92 140 184 231 301 360 423
#     4  10  20  37  69 100 144 178 242 287 358 435
#     4  10  18  38  70  95 138 194 223 297 355 419
#     4   9  22  41  66 105 138 177 247 288 352 433
#     4   9  19  39  62  99 142 181 229 293 354 427
#
# _framework density 25.306515000000001
#
# number of rings (size 3 to 8) (size 9 to 14) (size 15 to 20)
#    1.000    1.000    5.000    0.000    0.000    2.000 
#    0.000    1.667   11.000    2.000    0.000    0.000 
#    0.000    0.000    0.000    0.000    0.000    0.000 
#
# Total GULP energy -133787.377690 kJ/mol
# GULP energy per Si atom -5574.474070 kJ/mol
# Density = 2.524892 g / cm^3
# Si number density = 25.306515 Si / 1000 Ang^3
#
#
#
# Elastic Constant Matrix: (Units=GPa)
#
#
# Indices 1 2 3 4 5 6 
#
# 1 84.5795 48.3414 66.9762 0.0000 24.2381 0.0000
# 2 48.3414 105.8632 55.8383 0.0000 9.8567 0.0000
# 3 66.9762 55.8383 154.1838 0.0000 34.3201 0.0000
# 4 0.0000 0.0000 0.0000 25.4377 0.0000 19.5711
# 5 24.2381 9.8567 34.3201 0.0000 56.2842 0.0000
# 6 0.0000 0.0000 0.0000 19.5711 0.0000 42.8087
#
#
#
# Elastic Compliance Matrix: (Units=1/GPa)
#
#
# Indices 1 2 3 4 5 6 
#
# 1 0.021445 -0.006165 -0.006095 0.000000 -0.004439 0.000000
# 2 -0.006165 0.013467 -0.002621 0.000000 0.001895 0.000000
# 3 -0.006095 -0.002621 0.010872 0.000000 -0.003545 0.000000
# 4 0.000000 0.000000 0.000000 0.060642 0.000000 -0.027724
# 5 -0.004439 0.001895 -0.003545 0.000000 0.021509 0.000000
# 6 0.000000 0.000000 0.000000 -0.027724 0.000000 0.036034
#
#
# Mechanical properties :
#
#
# Convention : Reuss Voigt Hill
#
# Bulk Modulus (GPa) = 62.41057 76.32649 69.36853
# Shear Modulus (GPa) = 25.11660 36.47081 30.79370
#
# Velocity S-wave (km/s) = 3.15381 3.80038 3.49209
# Velocity P-wave (km/s) = 6.16258 7.03445 6.61290
#
# Compressibility (1/GPa) = 0.01602293
#
# Stress axis : x y z
#
# Youngs Moduli (GPa) = 46.63072 74.25411 91.98097
#
# Poissons Ratio (x) = 0.45774 0.56062
# Poissons Ratio (y) = 0.28746 0.24109
# Poissons Ratio (z) = 0.28421 0.19463
#
# Static dielectric constant tensor:
#      x y z
#    x 2.027520 0.000000 -0.035900 
#    y 0.000000 2.306370 0.000000 
#    z -0.035900 0.000000 2.111490 
# 
# From -- ./inp_files/222348.got.cif
#   From: 2010.05.17/outbox.cif.g08.bks.cpg/sg15_112_cif.got.tgz:222348.got - 2010.06.03 18:47:42.
