data_PCOD9260651
_publ_section_title
;
Structure prediction by ZEFSAII (Michael W. Deem and Ramdas Pophale) SiO2 
 PCOD9260651
Probable space group: C 2/C
;
_chemical_formula_sum "Si O2"
_cell_formula_units_Z 48
_cell_length_a 9.283520
_cell_length_b 26.434787
_cell_length_c 7.005806
_cell_angle_alpha 90.000000
_cell_angle_beta 91.461707
_cell_angle_gamma 90.000000
_cell_volume 1718.720496
_symmetry_space_group_name_H-M "C 2/C"
_symmetry_group_IT_number 15
_symmetry_cell_setting 'monoclinic'
loop_
_space_group_symop_operation_xyz
x,y,z
-x,y,1/2-z
-x,-y,-z
x,-y,1/2+z
1/2+x,1/2+y,z
1/2-x,1/2+y,1/2-z
1/2-x,1/2-y,-z
1/2+x,1/2-y,1/2+z
loop_
_atom_site_type_symbol
_atom_site_label
_atom_site_fract_x
_atom_site_fract_y
_atom_site_fract_z
Si Si1 0.500000 0.028092 0.250000
Si Si2 0.722631 0.347372 0.008531
Si Si3 0.019581 0.220298 0.020639
Si Si4 0.500000 0.544508 0.250000
Si Si5 0.460768 0.830650 0.473458
Si Si6 0.227239 0.454733 0.475589
Si Si7 0.681623 0.376842 0.584965
O O1 0.626353 0.992930 0.349632
O O2 0.400254 0.060898 0.383036
O O3 0.634650 0.298021 0.069442
O O4 0.727081 0.401194 0.122224
O O5 0.653967 0.365159 0.807916
O O6 0.878940 0.331585 0.944005
O O7 0.000000 0.225699 0.250000
O O8 0.087765 0.273974 0.971169
O O9 0.112463 0.170882 0.977726
O O10 0.636097 0.525448 0.392048
O O11 0.405974 0.571598 0.416887
O O12 0.500000 0.835764 0.250000
O O13 0.346513 0.872558 0.529987
#
# Coordination Sequence:
#
# PCOD9260651 Si02
#       7
#     4   8   8   4   8   8   8
#     4  10  24  42  68 105 134 168 209 290 346 414
#     4  10  20  37  62  86 120 171 222 265 318 405
#     4   9  17  36  57  84 123 166 223 271 322 380
#     4  10  20  40  74  97 128 184 235 264 322 420
#     4  11  23  32  54  93 129 165 216 281 329 372
#     4  10  22  42  68  98 135 169 219 271 348 412
#     4  10  18  38  60  85 116 175 228 259 317 392
#
# _framework density 27.927752999999999
#
# number of rings (size 3 to 8) (size 9 to 14) (size 15 to 20)
#    0.000    2.000    4.167    1.500    5.833    0.667 
#    0.000    2.500    0.000    8.000    0.000    0.000 
#    0.000    0.000    0.000    0.000    0.000    0.000 
#
# Total GULP energy -133645.772808 kJ/mol
# GULP energy per Si atom -5568.573867 kJ/mol
# Density = 2.786419 g / cm^3
# Si number density = 27.927753 Si / 1000 Ang^3
#
#
#
# Elastic Constant Matrix: (Units=GPa)
#
#
# Indices 1 2 3 4 5 6 
#
# 1 217.7847 60.2577 19.7982 0.0000 16.0216 0.0000
# 2 60.2577 102.4604 25.9500 0.0000 2.9430 0.0000
# 3 19.7982 25.9500 75.5419 0.0000 10.1085 0.0000
# 4 0.0000 0.0000 0.0000 28.8629 0.0000 -5.0369
# 5 16.0216 2.9430 10.1085 0.0000 39.5099 0.0000
# 6 0.0000 0.0000 0.0000 -5.0369 0.0000 53.6764
#
#
#
# Elastic Compliance Matrix: (Units=1/GPa)
#
#
# Indices 1 2 3 4 5 6 
#
# 1 0.005645 -0.003237 -0.000097 0.000000 -0.002023 0.000000
# 2 -0.003237 0.012547 -0.003637 0.000000 0.001309 0.000000
# 3 -0.000097 -0.003637 0.014984 0.000000 -0.003523 0.000000
# 4 0.000000 0.000000 0.000000 0.035223 0.000000 0.003305
# 5 -0.002023 0.001309 -0.003523 0.000000 0.026935 0.000000
# 6 0.000000 0.000000 0.000000 0.003305 0.000000 0.018940
#
#
# Mechanical properties :
#
#
# Convention : Reuss Voigt Hill
#
# Bulk Modulus (GPa) = 51.99001 67.53321 59.76161
# Shear Modulus (GPa) = 37.13952 43.72858 40.43405
#
# Velocity S-wave (km/s) = 3.65066 3.96128 3.80914
# Velocity P-wave (km/s) = 6.03540 6.71984 6.38679
#
# Compressibility (1/GPa) = 0.01923447
#
# Stress axis : x y z
#
# Youngs Moduli (GPa) = 177.14714 79.69871 66.73852
#
# Poissons Ratio (x) = 0.25801 0.00645
# Poissons Ratio (y) = 0.57347 0.24272
# Poissons Ratio (z) = 0.01712 0.28986
#
# Static dielectric constant tensor:
#      x y z
#    x 2.440110 0.000000 0.358150 
#    y 0.000000 2.376230 0.000000 
#    z 0.358150 0.000000 2.556010 
# 
# From -- ./inp_files/26160.got.cif
#   From: 2010.05.17/outbox.cif.g08.bks.cpg/sg15_14_cif.got.tgz:26160.got - 2010.06.03 18:47:42.
