data_PCOD9260491
_publ_section_title
;
Structure prediction by ZEFSAII (Michael W. Deem and Ramdas Pophale) SiO2 
 PCOD9260491
Probable space group: C 2/C
;
_chemical_formula_sum "Si O2"
_cell_formula_units_Z 56
_cell_length_a 12.435599
_cell_length_b 16.395944
_cell_length_c 21.029991
_cell_angle_alpha 90.000000
_cell_angle_beta 41.279643
_cell_angle_gamma 90.000000
_cell_volume 2828.860638
_symmetry_space_group_name_H-M "C 2/C"
_symmetry_group_IT_number 15
_symmetry_cell_setting 'monoclinic'
loop_
_space_group_symop_operation_xyz
x,y,z
-x,y,1/2-z
-x,-y,-z
x,-y,1/2+z
1/2+x,1/2+y,z
1/2-x,1/2+y,1/2-z
1/2-x,1/2-y,-z
1/2+x,1/2-y,1/2+z
loop_
_atom_site_type_symbol
_atom_site_label
_atom_site_fract_x
_atom_site_fract_y
_atom_site_fract_z
Si Si1 0.830540 0.531770 0.944089
Si Si2 0.330220 0.529735 0.606626
Si Si3 0.663573 0.118998 0.147811
Si Si4 0.895365 0.847489 0.189669
Si Si5 0.108220 0.749789 0.009737
Si Si6 0.127433 0.023573 0.644996
Si Si7 0.607797 0.883625 0.404492
O O1 0.771057 0.573056 0.905076
O O2 0.867619 0.438610 0.901482
O O3 0.968784 0.580107 0.920641
O O4 0.677637 0.522645 0.059395
O O5 0.500000 0.500000 0.500000
O O6 0.224786 0.449930 0.669458
O O7 0.351259 0.583685 0.658076
O O8 0.500000 0.157526 0.250000
O O9 0.815088 0.178032 0.067605
O O10 0.742488 0.835515 0.302861
O O11 0.045178 0.889618 0.161406
O O12 0.954143 0.772924 0.121215
O O13 0.068233 0.674375 0.981886
O O14 0.250000 0.750000 0.000000
O O15 0.292508 0.041292 0.609509
O O16 0.000000 0.983889 0.750000
#
# Coordination Sequence:
#
# PCOD9260491 Si02
#       7
#     8   8   8   8   8   8   8
#     4  10  20  39  59  91 119 155 204 259 303 361
#     4  10  18  37  64  87 111 153 203 258 302 349
#     4  10  21  34  61  89 111 144 205 258 294 352
#     4  11  20  40  61  85 121 160 204 248 309 371
#     4  12  23  37  56  89 125 162 200 249 305 374
#     4  10  19  34  59  88 118 161 198 248 311 363
#     4  11  24  35  60  89 128 164 196 249 322 373
#
# _framework density 19.795956
#
# number of rings (size 3 to 8) (size 9 to 14) (size 15 to 20)
#    0.857    0.571    5.714    1.286    2.000    0.000 
#    0.000    0.714    3.143    0.000    0.000    0.000 
#    0.000    0.000    0.000    0.000    0.000    0.000 
#
# Total GULP energy -155883.391719 kJ/mol
# GULP energy per Si atom -5567.263990 kJ/mol
# Density = 1.975090 g / cm^3
# Si number density = 19.795956 Si / 1000 Ang^3
#
#
#
# Elastic Constant Matrix: (Units=GPa)
#
#
# Indices 1 2 3 4 5 6 
#
# 1 109.2667 15.9611 -7.0045 0.0001 3.2604 0.0000
# 2 15.9611 22.1903 -3.1311 0.0000 0.8086 0.0000
# 3 -7.0045 -3.1311 78.1418 -0.0001 10.1551 0.0001
# 4 0.0001 0.0000 -0.0001 24.1480 0.0000 6.7000
# 5 3.2604 0.8086 10.1551 0.0000 25.8798 0.0000
# 6 0.0000 0.0000 0.0001 6.7000 0.0000 28.6383
#
#
#
# Elastic Compliance Matrix: (Units=1/GPa)
#
#
# Indices 1 2 3 4 5 6 
#
# 1 0.010304 -0.007246 0.000814 0.000000 -0.001391 0.000000
# 2 -0.007246 0.050540 0.001541 0.000000 -0.001271 0.000000
# 3 0.000814 0.001541 0.013647 0.000000 -0.005506 0.000000
# 4 0.000000 0.000000 0.000000 0.044286 0.000000 -0.010361
# 5 -0.001391 -0.001271 -0.005506 0.000000 0.041016 0.000000
# 6 0.000000 0.000000 0.000000 -0.010361 0.000000 0.037342
#
#
# Mechanical properties :
#
#
# Convention : Reuss Voigt Hill
#
# Bulk Modulus (GPa) = 15.45365 24.58331 20.01848
# Shear Modulus (GPa) = 21.88300 29.31810 25.60055
#
# Velocity S-wave (km/s) = 3.32840 3.85257 3.60004
# Velocity P-wave (km/s) = 4.75336 5.67759 5.23591
#
# Compressibility (1/GPa) = 0.06470964
#
# Stress axis : x y z
#
# Youngs Moduli (GPa) = 97.04902 19.78618 73.27353
#
# Poissons Ratio (x) = 0.14337 -0.05965
# Poissons Ratio (y) = 0.70321 -0.11290
# Poissons Ratio (z) = -0.07901 -0.03049
#
# Static dielectric constant tensor:
#      x y z
#    x 1.728700 0.000000 -0.005400 
#    y 0.000000 1.752810 0.000000 
#    z -0.005400 0.000000 1.803640 
# 
# From -- ./inp_files/240208.got.cif
#   From: 2010.05.17/outbox.cif.g08.bks.cpg/sg15_121_cif.got.tgz:240208.got - 2010.06.03 18:47:42.
