data_PCOD9260773
_publ_section_title
;
Structure prediction by ZEFSAII (Michael W. Deem and Ramdas Pophale) SiO2 
 PCOD9260773
Probable space group: C 2/C
;
_chemical_formula_sum "Si O2"
_cell_formula_units_Z 52
_cell_length_a 13.501733
_cell_length_b 12.483988
_cell_length_c 13.235306
_cell_angle_alpha 90.000000
_cell_angle_beta 120.547148
_cell_angle_gamma 90.000000
_cell_volume 1921.261697
_symmetry_space_group_name_H-M "C 2/C"
_symmetry_group_IT_number 15
_symmetry_cell_setting 'monoclinic'
loop_
_space_group_symop_operation_xyz
x,y,z
-x,y,1/2-z
-x,-y,-z
x,-y,1/2+z
1/2+x,1/2+y,z
1/2-x,1/2+y,1/2-z
1/2-x,1/2-y,-z
1/2+x,1/2-y,1/2+z
loop_
_atom_site_type_symbol
_atom_site_label
_atom_site_fract_x
_atom_site_fract_y
_atom_site_fract_z
Si Si1 0.788572 0.590513 0.003045
Si Si2 0.276492 0.703650 0.719368
Si Si3 0.530820 0.127471 0.634372
Si Si4 0.500000 0.068821 0.250000
Si Si5 0.841914 0.389093 0.886949
Si Si6 0.889258 0.197725 0.134529
Si Si7 0.624102 0.553026 0.559102
O O1 0.707475 0.529884 0.042941
O O2 0.902858 0.616923 0.126335
O O3 0.725745 0.679273 0.901334
O O4 0.817460 0.506612 0.925165
O O5 0.141716 0.701944 0.682937
O O6 0.332809 0.816812 0.780081
O O7 0.333412 0.605840 0.813792
O O8 0.560322 0.013738 0.699023
O O9 0.469383 0.127170 0.495250
O O10 0.422777 0.177748 0.641572
O O11 0.732570 0.329872 0.883891
O O12 0.000000 0.148506 0.250000
O O13 0.889447 0.152024 0.023063
O O14 0.500000 0.500000 0.500000
#
# Coordination Sequence:
#
# PCOD9260773 Si02
#       7
#     8   8   8   4   8   8   8
#     4  10  25  42  70 106 145 183 235 304 359 435
#     4  12  23  41  68 108 138 187 234 292 374 421
#     4  11  19  34  64  99 134 173 228 296 349 410
#     4  10  18  38  64 102 142 172 224 296 366 412
#     4  10  22  38  65 102 142 178 236 295 355 423
#     4  11  20  35  66 101 135 173 232 304 357 405
#     4  11  26  42  64 102 143 185 235 296 363 443
#
# _framework density 27.065546999999999
#
# number of rings (size 3 to 8) (size 9 to 14) (size 15 to 20)
#    0.000    1.231    5.385    0.462    6.462    2.462 
#    0.000    0.000    0.000    3.692    0.000    0.000 
#    0.000    0.000    0.000    0.000    0.000    0.000 
#
# Total GULP energy -145212.507798 kJ/mol
# GULP energy per Si atom -5585.096454 kJ/mol
# Density = 2.700394 g / cm^3
# Si number density = 27.065547 Si / 1000 Ang^3
#
#
#
# Elastic Constant Matrix: (Units=GPa)
#
#
# Indices 1 2 3 4 5 6 
#
# 1 84.6272 34.1077 62.0277 0.0000 12.7043 0.0000
# 2 34.1077 114.0982 87.7861 0.0000 16.3392 0.0000
# 3 62.0277 87.7861 270.7991 0.0000 11.3924 0.0000
# 4 0.0000 0.0000 0.0000 62.5093 0.0000 1.2714
# 5 12.7043 16.3392 11.3924 0.0000 58.9480 0.0000
# 6 0.0000 0.0000 0.0000 1.2714 0.0000 32.3501
#
#
#
# Elastic Compliance Matrix: (Units=1/GPa)
#
#
# Indices 1 2 3 4 5 6 
#
# 1 0.014927 -0.002128 -0.002640 0.000000 -0.002117 0.000000
# 2 -0.002128 0.012365 -0.003424 0.000000 -0.002307 0.000000
# 3 -0.002640 -0.003424 0.005387 0.000000 0.000477 0.000000
# 4 0.000000 0.000000 0.000000 0.016010 0.000000 -0.000629
# 5 -0.002117 -0.002307 0.000477 0.000000 0.017968 0.000000
# 6 0.000000 0.000000 0.000000 -0.000629 0.000000 0.030937
#
#
# Mechanical properties :
#
#
# Convention : Reuss Voigt Hill
#
# Bulk Modulus (GPa) = 61.36561 93.04083 77.20322
# Shear Modulus (GPa) = 41.87241 49.80169 45.83705
#
# Velocity S-wave (km/s) = 3.93755 4.29422 4.11975
# Velocity P-wave (km/s) = 6.58746 7.68361 7.15655
#
# Compressibility (1/GPa) = 0.01629577
#
# Stress axis : x y z
#
# Youngs Moduli (GPa) = 66.99232 80.87188 185.61496
#
# Poissons Ratio (x) = 0.17206 0.49009
# Poissons Ratio (y) = 0.14253 0.63556
# Poissons Ratio (z) = 0.17688 0.27691
#
# Static dielectric constant tensor:
#      x y z
#    x 2.178200 0.000000 -0.172430 
#    y 0.000000 2.298670 0.000000 
#    z -0.172430 0.000000 2.457220 
# 
# From -- ./inp_files/154070.got.cif
#   From: 2010.05.17/outbox.cif.g08.bks.cpg/sg15_78_cif.got.tgz:154070.got - 2010.06.03 18:47:42.
