data_PCOD9260689
_publ_section_title
;
Structure prediction by ZEFSAII (Michael W. Deem and Ramdas Pophale) SiO2 
 PCOD9260689
Probable space group: C 2/C
;
_chemical_formula_sum "Si O2"
_cell_formula_units_Z 64
_cell_length_a 15.229538
_cell_length_b 12.777449
_cell_length_c 25.744154
_cell_angle_alpha 90.000000
_cell_angle_beta 146.202706
_cell_angle_gamma 90.000000
_cell_volume 2786.663351
_symmetry_space_group_name_H-M "C 2/C"
_symmetry_group_IT_number 15
_symmetry_cell_setting 'monoclinic'
loop_
_space_group_symop_operation_xyz
x,y,z
-x,y,1/2-z
-x,-y,-z
x,-y,1/2+z
1/2+x,1/2+y,z
1/2-x,1/2+y,1/2-z
1/2-x,1/2-y,-z
1/2+x,1/2-y,1/2+z
loop_
_atom_site_type_symbol
_atom_site_label
_atom_site_fract_x
_atom_site_fract_y
_atom_site_fract_z
Si Si1 0.130894 0.269512 0.152402
Si Si2 0.209258 0.792067 0.537860
Si Si3 0.144460 0.406288 0.510857
Si Si4 0.928930 0.872987 0.347134
Si Si5 0.351095 0.585749 0.640329
Si Si6 0.447940 0.447111 0.920768
Si Si7 0.299091 0.026247 0.572830
Si Si8 0.928144 0.257377 0.159685
O O1 0.302649 0.309974 0.252456
O O2 0.135395 0.162961 0.122010
O O3 0.041522 0.250645 0.164579
O O4 0.023796 0.350970 0.067513
O O5 0.250000 0.750000 0.500000
O O6 0.271808 0.699719 0.604583
O O7 0.021523 0.810598 0.438297
O O8 0.288636 0.906013 0.586528
O O9 0.223474 0.494216 0.585743
O O10 0.129520 0.468832 0.449273
O O11 0.272750 0.312184 0.571842
O O12 0.063741 0.916267 0.374551
O O13 0.851839 0.970414 0.339005
O O14 0.500000 0.572724 0.750000
O O15 0.500000 0.500000 0.000000
O O16 0.619678 0.433019 0.979867
O O17 0.383937 0.119757 0.645041
O O18 0.000000 0.220464 0.250000
#
# Coordination Sequence:
#
# PCOD9260689 Si02
#       8
#     8   8   8   8   8   8   8   8
#     4  11  23  40  63  93 129 173 218 271 340 393
#     4   9  18  38  62  81 127 168 209 257 323 380
#     4  11  19  40  66  85 125 173 215 266 325 390
#     4  10  23  40  59  94 129 162 213 276 326 385
#     4  11  22  40  65  92 123 174 221 263 326 395
#     4  11  22  40  62  86 130 169 206 268 335 384
#     4  10  18  38  61  86 117 166 215 261 312 382
#     4  11  22  36  63  95 126 163 225 272 323 392
#
# _framework density 22.966533999999999
#
# number of rings (size 3 to 8) (size 9 to 14) (size 15 to 20)
#    0.000    1.500    6.250    1.125    1.750    3.500 
#    2.250    0.625    0.000    0.000    0.000    0.000 
#    0.000    0.000    0.000    0.000    0.000    0.000 
#
# Total GULP energy -178534.848783 kJ/mol
# GULP energy per Si atom -5579.214024 kJ/mol
# Density = 2.291426 g / cm^3
# Si number density = 22.966534 Si / 1000 Ang^3
#
#
#
# Elastic Constant Matrix: (Units=GPa)
#
#
# Indices 1 2 3 4 5 6 
#
# 1 50.1768 26.3330 10.8422 0.0000 -3.6888 0.0000
# 2 26.3330 188.7935 67.7411 0.0000 -4.8875 0.0000
# 3 10.8422 67.7411 109.1187 0.0002 -15.1024 0.0000
# 4 0.0000 0.0000 0.0002 30.7986 0.0000 -4.0897
# 5 -3.6888 -4.8875 -15.1024 0.0000 22.8529 0.0000
# 6 0.0000 0.0000 0.0000 -4.0897 0.0000 25.6208
#
#
#
# Elastic Compliance Matrix: (Units=1/GPa)
#
#
# Indices 1 2 3 4 5 6 
#
# 1 0.021690 -0.002987 0.000105 0.000000 0.002932 0.000000
# 2 -0.002987 0.007272 -0.004478 0.000000 -0.001887 0.000000
# 3 0.000105 -0.004478 0.012992 0.000000 0.007645 0.000000
# 4 0.000000 0.000000 0.000000 0.033172 0.000000 0.005295
# 5 0.002932 -0.001887 0.007645 0.000000 0.048880 0.000000
# 6 0.000000 0.000000 0.000000 0.005295 0.000000 0.039876
#
#
# Mechanical properties :
#
#
# Convention : Reuss Voigt Hill
#
# Bulk Modulus (GPa) = 36.72070 61.99128 49.35599
# Shear Modulus (GPa) = 26.64096 32.06597 29.35346
#
# Velocity S-wave (km/s) = 3.40956 3.74063 3.57893
# Velocity P-wave (km/s) = 5.61459 6.76070 6.21412
#
# Compressibility (1/GPa) = 0.02723260
#
# Stress axis : x y z
#
# Youngs Moduli (GPa) = 46.10420 137.52267 76.96877
#
# Poissons Ratio (x) = 0.41080 -0.00808
# Poissons Ratio (y) = 0.13772 0.34470
# Poissons Ratio (z) = -0.00484 0.61589
#
# Static dielectric constant tensor:
#      x y z
#    x 1.993780 0.000000 -0.021120 
#    y 0.000000 1.902330 0.000000 
#    z -0.021120 0.000000 1.851270 
# 
# From -- ./inp_files/316221.got.cif
#   From: 2010.05.17/outbox.cif.g08.bks.cpg/sg15_159_cif.got.tgz:316221.got - 2010.06.03 18:47:42.
