data_PCOD9260110
_publ_section_title
;
Structure prediction by ZEFSAII (Michael W. Deem and Ramdas Pophale) SiO2 
 PCOD9260110
Probable space group: C 2/C
;
_chemical_formula_sum "Si O2"
_cell_formula_units_Z 44
_cell_length_a 26.509250
_cell_length_b 12.195530
_cell_length_c 13.268634
_cell_angle_alpha 90.000000
_cell_angle_beta 146.814622
_cell_angle_gamma 90.000000
_cell_volume 2347.951861
_symmetry_space_group_name_H-M "C 2/C"
_symmetry_group_IT_number 15
_symmetry_cell_setting 'monoclinic'
loop_
_space_group_symop_operation_xyz
x,y,z
-x,y,1/2-z
-x,-y,-z
x,-y,1/2+z
1/2+x,1/2+y,z
1/2-x,1/2+y,1/2-z
1/2-x,1/2-y,-z
1/2+x,1/2-y,1/2+z
loop_
_atom_site_type_symbol
_atom_site_label
_atom_site_fract_x
_atom_site_fract_y
_atom_site_fract_z
Si Si1 0.632712 0.932235 0.066135
Si Si2 0.206821 0.632798 0.903025
Si Si3 0.501273 0.857303 0.137164
Si Si4 0.000000 0.747361 0.250000
Si Si5 0.258691 0.078824 0.948042
Si Si6 0.600970 0.750036 0.720424
O O1 0.684646 0.889129 0.250272
O O2 0.573535 0.831778 0.925443
O O3 0.705523 0.957475 0.101037
O O4 0.563012 0.033374 0.969193
O O5 0.269157 0.531817 0.042491
O O6 0.107740 0.618524 0.791776
O O7 0.250000 0.750000 0.000000
O O8 0.500000 0.812024 0.250000
O O9 0.463995 0.784748 0.981373
O O10 0.050304 0.798638 0.235881
O O11 0.342385 0.141993 0.146401
O O12 0.176424 0.164961 0.807194
#
# Coordination Sequence:
#
# PCOD9260110 Si02
#       6
#     8   8   8   4   8   8
#     4  11  20  36  65  91 124 157 218 263 304 367
#     4  12  25  40  60  94 129 164 210 265 317 369
#     4  12  21  38  66  92 123 166 208 259 310 372
#     4  10  18  36  62  90 116 170 202 260 304 376
#     4  10  22  39  61  95 125 163 206 265 314 365
#     4  10  21  38  65  93 125 160 214 252 315 377
#
# _framework density 18.739735
#
# number of rings (size 3 to 8) (size 9 to 14) (size 15 to 20)
#    0.000    1.091    6.364    1.636    2.545    0.000 
#    3.273    0.909    2.000    0.000    0.000    0.000 
#    0.000    0.000    0.000    0.000    0.000    0.000 
#
# Total GULP energy -122683.229123 kJ/mol
# GULP energy per Si atom -5576.510415 kJ/mol
# Density = 1.869708 g / cm^3
# Si number density = 18.739735 Si / 1000 Ang^3
#
#
#
# Elastic Constant Matrix: (Units=GPa)
#
#
# Indices 1 2 3 4 5 6 
#
# 1 93.9543 31.2226 52.2101 0.0000 -18.7612 0.0000
# 2 31.2226 82.9655 30.9944 0.0000 -3.2491 0.0000
# 3 52.2101 30.9944 71.4551 0.0000 -22.2409 0.0000
# 4 0.0000 0.0000 0.0000 24.4544 0.0000 10.3976
# 5 -18.7612 -3.2491 -22.2409 0.0000 33.1832 0.0000
# 6 0.0000 0.0000 0.0000 10.3976 0.0000 16.4360
#
#
#
# Elastic Compliance Matrix: (Units=1/GPa)
#
#
# Indices 1 2 3 4 5 6 
#
# 1 0.018408 -0.002489 -0.011634 0.000000 0.002366 0.000000
# 2 -0.002489 0.015050 -0.005925 0.000000 -0.003905 0.000000
# 3 -0.011634 -0.005925 0.028858 0.000000 0.012184 0.000000
# 4 0.000000 0.000000 0.000000 0.055939 0.000000 -0.035387
# 5 0.002366 -0.003905 0.012184 0.000000 0.039257 0.000000
# 6 0.000000 0.000000 0.000000 -0.035387 0.000000 0.083229
#
#
# Mechanical properties :
#
#
# Convention : Reuss Voigt Hill
#
# Bulk Modulus (GPa) = 45.00399 53.02544 49.01472
# Shear Modulus (GPa) = 17.34638 23.74459 20.54548
#
# Velocity S-wave (km/s) = 3.04574 3.56346 3.31472
# Velocity P-wave (km/s) = 6.03624 6.72964 6.39235
#
# Compressibility (1/GPa) = 0.02222025
#
# Stress axis : x y z
#
# Youngs Moduli (GPa) = 54.32392 66.44334 34.65215
#
# Poissons Ratio (x) = 0.16535 0.40316
# Poissons Ratio (y) = 0.13519 0.20533
# Poissons Ratio (z) = 0.63202 0.39370
#
# Static dielectric constant tensor:
#      x y z
#    x 1.728890 0.000000 -0.012380 
#    y 0.000000 1.624190 0.000000 
#    z -0.012380 0.000000 1.695430 
# 
# From -- ./inp_files/94994.got.cif
#   From: 2010.05.17/outbox.cif.g08.bks.cpg/sg15_48_cif.got.tgz:94994.got - 2010.06.03 18:47:42.
