data_PCOD9260062
_publ_section_title
;
Structure prediction by ZEFSAII (Michael W. Deem and Ramdas Pophale) SiO2 
 PCOD9260062
Probable space group: C 2/C
;
_chemical_formula_sum "Si O2"
_cell_formula_units_Z 44
_cell_length_a 14.964584
_cell_length_b 18.202411
_cell_length_c 9.808649
_cell_angle_alpha 90.000000
_cell_angle_beta 38.033340
_cell_angle_gamma 90.000000
_cell_volume 1646.144673
_symmetry_space_group_name_H-M "C 2/C"
_symmetry_group_IT_number 15
_symmetry_cell_setting 'monoclinic'
loop_
_space_group_symop_operation_xyz
x,y,z
-x,y,1/2-z
-x,-y,-z
x,-y,1/2+z
1/2+x,1/2+y,z
1/2-x,1/2+y,1/2-z
1/2-x,1/2-y,-z
1/2+x,1/2-y,1/2+z
loop_
_atom_site_type_symbol
_atom_site_label
_atom_site_fract_x
_atom_site_fract_y
_atom_site_fract_z
Si Si1 0.424989 0.718166 0.535686
Si Si2 0.697246 0.579725 0.931426
Si Si3 0.011713 0.369136 0.035225
Si Si4 0.694722 0.663616 0.383865
Si Si5 0.687749 0.452730 0.133190
Si Si6 0.500000 0.904777 0.750000
O O1 0.359029 0.662896 0.504803
O O2 0.507752 0.789215 0.380232
O O3 0.545656 0.678579 0.484509
O O4 0.285445 0.758470 0.779070
O O5 0.649035 0.553893 0.837688
O O6 0.873742 0.581476 0.730991
O O7 0.641340 0.525951 0.113638
O O8 0.183633 0.386491 0.844471
O O9 0.003965 0.357752 0.880875
O O10 0.664869 0.617822 0.558755
O O11 0.860959 0.453939 0.928755
#
# Coordination Sequence:
#
# PCOD9260062 Si02
#       6
#     8   8   8   8   8   4
#     4  10  18  36  61  94 130 163 210 282 319 374
#     4  11  22  40  65  95 134 167 216 254 336 379
#     4   8  16  32  56  91 119 160 207 272 307 364
#     4   9  19  35  57  93 127 165 213 268 326 367
#     4  10  23  38  60  98 129 174 206 267 318 399
#     4   8  16  32  56  86 122 152 206 254 310 354
#
# _framework density 26.729120000000002
#
# number of rings (size 3 to 8) (size 9 to 14) (size 15 to 20)
#    1.091    1.455    1.818    0.000    0.000   10.182 
#    0.000    0.000    0.000    1.091    4.727    0.000 
#    0.000    0.000    0.000    0.000    0.000    0.000 
#
# Total GULP energy -122716.738466 kJ/mol
# GULP energy per Si atom -5578.033567 kJ/mol
# Density = 2.666828 g / cm^3
# Si number density = 26.729120 Si / 1000 Ang^3
#
#
#
# Elastic Constant Matrix: (Units=GPa)
#
#
# Indices 1 2 3 4 5 6 
#
# 1 97.5812 54.3514 53.5126 -0.0004 -13.7068 0.0004
# 2 54.3514 116.1150 30.7573 -0.0003 18.2568 0.0001
# 3 53.5126 30.7573 88.0889 0.0009 -14.9594 0.0013
# 4 -0.0004 -0.0003 0.0009 -54.6607 -0.0003 -33.5332
# 5 -13.7068 18.2568 -14.9594 -0.0003 59.4698 -0.0008
# 6 0.0004 0.0001 0.0013 -33.5332 -0.0008 16.5968
#
#
#
# Elastic Compliance Matrix: (Units=1/GPa)
#
#
# Indices 1 2 3 4 5 6 
#
# 1 0.020022 -0.007861 -0.008591 0.000000 0.004867 0.000000
# 2 -0.007861 0.013537 -0.001007 0.000000 -0.006221 0.000000
# 3 -0.008591 -0.001007 0.017382 0.000000 0.002701 0.000000
# 4 0.000000 0.000000 0.000000 -0.008169 0.000000 -0.016505
# 5 0.004867 -0.006221 0.002701 0.000000 0.020526 0.000000
# 6 0.000000 0.000000 0.000000 -0.016505 0.000000 0.026904
#
#
# Mechanical properties :
#
#
# Convention : Reuss Voigt Hill
#
# Bulk Modulus (GPa) = 62.42179 64.33640 63.37910
# Shear Modulus (GPa) = 38.32530 15.15877 26.74203
#
# Velocity S-wave (km/s) = 3.79072 2.38402 3.16647
# Velocity P-wave (km/s) = 6.52407 5.63029 6.09359
#
# Compressibility (1/GPa) = 0.01602005
#
# Stress axis : x y z
#
# Youngs Moduli (GPa) = 49.94617 73.87248 57.53120
#
# Poissons Ratio (x) = 0.58073 0.49428
# Poissons Ratio (y) = 0.39264 0.05796
# Poissons Ratio (z) = 0.42911 0.07442
#
# Static dielectric constant tensor:
#      x y z
#    x 2.114540 0.000000 -0.020210 
#    y 0.000000 2.120870 0.000000 
#    z -0.020210 0.000000 2.099000 
# 
# From -- ./inp_files/98140.got.cif
#   From: 2010.05.17/outbox.cif.g08.bks.cpg/sg15_50_cif.got.tgz:98140.got - 2010.06.03 18:47:42.
