data_PCOD9260447
_publ_section_title
;
Structure prediction by ZEFSAII (Michael W. Deem and Ramdas Pophale) SiO2 
 PCOD9260447
Probable space group: C 2/C
;
_chemical_formula_sum "Si O2"
_cell_formula_units_Z 40
_cell_length_a 17.057145
_cell_length_b 22.832439
_cell_length_c 9.650556
_cell_angle_alpha 90.000000
_cell_angle_beta 31.757635
_cell_angle_gamma 90.000000
_cell_volume 1978.184636
_symmetry_space_group_name_H-M "C 2/C"
_symmetry_group_IT_number 15
_symmetry_cell_setting 'monoclinic'
loop_
_space_group_symop_operation_xyz
x,y,z
-x,y,1/2-z
-x,-y,-z
x,-y,1/2+z
1/2+x,1/2+y,z
1/2-x,1/2+y,1/2-z
1/2-x,1/2-y,-z
1/2+x,1/2-y,1/2+z
loop_
_atom_site_type_symbol
_atom_site_label
_atom_site_fract_x
_atom_site_fract_y
_atom_site_fract_z
Si Si1 0.806922 0.520988 0.289593
Si Si2 0.252745 0.382607 0.117654
Si Si3 0.486121 0.344371 0.986186
Si Si4 0.500000 0.999286 0.750000
Si Si5 0.584808 0.221653 0.767204
Si Si6 0.500000 0.410886 0.250000
O O1 0.788731 0.450452 0.319517
O O2 0.896989 0.535712 0.295178
O O3 0.646632 0.549502 0.528848
O O4 0.895040 0.534829 0.014640
O O5 0.114636 0.339330 0.298566
O O6 0.337996 0.364748 0.129448
O O7 0.375456 0.369095 0.813521
O O8 0.495549 0.274032 0.974505
O O9 0.496941 0.371372 0.119456
O O10 0.500000 0.211832 0.750000
O O11 0.750000 0.250000 0.500000
#
# Coordination Sequence:
#
# PCOD9260447 Si02
#       6
#     8   8   8   4   8   4
#     4  11  23  41  62  93 126 175 210 267 317 387
#     4  10  20  36  65  88 121 165 218 260 317 378
#     4  10  20  37  59  96 121 160 217 273 303 370
#     4  10  24  42  55  88 137 160 212 258 328 384
#     4  10  18  37  62  91 120 160 218 260 310 380
#     4  12  24  40  69  92 133 170 220 264 314 374
#
# _framework density 20.220559000000002
#
# number of rings (size 3 to 8) (size 9 to 14) (size 15 to 20)
#    0.000    1.600    4.000    3.600    1.400    2.400 
#    3.600    2.000    0.000    0.000    0.000    0.000 
#    0.000    0.000    0.000    0.000    0.000    0.000 
#
# Total GULP energy -111686.504620 kJ/mol
# GULP energy per Si atom -5584.325231 kJ/mol
# Density = 2.017454 g / cm^3
# Si number density = 20.220559 Si / 1000 Ang^3
#
#
#
# Elastic Constant Matrix: (Units=GPa)
#
#
# Indices 1 2 3 4 5 6 
#
# 1 205.5168 71.6691 70.0112 0.0004 3.2156 -0.0011
# 2 71.6691 140.9556 15.5948 0.0011 1.8057 -0.0008
# 3 70.0112 15.5948 63.0217 0.0021 1.7375 -0.0020
# 4 0.0004 0.0011 0.0021 0.8621 -0.0010 -6.6264
# 5 3.2156 1.8057 1.7375 -0.0010 33.5439 0.0012
# 6 -0.0011 -0.0008 -0.0020 -6.6264 0.0012 31.8956
#
#
#
# Elastic Compliance Matrix: (Units=1/GPa)
#
#
# Indices 1 2 3 4 5 6 
#
# 1 0.009418 -0.003731 -0.009533 -0.000034 -0.000208 -0.000007
# 2 -0.003731 0.008775 0.001979 0.000021 -0.000217 0.000005
# 3 -0.009533 0.001979 0.025983 0.000086 -0.000539 0.000019
# 4 -0.000034 0.000021 0.000086 -1.943474 -0.000047 -0.403762
# 5 -0.000208 -0.000217 -0.000539 -0.000047 0.029871 -0.000011
# 6 -0.000007 0.000005 0.000019 -0.403762 -0.000011 -0.052530
#
#
# Mechanical properties :
#
#
# Convention : Reuss Voigt Hill
#
# Bulk Modulus (GPa) = 46.28266 80.44936 63.36601
# Shear Modulus (GPa) = -2.64245 30.07490 13.71623
#
# Velocity S-wave (km/s) = -1.14440 3.86079 2.60730
# Velocity P-wave (km/s) = 4.60352 7.72959 6.36156
#
# Compressibility (1/GPa) = 0.02160636
#
# Stress axis : x y z
#
# Youngs Moduli (GPa) = 106.18235 113.95633 38.48646
#
# Poissons Ratio (x) = 0.42518 0.36690
# Poissons Ratio (y) = 0.39617 -0.07618
# Poissons Ratio (z) = 1.01226 -0.22557
#
# Static dielectric constant tensor:
#      x y z
#    x 1.791630 0.000000 -0.062500 
#    y 0.000000 1.707950 0.000000 
#    z -0.062500 0.000000 1.768390 
# 
# From -- ./inp_files/41986.got.cif
#   From: 2010.05.17/outbox.cif.g08.bks.cpg/sg15_21_cif.got.tgz:41986.got - 2010.06.03 18:47:42.
