data_PCOD9260337
_publ_section_title
;
Structure prediction by ZEFSAII (Michael W. Deem and Ramdas Pophale) SiO2 
 PCOD9260337
Probable space group: C 2/C
;
_chemical_formula_sum "Si O2"
_cell_formula_units_Z 48
_cell_length_a 18.008545
_cell_length_b 9.416428
_cell_length_c 23.938500
_cell_angle_alpha 90.000000
_cell_angle_beta 31.174457
_cell_angle_gamma 90.000000
_cell_volume 2101.330189
_symmetry_space_group_name_H-M "C 2/C"
_symmetry_group_IT_number 15
_symmetry_cell_setting 'monoclinic'
loop_
_space_group_symop_operation_xyz
x,y,z
-x,y,1/2-z
-x,-y,-z
x,-y,1/2+z
1/2+x,1/2+y,z
1/2-x,1/2+y,1/2-z
1/2-x,1/2-y,-z
1/2+x,1/2-y,1/2+z
loop_
_atom_site_type_symbol
_atom_site_label
_atom_site_fract_x
_atom_site_fract_y
_atom_site_fract_z
Si Si1 0.528352 0.645363 0.448964
Si Si2 0.215936 0.947382 0.097663
Si Si3 0.788472 0.645615 0.359265
Si Si4 0.564493 0.477289 0.086713
Si Si5 0.859324 0.597008 0.099755
Si Si6 0.528089 0.852781 0.856163
O O1 0.500000 0.500000 0.500000
O O2 0.670820 0.699757 0.388549
O O3 0.527405 0.597116 0.385507
O O4 0.402214 0.754276 0.543876
O O5 0.163682 0.786769 0.140037
O O6 0.116890 0.015578 0.114524
O O7 0.232603 0.026918 0.145775
O O8 0.376634 0.923599 0.969618
O O9 0.706158 0.546673 0.456023
O O10 0.913658 0.588170 0.239727
O O11 0.494586 0.318750 0.131242
O O12 0.859879 0.615661 0.165958
O O13 0.000000 0.500000 0.000000
#
# Coordination Sequence:
#
# PCOD9260337 Si02
#       6
#     8   8   8   8   8   8
#     4  10  18  37  57  81 114 146 192 233 279 336
#     4  10  21  36  55  85 119 147 187 239 289 338
#     4  10  19  34  59  83 111 154 198 233 274 340
#     4  10  21  36  55  85 119 147 187 239 289 338
#     4  10  18  37  57  81 114 146 192 233 279 336
#     4  10  19  34  59  83 111 154 198 233 274 340
#
# _framework density 22.842673000000001
#
# number of rings (size 3 to 8) (size 9 to 14) (size 15 to 20)
#    0.000    2.000    6.667    2.000    0.000    4.667 
#    0.000    0.000    0.000    0.000    0.000    4.667 
#    0.000    0.000    0.000    0.000    0.000    0.000 
#
# Total GULP energy -134014.611422 kJ/mol
# GULP energy per Si atom -5583.942143 kJ/mol
# Density = 2.279068 g / cm^3
# Si number density = 22.842673 Si / 1000 Ang^3
#
#
#
# Elastic Constant Matrix: (Units=GPa)
#
#
# Indices 1 2 3 4 5 6 
#
# 1 152.9415 5.1497 12.4653 0.0001 20.9501 0.0000
# 2 5.1497 50.1323 -7.7161 0.0003 1.8919 -0.0001
# 3 12.4653 -7.7161 90.3618 0.0004 6.7007 -0.0001
# 4 0.0001 0.0003 0.0004 6.9084 -0.0001 13.3066
# 5 20.9501 1.8919 6.7007 -0.0001 35.0089 0.0000
# 6 0.0000 -0.0001 -0.0001 13.3066 0.0000 33.3832
#
#
#
# Elastic Compliance Matrix: (Units=1/GPa)
#
#
# Indices 1 2 3 4 5 6 
#
# 1 0.007187 -0.000698 -0.000745 0.000000 -0.004121 0.000000
# 2 -0.000698 0.020353 0.001912 -0.000005 -0.001048 0.000002
# 3 -0.000745 0.001912 0.011470 -0.000004 -0.001853 0.000001
# 4 0.000000 -0.000005 -0.000004 0.623311 0.000003 -0.248453
# 5 -0.004121 -0.001048 -0.001853 0.000003 0.031441 -0.000001
# 6 0.000000 0.000002 0.000001 -0.248453 -0.000001 0.128989
#
#
# Mechanical properties :
#
#
# Convention : Reuss Voigt Hill
#
# Bulk Modulus (GPa) = 25.03266 34.80370 29.91818
# Shear Modulus (GPa) = 5.98710 33.96255 19.97483
#
# Velocity S-wave (km/s) = 1.62071 3.86009 2.96032
# Velocity P-wave (km/s) = 3.80589 5.92760 4.98102
#
# Compressibility (1/GPa) = 0.03994781
#
# Stress axis : x y z
#
# Youngs Moduli (GPa) = 139.13752 49.13356 87.18322
#
# Poissons Ratio (x) = 0.03427 0.06499
# Poissons Ratio (y) = 0.09705 -0.16669
# Poissons Ratio (z) = 0.10372 -0.09394
#
# Static dielectric constant tensor:
#      x y z
#    x 1.922330 0.000000 -0.021650 
#    y 0.000000 1.641280 0.000000 
#    z -0.021650 0.000000 1.895730 
# 
# From -- ./inp_files/248291.got.cif
#   From: 2010.05.17/outbox.cif.g08.bks.cpg/sg15_125_cif.got.tgz:248291.got - 2010.06.03 18:47:42.
