data_PCOD9260540
_publ_section_title
;
Structure prediction by ZEFSAII (Michael W. Deem and Ramdas Pophale) SiO2 
 PCOD9260540
Probable space group: C 2/C
;
_chemical_formula_sum "Si O2"
_cell_formula_units_Z 52
_cell_length_a 10.243830
_cell_length_b 26.533130
_cell_length_c 11.409531
_cell_angle_alpha 90.000000
_cell_angle_beta 132.192901
_cell_angle_gamma 90.000000
_cell_volume 2297.582389
_symmetry_space_group_name_H-M "C 2/C"
_symmetry_group_IT_number 15
_symmetry_cell_setting 'monoclinic'
loop_
_space_group_symop_operation_xyz
x,y,z
-x,y,1/2-z
-x,-y,-z
x,-y,1/2+z
1/2+x,1/2+y,z
1/2-x,1/2+y,1/2-z
1/2-x,1/2-y,-z
1/2+x,1/2-y,1/2+z
loop_
_atom_site_type_symbol
_atom_site_label
_atom_site_fract_x
_atom_site_fract_y
_atom_site_fract_z
Si Si1 0.909342 0.871860 0.947580
Si Si2 0.500000 0.474767 0.250000
Si Si3 0.500000 0.756610 0.250000
Si Si4 0.639431 0.461638 0.024740
Si Si5 0.878519 0.221075 0.930771
Si Si6 0.441094 0.829211 0.851897
Si Si7 0.190725 0.416669 0.030735
Si Si8 0.500000 0.992318 0.750000
O O1 0.752139 0.854315 0.767485
O O2 0.810308 0.902520 0.989382
O O3 0.056863 0.906836 0.979089
O O4 0.005991 0.822684 0.055933
O O5 0.629281 0.514212 0.390306
O O6 0.654907 0.438037 0.291770
O O7 0.331058 0.786880 0.195169
O O8 0.566954 0.723992 0.399722
O O9 0.835711 0.472787 0.183685
O O10 0.500000 0.500000 0.000000
O O11 0.924033 0.274707 0.899929
O O12 0.500000 0.824574 0.750000
O O13 0.581010 0.866922 0.996759
O O14 0.051697 0.456181 0.890777
#
# Coordination Sequence:
#
# PCOD9260540 Si02
#       8
#     8   4   4   8   8   8   8   4
#     4  11  21  40  68  87 126 178 208 271 331 380
#     4  10  22  37  62  97 121 172 207 268 314 388
#     4  10  24  44  62  82 136 170 212 274 302 386
#     4  11  21  41  63  86 129 166 214 259 323 383
#     4  11  23  43  66  93 126 178 225 262 330 387
#     4  10  21  41  68 100 130 169 214 278 339 394
#     4  10  19  39  65  95 133 158 204 271 346 383
#     4  10  18  37  66  91 123 174 205 264 318 394
#
# _framework density 22.632484000000002
#
# number of rings (size 3 to 8) (size 9 to 14) (size 15 to 20)
#    0.000    1.538    6.923    0.000    0.000    4.923 
#    1.385    6.923    0.000    0.000    0.000    0.000 
#    0.000    0.000    0.000    0.000    0.000    0.000 
#
# Total GULP energy -144992.949491 kJ/mol
# GULP energy per Si atom -5576.651904 kJ/mol
# Density = 2.258097 g / cm^3
# Si number density = 22.632484 Si / 1000 Ang^3
#
#
#
# Elastic Constant Matrix: (Units=GPa)
#
#
# Indices 1 2 3 4 5 6 
#
# 1 59.1431 39.7542 32.6833 0.0000 36.0096 0.0000
# 2 39.7542 137.6491 54.4392 0.0000 32.7879 0.0000
# 3 32.6833 54.4392 109.8834 0.0000 45.1292 0.0000
# 4 0.0000 0.0000 0.0000 13.7993 0.0000 -4.8319
# 5 36.0096 32.7879 45.1292 0.0000 46.0057 0.0000
# 6 0.0000 0.0000 0.0000 -4.8319 0.0000 3.5095
#
#
#
# Elastic Compliance Matrix: (Units=1/GPa)
#
#
# Indices 1 2 3 4 5 6 
#
# 1 0.034787 -0.004885 0.003058 0.000000 -0.026747 0.000000
# 2 -0.004885 0.010056 -0.003611 0.000000 0.000198 0.000000
# 3 0.003058 -0.003611 0.016590 0.000000 -0.016094 0.000000
# 4 0.000000 0.000000 0.000000 0.139925 0.000000 0.192649
# 5 -0.026747 0.000198 -0.016094 0.000000 0.058317 0.000000
# 6 0.000000 0.000000 0.000000 0.192649 0.000000 0.550180
#
#
# Mechanical properties :
#
#
# Convention : Reuss Voigt Hill
#
# Bulk Modulus (GPa) = 19.77954 62.26988 41.02471
# Shear Modulus (GPa) = 5.96956 24.64950 15.30953
#
# Velocity S-wave (km/s) = 1.62583 3.30376 2.60367
# Velocity P-wave (km/s) = 3.50469 6.49048 5.21580
#
# Compressibility (1/GPa) = 0.05055729
#
# Stress axis : x y z
#
# Youngs Moduli (GPa) = 28.74676 99.43846 60.27890
#
# Poissons Ratio (x) = 0.48577 -0.18435
# Poissons Ratio (y) = 0.14043 0.21765
# Poissons Ratio (z) = -0.08792 0.35905
#
# Static dielectric constant tensor:
#      x y z
#    x 2.063020 0.000000 -0.408770 
#    y 0.000000 1.814550 0.000000 
#    z -0.408770 0.000000 2.824890 
# 
# From -- ./inp_files/148150.got.cif
#   From: 2010.05.17/outbox.cif.g08.bks.cpg/sg15_75_cif.got.tgz:148150.got - 2010.06.03 18:47:42.
