data_PCOD9260442
_publ_section_title
;
Structure prediction by ZEFSAII (Michael W. Deem and Ramdas Pophale) SiO2 
 PCOD9260442
Probable space group: C 2/C
;
_chemical_formula_sum "Si O2"
_cell_formula_units_Z 64
_cell_length_a 17.112947
_cell_length_b 6.680266
_cell_length_c 28.806523
_cell_angle_alpha 90.000000
_cell_angle_beta 99.809016
_cell_angle_gamma 90.000000
_cell_volume 3244.992009
_symmetry_space_group_name_H-M "C 2/C"
_symmetry_group_IT_number 15
_symmetry_cell_setting 'monoclinic'
loop_
_space_group_symop_operation_xyz
x,y,z
-x,y,1/2-z
-x,-y,-z
x,-y,1/2+z
1/2+x,1/2+y,z
1/2-x,1/2+y,1/2-z
1/2-x,1/2-y,-z
1/2+x,1/2-y,1/2+z
loop_
_atom_site_type_symbol
_atom_site_label
_atom_site_fract_x
_atom_site_fract_y
_atom_site_fract_z
Si Si1 0.976265 0.585961 0.800515
Si Si2 0.298659 0.073480 0.980324
Si Si3 0.120000 0.383549 0.433302
Si Si4 0.582673 0.765598 0.867056
Si Si5 0.702006 0.441304 0.879212
Si Si6 0.566271 0.142938 0.572269
Si Si7 0.943961 0.030822 0.358883
Si Si8 0.643346 0.859657 0.657839
O O1 0.037547 0.425996 0.829878
O O2 0.000000 0.608522 0.750000
O O3 0.973315 0.800707 0.825703
O O4 0.890088 0.488869 0.802648
O O5 0.385949 0.135852 0.970392
O O6 0.250941 0.014056 0.929382
O O7 0.250000 0.250000 0.000000
O O8 0.319107 0.894958 0.018049
O O9 0.119954 0.604473 0.411527
O O10 0.147321 0.232571 0.395655
O O11 0.029044 0.348061 0.439607
O O12 0.650225 0.622882 0.853565
O O13 0.517943 0.609043 0.879315
O O14 0.765900 0.373965 0.847801
O O15 0.590333 0.343802 0.601975
O O16 0.594174 0.959412 0.608884
O O17 0.880508 0.869105 0.335732
#
# Coordination Sequence:
#
# PCOD9260442 Si02
#       8
#     8   8   8   8   8   8   8   8
#     4  10  21  39  68  97 118 148 196 250 305 376
#     4  11  24  37  54  88 125 164 209 264 298 348
#     4  12  21  39  57  85 121 167 212 252 296 358
#     4  11  20  39  64  88 122 155 203 246 303 363
#     4  11  23  39  62  87 125 168 202 251 311 352
#     4  10  20  38  57  82 121 162 208 251 303 352
#     4  10  18  37  62  90 114 157 202 242 305 361
#     4   9  21  37  62  92 119 157 200 245 301 366
#
# _framework density 19.722698999999999
#
# number of rings (size 3 to 8) (size 9 to 14) (size 15 to 20)
#    0.000    1.500    6.250    0.750    1.750    3.000 
#    0.000    1.250    5.500    0.000    0.000    0.000 
#    0.000    0.000    0.000    0.000    0.000    0.000 
#
# Total GULP energy -178357.464199 kJ/mol
# GULP energy per Si atom -5573.670756 kJ/mol
# Density = 1.967781 g / cm^3
# Si number density = 19.722699 Si / 1000 Ang^3
#
#
#
# Elastic Constant Matrix: (Units=GPa)
#
#
# Indices 1 2 3 4 5 6 
#
# 1 121.0360 49.0399 20.1190 0.0000 -33.0594 0.0000
# 2 49.0399 123.2093 25.7187 0.0000 -17.0983 0.0000
# 3 20.1190 25.7187 51.5841 0.0000 -28.7614 0.0000
# 4 0.0000 0.0000 0.0000 9.4577 0.0000 1.1898
# 5 -33.0594 -17.0983 -28.7614 0.0000 27.8095 0.0000
# 6 0.0000 0.0000 0.0000 1.1898 0.0000 23.3147
#
#
#
# Elastic Compliance Matrix: (Units=1/GPa)
#
#
# Indices 1 2 3 4 5 6 
#
# 1 0.016077 -0.004965 0.012186 0.000000 0.028663 0.000000
# 2 -0.004965 0.010646 -0.007116 0.000000 -0.006717 0.000000
# 3 0.012186 -0.007116 0.056263 0.000000 0.068300 0.000000
# 4 0.000000 0.000000 0.000000 0.106417 0.000000 -0.005431
# 5 0.028663 -0.006717 0.068300 0.000000 0.136540 0.000000
# 6 0.000000 0.000000 0.000000 -0.005431 0.000000 0.043169
#
#
# Mechanical properties :
#
#
# Convention : Reuss Voigt Hill
#
# Bulk Modulus (GPa) = 12.01994 53.95384 32.98689
# Shear Modulus (GPa) = 12.60611 25.51317 19.05964
#
# Velocity S-wave (km/s) = 2.53092 3.60056 3.11204
# Velocity P-wave (km/s) = 3.82733 6.68588 5.44745
#
# Compressibility (1/GPa) = 0.08319506
#
# Stress axis : x y z
#
# Youngs Moduli (GPa) = 62.20119 93.93360 17.77382
#
# Poissons Ratio (x) = 0.46639 -0.21660
# Poissons Ratio (y) = 0.30883 0.12649
# Poissons Ratio (z) = -0.75801 0.66847
#
# Static dielectric constant tensor:
#      x y z
#    x 1.745900 0.000000 0.020760 
#    y 0.000000 1.699600 0.000000 
#    z 0.020760 0.000000 1.696050 
# 
# From -- ./inp_files/315101.got.cif
#   From: 2010.05.17/outbox.cif.g08.bks.cpg/sg15_158_cif.got.tgz:315101.got - 2010.06.03 18:47:42.
