data_PCOD9260144
_publ_section_title
;
Structure prediction by ZEFSAII (Michael W. Deem and Ramdas Pophale) SiO2 
 PCOD9260144
Probable space group: C 2/C
;
_chemical_formula_sum "Si O2"
_cell_formula_units_Z 60
_cell_length_a 27.102769
_cell_length_b 21.530736
_cell_length_c 14.828151
_cell_angle_alpha 90.000000
_cell_angle_beta 20.268540
_cell_angle_gamma 90.000000
_cell_volume 2997.528199
_symmetry_space_group_name_H-M "C 2/C"
_symmetry_group_IT_number 15
_symmetry_cell_setting 'monoclinic'
loop_
_space_group_symop_operation_xyz
x,y,z
-x,y,1/2-z
-x,-y,-z
x,-y,1/2+z
1/2+x,1/2+y,z
1/2-x,1/2+y,1/2-z
1/2-x,1/2-y,-z
1/2+x,1/2-y,1/2+z
loop_
_atom_site_type_symbol
_atom_site_label
_atom_site_fract_x
_atom_site_fract_y
_atom_site_fract_z
Si Si1 0.794744 0.260290 0.669518
Si Si2 0.177483 0.181904 0.609192
Si Si3 0.000000 0.215759 0.750000
Si Si4 0.021857 0.234510 0.419270
Si Si5 0.672165 0.894987 0.950003
Si Si6 0.674621 0.053600 0.641719
Si Si7 0.747675 0.822927 0.102936
Si Si8 0.165541 0.572499 0.256287
O O1 0.785257 0.321964 0.624223
O O2 0.822478 0.199255 0.565182
O O3 0.922383 0.271534 0.519723
O O4 0.643734 0.249359 0.976287
O O5 0.250000 0.250000 0.500000
O O6 0.057749 0.179004 0.736423
O O7 0.290293 0.131451 0.381626
O O8 0.080105 0.181529 0.864777
O O9 0.097366 0.284969 0.354914
O O10 0.151341 0.202021 0.148346
O O11 0.718557 0.919176 0.770057
O O12 0.500000 0.897125 0.250000
O O13 0.719170 0.930195 0.961472
O O14 0.729751 0.105569 0.615794
O O15 0.715482 0.987110 0.612801
O O16 0.503381 0.062657 0.940933
#
# Coordination Sequence:
#
# PCOD9260144 Si02
#       8
#     8   8   4   8   8   8   8   8
#     4  12  22  37  61  95 127 159 201 261 314 377
#     4  12  22  40  63  90 126 160 205 267 315 370
#     4  12  24  34  60  98 122 166 206 246 328 390
#     4  11  22  37  60  94 126 159 203 260 322 366
#     4  10  18  36  63  85 116 157 206 250 306 372
#     4  10  22  39  63  91 117 168 214 254 315 381
#     4  11  22  37  63  92 124 159 207 259 309 378
#     4  10  22  41  62  87 126 164 209 263 314 381
#
# _framework density 20.016492
#
# number of rings (size 3 to 8) (size 9 to 14) (size 15 to 20)
#    0.000    1.067    4.000    5.200    0.000    0.000 
#    2.400    0.667    5.867    0.000    0.000    0.000 
#    0.000    0.000    0.000    0.000    0.000    0.000 
#
# Total GULP energy -167084.518757 kJ/mol
# GULP energy per Si atom -5569.483959 kJ/mol
# Density = 1.997093 g / cm^3
# Si number density = 20.016492 Si / 1000 Ang^3
#
#
#
# Elastic Constant Matrix: (Units=GPa)
#
#
# Indices 1 2 3 4 5 6 
#
# 1 73.8601 40.7626 29.3807 0.0020 15.9812 -0.0006
# 2 40.7626 119.8146 28.0559 0.0009 16.6881 -0.0006
# 3 29.3807 28.0559 47.4091 0.0013 6.8410 -0.0012
# 4 0.0020 0.0009 0.0013 23.7087 -0.0018 2.0609
# 5 15.9812 16.6881 6.8410 -0.0018 35.4969 0.0009
# 6 -0.0006 -0.0006 -0.0012 2.0609 0.0009 21.0183
#
#
#
# Elastic Compliance Matrix: (Units=1/GPa)
#
#
# Indices 1 2 3 4 5 6 
#
# 1 0.020848 -0.004034 -0.009722 -0.000002 -0.005616 0.000000
# 2 -0.004034 0.010924 -0.003586 0.000000 -0.002629 0.000000
# 3 -0.009722 -0.003586 0.029177 -0.000001 0.000440 0.000001
# 4 -0.000002 0.000000 -0.000001 0.042541 0.000003 -0.004171
# 5 -0.005616 -0.002629 0.000440 0.000003 0.031851 -0.000002
# 6 0.000000 0.000000 0.000001 -0.004171 -0.000002 0.047987
#
#
# Mechanical properties :
#
#
# Convention : Reuss Voigt Hill
#
# Bulk Modulus (GPa) = 38.07352 48.60913 43.34133
# Shear Modulus (GPa) = 22.04907 25.57040 23.80974
#
# Velocity S-wave (km/s) = 3.32255 3.57804 3.45266
# Velocity P-wave (km/s) = 5.81219 6.43484 6.13142
#
# Compressibility (1/GPa) = 0.02626498
#
# Stress axis : x y z
#
# Youngs Moduli (GPa) = 47.96620 91.53833 34.27394
#
# Poissons Ratio (x) = 0.36926 0.33323
# Poissons Ratio (y) = 0.19349 0.12289
# Poissons Ratio (z) = 0.46635 0.32822
#
# Static dielectric constant tensor:
#      x y z
#    x 1.800610 0.000000 0.034600 
#    y 0.000000 1.701580 0.000000 
#    z 0.034600 0.000000 1.799120 
# 
# From -- ./inp_files/179101.got.cif
#   From: 2010.05.17/outbox.cif.g08.bks.cpg/sg15_90_cif.got.tgz:179101.got - 2010.06.03 18:47:42.
