data_PCOD9260097
_publ_section_title
;
Structure prediction by ZEFSAII (Michael W. Deem and Ramdas Pophale) SiO2 
 PCOD9260097
Probable space group: C 2/C
;
_chemical_formula_sum "Si O2"
_cell_formula_units_Z 64
_cell_length_a 15.956728
_cell_length_b 12.693624
_cell_length_c 17.732685
_cell_angle_alpha 90.000000
_cell_angle_beta 122.467544
_cell_angle_gamma 90.000000
_cell_volume 3030.329072
_symmetry_space_group_name_H-M "C 2/C"
_symmetry_group_IT_number 15
_symmetry_cell_setting 'monoclinic'
loop_
_space_group_symop_operation_xyz
x,y,z
-x,y,1/2-z
-x,-y,-z
x,-y,1/2+z
1/2+x,1/2+y,z
1/2-x,1/2+y,1/2-z
1/2-x,1/2-y,-z
1/2+x,1/2-y,1/2+z
loop_
_atom_site_type_symbol
_atom_site_label
_atom_site_fract_x
_atom_site_fract_y
_atom_site_fract_z
Si Si1 0.368988 0.984246 0.783049
Si Si2 0.873626 0.780302 0.860930
Si Si3 0.541907 0.769321 0.690329
Si Si4 0.027891 0.333459 0.350036
Si Si5 0.289049 0.360557 0.267723
Si Si6 0.117577 0.993793 0.064536
Si Si7 0.348891 0.801603 0.514003
Si Si8 0.192337 0.513440 0.922661
O O1 0.400228 0.867265 0.818547
O O2 0.341691 0.987607 0.680376
O O3 0.461622 0.062786 0.836678
O O4 0.277411 0.037267 0.782660
O O5 0.792320 0.732193 0.764351
O O6 0.857375 0.900247 0.875974
O O7 0.982816 0.756410 0.881535
O O8 0.853285 0.714074 0.927101
O O9 0.500000 0.806051 0.750000
O O10 0.622929 0.678785 0.743149
O O11 0.446672 0.744196 0.594126
O O12 0.140025 0.374643 0.413465
O O13 0.000000 0.307033 0.250000
O O14 0.347104 0.392130 0.371492
O O15 0.188136 0.992017 0.025148
O O16 0.000000 0.000000 0.000000
O O17 0.250000 0.750000 0.500000
O O18 0.347156 0.921804 0.541956
#
# Coordination Sequence:
#
# PCOD9260097 Si02
#       8
#     8   8   8   8   8   8   8   8
#     4   9  17  35  59  87 117 164 213 252 315 391
#     4  11  23  40  64  96 131 163 220 277 328 393
#     4  12  20  36  63  90 122 165 213 267 322 385
#     4   9  18  37  64  93 119 169 221 264 315 395
#     4  10  22  36  59  89 122 160 211 260 316 390
#     4  11  23  43  66  91 130 179 218 266 342 411
#     4  12  22  34  60  97 131 160 213 279 331 375
#     4  10  18  36  62  86 124 169 212 258 318 399
#
# _framework density 21.119817999999999
#
# number of rings (size 3 to 8) (size 9 to 14) (size 15 to 20)
#    0.000    1.500    3.750    4.125    0.000    0.500 
#    0.000    1.250    0.000    0.000    0.000    0.000 
#    0.000    0.000    0.000    0.000    0.000    0.000 
#
# Total GULP energy -178474.716230 kJ/mol
# GULP energy per Si atom -5577.334882 kJ/mol
# Density = 2.107175 g / cm^3
# Si number density = 21.119818 Si / 1000 Ang^3
#
#
#
# Elastic Constant Matrix: (Units=GPa)
#
#
# Indices 1 2 3 4 5 6 
#
# 1 138.0571 40.3320 19.4822 0.0000 24.0660 0.0000
# 2 40.3320 54.1092 12.4808 0.0000 0.7335 0.0000
# 3 19.4822 12.4808 36.7682 0.0000 17.3767 0.0000
# 4 0.0000 0.0000 0.0000 18.0298 0.0000 5.7228
# 5 24.0660 0.7335 17.3767 0.0000 32.9733 0.0000
# 6 0.0000 0.0000 0.0000 5.7228 0.0000 46.3626
#
#
#
# Elastic Compliance Matrix: (Units=1/GPa)
#
#
# Indices 1 2 3 4 5 6 
#
# 1 0.010985 -0.008288 0.000925 0.000000 -0.008321 0.000000
# 2 -0.008288 0.026748 -0.009675 0.000000 0.010553 0.000000
# 3 0.000925 -0.009675 0.040228 0.000000 -0.021660 0.000000
# 4 0.000000 0.000000 0.000000 0.057725 0.000000 -0.007125
# 5 -0.008321 0.010553 -0.021660 0.000000 0.047580 0.000000
# 6 0.000000 0.000000 0.000000 -0.007125 0.000000 0.022449
#
#
# Mechanical properties :
#
#
# Convention : Reuss Voigt Hill
#
# Bulk Modulus (GPa) = 22.78733 41.50270 32.14502
# Shear Modulus (GPa) = 19.65267 29.91578 24.78423
#
# Velocity S-wave (km/s) = 3.05377 3.76770 3.42936
# Velocity P-wave (km/s) = 4.82151 6.21459 5.56184
#
# Compressibility (1/GPa) = 0.04388403
#
# Stress axis : x y z
#
# Youngs Moduli (GPa) = 91.03673 37.38636 24.85844
#
# Poissons Ratio (x) = 0.30987 -0.02300
# Poissons Ratio (y) = 0.75454 0.24051
# Poissons Ratio (z) = -0.08424 0.36172
#
# Static dielectric constant tensor:
#      x y z
#    x 1.813360 0.000000 0.044550 
#    y 0.000000 1.784080 0.000000 
#    z 0.044550 0.000000 1.814010 
# 
# From -- ./inp_files/205441.got.cif
#   From: 2010.05.17/outbox.cif.g08.bks.cpg/sg15_103_cif.got.tgz:205441.got - 2010.06.03 18:47:42.
