data_PCOD9260527
_publ_section_title
;
Structure prediction by ZEFSAII (Michael W. Deem and Ramdas Pophale) SiO2 
 PCOD9260527
Probable space group: C 2/C
;
_chemical_formula_sum "Si O2"
_cell_formula_units_Z 48
_cell_length_a 32.741502
_cell_length_b 14.216288
_cell_length_c 15.630535
_cell_angle_alpha 90.000000
_cell_angle_beta 162.043531
_cell_angle_gamma 90.000000
_cell_volume 2242.973766
_symmetry_space_group_name_H-M "C 2/C"
_symmetry_group_IT_number 15
_symmetry_cell_setting 'monoclinic'
loop_
_space_group_symop_operation_xyz
x,y,z
-x,y,1/2-z
-x,-y,-z
x,-y,1/2+z
1/2+x,1/2+y,z
1/2-x,1/2+y,1/2-z
1/2-x,1/2-y,-z
1/2+x,1/2-y,1/2+z
loop_
_atom_site_type_symbol
_atom_site_label
_atom_site_fract_x
_atom_site_fract_y
_atom_site_fract_z
Si Si1 0.736711 0.646751 0.511986
Si Si2 0.812518 0.523372 0.046186
Si Si3 0.290989 0.090436 0.328652
Si Si4 0.430799 0.076243 0.021998
Si Si5 0.458545 0.399724 0.523261
Si Si6 0.000000 0.747842 0.750000
Si Si7 0.000000 0.057028 0.750000
O O1 0.750000 0.750000 0.500000
O O2 0.807506 0.565659 0.598078
O O3 0.583603 0.616406 0.211820
O O4 0.809051 0.640143 0.748347
O O5 0.794753 0.480318 0.916007
O O6 0.683099 0.586932 0.803617
O O7 0.952365 0.575242 0.315663
O O8 0.376599 0.180315 0.522063
O O9 0.366703 0.028612 0.407019
O O10 0.136826 0.111691 0.007509
O O11 0.500000 0.103199 0.250000
O O12 0.460604 0.312222 0.591993
O O13 0.486064 0.489671 0.639159
#
# Coordination Sequence:
#
# PCOD9260527 Si02
#       7
#     8   8   8   8   8   4   4
#     4  12  24  40  66  95 132 170 217 268 327 380
#     4  10  21  41  63  92 126 174 210 258 331 386
#     4  10  18  37  65  94 121 161 220 264 315 382
#     4  10  21  41  68  93 124 171 215 264 326 386
#     4  10  22  38  62  89 131 174 207 262 320 388
#     4  11  20  36  64  93 122 164 223 266 314 366
#     4   9  18  36  64  89 120 168 213 260 320 370
#
# _framework density 21.40016
#
# number of rings (size 3 to 8) (size 9 to 14) (size 15 to 20)
#    0.000    1.667    4.167    2.000    2.333    0.000 
#    0.000    5.833    3.667    0.000    0.000    0.000 
#    0.000    0.000    0.000    0.000    0.000    0.000 
#
# Total GULP energy -133983.655821 kJ/mol
# GULP energy per Si atom -5582.652326 kJ/mol
# Density = 2.135145 g / cm^3
# Si number density = 21.400160 Si / 1000 Ang^3
#
#
#
# Elastic Constant Matrix: (Units=GPa)
#
#
# Indices 1 2 3 4 5 6 
#
# 1 40.5251 11.5678 25.8946 0.0000 16.4467 0.0000
# 2 11.5678 73.3268 51.3626 0.0000 -0.4289 0.0000
# 3 25.8946 51.3626 173.6154 0.0000 23.6668 0.0000
# 4 0.0000 0.0000 0.0000 20.0072 0.0000 3.4396
# 5 16.4467 -0.4289 23.6668 0.0000 30.3983 0.0000
# 6 0.0000 0.0000 0.0000 3.4396 0.0000 20.3477
#
#
#
# Elastic Compliance Matrix: (Units=1/GPa)
#
#
# Indices 1 2 3 4 5 6 
#
# 1 0.033857 -0.004490 -0.001360 0.000000 -0.017322 0.000000
# 2 -0.004490 0.018421 -0.005758 0.000000 0.007172 0.000000
# 3 -0.001360 -0.005758 0.008476 0.000000 -0.005945 0.000000
# 4 0.000000 0.000000 0.000000 0.051478 0.000000 -0.008702
# 5 -0.017322 0.007172 -0.005945 0.000000 0.046998 0.000000
# 6 0.000000 0.000000 0.000000 -0.008702 0.000000 0.050617
#
#
# Mechanical properties :
#
#
# Convention : Reuss Voigt Hill
#
# Bulk Modulus (GPa) = 26.63893 51.67970 39.15932
# Shear Modulus (GPa) = 20.36038 27.39346 23.87692
#
# Velocity S-wave (km/s) = 3.08784 3.58167 3.34389
# Velocity P-wave (km/s) = 5.01877 6.42698 5.76603
#
# Compressibility (1/GPa) = 0.03753904
#
# Stress axis : x y z
#
# Youngs Moduli (GPa) = 29.53615 54.28639 117.97415
#
# Poissons Ratio (x) = 0.24373 0.16046
# Poissons Ratio (y) = 0.13261 0.67925
# Poissons Ratio (z) = 0.04017 0.31256
#
# Static dielectric constant tensor:
#      x y z
#    x 1.845890 0.000000 -0.003600 
#    y 0.000000 1.744350 0.000000 
#    z -0.003600 0.000000 1.866900 
# 
# From -- ./inp_files/182563.got.cif
#   From: 2010.05.17/outbox.cif.g08.bks.cpg/sg15_92_cif.got.tgz:182563.got - 2010.06.03 18:47:42.
