data_PCOD9260660
_publ_section_title
;
Structure prediction by ZEFSAII (Michael W. Deem and Ramdas Pophale) SiO2 
 PCOD9260660
Probable space group: C 2/C
;
_chemical_formula_sum "Si O2"
_cell_formula_units_Z 36
_cell_length_a 12.630602
_cell_length_b 14.118763
_cell_length_c 11.980137
_cell_angle_alpha 90.000000
_cell_angle_beta 68.607047
_cell_angle_gamma 90.000000
_cell_volume 1989.203111
_symmetry_space_group_name_H-M "C 2/C"
_symmetry_group_IT_number 15
_symmetry_cell_setting 'monoclinic'
loop_
_space_group_symop_operation_xyz
x,y,z
-x,y,1/2-z
-x,-y,-z
x,-y,1/2+z
1/2+x,1/2+y,z
1/2-x,1/2+y,1/2-z
1/2-x,1/2-y,-z
1/2+x,1/2-y,1/2+z
loop_
_atom_site_type_symbol
_atom_site_label
_atom_site_fract_x
_atom_site_fract_y
_atom_site_fract_z
Si Si1 0.826873 0.237804 0.079721
Si Si2 0.926075 0.742461 0.946315
Si Si3 0.121040 0.020260 0.391578
Si Si4 0.234738 0.332736 0.161816
Si Si5 0.000000 0.905911 0.750000
O O1 0.834139 0.123998 0.093274
O O2 0.781909 0.293120 0.206933
O O3 0.958481 0.273733 0.029070
O O4 0.750000 0.250000 0.000000
O O5 0.879859 0.671705 0.868836
O O6 0.950177 0.837167 0.863746
O O7 0.823929 0.761139 0.069954
O O8 0.093209 0.029374 0.271135
O O9 0.208495 0.935272 0.371470
O O10 0.000000 0.000000 0.500000
#
# Coordination Sequence:
#
# PCOD9260660 Si02
#       5
#     8   8   8   8   4
#     4  11  24  41  61  96 131 156 209 267 312 366
#     4  10  20  40  61  88 121 166 205 245 315 373
#     4  11  22  38  62  95 117 162 217 256 304 375
#     4  11  21  37  69  85 124 166 203 261 315 362
#     4  10  18  38  60  88 124 144 220 262 282 380
#
# _framework density 18.0977
#
# number of rings (size 3 to 8) (size 9 to 14) (size 15 to 20)
#    0.000    1.333    8.889    0.000    3.111    0.889 
#    0.000    1.111    4.889    0.000    0.000    0.000 
#    0.000    0.000    0.000    0.000    0.000    0.000 
#
# Total GULP energy -100207.654860 kJ/mol
# GULP energy per Si atom -5567.091937 kJ/mol
# Density = 1.805651 g / cm^3
# Si number density = 18.097700 Si / 1000 Ang^3
#
#
#
# Elastic Constant Matrix: (Units=GPa)
#
#
# Indices 1 2 3 4 5 6 
#
# 1 169.7648 56.0806 45.0247 0.0000 32.7361 0.0000
# 2 56.0806 104.7936 5.9605 0.0000 10.7873 0.0000
# 3 45.0247 5.9605 53.0662 0.0000 3.5539 0.0000
# 4 0.0000 0.0000 0.0000 18.2731 0.0000 -1.7958
# 5 32.7361 10.7873 3.5539 0.0000 39.5156 0.0000
# 6 0.0000 0.0000 0.0000 -1.7958 0.0000 40.5273
#
#
#
# Elastic Compliance Matrix: (Units=1/GPa)
#
#
# Indices 1 2 3 4 5 6 
#
# 1 0.011026 -0.004694 -0.008352 0.000000 -0.007101 0.000000
# 2 -0.004694 0.011863 0.002623 0.000000 0.000415 0.000000
# 3 -0.008352 0.002623 0.025374 0.000000 0.003921 0.000000
# 4 0.000000 0.000000 0.000000 0.054965 0.000000 0.002436
# 5 -0.007101 0.000415 0.003921 0.000000 0.030724 0.000000
# 6 0.000000 0.000000 0.000000 0.002436 0.000000 0.024783
#
#
# Mechanical properties :
#
#
# Convention : Reuss Voigt Hill
#
# Bulk Modulus (GPa) = 36.47648 60.19514 48.33581
# Shear Modulus (GPa) = 26.49444 34.36714 30.43079
#
# Velocity S-wave (km/s) = 3.83033 4.36245 4.10502
# Velocity P-wave (km/s) = 6.30563 7.66212 7.01673
#
# Compressibility (1/GPa) = 0.02741493
#
# Stress axis : x y z
#
# Youngs Moduli (GPa) = 90.69656 84.29625 39.41100
#
# Poissons Ratio (x) = 0.39572 0.32916
# Poissons Ratio (y) = 0.42577 -0.10337
# Poissons Ratio (z) = 0.75751 -0.22109
#
# Static dielectric constant tensor:
#      x y z
#    x 1.686460 0.000000 0.007120 
#    y 0.000000 1.657390 0.000000 
#    z 0.007120 0.000000 1.653650 
# 
# From -- ./inp_files/85430.got.cif
#   From: 2010.05.17/outbox.cif.g08.bks.cpg/sg15_43_cif.got.tgz:85430.got - 2010.06.03 18:47:42.
