data_PCOD9260746
_publ_section_title
;
Structure prediction by ZEFSAII (Michael W. Deem and Ramdas Pophale) SiO2 
 PCOD9260746
Probable space group: C 2/C
;
_chemical_formula_sum "Si O2"
_cell_formula_units_Z 56
_cell_length_a 23.301201
_cell_length_b 18.807187
_cell_length_c 5.221947
_cell_angle_alpha 90.000000
_cell_angle_beta 82.943066
_cell_angle_gamma 90.000000
_cell_volume 2271.078327
_symmetry_space_group_name_H-M "C 2/C"
_symmetry_group_IT_number 15
_symmetry_cell_setting 'monoclinic'
loop_
_space_group_symop_operation_xyz
x,y,z
-x,y,1/2-z
-x,-y,-z
x,-y,1/2+z
1/2+x,1/2+y,z
1/2-x,1/2+y,1/2-z
1/2-x,1/2-y,-z
1/2+x,1/2-y,1/2+z
loop_
_atom_site_type_symbol
_atom_site_label
_atom_site_fract_x
_atom_site_fract_y
_atom_site_fract_z
Si Si1 0.140007 0.374136 0.465042
Si Si2 0.061750 0.237549 0.588220
Si Si3 0.370021 0.617299 0.735163
Si Si4 0.973869 0.578122 0.523176
Si Si5 0.721136 0.949574 0.758275
Si Si6 0.752829 0.833526 0.078777
Si Si7 0.564926 0.596786 0.294492
O O1 0.096983 0.307802 0.507979
O O2 0.094263 0.431792 0.394078
O O3 0.163242 0.404873 0.720589
O O4 0.193164 0.353810 0.255299
O O5 0.100986 0.194723 0.767161
O O6 0.058276 0.181633 0.355643
O O7 0.000000 0.243727 0.750000
O O8 0.303120 0.637831 0.740064
O O9 0.393639 0.582410 0.465272
O O10 0.226727 0.503022 0.997393
O O11 0.000000 0.619018 0.750000
O O12 0.000000 0.500000 0.500000
O O13 0.000000 0.609953 0.250000
O O14 0.899824 0.922232 0.462407
O O15 0.761084 0.883337 0.823237
O O16 0.750000 0.750000 0.000000
O O17 0.500000 0.570726 0.250000
#
# Coordination Sequence:
#
# PCOD9260746 Si02
#       7
#     8   8   8   8   8   8   8
#     4  12  27  45  74 105 156 209 271 340 407 471
#     4  10  21  39  63 101 145 194 255 319 395 474
#     4  10  22  38  66  97 142 192 251 311 396 478
#     4  10  25  44  68  97 135 196 279 335 383 448
#     4  12  29  53  78 105 153 212 277 333 410 489
#     4  12  28  50  79 115 161 213 276 350 426 502
#     4  10  18  38  62  95 147 193 237 306 391 482
#
# _framework density 24.657892
#
# number of rings (size 3 to 8) (size 9 to 14) (size 15 to 20)
#    0.857    0.286    2.857    2.571    8.000    1.714 
#    2.571    0.000    0.000    0.000    0.000    0.000 
#    0.000   19.429    0.000    0.000    0.000    0.000 
#
# Total GULP energy -156007.743572 kJ/mol
# GULP energy per Si atom -5571.705128 kJ/mol
# Density = 2.460177 g / cm^3
# Si number density = 24.657892 Si / 1000 Ang^3
#
#
#
# Elastic Constant Matrix: (Units=GPa)
#
#
# Indices 1 2 3 4 5 6 
#
# 1 184.7901 45.4699 84.3372 0.0000 -1.7478 0.0000
# 2 45.4699 114.7859 29.5435 0.0000 1.2264 0.0000
# 3 84.3372 29.5435 198.3041 0.0000 18.9763 0.0000
# 4 0.0000 0.0000 0.0000 -24.6109 0.0000 -51.2823
# 5 -1.7478 1.2264 18.9763 0.0000 53.3323 0.0000
# 6 0.0000 0.0000 0.0000 -51.2823 0.0000 -8.7103
#
#
#
# Elastic Compliance Matrix: (Units=1/GPa)
#
#
# Indices 1 2 3 4 5 6 
#
# 1 0.007277 -0.002150 -0.002901 0.000000 0.001320 0.000000
# 2 -0.002150 0.009699 -0.000520 0.000000 -0.000108 0.000000
# 3 -0.002901 -0.000520 0.006586 0.000000 -0.002427 0.000000
# 4 0.000000 0.000000 0.000000 0.003606 0.000000 -0.021230
# 5 0.001320 -0.000108 -0.002427 0.000000 0.019659 0.000000
# 6 0.000000 0.000000 0.000000 -0.021230 0.000000 0.010189
#
#
# Mechanical properties :
#
#
# Convention : Reuss Voigt Hill
#
# Bulk Modulus (GPa) = 80.51763 90.73127 85.62445
# Shear Modulus (GPa) = 69.15817 26.57086 47.86452
#
# Velocity S-wave (km/s) = 5.30169 3.28621 4.41062
# Velocity P-wave (km/s) = 8.37867 7.16065 7.79349
#
# Compressibility (1/GPa) = 0.01241964
#
# Stress axis : x y z
#
# Youngs Moduli (GPa) = 137.41860 103.10753 151.83342
#
# Poissons Ratio (x) = 0.22169 0.44045
# Poissons Ratio (y) = 0.29547 0.07897
# Poissons Ratio (z) = 0.39863 0.05363
#
# Static dielectric constant tensor:
#      x y z
#    x 2.400780 0.000000 0.142440 
#    y 0.000000 2.061720 0.000000 
#    z 0.142440 0.000000 2.011550 
# 
# From -- ./inp_files/13880.got.cif
#   From: 2010.05.17/outbox.cif.g08.bks.cpg/sg15_7_cif.got.tgz:13880.got - 2010.06.03 18:47:42.
