data_PCOD9260417
_publ_section_title
;
Structure prediction by ZEFSAII (Michael W. Deem and Ramdas Pophale) SiO2 
 PCOD9260417
Probable space group: C 2/C
;
_chemical_formula_sum "Si O2"
_cell_formula_units_Z 52
_cell_length_a 28.546778
_cell_length_b 8.541732
_cell_length_c 19.966599
_cell_angle_alpha 90.000000
_cell_angle_beta 30.829137
_cell_angle_gamma 90.000000
_cell_volume 2495.075700
_symmetry_space_group_name_H-M "C 2/C"
_symmetry_group_IT_number 15
_symmetry_cell_setting 'monoclinic'
loop_
_space_group_symop_operation_xyz
x,y,z
-x,y,1/2-z
-x,-y,-z
x,-y,1/2+z
1/2+x,1/2+y,z
1/2-x,1/2+y,1/2-z
1/2-x,1/2-y,-z
1/2+x,1/2-y,1/2+z
loop_
_atom_site_type_symbol
_atom_site_label
_atom_site_fract_x
_atom_site_fract_y
_atom_site_fract_z
Si Si1 0.791188 0.685458 0.379761
Si Si2 0.359620 0.875336 0.345371
Si Si3 0.597619 0.685772 0.091217
Si Si4 0.014060 0.714419 0.419344
Si Si5 0.000000 0.606417 0.250000
Si Si6 0.620347 0.664833 0.511222
Si Si7 0.980298 0.655647 0.937326
O O1 0.750000 0.750000 0.500000
O O2 0.796029 0.498966 0.386448
O O3 0.892970 0.744631 0.236973
O O4 0.723561 0.716725 0.400697
O O5 0.334230 0.759585 0.437003
O O6 0.420910 0.792559 0.213454
O O7 0.430462 0.994840 0.296143
O O8 0.500000 0.683901 0.250000
O O9 0.612773 0.511229 0.047106
O O10 0.589220 0.795598 0.035956
O O11 0.986133 0.531758 0.441453
O O12 0.927942 0.816860 0.501179
O O13 0.036252 0.730400 0.470346
O O14 0.058332 0.719030 0.131528
#
# Coordination Sequence:
#
# PCOD9260417 Si02
#       7
#     8   8   8   8   4   8   8
#     4  11  22  34  60  90 116 150 206 248 294 353
#     4  10  18  37  61  89 115 156 197 245 299 369
#     4  10  20  33  60  88 114 151 192 241 307 352
#     4  10  21  39  61  84 116 162 207 235 297 368
#     4  12  16  34  60  88 110 146 198 246 294 352
#     4  12  21  34  59  88 117 152 193 260 295 350
#     4   9  18  37  61  81 113 163 193 234 295 369
#
# _framework density 20.841049999999999
#
# number of rings (size 3 to 8) (size 9 to 14) (size 15 to 20)
#    0.000    1.538    7.692    0.000    0.000    1.231 
#    0.000    4.615    0.000    0.000    0.000    0.000 
#    0.000    0.000    0.000    0.000    0.000    0.000 
#
# Total GULP energy -144946.431156 kJ/mol
# GULP energy per Si atom -5574.862737 kJ/mol
# Density = 2.079362 g / cm^3
# Si number density = 20.841050 Si / 1000 Ang^3
#
#
#
# Elastic Constant Matrix: (Units=GPa)
#
#
# Indices 1 2 3 4 5 6 
#
# 1 130.0908 12.2952 44.2046 -0.0003 -2.0935 -0.0003
# 2 12.2952 47.3165 12.3712 -0.0016 -0.0897 -0.0003
# 3 44.2046 12.3712 50.0259 0.0018 5.0886 0.0007
# 4 -0.0003 -0.0016 0.0018 19.8466 0.0011 -0.7020
# 5 -2.0935 -0.0897 5.0886 0.0011 40.0211 0.0005
# 6 -0.0003 -0.0003 0.0007 -0.7020 0.0005 30.7822
#
#
#
# Elastic Compliance Matrix: (Units=1/GPa)
#
#
# Indices 1 2 3 4 5 6 
#
# 1 0.011123 -0.000286 -0.009946 0.000001 0.001846 0.000000
# 2 -0.000286 0.022626 -0.005416 0.000002 0.000724 0.000000
# 3 -0.009946 -0.005416 0.030567 -0.000003 -0.004419 -0.000001
# 4 0.000001 0.000002 -0.000003 0.050427 -0.000001 0.001150
# 5 0.001846 0.000724 -0.004419 -0.000001 0.025647 0.000000
# 6 0.000000 0.000000 -0.000001 0.001150 0.000000 0.032513
#
#
# Mechanical properties :
#
#
# Convention : Reuss Voigt Hill
#
# Bulk Modulus (GPa) = 30.28474 40.57503 35.42988
# Shear Modulus (GPa) = 23.23357 28.70079 25.96718
#
# Velocity S-wave (km/s) = 3.34248 3.71499 3.53365
# Velocity P-wave (km/s) = 5.42762 6.15732 5.80395
#
# Compressibility (1/GPa) = 0.03301993
#
# Stress axis : x y z
#
# Youngs Moduli (GPa) = 89.90155 44.19672 32.71512
#
# Poissons Ratio (x) = 0.01266 0.32538
# Poissons Ratio (y) = 0.02576 0.17718
# Poissons Ratio (z) = 0.89414 0.23936
#
# Static dielectric constant tensor:
#      x y z
#    x 1.830630 0.000000 -0.020920 
#    y 0.000000 1.759640 0.000000 
#    z -0.020920 0.000000 1.775620 
# 
# From -- ./inp_files/258814.got.cif
#   From: 2010.05.17/outbox.cif.g08.bks.cpg/sg15_130_cif.got.tgz:258814.got - 2010.06.03 18:47:42.
