data_PCOD9260889
_publ_section_title
;
Structure prediction by ZEFSAII (Michael W. Deem and Ramdas Pophale) SiO2 
 PCOD9260889
Probable space group: C 2/C
;
_chemical_formula_sum "Si O2"
_cell_formula_units_Z 44
_cell_length_a 12.267478
_cell_length_b 7.208442
_cell_length_c 19.768171
_cell_angle_alpha 90.000000
_cell_angle_beta 64.202092
_cell_angle_gamma 90.000000
_cell_volume 1573.863834
_symmetry_space_group_name_H-M "C 2/C"
_symmetry_group_IT_number 15
_symmetry_cell_setting 'monoclinic'
loop_
_space_group_symop_operation_xyz
x,y,z
-x,y,1/2-z
-x,-y,-z
x,-y,1/2+z
1/2+x,1/2+y,z
1/2-x,1/2+y,1/2-z
1/2-x,1/2-y,-z
1/2+x,1/2-y,1/2+z
loop_
_atom_site_type_symbol
_atom_site_label
_atom_site_fract_x
_atom_site_fract_y
_atom_site_fract_z
Si Si1 0.807259 0.562258 0.048106
Si Si2 0.138567 0.010806 0.985825
Si Si3 0.248160 0.619895 0.167245
Si Si4 0.500000 0.113603 0.750000
Si Si5 0.581901 0.615153 0.788880
Si Si6 0.484704 0.990254 0.617526
O O1 0.812701 0.786464 0.049070
O O2 0.866215 0.503716 0.102611
O O3 0.676894 0.501060 0.054130
O O4 0.903700 0.504790 0.963924
O O5 0.211091 0.862490 0.921322
O O6 0.000000 0.000000 0.000000
O O7 0.360191 0.521599 0.173466
O O8 0.196388 0.795323 0.219748
O O9 0.131985 0.484414 0.205127
O O10 0.487560 0.152923 0.672586
O O11 0.500000 0.532909 0.750000
O O12 0.518433 0.791568 0.842705
#
# Coordination Sequence:
#
# PCOD9260889 Si02
#       6
#     8   8   8   4   8   8
#     4  10  21  39  63  90 126 169 217 254 328 393
#     4  11  23  40  62  91 131 165 213 275 315 388
#     4  11  22  44  68  94 130 174 219 269 333 385
#     4  10  20  40  68  86 126 172 206 272 332 376
#     4  11  22  43  65  94 132 169 216 280 324 389
#     4  10  18  38  68  84 122 176 206 264 326 379
#
# _framework density 27.956674
#
# number of rings (size 3 to 8) (size 9 to 14) (size 15 to 20)
#    0.000    1.455    7.273    0.000    0.000    2.909 
#    8.182    3.636    0.000    0.000    0.000    0.000 
#    0.000    0.000    0.000    0.000    0.000    0.000 
#
# Total GULP energy -123071.464061 kJ/mol
# GULP energy per Si atom -5594.157457 kJ/mol
# Density = 2.789304 g / cm^3
# Si number density = 27.956674 Si / 1000 Ang^3
#
#
#
# Elastic Constant Matrix: (Units=GPa)
#
#
# Indices 1 2 3 4 5 6 
#
# 1 212.6764 50.8260 40.0889 0.0000 48.4660 0.0000
# 2 50.8260 31.4762 1.0540 0.0000 7.6812 0.0000
# 3 40.0889 1.0540 116.8660 0.0000 17.7814 0.0000
# 4 0.0000 0.0000 0.0000 29.1481 0.0000 4.1951
# 5 48.4660 7.6812 17.7814 0.0000 73.2444 0.0000
# 6 0.0000 0.0000 0.0000 4.1951 0.0000 38.4085
#
#
#
# Elastic Compliance Matrix: (Units=1/GPa)
#
#
# Indices 1 2 3 4 5 6 
#
# 1 0.009557 -0.014320 -0.002508 0.000000 -0.004213 0.000000
# 2 -0.014320 0.054068 0.003993 0.000000 0.002836 0.000000
# 3 -0.002508 0.003993 0.009545 0.000000 -0.001076 0.000000
# 4 0.000000 0.000000 0.000000 0.034855 0.000000 -0.003807
# 5 -0.004213 0.002836 -0.001076 0.000000 0.016405 0.000000
# 6 0.000000 0.000000 0.000000 -0.003807 0.000000 0.026452
#
#
# Mechanical properties :
#
#
# Convention : Reuss Voigt Hill
#
# Bulk Modulus (GPa) = 21.05299 60.55072 40.80186
# Shear Modulus (GPa) = 25.98947 46.09684 36.04316
#
# Velocity S-wave (km/s) = 3.05230 4.06503 3.59451
# Velocity P-wave (km/s) = 4.46866 6.61350 5.64391
#
# Compressibility (1/GPa) = 0.04749919
#
# Stress axis : x y z
#
# Youngs Moduli (GPa) = 104.63269 18.49533 104.76735
#
# Poissons Ratio (x) = 0.26486 0.26278
# Poissons Ratio (y) = 1.49837 -0.41835
# Poissons Ratio (z) = 0.26244 -0.07385
#
# Static dielectric constant tensor:
#      x y z
#    x 2.176360 0.000000 0.052680 
#    y 0.000000 2.378450 0.000000 
#    z 0.052680 0.000000 2.190010 
# 
# From -- ./inp_files/236049.got.cif
#   From: 2010.05.17/outbox.cif.g08.bks.cpg/sg15_119_cif.got.tgz:236049.got - 2010.06.03 18:47:42.
