data_PCOD9260041
_publ_section_title
;
Structure prediction by ZEFSAII (Michael W. Deem and Ramdas Pophale) SiO2 
 PCOD9260041
Probable space group: C 2/C
;
_chemical_formula_sum "Si O2"
_cell_formula_units_Z 44
_cell_length_a 28.873784
_cell_length_b 6.835343
_cell_length_c 23.677269
_cell_angle_alpha 90.000000
_cell_angle_beta 159.032088
_cell_angle_gamma 90.000000
_cell_volume 1672.209313
_symmetry_space_group_name_H-M "C 2/C"
_symmetry_group_IT_number 15
_symmetry_cell_setting 'monoclinic'
loop_
_space_group_symop_operation_xyz
x,y,z
-x,y,1/2-z
-x,-y,-z
x,-y,1/2+z
1/2+x,1/2+y,z
1/2-x,1/2+y,1/2-z
1/2-x,1/2-y,-z
1/2+x,1/2-y,1/2+z
loop_
_atom_site_type_symbol
_atom_site_label
_atom_site_fract_x
_atom_site_fract_y
_atom_site_fract_z
Si Si1 0.642819 0.186872 0.198712
Si Si2 0.246906 0.307109 0.343431
Si Si3 0.646140 0.623129 0.414969
Si Si4 0.000000 0.246974 0.750000
Si Si5 0.476183 0.361119 0.546009
Si Si6 0.929922 0.293172 0.546160
O O1 0.566272 0.315668 0.066269
O O2 0.774665 0.302618 0.362344
O O3 0.543548 0.124681 0.135296
O O4 0.693530 0.970225 0.238282
O O5 0.294883 0.400894 0.456037
O O6 0.376434 0.216294 0.465038
O O7 0.126646 0.175785 0.221267
O O8 0.500000 0.713159 0.250000
O O9 0.750000 0.750000 0.500000
O O10 0.613508 0.403134 0.358254
O O11 0.042305 0.343976 0.856600
O O12 0.452427 0.564576 0.551281
#
# Coordination Sequence:
#
# PCOD9260041 Si02
#       6
#     8   8   8   4   8   8
#     4  11  23  41  63  93 129 163 216 258 323 380
#     4  11  22  40  60  96 125 163 213 260 317 375
#     4  10  18  36  61  86 123 163 205 257 305 365
#     4  10  20  42  64  82 134 164 210 256 316 380
#     4  11  22  40  65  93 129 164 210 266 320 375
#     4  11  24  43  64  93 126 175 209 263 320 380
#
# _framework density 26.312493
#
# number of rings (size 3 to 8) (size 9 to 14) (size 15 to 20)
#    0.545    0.727    3.636    4.364    0.000    5.091 
#    0.000    1.818    0.000    0.000    0.000    0.000 
#    0.000    0.000    0.000    0.000    0.000    0.000 
#
# Total GULP energy -122786.134306 kJ/mol
# GULP energy per Si atom -5581.187923 kJ/mol
# Density = 2.625260 g / cm^3
# Si number density = 26.312493 Si / 1000 Ang^3
#
#
#
# Elastic Constant Matrix: (Units=GPa)
#
#
# Indices 1 2 3 4 5 6 
#
# 1 88.9006 6.7573 32.4677 0.0000 16.7514 0.0000
# 2 6.7573 39.2160 25.3738 0.0002 16.2551 -0.0001
# 3 32.4677 25.3738 167.8667 0.0000 22.6648 0.0000
# 4 0.0000 0.0002 0.0000 24.9474 0.0000 12.7090
# 5 16.7514 16.2551 22.6648 0.0000 70.5828 0.0000
# 6 0.0000 -0.0001 0.0000 12.7090 0.0000 34.4656
#
#
#
# Elastic Compliance Matrix: (Units=1/GPa)
#
#
# Indices 1 2 3 4 5 6 
#
# 1 0.012446 0.000189 -0.002123 0.000000 -0.002316 0.000000
# 2 0.000189 0.030358 -0.003842 0.000000 -0.005803 0.000000
# 3 -0.002123 -0.003842 0.007067 0.000000 -0.000881 0.000000
# 4 0.000000 0.000000 0.000000 0.049356 0.000000 -0.018200
# 5 -0.002316 -0.005803 -0.000881 0.000000 0.016336 0.000000
# 6 0.000000 0.000000 0.000000 -0.018200 0.000000 0.035725
#
#
# Mechanical properties :
#
#
# Convention : Reuss Voigt Hill
#
# Bulk Modulus (GPa) = 26.09644 47.24232 36.66938
# Shear Modulus (GPa) = 28.47148 41.42479 34.94814
#
# Velocity S-wave (km/s) = 3.29302 3.97210 3.64840
# Velocity P-wave (km/s) = 4.93944 6.24740 5.63153
#
# Compressibility (1/GPa) = 0.03831941
#
# Stress axis : x y z
#
# Youngs Moduli (GPa) = 80.34792 32.94001 141.49517
#
# Poissons Ratio (x) = -0.00622 0.30041
# Poissons Ratio (y) = -0.01518 0.54361
# Poissons Ratio (z) = 0.17059 0.12655
#
# Static dielectric constant tensor:
#      x y z
#    x 2.121730 0.000000 0.063730 
#    y 0.000000 2.277430 0.000000 
#    z 0.063730 0.000000 2.077210 
# 
# From -- ./inp_files/284479.got.cif
#   From: 2010.05.17/outbox.cif.g08.bks.cpg/sg15_143_cif.got.tgz:284479.got - 2010.06.03 18:47:42.
