data_PCOD9260887
_publ_section_title
;
Structure prediction by ZEFSAII (Michael W. Deem and Ramdas Pophale) SiO2 
 PCOD9260887
Probable space group: C 2/C
;
_chemical_formula_sum "Si O2"
_cell_formula_units_Z 36
_cell_length_a 10.454387
_cell_length_b 15.372765
_cell_length_c 11.092916
_cell_angle_alpha 90.000000
_cell_angle_beta 131.697135
_cell_angle_gamma 90.000000
_cell_volume 1331.146420
_symmetry_space_group_name_H-M "C 2/C"
_symmetry_group_IT_number 15
_symmetry_cell_setting 'monoclinic'
loop_
_space_group_symop_operation_xyz
x,y,z
-x,y,1/2-z
-x,-y,-z
x,-y,1/2+z
1/2+x,1/2+y,z
1/2-x,1/2+y,1/2-z
1/2-x,1/2-y,-z
1/2+x,1/2-y,1/2+z
loop_
_atom_site_type_symbol
_atom_site_label
_atom_site_fract_x
_atom_site_fract_y
_atom_site_fract_z
Si Si1 0.500000 0.000000 0.000000
Si Si2 0.222762 0.002228 0.039832
Si Si3 0.595222 0.682796 0.432756
Si Si4 0.500000 0.375289 0.250000
Si Si5 0.500000 0.119189 0.250000
Si Si6 0.136776 0.314939 0.077568
O O1 0.449319 0.099672 0.920447
O O2 0.335390 0.001488 0.988811
O O3 0.169722 0.905257 0.036117
O O4 0.067491 0.062855 0.900781
O O5 0.351550 0.054641 0.212081
O O6 0.500000 0.656230 0.250000
O O7 0.750000 0.750000 0.500000
O O8 0.449643 0.731520 0.418263
O O9 0.340216 0.322240 0.203279
O O10 0.417317 0.175341 0.095518
#
# Coordination Sequence:
#
# PCOD9260887 Si02
#       6
#     4   8   8   4   4   8
#     4   8  16  32  64 102 144 184 236 298 356 454
#     4  10  18  38  68 113 147 193 253 307 387 439
#     4  12  26  42  71 116 157 192 237 330 395 441
#     4   8  18  38  73 103 146 194 258 304 354 465
#     4   8  20  38  77 107 144 204 250 304 366 461
#     4  10  20  41  72 111 148 196 255 307 381 451
#
# _framework density 27.044357999999999
#
# number of rings (size 3 to 8) (size 9 to 14) (size 15 to 20)
#    0.000    2.667    3.333    0.000    1.556    0.000 
#    0.000    4.444    0.000   49.333    8.667    0.000 
#    0.000    0.000    0.000    0.000    0.000    0.000 
#
# Total GULP energy -100524.566975 kJ/mol
# GULP energy per Si atom -5584.698165 kJ/mol
# Density = 2.698280 g / cm^3
# Si number density = 27.044358 Si / 1000 Ang^3
#
#
#
# Elastic Constant Matrix: (Units=GPa)
#
#
# Indices 1 2 3 4 5 6 
#
# 1 140.4552 79.1577 27.2826 0.0000 32.6707 0.0000
# 2 79.1577 179.5606 60.9849 0.0000 33.1257 0.0000
# 3 27.2826 60.9849 151.1364 0.0000 37.9318 0.0000
# 4 0.0000 0.0000 0.0000 43.7042 0.0000 10.8257
# 5 32.6707 33.1257 37.9318 0.0000 40.5684 0.0000
# 6 0.0000 0.0000 0.0000 10.8257 0.0000 55.3840
#
#
#
# Elastic Compliance Matrix: (Units=1/GPa)
#
#
# Indices 1 2 3 4 5 6 
#
# 1 0.010593 -0.003903 0.001312 0.000000 -0.006570 0.000000
# 2 -0.003903 0.008348 -0.002276 0.000000 -0.001545 0.000000
# 3 0.001312 -0.002276 0.009273 0.000000 -0.007868 0.000000
# 4 0.000000 0.000000 0.000000 0.024045 0.000000 -0.004700
# 5 -0.006570 -0.001545 -0.007868 0.000000 0.038559 0.000000
# 6 0.000000 0.000000 0.000000 -0.004700 0.000000 0.018974
#
#
# Mechanical properties :
#
#
# Convention : Reuss Voigt Hill
#
# Bulk Modulus (GPa) = 54.11720 89.55585 71.83652
# Shear Modulus (GPa) = 39.78132 48.17979 43.98056
#
# Velocity S-wave (km/s) = 3.83948 4.22537 4.03704
# Velocity P-wave (km/s) = 6.30154 7.54926 6.95344
#
# Compressibility (1/GPa) = 0.01847841
#
# Stress axis : x y z
#
# Youngs Moduli (GPa) = 94.40246 119.79043 107.84124
#
# Poissons Ratio (x) = 0.46757 -0.14146
# Poissons Ratio (y) = 0.36848 0.24546
# Poissons Ratio (z) = -0.12383 0.27266
#
# Static dielectric constant tensor:
#      x y z
#    x 2.188060 0.000000 0.044990 
#    y 0.000000 2.165560 0.000000 
#    z 0.044990 0.000000 1.895420 
# 
# From -- ./inp_files/144473.got.cif
#   From: 2010.05.17/outbox.cif.g08.bks.cpg/sg15_73_cif.got.tgz:144473.got - 2010.06.03 18:47:42.
