data_PCOD9260633
_publ_section_title
;
Structure prediction by ZEFSAII (Michael W. Deem and Ramdas Pophale) SiO2 
 PCOD9260633
Probable space group: C 2/C
;
_chemical_formula_sum "Si O2"
_cell_formula_units_Z 60
_cell_length_a 16.126679
_cell_length_b 12.161963
_cell_length_c 19.985081
_cell_angle_alpha 90.000000
_cell_angle_beta 52.717198
_cell_angle_gamma 90.000000
_cell_volume 3118.742465
_symmetry_space_group_name_H-M "C 2/C"
_symmetry_group_IT_number 15
_symmetry_cell_setting 'monoclinic'
loop_
_space_group_symop_operation_xyz
x,y,z
-x,y,1/2-z
-x,-y,-z
x,-y,1/2+z
1/2+x,1/2+y,z
1/2-x,1/2+y,1/2-z
1/2-x,1/2-y,-z
1/2+x,1/2-y,1/2+z
loop_
_atom_site_type_symbol
_atom_site_label
_atom_site_fract_x
_atom_site_fract_y
_atom_site_fract_z
Si Si1 0.322472 0.590311 0.599093
Si Si2 0.410689 0.922837 0.569975
Si Si3 0.682261 0.357247 0.835085
Si Si4 0.036016 0.768613 0.553341
Si Si5 0.893184 0.248810 0.686837
Si Si6 0.178019 0.954018 0.689542
Si Si7 0.669752 0.240619 0.601825
Si Si8 0.000000 0.127114 0.750000
O O1 0.311138 0.462269 0.619700
O O2 0.408133 0.619373 0.499902
O O3 0.359110 0.657206 0.648000
O O4 0.214319 0.642838 0.625455
O O5 0.408094 0.824494 0.517635
O O6 0.430645 0.857278 0.628838
O O7 0.300346 0.983914 0.629161
O O8 0.500000 0.000000 0.500000
O O9 0.585358 0.280578 0.901340
O O10 0.788423 0.288562 0.775945
O O11 0.655703 0.410880 0.775352
O O12 0.059235 0.736849 0.618426
O O13 0.979115 0.201125 0.694878
O O14 0.168785 0.849554 0.646086
O O15 0.100855 0.047844 0.702063
O O16 0.750000 0.250000 0.500000
#
# Coordination Sequence:
#
# PCOD9260633 Si02
#       8
#     8   8   8   8   8   8   8   4
#     4  10  19  39  59  86 127 159 202 265 308 375
#     4  10  22  43  64  85 126 166 206 251 323 381
#     4  11  21  37  65  88 122 168 207 252 327 375
#     4  10  21  36  62  94 120 156 209 262 308 379
#     4  10  23  42  58  89 123 160 213 259 301 374
#     4  11  21  39  65  90 116 171 207 252 318 373
#     4  10  18  38  59  90 124 146 200 266 301 361
#     4  12  24  40  66  88 130 162 216 264 302 378
#
# _framework density 19.238524000000002
#
# number of rings (size 3 to 8) (size 9 to 14) (size 15 to 20)
#    0.000    1.600    6.667    1.200    1.867    0.000 
#    4.800    0.667    0.000    0.000    0.000    0.000 
#    0.000    0.000    0.000    0.000    0.000    0.000 
#
# Total GULP energy -167279.671567 kJ/mol
# GULP energy per Si atom -5575.989052 kJ/mol
# Density = 1.919474 g / cm^3
# Si number density = 19.238524 Si / 1000 Ang^3
#
#
#
# Elastic Constant Matrix: (Units=GPa)
#
#
# Indices 1 2 3 4 5 6 
#
# 1 106.8839 41.8355 20.9264 0.0000 7.4619 0.0000
# 2 41.8355 50.4715 17.0430 0.0000 -7.6626 0.0000
# 3 20.9264 17.0430 53.8220 0.0000 -9.5775 0.0000
# 4 0.0000 0.0000 0.0000 32.3480 0.0000 -4.6710
# 5 7.4619 -7.6626 -9.5775 0.0000 24.9408 0.0000
# 6 0.0000 0.0000 0.0000 -4.6710 0.0000 35.9302
#
#
#
# Elastic Compliance Matrix: (Units=1/GPa)
#
#
# Indices 1 2 3 4 5 6 
#
# 1 0.016229 -0.013761 -0.003831 0.000000 -0.010554 0.000000
# 2 -0.013761 0.034317 -0.003121 0.000000 0.013462 0.000000
# 3 -0.003831 -0.003121 0.022638 0.000000 0.008880 0.000000
# 4 0.000000 0.000000 0.000000 0.031505 0.000000 0.004096
# 5 -0.010554 0.013462 0.008880 0.000000 0.050799 0.000000
# 6 0.000000 0.000000 0.000000 0.004096 0.000000 0.028364
#
#
# Mechanical properties :
#
#
# Convention : Reuss Voigt Hill
#
# Bulk Modulus (GPa) = 31.48711 41.19858 36.34285
# Shear Modulus (GPa) = 21.19879 27.40196 24.30038
#
# Velocity S-wave (km/s) = 3.32308 3.77812 3.55788
# Velocity P-wave (km/s) = 5.57907 6.36344 5.98412
#
# Compressibility (1/GPa) = 0.03175902
#
# Stress axis : x y z
#
# Youngs Moduli (GPa) = 61.61847 29.14001 44.17434
#
# Poissons Ratio (x) = 0.40099 0.16921
# Poissons Ratio (y) = 0.84792 0.13786
# Poissons Ratio (z) = 0.23603 0.09094
#
# Static dielectric constant tensor:
#      x y z
#    x 1.726790 0.000000 -0.009060 
#    y 0.000000 1.723900 0.000000 
#    z -0.009060 0.000000 1.692360 
# 
# From -- ./inp_files/273836.got.cif
#   From: 2010.05.17/outbox.cif.g08.bks.cpg/sg15_137_cif.got.tgz:273836.got - 2010.06.03 18:47:42.
