data_PCOD9260471
_publ_section_title
;
Structure prediction by ZEFSAII (Michael W. Deem and Ramdas Pophale) SiO2 
 PCOD9260471
Probable space group: C 2/C
;
_chemical_formula_sum "Si O2"
_cell_formula_units_Z 56
_cell_length_a 9.156868
_cell_length_b 29.738631
_cell_length_c 11.814105
_cell_angle_alpha 90.000000
_cell_angle_beta 66.732266
_cell_angle_gamma 90.000000
_cell_volume 2955.478521
_symmetry_space_group_name_H-M "C 2/C"
_symmetry_group_IT_number 15
_symmetry_cell_setting 'monoclinic'
loop_
_space_group_symop_operation_xyz
x,y,z
-x,y,1/2-z
-x,-y,-z
x,-y,1/2+z
1/2+x,1/2+y,z
1/2-x,1/2+y,1/2-z
1/2-x,1/2-y,-z
1/2+x,1/2-y,1/2+z
loop_
_atom_site_type_symbol
_atom_site_label
_atom_site_fract_x
_atom_site_fract_y
_atom_site_fract_z
Si Si1 0.164710 0.577320 0.408510
Si Si2 0.188536 0.413766 0.164686
Si Si3 0.812155 0.839710 0.279192
Si Si4 0.189590 0.743343 0.151288
Si Si5 0.318023 0.514819 0.804383
Si Si6 0.708702 0.910073 0.496051
Si Si7 0.807642 0.356157 0.786424
O O1 0.208336 0.578119 0.526429
O O2 0.220381 0.530727 0.337974
O O3 0.223972 0.621703 0.324849
O O4 0.975627 0.577949 0.451523
O O5 0.270220 0.367332 0.179806
O O6 0.264429 0.453467 0.216964
O O7 0.000000 0.411687 0.250000
O O8 0.753037 0.788582 0.303653
O O9 0.731902 0.868847 0.402610
O O10 0.000000 0.840665 0.250000
O O11 0.249461 0.694498 0.173194
O O12 0.000000 0.742436 0.250000
O O13 0.250000 0.750000 0.000000
O O14 0.500000 0.501980 0.750000
O O15 0.295993 0.546612 0.920976
O O16 0.759287 0.891198 0.601206
O O17 0.000000 0.355672 0.750000
#
# Coordination Sequence:
#
# PCOD9260471 Si02
#       7
#     8   8   8   8   8   8   8
#     4  11  23  39  59  87 122 161 202 253 308 370
#     4  11  22  38  64  88 118 158 206 253 306 376
#     4  10  20  37  62  94 122 159 203 259 308 362
#     4  10  19  35  62  97 126 163 214 261 309 367
#     4  11  25  41  58  89 119 159 204 252 313 366
#     4  10  18  37  63  86 118 155 209 252 295 364
#     4   9  20  35  60  90 120 156 204 256 296 358
#
# _framework density 18.947863999999999
#
# number of rings (size 3 to 8) (size 9 to 14) (size 15 to 20)
#    0.000    1.714    4.286    2.143    2.000    1.143 
#    2.571    0.714    0.000    0.857    0.000    0.000 
#    0.000    0.000    0.000    0.000    0.000    0.000 
#
# Total GULP energy -156045.163479 kJ/mol
# GULP energy per Si atom -5573.041553 kJ/mol
# Density = 1.890474 g / cm^3
# Si number density = 18.947864 Si / 1000 Ang^3
#
#
#
# Elastic Constant Matrix: (Units=GPa)
#
#
# Indices 1 2 3 4 5 6 
#
# 1 36.4645 19.5190 19.8565 0.0000 3.9010 0.0000
# 2 19.5190 145.5517 59.1344 0.0000 6.8961 0.0000
# 3 19.8565 59.1344 90.8184 0.0000 6.0610 0.0000
# 4 0.0000 0.0000 0.0000 -8.5982 0.0000 -2.0029
# 5 3.9010 6.8961 6.0610 0.0000 24.1996 0.0000
# 6 0.0000 0.0000 0.0000 -2.0029 0.0000 19.4194
#
#
#
# Elastic Compliance Matrix: (Units=1/GPa)
#
#
# Indices 1 2 3 4 5 6 
#
# 1 0.031771 -0.001867 -0.005516 0.000000 -0.003208 0.000000
# 2 -0.001867 0.009483 -0.005702 0.000000 -0.000973 0.000000
# 3 -0.005516 -0.005702 0.016030 0.000000 -0.001501 0.000000
# 4 0.000000 0.000000 0.000000 -0.113575 0.000000 -0.011714
# 5 -0.003208 -0.000973 -0.001501 0.000000 0.042493 0.000000
# 6 0.000000 0.000000 0.000000 -0.011714 0.000000 0.050287
#
#
# Mechanical properties :
#
#
# Convention : Reuss Voigt Hill
#
# Bulk Modulus (GPa) = 32.14098 52.20604 42.17351
# Shear Modulus (GPa) = 68.46407 18.62580 43.54494
#
# Velocity S-wave (km/s) = 6.01758 3.13869 4.79910
# Velocity P-wave (km/s) = 8.07969 6.38337 7.28110
#
# Compressibility (1/GPa) = 0.03111293
#
# Stress axis : x y z
#
# Youngs Moduli (GPa) = 31.47571 105.44722 62.38407
#
# Poissons Ratio (x) = 0.19692 0.34413
# Poissons Ratio (y) = 0.05878 0.35569
# Poissons Ratio (z) = 0.17363 0.60122
#
# Static dielectric constant tensor:
#      x y z
#    x 1.629580 0.000000 -0.027200 
#    y 0.000000 1.648890 0.000000 
#    z -0.027200 0.000000 1.718930 
# 
# From -- ./inp_files/81266.got.cif
#   From: 2010.05.17/outbox.cif.g08.bks.cpg/sg15_41_cif.got.tgz:81266.got - 2010.06.03 18:47:42.
