data_PCOD9260006
_publ_section_title
;
Structure prediction by ZEFSAII (Michael W. Deem and Ramdas Pophale) SiO2 
 PCOD9260006
Probable space group: C 2/C
;
_chemical_formula_sum "Si O2"
_cell_formula_units_Z 60
_cell_length_a 12.618070
_cell_length_b 20.915969
_cell_length_c 17.882122
_cell_angle_alpha 90.000000
_cell_angle_beta 39.786120
_cell_angle_gamma 90.000000
_cell_volume 3020.077425
_symmetry_space_group_name_H-M "C 2/C"
_symmetry_group_IT_number 15
_symmetry_cell_setting 'monoclinic'
loop_
_space_group_symop_operation_xyz
x,y,z
-x,y,1/2-z
-x,-y,-z
x,-y,1/2+z
1/2+x,1/2+y,z
1/2-x,1/2+y,1/2-z
1/2-x,1/2-y,-z
1/2+x,1/2-y,1/2+z
loop_
_atom_site_type_symbol
_atom_site_label
_atom_site_fract_x
_atom_site_fract_y
_atom_site_fract_z
Si Si1 0.972249 0.898149 0.461370
Si Si2 0.004240 0.645662 0.973176
Si Si3 0.308786 0.903269 0.984398
Si Si4 0.862998 0.870260 0.760848
Si Si5 0.859852 0.786193 0.615578
Si Si6 0.500000 0.171972 0.250000
Si Si7 0.312651 0.480855 0.677933
Si Si8 0.977316 0.518360 0.924487
O O1 0.876216 0.885675 0.436869
O O2 0.978518 0.829696 0.497882
O O3 0.855145 0.939739 0.581448
O O4 0.119975 0.947267 0.367401
O O5 0.996859 0.593934 0.910607
O O6 0.067589 0.715523 0.919461
O O7 0.819374 0.639667 0.106293
O O8 0.128695 0.621884 0.970458
O O9 0.426349 0.870454 0.857946
O O10 0.317506 0.980670 0.982847
O O11 0.872289 0.819491 0.689059
O O12 0.881805 0.939640 0.710374
O O13 0.000000 0.862494 0.750000
O O14 0.667523 0.791565 0.689575
O O15 0.120700 0.485916 0.799103
O O16 0.000000 0.500000 0.000000
#
# Coordination Sequence:
#
# PCOD9260006 Si02
#       8
#     8   8   8   8   8   4   8   8
#     4   9  21  34  64  89 119 159 195 261 300 373
#     4  11  23  38  58  87 123 159 205 251 305 370
#     4  10  18  36  60  89 116 154 200 245 320 359
#     4  11  23  40  65  79 116 167 203 254 304 368
#     4  10  22  42  59  90 121 160 208 240 311 374
#     4  10  18  38  68  86 120 168 192 254 312 382
#     4  10  19  39  56  91 120 151 208 249 311 354
#     4  10  19  34  56  84 119 155 191 253 299 362
#
# _framework density 19.867039999999999
#
# number of rings (size 3 to 8) (size 9 to 14) (size 15 to 20)
#    0.000    1.867    4.000    1.600    1.867    3.733 
#    2.400    0.000    4.400    0.000    0.000    0.000 
#    0.000    0.000    0.000    0.000    0.000    0.000 
#
# Total GULP energy -167141.036992 kJ/mol
# GULP energy per Si atom -5571.367900 kJ/mol
# Density = 1.982182 g / cm^3
# Si number density = 19.867040 Si / 1000 Ang^3
#
#
#
# Elastic Constant Matrix: (Units=GPa)
#
#
# Indices 1 2 3 4 5 6 
#
# 1 82.0779 20.7887 1.2490 -0.0011 -2.7005 0.0000
# 2 20.7887 118.8048 4.5200 -0.0031 -7.5021 -0.0023
# 3 1.2490 4.5200 28.2061 -0.0004 -4.5470 -0.0020
# 4 -0.0011 -0.0031 -0.0004 -3.0554 0.0032 -13.9171
# 5 -2.7005 -7.5021 -4.5470 0.0032 12.3625 0.0020
# 6 0.0000 -0.0023 -0.0020 -13.9171 0.0020 8.2705
#
#
#
# Elastic Compliance Matrix: (Units=1/GPa)
#
#
# Indices 1 2 3 4 5 6 
#
# 1 0.012775 -0.002142 0.000019 0.000000 0.001498 0.000000
# 2 -0.002142 0.009121 -0.000585 -0.000001 0.004852 0.000000
# 3 0.000019 -0.000585 0.037727 -0.000002 0.013526 0.000003
# 4 0.000000 -0.000001 -0.000002 -0.037772 0.000019 -0.063561
# 5 0.001498 0.004852 0.013526 0.000019 0.089136 0.000015
# 6 0.000000 0.000000 0.000003 -0.063561 0.000015 0.013954
#
#
# Mechanical properties :
#
#
# Convention : Reuss Voigt Hill
#
# Bulk Modulus (GPa) = 18.44750 31.35601 24.90175
# Shear Modulus (GPa) = 33.68727 17.01758 25.35243
#
# Velocity S-wave (km/s) = 4.12228 2.92990 3.57614
# Velocity P-wave (km/s) = 5.65360 5.22140 5.44179
#
# Compressibility (1/GPa) = 0.05420790
#
# Stress axis : x y z
#
# Youngs Moduli (GPa) = 78.27817 109.64292 26.50647
#
# Poissons Ratio (x) = 0.23480 -0.00050
# Poissons Ratio (y) = 0.16763 0.01549
# Poissons Ratio (z) = -0.00148 0.06409
#
# Static dielectric constant tensor:
#      x y z
#    x 1.804220 0.000000 -0.101160 
#    y 0.000000 1.749110 0.000000 
#    z -0.101160 0.000000 1.784600 
# 
# From -- ./inp_files/200522.got.cif
#   From: 2010.05.17/outbox.cif.g08.bks.cpg/sg15_101_cif.got.tgz:200522.got - 2010.06.03 18:47:42.
