data_PCOD9260698
_publ_section_title
;
Structure prediction by ZEFSAII (Michael W. Deem and Ramdas Pophale) SiO2 
 PCOD9260698
Probable space group: C 2/C
;
_chemical_formula_sum "Si O2"
_cell_formula_units_Z 48
_cell_length_a 7.668245
_cell_length_b 30.345109
_cell_length_c 8.778239
_cell_angle_alpha 90.000000
_cell_angle_beta 90.628670
_cell_angle_gamma 90.000000
_cell_volume 2042.518221
_symmetry_space_group_name_H-M "C 2/C"
_symmetry_group_IT_number 15
_symmetry_cell_setting 'monoclinic'
loop_
_space_group_symop_operation_xyz
x,y,z
-x,y,1/2-z
-x,-y,-z
x,-y,1/2+z
1/2+x,1/2+y,z
1/2-x,1/2+y,1/2-z
1/2-x,1/2-y,-z
1/2+x,1/2-y,1/2+z
loop_
_atom_site_type_symbol
_atom_site_label
_atom_site_fract_x
_atom_site_fract_y
_atom_site_fract_z
Si Si1 0.000000 0.409149 0.250000
Si Si2 0.132354 0.207601 0.459588
Si Si3 0.500000 0.706073 0.750000
Si Si4 0.807216 0.023858 0.674383
Si Si5 0.572029 0.131490 0.424704
Si Si6 0.255454 0.214045 0.156924
Si Si7 0.673274 0.442311 0.658645
O O1 0.170689 0.439909 0.231944
O O2 0.014214 0.383263 0.414280
O O3 0.250000 0.250000 0.500000
O O4 0.089393 0.180928 0.612034
O O5 0.230725 0.187865 0.317272
O O6 0.940060 0.220998 0.401032
O O7 0.647468 0.740321 0.810293
O O8 0.834946 0.028529 0.494556
O O9 0.000000 0.028378 0.750000
O O10 0.734141 0.975502 0.720818
O O11 0.500000 0.125112 0.250000
O O12 0.627821 0.182342 0.443070
O O13 0.742963 0.101551 0.406722
O O14 0.500000 0.430481 0.750000
#
# Coordination Sequence:
#
# PCOD9260698 Si02
#       7
#     4   8   4   8   8   8   8
#     4  10  26  44  63 100 132 180 240 280 330 406
#     4   9  20  36  64  89 121 159 210 262 314 387
#     4  10  18  38  61  98 116 160 206 266 322 376
#     4  10  21  39  63  94 130 170 233 298 333 387
#     4  11  25  42  65  93 137 181 215 274 342 408
#     4  10  20  40  60  91 130 164 210 260 331 405
#     4  10  22  36  64  95 124 177 229 280 346 395
#
# _framework density 23.500404
#
# number of rings (size 3 to 8) (size 9 to 14) (size 15 to 20)
#    0.000    2.000    0.833    2.500    8.167    1.333 
#    3.000    1.667    1.833    0.000    0.000    0.000 
#    0.000    0.000    0.000    0.000    0.000    0.000 
#
# Total GULP energy -133626.009106 kJ/mol
# GULP energy per Si atom -5567.750379 kJ/mol
# Density = 2.344692 g / cm^3
# Si number density = 23.500404 Si / 1000 Ang^3
#
#
#
# Elastic Constant Matrix: (Units=GPa)
#
#
# Indices 1 2 3 4 5 6 
#
# 1 87.2871 11.5704 20.0106 0.0000 -16.7450 0.0000
# 2 11.5704 31.1858 20.9762 0.0000 -4.6315 0.0000
# 3 20.0106 20.9762 159.7020 0.0000 -55.7102 0.0000
# 4 0.0000 0.0000 0.0000 25.7399 0.0000 -12.6948
# 5 -16.7450 -4.6315 -55.7102 0.0000 42.5689 0.0000
# 6 0.0000 0.0000 0.0000 -12.6948 0.0000 22.2860
#
#
#
# Elastic Compliance Matrix: (Units=1/GPa)
#
#
# Indices 1 2 3 4 5 6 
#
# 1 0.012979 -0.004651 0.001084 0.000000 0.006018 0.000000
# 2 -0.004651 0.037230 -0.006500 0.000000 -0.006285 0.000000
# 3 0.001084 -0.006500 0.012662 0.000000 0.016290 0.000000
# 4 0.000000 0.000000 0.000000 0.054029 0.000000 0.030777
# 5 0.006018 -0.006285 0.016290 0.000000 0.046494 0.000000
# 6 0.000000 0.000000 0.000000 0.030777 0.000000 0.062403
#
#
# Mechanical properties :
#
#
# Convention : Reuss Voigt Hill
#
# Bulk Modulus (GPa) = 23.39841 42.58770 32.99306
# Shear Modulus (GPa) = 19.21776 33.16014 26.18895
#
# Velocity S-wave (km/s) = 2.86276 3.76046 3.34189
# Velocity P-wave (km/s) = 4.57224 6.08410 5.38153
#
# Compressibility (1/GPa) = 0.04273794
#
# Stress axis : x y z
#
# Youngs Moduli (GPa) = 77.04813 26.86019 78.97455
#
# Poissons Ratio (x) = 0.12492 -0.08560
# Poissons Ratio (y) = 0.35832 0.51331
# Poissons Ratio (z) = -0.08351 0.17458
#
# Static dielectric constant tensor:
#      x y z
#    x 1.891920 0.000000 0.066550 
#    y 0.000000 1.878280 0.000000 
#    z 0.066550 0.000000 2.213510 
# 
# From -- ./inp_files/26182.got.cif
#   From: 2010.05.17/outbox.cif.g08.bks.cpg/sg15_14_cif.got.tgz:26182.got - 2010.06.03 18:47:42.
