data_PCOD9260900
_publ_section_title
;
Structure prediction by ZEFSAII (Michael W. Deem and Ramdas Pophale) SiO2 
 PCOD9260900
Probable space group: C 2/C
;
_chemical_formula_sum "Si O2"
_cell_formula_units_Z 60
_cell_length_a 20.364639
_cell_length_b 11.681598
_cell_length_c 22.957218
_cell_angle_alpha 90.000000
_cell_angle_beta 27.661260
_cell_angle_gamma 90.000000
_cell_volume 2535.384700
_symmetry_space_group_name_H-M "C 2/C"
_symmetry_group_IT_number 15
_symmetry_cell_setting 'monoclinic'
loop_
_space_group_symop_operation_xyz
x,y,z
-x,y,1/2-z
-x,-y,-z
x,-y,1/2+z
1/2+x,1/2+y,z
1/2-x,1/2+y,1/2-z
1/2-x,1/2-y,-z
1/2+x,1/2-y,1/2+z
loop_
_atom_site_type_symbol
_atom_site_label
_atom_site_fract_x
_atom_site_fract_y
_atom_site_fract_z
Si Si1 0.484996 0.376536 0.586032
Si Si2 0.849011 0.112310 0.662338
Si Si3 0.795593 0.904837 0.470195
Si Si4 0.767632 0.792785 0.677253
Si Si5 0.500000 0.994706 0.750000
Si Si6 0.388299 0.004767 0.719612
Si Si7 0.390376 0.330740 0.889332
Si Si8 0.384087 0.805380 0.976329
O O1 0.442713 0.509952 0.615507
O O2 0.590627 0.357553 0.448825
O O3 0.338660 0.320989 0.682255
O O4 0.537968 0.322694 0.603571
O O5 0.856496 0.211380 0.704306
O O6 0.686538 0.073971 0.773688
O O7 0.636083 0.919699 0.623440
O O8 0.765953 0.856459 0.429237
O O9 0.884845 0.809876 0.435257
O O10 0.849744 0.033970 0.421502
O O11 0.734287 0.911107 0.671186
O O12 0.866979 0.726127 0.556395
O O13 0.442615 0.060718 0.737319
O O14 0.511475 0.914636 0.607695
O O15 0.500000 0.309345 0.750000
O O16 0.250000 0.250000 0.000000
#
# Coordination Sequence:
#
# PCOD9260900 Si02
#       8
#     8   8   8   8   4   8   8   8
#     4  10  25  45  69  98 134 188 246 284 365 422
#     4  10  23  42  68  97 138 189 227 301 350 445
#     4  10  23  42  70 104 148 182 238 297 376 432
#     4  11  22  39  68  98 140 180 237 292 362 438
#     4  10  18  38  68  96 136 184 230 292 360 438
#     4  10  21  36  60  98 133 182 231 283 371 420
#     4  12  31  52  78 105 144 197 252 305 358 434
#     4  10  22  39  65 112 139 181 226 308 371 441
#
# _framework density 23.665049
#
# number of rings (size 3 to 8) (size 9 to 14) (size 15 to 20)
#    0.000    1.600    1.333    1.600   10.267    2.667 
#    2.400    0.000    0.000    0.000    0.000    0.000 
#    0.000    0.000    0.000    0.000    0.000    0.000 
#
# Total GULP energy -167175.533062 kJ/mol
# GULP energy per Si atom -5572.517769 kJ/mol
# Density = 2.361119 g / cm^3
# Si number density = 23.665049 Si / 1000 Ang^3
#
#
#
# Elastic Constant Matrix: (Units=GPa)
#
#
# Indices 1 2 3 4 5 6 
#
# 1 133.2408 6.2709 9.8384 -0.0004 -11.6551 -0.0001
# 2 6.2709 70.3359 16.9582 -0.0012 4.5725 -0.0004
# 3 9.8384 16.9582 86.5194 -0.0019 3.1862 -0.0005
# 4 -0.0004 -0.0012 -0.0019 20.4771 0.0001 -6.2016
# 5 -11.6551 4.5725 3.1862 0.0001 31.6875 0.0001
# 6 -0.0001 -0.0004 -0.0005 -6.2016 0.0001 25.3352
#
#
#
# Elastic Compliance Matrix: (Units=1/GPa)
#
#
# Indices 1 2 3 4 5 6 
#
# 1 0.007872 -0.000692 -0.000873 0.000000 0.003083 0.000000
# 2 -0.000692 0.015094 -0.002801 0.000001 -0.002151 0.000000
# 3 -0.000873 -0.002801 0.012249 0.000001 -0.001149 0.000000
# 4 0.000000 0.000001 0.000001 0.052745 0.000000 0.012911
# 5 0.003083 -0.002151 -0.001149 0.000000 0.033118 0.000000
# 6 0.000000 0.000000 0.000000 0.012911 0.000000 0.042631
#
#
# Mechanical properties :
#
#
# Convention : Reuss Voigt Hill
#
# Bulk Modulus (GPa) = 37.75898 39.58124 38.67011
# Shear Modulus (GPa) = 27.58343 32.63519 30.10931
#
# Velocity S-wave (km/s) = 3.41776 3.71758 3.57082
# Velocity P-wave (km/s) = 5.61827 5.93204 5.77729
#
# Compressibility (1/GPa) = 0.02648377
#
# Stress axis : x y z
#
# Youngs Moduli (GPa) = 127.03391 66.25037 81.64184
#
# Poissons Ratio (x) = 0.04583 0.07128
# Poissons Ratio (y) = 0.08788 0.22865
# Poissons Ratio (z) = 0.11091 0.18555
#
# Static dielectric constant tensor:
#      x y z
#    x 1.963010 0.000000 -0.086390 
#    y 0.000000 1.930740 0.000000 
#    z -0.086390 0.000000 2.024830 
# 
# From -- ./inp_files/280086.got.cif
#   From: 2010.05.17/outbox.cif.g08.bks.cpg/sg15_141_cif.got.tgz:280086.got - 2010.06.03 18:47:42.
