data_PCOD9260673
_publ_section_title
;
Structure prediction by ZEFSAII (Michael W. Deem and Ramdas Pophale) SiO2 
 PCOD9260673
Probable space group: C 2/C
;
_chemical_formula_sum "Si O2"
_cell_formula_units_Z 36
_cell_length_a 31.669413
_cell_length_b 13.129040
_cell_length_c 12.211794
_cell_angle_alpha 90.000000
_cell_angle_beta 16.373405
_cell_angle_gamma 90.000000
_cell_volume 1431.335972
_symmetry_space_group_name_H-M "C 2/C"
_symmetry_group_IT_number 15
_symmetry_cell_setting 'monoclinic'
loop_
_space_group_symop_operation_xyz
x,y,z
-x,y,1/2-z
-x,-y,-z
x,-y,1/2+z
1/2+x,1/2+y,z
1/2-x,1/2+y,1/2-z
1/2-x,1/2-y,-z
1/2+x,1/2-y,1/2+z
loop_
_atom_site_type_symbol
_atom_site_label
_atom_site_fract_x
_atom_site_fract_y
_atom_site_fract_z
Si Si1 0.786520 0.997465 0.678932
Si Si2 0.112067 0.343476 0.254504
Si Si3 0.699652 0.808604 0.518327
Si Si4 0.500000 0.954476 0.750000
Si Si5 0.986827 0.835868 0.155443
O O1 0.945543 0.953602 0.243414
O O2 0.794989 0.105064 0.720601
O O3 0.652795 0.996857 0.921733
O O4 0.737008 0.914605 0.894023
O O5 0.962769 0.358365 0.551599
O O6 0.061800 0.389062 0.495215
O O7 0.118516 0.220903 0.259196
O O8 0.750000 0.750000 0.500000
O O9 0.657332 0.723817 0.534022
O O10 0.000000 0.812496 0.250000
#
# Coordination Sequence:
#
# PCOD9260673 Si02
#       5
#     8   8   8   4   8
#     4  11  22  34  68  87 119 163 198 246 314 335
#     4   9  20  36  62  88 118 152 206 243 293 355
#     4   9  20  39  61  90 120 152 207 253 291 355
#     4  10  18  38  60  94 112 152 208 254 282 354
#     4  10  22  40  55  88 129 154 201 244 297 370
#
# _framework density 25.151327999999999
#
# number of rings (size 3 to 8) (size 9 to 14) (size 15 to 20)
#    1.333    0.889    1.111    2.667    6.222    0.889 
#    0.000    3.333    0.000    0.000    0.000    0.000 
#    0.000    0.000    0.000    0.000    0.000    0.000 
#
# Total GULP energy -100342.064310 kJ/mol
# GULP energy per Si atom -5574.559128 kJ/mol
# Density = 2.509408 g / cm^3
# Si number density = 25.151328 Si / 1000 Ang^3
#
#
#
# Elastic Constant Matrix: (Units=GPa)
#
#
# Indices 1 2 3 4 5 6 
#
# 1 178.9501 61.1958 30.9291 0.0000 -17.0130 0.0000
# 2 61.1958 103.2335 31.5403 0.0000 -7.1590 0.0000
# 3 30.9291 31.5403 39.2449 -0.0001 -8.1527 0.0000
# 4 0.0000 0.0000 -0.0001 27.1883 0.0000 2.1041
# 5 -17.0130 -7.1590 -8.1527 0.0000 23.8338 0.0000
# 6 0.0000 0.0000 0.0000 2.1041 0.0000 40.3958
#
#
#
# Elastic Compliance Matrix: (Units=1/GPa)
#
#
# Indices 1 2 3 4 5 6 
#
# 1 0.007529 -0.003485 -0.002404 0.000000 0.003505 0.000000
# 2 -0.003485 0.014456 -0.009135 0.000000 -0.001271 0.000000
# 3 -0.002404 -0.009135 0.036376 0.000000 0.007983 0.000000
# 4 0.000000 0.000000 0.000000 0.036929 0.000000 -0.001924
# 5 0.003505 -0.001271 0.007983 0.000000 0.046808 0.000000
# 6 0.000000 0.000000 0.000000 -0.001924 0.000000 0.024855
#
#
# Mechanical properties :
#
#
# Convention : Reuss Voigt Hill
#
# Bulk Modulus (GPa) = 35.32177 63.19543 49.25860
# Shear Modulus (GPa) = 24.22026 31.46780 27.84403
#
# Velocity S-wave (km/s) = 3.10656 3.54098 3.33086
# Velocity P-wave (km/s) = 5.19055 6.47292 5.86688
#
# Compressibility (1/GPa) = 0.02831115
#
# Stress axis : x y z
#
# Youngs Moduli (GPa) = 132.82318 69.17690 27.49097
#
# Poissons Ratio (x) = 0.24111 0.06609
# Poissons Ratio (y) = 0.46294 0.25113
# Poissons Ratio (z) = 0.31934 0.63192
#
# Static dielectric constant tensor:
#      x y z
#    x 1.976950 0.000000 -0.087860 
#    y 0.000000 2.087640 0.000000 
#    z -0.087860 0.000000 2.121820 
# 
# From -- ./inp_files/126811.got.cif
#   From: 2010.05.17/outbox.cif.g08.bks.cpg/sg15_64_cif.got.tgz:126811.got - 2010.06.03 18:47:42.
