data_PCOD9260188
_publ_section_title
;
Structure prediction by ZEFSAII (Michael W. Deem and Ramdas Pophale) SiO2 
 PCOD9260188
Probable space group: C 2/C
;
_chemical_formula_sum "Si O2"
_cell_formula_units_Z 52
_cell_length_a 13.270056
_cell_length_b 8.172372
_cell_length_c 27.900171
_cell_angle_alpha 90.000000
_cell_angle_beta 41.187953
_cell_angle_gamma 90.000000
_cell_volume 1992.526619
_symmetry_space_group_name_H-M "C 2/C"
_symmetry_group_IT_number 15
_symmetry_cell_setting 'monoclinic'
loop_
_space_group_symop_operation_xyz
x,y,z
-x,y,1/2-z
-x,-y,-z
x,-y,1/2+z
1/2+x,1/2+y,z
1/2-x,1/2+y,1/2-z
1/2-x,1/2-y,-z
1/2+x,1/2-y,1/2+z
loop_
_atom_site_type_symbol
_atom_site_label
_atom_site_fract_x
_atom_site_fract_y
_atom_site_fract_z
Si Si1 0.567931 0.687076 0.982866
Si Si2 0.886356 0.405307 0.828224
Si Si3 0.924365 0.287273 0.199839
Si Si4 0.265374 0.113650 0.590119
Si Si5 0.871399 0.096870 0.439548
Si Si6 0.500000 0.513239 0.250000
Si Si7 0.846804 0.118988 0.645506
O O1 0.434294 0.818309 0.039125
O O2 0.675750 0.656584 0.990521
O O3 0.500000 0.500000 0.000000
O O4 0.645543 0.734205 0.904350
O O5 0.823002 0.284749 0.890803
O O6 0.751021 0.471349 0.842901
O O7 0.000000 0.320706 0.750000
O O8 0.979295 0.558294 0.815622
O O9 0.746068 0.325181 0.274245
O O10 0.003943 0.230898 0.122940
O O11 0.953886 0.131530 0.222869
O O12 0.162074 0.059624 0.672383
O O13 0.249373 0.975990 0.555110
O O14 0.984077 0.939492 0.404563
#
# Coordination Sequence:
#
# PCOD9260188 Si02
#       7
#     8   8   8   8   8   4   8
#     4  10  21  40  61  89 133 173 201 267 328 391
#     4  10  18  36  64  86 120 172 207 254 331 380
#     4  10  21  39  65  90 126 162 212 269 317 378
#     4  11  21  36  64  93 126 167 217 263 327 381
#     4  10  23  37  63  97 121 165 221 273 309 391
#     4  10  20  36  62  92 124 160 204 274 322 364
#     4  10  20  39  65  84 125 171 204 252 333 386
#
# _framework density 26.097518999999998
#
# number of rings (size 3 to 8) (size 9 to 14) (size 15 to 20)
#    0.000    1.846    6.154    0.000    0.000    7.385 
#    0.000    1.538    0.000    0.000    0.000    1.077 
#    0.000    0.000    0.000    0.000    0.000    0.000 
#
# Total GULP energy -145101.640646 kJ/mol
# GULP energy per Si atom -5580.832333 kJ/mol
# Density = 2.603812 g / cm^3
# Si number density = 26.097519 Si / 1000 Ang^3
#
#
#
# Elastic Constant Matrix: (Units=GPa)
#
#
# Indices 1 2 3 4 5 6 
#
# 1 73.3594 29.9665 36.9323 0.0002 2.3328 0.0007
# 2 29.9665 72.3103 55.1190 0.0008 -5.0126 0.0012
# 3 36.9323 55.1190 138.3161 0.0001 -9.4111 0.0002
# 4 0.0002 0.0008 0.0001 55.6257 0.0000 -5.0534
# 5 2.3328 -5.0126 -9.4111 0.0000 32.8831 0.0002
# 6 0.0007 0.0012 0.0002 -5.0534 0.0002 22.3975
#
#
#
# Elastic Compliance Matrix: (Units=1/GPa)
#
#
# Indices 1 2 3 4 5 6 
#
# 1 0.017232 -0.005290 -0.002684 0.000000 -0.002797 0.000000
# 2 -0.005290 0.021506 -0.007046 0.000000 0.001637 -0.000001
# 3 -0.002684 -0.007046 0.010907 0.000000 0.002238 0.000000
# 4 0.000000 0.000000 0.000000 0.018354 0.000000 0.004141
# 5 -0.002797 0.001637 0.002238 0.000000 0.031499 0.000000
# 6 0.000000 -0.000001 0.000000 0.004141 0.000000 0.045582
#
#
# Mechanical properties :
#
#
# Convention : Reuss Voigt Hill
#
# Bulk Modulus (GPa) = 51.00566 58.66906 54.83736
# Shear Modulus (GPa) = 27.52484 32.97912 30.25198
#
# Velocity S-wave (km/s) = 3.25113 3.55870 3.40838
# Velocity P-wave (km/s) = 5.80343 6.27816 6.04545
#
# Compressibility (1/GPa) = 0.01960567
#
# Stress axis : x y z
#
# Youngs Moduli (GPa) = 58.03065 46.49871 91.68737
#
# Poissons Ratio (x) = 0.24596 0.24606
# Poissons Ratio (y) = 0.30696 0.64606
# Poissons Ratio (z) = 0.15573 0.32765
#
# Static dielectric constant tensor:
#      x y z
#    x 2.052610 0.000000 0.008100 
#    y 0.000000 2.165270 0.000000 
#    z 0.008100 0.000000 2.164190 
# 
# From -- ./inp_files/313096.got.cif
#   From: 2010.05.17/outbox.cif.g08.bks.cpg/sg15_157_cif.got.tgz:313096.got - 2010.06.03 18:47:42.
