data_PCOD9260022
_publ_section_title
;
Structure prediction by ZEFSAII (Michael W. Deem and Ramdas Pophale) SiO2 
 PCOD9260022
Probable space group: C 2/C
;
_chemical_formula_sum "Si O2"
_cell_formula_units_Z 44
_cell_length_a 21.361208
_cell_length_b 8.454918
_cell_length_c 11.727463
_cell_angle_alpha 90.000000
_cell_angle_beta 107.618120
_cell_angle_gamma 90.000000
_cell_volume 2018.717133
_symmetry_space_group_name_H-M "C 2/C"
_symmetry_group_IT_number 15
_symmetry_cell_setting 'monoclinic'
loop_
_space_group_symop_operation_xyz
x,y,z
-x,y,1/2-z
-x,-y,-z
x,-y,1/2+z
1/2+x,1/2+y,z
1/2-x,1/2+y,1/2-z
1/2-x,1/2-y,-z
1/2+x,1/2-y,1/2+z
loop_
_atom_site_type_symbol
_atom_site_label
_atom_site_fract_x
_atom_site_fract_y
_atom_site_fract_z
Si Si1 0.657207 0.670536 0.979101
Si Si2 0.034533 0.959956 0.895222
Si Si3 0.500000 0.906770 0.250000
Si Si4 0.210156 0.515522 0.409131
Si Si5 0.121209 0.613606 0.672036
Si Si6 0.904097 0.617560 0.521878
O O1 0.713095 0.538013 0.029407
O O2 0.643117 0.764229 0.088548
O O3 0.590690 0.589460 0.907336
O O4 0.683166 0.804442 0.906711
O O5 0.069652 0.791733 0.942333
O O6 0.000000 0.956522 0.750000
O O7 0.000000 0.000000 0.000000
O O8 0.441435 0.824771 0.291556
O O9 0.547708 0.987758 0.369571
O O10 0.184080 0.434926 0.280458
O O11 0.170640 0.413369 0.481061
O O12 0.092881 0.453115 0.601050
#
# Coordination Sequence:
#
# PCOD9260022 Si02
#       6
#     8   8   4   8   8   8
#     4  10  23  46  66  99 138 172 241 287 353 424
#     4  12  28  46  68 103 147 190 229 298 358 414
#     4  10  18  36  60  92 136 166 220 282 326 422
#     4   9  22  44  70  96 131 179 229 299 345 424
#     4  10  21  38  67 100 130 180 227 286 348 423
#     4  10  21  40  63  98 132 179 232 277 354 416
#
# _framework density 21.796021
#
# number of rings (size 3 to 8) (size 9 to 14) (size 15 to 20)
#    0.000    1.818    0.909    1.636    5.091    5.091 
#   13.091    0.000    0.000    0.000    0.000    0.000 
#    0.000    0.000    0.000    0.000    0.000    0.000 
#
# Total GULP energy -122497.974778 kJ/mol
# GULP energy per Si atom -5568.089763 kJ/mol
# Density = 2.174641 g / cm^3
# Si number density = 21.796021 Si / 1000 Ang^3
#
#
#
# Elastic Constant Matrix: (Units=GPa)
#
#
# Indices 1 2 3 4 5 6 
#
# 1 97.9121 33.6376 34.8802 0.0000 5.2760 0.0000
# 2 33.6376 85.4730 38.0036 0.0000 1.7942 0.0000
# 3 34.8802 38.0036 85.1185 0.0000 -5.3132 0.0000
# 4 0.0000 0.0000 0.0000 28.5554 0.0000 7.5100
# 5 5.2760 1.7942 -5.3132 0.0000 19.7932 0.0000
# 6 0.0000 0.0000 0.0000 7.5100 0.0000 37.9270
#
#
#
# Elastic Compliance Matrix: (Units=1/GPa)
#
#
# Indices 1 2 3 4 5 6 
#
# 1 0.013029 -0.003173 -0.004191 0.000000 -0.004310 0.000000
# 2 -0.003173 0.015563 -0.005780 0.000000 -0.002116 0.000000
# 3 -0.004191 -0.005780 0.016424 0.000000 0.006050 0.000000
# 4 0.000000 0.000000 0.000000 0.036944 0.000000 -0.007315
# 5 -0.004310 -0.002116 0.006050 0.000000 0.053487 0.000000
# 6 0.000000 0.000000 0.000000 -0.007315 0.000000 0.027815
#
#
# Mechanical properties :
#
#
# Convention : Reuss Voigt Hill
#
# Bulk Modulus (GPa) = 53.40087 53.50516 53.45301
# Shear Modulus (GPa) = 25.53710 28.05393 26.79552
#
# Velocity S-wave (km/s) = 3.42664 3.59153 3.51005
# Velocity P-wave (km/s) = 6.34108 6.46531 6.40349
#
# Compressibility (1/GPa) = 0.01872629
#
# Stress axis : x y z
#
# Youngs Moduli (GPa) = 76.75299 64.25512 60.88573
#
# Poissons Ratio (x) = 0.20391 0.25518
# Poissons Ratio (y) = 0.24357 0.35193
# Poissons Ratio (z) = 0.32169 0.37141
#
# Static dielectric constant tensor:
#      x y z
#    x 1.828590 0.000000 -0.024270 
#    y 0.000000 1.905030 0.000000 
#    z -0.024270 0.000000 1.862270 
# 
# From -- ./inp_files/110173.got.cif
#   From: 2010.05.17/outbox.cif.g08.bks.cpg/sg15_56_cif.got.tgz:110173.got - 2010.06.03 18:47:42.
