data_PCOD9260946
_publ_section_title
;
Structure prediction by ZEFSAII (Michael W. Deem and Ramdas Pophale) SiO2 
 PCOD9260946
Probable space group: C 2/C
;
_chemical_formula_sum "Si O2"
_cell_formula_units_Z 64
_cell_length_a 12.548107
_cell_length_b 26.917244
_cell_length_c 8.788673
_cell_angle_alpha 90.000000
_cell_angle_beta 90.068843
_cell_angle_gamma 90.000000
_cell_volume 2968.464074
_symmetry_space_group_name_H-M "C 2/C"
_symmetry_group_IT_number 15
_symmetry_cell_setting 'monoclinic'
loop_
_space_group_symop_operation_xyz
x,y,z
-x,y,1/2-z
-x,-y,-z
x,-y,1/2+z
1/2+x,1/2+y,z
1/2-x,1/2+y,1/2-z
1/2-x,1/2-y,-z
1/2+x,1/2-y,1/2+z
loop_
_atom_site_type_symbol
_atom_site_label
_atom_site_fract_x
_atom_site_fract_y
_atom_site_fract_z
Si Si1 0.020217 0.380559 0.573152
Si Si2 0.378147 0.403653 0.250168
Si Si3 0.260800 0.597155 0.060977
Si Si4 0.918248 0.734777 0.374227
Si Si5 0.733284 0.687064 0.203467
Si Si6 0.815161 0.355333 0.399752
Si Si7 0.385618 0.767578 0.211890
Si Si8 0.079179 0.013653 0.360935
O O1 0.134015 0.403968 0.526624
O O2 0.039966 0.321230 0.589315
O O3 0.000000 0.397108 0.750000
O O4 0.922091 0.385619 0.452955
O O5 0.500000 0.384808 0.250000
O O6 0.326450 0.389497 0.410642
O O7 0.292591 0.386229 0.125766
O O8 0.387544 0.462861 0.222472
O O9 0.275490 0.637914 0.194609
O O10 0.316041 0.545288 0.105743
O O11 0.805279 0.726832 0.294056
O O12 0.891897 0.754262 0.541389
O O13 0.000000 0.756948 0.250000
O O14 0.629728 0.719952 0.178931
O O15 0.793574 0.676379 0.050072
O O16 0.820151 0.316643 0.259177
O O17 0.500000 0.788979 0.250000
O O18 0.000000 0.043914 0.250000
O O19 0.000000 0.000000 0.500000
#
# Coordination Sequence:
#
# PCOD9260946 Si02
#       8
#     8   8   8   8   8   8   8   8
#     4  10  19  40  69 100 125 182 227 274 347 421
#     4  11  26  44  67 106 136 177 231 280 347 423
#     4  11  23  43  72  97 139 174 233 284 347 422
#     4  10  18  39  61  82 124 171 221 270 341 404
#     4  11  24  39  62  97 127 179 232 280 341 410
#     4  12  23  42  70  92 143 182 228 288 352 407
#     4  12  24  38  60  96 131 179 238 282 345 410
#     4  11  23  45  73  99 138 183 225 284 359 417
#
# _framework density 21.559971000000001
#
# number of rings (size 3 to 8) (size 9 to 14) (size 15 to 20)
#    0.000    1.000    7.500    2.250    1.750    1.500 
#    0.000    1.875    0.000    0.000    0.000    0.000 
#    0.000    0.000    0.000    0.000    0.000    0.000 
#
# Total GULP energy -178251.914395 kJ/mol
# GULP energy per Si atom -5570.372325 kJ/mol
# Density = 2.151090 g / cm^3
# Si number density = 21.559971 Si / 1000 Ang^3
#
#
#
# Elastic Constant Matrix: (Units=GPa)
#
#
# Indices 1 2 3 4 5 6 
#
# 1 151.7578 40.6337 39.5672 0.0000 -1.5957 0.0000
# 2 40.6337 51.3736 5.1629 0.0000 2.8451 0.0000
# 3 39.5672 5.1629 79.6928 0.0000 -14.5234 0.0000
# 4 0.0000 0.0000 0.0000 12.1092 0.0000 -5.8968
# 5 -1.5957 2.8451 -14.5234 0.0000 47.3643 0.0000
# 6 0.0000 0.0000 0.0000 -5.8968 0.0000 19.8291
#
#
#
# Elastic Compliance Matrix: (Units=1/GPa)
#
#
# Indices 1 2 3 4 5 6 
#
# 1 0.009658 -0.007159 -0.004442 0.000000 -0.000607 0.000000
# 2 -0.007159 0.025023 0.001711 0.000000 -0.001220 0.000000
# 3 -0.004442 0.001711 0.015461 0.000000 0.004488 0.000000
# 4 0.000000 0.000000 0.000000 0.096566 0.000000 0.028717
# 5 -0.000607 -0.001220 0.004488 0.000000 0.022542 0.000000
# 6 0.000000 0.000000 0.000000 0.028717 0.000000 0.058971
#
#
# Mechanical properties :
#
#
# Convention : Reuss Voigt Hill
#
# Bulk Modulus (GPa) = 32.93574 50.39464 41.66519
# Shear Modulus (GPa) = 19.37071 29.02454 24.19762
#
# Velocity S-wave (km/s) = 3.00068 3.67307 3.35377
# Velocity P-wave (km/s) = 5.22637 6.43533 5.86210
#
# Compressibility (1/GPa) = 0.03036216
#
# Stress axis : x y z
#
# Youngs Moduli (GPa) = 103.54050 39.96288 64.68000
#
# Poissons Ratio (x) = 0.28609 0.28731
# Poissons Ratio (y) = 0.74125 -0.11067
# Poissons Ratio (z) = 0.45992 -0.06838
#
# Static dielectric constant tensor:
#      x y z
#    x 1.732330 0.000000 0.048360 
#    y 0.000000 1.760060 0.000000 
#    z 0.048360 0.000000 1.855990 
# 
# From -- ./inp_files/35668.got.cif
#   From: 2010.05.17/outbox.cif.g08.bks.cpg/sg15_18_cif.got.tgz:35668.got - 2010.06.03 18:47:42.
