data_PCOD9260199
_publ_section_title
;
Structure prediction by ZEFSAII (Michael W. Deem and Ramdas Pophale) SiO2 
 PCOD9260199
Probable space group: C 2/C
;
_chemical_formula_sum "Si O2"
_cell_formula_units_Z 44
_cell_length_a 11.414244
_cell_length_b 7.542561
_cell_length_c 20.350953
_cell_angle_alpha 90.000000
_cell_angle_beta 112.696527
_cell_angle_gamma 90.000000
_cell_volume 1616.389616
_symmetry_space_group_name_H-M "C 2/C"
_symmetry_group_IT_number 15
_symmetry_cell_setting 'monoclinic'
loop_
_space_group_symop_operation_xyz
x,y,z
-x,y,1/2-z
-x,-y,-z
x,-y,1/2+z
1/2+x,1/2+y,z
1/2-x,1/2+y,1/2-z
1/2-x,1/2-y,-z
1/2+x,1/2-y,1/2+z
loop_
_atom_site_type_symbol
_atom_site_label
_atom_site_fract_x
_atom_site_fract_y
_atom_site_fract_z
Si Si1 0.551331 0.230148 0.107264
Si Si2 0.770000 0.217248 0.670290
Si Si3 0.750000 0.250000 0.500000
Si Si4 0.889832 0.537500 0.762870
Si Si5 0.708304 0.595663 0.415858
Si Si6 0.464369 0.399508 0.924884
O O1 0.404282 0.221911 0.055232
O O2 0.572810 0.084481 0.167333
O O3 0.663610 0.192573 0.078611
O O4 0.573807 0.436448 0.130402
O O5 0.848490 0.392858 0.699833
O O6 0.658569 0.274150 0.594070
O O7 0.708907 0.171557 0.726961
O O8 0.826728 0.039526 0.651904
O O9 0.738465 0.462256 0.481370
O O10 0.000000 0.642272 0.750000
O O11 0.582657 0.695070 0.414795
O O12 0.500000 0.500000 0.000000
#
# Coordination Sequence:
#
# PCOD9260199 Si02
#       6
#     8   8   4   8   8   8
#     4  10  22  40  63  94 129 172 217 267 325 385
#     4  11  24  42  65  96 128 167 217 271 331 394
#     4  10  18  36  64  90 124 164 212 260 314 378
#     4  11  24  42  67  94 128 170 216 270 330 395
#     4  10  22  41  65  91 126 169 214 268 325 388
#     4  11  24  41  64  95 130 172 218 270 327 394
#
# _framework density 27.221159
#
# number of rings (size 3 to 8) (size 9 to 14) (size 15 to 20)
#    0.000    1.455    0.000    6.000    0.000    6.545 
#    0.000    2.727    0.000    0.000    0.000    0.000 
#    0.000    0.000    0.000    0.000    0.000    0.000 
#
# Total GULP energy -122632.715995 kJ/mol
# GULP energy per Si atom -5574.214363 kJ/mol
# Density = 2.715920 g / cm^3
# Si number density = 27.221159 Si / 1000 Ang^3
#
#
#
# Elastic Constant Matrix: (Units=GPa)
#
#
# Indices 1 2 3 4 5 6 
#
# 1 166.8269 22.3244 26.2191 0.0000 -4.9896 0.0000
# 2 22.3244 53.4600 0.3718 0.0000 4.3201 0.0000
# 3 26.2191 0.3718 80.2012 0.0000 6.6267 0.0000
# 4 0.0000 0.0000 0.0000 43.9701 0.0000 -8.5736
# 5 -4.9896 4.3201 6.6267 0.0000 39.1527 0.0000
# 6 0.0000 0.0000 0.0000 -8.5736 0.0000 44.2332
#
#
#
# Elastic Compliance Matrix: (Units=1/GPa)
#
#
# Indices 1 2 3 4 5 6 
#
# 1 0.006805 -0.002954 -0.002342 0.000000 0.001590 0.000000
# 2 -0.002954 0.020157 0.001103 0.000000 -0.002787 0.000000
# 3 -0.002342 0.001103 0.013452 0.000000 -0.002697 0.000000
# 4 0.000000 0.000000 0.000000 0.023636 0.000000 0.004581
# 5 0.001590 -0.002787 -0.002697 0.000000 0.026508 0.000000
# 6 0.000000 0.000000 0.000000 0.004581 0.000000 0.023495
#
#
# Mechanical properties :
#
#
# Convention : Reuss Voigt Hill
#
# Bulk Modulus (GPa) = 31.22423 44.25763 37.74093
# Shear Modulus (GPa) = 37.56118 42.24272 39.90195
#
# Velocity S-wave (km/s) = 3.71867 3.94361 3.83279
# Velocity P-wave (km/s) = 5.47115 6.08522 5.78633
#
# Compressibility (1/GPa) = 0.03202641
#
# Stress axis : x y z
#
# Youngs Moduli (GPa) = 146.94622 49.61137 74.33761
#
# Poissons Ratio (x) = 0.14655 0.17413
# Poissons Ratio (y) = 0.43407 -0.08196
# Poissons Ratio (z) = 0.34421 -0.05470
#
# Static dielectric constant tensor:
#      x y z
#    x 2.088630 0.000000 0.159490 
#    y 0.000000 1.971970 0.000000 
#    z 0.159490 0.000000 1.965770 
# 
# From -- ./inp_files/236212.got.cif
#   From: 2010.05.17/outbox.cif.g08.bks.cpg/sg15_119_cif.got.tgz:236212.got - 2010.06.03 18:47:42.
