data_PCOD9260623
_publ_section_title
;
Structure prediction by ZEFSAII (Michael W. Deem and Ramdas Pophale) SiO2 
 PCOD9260623
Probable space group: C 2/C
;
_chemical_formula_sum "Si O2"
_cell_formula_units_Z 36
_cell_length_a 15.912761
_cell_length_b 7.275912
_cell_length_c 15.584676
_cell_angle_alpha 90.000000
_cell_angle_beta 47.864865
_cell_angle_gamma 90.000000
_cell_volume 1338.072775
_symmetry_space_group_name_H-M "C 2/C"
_symmetry_group_IT_number 15
_symmetry_cell_setting 'monoclinic'
loop_
_space_group_symop_operation_xyz
x,y,z
-x,y,1/2-z
-x,-y,-z
x,-y,1/2+z
1/2+x,1/2+y,z
1/2-x,1/2+y,1/2-z
1/2-x,1/2-y,-z
1/2+x,1/2-y,1/2+z
loop_
_atom_site_type_symbol
_atom_site_label
_atom_site_fract_x
_atom_site_fract_y
_atom_site_fract_z
Si Si1 0.500000 0.356809 0.250000
Si Si2 0.411922 0.541186 0.483485
Si Si3 0.545164 0.962593 0.065038
Si Si4 0.768299 0.073697 0.851547
Si Si5 0.186727 0.637993 0.713545
O O1 0.456690 0.447687 0.368210
O O2 0.625105 0.303790 0.197163
O O3 0.500000 0.500000 0.500000
O O4 0.414774 0.755540 0.462272
O O5 0.282135 0.519394 0.599983
O O6 0.438412 0.951572 0.201580
O O7 0.659921 0.081166 0.989705
O O8 0.500000 0.000000 0.000000
O O9 0.809309 0.855351 0.817214
O O10 0.725588 0.130920 0.786497
#
# Coordination Sequence:
#
# PCOD9260623 Si02
#       5
#     4   8   8   8   8
#     4  12  22  38  58  98 116 150 206 252 284 356
#     4  11  21  37  61  87 119 159 197 239 297 358
#     4   9  19  35  59  88 115 156 194 239 298 346
#     4  10  21  35  62  86 120 152 201 242 292 353
#     4  10  18  38  58  87 116 160 191 240 299 349
#
# _framework density 26.904368000000002
#
# number of rings (size 3 to 8) (size 9 to 14) (size 15 to 20)
#    0.000    1.778    4.444    0.000    0.000    3.556 
#    0.000    0.000    0.000   17.333    0.000    0.000 
#    0.000    0.000    0.000    0.000    0.000    0.000 
#
# Total GULP energy -100549.364092 kJ/mol
# GULP energy per Si atom -5586.075783 kJ/mol
# Density = 2.684313 g / cm^3
# Si number density = 26.904368 Si / 1000 Ang^3
#
#
#
# Elastic Constant Matrix: (Units=GPa)
#
#
# Indices 1 2 3 4 5 6 
#
# 1 143.4344 35.3321 78.2354 0.0000 -39.0743 0.0000
# 2 35.3321 98.6075 71.0721 0.0000 -19.2044 0.0000
# 3 78.2354 71.0721 208.5142 0.0000 -49.4452 0.0000
# 4 0.0000 0.0000 0.0000 30.5794 0.0000 -5.9620
# 5 -39.0743 -19.2044 -49.4452 0.0000 81.6808 0.0000
# 6 0.0000 0.0000 0.0000 -5.9620 0.0000 0.2037
#
#
#
# Elastic Compliance Matrix: (Units=1/GPa)
#
#
# Indices 1 2 3 4 5 6 
#
# 1 0.009328 -0.001001 -0.002518 0.000000 0.002703 0.000000
# 2 -0.001001 0.013566 -0.004210 0.000000 0.000162 0.000000
# 3 -0.002518 -0.004210 0.007771 0.000000 0.002510 0.000000
# 4 0.000000 0.000000 0.000000 -0.006947 0.000000 -0.203359
# 5 0.002703 0.000162 0.002510 0.000000 0.015093 0.000000
# 6 0.000000 0.000000 0.000000 -0.203359 0.000000 -1.043038
#
#
# Mechanical properties :
#
#
# Convention : Reuss Voigt Hill
#
# Bulk Modulus (GPa) = 65.75992 91.09282 78.42637
# Shear Modulus (GPa) = -5.08285 40.22053 17.56884
#
# Velocity S-wave (km/s) = -1.37598 3.87065 2.55818
# Velocity P-wave (km/s) = 4.68729 7.34216 6.15947
#
# Compressibility (1/GPa) = 0.01520683
#
# Stress axis : x y z
#
# Youngs Moduli (GPa) = 107.20358 73.71484 128.69162
#
# Poissons Ratio (x) = 0.07381 0.32401
# Poissons Ratio (y) = 0.10734 0.54176
# Poissons Ratio (z) = 0.26991 0.31032
#
# Static dielectric constant tensor:
#      x y z
#    x 2.079900 0.000000 -0.045290 
#    y 0.000000 2.106410 0.000000 
#    z -0.045290 0.000000 2.143690 
# 
# From -- ./inp_files/159048.got.cif
#   From: 2010.05.17/outbox.cif.g08.bks.cpg/sg15_80_cif.got.tgz:159048.got - 2010.06.03 18:47:42.
