data_PCOD9260929
_publ_section_title
;
Structure prediction by ZEFSAII (Michael W. Deem and Ramdas Pophale) SiO2 
 PCOD9260929
Probable space group: C 2/C
;
_chemical_formula_sum "Si O2"
_cell_formula_units_Z 56
_cell_length_a 24.139035
_cell_length_b 17.878839
_cell_length_c 10.034133
_cell_angle_alpha 90.000000
_cell_angle_beta 44.176611
_cell_angle_gamma 90.000000
_cell_volume 3017.813035
_symmetry_space_group_name_H-M "C 2/C"
_symmetry_group_IT_number 15
_symmetry_cell_setting 'monoclinic'
loop_
_space_group_symop_operation_xyz
x,y,z
-x,y,1/2-z
-x,-y,-z
x,-y,1/2+z
1/2+x,1/2+y,z
1/2-x,1/2+y,1/2-z
1/2-x,1/2-y,-z
1/2+x,1/2-y,1/2+z
loop_
_atom_site_type_symbol
_atom_site_label
_atom_site_fract_x
_atom_site_fract_y
_atom_site_fract_z
Si Si1 0.323042 0.681434 0.519947
Si Si2 0.566350 0.779221 0.883299
Si Si3 0.000000 0.204174 0.250000
Si Si4 0.701586 0.677083 0.630763
Si Si5 0.805419 0.405670 0.759168
Si Si6 0.582417 0.956934 0.395587
Si Si7 0.692622 0.143352 0.534467
Si Si8 0.500000 0.868403 0.750000
O O1 0.416693 0.661108 0.369004
O O2 0.287963 0.669091 0.728784
O O3 0.321335 0.769872 0.483385
O O4 0.265377 0.642366 0.513667
O O5 0.611457 0.703160 0.764507
O O6 0.629465 0.840074 0.827967
O O7 0.527864 0.817436 0.823086
O O8 0.512249 0.755846 0.099477
O O9 0.750000 0.750000 0.500000
O O10 0.733989 0.610938 0.483950
O O11 0.849029 0.482175 0.714778
O O12 0.784300 0.399069 0.640776
O O13 0.614850 0.894795 0.235924
O O14 0.566882 0.920120 0.566978
O O15 0.500000 0.000000 0.500000
#
# Coordination Sequence:
#
# PCOD9260929 Si02
#       8
#     8   8   4   8   8   8   8   4
#     4  10  21  35  62  85 112 155 193 265 288 350
#     4  10  21  34  57  82 112 155 191 250 287 342
#     4  10  18  39  56  90 115 144 188 248 324 332
#     4   9  18  36  55  76 108 146 200 238 302 328
#     4  11  22  38  54  77 117 163 198 237 284 351
#     4  12  26  38  55  83 126 169 197 228 285 359
#     4  11  23  37  57  85 114 159 210 236 292 349
#     4  12  24  35  54  82 119 160 202 232 278 356
#
# _framework density 18.556484999999999
#
# number of rings (size 3 to 8) (size 9 to 14) (size 15 to 20)
#    0.000    1.429    5.714    1.714    4.000    1.714 
#    0.000    0.000    0.000    0.000    0.000   10.000 
#    0.000    0.000    0.000    0.000    0.000    0.000 
#
# Total GULP energy -156136.809419 kJ/mol
# GULP energy per Si atom -5576.314622 kJ/mol
# Density = 1.851425 g / cm^3
# Si number density = 18.556485 Si / 1000 Ang^3
#
#
#
# Elastic Constant Matrix: (Units=GPa)
#
#
# Indices 1 2 3 4 5 6 
#
# 1 97.4601 24.5879 48.3013 0.0000 8.3999 0.0000
# 2 24.5879 60.5577 49.7891 0.0000 2.9999 0.0000
# 3 48.3013 49.7891 164.8526 0.0000 16.4702 0.0000
# 4 0.0000 0.0000 0.0000 28.2880 0.0000 -13.7367
# 5 8.3999 2.9999 16.4702 0.0000 23.3857 0.0000
# 6 0.0000 0.0000 0.0000 -13.7367 0.0000 24.5713
#
#
#
# Elastic Compliance Matrix: (Units=1/GPa)
#
#
# Indices 1 2 3 4 5 6 
#
# 1 0.012443 -0.002833 -0.002560 0.000000 -0.002303 0.000000
# 2 -0.002833 0.022700 -0.006278 0.000000 0.002527 0.000000
# 3 -0.002560 -0.006278 0.009186 0.000000 -0.004745 0.000000
# 4 0.000000 0.000000 0.000000 0.048524 0.000000 0.027128
# 5 -0.002303 0.002527 -0.004745 0.000000 0.046606 0.000000
# 6 0.000000 0.000000 0.000000 0.027128 0.000000 0.055864
#
#
# Mechanical properties :
#
#
# Convention : Reuss Voigt Hill
#
# Bulk Modulus (GPa) = 47.65031 63.13634 55.39332
# Shear Modulus (GPa) = 22.15712 28.59513 25.37613
#
# Velocity S-wave (km/s) = 3.45923 3.92979 3.70199
# Velocity P-wave (km/s) = 6.45673 7.39518 6.94183
#
# Compressibility (1/GPa) = 0.02098622
#
# Stress axis : x y z
#
# Youngs Moduli (GPa) = 80.36944 44.05232 108.85759
#
# Poissons Ratio (x) = 0.12481 0.27866
# Poissons Ratio (y) = 0.22771 0.68345
# Poissons Ratio (z) = 0.20573 0.27658
#
# Static dielectric constant tensor:
#      x y z
#    x 1.650820 0.000000 -0.015070 
#    y 0.000000 1.664730 0.000000 
#    z -0.015070 0.000000 1.682800 
# 
# From -- ./inp_files/62712.got.cif
#   From: 2010.05.17/outbox.cif.g08.bks.cpg/sg15_32_cif.got.tgz:62712.got - 2010.06.03 18:47:42.
