data_PCOD9260894
_publ_section_title
;
Structure prediction by ZEFSAII (Michael W. Deem and Ramdas Pophale) SiO2 
 PCOD9260894
Probable space group: C 2/C
;
_chemical_formula_sum "Si O2"
_cell_formula_units_Z 56
_cell_length_a 22.981293
_cell_length_b 8.956984
_cell_length_c 13.171364
_cell_angle_alpha 90.000000
_cell_angle_beta 68.255236
_cell_angle_gamma 90.000000
_cell_volume 2518.311888
_symmetry_space_group_name_H-M "C 2/C"
_symmetry_group_IT_number 15
_symmetry_cell_setting 'monoclinic'
loop_
_space_group_symop_operation_xyz
x,y,z
-x,y,1/2-z
-x,-y,-z
x,-y,1/2+z
1/2+x,1/2+y,z
1/2-x,1/2+y,1/2-z
1/2-x,1/2-y,-z
1/2+x,1/2-y,1/2+z
loop_
_atom_site_type_symbol
_atom_site_label
_atom_site_fract_x
_atom_site_fract_y
_atom_site_fract_z
Si Si1 0.487168 0.329540 0.036551
Si Si2 0.250000 0.250000 0.000000
Si Si3 0.791700 0.553294 0.761671
Si Si4 0.183508 0.890335 0.733697
Si Si5 0.862812 0.664514 0.068625
Si Si6 0.610389 0.020679 0.648905
Si Si7 0.000000 0.290056 0.750000
Si Si8 0.948156 0.191049 0.205282
O O1 0.416569 0.275380 0.067491
O O2 0.505397 0.295875 0.140030
O O3 0.500000 0.500000 0.000000
O O4 0.525252 0.252266 0.919318
O O5 0.211711 0.132588 0.103181
O O6 0.308260 0.249427 0.043688
O O7 0.806365 0.724174 0.724406
O O8 0.722526 0.508055 0.773530
O O9 0.834742 0.433515 0.676908
O O10 0.815678 0.533081 0.862936
O O11 0.109760 0.919384 0.775679
O O12 0.890089 0.544826 0.970355
O O13 0.581131 0.167833 0.718004
O O14 0.563829 0.889818 0.711978
O O15 0.000000 0.131059 0.250000
#
# Coordination Sequence:
#
# PCOD9260894 Si02
#       8
#     8   4   8   8   8   8   4   8
#     4  12  28  44  65  98 145 179 220 282 349 420
#     4  10  18  38  68  92 122 176 224 260 336 412
#     4  10  22  40  65  99 137 175 229 277 342 409
#     4  10  22  39  64  98 130 176 221 284 335 406
#     4  11  21  41  70  97 129 179 223 280 337 403
#     4  11  21  40  69  99 130 167 235 279 337 407
#     4  12  26  42  66 102 130 178 222 284 340 402
#     4  11  21  41  69 100 129 177 227 278 338 407
#
# _framework density 22.237119
#
# number of rings (size 3 to 8) (size 9 to 14) (size 15 to 20)
#    0.000    1.143    6.429    0.000    5.000    3.429 
#    0.000    2.143    0.000    0.000    0.000    0.000 
#    0.000    0.000    0.000    0.000    0.000    0.000 
#
# Total GULP energy -155926.346135 kJ/mol
# GULP energy per Si atom -5568.798076 kJ/mol
# Density = 2.218651 g / cm^3
# Si number density = 22.237119 Si / 1000 Ang^3
#
#
#
# Elastic Constant Matrix: (Units=GPa)
#
#
# Indices 1 2 3 4 5 6 
#
# 1 140.7247 20.0520 30.9506 0.0000 8.3480 0.0000
# 2 20.0520 36.2633 -1.9622 0.0000 11.5412 0.0000
# 3 30.9506 -1.9622 79.8692 0.0000 14.7319 0.0000
# 4 0.0000 0.0000 0.0000 23.0348 0.0000 11.1158
# 5 8.3480 11.5412 14.7319 0.0000 34.0355 0.0000
# 6 0.0000 0.0000 0.0000 11.1158 0.0000 16.3743
#
#
#
# Elastic Compliance Matrix: (Units=1/GPa)
#
#
# Indices 1 2 3 4 5 6 
#
# 1 0.008611 -0.005383 -0.003713 0.000000 0.001320 0.000000
# 2 -0.005383 0.034919 0.005308 0.000000 -0.012818 0.000000
# 3 -0.003713 0.005308 0.015490 0.000000 -0.007594 0.000000
# 4 0.000000 0.000000 0.000000 0.064563 0.000000 -0.043829
# 5 0.001320 -0.012818 -0.007594 0.000000 0.036691 0.000000
# 6 0.000000 0.000000 0.000000 -0.043829 0.000000 0.090824
#
#
# Mechanical properties :
#
#
# Convention : Reuss Voigt Hill
#
# Bulk Modulus (GPa) = 19.43779 39.43756 29.43768
# Shear Modulus (GPa) = 18.12759 28.54338 23.33549
#
# Velocity S-wave (km/s) = 2.85826 3.58661 3.24295
# Velocity P-wave (km/s) = 4.43317 5.90976 5.22390
#
# Compressibility (1/GPa) = 0.05144618
#
# Stress axis : x y z
#
# Youngs Moduli (GPa) = 116.12602 28.63747 64.55621
#
# Poissons Ratio (x) = 0.15415 0.23968
# Poissons Ratio (y) = 0.62508 -0.34267
# Poissons Ratio (z) = 0.43115 -0.15201
#
# Static dielectric constant tensor:
#      x y z
#    x 1.840520 0.000000 0.011790 
#    y 0.000000 1.826160 0.000000 
#    z 0.011790 0.000000 1.852200 
# 
# From -- ./inp_files/171841.got.cif
#   From: 2010.05.17/outbox.cif.g08.bks.cpg/sg15_86_cif.got.tgz:171841.got - 2010.06.03 18:47:42.
