data_PCOD9260957
_publ_section_title
;
Structure prediction by ZEFSAII (Michael W. Deem and Ramdas Pophale) SiO2 
 PCOD9260957
Probable space group: C 2/C
;
_chemical_formula_sum "Si O2"
_cell_formula_units_Z 56
_cell_length_a 13.328629
_cell_length_b 16.274392
_cell_length_c 11.861136
_cell_angle_alpha 90.000000
_cell_angle_beta 71.281463
_cell_angle_gamma 90.000000
_cell_volume 2436.774576
_symmetry_space_group_name_H-M "C 2/C"
_symmetry_group_IT_number 15
_symmetry_cell_setting 'monoclinic'
loop_
_space_group_symop_operation_xyz
x,y,z
-x,y,1/2-z
-x,-y,-z
x,-y,1/2+z
1/2+x,1/2+y,z
1/2-x,1/2+y,1/2-z
1/2-x,1/2-y,-z
1/2+x,1/2-y,1/2+z
loop_
_atom_site_type_symbol
_atom_site_label
_atom_site_fract_x
_atom_site_fract_y
_atom_site_fract_z
Si Si1 0.940704 0.231843 0.537850
Si Si2 0.280802 0.809738 0.733247
Si Si3 0.503788 0.107003 0.616263
Si Si4 0.338370 0.971911 0.601158
Si Si5 0.615634 0.690288 0.640611
Si Si6 0.613643 0.520209 0.751012
Si Si7 0.597345 0.613604 0.413405
O O1 0.988144 0.304782 0.445441
O O2 0.009942 0.233820 0.628917
O O3 0.977373 0.146550 0.468470
O O4 0.820579 0.252570 0.615449
O O5 0.344860 0.894853 0.686973
O O6 0.310984 0.759787 0.834343
O O7 0.159714 0.835846 0.793990
O O8 0.500000 0.115781 0.750000
O O9 0.606987 0.058437 0.532958
O O10 0.403208 0.052013 0.615789
O O11 0.214567 0.990598 0.644896
O O12 0.610685 0.617725 0.735711
O O13 0.646669 0.639779 0.515969
O O14 0.500000 0.489413 0.750000
O O15 0.617645 0.480353 0.873538
#
# Coordination Sequence:
#
# PCOD9260957 Si02
#       7
#     8   8   8   8   8   8   8
#     4   9  21  38  61  95 123 162 221 260 316 396
#     4  10  18  39  62  90 129 160 214 271 321 372
#     4  10  21  41  65  94 132 169 207 276 339 376
#     4   9  23  39  63 100 131 165 221 264 325 405
#     4  10  22  39  64  92 124 172 215 264 324 375
#     4  11  23  42  63  91 137 173 211 268 324 382
#     4   9  23  38  60  97 121 165 219 266 312 392
#
# _framework density 22.981199
#
# number of rings (size 3 to 8) (size 9 to 14) (size 15 to 20)
#    0.857    1.429    0.000    1.714    2.000    6.857 
#    0.000    1.429    0.000    5.143    0.000    0.000 
#    0.000    0.000    0.000    0.000    0.000    0.000 
#
# Total GULP energy -155933.858860 kJ/mol
# GULP energy per Si atom -5569.066388 kJ/mol
# Density = 2.292889 g / cm^3
# Si number density = 22.981199 Si / 1000 Ang^3
#
#
#
# Elastic Constant Matrix: (Units=GPa)
#
#
# Indices 1 2 3 4 5 6 
#
# 1 64.3952 29.8271 39.2986 0.0000 -27.1108 0.0000
# 2 29.8271 96.8812 67.1282 0.0000 -4.9915 0.0000
# 3 39.2986 67.1282 131.1802 0.0000 -10.3777 0.0000
# 4 0.0000 0.0000 0.0000 40.8859 0.0000 3.7479
# 5 -27.1108 -4.9915 -10.3777 0.0000 27.0966 0.0000
# 6 0.0000 0.0000 0.0000 3.7479 0.0000 20.4150
#
#
#
# Elastic Compliance Matrix: (Units=1/GPa)
#
#
# Indices 1 2 3 4 5 6 
#
# 1 0.034370 -0.005502 -0.004992 0.000000 0.031462 0.000000
# 2 -0.005502 0.016874 -0.007400 0.000000 -0.005230 0.000000
# 3 -0.004992 -0.007400 0.012790 0.000000 -0.001459 0.000000
# 4 0.000000 0.000000 0.000000 0.024877 0.000000 -0.004567
# 5 0.031462 -0.005230 -0.001459 0.000000 0.066861 0.000000
# 6 0.000000 0.000000 0.000000 -0.004567 0.000000 0.049822
#
#
# Mechanical properties :
#
#
# Convention : Reuss Voigt Hill
#
# Bulk Modulus (GPa) = 35.40371 62.77381 49.08876
# Shear Modulus (GPa) = 19.93639 28.09302 24.01470
#
# Velocity S-wave (km/s) = 2.94855 3.50013 3.23611
# Velocity P-wave (km/s) = 5.19912 6.61129 5.94727
#
# Compressibility (1/GPa) = 0.02824563
#
# Stress axis : x y z
#
# Youngs Moduli (GPa) = 29.09536 59.26304 78.18511
#
# Poissons Ratio (x) = 0.32604 0.39031
# Poissons Ratio (y) = 0.16007 0.57860
# Poissons Ratio (z) = 0.14525 0.43857
#
# Static dielectric constant tensor:
#      x y z
#    x 1.888160 0.000000 -0.055100 
#    y 0.000000 1.864220 0.000000 
#    z -0.055100 0.000000 1.957710 
# 
# From -- ./inp_files/98252.got.cif
#   From: 2010.05.17/outbox.cif.g08.bks.cpg/sg15_50_cif.got.tgz:98252.got - 2010.06.03 18:47:42.
