data_PCOD9260582
_publ_section_title
;
Structure prediction by ZEFSAII (Michael W. Deem and Ramdas Pophale) SiO2 
 PCOD9260582
Probable space group: C 2/C
;
_chemical_formula_sum "Si O2"
_cell_formula_units_Z 36
_cell_length_a 4.873741
_cell_length_b 24.162632
_cell_length_c 14.593884
_cell_angle_alpha 90.000000
_cell_angle_beta 99.612565
_cell_angle_gamma 90.000000
_cell_volume 1694.480696
_symmetry_space_group_name_H-M "C 2/C"
_symmetry_group_IT_number 15
_symmetry_cell_setting 'monoclinic'
loop_
_space_group_symop_operation_xyz
x,y,z
-x,y,1/2-z
-x,-y,-z
x,-y,1/2+z
1/2+x,1/2+y,z
1/2-x,1/2+y,1/2-z
1/2-x,1/2-y,-z
1/2+x,1/2-y,1/2+z
loop_
_atom_site_type_symbol
_atom_site_label
_atom_site_fract_x
_atom_site_fract_y
_atom_site_fract_z
Si Si1 0.500000 0.625000 0.250000
Si Si2 0.021560 0.319201 0.466609
Si Si3 0.095205 0.794852 0.593350
Si Si4 0.695048 0.430799 0.466609
Si Si5 0.251855 0.955148 0.906650
O O1 0.373180 0.665893 0.318277
O O2 0.304904 0.584108 0.181723
O O3 0.972928 0.269457 0.392347
O O4 0.877728 0.298386 0.552418
O O5 0.843499 0.375000 0.436999
O O6 0.346257 0.317743 0.513224
O O7 0.416966 0.432257 0.513224
O O8 0.669417 0.480543 0.392347
O O9 0.924688 0.451614 0.552418
#
# Coordination Sequence:
#
# PCOD9260582 Si02
#       5
#     4   8   8   8   8
#     4  12  20  38  52  98 112 146 184 272 276 350
#     4  10  18  38  52  80 107 158 186 226 272 376
#     4  10  22  30  58  80 114 143 191 230 298 322
#     4  10  18  38  52  80 107 158 186 226 272 376
#     4  10  22  30  58  80 114 143 191 230 298 322
#
# _framework density 21.245450000000002
#
# number of rings (size 3 to 8) (size 9 to 14) (size 15 to 20)
#    0.000    1.778    4.444    0.000    0.000    3.556 
#    0.000    0.000    0.000   16.000    0.000    0.000 
#    0.000    0.000    0.000    0.000    0.000    0.000 
#
# Total GULP energy -100239.740000 kJ/mol
# GULP energy per Si atom -5568.874444 kJ/mol
# Density = 2.119709 g / cm^3
# Si number density = 21.245450 Si / 1000 Ang^3
#
#
#
# Elastic Constant Matrix: (Units=GPa)
#
#
# Indices 1 2 3 4 5 6 
#
# 1 82.9169 -11.3246 -2.9656 0.0000 5.1361 0.0000
# 2 -11.3246 190.8154 29.0265 0.0000 -2.7144 0.0000
# 3 -2.9656 29.0265 56.0339 0.0000 -3.3271 0.0000
# 4 0.0000 0.0000 0.0000 48.0159 0.0000 -1.1034
# 5 5.1361 -2.7144 -3.3271 0.0000 5.3408 0.0000
# 6 0.0000 0.0000 0.0000 -1.1034 0.0000 31.6158
#
#
#
# Elastic Compliance Matrix: (Units=1/GPa)
#
#
# Indices 1 2 3 4 5 6 
#
# 1 0.012898 0.000649 -0.000385 0.000000 -0.012313 0.000000
# 2 0.000649 0.005728 -0.002904 0.000000 0.000478 0.000000
# 3 -0.000385 -0.002904 0.020005 0.000000 0.011356 0.000000
# 4 0.000000 0.000000 0.000000 0.020843 0.000000 0.000727
# 5 -0.012313 0.000478 0.011356 0.000000 0.206395 0.000000
# 6 0.000000 0.000000 0.000000 0.000727 0.000000 0.031655
#
#
# Mechanical properties :
#
#
# Convention : Reuss Voigt Hill
#
# Bulk Modulus (GPa) = 29.98492 39.91541 34.95016
# Shear Modulus (GPa) = 15.92760 37.99650 26.96205
#
# Velocity S-wave (km/s) = 2.74103 4.23360 3.56627
# Velocity P-wave (km/s) = 4.91547 6.53654 5.78309
#
# Compressibility (1/GPa) = 0.03335010
#
# Stress axis : x y z
#
# Youngs Moduli (GPa) = 77.53242 174.58772 49.98809
#
# Poissons Ratio (x) = -0.11327 0.01922
# Poissons Ratio (y) = -0.05030 0.14518
# Poissons Ratio (z) = 0.02982 0.50707
#
# Static dielectric constant tensor:
#      x y z
#    x 1.753340 0.000000 0.001580 
#    y 0.000000 2.030350 0.000000 
#    z 0.001580 0.000000 1.729780 
# 
# From -- ./inp_files/129214.got.cif
#   From: 2010.05.17/outbox.cif.g08.bks.cpg/sg15_65_cif.got.tgz:129214.got - 2010.06.03 18:47:42.
