data_PCOD9260831
_publ_section_title
;
Structure prediction by ZEFSAII (Michael W. Deem and Ramdas Pophale) SiO2 
 PCOD9260831
Probable space group: C 2/C
;
_chemical_formula_sum "Si O2"
_cell_formula_units_Z 48
_cell_length_a 21.872685
_cell_length_b 15.017311
_cell_length_c 10.139437
_cell_angle_alpha 90.000000
_cell_angle_beta 140.200218
_cell_angle_gamma 90.000000
_cell_volume 2131.869122
_symmetry_space_group_name_H-M "C 2/C"
_symmetry_group_IT_number 15
_symmetry_cell_setting 'monoclinic'
loop_
_space_group_symop_operation_xyz
x,y,z
-x,y,1/2-z
-x,-y,-z
x,-y,1/2+z
1/2+x,1/2+y,z
1/2-x,1/2+y,1/2-z
1/2-x,1/2-y,-z
1/2+x,1/2-y,1/2+z
loop_
_atom_site_type_symbol
_atom_site_label
_atom_site_fract_x
_atom_site_fract_y
_atom_site_fract_z
Si Si1 0.599135 0.399516 0.336773
Si Si2 0.913466 0.587350 0.266081
Si Si3 0.792949 0.798914 0.750318
Si Si4 0.754037 0.951719 0.478662
Si Si5 0.380149 0.872418 0.425362
Si Si6 0.837686 0.246390 0.750466
O O1 0.500000 0.413142 0.250000
O O2 0.666188 0.358408 0.562682
O O3 0.651937 0.488452 0.373696
O O4 0.598191 0.331388 0.209563
O O5 0.836689 0.509755 0.121992
O O6 0.887825 0.657172 0.335985
O O7 0.026245 0.570792 0.456511
O O8 0.894759 0.645133 0.102766
O O9 0.766688 0.864579 0.589015
O O10 0.870845 0.723684 0.842018
O O11 0.707972 0.741976 0.679404
O O12 0.713910 0.926459 0.268034
O O13 0.750000 0.250000 0.500000
#
# Coordination Sequence:
#
# PCOD9260831 Si02
#       6
#     8   8   8   8   8   8
#     4  11  22  41  70  95 126 177 233 271 317 411
#     4  11  21  40  67  92 119 171 231 272 317 403
#     4  11  22  41  65  93 135 175 213 273 340 407
#     4  12  24  40  61 100 140 162 211 289 354 378
#     4  11  23  40  65  93 127 175 220 272 334 409
#     4  10  18  38  65  92 119 169 226 262 316 394
#
# _framework density 22.515453999999998
#
# number of rings (size 3 to 8) (size 9 to 14) (size 15 to 20)
#    0.000    1.000    6.667    3.000    0.000    0.667 
#    0.000    1.667    0.000    0.000    0.000    0.000 
#    0.000    0.000    0.000    0.000    0.000    0.000 
#
# Total GULP energy -133775.054235 kJ/mol
# GULP energy per Si atom -5573.960593 kJ/mol
# Density = 2.246421 g / cm^3
# Si number density = 22.515454 Si / 1000 Ang^3
#
#
#
# Elastic Constant Matrix: (Units=GPa)
#
#
# Indices 1 2 3 4 5 6 
#
# 1 93.3115 27.1854 32.3720 0.0000 20.8760 0.0000
# 2 27.1854 82.5265 24.3246 0.0000 7.2057 0.0000
# 3 32.3720 24.3246 54.1594 0.0000 0.6657 0.0000
# 4 0.0000 0.0000 0.0000 19.3411 0.0000 -6.7165
# 5 20.8760 7.2057 0.6657 0.0000 29.3894 0.0000
# 6 0.0000 0.0000 0.0000 -6.7165 0.0000 39.4019
#
#
#
# Elastic Compliance Matrix: (Units=1/GPa)
#
#
# Indices 1 2 3 4 5 6 
#
# 1 0.017003 -0.001903 -0.009168 0.000000 -0.011403 0.000000
# 2 -0.001903 0.014503 -0.005351 0.000000 -0.002083 0.000000
# 3 -0.009168 -0.005351 0.026258 0.000000 0.007230 0.000000
# 4 0.000000 0.000000 0.000000 0.054957 0.000000 0.009368
# 5 -0.011403 -0.002083 0.007230 0.000000 0.042473 0.000000
# 6 0.000000 0.000000 0.000000 0.009368 0.000000 0.026976
#
#
# Mechanical properties :
#
#
# Convention : Reuss Voigt Hill
#
# Bulk Modulus (GPa) = 40.12729 44.19573 42.16151
# Shear Modulus (GPa) = 22.38924 27.36749 24.87837
#
# Velocity S-wave (km/s) = 3.15682 3.49018 3.32768
# Velocity P-wave (km/s) = 5.58106 5.99279 5.79058
#
# Compressibility (1/GPa) = 0.02492070
#
# Stress axis : x y z
#
# Youngs Moduli (GPa) = 58.81269 68.95025 38.08316
#
# Poissons Ratio (x) = 0.13122 0.34915
# Poissons Ratio (y) = 0.11192 0.20377
# Poissons Ratio (z) = 0.53921 0.36893
#
# Static dielectric constant tensor:
#      x y z
#    x 1.949730 0.000000 0.048580 
#    y 0.000000 1.926520 0.000000 
#    z 0.048580 0.000000 1.831260 
# 
# From -- ./inp_files/119116.got.cif
#   From: 2010.05.17/outbox.cif.g08.bks.cpg/sg15_60_cif.got.tgz:119116.got - 2010.06.03 18:47:42.
