data_PCOD9260789
_publ_section_title
;
Structure prediction by ZEFSAII (Michael W. Deem and Ramdas Pophale) SiO2 
 PCOD9260789
Probable space group: C 2/C
;
_chemical_formula_sum "Si O2"
_cell_formula_units_Z 44
_cell_length_a 18.532930
_cell_length_b 7.481050
_cell_length_c 15.419655
_cell_angle_alpha 90.000000
_cell_angle_beta 53.921808
_cell_angle_gamma 90.000000
_cell_volume 1727.856675
_symmetry_space_group_name_H-M "C 2/C"
_symmetry_group_IT_number 15
_symmetry_cell_setting 'monoclinic'
loop_
_space_group_symop_operation_xyz
x,y,z
-x,y,1/2-z
-x,-y,-z
x,-y,1/2+z
1/2+x,1/2+y,z
1/2-x,1/2+y,1/2-z
1/2-x,1/2-y,-z
1/2+x,1/2-y,1/2+z
loop_
_atom_site_type_symbol
_atom_site_label
_atom_site_fract_x
_atom_site_fract_y
_atom_site_fract_z
Si Si1 0.500000 0.929006 0.250000
Si Si2 0.599866 0.129169 0.839880
Si Si3 0.280913 0.339925 0.119506
Si Si4 0.961531 0.774872 0.074640
Si Si5 0.601105 0.738329 0.604802
Si Si6 0.248146 0.974976 0.047288
O O1 0.429939 0.069522 0.338527
O O2 0.448639 0.818191 0.215512
O O3 0.704620 0.145615 0.746790
O O4 0.577888 0.919142 0.870180
O O5 0.542277 0.233197 0.951386
O O6 0.378690 0.376004 0.090144
O O7 0.277978 0.138025 0.085060
O O8 0.259652 0.454213 0.047420
O O9 0.016266 0.846912 0.118242
O O10 0.682730 0.812700 0.488203
O O11 0.650507 0.606091 0.634997
#
# Coordination Sequence:
#
# PCOD9260789 Si02
#       6
#     4   8   8   8   8   8
#     4  10  18  38  64  88 114 180 210 246 310 400
#     4  10  21  39  66  91 124 170 212 254 316 388
#     4  11  22  41  65  97 126 162 211 268 322 368
#     4  10  23  41  64  92 129 165 212 260 321 377
#     4  10  21  43  63  87 129 168 209 259 313 386
#     4  10  22  39  65  94 125 163 214 265 309 383
#
# _framework density 25.465077000000001
#
# number of rings (size 3 to 8) (size 9 to 14) (size 15 to 20)
#    0.000    1.818    1.818    3.273    2.545    2.182 
#   13.091    0.000    0.000    0.000    0.000    0.000 
#    0.000    0.000    0.000    0.000    0.000    0.000 
#
# Total GULP energy -122958.245454 kJ/mol
# GULP energy per Si atom -5589.011157 kJ/mol
# Density = 2.540712 g / cm^3
# Si number density = 25.465077 Si / 1000 Ang^3
#
#
#
# Elastic Constant Matrix: (Units=GPa)
#
#
# Indices 1 2 3 4 5 6 
#
# 1 187.3448 16.8372 37.6727 -0.0001 -35.9702 0.0000
# 2 16.8372 74.3193 5.0019 0.0068 -15.2816 0.0000
# 3 37.6727 5.0019 102.0091 0.0024 -27.7689 0.0000
# 4 -0.0001 0.0068 0.0024 -358.2740 -0.0025 14.1626
# 5 -35.9702 -15.2816 -27.7689 -0.0025 30.3187 0.0000
# 6 0.0000 0.0000 0.0000 14.1626 0.0000 21.8767
#
#
#
# Elastic Compliance Matrix: (Units=1/GPa)
#
#
# Indices 1 2 3 4 5 6 
#
# 1 0.006927 0.000078 -0.000418 0.000000 0.007874 0.000000
# 2 0.000078 0.015254 0.001787 0.000000 0.009418 0.000000
# 3 -0.000418 0.001787 0.013295 0.000000 0.012581 0.000000
# 4 0.000000 0.000000 0.000000 -0.002722 0.000000 0.001762
# 5 0.007874 0.009418 0.012581 0.000000 0.058594 0.000000
# 6 0.000000 0.000000 0.000000 0.001762 0.000000 0.044570
#
#
# Mechanical properties :
#
#
# Convention : Reuss Voigt Hill
#
# Bulk Modulus (GPa) = 26.06327 53.63299 39.84813
# Shear Modulus (GPa) = 34.29007 -40.93829 -3.32411
#
# Velocity S-wave (km/s) = 3.67352 -4.01387 -1.14376
# Velocity P-wave (km/s) = 5.31509 0.61190 3.73334
#
# Compressibility (1/GPa) = 0.03836818
#
# Stress axis : x y z
#
# Youngs Moduli (GPa) = 144.36939 65.55661 75.21780
#
# Poissons Ratio (x) = -0.00511 0.03148
# Poissons Ratio (y) = -0.01125 -0.13441
# Poissons Ratio (z) = 0.06041 -0.11714
#
# Static dielectric constant tensor:
#      x y z
#    x 2.148800 0.000000 -0.079020 
#    y 0.000000 1.998530 0.000000 
#    z -0.079020 0.000000 2.223240 
# 
# From -- ./inp_files/176428.got.cif
#   From: 2010.05.17/outbox.cif.g08.bks.cpg/sg15_89_cif.got.tgz:176428.got - 2010.06.03 18:47:42.
