data_PCOD9260550
_publ_section_title
;
Structure prediction by ZEFSAII (Michael W. Deem and Ramdas Pophale) SiO2 
 PCOD9260550
Probable space group: C 2/C
;
_chemical_formula_sum "Si O2"
_cell_formula_units_Z 48
_cell_length_a 10.643769
_cell_length_b 9.807982
_cell_length_c 20.321632
_cell_angle_alpha 90.000000
_cell_angle_beta 78.382217
_cell_angle_gamma 90.000000
_cell_volume 2077.991640
_symmetry_space_group_name_H-M "C 2/C"
_symmetry_group_IT_number 15
_symmetry_cell_setting 'monoclinic'
loop_
_space_group_symop_operation_xyz
x,y,z
-x,y,1/2-z
-x,-y,-z
x,-y,1/2+z
1/2+x,1/2+y,z
1/2-x,1/2+y,1/2-z
1/2-x,1/2-y,-z
1/2+x,1/2-y,1/2+z
loop_
_atom_site_type_symbol
_atom_site_label
_atom_site_fract_x
_atom_site_fract_y
_atom_site_fract_z
Si Si1 0.640574 0.713252 0.566264
Si Si2 0.060031 0.346634 0.000097
Si Si3 0.766765 0.942822 0.894508
Si Si4 0.135405 0.871267 0.748128
Si Si5 0.620159 0.902049 0.693795
Si Si6 0.544488 0.865906 0.353509
O O1 0.750000 0.750000 0.500000
O O2 0.508712 0.757072 0.547329
O O3 0.639095 0.555927 0.586367
O O4 0.658864 0.801297 0.630580
O O5 0.204403 0.366398 0.962281
O O6 0.000000 0.500000 0.000000
O O7 0.020169 0.296543 0.076010
O O8 0.657595 0.037748 0.870387
O O9 0.816332 0.847853 0.831100
O O10 0.255160 0.933639 0.775239
O O11 0.098048 0.739678 0.794967
O O12 0.000000 0.949529 0.750000
O O13 0.500000 0.845480 0.750000
O O14 0.439739 0.036042 0.832325
#
# Coordination Sequence:
#
# PCOD9260550 Si02
#       6
#     8   8   8   8   8   8
#     4  12  19  34  67 105 140 178 235 298 353 423
#     4  10  18  37  67 108 137 180 244 294 353 433
#     4  11  22  40  64 106 140 186 243 295 354 429
#     4  12  27  44  63 101 149 186 238 303 358 424
#     4  12  22  39  70 102 132 194 244 280 364 430
#     4  11  21  41  73 100 140 188 239 296 355 431
#
# _framework density 23.099226999999999
#
# number of rings (size 3 to 8) (size 9 to 14) (size 15 to 20)
#    0.000    0.667   10.000    0.500    0.000    0.667 
#    3.000    0.833    0.000    7.000    0.000    0.000 
#    0.000    0.000    0.000    0.000    0.000    0.000 
#
# Total GULP energy -134163.250996 kJ/mol
# GULP energy per Si atom -5590.135458 kJ/mol
# Density = 2.304665 g / cm^3
# Si number density = 23.099227 Si / 1000 Ang^3
#
#
#
# Elastic Constant Matrix: (Units=GPa)
#
#
# Indices 1 2 3 4 5 6 
#
# 1 95.5477 30.9180 15.9252 0.0000 14.3570 0.0000
# 2 30.9180 75.2924 46.4613 0.0000 5.7179 0.0000
# 3 15.9252 46.4613 171.4314 0.0000 -18.5530 0.0000
# 4 0.0000 0.0000 0.0000 48.4485 0.0000 3.1748
# 5 14.3570 5.7179 -18.5530 0.0000 47.9412 0.0000
# 6 0.0000 0.0000 0.0000 3.1748 0.0000 36.1821
#
#
#
# Elastic Compliance Matrix: (Units=1/GPa)
#
#
# Indices 1 2 3 4 5 6 
#
# 1 0.012536 -0.004757 -0.000230 0.000000 -0.003276 0.000000
# 2 -0.004757 0.018420 -0.004836 0.000000 -0.002644 0.000000
# 3 -0.000230 -0.004836 0.007552 0.000000 0.003568 0.000000
# 4 0.000000 0.000000 0.000000 0.020760 0.000000 -0.001822
# 5 -0.003276 -0.002644 0.003568 0.000000 0.023536 0.000000
# 6 0.000000 0.000000 0.000000 -0.001822 0.000000 0.027798
#
#
# Mechanical properties :
#
#
# Convention : Reuss Voigt Hill
#
# Bulk Modulus (GPa) = 53.01988 58.76449 55.89219
# Shear Modulus (GPa) = 36.62063 43.11217 39.86640
#
# Velocity S-wave (km/s) = 3.98598 4.32486 4.15887
# Velocity P-wave (km/s) = 6.64733 7.10172 6.87828
#
# Compressibility (1/GPa) = 0.01886085
#
# Stress axis : x y z
#
# Youngs Moduli (GPa) = 79.77141 54.28786 132.42386
#
# Poissons Ratio (x) = 0.25826 0.03042
# Poissons Ratio (y) = 0.37949 0.64047
# Poissons Ratio (z) = 0.01833 0.26256
#
# Static dielectric constant tensor:
#      x y z
#    x 1.896880 0.000000 0.022420 
#    y 0.000000 1.857800 0.000000 
#    z 0.022420 0.000000 1.832100 
# 
# From -- ./inp_files/196003.got.cif
#   From: 2010.05.17/outbox.cif.g08.bks.cpg/sg15_99_cif.got.tgz:196003.got - 2010.06.03 18:47:42.
