data_PCOD9260630
_publ_section_title
;
Structure prediction by ZEFSAII (Michael W. Deem and Ramdas Pophale) SiO2 
 PCOD9260630
Probable space group: C 2/C
;
_chemical_formula_sum "Si O2"
_cell_formula_units_Z 44
_cell_length_a 15.108723
_cell_length_b 11.008552
_cell_length_c 25.152337
_cell_angle_alpha 90.000000
_cell_angle_beta 30.567834
_cell_angle_gamma 90.000000
_cell_volume 2127.535851
_symmetry_space_group_name_H-M "C 2/C"
_symmetry_group_IT_number 15
_symmetry_cell_setting 'monoclinic'
loop_
_space_group_symop_operation_xyz
x,y,z
-x,y,1/2-z
-x,-y,-z
x,-y,1/2+z
1/2+x,1/2+y,z
1/2-x,1/2+y,1/2-z
1/2-x,1/2-y,-z
1/2+x,1/2-y,1/2+z
loop_
_atom_site_type_symbol
_atom_site_label
_atom_site_fract_x
_atom_site_fract_y
_atom_site_fract_z
Si Si1 0.971741 0.536023 0.617328
Si Si2 0.618840 0.217141 0.615171
Si Si3 0.149698 0.940471 0.739673
Si Si4 0.500000 0.647239 0.750000
Si Si5 0.178741 0.297261 0.480527
Si Si6 0.097773 0.295760 0.959517
O O1 0.022901 0.596550 0.646358
O O2 0.111768 0.434376 0.527666
O O3 0.982637 0.643585 0.566489
O O4 0.781649 0.474662 0.718366
O O5 0.750000 0.250000 0.500000
O O6 0.481497 0.327913 0.688880
O O7 0.750818 0.208984 0.596223
O O8 0.288004 0.907183 0.622253
O O9 0.049124 0.058870 0.773288
O O10 0.666062 0.715774 0.642122
O O11 0.250000 0.250000 0.500000
O O12 0.013159 0.245762 0.532686
#
# Coordination Sequence:
#
# PCOD9260630 Si02
#       6
#     8   8   8   4   8   8
#     4  10  20  38  60  93 124 152 208 269 308 366
#     4  10  20  34  59  93 124 156 207 256 310 373
#     4  11  18  33  63  88 113 160 208 251 307 368
#     4  12  18  36  64  86 118 158 218 252 310 368
#     4  11  23  38  61  91 122 163 209 263 314 369
#     4  10  18  38  59  86 122 155 207 258 302 377
#
# _framework density 20.681201999999999
#
# number of rings (size 3 to 8) (size 9 to 14) (size 15 to 20)
#    0.000    1.455    5.455    2.182    0.000    2.909 
#    0.000    0.909    4.000    0.000    0.000    0.000 
#    0.000    0.000    0.000    0.000    0.000    0.000 
#
# Total GULP energy -122501.508117 kJ/mol
# GULP energy per Si atom -5568.250369 kJ/mol
# Density = 2.063413 g / cm^3
# Si number density = 20.681202 Si / 1000 Ang^3
#
#
#
# Elastic Constant Matrix: (Units=GPa)
#
#
# Indices 1 2 3 4 5 6 
#
# 1 174.9448 48.6046 41.6338 0.0003 -39.5561 0.0000
# 2 48.6046 25.8710 22.6064 0.0003 -10.7507 0.0000
# 3 41.6338 22.6064 83.4178 0.0020 -25.2623 -0.0004
# 4 0.0003 0.0003 0.0020 9.0838 -0.0006 0.4375
# 5 -39.5561 -10.7507 -25.2623 -0.0006 30.9635 0.0001
# 6 0.0000 0.0000 -0.0004 0.4375 0.0001 44.3856
#
#
#
# Elastic Compliance Matrix: (Units=1/GPa)
#
#
# Indices 1 2 3 4 5 6 
#
# 1 0.015008 -0.025791 0.003445 0.000000 0.013028 0.000000
# 2 -0.025791 0.096705 -0.017458 0.000001 -0.013616 0.000000
# 3 0.003445 -0.017458 0.019254 -0.000003 0.014048 0.000000
# 4 0.000000 0.000001 -0.000003 0.110138 0.000001 -0.001086
# 5 0.013028 -0.013616 0.014048 0.000001 0.055673 0.000000
# 6 0.000000 0.000000 0.000000 -0.001086 0.000000 0.022541
#
#
# Mechanical properties :
#
#
# Convention : Reuss Voigt Hill
#
# Bulk Modulus (GPa) = 19.47156 56.65813 38.06485
# Shear Modulus (GPa) = 12.01785 28.31251 20.16518
#
# Velocity S-wave (km/s) = 2.41322 3.70401 3.12596
# Velocity P-wave (km/s) = 4.14733 6.76375 5.61020
#
# Compressibility (1/GPa) = 0.05135694
#
# Stress axis : x y z
#
# Youngs Moduli (GPa) = 66.63322 10.34069 51.93689
#
# Poissons Ratio (x) = 0.26670 -0.17890
# Poissons Ratio (y) = 1.71856 0.90673
# Poissons Ratio (z) = -0.22952 0.18053
#
# Static dielectric constant tensor:
#      x y z
#    x 1.881020 0.000000 -0.036100 
#    y 0.000000 1.751750 0.000000 
#    z -0.036100 0.000000 1.749560 
# 
# From -- ./inp_files/151761.got.cif
#   From: 2010.05.17/outbox.cif.g08.bks.cpg/sg15_76_cif.got.tgz:151761.got - 2010.06.03 18:47:42.
