data_PCOD9260863
_publ_section_title
;
Structure prediction by ZEFSAII (Michael W. Deem and Ramdas Pophale) SiO2 
 PCOD9260863
Probable space group: C 2/C
;
_chemical_formula_sum "Si O2"
_cell_formula_units_Z 44
_cell_length_a 10.692497
_cell_length_b 9.705205
_cell_length_c 17.503773
_cell_angle_alpha 90.000000
_cell_angle_beta 76.597828
_cell_angle_gamma 90.000000
_cell_volume 1766.950541
_symmetry_space_group_name_H-M "C 2/C"
_symmetry_group_IT_number 15
_symmetry_cell_setting 'monoclinic'
loop_
_space_group_symop_operation_xyz
x,y,z
-x,y,1/2-z
-x,-y,-z
x,-y,1/2+z
1/2+x,1/2+y,z
1/2-x,1/2+y,1/2-z
1/2-x,1/2-y,-z
1/2+x,1/2-y,1/2+z
loop_
_atom_site_type_symbol
_atom_site_label
_atom_site_fract_x
_atom_site_fract_y
_atom_site_fract_z
Si Si1 0.000000 0.259676 0.750000
Si Si2 0.572511 0.072657 0.372052
Si Si3 0.632266 0.198318 0.908153
Si Si4 0.652749 0.357045 0.416269
Si Si5 0.127042 0.072692 0.538567
Si Si6 0.733318 0.121857 0.752167
O O1 0.026220 0.355443 0.671962
O O2 0.877426 0.167930 0.749611
O O3 0.624282 0.194806 0.417054
O O4 0.535467 0.932112 0.419645
O O5 0.683590 0.019035 0.297461
O O6 0.764851 0.129424 0.920756
O O7 0.649734 0.229643 0.815552
O O8 0.612058 0.320721 0.969258
O O9 0.670925 0.429446 0.494814
O O10 0.516714 0.427559 0.408064
O O11 0.766239 0.382135 0.339191
#
# Coordination Sequence:
#
# PCOD9260863 Si02
#       6
#     4   8   8   8   8   8
#     4  10  18  38  66  92 126 160 198 274 322 344
#     4   9  21  36  65  93 114 163 216 251 305 375
#     4   9  20  37  61  93 121 160 214 250 303 378
#     4  10  21  37  60  89 125 164 206 251 320 367
#     4  10  21  37  61  90 128 167 193 260 322 366
#     4   9  20  36  64  93 116 161 216 254 298 379
#
# _framework density 24.90166
#
# number of rings (size 3 to 8) (size 9 to 14) (size 15 to 20)
#    1.091    1.455    0.000    2.182    5.091    1.455 
#    0.000    0.000   16.000    8.727    0.000    0.000 
#    0.000    0.000    0.000    0.000    0.000    0.000 
#
# Total GULP energy -122568.389142 kJ/mol
# GULP energy per Si atom -5571.290416 kJ/mol
# Density = 2.484498 g / cm^3
# Si number density = 24.901660 Si / 1000 Ang^3
#
#
#
# Elastic Constant Matrix: (Units=GPa)
#
#
# Indices 1 2 3 4 5 6 
#
# 1 46.3748 9.6067 2.6877 0.0000 13.5543 0.0000
# 2 9.6067 73.8504 23.4243 0.0000 17.0051 0.0000
# 3 2.6877 23.4243 128.4354 0.0000 -12.9414 0.0000
# 4 0.0000 0.0000 0.0000 37.1444 0.0000 -6.5355
# 5 13.5543 17.0051 -12.9414 0.0000 21.3572 0.0000
# 6 0.0000 0.0000 0.0000 -6.5355 0.0000 30.3782
#
#
#
# Elastic Compliance Matrix: (Units=1/GPa)
#
#
# Indices 1 2 3 4 5 6 
#
# 1 0.027446 0.002284 -0.003120 0.000000 -0.021128 0.000000
# 2 0.002284 0.019845 -0.005757 0.000000 -0.020740 0.000000
# 3 -0.003120 -0.005757 0.010184 0.000000 0.012735 0.000000
# 4 0.000000 0.000000 0.000000 0.027981 0.000000 0.006020
# 5 -0.021128 -0.020740 0.012735 0.000000 0.084462 0.000000
# 6 0.000000 0.000000 0.000000 0.006020 0.000000 0.034213
#
#
# Mechanical properties :
#
#
# Convention : Reuss Voigt Hill
#
# Bulk Modulus (GPa) = 22.57790 35.56645 29.07217
# Shear Modulus (GPa) = 21.54416 31.97208 26.75812
#
# Velocity S-wave (km/s) = 2.94457 3.58709 3.28159
# Velocity P-wave (km/s) = 4.54391 5.60982 5.10476
#
# Compressibility (1/GPa) = 0.04429111
#
# Stress axis : x y z
#
# Youngs Moduli (GPa) = 36.43471 50.38967 98.18846
#
# Poissons Ratio (x) = -0.11511 0.30634
# Poissons Ratio (y) = -0.08323 0.56527
# Poissons Ratio (z) = 0.11367 0.29009
#
# Static dielectric constant tensor:
#      x y z
#    x 1.965860 0.000000 -0.021940 
#    y 0.000000 2.007390 0.000000 
#    z -0.021940 0.000000 2.099860 
# 
# From -- ./inp_files/241928.got.cif
#   From: 2010.05.17/outbox.cif.g08.bks.cpg/sg15_121_cif.got.tgz:241928.got - 2010.06.03 18:47:42.
