data_PCOD9260992
_publ_section_title
;
Structure prediction by ZEFSAII (Michael W. Deem and Ramdas Pophale) SiO2 
 PCOD9260992
Probable space group: C 2/C
;
_chemical_formula_sum "Si O2"
_cell_formula_units_Z 44
_cell_length_a 8.305375
_cell_length_b 11.588960
_cell_length_c 27.905752
_cell_angle_alpha 90.000000
_cell_angle_beta 48.831723
_cell_angle_gamma 90.000000
_cell_volume 2021.925822
_symmetry_space_group_name_H-M "C 2/C"
_symmetry_group_IT_number 15
_symmetry_cell_setting 'monoclinic'
loop_
_space_group_symop_operation_xyz
x,y,z
-x,y,1/2-z
-x,-y,-z
x,-y,1/2+z
1/2+x,1/2+y,z
1/2-x,1/2+y,1/2-z
1/2-x,1/2-y,-z
1/2+x,1/2-y,1/2+z
loop_
_atom_site_type_symbol
_atom_site_label
_atom_site_fract_x
_atom_site_fract_y
_atom_site_fract_z
Si Si1 0.448717 0.439094 0.667465
Si Si2 0.103062 0.804492 0.144292
Si Si3 0.910578 0.628074 0.509719
Si Si4 0.500000 0.859992 0.750000
Si Si5 0.274990 0.251539 0.124394
Si Si6 0.027595 0.034889 0.940054
O O1 0.550709 0.560561 0.664160
O O2 0.566272 0.327851 0.666630
O O3 0.473659 0.445425 0.604114
O O4 0.199042 0.435045 0.728645
O O5 0.332991 0.806824 0.072707
O O6 0.095904 0.723955 0.191107
O O7 0.915439 0.758106 0.145395
O O8 0.684726 0.611260 0.527421
O O9 0.000000 0.500000 0.500000
O O10 0.082297 0.692218 0.444569
O O11 0.264107 0.385019 0.109879
O O12 0.000000 0.000000 0.000000
#
# Coordination Sequence:
#
# PCOD9260992 Si02
#       6
#     8   8   8   4   8   8
#     4  10  24  45  60  93 125 167 216 257 308 378
#     4  10  24  42  64  94 124 167 211 253 318 373
#     4  10  18  39  65  94 126 156 205 262 320 382
#     4  12  28  42  64  90 130 170 216 256 302 384
#     4  10  20  41  65  88 127 165 201 267 326 360
#     4  10  22  35  61  99 125 158 205 260 320 372
#
# _framework density 21.761430000000001
#
# number of rings (size 3 to 8) (size 9 to 14) (size 15 to 20)
#    0.000    2.182    3.636    2.182    5.091    7.273 
#    0.000    0.000    0.000    0.000    0.000    0.000 
#    0.000    0.000    0.000    0.000    0.000    0.000 
#
# Total GULP energy -122727.570873 kJ/mol
# GULP energy per Si atom -5578.525949 kJ/mol
# Density = 2.171190 g / cm^3
# Si number density = 21.761430 Si / 1000 Ang^3
#
#
#
# Elastic Constant Matrix: (Units=GPa)
#
#
# Indices 1 2 3 4 5 6 
#
# 1 21.4224 18.6968 -10.6573 0.0000 -16.3019 0.0000
# 2 18.6968 53.3789 -16.1606 0.0000 1.9774 0.0000
# 3 -10.6573 -16.1606 28.0829 0.0000 -10.0997 0.0000
# 4 0.0000 0.0000 0.0000 24.0054 0.0000 -6.8729
# 5 -16.3019 1.9774 -10.0997 0.0000 41.6961 0.0000
# 6 0.0000 0.0000 0.0000 -6.8729 0.0000 37.8976
#
#
#
# Elastic Compliance Matrix: (Units=1/GPa)
#
#
# Indices 1 2 3 4 5 6 
#
# 1 0.238835 -0.057590 0.100844 0.000000 0.120535 0.000000
# 2 -0.057590 0.036774 -0.010317 0.000000 -0.026759 0.000000
# 3 0.100844 -0.010317 0.090150 0.000000 0.061752 0.000000
# 4 0.000000 0.000000 0.000000 0.043939 0.000000 0.007969
# 5 0.120535 -0.026759 0.061752 0.000000 0.087335 0.000000
# 6 0.000000 0.000000 0.000000 0.007969 0.000000 0.027832
#
#
# Mechanical properties :
#
#
# Convention : Reuss Voigt Hill
#
# Bulk Modulus (GPa) = 2.31678 9.62691 5.97184
# Shear Modulus (GPa) = 8.29369 28.12017 18.20693
#
# Velocity S-wave (km/s) = 1.95434 3.59862 2.89565
# Velocity P-wave (km/s) = 2.48184 4.65835 3.73228
#
# Compressibility (1/GPa) = 0.43163376
#
# Stress axis : x y z
#
# Youngs Moduli (GPa) = 4.18699 27.19333 11.09261
#
# Poissons Ratio (x) = 1.56607 -1.11863
# Poissons Ratio (y) = 0.24113 0.11444
# Poissons Ratio (z) = -0.42223 0.28055
#
# Static dielectric constant tensor:
#      x y z
#    x 1.834100 0.000000 0.026220 
#    y 0.000000 1.913070 0.000000 
#    z 0.026220 0.000000 1.870370 
# 
# From -- ./inp_files/307029.got.cif
#   From: 2010.05.17/outbox.cif.g08.bks.cpg/sg15_154_cif.got.tgz:307029.got - 2010.06.03 18:47:42.
