data_PCOD9260431
_publ_section_title
;
Structure prediction by ZEFSAII (Michael W. Deem and Ramdas Pophale) SiO2 
 PCOD9260431
Probable space group: C 2/C
;
_chemical_formula_sum "Si O2"
_cell_formula_units_Z 48
_cell_length_a 11.286384
_cell_length_b 7.488681
_cell_length_c 25.786396
_cell_angle_alpha 90.000000
_cell_angle_beta 110.161847
_cell_angle_gamma 90.000000
_cell_volume 2045.917622
_symmetry_space_group_name_H-M "C 2/C"
_symmetry_group_IT_number 15
_symmetry_cell_setting 'monoclinic'
loop_
_space_group_symop_operation_xyz
x,y,z
-x,y,1/2-z
-x,-y,-z
x,-y,1/2+z
1/2+x,1/2+y,z
1/2-x,1/2+y,1/2-z
1/2-x,1/2-y,-z
1/2+x,1/2-y,1/2+z
loop_
_atom_site_type_symbol
_atom_site_label
_atom_site_fract_x
_atom_site_fract_y
_atom_site_fract_z
Si Si1 0.994606 0.126507 0.417263
Si Si2 0.625921 0.519675 0.239783
Si Si3 0.784234 0.706522 0.834042
Si Si4 0.670641 0.489525 0.523718
Si Si5 0.437937 0.888666 0.537258
Si Si6 0.530717 0.698720 0.856021
O O1 0.100151 0.132376 0.477231
O O2 0.052646 0.003776 0.381200
O O3 0.915189 0.295846 0.386202
O O4 0.883115 0.006719 0.426742
O O5 0.500000 0.591785 0.250000
O O6 0.733105 0.466883 0.296899
O O7 0.681591 0.648481 0.204707
O O8 0.573724 0.338906 0.203508
O O9 0.663897 0.759011 0.851493
O O10 0.621497 0.295162 0.495892
O O11 0.817709 0.497344 0.539878
O O12 0.504725 0.819304 0.600016
O O13 0.500000 0.000000 0.500000
#
# Coordination Sequence:
#
# PCOD9260431 Si02
#       6
#     8   8   8   8   8   8
#     4   9  17  33  60  84 111 152 190 228 286 338
#     4   9  20  37  60  81 106 147 194 239 293 342
#     4  10  18  37  62  81 114 151 188 243 291 343
#     4   9  18  34  55  83 116 151 189 232 278 339
#     4  10  19  34  57  85 118 153 191 230 283 341
#     4   9  18  35  58  82 113 154 184 232 293 336
#
# _framework density 23.461355000000001
#
# number of rings (size 3 to 8) (size 9 to 14) (size 15 to 20)
#    0.000    2.667    1.667    0.000    0.000    0.000 
#    3.000   10.000    7.333    0.000    0.000    0.000 
#    0.000    0.000    0.000    0.000    0.000    0.000 
#
# Total GULP energy -133798.954154 kJ/mol
# GULP energy per Si atom -5574.956423 kJ/mol
# Density = 2.340796 g / cm^3
# Si number density = 23.461355 Si / 1000 Ang^3
#
#
#
# Elastic Constant Matrix: (Units=GPa)
#
#
# Indices 1 2 3 4 5 6 
#
# 1 105.3185 29.3528 14.8532 0.0000 -28.2456 0.0000
# 2 29.3528 67.9913 -0.5360 0.0000 -19.8092 0.0000
# 3 14.8532 -0.5360 57.8593 0.0000 -31.4130 0.0000
# 4 0.0000 0.0000 0.0000 15.5366 0.0000 -12.8024
# 5 -28.2456 -19.8092 -31.4130 0.0000 41.1226 0.0000
# 6 0.0000 0.0000 0.0000 -12.8024 0.0000 36.4006
#
#
#
# Elastic Compliance Matrix: (Units=1/GPa)
#
#
# Indices 1 2 3 4 5 6 
#
# 1 0.012275 -0.003030 0.001035 0.000000 0.007763 0.000000
# 2 -0.003030 0.020279 0.008781 0.000000 0.014396 0.000000
# 3 0.001035 0.008781 0.033799 0.000000 0.030760 0.000000
# 4 0.000000 0.000000 0.000000 0.090630 0.000000 0.031875
# 5 0.007763 0.014396 0.030760 0.000000 0.060081 0.000000
# 6 0.000000 0.000000 0.000000 0.031875 0.000000 0.038683
#
#
# Mechanical properties :
#
#
# Convention : Reuss Voigt Hill
#
# Bulk Modulus (GPa) = 12.51137 35.38992 23.95065
# Shear Modulus (GPa) = 18.60017 31.11191 24.85604
#
# Velocity S-wave (km/s) = 2.81873 3.64551 3.25844
# Velocity P-wave (km/s) = 3.99224 5.73033 4.93835
#
# Compressibility (1/GPa) = 0.07992729
#
# Stress axis : x y z
#
# Youngs Moduli (GPa) = 81.46436 49.31210 29.58683
#
# Poissons Ratio (x) = 0.14939 -0.03063
# Poissons Ratio (y) = 0.24680 -0.25981
# Poissons Ratio (z) = -0.08435 -0.43302
#
# Static dielectric constant tensor:
#      x y z
#    x 1.874180 0.000000 0.012160 
#    y 0.000000 1.948710 0.000000 
#    z 0.012160 0.000000 2.001130 
# 
# From -- ./inp_files/290875.got.cif
#   From: 2010.05.17/outbox.cif.g08.bks.cpg/sg15_146_cif.got.tgz:290875.got - 2010.06.03 18:47:42.
