data_PCOD9260275
_publ_section_title
;
Structure prediction by ZEFSAII (Michael W. Deem and Ramdas Pophale) SiO2 
 PCOD9260275
Probable space group: C 2/C
;
_chemical_formula_sum "Si O2"
_cell_formula_units_Z 52
_cell_length_a 16.274592
_cell_length_b 26.559486
_cell_length_c 5.720405
_cell_angle_alpha 90.000000
_cell_angle_beta 58.887258
_cell_angle_gamma 90.000000
_cell_volume 2116.935013
_symmetry_space_group_name_H-M "C 2/C"
_symmetry_group_IT_number 15
_symmetry_cell_setting 'monoclinic'
loop_
_space_group_symop_operation_xyz
x,y,z
-x,y,1/2-z
-x,-y,-z
x,-y,1/2+z
1/2+x,1/2+y,z
1/2-x,1/2+y,1/2-z
1/2-x,1/2-y,-z
1/2+x,1/2-y,1/2+z
loop_
_atom_site_type_symbol
_atom_site_label
_atom_site_fract_x
_atom_site_fract_y
_atom_site_fract_z
Si Si1 0.712073 0.695317 0.498081
Si Si2 0.369053 0.645802 0.291328
Si Si3 0.500000 0.416236 0.250000
Si Si4 0.692872 0.474495 0.014047
Si Si5 0.500000 0.734892 0.250000
Si Si6 0.534892 0.940870 0.447100
Si Si7 0.000000 0.761818 0.250000
Si Si8 0.727240 0.102782 0.820839
O O1 0.750000 0.750000 0.500000
O O2 0.718495 0.666945 0.239278
O O3 0.595908 0.704701 0.648084
O O4 0.768684 0.660318 0.598643
O O5 0.411867 0.695122 0.355642
O O6 0.325647 0.604183 0.527384
O O7 0.453173 0.618169 0.021965
O O8 0.586701 0.451980 0.193357
O O9 0.707608 0.505497 0.232214
O O10 0.764410 0.428377 0.952790
O O11 0.504932 0.764451 0.488440
O O12 0.500000 0.920350 0.250000
O O13 0.646261 0.925545 0.295717
O O14 0.500000 0.000000 0.500000
O O15 0.500000 0.919934 0.750000
#
# Coordination Sequence:
#
# PCOD9260275 Si02
#       8
#     8   8   4   8   4   8   4   8
#     4  11  25  47  75 110 153 200 263 323 389 471
#     4  11  22  42  72 107 154 200 253 302 382 460
#     4  12  23  46  67 110 160 208 238 298 379 459
#     4  12  28  43  69 108 159 198 250 300 361 461
#     4  10  18  36  67  96 141 186 242 277 367 448
#     4  10  26  49  79 103 145 195 260 326 391 460
#     4  10  21  44  66 104 143 198 234 307 376 451
#     4  12  26  46  79 109 148 202 259 321 391 464
#
# _framework density 24.563814000000001
#
# number of rings (size 3 to 8) (size 9 to 14) (size 15 to 20)
#    0.000    0.923    3.077    4.154    6.462    1.846 
#    1.385    0.000    1.692    0.000    0.000    0.000 
#    0.000    0.000    0.000    0.000    0.000    0.000 
#
# Total GULP energy -144803.932035 kJ/mol
# GULP energy per Si atom -5569.382001 kJ/mol
# Density = 2.450791 g / cm^3
# Si number density = 24.563814 Si / 1000 Ang^3
#
#
#
# Elastic Constant Matrix: (Units=GPa)
#
#
# Indices 1 2 3 4 5 6 
#
# 1 137.3371 42.2382 24.8243 0.0000 21.9379 0.0000
# 2 42.2382 103.4286 25.2378 0.0000 12.6466 0.0000
# 3 24.8243 25.2378 131.2767 0.0000 42.6885 0.0000
# 4 0.0000 0.0000 0.0000 5.3285 0.0000 12.9146
# 5 21.9379 12.6466 42.6885 0.0000 46.9936 0.0000
# 6 0.0000 0.0000 0.0000 12.9146 0.0000 -234.1276
#
#
#
# Elastic Compliance Matrix: (Units=1/GPa)
#
#
# Indices 1 2 3 4 5 6 
#
# 1 0.008780 -0.003191 0.000010 0.000000 -0.003249 0.000000
# 2 -0.003191 0.011365 -0.001521 0.000000 -0.000188 0.000000
# 3 0.000010 -0.001521 0.011036 0.000000 -0.009621 0.000000
# 4 0.000000 0.000000 0.000000 0.165539 0.000000 0.009131
# 5 -0.003249 -0.000188 -0.009621 0.000000 0.031586 0.000000
# 6 0.000000 0.000000 0.000000 0.009131 0.000000 -0.003767
#
#
# Mechanical properties :
#
#
# Convention : Reuss Voigt Hill
#
# Bulk Modulus (GPa) = 45.91680 61.84921 53.88300
# Shear Modulus (GPa) = 20.72952 -17.71162 1.50895
#
# Velocity S-wave (km/s) = 2.90816 -2.68814 0.78462
# Velocity P-wave (km/s) = 5.47813 3.94954 4.77539
#
# Compressibility (1/GPa) = 0.02177852
#
# Stress axis : x y z
#
# Youngs Moduli (GPa) = 113.89723 87.98561 90.60878
#
# Poissons Ratio (x) = 0.28073 -0.00087
# Poissons Ratio (y) = 0.36340 0.13778
# Poissons Ratio (z) = -0.00109 0.13379
#
# Static dielectric constant tensor:
#      x y z
#    x 1.994200 0.000000 0.106790 
#    y 0.000000 1.960240 0.000000 
#    z 0.106790 0.000000 1.986180 
# 
# From -- ./inp_files/9035.got.cif
#   From: 2010.05.17/outbox.cif.g08.bks.cpg/sg15_5_cif.got.tgz:9035.got - 2010.06.03 18:47:42.
