data_PCOD9260832
_publ_section_title
;
Structure prediction by ZEFSAII (Michael W. Deem and Ramdas Pophale) SiO2 
 PCOD9260832
Probable space group: C 2/C
;
_chemical_formula_sum "Si O2"
_cell_formula_units_Z 56
_cell_length_a 11.164350
_cell_length_b 16.599721
_cell_length_c 23.994909
_cell_angle_alpha 90.000000
_cell_angle_beta 140.300205
_cell_angle_gamma 90.000000
_cell_volume 2840.498045
_symmetry_space_group_name_H-M "C 2/C"
_symmetry_group_IT_number 15
_symmetry_cell_setting 'monoclinic'
loop_
_space_group_symop_operation_xyz
x,y,z
-x,y,1/2-z
-x,-y,-z
x,-y,1/2+z
1/2+x,1/2+y,z
1/2-x,1/2+y,1/2-z
1/2-x,1/2-y,-z
1/2+x,1/2-y,1/2+z
loop_
_atom_site_type_symbol
_atom_site_label
_atom_site_fract_x
_atom_site_fract_y
_atom_site_fract_z
Si Si1 0.786003 0.288099 0.811563
Si Si2 0.002515 0.861859 0.153720
Si Si3 0.360191 0.262692 0.626666
Si Si4 0.485584 0.508013 0.061303
Si Si5 0.200911 0.633190 0.974093
Si Si6 0.223151 0.673020 0.648530
Si Si7 0.800548 0.637877 0.205134
O O1 0.942330 0.221244 0.856881
O O2 0.577816 0.255391 0.720422
O O3 0.758129 0.303269 0.866533
O O4 0.819357 0.357879 0.779016
O O5 0.158165 0.868360 0.258887
O O6 0.811728 0.852237 0.121029
O O7 0.009749 0.931295 0.110195
O O8 0.335576 0.317349 0.563744
O O9 0.286417 0.175385 0.581992
O O10 0.642663 0.574328 0.132885
O O11 0.500000 0.500000 0.000000
O O12 0.279928 0.544383 0.000201
O O13 0.991345 0.648008 0.920600
O O14 0.253238 0.769932 0.667880
O O15 0.000000 0.616743 0.250000
#
# Coordination Sequence:
#
# PCOD9260832 Si02
#       7
#     8   8   8   8   8   8   8
#     4  10  18  38  65  93 118 168 218 255 310 385
#     4  10  21  42  62  90 128 171 214 262 321 386
#     4  10  19  33  65  96 120 155 207 271 306 378
#     4  12  27  42  58  95 138 168 203 277 340 386
#     4  11  20  39  62  93 131 159 206 260 337 376
#     4  10  20  42  74  88 118 178 217 268 314 391
#     4  11  20  43  69  92 125 168 227 263 313 384
#
# _framework density 19.714853000000002
#
# number of rings (size 3 to 8) (size 9 to 14) (size 15 to 20)
#    0.000    1.429    7.143    1.714    0.000    1.714 
#   10.286    1.429    0.000    0.000    0.000    0.000 
#    0.000    0.000    0.000    0.000    0.000    0.000 
#
# Total GULP energy -156130.035688 kJ/mol
# GULP energy per Si atom -5576.072703 kJ/mol
# Density = 1.966998 g / cm^3
# Si number density = 19.714853 Si / 1000 Ang^3
#
#
#
# Elastic Constant Matrix: (Units=GPa)
#
#
# Indices 1 2 3 4 5 6 
#
# 1 130.0774 20.9688 22.5050 0.0000 -0.4938 0.0000
# 2 20.9688 47.4256 14.9046 0.0000 -3.7093 0.0000
# 3 22.5050 14.9046 33.9429 0.0001 3.8412 0.0000
# 4 0.0000 0.0000 0.0001 30.3163 0.0000 4.5535
# 5 -0.4938 -3.7093 3.8412 0.0000 38.0030 0.0000
# 6 0.0000 0.0000 0.0000 4.5535 0.0000 15.6595
#
#
#
# Elastic Compliance Matrix: (Units=1/GPa)
#
#
# Indices 1 2 3 4 5 6 
#
# 1 0.008922 -0.002369 -0.004918 0.000000 0.000382 0.000000
# 2 -0.002369 0.025563 -0.010048 0.000000 0.003480 0.000000
# 3 -0.004918 -0.010048 0.037684 0.000000 -0.004854 0.000000
# 4 0.000000 0.000000 0.000000 0.034492 0.000000 -0.010030
# 5 0.000382 0.003480 -0.004854 0.000000 0.027149 0.000000
# 6 0.000000 0.000000 0.000000 -0.010030 0.000000 0.066775
#
#
# Mechanical properties :
#
#
# Convention : Reuss Voigt Hill
#
# Bulk Modulus (GPa) = 26.66830 36.46696 31.56763
# Shear Modulus (GPa) = 20.18120 27.00027 23.59073
#
# Velocity S-wave (km/s) = 3.20293 3.70474 3.46294
# Velocity P-wave (km/s) = 5.21869 6.06939 5.66005
#
# Compressibility (1/GPa) = 0.03749771
#
# Stress axis : x y z
#
# Youngs Moduli (GPa) = 112.08187 39.11881 26.53674
#
# Poissons Ratio (x) = 0.09268 0.13052
# Poissons Ratio (y) = 0.26555 0.26664
# Poissons Ratio (z) = 0.55126 0.39306
#
# Static dielectric constant tensor:
#      x y z
#    x 1.722700 0.000000 -0.009120 
#    y 0.000000 1.686300 0.000000 
#    z -0.009120 0.000000 1.707640 
# 
# From -- ./inp_files/292909.got.cif
#   From: 2010.05.17/outbox.cif.g08.bks.cpg/sg15_147_cif.got.tgz:292909.got - 2010.06.03 18:47:42.
