data_PCOD9260884
_publ_section_title
;
Structure prediction by ZEFSAII (Michael W. Deem and Ramdas Pophale) SiO2 
 PCOD9260884
Probable space group: C 2/C
;
_chemical_formula_sum "Si O2"
_cell_formula_units_Z 56
_cell_length_a 11.101876
_cell_length_b 11.776828
_cell_length_c 21.455875
_cell_angle_alpha 90.000000
_cell_angle_beta 117.463951
_cell_angle_gamma 90.000000
_cell_volume 2489.097983
_symmetry_space_group_name_H-M "C 2/C"
_symmetry_group_IT_number 15
_symmetry_cell_setting 'monoclinic'
loop_
_space_group_symop_operation_xyz
x,y,z
-x,y,1/2-z
-x,-y,-z
x,-y,1/2+z
1/2+x,1/2+y,z
1/2-x,1/2+y,1/2-z
1/2-x,1/2-y,-z
1/2+x,1/2-y,1/2+z
loop_
_atom_site_type_symbol
_atom_site_label
_atom_site_fract_x
_atom_site_fract_y
_atom_site_fract_z
Si Si1 0.500000 0.953155 0.750000
Si Si2 0.502992 0.354352 0.654967
Si Si3 0.913479 0.387034 0.125918
Si Si4 0.317521 0.472039 0.521978
Si Si5 0.817083 0.196976 0.455161
Si Si6 0.803616 0.726824 0.204536
Si Si7 0.896760 0.427271 0.436276
Si Si8 0.000000 0.939407 0.250000
O O1 0.590161 0.032269 0.815350
O O2 0.598439 0.863736 0.739185
O O3 0.414234 0.242902 0.649583
O O4 0.440242 0.395178 0.574511
O O5 0.653249 0.301171 0.691848
O O6 0.501031 0.469727 0.694167
O O7 0.053238 0.426289 0.123217
O O8 0.794705 0.407985 0.047163
O O9 0.364017 0.575592 0.489524
O O10 0.243902 0.525605 0.567213
O O11 0.750000 0.250000 0.500000
O O12 0.710457 0.195673 0.372558
O O13 0.917996 0.295612 0.458673
O O14 0.871683 0.851645 0.224104
O O15 0.000000 0.500000 0.500000
#
# Coordination Sequence:
#
# PCOD9260884 Si02
#       8
#     4   8   8   8   8   8   8   4
#     4  11  25  44  68  98 137 187 234 284 346 421
#     4  12  26  43  73 104 139 187 234 294 354 428
#     4  11  22  43  68 101 146 181 232 293 355 422
#     4  10  22  41  68 105 140 176 230 295 357 423
#     4  10  18  38  67  95 134 175 220 286 346 410
#     4  11  25  46  70  99 138 188 235 294 350 421
#     4   9  19  36  64  97 133 177 220 281 356 413
#     4  11  27  50  70 102 147 193 244 288 356 431
#
# _framework density 22.498108999999999
#
# number of rings (size 3 to 8) (size 9 to 14) (size 15 to 20)
#    0.000    1.429    2.857    2.571    2.000    0.571 
#    0.000    0.000    0.000    0.000    0.000    0.000 
#    0.000    0.000    0.000    0.000    0.000    0.000 
#
# Total GULP energy -155946.243518 kJ/mol
# GULP energy per Si atom -5569.508697 kJ/mol
# Density = 2.244690 g / cm^3
# Si number density = 22.498109 Si / 1000 Ang^3
#
#
#
# Elastic Constant Matrix: (Units=GPa)
#
#
# Indices 1 2 3 4 5 6 
#
# 1 53.0466 38.7895 13.9354 0.0000 12.5032 0.0000
# 2 38.7895 202.6170 61.1799 0.0000 24.9403 0.0000
# 3 13.9354 61.1799 85.9312 0.0000 18.1733 0.0000
# 4 0.0000 0.0000 0.0000 45.7237 0.0000 2.1238
# 5 12.5032 24.9403 18.1733 0.0000 33.2874 0.0000
# 6 0.0000 0.0000 0.0000 2.1238 0.0000 26.7270
#
#
#
# Elastic Compliance Matrix: (Units=1/GPa)
#
#
# Indices 1 2 3 4 5 6 
#
# 1 0.022915 -0.003712 0.000179 0.000000 -0.005924 0.000000
# 2 -0.003712 0.007088 -0.004088 0.000000 -0.001684 0.000000
# 3 0.000179 -0.004088 0.015698 0.000000 -0.005575 0.000000
# 4 0.000000 0.000000 0.000000 0.021951 0.000000 -0.001744
# 5 -0.005924 -0.001684 -0.005575 0.000000 0.036572 0.000000
# 6 0.000000 0.000000 0.000000 -0.001744 0.000000 0.037554
#
#
# Mechanical properties :
#
#
# Convention : Reuss Voigt Hill
#
# Bulk Modulus (GPa) = 32.83074 63.26716 48.04895
# Shear Modulus (GPa) = 29.90940 36.32694 33.11817
#
# Velocity S-wave (km/s) = 3.65007 4.02265 3.84088
# Velocity P-wave (km/s) = 5.69108 7.05392 6.40883
#
# Compressibility (1/GPa) = 0.03045926
#
# Stress axis : x y z
#
# Youngs Moduli (GPa) = 43.64005 141.08878 63.70395
#
# Poissons Ratio (x) = 0.52370 -0.01143
# Poissons Ratio (y) = 0.16199 0.26042
# Poissons Ratio (z) = -0.00783 0.57678
#
# Static dielectric constant tensor:
#      x y z
#    x 1.903240 0.000000 0.044310 
#    y 0.000000 1.842200 0.000000 
#    z 0.044310 0.000000 1.752170 
# 
# From -- ./inp_files/269012.got.cif
#   From: 2010.05.17/outbox.cif.g08.bks.cpg/sg15_135_cif.got.tgz:269012.got - 2010.06.03 18:47:42.
