data_PCOD9260256
_publ_section_title
;
Structure prediction by ZEFSAII (Michael W. Deem and Ramdas Pophale) SiO2 
 PCOD9260256
Probable space group: C 2/C
;
_chemical_formula_sum "Si O2"
_cell_formula_units_Z 64
_cell_length_a 10.175368
_cell_length_b 20.153863
_cell_length_c 23.174780
_cell_angle_alpha 90.000000
_cell_angle_beta 128.849134
_cell_angle_gamma 90.000000
_cell_volume 3701.264963
_symmetry_space_group_name_H-M "C 2/C"
_symmetry_group_IT_number 15
_symmetry_cell_setting 'monoclinic'
loop_
_space_group_symop_operation_xyz
x,y,z
-x,y,1/2-z
-x,-y,-z
x,-y,1/2+z
1/2+x,1/2+y,z
1/2-x,1/2+y,1/2-z
1/2-x,1/2-y,-z
1/2+x,1/2-y,1/2+z
loop_
_atom_site_type_symbol
_atom_site_label
_atom_site_fract_x
_atom_site_fract_y
_atom_site_fract_z
Si Si1 0.004691 0.708272 0.397785
Si Si2 0.757987 0.823140 0.072880
Si Si3 0.015875 0.519438 0.909420
Si Si4 0.545440 0.825363 0.426987
Si Si5 0.199641 0.791040 0.898580
Si Si6 0.022666 0.080796 0.189379
Si Si7 0.224781 0.976434 0.424915
Si Si8 0.079542 0.413155 0.709130
O O1 0.090563 0.771594 0.391730
O O2 0.136762 0.684628 0.483477
O O3 0.974319 0.649560 0.344508
O O4 0.829989 0.723395 0.382749
O O5 0.635020 0.809240 0.093282
O O6 0.817775 0.898997 0.091124
O O7 0.039075 0.597966 0.906643
O O8 0.980421 0.478005 0.842530
O O9 0.858129 0.509093 0.909857
O O10 0.176273 0.491723 0.988784
O O11 0.684392 0.817139 0.516264
O O12 0.599992 0.773513 0.393181
O O13 0.073917 0.849865 0.846830
O O14 0.218844 0.086623 0.230481
O O15 0.000000 0.061804 0.250000
O O16 0.931398 0.024984 0.126270
O O17 0.000000 0.410029 0.750000
#
# Coordination Sequence:
#
# PCOD9260256 Si02
#       8
#     8   8   8   8   8   8   8   8
#     4  10  19  38  58  85 119 157 194 242 294 357
#     4   9  19  34  62  89 116 150 198 246 294 343
#     4  10  18  38  63  89 119 158 201 251 299 349
#     4   9  19  34  62  90 116 147 199 253 289 340
#     4  10  19  36  59  90 116 150 198 247 292 352
#     4  12  22  39  63  89 118 161 206 244 302 368
#     4  10  18  36  66  91 113 156 211 249 285 361
#     4  12  26  41  59  87 127 163 195 250 315 362
#
# _framework density 17.291385999999999
#
# number of rings (size 3 to 8) (size 9 to 14) (size 15 to 20)
#    0.000    1.750    5.000    0.000    1.750    0.000 
#    2.250    3.125    0.000    0.000    0.000    0.000 
#    0.000    0.000    0.000    0.000    0.000    0.000 
#
# Total GULP energy -178635.092514 kJ/mol
# GULP energy per Si atom -5582.346641 kJ/mol
# Density = 1.725203 g / cm^3
# Si number density = 17.291386 Si / 1000 Ang^3
#
#
#
# Elastic Constant Matrix: (Units=GPa)
#
#
# Indices 1 2 3 4 5 6 
#
# 1 130.8352 84.6169 53.3009 0.0000 6.7494 0.0000
# 2 84.6169 134.7795 54.3080 0.0000 10.0878 0.0000
# 3 53.3009 54.3080 59.7722 0.0000 12.8757 0.0000
# 4 0.0000 0.0000 0.0000 12.2018 0.0000 3.5207
# 5 6.7494 10.0878 12.8757 0.0000 25.3025 0.0000
# 6 0.0000 0.0000 0.0000 3.5207 0.0000 27.7381
#
#
#
# Elastic Compliance Matrix: (Units=1/GPa)
#
#
# Indices 1 2 3 4 5 6 
#
# 1 0.014870 -0.006248 -0.008160 0.000000 0.002677 0.000000
# 2 -0.006248 0.014346 -0.007401 0.000000 -0.000287 0.000000
# 3 -0.008160 -0.007401 0.033274 0.000000 -0.011805 0.000000
# 4 0.000000 0.000000 0.000000 0.085071 0.000000 -0.010798
# 5 0.002677 -0.000287 -0.011805 0.000000 0.044929 0.000000
# 6 0.000000 0.000000 0.000000 -0.010798 0.000000 0.037422
#
#
# Mechanical properties :
#
#
# Convention : Reuss Voigt Hill
#
# Bulk Modulus (GPa) = 52.98861 78.87096 65.92979
# Shear Modulus (GPa) = 17.86855 21.92588 19.89721
#
# Velocity S-wave (km/s) = 3.21811 3.56479 3.39588
# Velocity P-wave (km/s) = 6.67228 7.91553 7.32034
#
# Compressibility (1/GPa) = 0.01887198
#
# Stress axis : x y z
#
# Youngs Moduli (GPa) = 67.24736 69.70656 30.05349
#
# Poissons Ratio (x) = 0.43555 0.24524
# Poissons Ratio (y) = 0.42018 0.22242
# Poissons Ratio (z) = 0.54874 0.51589
#
# Static dielectric constant tensor:
#      x y z
#    x 1.572020 0.000000 0.000520 
#    y 0.000000 1.568870 0.000000 
#    z 0.000520 0.000000 1.580160 
# 
# From -- ./inp_files/266125.got.cif
#   From: 2010.05.17/outbox.cif.g08.bks.cpg/sg15_134_cif.got.tgz:266125.got - 2010.06.03 18:47:42.
