data_PCOD9260085
_publ_section_title
;
Structure prediction by ZEFSAII (Michael W. Deem and Ramdas Pophale) SiO2 
 PCOD9260085
Probable space group: C 2/C
;
_chemical_formula_sum "Si O2"
_cell_formula_units_Z 40
_cell_length_a 6.189502
_cell_length_b 32.486792
_cell_length_c 10.429005
_cell_angle_alpha 90.000000
_cell_angle_beta 104.384729
_cell_angle_gamma 90.000000
_cell_volume 2031.290462
_symmetry_space_group_name_H-M "C 2/C"
_symmetry_group_IT_number 15
_symmetry_cell_setting 'monoclinic'
loop_
_space_group_symop_operation_xyz
x,y,z
-x,y,1/2-z
-x,-y,-z
x,-y,1/2+z
1/2+x,1/2+y,z
1/2-x,1/2+y,1/2-z
1/2-x,1/2-y,-z
1/2+x,1/2-y,1/2+z
loop_
_atom_site_type_symbol
_atom_site_label
_atom_site_fract_x
_atom_site_fract_y
_atom_site_fract_z
Si Si1 0.000000 0.681154 0.250000
Si Si2 0.782977 0.383097 0.563185
Si Si3 0.407392 0.309325 0.094911
Si Si4 0.093043 0.241488 0.128610
Si Si5 0.943737 0.535765 0.391537
Si Si6 0.500000 0.420764 0.750000
O O1 0.022350 0.649024 0.369647
O O2 0.212652 0.710136 0.294747
O O3 0.636450 0.356701 0.443709
O O4 0.630831 0.393474 0.664706
O O5 0.900962 0.425508 0.546084
O O6 0.500000 0.304627 0.250000
O O7 0.183253 0.281662 0.069545
O O8 0.536155 0.286273 0.996698
O O9 0.000000 0.255626 0.250000
O O10 0.687301 0.551270 0.348004
O O11 0.000000 0.525484 0.250000
O O12 0.000000 0.500000 0.500000
#
# Coordination Sequence:
#
# PCOD9260085 Si02
#       6
#     4   8   8   8   8   4
#     4  10  18  36  62  85 116 154 229 250 284 382
#     4  10  21  38  63  88 124 160 209 259 292 386
#     4  10  22  41  53  91 126 153 215 269 306 368
#     4  10  22  39  62  80 119 173 207 262 320 366
#     4  10  22  43  66  97 126 155 205 254 308 386
#     4  10  20  42  70  89 116 176 201 234 326 374
#
# _framework density 19.691915000000002
#
# number of rings (size 3 to 8) (size 9 to 14) (size 15 to 20)
#    0.000    2.000    4.000    0.000    5.600    4.000 
#    9.000    0.000    0.000    0.000    0.000    0.000 
#    0.000    0.000    0.000    0.000    0.000    0.000 
#
# Total GULP energy -111345.890576 kJ/mol
# GULP energy per Si atom -5567.294529 kJ/mol
# Density = 1.964710 g / cm^3
# Si number density = 19.691915 Si / 1000 Ang^3
#
#
#
# Elastic Constant Matrix: (Units=GPa)
#
#
# Indices 1 2 3 4 5 6 
#
# 1 47.4089 32.5819 20.4379 0.0000 -3.4131 0.0000
# 2 32.5819 144.3610 48.7538 0.0000 -6.1695 0.0000
# 3 20.4379 48.7538 108.1758 0.0000 2.1521 0.0000
# 4 0.0000 0.0000 0.0000 43.2082 0.0000 -0.4433
# 5 -3.4131 -6.1695 2.1521 0.0000 22.6848 0.0000
# 6 0.0000 0.0000 0.0000 -0.4433 0.0000 11.9506
#
#
#
# Elastic Compliance Matrix: (Units=1/GPa)
#
#
# Indices 1 2 3 4 5 6 
#
# 1 0.025764 -0.004754 -0.002782 0.000000 0.002848 0.000000
# 2 -0.004754 0.009201 -0.003290 0.000000 0.002099 0.000000
# 3 -0.002782 -0.003290 0.011300 0.000000 -0.002386 0.000000
# 4 0.000000 0.000000 0.000000 0.023153 0.000000 0.000859
# 5 0.002848 0.002099 -0.002386 0.000000 0.045308 0.000000
# 6 0.000000 0.000000 0.000000 0.000859 0.000000 0.083709
#
#
# Mechanical properties :
#
#
# Convention : Reuss Voigt Hill
#
# Bulk Modulus (GPa) = 40.62820 55.94365 48.28593
# Shear Modulus (GPa) = 21.90175 28.78020 25.34098
#
# Velocity S-wave (km/s) = 3.33861 3.82714 3.59119
# Velocity P-wave (km/s) = 5.96142 6.92823 6.46293
#
# Compressibility (1/GPa) = 0.02461344
#
# Stress axis : x y z
#
# Youngs Moduli (GPa) = 38.81325 108.68449 88.49387
#
# Poissons Ratio (x) = 0.51666 0.24618
# Poissons Ratio (y) = 0.18451 0.29118
# Poissons Ratio (z) = 0.10797 0.35762
#
# Static dielectric constant tensor:
#      x y z
#    x 1.778940 0.000000 0.015430 
#    y 0.000000 1.677100 0.000000 
#    z 0.015430 0.000000 1.732020 
# 
# From -- ./inp_files/73695.got.cif
#   From: 2010.05.17/outbox.cif.g08.bks.cpg/sg15_37_cif.got.tgz:73695.got - 2010.06.03 18:47:42.
