data_PCOD9260133
_publ_section_title
;
Structure prediction by ZEFSAII (Michael W. Deem and Ramdas Pophale) SiO2 
 PCOD9260133
Probable space group: C 2/C
;
_chemical_formula_sum "Si O2"
_cell_formula_units_Z 48
_cell_length_a 9.798702
_cell_length_b 16.793027
_cell_length_c 15.880828
_cell_angle_alpha 90.000000
_cell_angle_beta 55.199457
_cell_angle_gamma 90.000000
_cell_volume 2145.803240
_symmetry_space_group_name_H-M "C 2/C"
_symmetry_group_IT_number 15
_symmetry_cell_setting 'monoclinic'
loop_
_space_group_symop_operation_xyz
x,y,z
-x,y,1/2-z
-x,-y,-z
x,-y,1/2+z
1/2+x,1/2+y,z
1/2-x,1/2+y,1/2-z
1/2-x,1/2-y,-z
1/2+x,1/2-y,1/2+z
loop_
_atom_site_type_symbol
_atom_site_label
_atom_site_fract_x
_atom_site_fract_y
_atom_site_fract_z
Si Si1 0.076031 0.148538 0.003449
Si Si2 0.274893 0.080741 0.677086
Si Si3 0.071654 0.323255 0.076785
Si Si4 0.897272 0.941740 0.701686
Si Si5 0.217578 0.843985 0.021126
Si Si6 0.074779 0.409979 0.893694
O O1 0.051926 0.229892 0.066728
O O2 0.014976 0.078064 0.084179
O O3 0.950702 0.145507 0.970816
O O4 0.272509 0.151314 0.922179
O O5 0.403505 0.140840 0.672142
O O6 0.200684 0.125715 0.622895
O O7 0.387121 0.110390 0.430759
O O8 0.383064 0.003540 0.607604
O O9 0.097404 0.361227 0.973121
O O10 0.850389 0.034720 0.719366
O O11 0.000000 0.925794 0.750000
O O12 0.276659 0.892889 0.726405
O O13 0.250000 0.750000 0.000000
#
# Coordination Sequence:
#
# PCOD9260133 Si02
#       6
#     8   8   8   8   8   8
#     4  11  21  33  66  98 124 158 221 264 317 389
#     4   9  20  39  62  84 130 173 202 254 339 380
#     4  10  18  36  62  95 121 165 208 263 313 389
#     4  10  21  39  61  86 126 175 203 250 328 387
#     4  11  19  35  63  99 115 157 222 271 309 387
#     4   9  19  37  62  80 129 171 199 253 332 377
#
# _framework density 22.369246
#
# number of rings (size 3 to 8) (size 9 to 14) (size 15 to 20)
#    1.000    1.000    5.000    2.000    0.000    0.667 
#    0.000    9.167    0.000    4.000    0.000    0.000 
#    0.000    0.000    0.000    0.000    0.000    0.000 
#
# Total GULP energy -133771.031944 kJ/mol
# GULP energy per Si atom -5573.792998 kJ/mol
# Density = 2.231833 g / cm^3
# Si number density = 22.369246 Si / 1000 Ang^3
#
#
#
# Elastic Constant Matrix: (Units=GPa)
#
#
# Indices 1 2 3 4 5 6 
#
# 1 209.5262 38.4981 35.5789 0.0000 -11.9169 0.0000
# 2 38.4981 80.8275 31.4930 0.0000 -4.6870 0.0000
# 3 35.5789 31.4930 39.1074 0.0000 -13.3072 0.0000
# 4 0.0000 0.0000 0.0000 14.7141 0.0000 -5.6161
# 5 -11.9169 -4.6870 -13.3072 0.0000 17.6750 0.0000
# 6 0.0000 0.0000 0.0000 -5.6161 0.0000 33.3313
#
#
#
# Elastic Compliance Matrix: (Units=1/GPa)
#
#
# Indices 1 2 3 4 5 6 
#
# 1 0.005703 -0.001056 -0.004201 0.000000 0.000402 0.000000
# 2 -0.001056 0.019170 -0.017464 0.000000 -0.008777 0.000000
# 3 -0.004201 -0.017464 0.055009 0.000000 0.033952 0.000000
# 4 0.000000 0.000000 0.000000 0.072633 0.000000 0.012238
# 5 0.000402 -0.008777 0.033952 0.000000 0.080083 0.000000
# 6 0.000000 0.000000 0.000000 0.012238 0.000000 0.032064
#
#
# Mechanical properties :
#
#
# Convention : Reuss Voigt Hill
#
# Bulk Modulus (GPa) = 29.03521 60.06679 44.55100
# Shear Modulus (GPa) = 15.54802 28.07014 21.80908
#
# Velocity S-wave (km/s) = 2.63926 3.54623 3.12582
# Velocity P-wave (km/s) = 4.72184 6.60896 5.74344
#
# Compressibility (1/GPa) = 0.03444095
#
# Stress axis : x y z
#
# Youngs Moduli (GPa) = 175.34737 52.16351 18.17883
#
# Poissons Ratio (x) = 0.05509 0.07637
# Poissons Ratio (y) = 0.18519 0.31747
# Poissons Ratio (z) = 0.73665 0.91096
#
# Static dielectric constant tensor:
#      x y z
#    x 2.078730 0.000000 0.164500 
#    y 0.000000 1.934780 0.000000 
#    z 0.164500 0.000000 2.090610 
# 
# From -- ./inp_files/239091.got.cif
#   From: 2010.05.17/outbox.cif.g08.bks.cpg/sg15_120_cif.got.tgz:239091.got - 2010.06.03 18:47:42.
