data_PCOD9260060
_publ_section_title
;
Structure prediction by ZEFSAII (Michael W. Deem and Ramdas Pophale) SiO2 
 PCOD9260060
Probable space group: C 2/C
;
_chemical_formula_sum "Si O2"
_cell_formula_units_Z 44
_cell_length_a 12.946032
_cell_length_b 10.558491
_cell_length_c 18.348018
_cell_angle_alpha 90.000000
_cell_angle_beta 136.151386
_cell_angle_gamma 90.000000
_cell_volume 1737.430964
_symmetry_space_group_name_H-M "C 2/C"
_symmetry_group_IT_number 15
_symmetry_cell_setting 'monoclinic'
loop_
_space_group_symop_operation_xyz
x,y,z
-x,y,1/2-z
-x,-y,-z
x,-y,1/2+z
1/2+x,1/2+y,z
1/2-x,1/2+y,1/2-z
1/2-x,1/2-y,-z
1/2+x,1/2-y,1/2+z
loop_
_atom_site_type_symbol
_atom_site_label
_atom_site_fract_x
_atom_site_fract_y
_atom_site_fract_z
Si Si1 0.229750 0.614957 0.750754
Si Si2 0.351775 0.361407 0.864424
Si Si3 0.537414 0.687441 0.855488
Si Si4 0.636394 0.055499 0.376360
Si Si5 0.349535 0.415904 0.559376
Si Si6 0.000000 0.732151 0.750000
O O1 0.256444 0.461311 0.762653
O O2 0.399799 0.661661 0.839276
O O3 0.120856 0.659705 0.760085
O O4 0.174200 0.711075 0.659004
O O5 0.282324 0.404291 0.904872
O O6 0.524533 0.386555 0.937124
O O7 0.500000 0.700128 0.750000
O O8 0.628947 0.559056 0.902957
O O9 0.599385 0.824370 0.907185
O O10 0.500000 0.045762 0.250000
O O11 0.682583 0.927772 0.442258
O O12 0.396006 0.324122 0.647793
#
# Coordination Sequence:
#
# PCOD9260060 Si02
#       6
#     8   8   8   8   8   4
#     4  10  21  37  64  93 126 169 206 264 312 378
#     4  10  21  39  64  93 127 170 213 258 316 375
#     4  10  18  36  61  92 124 163 216 259 313 364
#     4  11  21  36  65  91 126 163 220 260 309 371
#     4  10  21  38  62  92 127 170 207 259 319 378
#     4  10  22  38  62  88 132 160 210 252 324 380
#
# _framework density 25.324746000000001
#
# number of rings (size 3 to 8) (size 9 to 14) (size 15 to 20)
#    0.000    1.818    4.545    1.091    1.273    0.000 
#    0.000    1.818    8.000    0.000    0.000    0.000 
#    0.000    0.000    0.000    0.000    0.000    0.000 
#
# Total GULP energy -122608.899225 kJ/mol
# GULP energy per Si atom -5573.131783 kJ/mol
# Density = 2.526711 g / cm^3
# Si number density = 25.324746 Si / 1000 Ang^3
#
#
#
# Elastic Constant Matrix: (Units=GPa)
#
#
# Indices 1 2 3 4 5 6 
#
# 1 92.0644 14.6810 15.4966 0.0000 9.9574 0.0000
# 2 14.6810 123.4707 43.7951 0.0000 6.8587 0.0000
# 3 15.4966 43.7951 81.9218 0.0000 13.0860 0.0000
# 4 0.0000 0.0000 0.0000 26.3301 0.0000 7.5217
# 5 9.9574 6.8587 13.0860 0.0000 28.4951 0.0000
# 6 0.0000 0.0000 0.0000 7.5217 0.0000 33.0301
#
#
#
# Elastic Compliance Matrix: (Units=1/GPa)
#
#
# Indices 1 2 3 4 5 6 
#
# 1 0.011547 -0.000743 -0.001264 0.000000 -0.003276 0.000000
# 2 -0.000743 0.010042 -0.005270 0.000000 0.000263 0.000000
# 3 -0.001264 -0.005270 0.016177 0.000000 -0.005719 0.000000
# 4 0.000000 0.000000 0.000000 0.040622 0.000000 -0.009251
# 5 -0.003276 0.000263 -0.005719 0.000000 0.038802 0.000000
# 6 0.000000 0.000000 0.000000 -0.009251 0.000000 0.032382
#
#
# Mechanical properties :
#
#
# Convention : Reuss Voigt Hill
#
# Bulk Modulus (GPa) = 43.07945 49.48914 46.28430
# Shear Modulus (GPa) = 29.09303 32.47001 30.78152
#
# Velocity S-wave (km/s) = 3.39307 3.58459 3.49014
# Velocity P-wave (km/s) = 5.69195 6.05942 5.87856
#
# Compressibility (1/GPa) = 0.02321292
#
# Stress axis : x y z
#
# Youngs Moduli (GPa) = 86.59900 99.58133 61.81760
#
# Poissons Ratio (x) = 0.07396 0.07814
# Poissons Ratio (y) = 0.06432 0.32577
# Poissons Ratio (z) = 0.10946 0.52478
#
# Static dielectric constant tensor:
#      x y z
#    x 1.962090 0.000000 -0.012080 
#    y 0.000000 2.106730 0.000000 
#    z -0.012080 0.000000 2.175700 
# 
# From -- ./inp_files/273687.got.cif
#   From: 2010.05.17/outbox.cif.g08.bks.cpg/sg15_137_cif.got.tgz:273687.got - 2010.06.03 18:47:42.
