data_PCOD9260813
_publ_section_title
;
Structure prediction by ZEFSAII (Michael W. Deem and Ramdas Pophale) SiO2 
 PCOD9260813
Probable space group: C 2/C
;
_chemical_formula_sum "Si O2"
_cell_formula_units_Z 52
_cell_length_a 5.202050
_cell_length_b 20.244373
_cell_length_c 25.042434
_cell_angle_alpha 90.000000
_cell_angle_beta 90.164372
_cell_angle_gamma 90.000000
_cell_volume 2637.263981
_symmetry_space_group_name_H-M "C 2/C"
_symmetry_group_IT_number 15
_symmetry_cell_setting 'monoclinic'
loop_
_space_group_symop_operation_xyz
x,y,z
-x,y,1/2-z
-x,-y,-z
x,-y,1/2+z
1/2+x,1/2+y,z
1/2-x,1/2+y,1/2-z
1/2-x,1/2-y,-z
1/2+x,1/2-y,1/2+z
loop_
_atom_site_type_symbol
_atom_site_label
_atom_site_fract_x
_atom_site_fract_y
_atom_site_fract_z
Si Si1 0.407725 0.742582 0.410278
Si Si2 0.603550 0.322333 0.697374
Si Si3 0.468683 0.889238 0.057584
Si Si4 0.272811 0.072187 0.354821
Si Si5 0.500000 0.075201 0.250000
Si Si6 0.572577 0.164241 0.059634
Si Si7 0.479066 0.524736 0.561601
O O1 0.323303 0.726564 0.349556
O O2 0.489619 0.818091 0.415920
O O3 0.658016 0.700681 0.428510
O O4 0.160056 0.716572 0.442709
O O5 0.500000 0.286315 0.750000
O O6 0.384604 0.367938 0.671452
O O7 0.807223 0.374953 0.719549
O O8 0.734817 0.927410 0.062099
O O9 0.236624 0.935535 0.076920
O O10 0.409778 0.873585 0.995798
O O11 0.380597 0.036916 0.301146
O O12 0.473982 0.109080 0.394354
O O13 0.092235 0.030652 0.394473
O O14 0.500000 0.500000 0.500000
#
# Coordination Sequence:
#
# PCOD9260813 Si02
#       7
#     8   8   8   8   4   8   8
#     4  11  22  39  62  93 129 157 207 259 318 386
#     4   9  20  36  62  93 115 155 200 272 324 364
#     4  12  25  40  61  92 130 178 205 245 317 385
#     4  10  22  36  63  91 125 159 214 268 313 366
#     4  10  18  38  64  94 114 152 214 266 334 354
#     4  11  21  37  64  92 127 161 203 259 314 372
#     4  12  26  41  62  88 133 173 215 253 301 382
#
# _framework density 19.717403999999998
#
# number of rings (size 3 to 8) (size 9 to 14) (size 15 to 20)
#    0.000    1.231    3.077    3.231    4.308    0.000 
#    0.000    0.000    1.692    0.000    0.000    0.000 
#    0.000    0.000    0.000    0.000    0.000    0.000 
#
# Total GULP energy -145029.516308 kJ/mol
# GULP energy per Si atom -5578.058320 kJ/mol
# Density = 1.967253 g / cm^3
# Si number density = 19.717404 Si / 1000 Ang^3
#
#
#
# Elastic Constant Matrix: (Units=GPa)
#
#
# Indices 1 2 3 4 5 6 
#
# 1 190.7452 85.7302 21.7670 0.0000 46.9077 0.0000
# 2 85.7302 105.4708 43.2777 0.0000 26.9988 0.0000
# 3 21.7670 43.2777 126.9677 0.0000 -2.7366 0.0000
# 4 0.0000 0.0000 0.0000 0.7314 0.0000 -9.8368
# 5 46.9077 26.9988 -2.7366 0.0000 48.5443 0.0000
# 6 0.0000 0.0000 0.0000 -9.8368 0.0000 54.2049
#
#
#
# Elastic Compliance Matrix: (Units=1/GPa)
#
#
# Indices 1 2 3 4 5 6 
#
# 1 0.009448 -0.006459 0.000463 0.000000 -0.005511 0.000000
# 2 -0.006459 0.017815 -0.005050 0.000000 -0.003952 0.000000
# 3 0.000463 -0.005050 0.009581 0.000000 0.002901 0.000000
# 4 0.000000 0.000000 0.000000 -0.948959 0.000000 -0.172212
# 5 -0.005511 -0.003952 0.002901 0.000000 0.028286 0.000000
# 6 0.000000 0.000000 0.000000 -0.172212 0.000000 -0.012804
#
#
# Mechanical properties :
#
#
# Convention : Reuss Voigt Hill
#
# Bulk Modulus (GPa) = 67.78986 80.52594 74.15790
# Shear Modulus (GPa) = -5.74961 38.85670 16.55354
#
# Velocity S-wave (km/s) = -1.70949 4.44405 2.90062
# Velocity P-wave (km/s) = 5.52801 8.20131 6.99358
#
# Compressibility (1/GPa) = 0.01475147
#
# Stress axis : x y z
#
# Youngs Moduli (GPa) = 105.84295 56.13202 104.37753
#
# Poissons Ratio (x) = 0.36255 -0.04833
# Poissons Ratio (y) = 0.68362 0.52714
# Poissons Ratio (z) = -0.04901 0.28348
#
# Static dielectric constant tensor:
#      x y z
#    x 1.752010 0.000000 -0.064650 
#    y 0.000000 1.883950 0.000000 
#    z -0.064650 0.000000 1.798670 
# 
# From -- ./inp_files/227519.got.cif
#   From: 2010.05.17/outbox.cif.g08.bks.cpg/sg15_114_cif.got.tgz:227519.got - 2010.06.03 18:47:42.
