data_PCOD9260084
_publ_section_title
;
Structure prediction by ZEFSAII (Michael W. Deem and Ramdas Pophale) SiO2 
 PCOD9260084
Probable space group: C 2/C
;
_chemical_formula_sum "Si O2"
_cell_formula_units_Z 52
_cell_length_a 13.548088
_cell_length_b 8.912888
_cell_length_c 16.844680
_cell_angle_alpha 90.000000
_cell_angle_beta 79.143674
_cell_angle_gamma 90.000000
_cell_volume 1997.634680
_symmetry_space_group_name_H-M "C 2/C"
_symmetry_group_IT_number 15
_symmetry_cell_setting 'monoclinic'
loop_
_space_group_symop_operation_xyz
x,y,z
-x,y,1/2-z
-x,-y,-z
x,-y,1/2+z
1/2+x,1/2+y,z
1/2-x,1/2+y,1/2-z
1/2-x,1/2-y,-z
1/2+x,1/2-y,1/2+z
loop_
_atom_site_type_symbol
_atom_site_label
_atom_site_fract_x
_atom_site_fract_y
_atom_site_fract_z
Si Si1 0.486802 0.296175 0.475837
Si Si2 0.500000 0.557944 0.250000
Si Si3 0.102731 0.023609 0.380729
Si Si4 0.781601 0.272354 0.797721
Si Si5 0.319376 0.744090 0.351908
Si Si6 0.386968 0.063084 0.403955
Si Si7 0.282748 0.551902 0.938467
O O1 0.589448 0.384623 0.441862
O O2 0.458197 0.335774 0.570713
O O3 0.480202 0.130614 0.440426
O O4 0.392120 0.384548 0.447954
O O5 0.546857 0.463197 0.312146
O O6 0.411796 0.660541 0.295561
O O7 0.204950 0.095642 0.336892
O O8 0.760260 0.236770 0.709137
O O9 0.881386 0.343458 0.821961
O O10 0.758467 0.130303 0.857706
O O11 0.280165 0.624300 0.421479
O O12 0.366681 0.892222 0.383482
O O13 0.295314 0.094523 0.480572
#
# Coordination Sequence:
#
# PCOD9260084 Si02
#       7
#     8   4   8   8   8   8   8
#     4  10  19  35  62  85 115 155 207 244 302 363
#     4  10  22  38  58  82 112 166 196 242 306 382
#     4  10  18  36  62  85 112 157 202 246 295 372
#     4  10  20  37  64  88 116 158 207 255 308 362
#     4  11  23  37  60  83 130 156 199 251 326 363
#     4  11  21  38  58  94 119 156 202 265 302 368
#     4  11  19  38  60  92 115 158 205 255 304 375
#
# _framework density 26.030787
#
# number of rings (size 3 to 8) (size 9 to 14) (size 15 to 20)
#    0.000    1.538    4.615    2.308    0.000    0.000 
#    0.000    1.538    6.769    0.000    0.000    0.000 
#    0.000    0.000    0.000    0.000    0.000    0.000 
#
# Total GULP energy -145209.845354 kJ/mol
# GULP energy per Si atom -5584.994052 kJ/mol
# Density = 2.597154 g / cm^3
# Si number density = 26.030787 Si / 1000 Ang^3
#
#
#
# Elastic Constant Matrix: (Units=GPa)
#
#
# Indices 1 2 3 4 5 6 
#
# 1 40.8881 17.5472 23.4875 0.0000 3.9655 0.0000
# 2 17.5472 144.2077 26.0199 0.0000 15.0140 0.0000
# 3 23.4875 26.0199 104.0017 0.0000 29.0961 0.0000
# 4 0.0000 0.0000 0.0000 41.2059 0.0000 2.6873
# 5 3.9655 15.0140 29.0961 0.0000 44.1421 0.0000
# 6 0.0000 0.0000 0.0000 2.6873 0.0000 36.3006
#
#
#
# Elastic Compliance Matrix: (Units=1/GPa)
#
#
# Indices 1 2 3 4 5 6 
#
# 1 0.029158 -0.002622 -0.006677 0.000000 0.002673 0.000000
# 2 -0.002622 0.007587 -0.000797 0.000000 -0.001820 0.000000
# 3 -0.006677 -0.000797 0.013584 0.000000 -0.008083 0.000000
# 4 0.000000 0.000000 0.000000 0.024386 0.000000 -0.001805
# 5 0.002673 -0.001820 -0.008083 0.000000 0.028361 0.000000
# 6 0.000000 0.000000 0.000000 -0.001805 0.000000 0.027681
#
#
# Mechanical properties :
#
#
# Convention : Reuss Voigt Hill
#
# Bulk Modulus (GPa) = 33.18117 47.02298 40.10207
# Shear Modulus (GPa) = 31.05703 39.13259 35.09481
#
# Velocity S-wave (km/s) = 3.45786 3.88147 3.67577
# Velocity P-wave (km/s) = 5.35882 6.17992 5.78396
#
# Compressibility (1/GPa) = 0.03013758
#
# Stress axis : x y z
#
# Youngs Moduli (GPa) = 34.29549 131.80992 73.61679
#
# Poissons Ratio (x) = 0.34555 0.49155
# Poissons Ratio (y) = 0.08991 0.05867
# Poissons Ratio (z) = 0.22900 0.10505
#
# Static dielectric constant tensor:
#      x y z
#    x 2.131660 0.000000 0.062120 
#    y 0.000000 2.086590 0.000000 
#    z 0.062120 0.000000 2.099020 
# 
# From -- ./inp_files/209158.got.cif
#   From: 2010.05.17/outbox.cif.g08.bks.cpg/sg15_105_cif.got.tgz:209158.got - 2010.06.03 18:47:42.
