data_PCOD9260677
_publ_section_title
;
Structure prediction by ZEFSAII (Michael W. Deem and Ramdas Pophale) SiO2 
 PCOD9260677
Probable space group: C 2/C
;
_chemical_formula_sum "Si O2"
_cell_formula_units_Z 36
_cell_length_a 19.064439
_cell_length_b 4.877033
_cell_length_c 16.003385
_cell_angle_alpha 90.000000
_cell_angle_beta 120.381757
_cell_angle_gamma 90.000000
_cell_volume 1283.626465
_symmetry_space_group_name_H-M "C 2/C"
_symmetry_group_IT_number 15
_symmetry_cell_setting 'monoclinic'
loop_
_space_group_symop_operation_xyz
x,y,z
-x,y,1/2-z
-x,-y,-z
x,-y,1/2+z
1/2+x,1/2+y,z
1/2-x,1/2+y,1/2-z
1/2-x,1/2-y,-z
1/2+x,1/2-y,1/2+z
loop_
_atom_site_type_symbol
_atom_site_label
_atom_site_fract_x
_atom_site_fract_y
_atom_site_fract_z
Si Si1 0.000000 0.224424 0.250000
Si Si2 0.452314 0.288191 0.409549
Si Si3 0.257154 0.952265 0.084119
Si Si4 0.391145 0.312108 0.074444
Si Si5 0.369720 0.816924 0.292019
O O1 0.934919 0.401910 0.259753
O O2 0.942134 0.040199 0.155813
O O3 0.500000 0.500000 0.500000
O O4 0.534876 0.145844 0.421137
O O5 0.397882 0.507168 0.325302
O O6 0.389602 0.032388 0.377395
O O7 0.285931 0.838882 0.190795
O O8 0.324116 0.172046 0.093229
O O9 0.250000 0.750000 0.000000
O O10 0.166358 0.068760 0.033220
#
# Coordination Sequence:
#
# PCOD9260677 Si02
#       5
#     4   8   8   8   8
#     4  10  18  38  60  96 124 172 204 272 330 386
#     4  11  25  44  63  89 124 177 223 258 298 383
#     4  11  21  37  61 101 130 158 200 272 340 386
#     4  10  22  36  62  92 134 160 209 260 332 379
#     4  11  22  39  64  91 127 162 214 262 323 376
#
# _framework density 28.045539999999999
#
# number of rings (size 3 to 8) (size 9 to 14) (size 15 to 20)
#    0.000    1.333    2.222    4.667    6.222    0.889 
#    0.000    2.222    0.000    0.000    0.000    0.000 
#    0.000    0.000    0.000    0.000    0.000    0.000 
#
# Total GULP energy -100446.618079 kJ/mol
# GULP energy per Si atom -5580.367671 kJ/mol
# Density = 2.798171 g / cm^3
# Si number density = 28.045540 Si / 1000 Ang^3
#
#
#
# Elastic Constant Matrix: (Units=GPa)
#
#
# Indices 1 2 3 4 5 6 
#
# 1 80.3732 11.1592 36.0294 -0.0001 34.7462 0.0000
# 2 11.1592 116.3261 84.8532 0.0001 26.6346 0.0002
# 3 36.0294 84.8532 269.1608 0.0002 55.3125 -0.0002
# 4 -0.0001 0.0001 0.0002 56.6706 0.0000 16.1128
# 5 34.7462 26.6346 55.3125 0.0000 48.3803 0.0000
# 6 0.0000 0.0002 -0.0002 16.1128 0.0000 29.7523
#
#
#
# Elastic Compliance Matrix: (Units=1/GPa)
#
#
# Indices 1 2 3 4 5 6 
#
# 1 0.018251 0.001462 -0.000059 0.000000 -0.013845 0.000000
# 2 0.001462 0.011573 -0.003031 0.000000 -0.003956 0.000000
# 3 -0.000059 -0.003031 0.005656 0.000000 -0.004755 0.000000
# 4 0.000000 0.000000 0.000000 0.020857 0.000000 -0.011296
# 5 -0.013845 -0.003956 -0.004755 0.000000 0.038228 0.000000
# 6 0.000000 0.000000 0.000000 -0.011296 0.000000 0.039728
#
#
# Mechanical properties :
#
#
# Convention : Reuss Voigt Hill
#
# Bulk Modulus (GPa) = 31.03265 81.10487 56.06876
# Shear Modulus (GPa) = 33.71766 49.21518 41.46642
#
# Velocity S-wave (km/s) = 3.47110 4.19361 3.84935
# Velocity P-wave (km/s) = 5.21094 7.24088 6.30810
#
# Compressibility (1/GPa) = 0.03222412
#
# Stress axis : x y z
#
# Youngs Moduli (GPa) = 54.79230 86.40711 176.80502
#
# Poissons Ratio (x) = -0.12634 0.01039
# Poissons Ratio (y) = -0.08011 0.53594
# Poissons Ratio (z) = 0.00322 0.26192
#
# Static dielectric constant tensor:
#      x y z
#    x 2.311810 0.000000 -0.201340 
#    y 0.000000 2.245120 0.000000 
#    z -0.201340 0.000000 2.319790 
# 
# From -- ./inp_files/175269.got.cif
#   From: 2010.05.17/outbox.cif.g08.bks.cpg/sg15_88_cif.got.tgz:175269.got - 2010.06.03 18:47:42.
