data_PCOD9260596
_publ_section_title
;
Structure prediction by ZEFSAII (Michael W. Deem and Ramdas Pophale) SiO2 
 PCOD9260596
Probable space group: C 2/C
;
_chemical_formula_sum "Si O2"
_cell_formula_units_Z 36
_cell_length_a 13.721387
_cell_length_b 4.968423
_cell_length_c 23.632409
_cell_angle_alpha 90.000000
_cell_angle_beta 101.303494
_cell_angle_gamma 90.000000
_cell_volume 1579.856565
_symmetry_space_group_name_H-M "C 2/C"
_symmetry_group_IT_number 15
_symmetry_cell_setting 'monoclinic'
loop_
_space_group_symop_operation_xyz
x,y,z
-x,y,1/2-z
-x,-y,-z
x,-y,1/2+z
1/2+x,1/2+y,z
1/2-x,1/2+y,1/2-z
1/2-x,1/2-y,-z
1/2+x,1/2-y,1/2+z
loop_
_atom_site_type_symbol
_atom_site_label
_atom_site_fract_x
_atom_site_fract_y
_atom_site_fract_z
Si Si1 0.847576 0.816325 0.888731
Si Si2 0.023795 0.324030 0.629686
Si Si3 0.431916 0.749190 0.509618
Si Si4 0.500000 0.381944 0.250000
Si Si5 0.784611 0.917160 0.221257
O O1 0.936690 0.622038 0.877565
O O2 0.755344 0.710123 0.841566
O O3 0.887811 0.114946 0.878882
O O4 0.840348 0.770972 0.955629
O O5 0.930842 0.261630 0.577285
O O6 0.998728 0.284410 0.691888
O O7 0.500000 0.500000 0.500000
O O8 0.500000 0.000000 0.500000
O O9 0.395739 0.535478 0.235249
O O10 0.781443 0.661449 0.263166
#
# Coordination Sequence:
#
# PCOD9260596 Si02
#       5
#     8   8   8   4   8
#     4  10  18  38  56  80 115 153 189 238 288 340
#     4  10  20  34  57  86 113 148 193 235 289 345
#     4   8  16  30  55  79 107 147 189 231 283 340
#     4  12  24  38  62  88 124 152 200 240 296 344
#     4  12  24  40  58  87 121 156 197 239 292 350
#
# _framework density 22.786877
#
# number of rings (size 3 to 8) (size 9 to 14) (size 15 to 20)
#    0.000    1.778    4.444    0.000    0.000    3.556 
#    0.000    1.111    0.000    0.000    0.000   21.778 
#    0.000    0.000    0.000    0.000    0.000    0.000 
#
# Total GULP energy -100362.778417 kJ/mol
# GULP energy per Si atom -5575.709912 kJ/mol
# Density = 2.273501 g / cm^3
# Si number density = 22.786877 Si / 1000 Ang^3
#
#
#
# Elastic Constant Matrix: (Units=GPa)
#
#
# Indices 1 2 3 4 5 6 
#
# 1 56.8964 -4.7586 34.4476 0.0000 20.0161 0.0000
# 2 -4.7586 99.6628 -12.3890 0.0000 2.1798 0.0000
# 3 34.4476 -12.3890 224.0995 0.0000 19.6489 0.0000
# 4 0.0000 0.0000 0.0000 22.0797 0.0000 14.5410
# 5 20.0161 2.1798 19.6489 0.0000 41.6216 0.0000
# 6 0.0000 0.0000 0.0000 14.5410 0.0000 2.0438
#
#
#
# Elastic Compliance Matrix: (Units=1/GPa)
#
#
# Indices 1 2 3 4 5 6 
#
# 1 0.022635 0.000974 -0.002573 0.000000 -0.009722 0.000000
# 2 0.000974 0.010172 0.000522 0.000000 -0.001247 0.000000
# 3 -0.002573 0.000522 0.004987 0.000000 -0.001144 0.000000
# 4 0.000000 0.000000 0.000000 -0.012289 0.000000 0.087431
# 5 -0.009722 -0.001247 -0.001144 0.000000 0.029307 0.000000
# 6 0.000000 0.000000 0.000000 0.087431 0.000000 -0.132759
#
#
# Mechanical properties :
#
#
# Convention : Reuss Voigt Hill
#
# Bulk Modulus (GPa) = 28.05864 46.13985 37.09924
# Shear Modulus (GPa) = -78.23355 37.37294 -20.43030
#
# Velocity S-wave (km/s) = -5.86577 4.05422 -2.99755
# Velocity P-wave (km/s) = 5.79104 6.49677 2.08229
#
# Compressibility (1/GPa) = 0.03563965
#
# Stress axis : x y z
#
# Youngs Moduli (GPa) = 44.17889 98.30428 200.52030
#
# Poissons Ratio (x) = -0.09570 0.51597
# Poissons Ratio (y) = -0.04301 -0.10469
# Poissons Ratio (z) = 0.11368 -0.05132
#
# Static dielectric constant tensor:
#      x y z
#    x 1.842850 0.000000 0.037110 
#    y 0.000000 1.755890 0.000000 
#    z 0.037110 0.000000 1.987850 
# 
# From -- ./inp_files/115574.got.cif
#   From: 2010.05.17/outbox.cif.g08.bks.cpg/sg15_58_cif.got.tgz:115574.got - 2010.06.03 18:47:42.
