data_PCOD9260569
_publ_section_title
;
Structure prediction by ZEFSAII (Michael W. Deem and Ramdas Pophale) SiO2 
 PCOD9260569
Probable space group: C 2/C
;
_chemical_formula_sum "Si O2"
_cell_formula_units_Z 48
_cell_length_a 31.911202
_cell_length_b 9.114901
_cell_length_c 18.942913
_cell_angle_alpha 90.000000
_cell_angle_beta 154.723473
_cell_angle_gamma 90.000000
_cell_volume 2352.648176
_symmetry_space_group_name_H-M "C 2/C"
_symmetry_group_IT_number 15
_symmetry_cell_setting 'monoclinic'
loop_
_space_group_symop_operation_xyz
x,y,z
-x,y,1/2-z
-x,-y,-z
x,-y,1/2+z
1/2+x,1/2+y,z
1/2-x,1/2+y,1/2-z
1/2-x,1/2-y,-z
1/2+x,1/2-y,1/2+z
loop_
_atom_site_type_symbol
_atom_site_label
_atom_site_fract_x
_atom_site_fract_y
_atom_site_fract_z
Si Si1 0.222214 0.056366 0.051325
Si Si2 0.076234 0.023321 0.201109
Si Si3 0.209609 0.129099 0.800046
Si Si4 0.883165 0.121572 0.988886
Si Si5 0.602935 0.080800 0.895931
Si Si6 0.651847 0.823356 0.318437
O O1 0.251041 0.223823 0.103946
O O2 0.165040 0.994200 0.031468
O O3 0.317655 0.953819 0.185799
O O4 0.155665 0.026711 0.881268
O O5 0.108664 0.921110 0.185245
O O6 0.095482 0.187020 0.200376
O O7 0.977729 0.044802 0.096725
O O8 0.186811 0.157467 0.683529
O O9 0.296121 0.007367 0.938064
O O10 0.899066 0.270353 0.059405
O O11 0.500000 0.996703 0.750000
O O12 0.599006 0.121453 0.807644
O O13 0.750000 0.750000 0.500000
#
# Coordination Sequence:
#
# PCOD9260569 Si02
#       6
#     8   8   8   8   8   8
#     4  11  22  41  65  94 128 169 211 261 315 377
#     4  11  21  41  68  92 119 177 219 250 300 396
#     4  12  26  40  61  99 139 155 200 283 333 348
#     4  12  23  42  65  95 127 170 210 260 321 382
#     4  12  22  41  68  90 117 171 224 250 296 390
#     4  10  18  37  69  87 114 165 223 249 291 373
#
# _framework density 20.402540999999999
#
# number of rings (size 3 to 8) (size 9 to 14) (size 15 to 20)
#    0.000    0.667    8.333    2.500    0.000    1.333 
#    0.000    0.833    0.000    0.000    0.000    0.000 
#    0.000    0.000    0.000    0.000    0.000    0.000 
#
# Total GULP energy -133852.199345 kJ/mol
# GULP energy per Si atom -5577.174973 kJ/mol
# Density = 2.035610 g / cm^3
# Si number density = 20.402541 Si / 1000 Ang^3
#
#
#
# Elastic Constant Matrix: (Units=GPa)
#
#
# Indices 1 2 3 4 5 6 
#
# 1 110.4392 49.4037 21.6431 0.0000 23.2808 0.0000
# 2 49.4037 107.2514 33.4717 0.0000 13.7116 0.0000
# 3 21.6431 33.4717 47.7850 0.0000 15.5203 0.0000
# 4 0.0000 0.0000 0.0000 9.7922 0.0000 -0.4326
# 5 23.2808 13.7116 15.5203 0.0000 41.9183 0.0000
# 6 0.0000 0.0000 0.0000 -0.4326 0.0000 23.6782
#
#
#
# Elastic Compliance Matrix: (Units=1/GPa)
#
#
# Indices 1 2 3 4 5 6 
#
# 1 0.012430 -0.004906 -0.000537 0.000000 -0.005100 0.000000
# 2 -0.004906 0.013900 -0.007869 0.000000 0.001091 0.000000
# 3 -0.000537 -0.007869 0.029269 0.000000 -0.007965 0.000000
# 4 0.000000 0.000000 0.000000 0.102205 0.000000 0.001867
# 5 -0.005100 0.001091 -0.007965 0.000000 0.029280 0.000000
# 6 0.000000 0.000000 0.000000 0.001867 0.000000 0.042267
#
#
# Mechanical properties :
#
#
# Convention : Reuss Voigt Hill
#
# Bulk Modulus (GPa) = 34.51236 52.72361 43.61799
# Shear Modulus (GPa) = 18.82298 25.80822 22.31560
#
# Velocity S-wave (km/s) = 3.04070 3.56047 3.31080
# Velocity P-wave (km/s) = 5.41112 6.54220 6.00336
#
# Compressibility (1/GPa) = 0.02897512
#
# Stress axis : x y z
#
# Youngs Moduli (GPa) = 80.45289 71.94243 34.16576
#
# Poissons Ratio (x) = 0.35295 0.01834
# Poissons Ratio (y) = 0.39470 0.26885
# Poissons Ratio (z) = 0.04319 0.56611
#
# Static dielectric constant tensor:
#      x y z
#    x 1.637210 0.000000 -0.010280 
#    y 0.000000 1.721150 0.000000 
#    z -0.010280 0.000000 1.774810 
# 
# From -- ./inp_files/258761.got.cif
#   From: 2010.05.17/outbox.cif.g08.bks.cpg/sg15_130_cif.got.tgz:258761.got - 2010.06.03 18:47:42.
