data_PCOD9260119
_publ_section_title
;
Structure prediction by ZEFSAII (Michael W. Deem and Ramdas Pophale) SiO2 
 PCOD9260119
Probable space group: C 2/C
;
_chemical_formula_sum "Si O2"
_cell_formula_units_Z 52
_cell_length_a 22.055093
_cell_length_b 9.076014
_cell_length_c 13.699924
_cell_angle_alpha 90.000000
_cell_angle_beta 60.774490
_cell_angle_gamma 90.000000
_cell_volume 2393.258240
_symmetry_space_group_name_H-M "C 2/C"
_symmetry_group_IT_number 15
_symmetry_cell_setting 'monoclinic'
loop_
_space_group_symop_operation_xyz
x,y,z
-x,y,1/2-z
-x,-y,-z
x,-y,1/2+z
1/2+x,1/2+y,z
1/2-x,1/2+y,1/2-z
1/2-x,1/2-y,-z
1/2+x,1/2-y,1/2+z
loop_
_atom_site_type_symbol
_atom_site_label
_atom_site_fract_x
_atom_site_fract_y
_atom_site_fract_z
Si Si1 0.685454 0.874942 0.664735
Si Si2 0.613125 0.215597 0.399230
Si Si3 0.151057 0.048353 0.630059
Si Si4 0.718884 0.892671 0.973147
Si Si5 0.973121 0.163218 0.990978
Si Si6 0.500000 0.397110 0.250000
Si Si7 0.334079 0.539299 0.111477
O O1 0.624430 0.876859 0.791926
O O2 0.673889 0.718161 0.621551
O O3 0.756863 0.894603 0.670549
O O4 0.690452 0.996890 0.577693
O O5 0.657864 0.145197 0.448572
O O6 0.532260 0.232389 0.487317
O O7 0.646893 0.380839 0.355200
O O8 0.071560 0.021357 0.722481
O O9 0.153904 0.005346 0.513800
O O10 0.213075 0.961062 0.632855
O O11 0.750000 0.750000 0.000000
O O12 0.978571 0.181913 0.868343
O O13 0.893403 0.160736 0.087228
O O14 0.000000 0.000000 0.000000
#
# Coordination Sequence:
#
# PCOD9260119 Si02
#       7
#     8   8   8   8   8   4   8
#     4  11  22  37  62  96 123 169 217 262 325 387
#     4  11  21  37  62  94 129 166 218 264 320 381
#     4  10  20  37  63  92 119 169 210 261 324 379
#     4  11  22  38  59  90 133 167 206 272 327 376
#     4   9  19  34  60  93 122 157 207 260 315 364
#     4  10  18  36  62  92 124 158 212 266 300 378
#     4   9  19  37  59  92 123 161 210 269 311 374
#
# _framework density 21.727702000000001
#
# number of rings (size 3 to 8) (size 9 to 14) (size 15 to 20)
#    0.000    1.846    4.615    1.846    2.154    0.000 
#    0.000    0.000    0.000   11.077    0.000    0.000 
#    0.000    0.000    0.000    0.000    0.000    0.000 
#
# Total GULP energy -144955.379389 kJ/mol
# GULP energy per Si atom -5575.206900 kJ/mol
# Density = 2.167825 g / cm^3
# Si number density = 21.727702 Si / 1000 Ang^3
#
#
#
# Elastic Constant Matrix: (Units=GPa)
#
#
# Indices 1 2 3 4 5 6 
#
# 1 148.5294 37.8306 28.2609 0.0000 -12.9097 0.0000
# 2 37.8306 75.5799 31.4163 0.0000 -1.8634 0.0000
# 3 28.2609 31.4163 49.4711 0.0000 -2.9399 0.0000
# 4 0.0000 0.0000 0.0000 15.6040 0.0000 0.0534
# 5 -12.9097 -1.8634 -2.9399 0.0000 41.9243 0.0000
# 6 0.0000 0.0000 0.0000 0.0534 0.0000 37.7481
#
#
#
# Elastic Compliance Matrix: (Units=1/GPa)
#
#
# Indices 1 2 3 4 5 6 
#
# 1 0.008180 -0.002924 -0.002685 0.000000 0.002200 0.000000
# 2 -0.002924 0.019021 -0.010456 0.000000 -0.000788 0.000000
# 3 -0.002685 -0.010456 0.028429 0.000000 0.000702 0.000000
# 4 0.000000 0.000000 0.000000 0.064086 0.000000 -0.000091
# 5 0.002200 -0.000788 0.000702 0.000000 0.024544 0.000000
# 6 0.000000 0.000000 0.000000 -0.000091 0.000000 0.026492
#
#
# Mechanical properties :
#
#
# Convention : Reuss Voigt Hill
#
# Bulk Modulus (GPa) = 42.55226 52.06623 47.30925
# Shear Modulus (GPa) = 23.72866 30.79346 27.26106
#
# Velocity S-wave (km/s) = 3.30827 3.76871 3.54597
# Velocity P-wave (km/s) = 5.84976 6.55383 6.21178
#
# Compressibility (1/GPa) = 0.02350051
#
# Stress axis : x y z
#
# Youngs Moduli (GPa) = 122.25635 52.57272 35.17479
#
# Poissons Ratio (x) = 0.15371 0.09445
# Poissons Ratio (y) = 0.35745 0.36779
# Poissons Ratio (z) = 0.32828 0.54970
#
# Static dielectric constant tensor:
#      x y z
#    x 1.865890 0.000000 0.006920 
#    y 0.000000 1.790910 0.000000 
#    z 0.006920 0.000000 1.905570 
# 
# From -- ./inp_files/171741.got.cif
#   From: 2010.05.17/outbox.cif.g08.bks.cpg/sg15_86_cif.got.tgz:171741.got - 2010.06.03 18:47:42.
