data_PCOD9260204
_publ_section_title
;
Structure prediction by ZEFSAII (Michael W. Deem and Ramdas Pophale) SiO2 
 PCOD9260204
Probable space group: C 2/C
;
_chemical_formula_sum "Si O2"
_cell_formula_units_Z 44
_cell_length_a 7.939013
_cell_length_b 11.257476
_cell_length_c 20.661002
_cell_angle_alpha 90.000000
_cell_angle_beta 82.884598
_cell_angle_gamma 90.000000
_cell_volume 1832.320053
_symmetry_space_group_name_H-M "C 2/C"
_symmetry_group_IT_number 15
_symmetry_cell_setting 'monoclinic'
loop_
_space_group_symop_operation_xyz
x,y,z
-x,y,1/2-z
-x,-y,-z
x,-y,1/2+z
1/2+x,1/2+y,z
1/2-x,1/2+y,1/2-z
1/2-x,1/2-y,-z
1/2+x,1/2-y,1/2+z
loop_
_atom_site_type_symbol
_atom_site_label
_atom_site_fract_x
_atom_site_fract_y
_atom_site_fract_z
Si Si1 0.663023 0.513407 0.447528
Si Si2 0.535422 0.983673 0.905114
Si Si3 0.786258 0.261517 0.113409
Si Si4 0.892101 0.242085 0.606246
Si Si5 0.500000 0.009396 0.250000
Si Si6 0.309301 0.335988 0.245655
O O1 0.500000 0.500000 0.500000
O O2 0.862470 0.527072 0.454519
O O3 0.629992 0.638627 0.412099
O O4 0.673812 0.384138 0.413967
O O5 0.615213 0.114861 0.903989
O O6 0.495492 0.954277 0.829226
O O7 0.650651 0.870793 0.920857
O O8 0.597150 0.270722 0.092483
O O9 0.753335 0.258826 0.191509
O O10 0.823348 0.243703 0.682375
O O11 0.675482 0.938464 0.243004
O O12 0.500000 0.381216 0.250000
#
# Coordination Sequence:
#
# PCOD9260204 Si02
#       6
#     8   8   8   8   4   8
#     4  11  24  42  62  87 126 170 209 251 311 380
#     4  10  22  38  63  90 123 163 204 260 314 368
#     4   9  22  38  59  92 122 158 208 258 313 375
#     4  10  21  38  62  88 122 163 203 258 321 368
#     4  10  18  36  64  92 130 166 208 256 326 388
#     4   9  18  35  62  92 130 163 205 264 322 383
#
# _framework density 24.013271
#
# number of rings (size 3 to 8) (size 9 to 14) (size 15 to 20)
#    0.000    2.182    1.818    0.000    6.364    5.091 
#    0.000    1.818    4.000    0.000    0.000    0.000 
#    0.000    0.000    0.000    0.000    0.000    0.000 
#
# Total GULP energy -122514.375855 kJ/mol
# GULP energy per Si atom -5568.835266 kJ/mol
# Density = 2.395862 g / cm^3
# Si number density = 24.013271 Si / 1000 Ang^3
#
#
#
# Elastic Constant Matrix: (Units=GPa)
#
#
# Indices 1 2 3 4 5 6 
#
# 1 34.7628 38.2093 43.3454 0.0000 -31.0042 0.0000
# 2 38.2093 194.2588 43.3977 0.0000 -7.7526 0.0000
# 3 43.3454 43.3977 80.9797 0.0000 -24.9144 0.0000
# 4 0.0000 0.0000 0.0000 -46.1878 0.0000 208.0151
# 5 -31.0042 -7.7526 -24.9144 0.0000 34.7386 0.0000
# 6 0.0000 0.0000 0.0000 208.0151 0.0000 -688.2607
#
#
#
# Elastic Compliance Matrix: (Units=1/GPa)
#
#
# Indices 1 2 3 4 5 6 
#
# 1 -0.496649 0.054489 0.133449 0.000000 -0.335389 0.000000
# 2 0.054489 -0.000090 -0.018171 0.000000 0.035579 0.000000
# 3 0.133449 -0.018171 -0.017896 0.000000 0.102213 0.000000
# 4 0.000000 0.000000 0.000000 0.059948 0.000000 0.018118
# 5 -0.335389 0.035579 0.102213 0.000000 -0.189302 0.000000
# 6 0.000000 0.000000 0.000000 0.018118 0.000000 0.004023
#
#
# Mechanical properties :
#
#
# Convention : Reuss Voigt Hill
#
# Bulk Modulus (GPa) = -5.71100 62.21178 28.25039
# Shear Modulus (GPa) = -4.81757 -127.60540 -66.21148
#
# Velocity S-wave (km/s) = -1.41794 -7.29760 -5.25668
# Velocity P-wave (km/s) = 2.25037 6.71141 5.00536
#
# Compressibility (1/GPa) = -0.17510077
#
# Stress axis : x y z
#
# Youngs Moduli (GPa) = -2.01350 -11050.58002 -55.87752
#
# Poissons Ratio (x) = 602.13950 7.45681
# Poissons Ratio (y) = 0.10971 -1.01536
# Poissons Ratio (z) = 0.26870 -200.80231
#
# Static dielectric constant tensor:
#      x y z
#    x 1.912670 0.000000 0.087230 
#    y 0.000000 1.962750 0.000000 
#    z 0.087230 0.000000 2.037130 
# 
# From -- ./inp_files/263037.got.cif
#   From: 2010.05.17/outbox.cif.g08.bks.cpg/sg15_132_cif.got.tgz:263037.got - 2010.06.03 18:47:42.
