data_PCOD9260843
_publ_section_title
;
Structure prediction by ZEFSAII (Michael W. Deem and Ramdas Pophale) SiO2 
 PCOD9260843
Probable space group: C 2/C
;
_chemical_formula_sum "Si O2"
_cell_formula_units_Z 60
_cell_length_a 21.608529
_cell_length_b 15.422693
_cell_length_c 11.302169
_cell_angle_alpha 90.000000
_cell_angle_beta 58.675108
_cell_angle_gamma 90.000000
_cell_volume 3217.537239
_symmetry_space_group_name_H-M "C 2/C"
_symmetry_group_IT_number 15
_symmetry_cell_setting 'monoclinic'
loop_
_space_group_symop_operation_xyz
x,y,z
-x,y,1/2-z
-x,-y,-z
x,-y,1/2+z
1/2+x,1/2+y,z
1/2-x,1/2+y,1/2-z
1/2-x,1/2-y,-z
1/2+x,1/2-y,1/2+z
loop_
_atom_site_type_symbol
_atom_site_label
_atom_site_fract_x
_atom_site_fract_y
_atom_site_fract_z
Si Si1 0.330261 0.857940 0.124584
Si Si2 0.982386 0.898878 0.027013
Si Si3 0.132398 0.327529 0.674948
Si Si4 0.594543 0.179230 0.556854
Si Si5 0.083915 0.471153 0.913130
Si Si6 0.000000 0.797663 0.250000
Si Si7 0.673063 0.306543 0.328398
Si Si8 0.445279 0.245403 0.645041
O O1 0.249769 0.852213 0.255117
O O2 0.382096 0.779557 0.117831
O O3 0.369584 0.942308 0.136051
O O4 0.329378 0.858775 0.982755
O O5 0.006068 0.858184 0.129143
O O6 0.897061 0.870848 0.102751
O O7 0.030937 0.845583 0.883352
O O8 0.000000 0.000000 0.000000
O O9 0.104565 0.406986 0.784443
O O10 0.066201 0.267532 0.699935
O O11 0.175747 0.259808 0.714238
O O12 0.604930 0.079813 0.513452
O O13 0.658428 0.240939 0.450604
O O14 0.523877 0.201220 0.544358
O O15 0.577003 0.206221 0.706691
O O16 0.000000 0.500000 0.000000
#
# Coordination Sequence:
#
# PCOD9260843 Si02
#       8
#     8   8   8   8   8   4   8   8
#     4  12  22  37  60  91 119 161 204 245 314 371
#     4  10  21  40  62  92 111 154 211 253 292 356
#     4  10  21  39  61  88 124 160 200 249 310 370
#     4   9  20  40  58  83 124 157 199 246 306 363
#     4  11  22  36  60  95 121 159 203 259 296 369
#     4  10  18  38  66  86 114 158 200 248 302 364
#     4   9  22  41  58  84 124 158 196 253 305 366
#     4  10  20  37  64  85 114 163 198 244 312 367
#
# _framework density 18.647801999999999
#
# number of rings (size 3 to 8) (size 9 to 14) (size 15 to 20)
#    0.000    1.867    2.667    2.000    1.867    2.667 
#    4.800    1.333    0.000    0.000    0.000    0.000 
#    0.000    0.000    0.000    0.000    0.000    0.000 
#
# Total GULP energy -167183.466521 kJ/mol
# GULP energy per Si atom -5572.782217 kJ/mol
# Density = 1.860536 g / cm^3
# Si number density = 18.647802 Si / 1000 Ang^3
#
#
#
# Elastic Constant Matrix: (Units=GPa)
#
#
# Indices 1 2 3 4 5 6 
#
# 1 65.8014 41.9122 42.0109 0.0000 -20.3117 0.0000
# 2 41.9122 132.4344 44.1356 0.0000 -23.9172 0.0000
# 3 42.0109 44.1356 107.4708 0.0000 -9.6029 0.0000
# 4 0.0000 0.0000 0.0000 22.4860 0.0000 -2.4286
# 5 -20.3117 -23.9172 -9.6029 0.0000 26.3880 0.0000
# 6 0.0000 0.0000 0.0000 -2.4286 0.0000 19.8914
#
#
#
# Elastic Compliance Matrix: (Units=1/GPa)
#
#
# Indices 1 2 3 4 5 6 
#
# 1 0.026844 -0.003184 -0.007853 0.000000 0.014919 0.000000
# 2 -0.003184 0.010511 -0.002522 0.000000 0.006158 0.000000
# 3 -0.007853 -0.002522 0.013092 0.000000 -0.003566 0.000000
# 4 0.000000 0.000000 0.000000 0.045066 0.000000 0.005502
# 5 0.014919 0.006158 -0.003566 0.000000 0.053664 0.000000
# 6 0.000000 0.000000 0.000000 0.005502 0.000000 0.050945
#
#
# Mechanical properties :
#
#
# Convention : Reuss Voigt Hill
#
# Bulk Modulus (GPa) = 42.86389 62.42488 52.64438
# Shear Modulus (GPa) = 21.27513 25.59629 23.43571
#
# Velocity S-wave (km/s) = 3.38137 3.70890 3.54892
# Velocity P-wave (km/s) = 6.18715 7.20345 6.71456
#
# Compressibility (1/GPa) = 0.02332966
#
# Stress axis : x y z
#
# Youngs Moduli (GPa) = 37.25171 95.13684 76.38506
#
# Poissons Ratio (x) = 0.30293 0.59984
# Poissons Ratio (y) = 0.11861 0.19262
# Poissons Ratio (z) = 0.29253 0.23991
#
# Static dielectric constant tensor:
#      x y z
#    x 1.711210 0.000000 0.046360 
#    y 0.000000 1.660890 0.000000 
#    z 0.046360 0.000000 1.686380 
# 
# From -- ./inp_files/118780.got.cif
#   From: 2010.05.17/outbox.cif.g08.bks.cpg/sg15_60_cif.got.tgz:118780.got - 2010.06.03 18:47:42.
