data_PCOD9260723
_publ_section_title
;
Structure prediction by ZEFSAII (Michael W. Deem and Ramdas Pophale) SiO2 
 PCOD9260723
Probable space group: C 2/C
;
_chemical_formula_sum "Si O2"
_cell_formula_units_Z 52
_cell_length_a 28.722383
_cell_length_b 8.482453
_cell_length_c 15.999327
_cell_angle_alpha 90.000000
_cell_angle_beta 134.616363
_cell_angle_gamma 90.000000
_cell_volume 2774.707331
_symmetry_space_group_name_H-M "C 2/C"
_symmetry_group_IT_number 15
_symmetry_cell_setting 'monoclinic'
loop_
_space_group_symop_operation_xyz
x,y,z
-x,y,1/2-z
-x,-y,-z
x,-y,1/2+z
1/2+x,1/2+y,z
1/2-x,1/2+y,1/2-z
1/2-x,1/2-y,-z
1/2+x,1/2-y,1/2+z
loop_
_atom_site_type_symbol
_atom_site_label
_atom_site_fract_x
_atom_site_fract_y
_atom_site_fract_z
Si Si1 0.000000 0.224464 0.250000
Si Si2 0.789213 0.617934 0.099939
Si Si3 0.264223 0.341337 0.355658
Si Si4 0.864377 0.808298 0.770758
Si Si5 0.642642 0.852389 0.411642
Si Si6 0.644133 0.338446 0.183376
Si Si7 0.504451 0.650362 0.444005
O O1 0.066339 0.328259 0.336831
O O2 0.999980 0.126586 0.337435
O O3 0.744700 0.489684 0.093187
O O4 0.835493 0.521751 0.094692
O O5 0.830840 0.705940 0.222937
O O6 0.750000 0.750000 0.000000
O O7 0.191937 0.273608 0.246578
O O8 0.307979 0.207765 0.455727
O O9 0.302665 0.377857 0.320178
O O10 0.846491 0.762043 0.654126
O O11 0.938617 0.751589 0.881091
O O12 0.864990 0.995735 0.780733
O O13 0.576091 0.285240 0.055153
O O14 0.500000 0.500000 0.500000
#
# Coordination Sequence:
#
# PCOD9260723 Si02
#       7
#     4   8   8   8   8   8   8
#     4  10  18  38  62  88 120 168 202 240 306 370
#     4  11  23  37  59  87 121 155 194 253 301 354
#     4  11  20  36  60  88 113 157 196 241 299 360
#     4   9  19  35  57  84 116 152 193 239 296 354
#     4  10  20  37  62  82 117 160 200 237 301 363
#     4  11  20  36  59  87 119 149 203 247 294 352
#     4   9  19  35  61  89 119 159 200 247 293 359
#
# _framework density 18.740713
#
# number of rings (size 3 to 8) (size 9 to 14) (size 15 to 20)
#    0.000    1.846    1.538    4.615    0.000    0.000 
#    0.000    6.923   10.154    0.000    0.000    0.000 
#    0.000    0.000    0.000    0.000    0.000    0.000 
#
# Total GULP energy -144857.027758 kJ/mol
# GULP energy per Si atom -5571.424145 kJ/mol
# Density = 1.869806 g / cm^3
# Si number density = 18.740713 Si / 1000 Ang^3
#
#
#
# Elastic Constant Matrix: (Units=GPa)
#
#
# Indices 1 2 3 4 5 6 
#
# 1 109.2609 37.4923 45.9293 0.0000 17.1310 0.0000
# 2 37.4923 76.2452 35.7413 0.0000 -0.2904 0.0000
# 3 45.9293 35.7413 112.0742 0.0000 9.1086 0.0000
# 4 0.0000 0.0000 0.0000 25.2258 0.0000 2.8352
# 5 17.1310 -0.2904 9.1086 0.0000 29.8615 0.0000
# 6 0.0000 0.0000 0.0000 2.8352 0.0000 18.7930
#
#
#
# Elastic Compliance Matrix: (Units=1/GPa)
#
#
# Indices 1 2 3 4 5 6 
#
# 1 0.013314 -0.005019 -0.003313 0.000000 -0.006676 0.000000
# 2 -0.005019 0.017397 -0.003834 0.000000 0.004218 0.000000
# 3 -0.003313 -0.003834 0.011640 0.000000 -0.001687 0.000000
# 4 0.000000 0.000000 0.000000 0.040326 0.000000 -0.006084
# 5 -0.006676 0.004218 -0.001687 0.000000 0.037874 0.000000
# 6 0.000000 0.000000 0.000000 -0.006084 0.000000 0.054129
#
#
# Mechanical properties :
#
#
# Convention : Reuss Voigt Hill
#
# Bulk Modulus (GPa) = 55.49737 59.54510 57.52124
# Shear Modulus (GPa) = 24.38797 26.67052 25.52925
#
# Velocity S-wave (km/s) = 3.61132 3.77654 3.69485
# Velocity P-wave (km/s) = 6.86049 7.13151 6.99731
#
# Compressibility (1/GPa) = 0.01801887
#
# Stress axis : x y z
#
# Youngs Moduli (GPa) = 75.10746 57.48096 85.90973
#
# Poissons Ratio (x) = 0.28852 0.28462
# Poissons Ratio (y) = 0.37700 0.32936
# Poissons Ratio (z) = 0.24883 0.22037
#
# Static dielectric constant tensor:
#      x y z
#    x 1.702910 0.000000 0.024090 
#    y 0.000000 1.635290 0.000000 
#    z 0.024090 0.000000 1.664500 
# 
# From -- ./inp_files/181213.got.cif
#   From: 2010.05.17/outbox.cif.g08.bks.cpg/sg15_91_cif.got.tgz:181213.got - 2010.06.03 18:47:42.
