data_PCOD9260049
_publ_section_title
;
Structure prediction by ZEFSAII (Michael W. Deem and Ramdas Pophale) SiO2 
 PCOD9260049
Probable space group: C 2/C
;
_chemical_formula_sum "Si O2"
_cell_formula_units_Z 52
_cell_length_a 18.549582
_cell_length_b 14.035984
_cell_length_c 16.156133
_cell_angle_alpha 90.000000
_cell_angle_beta 30.681910
_cell_angle_gamma 90.000000
_cell_volume 2146.424658
_symmetry_space_group_name_H-M "C 2/C"
_symmetry_group_IT_number 15
_symmetry_cell_setting 'monoclinic'
loop_
_space_group_symop_operation_xyz
x,y,z
-x,y,1/2-z
-x,-y,-z
x,-y,1/2+z
1/2+x,1/2+y,z
1/2-x,1/2+y,1/2-z
1/2-x,1/2-y,-z
1/2+x,1/2-y,1/2+z
loop_
_atom_site_type_symbol
_atom_site_label
_atom_site_fract_x
_atom_site_fract_y
_atom_site_fract_z
Si Si1 0.792982 0.361407 0.489242
Si Si2 0.427867 0.841678 0.187511
Si Si3 0.469806 0.576054 0.916440
Si Si4 0.531686 0.206863 0.039790
Si Si5 0.181958 0.540980 0.272968
Si Si6 0.000000 0.934668 0.750000
Si Si7 0.297274 0.039878 0.573308
O O1 0.824279 0.319330 0.367686
O O2 0.623378 0.371279 0.669453
O O3 0.831890 0.474680 0.461124
O O4 0.913735 0.322477 0.432806
O O5 0.418544 0.790801 0.106605
O O6 0.375598 0.950371 0.220839
O O7 0.421898 0.508742 0.887997
O O8 0.632846 0.548207 0.755782
O O9 0.475987 0.690086 0.912518
O O10 0.350656 0.550326 0.100288
O O11 0.638722 0.143753 0.987625
O O12 0.390224 0.141422 0.178870
O O13 0.144570 0.515528 0.403841
#
# Coordination Sequence:
#
# PCOD9260049 Si02
#       7
#     8   8   8   8   8   4   8
#     4  10  18  36  61  90 115 151 207 259 289 352
#     4  10  19  35  62  86 112 160 209 247 286 356
#     4  11  23  37  56  89 132 158 187 252 318 364
#     4  11  21  38  55  88 123 162 202 241 302 371
#     4  11  19  38  59  86 112 165 209 246 291 361
#     4  10  22  38  56  94 130 156 188 248 326 366
#     4  10  20  37  59  87 116 158 211 247 295 356
#
# _framework density 24.226336
#
# number of rings (size 3 to 8) (size 9 to 14) (size 15 to 20)
#    0.000    1.538    4.615    2.308    0.000    0.000 
#    2.769    2.308    0.000    0.923    4.000    0.000 
#    0.000    0.000    0.000    0.000    0.000    0.000 
#
# Total GULP energy -144870.684952 kJ/mol
# GULP energy per Si atom -5571.949421 kJ/mol
# Density = 2.417120 g / cm^3
# Si number density = 24.226336 Si / 1000 Ang^3
#
#
#
# Elastic Constant Matrix: (Units=GPa)
#
#
# Indices 1 2 3 4 5 6 
#
# 1 51.1696 30.0543 -2.2075 -0.0002 -17.4869 0.0000
# 2 30.0543 142.2229 24.0638 -0.0003 3.9963 -0.0001
# 3 -2.2075 24.0638 55.3801 -0.0005 -9.8335 -0.0001
# 4 -0.0002 -0.0003 -0.0005 -344.5501 0.0007 -87.4783
# 5 -17.4869 3.9963 -9.8335 0.0007 41.8874 0.0002
# 6 0.0000 -0.0001 -0.0001 -87.4783 0.0002 -10.9385
#
#
#
# Elastic Compliance Matrix: (Units=1/GPa)
#
#
# Indices 1 2 3 4 5 6 
#
# 1 0.029531 -0.007878 0.007224 0.000000 0.014776 0.000000
# 2 -0.007878 0.009790 -0.005549 0.000000 -0.005526 0.000000
# 3 0.007224 -0.005549 0.022316 0.000000 0.008784 0.000000
# 4 0.000000 0.000000 0.000000 0.002817 0.000000 -0.022525
# 5 0.014776 -0.005526 0.008784 0.000000 0.032631 0.000000
# 6 0.000000 0.000000 0.000000 -0.022525 0.000000 0.088719
#
#
# Mechanical properties :
#
#
# Convention : Reuss Voigt Hill
#
# Bulk Modulus (GPa) = 20.31239 39.17708 29.74474
# Shear Modulus (GPa) = 23.29685 -49.59610 -13.14962
#
# Velocity S-wave (km/s) = 3.10439 -4.52951 -2.33230
# Velocity P-wave (km/s) = 4.61002 3.33899 2.24760
#
# Compressibility (1/GPa) = 0.04923103
#
# Stress axis : x y z
#
# Youngs Moduli (GPa) = 33.86246 102.14345 44.81090
#
# Poissons Ratio (x) = 0.80468 -0.32371
# Poissons Ratio (y) = 0.26677 0.24866
# Poissons Ratio (z) = -0.24462 0.56681
#
# Static dielectric constant tensor:
#      x y z
#    x 2.003530 0.000000 -0.003810 
#    y 0.000000 1.998320 0.000000 
#    z -0.003810 0.000000 2.021090 
# 
# From -- ./inp_files/215564.got.cif
#   From: 2010.05.17/outbox.cif.g08.bks.cpg/sg15_108_cif.got.tgz:215564.got - 2010.06.03 18:47:42.
