data_PCOD9260616
_publ_section_title
;
Structure prediction by ZEFSAII (Michael W. Deem and Ramdas Pophale) SiO2 
 PCOD9260616
Probable space group: C 2/C
;
_chemical_formula_sum "Si O2"
_cell_formula_units_Z 60
_cell_length_a 20.126391
_cell_length_b 12.486590
_cell_length_c 13.278528
_cell_angle_alpha 90.000000
_cell_angle_beta 95.450479
_cell_angle_gamma 90.000000
_cell_volume 3321.938962
_symmetry_space_group_name_H-M "C 2/C"
_symmetry_group_IT_number 15
_symmetry_cell_setting 'monoclinic'
loop_
_space_group_symop_operation_xyz
x,y,z
-x,y,1/2-z
-x,-y,-z
x,-y,1/2+z
1/2+x,1/2+y,z
1/2-x,1/2+y,1/2-z
1/2-x,1/2-y,-z
1/2+x,1/2-y,1/2+z
loop_
_atom_site_type_symbol
_atom_site_label
_atom_site_fract_x
_atom_site_fract_y
_atom_site_fract_z
Si Si1 0.297309 0.194213 0.086271
Si Si2 0.475415 0.885653 0.130874
Si Si3 0.500000 0.271840 0.250000
Si Si4 0.257147 0.995854 0.215699
Si Si5 0.443922 0.128098 0.058384
Si Si6 0.781155 0.348339 0.892500
Si Si7 0.853832 0.170751 0.778014
Si Si8 0.168794 0.319876 0.384199
O O1 0.263590 0.094120 0.138811
O O2 0.365870 0.153630 0.047460
O O3 0.319450 0.280675 0.173251
O O4 0.250000 0.250000 0.000000
O O5 0.500000 0.886377 0.250000
O O6 0.409822 0.811802 0.117779
O O7 0.453788 0.005832 0.095843
O O8 0.525918 0.854117 0.048528
O O9 0.479201 0.199483 0.150484
O O10 0.567078 0.335466 0.228562
O O11 0.276495 0.047149 0.324844
O O12 0.185458 0.937801 0.202160
O O13 0.310564 0.903705 0.198230
O O14 0.834863 0.262142 0.857546
O O15 0.709794 0.288903 0.875363
O O16 0.800745 0.369311 0.009237
#
# Coordination Sequence:
#
# PCOD9260616 Si02
#       8
#     8   8   4   8   8   8   8   8
#     4  10  21  37  56  87 113 145 191 242 289 331
#     4  11  22  33  54  85 117 152 183 230 298 353
#     4  10  18  38  58  80 116 146 206 226 274 352
#     4  10  20  35  57  85 111 146 188 239 287 333
#     4  10  21  36  56  83 115 153 183 238 286 343
#     4   9  20  36  57  81 110 147 193 239 272 342
#     4   9  20  34  59  81 109 153 185 236 282 334
#     4  10  20  36  56  83 110 151 190 228 291 334
#
# _framework density 18.061738999999999
#
# number of rings (size 3 to 8) (size 9 to 14) (size 15 to 20)
#    0.000    2.133    2.000    0.800    1.867    5.333 
#    0.000    0.000    4.400    1.600    0.000    0.000 
#    0.000    0.000    0.000    0.000    0.000    0.000 
#
# Total GULP energy -167385.273462 kJ/mol
# GULP energy per Si atom -5579.509115 kJ/mol
# Density = 1.802063 g / cm^3
# Si number density = 18.061739 Si / 1000 Ang^3
#
#
#
# Elastic Constant Matrix: (Units=GPa)
#
#
# Indices 1 2 3 4 5 6 
#
# 1 140.7328 47.7697 43.6035 0.0000 -20.3582 0.0000
# 2 47.7697 47.7552 30.8522 0.0000 -0.7783 0.0000
# 3 43.6035 30.8522 92.3255 0.0000 -15.3609 0.0000
# 4 0.0000 0.0000 0.0000 18.3035 0.0000 -6.9450
# 5 -20.3582 -0.7783 -15.3609 0.0000 22.6451 0.0000
# 6 0.0000 0.0000 0.0000 -6.9450 0.0000 15.9168
#
#
#
# Elastic Compliance Matrix: (Units=1/GPa)
#
#
# Indices 1 2 3 4 5 6 
#
# 1 0.013156 -0.012990 0.000024 0.000000 0.011397 0.000000
# 2 -0.012990 0.040221 -0.010166 0.000000 -0.017191 0.000000
# 3 0.000024 -0.010166 0.015964 0.000000 0.010501 0.000000
# 4 0.000000 0.000000 0.000000 0.065474 0.000000 0.028569
# 5 0.011397 -0.017191 0.010501 0.000000 0.060938 0.000000
# 6 0.000000 0.000000 0.000000 0.028569 0.000000 0.075292
#
#
# Mechanical properties :
#
#
# Convention : Reuss Voigt Hill
#
# Bulk Modulus (GPa) = 43.33247 58.36272 50.84759
# Shear Modulus (GPa) = 15.38445 21.94563 18.66504
#
# Velocity S-wave (km/s) = 2.92168 3.48952 3.21814
# Velocity P-wave (km/s) = 5.95189 6.97271 6.48242
#
# Compressibility (1/GPa) = 0.02307739
#
# Stress axis : x y z
#
# Youngs Moduli (GPa) = 76.00974 24.86240 62.63905
#
# Poissons Ratio (x) = 0.32295 -0.00147
# Poissons Ratio (y) = 0.98734 0.63680
# Poissons Ratio (z) = -0.00179 0.25276
#
# Static dielectric constant tensor:
#      x y z
#    x 1.622550 0.000000 -0.028900 
#    y 0.000000 1.605540 0.000000 
#    z -0.028900 0.000000 1.640840 
# 
# From -- ./inp_files/160917.got.cif
#   From: 2010.05.17/outbox.cif.g08.bks.cpg/sg15_81_cif.got.tgz:160917.got - 2010.06.03 18:47:42.
