data_PCOD9260686
_publ_section_title
;
Structure prediction by ZEFSAII (Michael W. Deem and Ramdas Pophale) SiO2 
 PCOD9260686
Probable space group: C 2/C
;
_chemical_formula_sum "Si O2"
_cell_formula_units_Z 56
_cell_length_a 12.990559
_cell_length_b 12.503303
_cell_length_c 28.837378
_cell_angle_alpha 90.000000
_cell_angle_beta 31.692966
_cell_angle_gamma 90.000000
_cell_volume 2460.771667
_symmetry_space_group_name_H-M "C 2/C"
_symmetry_group_IT_number 15
_symmetry_cell_setting 'monoclinic'
loop_
_space_group_symop_operation_xyz
x,y,z
-x,y,1/2-z
-x,-y,-z
x,-y,1/2+z
1/2+x,1/2+y,z
1/2-x,1/2+y,1/2-z
1/2-x,1/2-y,-z
1/2+x,1/2-y,1/2+z
loop_
_atom_site_type_symbol
_atom_site_label
_atom_site_fract_x
_atom_site_fract_y
_atom_site_fract_z
Si Si1 0.479474 0.530525 0.430535
Si Si2 0.451442 0.387464 0.693028
Si Si3 0.799108 0.688313 0.919938
Si Si4 0.198476 0.457506 0.872276
Si Si5 0.149781 0.524083 0.152023
Si Si6 0.573369 0.164259 0.958975
Si Si7 0.250678 0.174159 0.455584
O O1 0.569114 0.544125 0.345573
O O2 0.288701 0.609136 0.506600
O O3 0.638397 0.558860 0.408821
O O4 0.418540 0.410414 0.465836
O O5 0.514312 0.267753 0.652383
O O6 0.272039 0.401535 0.797320
O O7 0.632658 0.433965 0.654183
O O8 0.835245 0.601381 0.865866
O O9 0.614844 0.767127 0.983494
O O10 0.157863 0.584372 0.888002
O O11 0.001987 0.406182 0.968353
O O12 0.098084 0.589450 0.125200
O O13 0.000000 0.543341 0.250000
O O14 0.726377 0.244842 0.922094
O O15 0.250000 0.250000 0.500000
#
# Coordination Sequence:
#
# PCOD9260686 Si02
#       7
#     8   8   8   8   8   8   8
#     4  11  21  42  62  98 131 167 222 270 321 400
#     4  10  21  37  62  97 126 163 213 275 318 383
#     4  10  20  39  69  88 126 175 213 260 335 391
#     4   9  21  36  58  92 130 163 213 261 326 392
#     4  11  24  42  64  96 129 170 227 273 316 391
#     4  10  18  38  61  84 124 177 206 256 328 390
#     4  11  22  40  65  90 126 177 216 258 334 394
#
# _framework density 22.757090000000002
#
# number of rings (size 3 to 8) (size 9 to 14) (size 15 to 20)
#    0.000    1.714    2.857    2.143    4.000    1.143 
#    5.143    5.714    0.000    0.000    0.000    0.000 
#    0.000    0.000    0.000    0.000    0.000    0.000 
#
# Total GULP energy -156031.464662 kJ/mol
# GULP energy per Si atom -5572.552309 kJ/mol
# Density = 2.270529 g / cm^3
# Si number density = 22.757090 Si / 1000 Ang^3
#
#
#
# Elastic Constant Matrix: (Units=GPa)
#
#
# Indices 1 2 3 4 5 6 
#
# 1 55.0024 22.0162 12.7737 0.0002 10.5011 -0.0001
# 2 22.0162 122.3805 33.4036 0.0005 1.5937 0.0001
# 3 12.7737 33.4036 100.9683 0.0013 21.4857 0.0001
# 4 0.0002 0.0005 0.0013 25.1973 -0.0004 10.5467
# 5 10.5011 1.5937 21.4857 -0.0004 26.5973 0.0001
# 6 -0.0001 0.0001 0.0001 10.5467 0.0001 31.7136
#
#
#
# Elastic Compliance Matrix: (Units=1/GPa)
#
#
# Indices 1 2 3 4 5 6 
#
# 1 0.021235 -0.003812 0.000375 0.000000 -0.008458 0.000000
# 2 -0.003812 0.009780 -0.003561 0.000000 0.003796 0.000000
# 3 0.000375 -0.003561 0.013309 -0.000001 -0.010685 0.000000
# 4 0.000000 0.000000 -0.000001 0.046104 0.000002 -0.015332
# 5 -0.008458 0.003796 -0.010685 0.000002 0.049342 -0.000001
# 6 0.000000 0.000000 0.000000 -0.015332 -0.000001 0.036631
#
#
# Mechanical properties :
#
#
# Convention : Reuss Voigt Hill
#
# Bulk Modulus (GPa) = 32.97499 46.08205 39.52852
# Shear Modulus (GPa) = 24.93694 30.71213 27.82454
#
# Velocity S-wave (km/s) = 3.31386 3.67763 3.50047
# Velocity P-wave (km/s) = 5.40034 6.19086 5.80906
#
# Compressibility (1/GPa) = 0.03032602
#
# Stress axis : x y z
#
# Youngs Moduli (GPa) = 47.09250 102.25422 75.13966
#
# Poissons Ratio (x) = 0.38982 -0.02815
# Poissons Ratio (y) = 0.17953 0.26756
# Poissons Ratio (z) = -0.01764 0.36411
#
# Static dielectric constant tensor:
#      x y z
#    x 1.895710 0.000000 -0.008450 
#    y 0.000000 1.889380 0.000000 
#    z -0.008450 0.000000 1.850830 
# 
# From -- ./inp_files/313718.got.cif
#   From: 2010.05.17/outbox.cif.g08.bks.cpg/sg15_157_cif.got.tgz:313718.got - 2010.06.03 18:47:42.
