data_PCOD9260390
_publ_section_title
;
Structure prediction by ZEFSAII (Michael W. Deem and Ramdas Pophale) SiO2 
 PCOD9260390
Probable space group: C 2/C
;
_chemical_formula_sum "Si O2"
_cell_formula_units_Z 56
_cell_length_a 22.957661
_cell_length_b 28.153716
_cell_length_c 9.925454
_cell_angle_alpha 90.000000
_cell_angle_beta 151.017829
_cell_angle_gamma 90.000000
_cell_volume 3108.429937
_symmetry_space_group_name_H-M "C 2/C"
_symmetry_group_IT_number 15
_symmetry_cell_setting 'monoclinic'
loop_
_space_group_symop_operation_xyz
x,y,z
-x,y,1/2-z
-x,-y,-z
x,-y,1/2+z
1/2+x,1/2+y,z
1/2-x,1/2+y,1/2-z
1/2-x,1/2-y,-z
1/2+x,1/2-y,1/2+z
loop_
_atom_site_type_symbol
_atom_site_label
_atom_site_fract_x
_atom_site_fract_y
_atom_site_fract_z
Si Si1 0.913443 0.295907 0.201040
Si Si2 0.584328 0.519304 0.791122
Si Si3 0.110422 0.347797 0.076753
Si Si4 0.431737 0.605548 0.906906
Si Si5 0.424879 0.282742 0.364362
Si Si6 0.817161 0.922034 0.462056
Si Si7 0.279869 0.754597 0.332885
O O1 0.927933 0.333568 0.349750
O O2 0.000000 0.307653 0.250000
O O3 0.957254 0.244644 0.346875
O O4 0.778377 0.286484 0.876647
O O5 0.500000 0.521925 0.750000
O O6 0.500000 0.500000 0.500000
O O7 0.619578 0.571609 0.813666
O O8 0.684039 0.479119 0.022071
O O9 0.197219 0.393293 0.250818
O O10 0.183685 0.301587 0.173007
O O11 0.000000 0.354311 0.750000
O O12 0.425673 0.660913 0.865105
O O13 0.360693 0.591639 0.899479
O O14 0.572206 0.594879 0.220065
O O15 0.324182 0.267933 0.270215
O O16 0.388861 0.263246 0.145433
#
# Coordination Sequence:
#
# PCOD9260390 Si02
#       7
#     8   8   8   8   8   8   8
#     4  10  22  37  56  79 124 162 196 248 284 327
#     4  10  18  37  60  88 116 136 177 251 310 351
#     4  12  22  38  58  83 119 163 205 233 273 359
#     4  10  19  35  61  87 117 143 188 243 305 354
#     4  10  19  35  54  84 116 157 196 231 290 346
#     4  10  20  35  61  86 111 154 193 231 300 357
#     4  10  20  34  55  79 118 158 198 239 278 330
#
# _framework density 18.015526000000001
#
# number of rings (size 3 to 8) (size 9 to 14) (size 15 to 20)
#    0.000    1.714    5.714    1.286    4.000    0.000 
#    7.714    0.000    0.000    0.857    0.000    3.000 
#    0.000    0.000    0.000    0.000    0.000    0.000 
#
# Total GULP energy -156195.311578 kJ/mol
# GULP energy per Si atom -5578.403985 kJ/mol
# Density = 1.797452 g / cm^3
# Si number density = 18.015526 Si / 1000 Ang^3
#
#
#
# Elastic Constant Matrix: (Units=GPa)
#
#
# Indices 1 2 3 4 5 6 
#
# 1 78.1021 43.4611 37.3902 0.0000 -14.9089 0.0000
# 2 43.4611 104.3128 23.6628 0.0000 -8.5491 0.0000
# 3 37.3902 23.6628 62.3780 0.0000 -11.0411 0.0000
# 4 0.0000 0.0000 0.0000 26.9263 0.0000 1.2292
# 5 -14.9089 -8.5491 -11.0411 0.0000 20.7384 0.0000
# 6 0.0000 0.0000 0.0000 1.2292 0.0000 13.6215
#
#
#
# Elastic Compliance Matrix: (Units=1/GPa)
#
#
# Indices 1 2 3 4 5 6 
#
# 1 0.022676 -0.006576 -0.009597 0.000000 0.008482 0.000000
# 2 -0.006576 0.012509 -0.000803 0.000000 0.000002 0.000000
# 3 -0.009597 -0.000803 0.022974 0.000000 0.005001 0.000000
# 4 0.000000 0.000000 0.000000 0.037292 0.000000 -0.003365
# 5 0.008482 0.000002 0.005001 0.000000 0.056981 0.000000
# 6 0.000000 0.000000 0.000000 -0.003365 0.000000 0.073717
#
#
# Mechanical properties :
#
#
# Convention : Reuss Voigt Hill
#
# Bulk Modulus (GPa) = 41.31006 50.42457 45.86731
# Shear Modulus (GPa) = 18.64500 21.60916 20.12708
#
# Velocity S-wave (km/s) = 3.22054 3.46710 3.34609
# Velocity P-wave (km/s) = 6.06706 6.63913 6.35953
#
# Compressibility (1/GPa) = 0.02420718
#
# Stress axis : x y z
#
# Youngs Moduli (GPa) = 44.09874 79.94473 43.52837
#
# Poissons Ratio (x) = 0.52570 0.41773
# Poissons Ratio (y) = 0.28999 0.03496
# Poissons Ratio (z) = 0.42320 0.06421
#
# Static dielectric constant tensor:
#      x y z
#    x 1.634890 0.000000 -0.010140 
#    y 0.000000 1.630410 0.000000 
#    z -0.010140 0.000000 1.623070 
# 
# From -- ./inp_files/59376.got.cif
#   From: 2010.05.17/outbox.cif.g08.bks.cpg/sg15_30_cif.got.tgz:59376.got - 2010.06.03 18:47:42.
