data_PCOD9260411
_publ_section_title
;
Structure prediction by ZEFSAII (Michael W. Deem and Ramdas Pophale) SiO2 
 PCOD9260411
Probable space group: C 2/C
;
_chemical_formula_sum "Si O2"
_cell_formula_units_Z 40
_cell_length_a 7.276108
_cell_length_b 16.352235
_cell_length_c 18.144421
_cell_angle_alpha 90.000000
_cell_angle_beta 54.502269
_cell_angle_gamma 90.000000
_cell_volume 1757.590397
_symmetry_space_group_name_H-M "C 2/C"
_symmetry_group_IT_number 15
_symmetry_cell_setting 'monoclinic'
loop_
_space_group_symop_operation_xyz
x,y,z
-x,y,1/2-z
-x,-y,-z
x,-y,1/2+z
1/2+x,1/2+y,z
1/2-x,1/2+y,1/2-z
1/2-x,1/2-y,-z
1/2+x,1/2-y,1/2+z
loop_
_atom_site_type_symbol
_atom_site_label
_atom_site_fract_x
_atom_site_fract_y
_atom_site_fract_z
Si Si1 0.259385 0.712947 0.812392
Si Si2 0.153800 0.994572 0.535986
Si Si3 0.016772 0.634643 0.007500
Si Si4 0.753975 0.077757 0.691141
Si Si5 0.280033 0.764918 0.403938
O O1 0.500000 0.755527 0.750000
O O2 0.178522 0.680370 0.910819
O O3 0.278673 0.632696 0.757450
O O4 0.040296 0.758221 0.831042
O O5 0.310935 0.917001 0.517673
O O6 0.329768 0.068708 0.488893
O O7 0.000000 0.000000 0.500000
O O8 0.961775 0.015664 0.640643
O O9 0.902677 0.702665 0.085060
O O10 0.500000 0.041932 0.750000
O O11 0.759188 0.145611 0.622576
O O12 0.250000 0.750000 0.500000
#
# Coordination Sequence:
#
# PCOD9260411 Si02
#       5
#     8   8   8   8   8
#     4  10  18  37  61  87 113 158 203 247 304 365
#     4  11  21  37  60  90 117 162 205 243 304 373
#     4  10  22  39  61  88 124 156 202 257 303 356
#     4  10  20  36  64  85 115 159 208 244 302 367
#     4   9  19  36  57  88 117 151 199 257 300 362
#
# _framework density 22.758431000000002
#
# number of rings (size 3 to 8) (size 9 to 14) (size 15 to 20)
#    0.000    2.000    2.000    3.600    0.000    0.800 
#    3.600    1.000   35.200    0.000    0.000    0.000 
#    0.000    0.000    0.000    0.000    0.000    0.000 
#
# Total GULP energy -111458.714877 kJ/mol
# GULP energy per Si atom -5572.935744 kJ/mol
# Density = 2.270663 g / cm^3
# Si number density = 22.758431 Si / 1000 Ang^3
#
#
#
# Elastic Constant Matrix: (Units=GPa)
#
#
# Indices 1 2 3 4 5 6 
#
# 1 115.6758 30.5589 40.3026 0.0000 -32.9297 0.0000
# 2 30.5589 64.0635 32.7522 0.0000 -26.8097 0.0000
# 3 40.3026 32.7522 93.3381 0.0000 -45.8048 0.0000
# 4 0.0000 0.0000 0.0000 31.8441 0.0000 -11.6072
# 5 -32.9297 -26.8097 -45.8048 0.0000 45.4062 0.0000
# 6 0.0000 0.0000 0.0000 -11.6072 0.0000 20.1091
#
#
#
# Elastic Compliance Matrix: (Units=1/GPa)
#
#
# Indices 1 2 3 4 5 6 
#
# 1 0.011297 -0.002438 -0.001403 0.000000 0.005339 0.000000
# 2 -0.002438 0.021560 -0.002244 0.000000 0.008698 0.000000
# 3 -0.001403 -0.002244 0.021700 0.000000 0.019548 0.000000
# 4 0.000000 0.000000 0.000000 0.039771 0.000000 0.022956
# 5 0.005339 0.008698 0.019548 0.000000 0.050751 0.000000
# 6 0.000000 0.000000 0.000000 0.022956 0.000000 0.062979
#
#
# Mechanical properties :
#
#
# Convention : Reuss Voigt Hill
#
# Bulk Modulus (GPa) = 23.59176 53.36717 38.47947
# Shear Modulus (GPa) = 21.33509 30.76946 26.05227
#
# Velocity S-wave (km/s) = 3.06512 3.68095 3.38706
# Velocity P-wave (km/s) = 4.78699 6.44718 5.67809
#
# Compressibility (1/GPa) = 0.04238767
#
# Stress axis : x y z
#
# Youngs Moduli (GPa) = 88.51635 46.38303 46.08288
#
# Poissons Ratio (x) = 0.11306 0.06465
# Poissons Ratio (y) = 0.21576 0.10342
# Poissons Ratio (z) = 0.12417 0.10410
#
# Static dielectric constant tensor:
#      x y z
#    x 1.981750 0.000000 0.030230 
#    y 0.000000 1.889690 0.000000 
#    z 0.030230 0.000000 1.982190 
# 
# From -- ./inp_files/232426.got.cif
#   From: 2010.05.17/outbox.cif.g08.bks.cpg/sg15_117_cif.got.tgz:232426.got - 2010.06.03 18:47:42.
