data_PCOD9260841
_publ_section_title
;
Structure prediction by ZEFSAII (Michael W. Deem and Ramdas Pophale) SiO2 
 PCOD9260841
Probable space group: C 2/C
;
_chemical_formula_sum "Si O2"
_cell_formula_units_Z 48
_cell_length_a 7.795780
_cell_length_b 18.692233
_cell_length_c 19.728087
_cell_angle_alpha 90.000000
_cell_angle_beta 53.647798
_cell_angle_gamma 90.000000
_cell_volume 2315.320916
_symmetry_space_group_name_H-M "C 2/C"
_symmetry_group_IT_number 15
_symmetry_cell_setting 'monoclinic'
loop_
_space_group_symop_operation_xyz
x,y,z
-x,y,1/2-z
-x,-y,-z
x,-y,1/2+z
1/2+x,1/2+y,z
1/2-x,1/2+y,1/2-z
1/2-x,1/2-y,-z
1/2+x,1/2-y,1/2+z
loop_
_atom_site_type_symbol
_atom_site_label
_atom_site_fract_x
_atom_site_fract_y
_atom_site_fract_z
Si Si1 0.523480 0.439834 0.823475
Si Si2 0.432717 0.601006 0.659642
Si Si3 0.932374 0.417639 0.510354
Si Si4 0.756096 0.689833 0.323475
Si Si5 0.786566 0.167639 0.010354
Si Si6 0.338358 0.851005 0.159641
O O1 0.500000 0.458102 0.750000
O O2 0.575682 0.515574 0.846092
O O3 0.305860 0.411577 0.907255
O O4 0.687424 0.375000 0.791718
O O5 0.495974 0.639092 0.574860
O O6 0.225722 0.625000 0.750001
O O7 0.634595 0.625001 0.660270
O O8 0.000000 0.500000 0.500000
O O9 0.091649 0.375000 0.522235
O O10 0.970554 0.389091 0.425141
O O11 0.722376 0.661578 0.407255
O O12 0.636042 0.765573 0.346091
O O13 0.000000 0.708102 0.250000
O O14 0.750000 0.250000 0.000000
#
# Coordination Sequence:
#
# PCOD9260841 Si02
#       6
#     8   8   8   8   8   8
#     4  12  24  40  64  98 129 164 213 273 317 371
#     4  10  18  38  66  85 122 170 215 243 309 385
#     4  11  20  38  66  92 120 171 214 249 308 386
#     4  12  24  40  64  98 129 164 213 273 317 371
#     4  11  20  38  66  92 120 171 214 249 308 386
#     4  10  18  38  66  85 122 170 215 243 309 385
#
# _framework density 20.731469000000001
#
# number of rings (size 3 to 8) (size 9 to 14) (size 15 to 20)
#    0.000    1.000   10.000    1.000    0.000    1.333 
#    0.000    0.000    0.000    0.000    0.000    0.000 
#    0.000    0.000    0.000    0.000    0.000    0.000 
#
# Total GULP energy -134030.171234 kJ/mol
# GULP energy per Si atom -5584.590468 kJ/mol
# Density = 2.068428 g / cm^3
# Si number density = 20.731469 Si / 1000 Ang^3
#
#
#
# Elastic Constant Matrix: (Units=GPa)
#
#
# Indices 1 2 3 4 5 6 
#
# 1 8.7029 12.4897 -1.0093 0.0000 0.0004 0.0000
# 2 12.4897 166.7250 21.5131 0.0000 0.0008 0.0000
# 3 -1.0093 21.5131 172.1138 0.0000 -0.0053 0.0000
# 4 0.0000 0.0000 0.0000 39.1145 0.0000 -0.0009
# 5 0.0004 0.0008 -0.0053 0.0000 15.3587 0.0000
# 6 0.0000 0.0000 0.0000 -0.0009 0.0000 20.7023
#
#
#
# Elastic Compliance Matrix: (Units=1/GPa)
#
#
# Indices 1 2 3 4 5 6 
#
# 1 0.129422 -0.009954 0.002003 0.000000 -0.000002 0.000000
# 2 -0.009954 0.006862 -0.000916 0.000000 0.000000 0.000000
# 3 0.002003 -0.000916 0.005936 0.000000 0.000002 0.000000
# 4 0.000000 0.000000 0.000000 0.025566 0.000000 0.000001
# 5 -0.000002 0.000000 0.000002 0.000000 0.065110 0.000000
# 6 0.000000 0.000000 0.000000 0.000001 0.000000 0.048304
#
#
# Mechanical properties :
#
#
# Convention : Reuss Voigt Hill
#
# Bulk Modulus (GPa) = 8.03298 45.94762 26.99030
# Shear Modulus (GPa) = 14.68738 36.00500 25.34619
#
# Velocity S-wave (km/s) = 2.66458 4.17193 3.50036
# Velocity P-wave (km/s) = 3.65374 6.73929 5.42069
#
# Compressibility (1/GPa) = 0.12448681
#
# Stress axis : x y z
#
# Youngs Moduli (GPa) = 7.72666 145.73529 168.45354
#
# Poissons Ratio (x) = 1.45061 -0.33743
# Poissons Ratio (y) = 0.07691 0.15431
# Poissons Ratio (z) = -0.01548 0.13350
#
# Static dielectric constant tensor:
#      x y z
#    x 1.826180 0.000000 0.000000 
#    y 0.000000 1.769010 0.000000 
#    z 0.000000 0.000000 1.782480 
# 
# From -- ./inp_files/208950.got.cif
#   From: 2010.05.17/outbox.cif.g08.bks.cpg/sg15_105_cif.got.tgz:208950.got - 2010.06.03 18:47:42.
