data_PCOD9260234
_publ_section_title
;
Structure prediction by ZEFSAII (Michael W. Deem and Ramdas Pophale) SiO2 
 PCOD9260234
Probable space group: C 2/C
;
_chemical_formula_sum "Si O2"
_cell_formula_units_Z 36
_cell_length_a 12.513216
_cell_length_b 13.761564
_cell_length_c 14.683211
_cell_angle_alpha 90.000000
_cell_angle_beta 137.537356
_cell_angle_gamma 90.000000
_cell_volume 1706.993672
_symmetry_space_group_name_H-M "C 2/C"
_symmetry_group_IT_number 15
_symmetry_cell_setting 'monoclinic'
loop_
_space_group_symop_operation_xyz
x,y,z
-x,y,1/2-z
-x,-y,-z
x,-y,1/2+z
1/2+x,1/2+y,z
1/2-x,1/2+y,1/2-z
1/2-x,1/2-y,-z
1/2+x,1/2-y,1/2+z
loop_
_atom_site_type_symbol
_atom_site_label
_atom_site_fract_x
_atom_site_fract_y
_atom_site_fract_z
Si Si1 0.487597 0.841448 0.465570
Si Si2 0.289378 0.951806 0.034944
Si Si3 0.124200 0.335266 0.903935
Si Si4 0.227821 0.291242 0.323208
Si Si5 0.000000 0.124785 0.250000
O O1 0.589222 0.917379 0.468827
O O2 0.456196 0.863199 0.550546
O O3 0.596816 0.744863 0.542324
O O4 0.322483 0.825559 0.308593
O O5 0.313372 0.874550 0.130616
O O6 0.307264 0.060436 0.082731
O O7 0.113535 0.937992 0.884640
O O8 0.000000 0.302526 0.750000
O O9 0.250000 0.250000 0.000000
O O10 0.116874 0.197779 0.270685
#
# Coordination Sequence:
#
# PCOD9260234 Si02
#       5
#     8   8   8   8   4
#     4  11  21  39  68  94 124 169 206 257 321 376
#     4  11  22  39  71  96 131 155 215 257 325 374
#     4  12  28  47  61  87 132 179 216 256 303 374
#     4  11  18  38  68 104 125 149 207 271 320 372
#     4  10  18  36  66 106 126 152 190 274 324 368
#
# _framework density 21.089708999999999
#
# number of rings (size 3 to 8) (size 9 to 14) (size 15 to 20)
#    0.000    0.889    4.444    4.667    1.556    0.000 
#    0.000    1.111    0.000    0.000    0.000    0.000 
#    0.000    0.000    0.000    0.000    0.000    0.000 
#
# Total GULP energy -100513.008327 kJ/mol
# GULP energy per Si atom -5584.056018 kJ/mol
# Density = 2.104171 g / cm^3
# Si number density = 21.089709 Si / 1000 Ang^3
#
#
#
# Elastic Constant Matrix: (Units=GPa)
#
#
# Indices 1 2 3 4 5 6 
#
# 1 42.8677 13.7713 22.4137 0.0000 -20.2705 0.0000
# 2 13.7713 113.9036 49.2392 0.0000 11.6341 0.0000
# 3 22.4137 49.2392 185.6410 0.0000 -13.2511 0.0001
# 4 0.0000 0.0000 0.0000 107.5732 0.0000 -74.7413
# 5 -20.2705 11.6341 -13.2511 0.0000 25.0734 0.0000
# 6 0.0000 0.0000 0.0001 -74.7413 0.0000 75.6137
#
#
#
# Elastic Compliance Matrix: (Units=1/GPa)
#
#
# Indices 1 2 3 4 5 6 
#
# 1 0.046448 -0.009942 0.000040 0.000000 0.042185 0.000000
# 2 -0.009942 0.013077 -0.003403 0.000000 -0.015904 0.000000
# 3 0.000040 -0.003403 0.006651 0.000000 0.005126 0.000000
# 4 0.000000 0.000000 0.000000 0.029679 0.000000 0.029336
# 5 0.042185 -0.015904 0.005126 0.000000 0.084076 0.000000
# 6 0.000000 0.000000 0.000000 0.029336 0.000000 0.042223
#
#
# Mechanical properties :
#
#
# Convention : Reuss Voigt Hill
#
# Bulk Modulus (GPa) = 25.27454 57.02895 41.15175
# Shear Modulus (GPa) = 19.08746 58.78460 38.93603
#
# Velocity S-wave (km/s) = 3.01169 5.28527 4.30142
# Velocity P-wave (km/s) = 4.90958 8.02155 6.65016
#
# Compressibility (1/GPa) = 0.03956551
#
# Stress axis : x y z
#
# Youngs Moduli (GPa) = 21.52938 76.46998 150.36384
#
# Poissons Ratio (x) = 0.76025 -0.00604
# Poissons Ratio (y) = 0.21404 0.51175
# Poissons Ratio (z) = -0.00086 0.26026
#
# Static dielectric constant tensor:
#      x y z
#    x 1.794600 0.000000 0.012720 
#    y 0.000000 1.771770 0.000000 
#    z 0.012720 0.000000 1.765710 
# 
# From -- ./inp_files/118150.got.cif
#   From: 2010.05.17/outbox.cif.g08.bks.cpg/sg15_60_cif.got.tgz:118150.got - 2010.06.03 18:47:42.
