data_PCOD9260010
_publ_section_title
;
Structure prediction by ZEFSAII (Michael W. Deem and Ramdas Pophale) SiO2 
 PCOD9260010
Probable space group: C 2/C
;
_chemical_formula_sum "Si O2"
_cell_formula_units_Z 52
_cell_length_a 19.481267
_cell_length_b 13.454316
_cell_length_c 21.068562
_cell_angle_alpha 90.000000
_cell_angle_beta 22.950431
_cell_angle_gamma 90.000000
_cell_volume 2153.304789
_symmetry_space_group_name_H-M "C 2/C"
_symmetry_group_IT_number 15
_symmetry_cell_setting 'monoclinic'
loop_
_space_group_symop_operation_xyz
x,y,z
-x,y,1/2-z
-x,-y,-z
x,-y,1/2+z
1/2+x,1/2+y,z
1/2-x,1/2+y,1/2-z
1/2-x,1/2-y,-z
1/2+x,1/2-y,1/2+z
loop_
_atom_site_type_symbol
_atom_site_label
_atom_site_fract_x
_atom_site_fract_y
_atom_site_fract_z
Si Si1 0.956463 0.439454 0.715946
Si Si2 0.778059 0.633415 0.844012
Si Si3 0.771244 0.924669 0.895689
Si Si4 0.079493 0.274668 0.522530
Si Si5 0.951710 0.118276 0.718590
Si Si6 0.980442 0.287199 0.462681
Si Si7 0.000000 0.763647 0.750000
O O1 0.126391 0.505986 0.551562
O O2 0.953701 0.348939 0.669665
O O3 0.000000 0.405539 0.750000
O O4 0.798799 0.518377 0.842468
O O5 0.590011 0.686288 0.010888
O O6 0.848093 0.661664 0.713983
O O7 0.926030 0.691234 0.759338
O O8 0.676253 0.865027 0.919908
O O9 0.840199 0.843661 0.887857
O O10 0.920628 0.999815 0.743671
O O11 0.264759 0.331008 0.363218
O O12 0.084274 0.171850 0.557525
O O13 0.011419 0.265604 0.509405
O O14 0.000000 0.141975 0.750000
#
# Coordination Sequence:
#
# PCOD9260010 Si02
#       7
#     8   8   8   8   8   8   4
#     4  10  21  36  57  91 113 154 191 249 287 342
#     4  10  21  35  63  86 122 149 199 235 296 347
#     4   9  21  36  62  84 120 149 196 236 301 349
#     4  11  24  40  61  82 128 152 200 238 289 352
#     4  11  22  41  63  87 109 162 199 250 283 340
#     4  10  22  39  57  93 116 164 186 236 295 357
#     4  10  18  36  60  90 118 146 186 254 284 346
#
# _framework density 24.148927
#
# number of rings (size 3 to 8) (size 9 to 14) (size 15 to 20)
#    0.000    1.846    1.538    1.846    2.154    9.846 
#    0.000    0.000    0.000    4.615    0.000    0.000 
#    0.000    0.000    0.000    0.000    0.000    0.000 
#
# Total GULP energy -145387.446263 kJ/mol
# GULP energy per Si atom -5591.824856 kJ/mol
# Density = 2.409396 g / cm^3
# Si number density = 24.148927 Si / 1000 Ang^3
#
#
#
# Elastic Constant Matrix: (Units=GPa)
#
#
# Indices 1 2 3 4 5 6 
#
# 1 142.7167 22.2959 -1.2632 0.0018 -2.3214 -0.0002
# 2 22.2959 124.0210 9.7854 0.0007 2.6815 -0.0007
# 3 -1.2632 9.7854 43.0214 -0.0011 -4.1056 -0.0006
# 4 0.0018 0.0007 -0.0011 48.1298 -0.0008 4.3503
# 5 -2.3214 2.6815 -4.1056 -0.0008 29.3796 0.0002
# 6 -0.0002 -0.0007 -0.0006 4.3503 0.0002 21.8791
#
#
#
# Elastic Compliance Matrix: (Units=1/GPa)
#
#
# Indices 1 2 3 4 5 6 
#
# 1 0.007238 -0.001365 0.000597 0.000000 0.000780 0.000000
# 2 -0.001365 0.008499 -0.002085 0.000000 -0.001175 0.000000
# 3 0.000597 -0.002085 0.024080 0.000001 0.003603 0.000000
# 4 0.000000 0.000000 0.000001 0.021157 0.000001 -0.004207
# 5 0.000780 -0.001175 0.003603 0.000001 0.034710 0.000000
# 6 0.000000 0.000000 0.000000 -0.004207 0.000000 0.046542
#
#
# Mechanical properties :
#
#
# Convention : Reuss Voigt Hill
#
# Bulk Modulus (GPa) = 29.31641 41.26615 35.29128
# Shear Modulus (GPa) = 31.38695 38.47377 34.93036
#
# Velocity S-wave (km/s) = 3.60908 3.99581 3.80736
# Velocity P-wave (km/s) = 5.43447 6.19790 5.82870
#
# Compressibility (1/GPa) = 0.03411059
#
# Stress axis : x y z
#
# Youngs Moduli (GPa) = 138.15688 117.66756 41.52840
#
# Poissons Ratio (x) = 0.16065 -0.02481
# Poissons Ratio (y) = 0.18862 0.08660
# Poissons Ratio (z) = -0.08255 0.24536
#
# Static dielectric constant tensor:
#      x y z
#    x 1.879880 0.000000 0.036700 
#    y 0.000000 1.923530 0.000000 
#    z 0.036700 0.000000 2.075370 
# 
# From -- ./inp_files/66126.got.cif
#   From: 2010.05.17/outbox.cif.g08.bks.cpg/sg15_34_cif.got.tgz:66126.got - 2010.06.03 18:47:42.
