data_PCOD9260505
_publ_section_title
;
Structure prediction by ZEFSAII (Michael W. Deem and Ramdas Pophale) SiO2 
 PCOD9260505
Probable space group: C 2/C
;
_chemical_formula_sum "Si O2"
_cell_formula_units_Z 44
_cell_length_a 15.185233
_cell_length_b 28.133528
_cell_length_c 8.041071
_cell_angle_alpha 90.000000
_cell_angle_beta 150.717823
_cell_angle_gamma 90.000000
_cell_volume 1680.223754
_symmetry_space_group_name_H-M "C 2/C"
_symmetry_group_IT_number 15
_symmetry_cell_setting 'monoclinic'
loop_
_space_group_symop_operation_xyz
x,y,z
-x,y,1/2-z
-x,-y,-z
x,-y,1/2+z
1/2+x,1/2+y,z
1/2-x,1/2+y,1/2-z
1/2-x,1/2-y,-z
1/2+x,1/2-y,1/2+z
loop_
_atom_site_type_symbol
_atom_site_label
_atom_site_fract_x
_atom_site_fract_y
_atom_site_fract_z
Si Si1 0.374753 0.789194 0.794489
Si Si2 0.100677 0.790214 0.592864
Si Si3 0.851136 0.519438 0.129112
Si Si4 0.732498 0.086048 0.998844
Si Si5 0.000000 0.852313 0.750000
Si Si6 0.816307 0.609130 0.228637
O O1 0.250000 0.750000 0.500000
O O2 0.307527 0.793044 0.873858
O O3 0.338166 0.841862 0.668152
O O4 0.565717 0.765920 0.072242
O O5 0.022724 0.818262 0.624299
O O6 0.000000 0.803215 0.250000
O O7 0.744172 0.470471 0.922732
O O8 0.737908 0.564052 0.002609
O O9 0.000000 0.540168 0.250000
O O10 0.000000 0.500000 0.500000
O O11 0.522145 0.095594 0.616001
O O12 0.781715 0.111530 0.254396
O O13 0.838843 0.110098 0.023048
#
# Coordination Sequence:
#
# PCOD9260505 Si02
#       6
#     8   8   8   8   4   8
#     4  10  22  42  63  91 134 165 217 273 322 386
#     4  10  24  43  62  94 132 169 221 270 317 394
#     4  10  18  37  64  95 123 158 215 267 306 377
#     4  10  21  39  65  98 128 166 218 262 319 404
#     4  12  24  42  68  92 140 174 206 272 342 376
#     4  10  20  40  67  91 127 169 219 266 318 385
#
# _framework density 26.186989000000001
#
# number of rings (size 3 to 8) (size 9 to 14) (size 15 to 20)
#    0.000    1.818    5.455    0.000    2.545    4.364 
#    9.818    0.909    6.000    0.000    0.000    0.000 
#    0.000    0.000    0.000    0.000    0.000    0.000 
#
# Total GULP energy -122534.988483 kJ/mol
# GULP energy per Si atom -5569.772204 kJ/mol
# Density = 2.612739 g / cm^3
# Si number density = 26.186989 Si / 1000 Ang^3
#
#
#
# Elastic Constant Matrix: (Units=GPa)
#
#
# Indices 1 2 3 4 5 6 
#
# 1 166.0257 45.2389 19.0254 0.0000 -0.3499 0.0000
# 2 45.2389 220.4993 8.5461 0.0000 -5.9587 0.0000
# 3 19.0254 8.5461 34.3776 0.0000 -1.9030 0.0000
# 4 0.0000 0.0000 0.0000 20.3207 0.0000 -5.8252
# 5 -0.3499 -5.9587 -1.9030 0.0000 33.7036 0.0000
# 6 0.0000 0.0000 0.0000 -5.8252 0.0000 48.6946
#
#
#
# Elastic Compliance Matrix: (Units=1/GPa)
#
#
# Indices 1 2 3 4 5 6 
#
# 1 0.006762 -0.001263 -0.003447 0.000000 -0.000348 0.000000
# 2 -0.001263 0.004834 -0.000458 0.000000 0.000816 0.000000
# 3 -0.003447 -0.000458 0.031201 0.000000 0.001645 0.000000
# 4 0.000000 0.000000 0.000000 0.050958 0.000000 0.006096
# 5 -0.000348 0.000816 0.001645 0.000000 0.029904 0.000000
# 6 0.000000 0.000000 0.000000 0.006096 0.000000 0.021265
#
#
# Mechanical properties :
#
#
# Convention : Reuss Voigt Hill
#
# Bulk Modulus (GPa) = 30.80603 62.94703 46.87653
# Shear Modulus (GPa) = 30.10581 43.74992 36.92787
#
# Velocity S-wave (km/s) = 3.39432 4.09182 3.75928
# Velocity P-wave (km/s) = 5.21069 6.81276 6.06486
#
# Compressibility (1/GPa) = 0.03246117
#
# Stress axis : x y z
#
# Youngs Moduli (GPa) = 147.89349 206.86493 32.04994
#
# Poissons Ratio (x) = 0.26128 0.11049
# Poissons Ratio (y) = 0.18680 0.01467
# Poissons Ratio (z) = 0.50983 0.09466
#
# Static dielectric constant tensor:
#      x y z
#    x 2.079180 0.000000 0.051110 
#    y 0.000000 2.183080 0.000000 
#    z 0.051110 0.000000 2.237870 
# 
# From -- ./inp_files/43711.got.cif
#   From: 2010.05.17/outbox.cif.g08.bks.cpg/sg15_22_cif.got.tgz:43711.got - 2010.06.03 18:47:42.
