data_PCOD9260040
_publ_section_title
;
Structure prediction by ZEFSAII (Michael W. Deem and Ramdas Pophale) SiO2 
 PCOD9260040
Probable space group: C 2/C
;
_chemical_formula_sum "Si O2"
_cell_formula_units_Z 56
_cell_length_a 13.406939
_cell_length_b 15.643986
_cell_length_c 14.500190
_cell_angle_alpha 90.000000
_cell_angle_beta 127.550354
_cell_angle_gamma 90.000000
_cell_volume 2411.150184
_symmetry_space_group_name_H-M "C 2/C"
_symmetry_group_IT_number 15
_symmetry_cell_setting 'monoclinic'
loop_
_space_group_symop_operation_xyz
x,y,z
-x,y,1/2-z
-x,-y,-z
x,-y,1/2+z
1/2+x,1/2+y,z
1/2-x,1/2+y,1/2-z
1/2-x,1/2-y,-z
1/2+x,1/2-y,1/2+z
loop_
_atom_site_type_symbol
_atom_site_label
_atom_site_fract_x
_atom_site_fract_y
_atom_site_fract_z
Si Si1 0.614154 0.776986 0.466363
Si Si2 0.944078 0.528460 0.810857
Si Si3 0.632770 0.090535 0.537297
Si Si4 0.257331 0.576022 0.112737
Si Si5 0.500000 0.246674 0.250000
Si Si6 0.559856 0.717887 0.977579
Si Si7 0.000000 0.181088 0.250000
Si Si8 0.721424 0.119326 0.306894
O O1 0.750000 0.750000 0.500000
O O2 0.641717 0.877355 0.495605
O O3 0.568764 0.736622 0.537807
O O4 0.502197 0.745447 0.337390
O O5 0.893567 0.583430 0.867729
O O6 0.830166 0.474323 0.699226
O O7 0.000000 0.569795 0.750000
O O8 0.026642 0.454763 0.912101
O O9 0.632661 0.190097 0.515286
O O10 0.747774 0.024585 0.592013
O O11 0.387793 0.617990 0.160796
O O12 0.239122 0.609251 0.207131
O O13 0.534061 0.302464 0.357466
O O14 0.615003 0.186084 0.280747
O O15 0.648503 0.649149 0.075558
#
# Coordination Sequence:
#
# PCOD9260040 Si02
#       8
#     8   8   8   8   4   8   4   8
#     4  10  20  36  60  90 128 163 213 260 321 380
#     4  10  18  36  61  86 121 159 207 265 313 371
#     4  10  21  37  59  89 129 162 209 265 324 382
#     4  10  20  39  62  91 130 176 209 269 328 385
#     4  12  22  38  60  90 126 168 212 264 322 364
#     4  12  22  39  60  97 131 167 217 270 322 391
#     4  10  20  38  62  94 130 170 212 268 332 392
#     4  11  20  35  61  88 125 165 213 262 320 370
#
# _framework density 23.225429999999999
#
# number of rings (size 3 to 8) (size 9 to 14) (size 15 to 20)
#    0.000    1.429    5.000    2.143    0.000    0.000 
#    5.143    0.714    0.000    0.000    0.000    8.000 
#    0.000    0.000    0.000    0.000    0.000    0.000 
#
# Total GULP energy -156132.725403 kJ/mol
# GULP energy per Si atom -5576.168764 kJ/mol
# Density = 2.317257 g / cm^3
# Si number density = 23.225430 Si / 1000 Ang^3
#
#
#
# Elastic Constant Matrix: (Units=GPa)
#
#
# Indices 1 2 3 4 5 6 
#
# 1 48.1541 20.4668 26.0343 0.0000 -3.0711 0.0000
# 2 20.4668 70.1016 33.8128 0.0000 3.0778 0.0000
# 3 26.0343 33.8128 111.4107 0.0000 -23.5373 0.0000
# 4 0.0000 0.0000 0.0000 34.8183 0.0000 6.9083
# 5 -3.0711 3.0778 -23.5373 0.0000 46.4640 0.0000
# 6 0.0000 0.0000 0.0000 6.9083 0.0000 21.5262
#
#
#
# Elastic Compliance Matrix: (Units=1/GPa)
#
#
# Indices 1 2 3 4 5 6 
#
# 1 0.025362 -0.005295 -0.004358 0.000000 -0.000180 0.000000
# 2 -0.005295 0.018551 -0.005293 0.000000 -0.004260 0.000000
# 3 -0.004358 -0.005293 0.013006 0.000000 0.006651 0.000000
# 4 0.000000 0.000000 0.000000 0.030674 0.000000 -0.009844
# 5 -0.000180 -0.004260 0.006651 0.000000 0.025161 0.000000
# 6 0.000000 0.000000 0.000000 -0.009844 0.000000 0.049614
#
#
# Mechanical properties :
#
#
# Convention : Reuss Voigt Hill
#
# Bulk Modulus (GPa) = 36.99941 43.36602 40.18271
# Shear Modulus (GPa) = 24.84267 30.51855 27.68061
#
# Velocity S-wave (km/s) = 3.27407 3.62887 3.45602
# Velocity P-wave (km/s) = 5.50072 6.02250 5.76751
#
# Compressibility (1/GPa) = 0.02702746
#
# Stress axis : x y z
#
# Youngs Moduli (GPa) = 39.42984 53.90591 76.89036
#
# Poissons Ratio (x) = 0.28542 0.33506
# Poissons Ratio (y) = 0.20877 0.40697
# Poissons Ratio (z) = 0.17182 0.28532
#
# Static dielectric constant tensor:
#      x y z
#    x 1.998810 0.000000 0.017030 
#    y 0.000000 1.897360 0.000000 
#    z 0.017030 0.000000 1.925760 
# 
# From -- ./inp_files/155262.got.cif
#   From: 2010.05.17/outbox.cif.g08.bks.cpg/sg15_78_cif.got.tgz:155262.got - 2010.06.03 18:47:42.
