data_PCOD9260247
_publ_section_title
;
Structure prediction by ZEFSAII (Michael W. Deem and Ramdas Pophale) SiO2 
 PCOD9260247
Probable space group: C 2/C
;
_chemical_formula_sum "Si O2"
_cell_formula_units_Z 60
_cell_length_a 31.626328
_cell_length_b 5.479989
_cell_length_c 21.965268
_cell_angle_alpha 90.000000
_cell_angle_beta 136.648579
_cell_angle_gamma 90.000000
_cell_volume 2613.288175
_symmetry_space_group_name_H-M "C 2/C"
_symmetry_group_IT_number 15
_symmetry_cell_setting 'monoclinic'
loop_
_space_group_symop_operation_xyz
x,y,z
-x,y,1/2-z
-x,-y,-z
x,-y,1/2+z
1/2+x,1/2+y,z
1/2-x,1/2+y,1/2-z
1/2-x,1/2-y,-z
1/2+x,1/2-y,1/2+z
loop_
_atom_site_type_symbol
_atom_site_label
_atom_site_fract_x
_atom_site_fract_y
_atom_site_fract_z
Si Si1 0.645456 0.699690 0.317365
Si Si2 0.663982 0.341845 0.636352
Si Si3 0.532885 0.933533 0.678217
Si Si4 0.611829 0.035341 0.480968
Si Si5 0.500000 0.431875 0.250000
Si Si6 0.383623 0.674926 0.821218
Si Si7 0.723094 0.063456 0.803966
Si Si8 0.873692 0.053707 0.071573
O O1 0.630193 0.499393 0.250595
O O2 0.658155 0.585858 0.396276
O O3 0.584361 0.870742 0.252599
O O4 0.702901 0.849198 0.349554
O O5 0.635044 0.111464 0.572079
O O6 0.613348 0.517376 0.614062
O O7 0.708828 0.471571 0.635702
O O8 0.707787 0.270913 0.738585
O O9 0.461772 0.002016 0.595039
O O10 0.530456 0.735269 0.729902
O O11 0.557883 0.826757 0.640366
O O12 0.627564 0.278790 0.457017
O O13 0.641239 0.790100 0.484902
O O14 0.446428 0.584037 0.163274
O O15 0.325078 0.851424 0.763613
#
# Coordination Sequence:
#
# PCOD9260247 Si02
#       8
#     8   8   8   8   4   8   8   8
#     4  10  20  38  66  95 126 163 228 260 313 380
#     4  11  23  44  64  94 121 170 219 273 315 391
#     4  10  20  37  60 102 126 174 203 262 316 383
#     4  11  27  38  66  95 143 169 207 255 340 378
#     4  10  18  36  66  88 136 170 222 246 300 392
#     4  10  21  38  66  93 120 163 219 271 307 372
#     4  10  22  40  71  88 116 168 230 275 316 368
#     4  11  22  41  61  98 132 178 206 264 310 393
#
# _framework density 22.959581
#
# number of rings (size 3 to 8) (size 9 to 14) (size 15 to 20)
#    0.000    1.600    2.667    2.400    5.600    1.067 
#    0.000    7.333    0.000    0.000    0.000    0.000 
#    0.000    0.000    0.000    0.000    0.000    0.000 
#
# Total GULP energy -167614.472383 kJ/mol
# GULP energy per Si atom -5587.149079 kJ/mol
# Density = 2.290732 g / cm^3
# Si number density = 22.959581 Si / 1000 Ang^3
#
#
#
# Elastic Constant Matrix: (Units=GPa)
#
#
# Indices 1 2 3 4 5 6 
#
# 1 142.2160 55.1034 30.6923 -0.0080 -9.0104 0.0220
# 2 55.1034 84.7270 12.8254 -0.0009 0.4514 0.0189
# 3 30.6923 12.8254 48.7016 -0.0142 -3.3270 0.0285
# 4 -0.0080 -0.0009 -0.0142 -80.2819 0.0001 171.8616
# 5 -9.0104 0.4514 -3.3270 0.0001 6.9364 0.0027
# 6 0.0220 0.0189 0.0285 171.8616 0.0027 -272.1597
#
#
#
# Elastic Compliance Matrix: (Units=1/GPa)
#
#
# Indices 1 2 3 4 5 6 
#
# 1 0.011511 -0.006869 -0.004542 0.000000 0.013221 0.000000
# 2 -0.006869 0.016432 -0.000704 -0.000004 -0.010330 -0.000002
# 3 -0.004542 -0.000704 0.023966 -0.000002 0.005641 0.000001
# 4 0.000000 -0.000004 -0.000002 0.035406 -0.000010 0.022358
# 5 0.013221 -0.010330 0.005641 -0.000010 0.164720 -0.000004
# 6 0.000000 -0.000002 0.000001 0.022358 -0.000004 0.010444
#
#
# Mechanical properties :
#
#
# Convention : Reuss Voigt Hill
#
# Bulk Modulus (GPa) = 36.12896 52.54297 44.33596
# Shear Modulus (GPa) = 16.89556 -57.29949 -20.20196
#
# Velocity S-wave (km/s) = 2.71566 -5.00109 -2.96952
# Velocity P-wave (km/s) = 5.05995 3.22694 2.75590
#
# Compressibility (1/GPa) = 0.02767863
#
# Stress axis : x y z
#
# Youngs Moduli (GPa) = 86.87256 60.85780 41.72493
#
# Poissons Ratio (x) = 0.41805 0.18952
# Poissons Ratio (y) = 0.59675 0.02937
# Poissons Ratio (z) = 0.39460 0.04283
#
# Static dielectric constant tensor:
#      x y z
#    x 1.911930 0.000000 -0.050360 
#    y 0.000000 1.905300 0.000000 
#    z -0.050360 0.000000 1.870540 
# 
# From -- ./inp_files/284076.got.cif
#   From: 2010.05.17/outbox.cif.g08.bks.cpg/sg15_143_cif.got.tgz:284076.got - 2010.06.03 18:47:42.
