data_PCOD9260291
_publ_section_title
;
Structure prediction by ZEFSAII (Michael W. Deem and Ramdas Pophale) SiO2 
 PCOD9260291
Probable space group: C 2/C
;
_chemical_formula_sum "Si O2"
_cell_formula_units_Z 48
_cell_length_a 10.775115
_cell_length_b 16.532538
_cell_length_c 20.535587
_cell_angle_alpha 90.000000
_cell_angle_beta 42.889533
_cell_angle_gamma 90.000000
_cell_volume 2489.729906
_symmetry_space_group_name_H-M "C 2/C"
_symmetry_group_IT_number 15
_symmetry_cell_setting 'monoclinic'
loop_
_space_group_symop_operation_xyz
x,y,z
-x,y,1/2-z
-x,-y,-z
x,-y,1/2+z
1/2+x,1/2+y,z
1/2-x,1/2+y,1/2-z
1/2-x,1/2-y,-z
1/2+x,1/2-y,1/2+z
loop_
_atom_site_type_symbol
_atom_site_label
_atom_site_fract_x
_atom_site_fract_y
_atom_site_fract_z
Si Si1 0.779541 0.369914 0.737821
Si Si2 0.824986 0.552313 0.549500
Si Si3 0.500000 0.533690 0.250000
Si Si4 0.279167 0.489701 0.046665
Si Si5 0.567082 0.219145 0.033755
Si Si6 0.500000 0.010930 0.250000
Si Si7 0.534265 0.640873 0.448597
O O1 0.631763 0.413532 0.747128
O O2 0.899515 0.434169 0.733958
O O3 0.665299 0.328817 0.840649
O O4 0.916001 0.314693 0.642729
O O5 0.643202 0.521785 0.655141
O O6 0.802774 0.536894 0.481825
O O7 0.871547 0.646318 0.537249
O O8 0.000000 0.500000 0.500000
O O9 0.144022 0.459844 0.154610
O O10 0.382882 0.563454 0.043818
O O11 0.366909 0.408832 0.982994
O O12 0.750000 0.250000 0.000000
O O13 0.493556 0.291061 0.016718
#
# Coordination Sequence:
#
# PCOD9260291 Si02
#       7
#     8   8   4   8   8   4   8
#     4  11  22  41  67  95 135 183 217 278 348 395
#     4  12  23  42  66  99 133 177 225 275 337 403
#     4  12  24  42  70  98 138 184 222 272 352 408
#     4  10  19  39  64  93 125 174 221 267 326 404
#     4  12  23  41  65 102 137 167 230 290 325 394
#     4  10  18  36  68  94 124 180 234 262 322 414
#     4  10  22  39  65  92 130 172 221 269 333 399
#
# _framework density 19.279199999999999
#
# number of rings (size 3 to 8) (size 9 to 14) (size 15 to 20)
#    0.000    1.000    6.667    1.000    0.000    1.333 
#    0.000    4.167    0.000    0.000    0.000    0.000 
#    0.000    0.000    0.000    0.000    0.000    0.000 
#
# Total GULP energy -133609.827797 kJ/mol
# GULP energy per Si atom -5567.076158 kJ/mol
# Density = 1.923532 g / cm^3
# Si number density = 19.279200 Si / 1000 Ang^3
#
#
#
# Elastic Constant Matrix: (Units=GPa)
#
#
# Indices 1 2 3 4 5 6 
#
# 1 53.2820 23.5922 9.3490 0.0000 2.8015 0.0000
# 2 23.5922 84.3594 51.0842 -0.0002 -5.6993 0.0002
# 3 9.3490 51.0842 157.2920 -0.0003 0.2100 0.0002
# 4 0.0000 -0.0002 -0.0003 38.4802 0.0001 4.0800
# 5 2.8015 -5.6993 0.2100 0.0001 26.3749 0.0000
# 6 0.0000 0.0002 0.0002 4.0800 0.0000 25.0435
#
#
#
# Elastic Compliance Matrix: (Units=1/GPa)
#
#
# Indices 1 2 3 4 5 6 
#
# 1 0.021884 -0.006964 0.000966 0.000000 -0.003837 0.000000
# 2 -0.006964 0.017252 -0.005195 0.000000 0.004509 0.000000
# 3 0.000966 -0.005195 0.007989 0.000000 -0.001289 0.000000
# 4 0.000000 0.000000 0.000000 0.026444 0.000000 -0.004308
# 5 -0.003837 0.004509 -0.001289 0.000000 0.039307 0.000000
# 6 0.000000 0.000000 0.000000 -0.004308 0.000000 0.040632
#
#
# Mechanical properties :
#
#
# Convention : Reuss Voigt Hill
#
# Bulk Modulus (GPa) = 40.42250 51.44270 45.93260
# Shear Modulus (GPa) = 27.15295 32.04026 29.59661
#
# Velocity S-wave (km/s) = 3.75695 4.08107 3.92236
# Velocity P-wave (km/s) = 6.31125 6.99627 6.66257
#
# Compressibility (1/GPa) = 0.02473870
#
# Stress axis : x y z
#
# Youngs Moduli (GPa) = 45.69551 57.96315 125.16994
#
# Poissons Ratio (x) = 0.40368 -0.12095
# Poissons Ratio (y) = 0.31825 0.65028
# Poissons Ratio (z) = -0.04415 0.30113
#
# Static dielectric constant tensor:
#      x y z
#    x 1.729250 0.000000 -0.073900 
#    y 0.000000 1.637560 0.000000 
#    z -0.073900 0.000000 1.739840 
# 
# From -- ./inp_files/143490.got.cif
#   From: 2010.05.17/outbox.cif.g08.bks.cpg/sg15_72_cif.got.tgz:143490.got - 2010.06.03 18:47:42.
