data_PCOD9260224
_publ_section_title
;
Structure prediction by ZEFSAII (Michael W. Deem and Ramdas Pophale) SiO2 
 PCOD9260224
Probable space group: C 2/C
;
_chemical_formula_sum "Si O2"
_cell_formula_units_Z 48
_cell_length_a 9.713560
_cell_length_b 11.826416
_cell_length_c 28.383432
_cell_angle_alpha 90.000000
_cell_angle_beta 36.597443
_cell_angle_gamma 90.000000
_cell_volume 1943.929356
_symmetry_space_group_name_H-M "C 2/C"
_symmetry_group_IT_number 15
_symmetry_cell_setting 'monoclinic'
loop_
_space_group_symop_operation_xyz
x,y,z
-x,y,1/2-z
-x,-y,-z
x,-y,1/2+z
1/2+x,1/2+y,z
1/2-x,1/2+y,1/2-z
1/2-x,1/2-y,-z
1/2+x,1/2-y,1/2+z
loop_
_atom_site_type_symbol
_atom_site_label
_atom_site_fract_x
_atom_site_fract_y
_atom_site_fract_z
Si Si1 0.234621 0.773614 0.155286
Si Si2 0.654244 0.121056 0.028213
Si Si3 0.472226 0.629493 0.639891
Si Si4 0.180036 0.826384 0.665865
Si Si5 0.058277 0.625271 0.814871
Si Si6 0.200989 0.948299 0.913375
O O1 0.385192 0.859510 0.145412
O O2 0.344437 0.653713 0.109616
O O3 0.000000 0.751719 0.250000
O O4 0.157230 0.826377 0.127181
O O5 0.392021 0.111141 0.082025
O O6 0.636585 0.092814 0.088014
O O7 0.750000 0.250000 0.000000
O O8 0.866250 0.062826 0.941722
O O9 0.322657 0.731050 0.656920
O O10 0.278047 0.575847 0.726770
O O11 0.000000 0.889169 0.750000
O O12 0.016457 0.753711 0.676943
O O13 0.847864 0.551144 0.853438
O O14 0.000000 0.000000 0.000000
#
# Coordination Sequence:
#
# PCOD9260224 Si02
#       6
#     8   8   8   8   8   8
#     4  10  22  42  67  91 131 176 209 271 340 375
#     4  10  18  36  65  87 120 171 204 256 327 381
#     4   9  18  39  66  85 123 178 206 256 331 381
#     4   9  17  34  63  89 119 169 205 253 326 387
#     4  10  23  39  65  96 125 166 222 268 318 398
#     4  12  24  39  64  97 129 165 219 272 325 400
#
# _framework density 24.692256
#
# number of rings (size 3 to 8) (size 9 to 14) (size 15 to 20)
#    0.000    2.000    3.333    2.000    0.000    4.000 
#    0.000    3.333    3.667    0.000    0.000    0.000 
#    0.000    0.000    0.000    0.000    0.000    0.000 
#
# Total GULP energy -133677.432239 kJ/mol
# GULP energy per Si atom -5569.893010 kJ/mol
# Density = 2.463606 g / cm^3
# Si number density = 24.692256 Si / 1000 Ang^3
#
#
#
# Elastic Constant Matrix: (Units=GPa)
#
#
# Indices 1 2 3 4 5 6 
#
# 1 74.5868 -1.0011 4.1936 -0.0009 12.0834 -0.0006
# 2 -1.0011 43.5534 9.8244 -0.0006 -1.0373 -0.0002
# 3 4.1936 9.8244 139.2136 -0.0014 -20.1574 -0.0003
# 4 -0.0009 -0.0006 -0.0014 9.5717 0.0004 2.1306
# 5 12.0834 -1.0373 -20.1574 0.0004 40.5002 0.0003
# 6 -0.0006 -0.0002 -0.0003 2.1306 0.0003 37.3761
#
#
#
# Elastic Compliance Matrix: (Units=1/GPa)
#
#
# Indices 1 2 3 4 5 6 
#
# 1 0.014260 0.000475 -0.001161 0.000001 -0.004820 0.000000
# 2 0.000475 0.023350 -0.001720 0.000001 -0.000400 0.000000
# 3 -0.001161 -0.001720 0.007957 0.000001 0.004263 0.000000
# 4 0.000001 0.000001 0.000001 0.105818 -0.000001 -0.006032
# 5 -0.004820 -0.000400 0.004263 -0.000001 0.028241 0.000000
# 6 0.000000 0.000000 0.000000 -0.006032 0.000000 0.027099
#
#
# Mechanical properties :
#
#
# Convention : Reuss Voigt Hill
#
# Bulk Modulus (GPa) = 24.53750 31.48749 28.01250
# Shear Modulus (GPa) = 22.21035 33.77871 27.99453
#
# Velocity S-wave (km/s) = 3.00240 3.70264 3.37075
# Velocity P-wave (km/s) = 4.68808 5.57307 5.14962
#
# Compressibility (1/GPa) = 0.04075395
#
# Stress axis : x y z
#
# Youngs Moduli (GPa) = 70.12750 42.82712 125.67941
#
# Poissons Ratio (x) = -0.02034 0.14591
# Poissons Ratio (y) = -0.03330 0.21617
# Poissons Ratio (z) = 0.08142 0.07366
#
# Static dielectric constant tensor:
#      x y z
#    x 2.028740 0.000000 0.012620 
#    y 0.000000 2.070510 0.000000 
#    z 0.012620 0.000000 2.076360 
# 
# From -- ./inp_files/288981.got.cif
#   From: 2010.05.17/outbox.cif.g08.bks.cpg/sg15_145_cif.got.tgz:288981.got - 2010.06.03 18:47:42.
