data_PCOD9260911
_publ_section_title
;
Structure prediction by ZEFSAII (Michael W. Deem and Ramdas Pophale) SiO2 
 PCOD9260911
Probable space group: C 2/C
;
_chemical_formula_sum "Si O2"
_cell_formula_units_Z 44
_cell_length_a 20.718416
_cell_length_b 8.263735
_cell_length_c 12.166810
_cell_angle_alpha 90.000000
_cell_angle_beta 58.441161
_cell_angle_gamma 90.000000
_cell_volume 1775.014169
_symmetry_space_group_name_H-M "C 2/C"
_symmetry_group_IT_number 15
_symmetry_cell_setting 'monoclinic'
loop_
_space_group_symop_operation_xyz
x,y,z
-x,y,1/2-z
-x,-y,-z
x,-y,1/2+z
1/2+x,1/2+y,z
1/2-x,1/2+y,1/2-z
1/2-x,1/2-y,-z
1/2+x,1/2-y,1/2+z
loop_
_atom_site_type_symbol
_atom_site_label
_atom_site_fract_x
_atom_site_fract_y
_atom_site_fract_z
Si Si1 0.368389 0.886312 0.730361
Si Si2 0.500000 0.744092 0.750000
Si Si3 0.229560 0.688949 0.895998
Si Si4 0.919297 0.875171 0.538236
Si Si5 0.818728 0.372680 0.442450
Si Si6 0.943200 0.761067 0.974478
O O1 0.427105 0.843435 0.775806
O O2 0.305215 0.747357 0.767642
O O3 0.421480 0.883374 0.577273
O O4 0.326680 0.041583 0.816548
O O5 0.529744 0.648542 0.617678
O O6 0.250000 0.750000 0.000000
O O7 0.159148 0.786022 0.910160
O O8 0.205635 0.505013 0.942347
O O9 0.967379 0.795775 0.594666
O O10 0.911717 0.067724 0.549424
O O11 0.750000 0.250000 0.500000
O O12 0.897159 0.285842 0.407205
#
# Coordination Sequence:
#
# PCOD9260911 Si02
#       6
#     8   4   8   8   8   8
#     4  10  22  41  65  96 135 182 221 281 348 394
#     4  10  18  38  70  90 130 186 222 268 350 388
#     4  10  19  37  64  91 132 183 218 282 334 396
#     4  10  20  40  68  97 135 178 229 282 337 400
#     4  11  23  39  66  96 138 179 228 279 335 409
#     4  10  23  40  67 101 135 173 231 278 336 414
#
# _framework density 24.788533999999999
#
# number of rings (size 3 to 8) (size 9 to 14) (size 15 to 20)
#    0.000    1.818    3.636    2.182    0.000    3.636 
#    0.000    0.909    0.000    0.000    0.000    0.000 
#    0.000    0.000    0.000    0.000    0.000    0.000 
#
# Total GULP energy -122932.655911 kJ/mol
# GULP energy per Si atom -5587.847996 kJ/mol
# Density = 2.473211 g / cm^3
# Si number density = 24.788534 Si / 1000 Ang^3
#
#
#
# Elastic Constant Matrix: (Units=GPa)
#
#
# Indices 1 2 3 4 5 6 
#
# 1 175.7953 66.4409 9.4816 0.0000 -25.8864 0.0000
# 2 66.4409 107.6062 23.9266 0.0000 -15.8428 0.0000
# 3 9.4816 23.9266 70.2731 0.0000 -13.9024 0.0000
# 4 0.0000 0.0000 0.0000 33.9091 0.0000 -7.2168
# 5 -25.8864 -15.8428 -13.9024 0.0000 34.0739 0.0000
# 6 0.0000 0.0000 0.0000 -7.2168 0.0000 54.4626
#
#
#
# Elastic Compliance Matrix: (Units=1/GPa)
#
#
# Indices 1 2 3 4 5 6 
#
# 1 0.008013 -0.004589 0.001374 0.000000 0.004515 0.000000
# 2 -0.004589 0.013097 -0.003617 0.000000 0.001127 0.000000
# 3 0.001374 -0.003617 0.016480 0.000000 0.006087 0.000000
# 4 0.000000 0.000000 0.000000 0.030346 0.000000 0.004021
# 5 0.004515 0.001127 0.006087 0.000000 0.035786 0.000000
# 6 0.000000 0.000000 0.000000 0.004021 0.000000 0.018894
#
#
# Mechanical properties :
#
#
# Convention : Reuss Voigt Hill
#
# Bulk Modulus (GPa) = 41.79213 61.48585 51.63899
# Shear Modulus (GPa) = 34.66077 41.41082 38.03579
#
# Velocity S-wave (km/s) = 3.74339 4.09169 3.92141
# Velocity P-wave (km/s) = 5.96489 6.86881 6.43275
#
# Compressibility (1/GPa) = 0.02392795
#
# Stress axis : x y z
#
# Youngs Moduli (GPa) = 124.79018 76.35534 60.67819
#
# Poissons Ratio (x) = 0.35037 -0.08340
# Poissons Ratio (y) = 0.57263 0.21947
# Poissons Ratio (z) = -0.17151 0.27617
#
# Static dielectric constant tensor:
#      x y z
#    x 1.986150 0.000000 -0.000960 
#    y 0.000000 2.031600 0.000000 
#    z -0.000960 0.000000 2.017320 
# 
# From -- ./inp_files/166087.got.cif
#   From: 2010.05.17/outbox.cif.g08.bks.cpg/sg15_84_cif.got.tgz:166087.got - 2010.06.03 18:47:42.
