data_PCOD9260757
_publ_section_title
;
Structure prediction by ZEFSAII (Michael W. Deem and Ramdas Pophale) SiO2 
 PCOD9260757
Probable space group: C 2/C
;
_chemical_formula_sum "Si O2"
_cell_formula_units_Z 64
_cell_length_a 19.265964
_cell_length_b 11.233177
_cell_length_c 13.597672
_cell_angle_alpha 90.000000
_cell_angle_beta 68.554476
_cell_angle_gamma 90.000000
_cell_volume 2739.039131
_symmetry_space_group_name_H-M "C 2/C"
_symmetry_group_IT_number 15
_symmetry_cell_setting 'monoclinic'
loop_
_space_group_symop_operation_xyz
x,y,z
-x,y,1/2-z
-x,-y,-z
x,-y,1/2+z
1/2+x,1/2+y,z
1/2-x,1/2+y,1/2-z
1/2-x,1/2-y,-z
1/2+x,1/2-y,1/2+z
loop_
_atom_site_type_symbol
_atom_site_label
_atom_site_fract_x
_atom_site_fract_y
_atom_site_fract_z
Si Si1 0.693375 0.765477 0.149377
Si Si2 0.441769 0.711492 0.560934
Si Si3 0.416714 0.563373 0.296203
Si Si4 0.397104 0.334785 0.445231
Si Si5 0.155322 0.991357 0.873247
Si Si6 0.413831 0.155455 0.273009
Si Si7 0.165646 0.619614 0.467299
Si Si8 0.680079 0.955551 0.289131
O O1 0.641754 0.660417 0.136387
O O2 0.774573 0.707075 0.118003
O O3 0.662437 0.821617 0.265495
O O4 0.690438 0.867507 0.067001
O O5 0.529078 0.687634 0.526917
O O6 0.394922 0.596270 0.554250
O O7 0.416840 0.747001 0.684453
O O8 0.415448 0.822793 0.508526
O O9 0.500000 0.611524 0.250000
O O10 0.414912 0.441408 0.358818
O O11 0.391551 0.543104 0.197892
O O12 0.336416 0.387543 0.550869
O O13 0.381958 0.218779 0.386949
O O14 0.234626 0.030624 0.789940
O O15 0.500000 0.122405 0.250000
O O16 0.369437 0.046291 0.249442
O O17 0.171382 0.495760 0.406493
#
# Coordination Sequence:
#
# PCOD9260757 Si02
#       8
#     8   8   8   8   8   8   8   8
#     4  11  24  41  62  92 125 168 206 254 321 370
#     4  10  18  38  63  87 121 159 208 250 309 378
#     4  12  24  40  61  96 133 159 207 268 315 371
#     4  11  22  37  63  94 124 163 203 262 320 373
#     4  12  22  34  60  95 126 158 199 264 322 364
#     4   9  20  41  65  82 116 167 213 252 304 368
#     4  10  22  41  66  88 120 173 212 249 309 380
#     4  11  24  42  63  90 125 164 211 259 300 382
#
# _framework density 23.365859
#
# number of rings (size 3 to 8) (size 9 to 14) (size 15 to 20)
#    0.000    1.250    5.000    1.500    3.500    1.000 
#    2.250    0.000    0.000    3.000    0.000    0.000 
#    0.000    0.000    0.000    0.000    0.000    0.000 
#
# Total GULP energy -178878.491183 kJ/mol
# GULP energy per Si atom -5589.952849 kJ/mol
# Density = 2.331268 g / cm^3
# Si number density = 23.365859 Si / 1000 Ang^3
#
#
#
# Elastic Constant Matrix: (Units=GPa)
#
#
# Indices 1 2 3 4 5 6 
#
# 1 80.8786 6.4691 -8.3315 0.0000 11.6709 0.0000
# 2 6.4691 45.0389 6.6894 0.0000 2.6809 0.0000
# 3 -8.3315 6.6894 35.8407 0.0000 13.5198 0.0000
# 4 0.0000 0.0000 0.0000 42.6454 0.0000 19.3262
# 5 11.6709 2.6809 13.5198 0.0000 20.8870 0.0000
# 6 0.0000 0.0000 0.0000 19.3262 0.0000 44.7915
#
#
#
# Elastic Compliance Matrix: (Units=1/GPa)
#
#
# Indices 1 2 3 4 5 6 
#
# 1 0.015717 -0.002827 0.009734 0.000000 -0.014720 0.000000
# 2 -0.002827 0.023345 -0.005927 0.000000 0.002420 0.000000
# 3 0.009734 -0.005927 0.043707 0.000000 -0.032968 0.000000
# 4 0.000000 0.000000 0.000000 0.029149 0.000000 -0.012577
# 5 -0.014720 0.002420 -0.032968 0.000000 0.077131 0.000000
# 6 0.000000 0.000000 0.000000 -0.012577 0.000000 0.027752
#
#
# Mechanical properties :
#
#
# Convention : Reuss Voigt Hill
#
# Bulk Modulus (GPa) = 11.80244 19.04580 15.42412
# Shear Modulus (GPa) = 20.56900 32.12686 26.34793
#
# Velocity S-wave (km/s) = 2.97021 3.71205 3.36166
# Velocity P-wave (km/s) = 4.10182 5.15182 4.65651
#
# Compressibility (1/GPa) = 0.08472824
#
# Stress axis : x y z
#
# Youngs Moduli (GPa) = 63.62490 42.83498 22.87989
#
# Poissons Ratio (x) = 0.12110 -0.22271
# Poissons Ratio (y) = 0.17987 0.13561
# Poissons Ratio (z) = -0.61931 0.25389
#
# Static dielectric constant tensor:
#      x y z
#    x 1.854170 0.000000 0.015200 
#    y 0.000000 1.907800 0.000000 
#    z 0.015200 0.000000 1.900240 
# 
# From -- ./inp_files/167636.got.cif
#   From: 2010.05.17/outbox.cif.g08.bks.cpg/sg15_84_cif.got.tgz:167636.got - 2010.06.03 18:47:42.
