data_PCOD9260917
_publ_section_title
;
Structure prediction by ZEFSAII (Michael W. Deem and Ramdas Pophale) SiO2 
 PCOD9260917
Probable space group: C 2/C
;
_chemical_formula_sum "Si O2"
_cell_formula_units_Z 56
_cell_length_a 13.538602
_cell_length_b 13.525269
_cell_length_c 21.200590
_cell_angle_alpha 90.000000
_cell_angle_beta 35.475380
_cell_angle_gamma 90.000000
_cell_volume 2252.993668
_symmetry_space_group_name_H-M "C 2/C"
_symmetry_group_IT_number 15
_symmetry_cell_setting 'monoclinic'
loop_
_space_group_symop_operation_xyz
x,y,z
-x,y,1/2-z
-x,-y,-z
x,-y,1/2+z
1/2+x,1/2+y,z
1/2-x,1/2+y,1/2-z
1/2-x,1/2-y,-z
1/2+x,1/2-y,1/2+z
loop_
_atom_site_type_symbol
_atom_site_label
_atom_site_fract_x
_atom_site_fract_y
_atom_site_fract_z
Si Si1 0.573927 0.629106 0.914132
Si Si2 0.616824 0.903682 0.820916
Si Si3 0.000000 0.104677 0.750000
Si Si4 0.526589 0.455370 0.850864
Si Si5 0.500000 0.067338 0.250000
Si Si6 0.606398 0.855000 0.329641
Si Si7 0.645034 0.203322 0.951121
Si Si8 0.211127 0.607637 0.576912
O O1 0.548475 0.516911 0.904955
O O2 0.395791 0.685102 0.007611
O O3 0.670771 0.648476 0.929059
O O4 0.708400 0.671514 0.793507
O O5 0.578759 0.875737 0.768226
O O6 0.477194 0.859957 0.939847
O O7 0.813528 0.882630 0.735319
O O8 0.603526 0.024023 0.832459
O O9 0.042461 0.032576 0.785968
O O10 0.161926 0.168547 0.645541
O O11 0.337892 0.412275 0.952873
O O12 0.363490 0.992544 0.352813
O O13 0.587446 0.814973 0.409307
O O14 0.450863 0.831228 0.363390
#
# Coordination Sequence:
#
# PCOD9260917 Si02
#       8
#     8   8   4   8   4   8   8   8
#     4  11  23  44  65  97 142 174 215 271 334 397
#     4  10  21  41  69 102 129 173 223 271 329 390
#     4  12  24  46  65  97 136 174 216 282 330 393
#     4  11  24  41  70 100 135 170 226 275 320 395
#     4  10  18  38  71  99 122 174 226 274 316 381
#     4  10  21  45  69  94 130 172 222 282 323 385
#     4  12  26  43  71  95 139 179 213 269 344 399
#     4  11  20  41  73  96 127 175 221 276 329 379
#
# _framework density 24.855817999999999
#
# number of rings (size 3 to 8) (size 9 to 14) (size 15 to 20)
#    0.000    1.143    7.143    2.571    2.000    2.286 
#    0.000    2.857    0.000    0.000    0.000    0.000 
#    0.000    0.000    0.000    0.000    0.000    0.000 
#
# Total GULP energy -156818.046456 kJ/mol
# GULP energy per Si atom -5600.644516 kJ/mol
# Density = 2.479925 g / cm^3
# Si number density = 24.855818 Si / 1000 Ang^3
#
#
#
# Elastic Constant Matrix: (Units=GPa)
#
#
# Indices 1 2 3 4 5 6 
#
# 1 120.0478 5.0430 51.6566 0.0000 -2.1170 0.0000
# 2 5.0430 43.6401 31.3738 -0.0001 8.2552 0.0001
# 3 51.6566 31.3738 194.2379 -0.0007 -15.9868 0.0003
# 4 0.0000 -0.0001 -0.0007 41.0551 0.0003 -7.6966
# 5 -2.1170 8.2552 -15.9868 0.0003 28.9816 -0.0001
# 6 0.0000 0.0001 0.0003 -7.6966 -0.0001 12.1727
#
#
#
# Elastic Compliance Matrix: (Units=1/GPa)
#
#
# Indices 1 2 3 4 5 6 
#
# 1 0.009466 0.001141 -0.002798 0.000000 -0.001177 0.000000
# 2 0.001141 0.029269 -0.005982 0.000000 -0.011553 0.000000
# 3 -0.002798 -0.005982 0.007314 0.000000 0.005534 0.000000
# 4 0.000000 0.000000 0.000000 0.027633 0.000000 0.017472
# 5 -0.001177 -0.011553 0.005534 0.000000 0.040762 0.000000
# 6 0.000000 0.000000 0.000000 0.017472 0.000000 0.093198
#
#
# Mechanical properties :
#
#
# Convention : Reuss Voigt Hill
#
# Bulk Modulus (GPa) = 32.49972 59.34138 45.92055
# Shear Modulus (GPa) = 21.44285 34.43204 27.93744
#
# Velocity S-wave (km/s) = 2.94034 3.72596 3.35622
# Velocity P-wave (km/s) = 4.96298 6.51433 5.79084
#
# Compressibility (1/GPa) = 0.03076949
#
# Stress axis : x y z
#
# Youngs Moduli (GPa) = 105.64668 34.16598 136.71938
#
# Poissons Ratio (x) = -0.03897 0.38260
# Poissons Ratio (y) = -0.12051 0.81784
# Poissons Ratio (z) = 0.29565 0.20438
#
# Static dielectric constant tensor:
#      x y z
#    x 1.975550 0.000000 -0.024460 
#    y 0.000000 2.009910 0.000000 
#    z -0.024460 0.000000 1.960980 
# 
# From -- ./inp_files/245152.got.cif
#   From: 2010.05.17/outbox.cif.g08.bks.cpg/sg15_123_cif.got.tgz:245152.got - 2010.06.03 18:47:42.
