data_PCOD9260233
_publ_section_title
;
Structure prediction by ZEFSAII (Michael W. Deem and Ramdas Pophale) SiO2 
 PCOD9260233
Probable space group: C 2/C
;
_chemical_formula_sum "Si O2"
_cell_formula_units_Z 52
_cell_length_a 12.954761
_cell_length_b 9.664090
_cell_length_c 18.317956
_cell_angle_alpha 90.000000
_cell_angle_beta 95.785871
_cell_angle_gamma 90.000000
_cell_volume 2281.651219
_symmetry_space_group_name_H-M "C 2/C"
_symmetry_group_IT_number 15
_symmetry_cell_setting 'monoclinic'
loop_
_space_group_symop_operation_xyz
x,y,z
-x,y,1/2-z
-x,-y,-z
x,-y,1/2+z
1/2+x,1/2+y,z
1/2-x,1/2+y,1/2-z
1/2-x,1/2-y,-z
1/2+x,1/2-y,1/2+z
loop_
_atom_site_type_symbol
_atom_site_label
_atom_site_fract_x
_atom_site_fract_y
_atom_site_fract_z
Si Si1 0.109477 0.242095 0.910470
Si Si2 0.387041 0.227215 0.851385
Si Si3 0.374616 0.021608 0.983824
Si Si4 0.000000 0.454833 0.250000
Si Si5 0.386948 0.540707 0.466585
Si Si6 0.861021 0.755220 0.408138
Si Si7 0.177049 0.308843 0.762338
O O1 0.128838 0.221415 0.826411
O O2 0.986478 0.245732 0.913251
O O3 0.151416 0.389278 0.944917
O O4 0.155151 0.125660 0.967158
O O5 0.354186 0.116221 0.910870
O O6 0.477846 0.147879 0.815503
O O7 0.411362 0.359139 0.901421
O O8 0.297858 0.287695 0.791938
O O9 0.331249 0.871477 0.958657
O O10 0.500000 0.000000 0.000000
O O11 0.896289 0.551993 0.237614
O O12 0.500000 0.500000 0.500000
O O13 0.329083 0.404215 0.435987
O O14 0.829279 0.734889 0.322003
#
# Coordination Sequence:
#
# PCOD9260233 Si02
#       7
#     8   8   8   4   8   8   8
#     4   9  18  37  62  93 131 186 240 289 365 428
#     4  11  25  42  71 104 138 190 251 293 368 448
#     4   9  17  36  66  94 131 188 242 292 358 444
#     4  12  24  50  70 108 150 194 236 314 372 424
#     4   9  21  39  62  95 143 186 237 305 362 431
#     4  10  18  36  65  97 138 189 236 294 364 425
#     4  12  23  40  74 105 139 190 249 300 366 444
#
# _framework density 22.790514000000002
#
# number of rings (size 3 to 8) (size 9 to 14) (size 15 to 20)
#    0.000    1.846    3.077    1.846    2.154    2.462 
#    5.538    0.000    3.385    2.769    0.000    0.000 
#    0.000    0.000    0.000    0.000    0.000    0.000 
#
# Total GULP energy -144945.939692 kJ/mol
# GULP energy per Si atom -5574.843834 kJ/mol
# Density = 2.273864 g / cm^3
# Si number density = 22.790514 Si / 1000 Ang^3
#
#
#
# Elastic Constant Matrix: (Units=GPa)
#
#
# Indices 1 2 3 4 5 6 
#
# 1 69.2268 28.8969 48.6691 0.0000 3.6051 0.0000
# 2 28.8969 171.3785 84.4430 0.0000 8.9502 0.0000
# 3 48.6691 84.4430 160.2345 0.0000 5.8049 0.0000
# 4 0.0000 0.0000 0.0000 18.3503 0.0000 -11.0610
# 5 3.6051 8.9502 5.8049 0.0000 40.6254 0.0000
# 6 0.0000 0.0000 0.0000 -11.0610 0.0000 5.2171
#
#
#
# Elastic Compliance Matrix: (Units=1/GPa)
#
#
# Indices 1 2 3 4 5 6 
#
# 1 0.018420 -0.000436 -0.005337 0.000000 -0.000776 0.000000
# 2 -0.000436 0.007946 -0.004014 0.000000 -0.001138 0.000000
# 3 -0.005337 -0.004014 0.009980 0.000000 -0.000068 0.000000
# 4 0.000000 0.000000 0.000000 -0.196048 0.000000 -0.415653
# 5 -0.000776 -0.001138 -0.000068 0.000000 0.024944 0.000000
# 6 0.000000 0.000000 0.000000 -0.415653 0.000000 -0.689573
#
#
# Mechanical properties :
#
#
# Convention : Reuss Voigt Hill
#
# Bulk Modulus (GPa) = 59.62289 80.53975 70.08132
# Shear Modulus (GPa) = -6.25651 28.76062 11.25206
#
# Velocity S-wave (km/s) = -1.65867 3.55626 2.22438
# Velocity P-wave (km/s) = 4.74867 7.23039 6.11671
#
# Compressibility (1/GPa) = 0.01677208
#
# Stress axis : x y z
#
# Youngs Moduli (GPa) = 54.28985 125.85525 100.20409
#
# Poissons Ratio (x) = 0.05482 0.53480
# Poissons Ratio (y) = 0.02365 0.40220
# Poissons Ratio (z) = 0.28975 0.50516
#
# Static dielectric constant tensor:
#      x y z
#    x 1.910160 0.000000 -0.004540 
#    y 0.000000 1.895140 0.000000 
#    z -0.004540 0.000000 1.702210 
# 
# From -- ./inp_files/209189.got.cif
#   From: 2010.05.17/outbox.cif.g08.bks.cpg/sg15_105_cif.got.tgz:209189.got - 2010.06.03 18:47:42.
