data_PCOD9260305
_publ_section_title
;
Structure prediction by ZEFSAII (Michael W. Deem and Ramdas Pophale) SiO2 
 PCOD9260305
Probable space group: C 2/C
;
_chemical_formula_sum "Si O2"
_cell_formula_units_Z 48
_cell_length_a 14.613457
_cell_length_b 18.806078
_cell_length_c 14.404137
_cell_angle_alpha 90.000000
_cell_angle_beta 143.669045
_cell_angle_gamma 90.000000
_cell_volume 2345.249505
_symmetry_space_group_name_H-M "C 2/C"
_symmetry_group_IT_number 15
_symmetry_cell_setting 'monoclinic'
loop_
_space_group_symop_operation_xyz
x,y,z
-x,y,1/2-z
-x,-y,-z
x,-y,1/2+z
1/2+x,1/2+y,z
1/2-x,1/2+y,1/2-z
1/2-x,1/2-y,-z
1/2+x,1/2-y,1/2+z
loop_
_atom_site_type_symbol
_atom_site_label
_atom_site_fract_x
_atom_site_fract_y
_atom_site_fract_z
Si Si1 0.330345 0.528671 0.847407
Si Si2 0.000000 0.116834 0.750000
Si Si3 0.428776 0.680111 0.890729
Si Si4 0.724667 0.508213 0.502135
Si Si5 0.283213 0.685101 0.234251
Si Si6 0.870993 0.457114 0.948202
Si Si7 0.000000 0.131495 0.250000
O O1 0.330501 0.612464 0.843897
O O2 0.283001 0.497351 0.710942
O O3 0.500000 0.500000 0.000000
O O4 0.235754 0.500810 0.857591
O O5 0.045494 0.165169 0.698144
O O6 0.135273 0.063344 0.897035
O O7 0.325073 0.747528 0.833610
O O8 0.593322 0.678227 0.080054
O O9 0.867102 0.530584 0.553973
O O10 0.609257 0.576528 0.396330
O O11 0.160657 0.621385 0.115206
O O12 0.394452 0.678307 0.233548
O O13 0.000000 0.500000 0.000000
#
# Coordination Sequence:
#
# PCOD9260305 Si02
#       7
#     8   4   8   8   8   8   4
#     4  12  19  41  70  93 119 170 223 266 320 387
#     4  11  20  38  70  96 119 174 222 256 323 394
#     4  12  25  41  66  97 133 173 215 268 326 392
#     4  10  18  36  70  95 118 162 224 268 316 380
#     4  11  25  43  63  96 137 173 216 269 327 391
#     4  11  24  41  64  96 132 164 216 282 321 374
#     4   9  18  40  64  92 125 170 212 270 319 374
#
# _framework density 20.466906000000002
#
# number of rings (size 3 to 8) (size 9 to 14) (size 15 to 20)
#    0.000    1.000    6.667    1.000    2.333    2.000 
#    0.000    1.667    0.000    0.000    0.000    0.000 
#    0.000    0.000    0.000    0.000    0.000    0.000 
#
# Total GULP energy -133786.860366 kJ/mol
# GULP energy per Si atom -5574.452515 kJ/mol
# Density = 2.042032 g / cm^3
# Si number density = 20.466906 Si / 1000 Ang^3
#
#
#
# Elastic Constant Matrix: (Units=GPa)
#
#
# Indices 1 2 3 4 5 6 
#
# 1 157.4070 62.4749 24.6427 0.0000 -20.0317 0.0000
# 2 62.4749 148.5021 4.9463 0.0000 -1.9410 0.0000
# 3 24.6427 4.9463 35.0061 0.0000 -15.6847 0.0000
# 4 0.0000 0.0000 0.0000 11.0989 0.0000 -0.9728
# 5 -20.0317 -1.9410 -15.6847 0.0000 29.8805 0.0000
# 6 0.0000 0.0000 0.0000 -0.9728 0.0000 31.1835
#
#
#
# Elastic Compliance Matrix: (Units=1/GPa)
#
#
# Indices 1 2 3 4 5 6 
#
# 1 0.008858 -0.003542 -0.004155 0.000000 0.003528 0.000000
# 2 -0.003542 0.008182 0.000669 0.000000 -0.001492 0.000000
# 3 -0.004155 0.000669 0.039445 0.000000 0.017964 0.000000
# 4 0.000000 0.000000 0.000000 0.090346 0.000000 0.002818
# 5 0.003528 -0.001492 0.017964 0.000000 0.045164 0.000000
# 6 0.000000 0.000000 0.000000 0.002818 0.000000 0.032156
#
#
# Mechanical properties :
#
#
# Convention : Reuss Voigt Hill
#
# Bulk Modulus (GPa) = 23.56836 58.33812 40.95324
# Shear Modulus (GPa) = 19.81366 31.02266 25.41816
#
# Velocity S-wave (km/s) = 3.11478 3.89748 3.52790
# Velocity P-wave (km/s) = 4.94734 6.98708 6.05374
#
# Compressibility (1/GPa) = 0.04242977
#
# Stress axis : x y z
#
# Youngs Moduli (GPa) = 112.88982 122.21469 25.35152
#
# Poissons Ratio (x) = 0.43290 0.10533
# Poissons Ratio (y) = 0.39987 -0.01696
# Poissons Ratio (z) = 0.46903 -0.08174
#
# Static dielectric constant tensor:
#      x y z
#    x 1.792140 0.000000 0.019740 
#    y 0.000000 1.729360 0.000000 
#    z 0.019740 0.000000 1.762740 
# 
# From -- ./inp_files/155106.got.cif
#   From: 2010.05.17/outbox.cif.g08.bks.cpg/sg15_78_cif.got.tgz:155106.got - 2010.06.03 18:47:42.
