data_PCOD9260565
_publ_section_title
;
Structure prediction by ZEFSAII (Michael W. Deem and Ramdas Pophale) SiO2 
 PCOD9260565
Probable space group: C 2/C
;
_chemical_formula_sum "Si O2"
_cell_formula_units_Z 56
_cell_length_a 14.875431
_cell_length_b 6.908555
_cell_length_c 21.364965
_cell_angle_alpha 90.000000
_cell_angle_beta 106.347318
_cell_angle_gamma 90.000000
_cell_volume 2106.866712
_symmetry_space_group_name_H-M "C 2/C"
_symmetry_group_IT_number 15
_symmetry_cell_setting 'monoclinic'
loop_
_space_group_symop_operation_xyz
x,y,z
-x,y,1/2-z
-x,-y,-z
x,-y,1/2+z
1/2+x,1/2+y,z
1/2-x,1/2+y,1/2-z
1/2-x,1/2-y,-z
1/2+x,1/2-y,1/2+z
loop_
_atom_site_type_symbol
_atom_site_label
_atom_site_fract_x
_atom_site_fract_y
_atom_site_fract_z
Si Si1 0.292013 0.439696 0.972433
Si Si2 0.629431 0.896610 0.082161
Si Si3 0.508416 0.315239 0.685726
Si Si4 0.152885 0.519247 0.209826
Si Si5 0.851785 0.485706 0.650233
Si Si6 0.001962 0.795088 0.380322
Si Si7 0.568863 0.225630 0.991663
O O1 0.343012 0.318687 0.927699
O O2 0.218763 0.557255 0.916285
O O3 0.250000 0.250000 0.000000
O O4 0.366188 0.592923 0.014645
O O5 0.514670 0.867182 0.067215
O O6 0.696440 0.987518 0.149252
O O7 0.634652 0.046009 0.025370
O O8 0.500000 0.424561 0.750000
O O9 0.502025 0.480980 0.634674
O O10 0.602717 0.190549 0.702583
O O11 0.428291 0.153285 0.672291
O O12 0.187562 0.554454 0.287118
O O13 0.078546 0.685575 0.176088
O O14 0.903569 0.301551 0.628484
O O15 0.980836 0.772334 0.450385
#
# Coordination Sequence:
#
# PCOD9260565 Si02
#       7
#     8   8   8   8   8   8   8
#     4  12  26  43  63  97 141 184 223 280 345 415
#     4  10  22  44  68  93 124 179 229 284 343 397
#     4   9  17  32  60  92 124 166 212 269 333 386
#     4   9  19  37  62  94 130 163 222 279 326 407
#     4  10  22  38  59  99 139 168 216 283 338 405
#     4  10  18  37  68  95 125 172 227 280 333 397
#     4  10  23  43  68  96 124 174 236 281 330 405
#
# _framework density 26.579754000000001
#
# number of rings (size 3 to 8) (size 9 to 14) (size 15 to 20)
#    0.000    2.000    0.000    4.286    0.000    4.000 
#    5.143    0.000    0.000    0.000    0.000    0.000 
#    0.000    0.000    0.000    0.000    0.000    0.000 
#
# Total GULP energy -156178.935193 kJ/mol
# GULP energy per Si atom -5577.819114 kJ/mol
# Density = 2.651926 g / cm^3
# Si number density = 26.579754 Si / 1000 Ang^3
#
#
#
# Elastic Constant Matrix: (Units=GPa)
#
#
# Indices 1 2 3 4 5 6 
#
# 1 24.6429 18.6031 26.2590 0.0000 -8.5195 0.0000
# 2 18.6031 122.8148 6.4041 0.0000 -10.2561 0.0000
# 3 26.2590 6.4041 155.7248 0.0000 -21.7599 0.0000
# 4 0.0000 0.0000 0.0000 40.5244 0.0000 -10.9026
# 5 -8.5195 -10.2561 -21.7599 0.0000 19.4763 0.0000
# 6 0.0000 0.0000 0.0000 -10.9026 0.0000 37.9617
#
#
#
# Elastic Compliance Matrix: (Units=1/GPa)
#
#
# Indices 1 2 3 4 5 6 
#
# 1 0.059085 -0.007440 -0.007813 0.000000 0.013198 0.000000
# 2 -0.007440 0.009468 0.001312 0.000000 0.003197 0.000000
# 3 -0.007813 0.001312 0.008655 0.000000 0.006943 0.000000
# 4 0.000000 0.000000 0.000000 0.026743 0.000000 0.007681
# 5 0.013198 0.003197 0.006943 0.000000 0.066559 0.000000
# 6 0.000000 0.000000 0.000000 0.007681 0.000000 0.028548
#
#
# Mechanical properties :
#
#
# Convention : Reuss Voigt Hill
#
# Bulk Modulus (GPa) = 20.27347 45.07945 32.67646
# Shear Modulus (GPa) = 20.54386 36.38688 28.46537
#
# Velocity S-wave (km/s) = 2.78315 3.70397 3.27608
# Velocity P-wave (km/s) = 4.23932 5.94049 5.16049
#
# Compressibility (1/GPa) = 0.04932554
#
# Stress axis : x y z
#
# Youngs Moduli (GPa) = 16.92491 105.62017 115.53602
#
# Poissons Ratio (x) = 0.78583 0.90267
# Poissons Ratio (y) = 0.12592 -0.15158
# Poissons Ratio (z) = 0.13223 -0.13857
#
# Static dielectric constant tensor:
#      x y z
#    x 2.364830 0.000000 -0.106550 
#    y 0.000000 1.993810 0.000000 
#    z -0.106550 0.000000 2.258400 
# 
# From -- ./inp_files/247988.got.cif
#   From: 2010.05.17/outbox.cif.g08.bks.cpg/sg15_124_cif.got.tgz:247988.got - 2010.06.03 18:47:42.
