data_PCOD9260117
_publ_section_title
;
Structure prediction by ZEFSAII (Michael W. Deem and Ramdas Pophale) SiO2 
 PCOD9260117
Probable space group: C 2/C
;
_chemical_formula_sum "Si O2"
_cell_formula_units_Z 60
_cell_length_a 17.562728
_cell_length_b 30.876794
_cell_length_c 4.968132
_cell_angle_alpha 90.000000
_cell_angle_beta 86.790730
_cell_angle_gamma 90.000000
_cell_volume 2689.897131
_symmetry_space_group_name_H-M "C 2/C"
_symmetry_group_IT_number 15
_symmetry_cell_setting 'monoclinic'
loop_
_space_group_symop_operation_xyz
x,y,z
-x,y,1/2-z
-x,-y,-z
x,-y,1/2+z
1/2+x,1/2+y,z
1/2-x,1/2+y,1/2-z
1/2-x,1/2-y,-z
1/2+x,1/2-y,1/2+z
loop_
_atom_site_type_symbol
_atom_site_label
_atom_site_fract_x
_atom_site_fract_y
_atom_site_fract_z
Si Si1 0.550298 0.113172 0.971693
Si Si2 0.294081 0.527445 0.597194
Si Si3 0.925463 0.170052 0.662012
Si Si4 0.143428 0.094324 0.520645
Si Si5 0.387004 0.972605 0.322290
Si Si6 0.714473 0.851573 0.611316
Si Si7 0.500000 0.399472 0.750000
Si Si8 0.734435 0.298341 0.408710
O O1 0.500000 0.106671 0.250000
O O2 0.629512 0.134835 0.047586
O O3 0.500000 0.136988 0.750000
O O4 0.575451 0.069233 0.813469
O O5 0.309678 0.513749 0.289455
O O6 0.340486 0.566772 0.714305
O O7 0.204091 0.535316 0.654305
O O8 0.887154 0.142571 0.907876
O O9 0.856692 0.195397 0.544749
O O10 0.000000 0.195217 0.750000
O O11 0.957569 0.132350 0.465533
O O12 0.227711 0.106738 0.394087
O O13 0.069648 0.075530 0.379345
O O14 0.406018 0.987422 0.619556
O O15 0.741412 0.814647 0.392646
O O16 0.721940 0.831043 0.902507
O O17 0.750000 0.250000 0.500000
#
# Coordination Sequence:
#
# PCOD9260117 Si02
#       8
#     8   8   8   8   8   8   4   8
#     4  12  25  41  63  92 129 173 221 267 313 376
#     4  10  22  36  57  86 122 160 207 255 316 371
#     4   9  20  36  62  94 124 156 204 261 300 358
#     4  10  20  37  63  88 119 163 207 252 309 361
#     4  10  21  38  58  87 122 163 213 272 322 361
#     4  11  23  43  66  92 127 168 208 257 307 380
#     4  10  18  36  62  92 118 148 214 252 302 350
#     4  11  23  42  69  99 125 165 205 250 311 387
#
# _framework density 22.305686999999999
#
# number of rings (size 3 to 8) (size 9 to 14) (size 15 to 20)
#    0.000    1.600    2.667    2.000    1.867    1.600 
#    0.000    2.667    0.000    0.000    0.000    0.000 
#    0.000    0.000    0.000    0.000    0.000    0.000 
#
# Total GULP energy -167511.605267 kJ/mol
# GULP energy per Si atom -5583.720176 kJ/mol
# Density = 2.225492 g / cm^3
# Si number density = 22.305687 Si / 1000 Ang^3
#
#
#
# Elastic Constant Matrix: (Units=GPa)
#
#
# Indices 1 2 3 4 5 6 
#
# 1 179.5846 38.1170 18.3409 0.0000 22.0626 0.0000
# 2 38.1170 46.8237 -17.3236 0.0000 3.6892 0.0000
# 3 18.3409 -17.3236 65.8886 0.0000 1.5835 0.0000
# 4 0.0000 0.0000 0.0000 17.8048 0.0000 2.5480
# 5 22.0626 3.6892 1.5835 0.0000 40.4177 0.0000
# 6 0.0000 0.0000 0.0000 2.5480 0.0000 24.2082
#
#
#
# Elastic Compliance Matrix: (Units=1/GPa)
#
#
# Indices 1 2 3 4 5 6 
#
# 1 0.008114 -0.007899 -0.004250 0.000000 -0.003542 0.000000
# 2 -0.007899 0.031583 0.010478 0.000000 0.001018 0.000000
# 3 -0.004250 0.010478 0.019100 0.000000 0.000615 0.000000
# 4 0.000000 0.000000 0.000000 0.057024 0.000000 -0.006002
# 5 -0.003542 0.001018 0.000615 0.000000 0.026558 0.000000
# 6 0.000000 0.000000 0.000000 -0.006002 0.000000 0.041940
#
#
# Mechanical properties :
#
#
# Convention : Reuss Voigt Hill
#
# Bulk Modulus (GPa) = 18.03235 41.17394 29.60314
# Shear Modulus (GPa) = 24.25459 33.36365 28.80912
#
# Velocity S-wave (km/s) = 3.30111 3.87168 3.59773
# Velocity P-wave (km/s) = 4.75726 6.20368 5.52798
#
# Compressibility (1/GPa) = 0.05545590
#
# Stress axis : x y z
#
# Youngs Moduli (GPa) = 123.24169 31.66236 52.35488
#
# Poissons Ratio (x) = 0.25010 0.22253
# Poissons Ratio (y) = 0.97346 -0.54858
# Poissons Ratio (z) = 0.52382 -0.33176
#
# Static dielectric constant tensor:
#      x y z
#    x 1.880320 0.000000 0.007950 
#    y 0.000000 1.828850 0.000000 
#    z 0.007950 0.000000 1.875440 
# 
# From -- ./inp_files/11555.got.cif
#   From: 2010.05.17/outbox.cif.g08.bks.cpg/sg15_6_cif.got.tgz:11555.got - 2010.06.03 18:47:42.
