data_PCOD9260340
_publ_section_title
;
Structure prediction by ZEFSAII (Michael W. Deem and Ramdas Pophale) SiO2 
 PCOD9260340
Probable space group: C 2/C
;
_chemical_formula_sum "Si O2"
_cell_formula_units_Z 60
_cell_length_a 33.414121
_cell_length_b 5.336760
_cell_length_c 17.077226
_cell_angle_alpha 90.000000
_cell_angle_beta 87.307432
_cell_angle_gamma 90.000000
_cell_volume 3041.902595
_symmetry_space_group_name_H-M "C 2/C"
_symmetry_group_IT_number 15
_symmetry_cell_setting 'monoclinic'
loop_
_space_group_symop_operation_xyz
x,y,z
-x,y,1/2-z
-x,-y,-z
x,-y,1/2+z
1/2+x,1/2+y,z
1/2-x,1/2+y,1/2-z
1/2-x,1/2-y,-z
1/2+x,1/2-y,1/2+z
loop_
_atom_site_type_symbol
_atom_site_label
_atom_site_fract_x
_atom_site_fract_y
_atom_site_fract_z
Si Si1 0.739081 0.905756 0.294741
Si Si2 0.270340 0.500819 0.462417
Si Si3 0.065656 0.489633 0.827078
Si Si4 0.442078 0.712843 0.507209
Si Si5 0.355139 0.563684 0.530997
Si Si6 0.492935 0.357739 0.608464
Si Si7 0.500000 0.672459 0.750000
Si Si8 0.349962 0.065166 0.636035
O O1 0.753282 0.631732 0.266343
O O2 0.762013 0.986163 0.371357
O O3 0.692072 0.891278 0.318437
O O4 0.250000 0.250000 0.500000
O O5 0.317154 0.514164 0.479579
O O6 0.250000 0.750000 0.500000
O O7 0.062479 0.396600 0.918253
O O8 0.040215 0.314139 0.773683
O O9 0.112443 0.524310 0.809629
O O10 0.039147 0.736014 0.830516
O O11 0.397751 0.627410 0.487035
O O12 0.465405 0.479088 0.543946
O O13 0.472243 0.802615 0.436534
O O14 0.359573 0.312584 0.583333
O O15 0.346156 0.810773 0.584765
O O16 0.513388 0.546528 0.666733
#
# Coordination Sequence:
#
# PCOD9260340 Si02
#       8
#     8   8   8   8   8   8   4   8
#     4  12  25  43  64  98 135 170 210 264 335 391
#     4  12  22  41  69  92 124 170 217 266 315 382
#     4  10  20  37  60  86 116 163 209 251 310 370
#     4   9  20  33  60  88 114 150 202 269 302 351
#     4  11  20  40  64  98 119 160 221 263 314 370
#     4  10  18  37  57  83 120 155 204 247 310 362
#     4  10  22  36  54  84 122 168 204 238 310 388
#     4  11  22  40  68  91 124 166 214 262 312 391
#
# _framework density 19.724499000000002
#
# number of rings (size 3 to 8) (size 9 to 14) (size 15 to 20)
#    0.000    1.333    4.000    2.400    0.000    0.000 
#    2.400    1.333    0.000    0.000    0.000    0.000 
#    0.000    0.000    0.000    0.000    0.000    0.000 
#
# Total GULP energy -167215.579376 kJ/mol
# GULP energy per Si atom -5573.852646 kJ/mol
# Density = 1.967961 g / cm^3
# Si number density = 19.724499 Si / 1000 Ang^3
#
#
#
# Elastic Constant Matrix: (Units=GPa)
#
#
# Indices 1 2 3 4 5 6 
#
# 1 97.1147 3.1116 36.4307 0.0000 12.7860 0.0000
# 2 3.1116 66.5623 -10.3913 0.0000 1.5643 0.0000
# 3 36.4307 -10.3913 28.8336 0.0000 18.6245 0.0000
# 4 0.0000 0.0000 0.0000 4.2888 0.0000 -9.3225
# 5 12.7860 1.5643 18.6245 0.0000 29.5228 0.0000
# 6 0.0000 0.0000 0.0000 -9.3225 0.0000 21.9429
#
#
#
# Elastic Compliance Matrix: (Units=1/GPa)
#
#
# Indices 1 2 3 4 5 6 
#
# 1 0.027201 -0.009848 -0.051720 0.000000 0.021369 0.000000
# 2 -0.009848 0.020543 0.030032 0.000000 -0.015769 0.000000
# 3 -0.051720 0.030032 0.164404 0.000000 -0.082907 0.000000
# 4 0.000000 0.000000 0.000000 3.047265 0.000000 1.294638
# 5 0.021369 -0.015769 -0.082907 0.000000 0.077755 0.000000
# 6 0.000000 0.000000 0.000000 1.294638 0.000000 0.595603
#
#
# Mechanical properties :
#
#
# Convention : Reuss Voigt Hill
#
# Bulk Modulus (GPa) = 6.70800 27.86808 17.28804
# Shear Modulus (GPa) = 1.23593 22.04154 11.63873
#
# Velocity S-wave (km/s) = 0.79244 3.34648 2.43176
# Velocity P-wave (km/s) = 2.06046 5.39363 4.08269
#
# Compressibility (1/GPa) = 0.14907563
#
# Stress axis : x y z
#
# Youngs Moduli (GPa) = 36.76348 48.67882 6.08258
#
# Poissons Ratio (x) = 0.47938 0.31459
# Poissons Ratio (y) = 0.36204 -0.18267
# Poissons Ratio (z) = 1.90140 -1.46191
#
# Static dielectric constant tensor:
#      x y z
#    x 1.777560 0.000000 -0.184620 
#    y 0.000000 1.780210 0.000000 
#    z -0.184620 0.000000 2.053720 
# 
# From -- ./inp_files/223650.got.cif
#   From: 2010.05.17/outbox.cif.g08.bks.cpg/sg15_112_cif.got.tgz:223650.got - 2010.06.03 18:47:42.
