data_PCOD9260949
_publ_section_title
;
Structure prediction by ZEFSAII (Michael W. Deem and Ramdas Pophale) SiO2 
 PCOD9260949
Probable space group: C 2/C
;
_chemical_formula_sum "Si O2"
_cell_formula_units_Z 24
_cell_length_a 24.687335
_cell_length_b 6.931868
_cell_length_c 17.289610
_cell_angle_alpha 90.000000
_cell_angle_beta 17.732916
_cell_angle_gamma 90.000000
_cell_volume 901.179933
_symmetry_space_group_name_H-M "C 2/C"
_symmetry_group_IT_number 15
_symmetry_cell_setting 'monoclinic'
loop_
_space_group_symop_operation_xyz
x,y,z
-x,y,1/2-z
-x,-y,-z
x,-y,1/2+z
1/2+x,1/2+y,z
1/2-x,1/2+y,1/2-z
1/2-x,1/2-y,-z
1/2+x,1/2-y,1/2+z
loop_
_atom_site_type_symbol
_atom_site_label
_atom_site_fract_x
_atom_site_fract_y
_atom_site_fract_z
Si Si1 0.479135 0.217641 0.863228
Si Si2 0.162830 0.620907 0.184851
Si Si3 0.720233 0.845683 0.333649
O O1 0.500000 0.304296 0.750000
O O2 0.640230 0.094614 0.682105
O O3 0.331832 0.043749 0.052505
O O4 0.393494 0.349496 0.045217
O O5 0.258751 0.675220 0.133199
O O6 0.956770 0.682294 0.476633
O O7 0.250000 0.750000 0.000000
#
# Coordination Sequence:
#
# PCOD9260949 Si02
#       3
#     8   8   8
#     4  10  21  39  59  84 118 149 192 236 288 335
#     4  10  18  39  61  85 113 156 189 234 288 339
#     4  10  21  36  62  83 117 151 191 238 283 341
#
# _framework density 26.631753
#
# number of rings (size 3 to 8) (size 9 to 14) (size 15 to 20)
#    2.000    0.000    3.333    2.000    0.000    1.333 
#    0.000    6.667    0.000    0.000    0.000    0.000 
#    0.000    0.000    0.000    0.000    0.000    0.000 
#
# Total GULP energy -67079.537050 kJ/mol
# GULP energy per Si atom -5589.961421 kJ/mol
# Density = 2.657114 g / cm^3
# Si number density = 26.631753 Si / 1000 Ang^3
#
#
#
# Elastic Constant Matrix: (Units=GPa)
#
#
# Indices 1 2 3 4 5 6 
#
# 1 95.6837 28.8257 -7.0905 0.0000 7.4502 0.0000
# 2 28.8257 61.4418 16.7401 0.0000 -1.9006 0.0000
# 3 -7.0905 16.7401 39.8973 0.0000 18.9372 0.0000
# 4 0.0000 0.0000 0.0000 61.4899 0.0000 -4.6984
# 5 7.4502 -1.9006 18.9372 0.0000 50.9233 0.0000
# 6 0.0000 0.0000 0.0000 -4.6984 0.0000 31.2759
#
#
#
# Elastic Compliance Matrix: (Units=1/GPa)
#
#
# Indices 1 2 3 4 5 6 
#
# 1 0.014492 -0.009551 0.009422 0.000000 -0.005980 0.000000
# 2 -0.009551 0.025486 -0.016400 0.000000 0.008448 0.000000
# 3 0.009422 -0.016400 0.041974 0.000000 -0.017600 0.000000
# 4 0.000000 0.000000 0.000000 0.016452 0.000000 0.002471
# 5 -0.005980 0.008448 -0.017600 0.000000 0.027372 0.000000
# 6 0.000000 0.000000 0.000000 0.002471 0.000000 0.032345
#
#
# Mechanical properties :
#
#
# Convention : Reuss Voigt Hill
#
# Bulk Modulus (GPa) = 20.45321 30.44149 25.44735
# Shear Modulus (GPa) = 24.09892 39.30767 31.70329
#
# Velocity S-wave (km/s) = 3.01141 3.84600 3.45401
# Velocity P-wave (km/s) = 4.44839 5.58370 5.04806
#
# Compressibility (1/GPa) = 0.04889207
#
# Stress axis : x y z
#
# Youngs Moduli (GPa) = 69.00230 39.23693 23.82452
#
# Poissons Ratio (x) = 0.37475 -0.22446
# Poissons Ratio (y) = 0.65904 0.39073
# Poissons Ratio (z) = -0.65011 0.64350
#
# Static dielectric constant tensor:
#      x y z
#    x 1.994920 0.000000 -0.056560 
#    y 0.000000 2.178140 0.000000 
#    z -0.056560 0.000000 2.100970 
# 
# From -- ./inp_files/26995.got.cif
#   From: 2010.05.17/outbox.cif.g08.bks.cpg/sg15_14_cif.got.tgz:26995.got - 2010.06.03 18:47:42.
