data_PCOD9260502
_publ_section_title
;
Structure prediction by ZEFSAII (Michael W. Deem and Ramdas Pophale) SiO2 
 PCOD9260502
Probable space group: C 2/C
;
_chemical_formula_sum "Si O2"
_cell_formula_units_Z 48
_cell_length_a 14.582281
_cell_length_b 9.730525
_cell_length_c 28.471720
_cell_angle_alpha 90.000000
_cell_angle_beta 33.217695
_cell_angle_gamma 90.000000
_cell_volume 2213.169150
_symmetry_space_group_name_H-M "C 2/C"
_symmetry_group_IT_number 15
_symmetry_cell_setting 'monoclinic'
loop_
_space_group_symop_operation_xyz
x,y,z
-x,y,1/2-z
-x,-y,-z
x,-y,1/2+z
1/2+x,1/2+y,z
1/2-x,1/2+y,1/2-z
1/2-x,1/2-y,-z
1/2+x,1/2-y,1/2+z
loop_
_atom_site_type_symbol
_atom_site_label
_atom_site_fract_x
_atom_site_fract_y
_atom_site_fract_z
Si Si1 0.678923 0.384561 0.175196
Si Si2 0.497361 0.289080 0.988530
Si Si3 0.283485 0.328246 0.239467
Si Si4 0.431511 0.800914 0.940164
Si Si5 0.572269 0.425449 0.867020
Si Si6 0.257542 0.060333 0.054581
O O1 0.500000 0.311386 0.250000
O O2 0.828897 0.289816 0.095581
O O3 0.696343 0.418256 0.221922
O O4 0.687692 0.506754 0.134483
O O5 0.523380 0.416775 0.942880
O O6 0.494410 0.278424 0.045968
O O7 0.347102 0.202931 0.028570
O O8 0.439610 0.232196 0.156777
O O9 0.291923 0.452950 0.198586
O O10 0.142271 0.217868 0.314534
O O11 0.250000 0.750000 0.000000
O O12 0.398044 0.956091 0.973090
O O13 0.398542 0.447315 0.913635
#
# Coordination Sequence:
#
# PCOD9260502 Si02
#       6
#     8   8   8   8   8   8
#     4  10  18  37  64  92 123 167 230 252 310 390
#     4  10  24  38  66  96 132 170 220 277 321 392
#     4  11  24  39  65  96 131 174 214 279 321 396
#     4  11  21  41  66  94 131 178 221 261 335 396
#     4  11  24  43  64  99 134 170 221 272 337 388
#     4  11  22  40  68  98 125 178 221 274 313 405
#
# _framework density 21.688355999999999
#
# number of rings (size 3 to 8) (size 9 to 14) (size 15 to 20)
#    0.000    1.333    3.333    3.500    7.000    0.667 
#    0.000    0.000    0.000    2.000    0.000    0.000 
#    0.000    0.000    0.000    0.000    0.000    0.000 
#
# Total GULP energy -133616.804432 kJ/mol
# GULP energy per Si atom -5567.366851 kJ/mol
# Density = 2.163899 g / cm^3
# Si number density = 21.688356 Si / 1000 Ang^3
#
#
#
# Elastic Constant Matrix: (Units=GPa)
#
#
# Indices 1 2 3 4 5 6 
#
# 1 46.4431 12.2214 30.0118 -0.0002 16.4292 0.0006
# 2 12.2214 71.7298 2.3586 -0.0001 -0.7263 0.0003
# 3 30.0118 2.3586 92.9288 0.0003 10.8953 -0.0008
# 4 -0.0002 -0.0001 0.0003 58.4064 0.0000 -30.0464
# 5 16.4292 -0.7263 10.8953 0.0000 38.4634 0.0000
# 6 0.0006 0.0003 -0.0008 -30.0464 0.0000 77.9076
#
#
#
# Elastic Compliance Matrix: (Units=1/GPa)
#
#
# Indices 1 2 3 4 5 6 
#
# 1 0.032979 -0.005435 -0.009153 0.000000 -0.011597 0.000000
# 2 -0.005435 0.014854 0.001110 0.000000 0.002288 0.000000
# 3 -0.009153 0.001110 0.013682 0.000000 0.000055 0.000000
# 4 0.000000 0.000000 0.000000 0.021359 0.000000 0.008237
# 5 -0.011597 0.002288 0.000055 0.000000 0.030980 0.000000
# 6 0.000000 0.000000 0.000000 0.008237 0.000000 0.016013
#
#
# Mechanical properties :
#
#
# Convention : Reuss Voigt Hill
#
# Bulk Modulus (GPa) = 28.93640 33.36504 31.15072
# Shear Modulus (GPa) = 29.70118 46.05614 37.87866
#
# Velocity S-wave (km/s) = 3.70463 4.61319 4.18365
# Velocity P-wave (km/s) = 5.62760 6.61760 6.14258
#
# Compressibility (1/GPa) = 0.03455855
#
# Stress axis : x y z
#
# Youngs Moduli (GPa) = 30.32216 67.32206 73.08670
#
# Poissons Ratio (x) = 0.36593 0.66898
# Poissons Ratio (y) = 0.16481 -0.08114
# Poissons Ratio (z) = 0.27755 -0.07474
#
# Static dielectric constant tensor:
#      x y z
#    x 1.847240 0.000000 0.045130 
#    y 0.000000 1.876420 0.000000 
#    z 0.045130 0.000000 1.807440 
# 
# From -- ./inp_files/295379.got.cif
#   From: 2010.05.17/outbox.cif.g08.bks.cpg/sg15_148_cif.got.tgz:295379.got - 2010.06.03 18:47:42.
