data_PCOD9260915
_publ_section_title
;
Structure prediction by ZEFSAII (Michael W. Deem and Ramdas Pophale) SiO2 
 PCOD9260915
Probable space group: C 2/C
;
_chemical_formula_sum "Si O2"
_cell_formula_units_Z 44
_cell_length_a 12.287918
_cell_length_b 13.694021
_cell_length_c 12.226215
_cell_angle_alpha 90.000000
_cell_angle_beta 85.022941
_cell_angle_gamma 90.000000
_cell_volume 2049.560427
_symmetry_space_group_name_H-M "C 2/C"
_symmetry_group_IT_number 15
_symmetry_cell_setting 'monoclinic'
loop_
_space_group_symop_operation_xyz
x,y,z
-x,y,1/2-z
-x,-y,-z
x,-y,1/2+z
1/2+x,1/2+y,z
1/2-x,1/2+y,1/2-z
1/2-x,1/2-y,-z
1/2+x,1/2-y,1/2+z
loop_
_atom_site_type_symbol
_atom_site_label
_atom_site_fract_x
_atom_site_fract_y
_atom_site_fract_z
Si Si1 0.883420 0.969891 0.457102
Si Si2 0.685617 0.346502 0.848297
Si Si3 0.389760 0.076010 0.190886
Si Si4 0.500000 0.476632 0.750000
Si Si5 0.124761 0.357305 0.264397
Si Si6 0.209631 0.360242 0.012379
O O1 0.825390 0.881660 0.525471
O O2 0.920566 0.956107 0.329570
O O3 0.804752 0.063504 0.473474
O O4 0.000000 0.000000 0.500000
O O5 0.791699 0.384908 0.775270
O O6 0.582629 0.403987 0.804538
O O7 0.676218 0.232205 0.825081
O O8 0.500000 0.090355 0.250000
O O9 0.383164 0.124479 0.071790
O O10 0.374172 0.960183 0.174347
O O11 0.000000 0.329714 0.250000
O O12 0.176648 0.375945 0.140529
O O13 0.250000 0.250000 0.000000
#
# Coordination Sequence:
#
# PCOD9260915 Si02
#       6
#     8   8   8   4   8   8
#     4  10  22  37  70 105 136 174 240 301 345 408
#     4  11  20  42  69 104 138 185 243 288 351 424
#     4  11  25  43  69 103 145 184 239 292 354 425
#     4  10  18  38  70  98 136 186 236 294 348 416
#     4  11  24  43  73 100 136 189 236 289 358 428
#     4  12  23  44  74 100 139 191 237 288 361 426
#
# _framework density 21.468017
#
# number of rings (size 3 to 8) (size 9 to 14) (size 15 to 20)
#    0.000    1.091    6.364    0.000    2.545    2.909 
#    0.000    2.727   10.000    0.000    0.000    0.000 
#    0.000    0.000    0.000    0.000    0.000    0.000 
#
# Total GULP energy -122923.800645 kJ/mol
# GULP energy per Si atom -5587.445484 kJ/mol
# Density = 2.141915 g / cm^3
# Si number density = 21.468017 Si / 1000 Ang^3
#
#
#
# Elastic Constant Matrix: (Units=GPa)
#
#
# Indices 1 2 3 4 5 6 
#
# 1 86.7664 40.6233 8.3207 0.0000 0.6768 0.0000
# 2 40.6233 127.7673 53.6941 0.0000 13.1306 0.0000
# 3 8.3207 53.6941 113.8670 0.0000 -8.1730 0.0000
# 4 0.0000 0.0000 0.0000 -0.8805 0.0000 -3.5817
# 5 0.6768 13.1306 -8.1730 0.0000 36.6200 0.0000
# 6 0.0000 0.0000 0.0000 -3.5817 0.0000 19.1135
#
#
#
# Elastic Compliance Matrix: (Units=1/GPa)
#
#
# Indices 1 2 3 4 5 6 
#
# 1 0.013828 -0.005286 0.001626 0.000000 0.002003 0.000000
# 2 -0.005286 0.012609 -0.005973 0.000000 -0.005756 0.000000
# 3 0.001626 -0.005973 0.011821 0.000000 0.004750 0.000000
# 4 0.000000 0.000000 0.000000 -0.644484 0.000000 -0.120770
# 5 0.002003 -0.005756 0.004750 0.000000 0.030395 0.000000
# 6 0.000000 0.000000 0.000000 -0.120770 0.000000 0.029688
#
#
# Mechanical properties :
#
#
# Convention : Reuss Voigt Hill
#
# Bulk Modulus (GPa) = 52.65182 59.29745 55.97464
# Shear Modulus (GPa) = -9.60528 26.02144 8.20808
#
# Velocity S-wave (km/s) = -2.11753 3.48530 1.95747
# Velocity P-wave (km/s) = 4.31281 6.62403 5.58919
#
# Compressibility (1/GPa) = 0.01899270
#
# Stress axis : x y z
#
# Youngs Moduli (GPa) = 72.31494 79.30902 84.59723
#
# Poissons Ratio (x) = 0.41920 -0.13753
# Poissons Ratio (y) = 0.38224 0.50527
# Poissons Ratio (z) = -0.11756 0.47369
#
# Static dielectric constant tensor:
#      x y z
#    x 1.779990 0.000000 0.031380 
#    y 0.000000 1.742530 0.000000 
#    z 0.031380 0.000000 1.824990 
# 
# From -- ./inp_files/86114.got.cif
#   From: 2010.05.17/outbox.cif.g08.bks.cpg/sg15_44_cif.got.tgz:86114.got - 2010.06.03 18:47:42.
