data_PCOD9260395
_publ_section_title
;
Structure prediction by ZEFSAII (Michael W. Deem and Ramdas Pophale) SiO2 
 PCOD9260395
Probable space group: C 2/C
;
_chemical_formula_sum "Si O2"
_cell_formula_units_Z 64
_cell_length_a 22.752384
_cell_length_b 9.852674
_cell_length_c 18.346632
_cell_angle_alpha 90.000000
_cell_angle_beta 132.072979
_cell_angle_gamma 90.000000
_cell_volume 3052.896733
_symmetry_space_group_name_H-M "C 2/C"
_symmetry_group_IT_number 15
_symmetry_cell_setting 'monoclinic'
loop_
_space_group_symop_operation_xyz
x,y,z
-x,y,1/2-z
-x,-y,-z
x,-y,1/2+z
1/2+x,1/2+y,z
1/2-x,1/2+y,1/2-z
1/2-x,1/2-y,-z
1/2+x,1/2-y,1/2+z
loop_
_atom_site_type_symbol
_atom_site_label
_atom_site_fract_x
_atom_site_fract_y
_atom_site_fract_z
Si Si1 0.544230 0.004702 0.928701
Si Si2 0.411131 0.176217 0.664851
Si Si3 0.824502 0.866727 0.481704
Si Si4 0.558471 0.714344 0.530887
Si Si5 0.184736 0.337593 0.268231
Si Si6 0.745454 0.651689 0.064261
Si Si7 0.869416 0.378609 0.785805
Si Si8 0.111549 0.245884 0.063182
O O1 0.579163 0.043221 0.878548
O O2 0.457777 0.938257 0.849413
O O3 0.541356 0.146785 0.970227
O O4 0.592802 0.897323 0.016947
O O5 0.500000 0.231199 0.750000
O O6 0.354940 0.276313 0.573070
O O7 0.376982 0.156803 0.716421
O O8 0.900774 0.887525 0.492351
O O9 0.764436 0.794930 0.375248
O O10 0.774803 0.994695 0.469712
O O11 0.617830 0.760764 0.644606
O O12 0.474029 0.677110 0.495328
O O13 0.185961 0.492548 0.238801
O O14 0.154860 0.248867 0.177033
O O15 0.826301 0.668900 0.176907
O O16 0.671820 0.686689 0.055181
O O17 0.750000 0.750000 0.000000
#
# Coordination Sequence:
#
# PCOD9260395 Si02
#       8
#     8   8   8   8   8   8   8   8
#     4  10  19  35  67 100 122 156 203 274 325 385
#     4  11  21  37  63  97 129 166 212 270 326 389
#     4  10  24  40  60  87 131 172 211 271 320 389
#     4  10  18  39  65  99 123 149 212 269 333 384
#     4  11  19  36  60  96 129 161 205 256 333 385
#     4  11  27  44  57  84 132 178 223 265 317 396
#     4  10  18  37  60  93 129 154 205 261 322 389
#     4  11  21  38  65  92 126 167 211 267 328 393
#
# _framework density 20.963695999999999
#
# number of rings (size 3 to 8) (size 9 to 14) (size 15 to 20)
#    0.000    1.500    3.750    2.625    3.500    0.500 
#    0.000    3.750    0.000    0.000    0.000    0.000 
#    0.000    0.000    0.000    0.000    0.000    0.000 
#
# Total GULP energy -178580.817353 kJ/mol
# GULP energy per Si atom -5580.650542 kJ/mol
# Density = 2.091598 g / cm^3
# Si number density = 20.963696 Si / 1000 Ang^3
#
#
#
# Elastic Constant Matrix: (Units=GPa)
#
#
# Indices 1 2 3 4 5 6 
#
# 1 82.4246 14.7985 19.3838 0.0000 -11.3151 0.0000
# 2 14.7985 40.9107 31.5079 0.0000 -3.4633 0.0000
# 3 19.3838 31.5079 146.7295 0.0000 -0.4461 0.0000
# 4 0.0000 0.0000 0.0000 18.3776 0.0000 -8.2479
# 5 -11.3151 -3.4633 -0.4461 0.0000 31.2891 0.0000
# 6 0.0000 0.0000 0.0000 -8.2479 0.0000 24.4218
#
#
#
# Elastic Compliance Matrix: (Units=1/GPa)
#
#
# Indices 1 2 3 4 5 6 
#
# 1 0.013664 -0.003812 -0.000973 0.000000 0.004505 0.000000
# 2 -0.003812 0.030665 -0.006075 0.000000 0.001929 0.000000
# 3 -0.000973 -0.006075 0.008246 0.000000 -0.000907 0.000000
# 4 0.000000 0.000000 0.000000 0.064135 0.000000 0.021660
# 5 0.004505 0.001929 -0.000907 0.000000 0.033790 0.000000
# 6 0.000000 0.000000 0.000000 0.021660 0.000000 0.048262
#
#
# Mechanical properties :
#
#
# Convention : Reuss Voigt Hill
#
# Bulk Modulus (GPa) = 32.41068 44.60500 38.50784
# Shear Modulus (GPa) = 21.66694 28.44268 25.05481
#
# Velocity S-wave (km/s) = 3.21837 3.68742 3.46085
# Velocity P-wave (km/s) = 5.41336 6.28115 5.86333
#
# Compressibility (1/GPa) = 0.03085403
#
# Stress axis : x y z
#
# Youngs Moduli (GPa) = 73.18507 32.61082 121.27680
#
# Poissons Ratio (x) = 0.12431 0.11798
# Poissons Ratio (y) = 0.27898 0.73679
# Poissons Ratio (z) = 0.07120 0.19812
#
# Static dielectric constant tensor:
#      x y z
#    x 1.814460 0.000000 0.012850 
#    y 0.000000 1.801290 0.000000 
#    z 0.012850 0.000000 1.760340 
# 
# From -- ./inp_files/215086.got.cif
#   From: 2010.05.17/outbox.cif.g08.bks.cpg/sg15_108_cif.got.tgz:215086.got - 2010.06.03 18:47:42.
