data_PCOD9260551
_publ_section_title
;
Structure prediction by ZEFSAII (Michael W. Deem and Ramdas Pophale) SiO2 
 PCOD9260551
Probable space group: C 2/C
;
_chemical_formula_sum "Si O2"
_cell_formula_units_Z 56
_cell_length_a 27.792686
_cell_length_b 8.917891
_cell_length_c 16.902160
_cell_angle_alpha 90.000000
_cell_angle_beta 136.651352
_cell_angle_gamma 90.000000
_cell_volume 2875.642957
_symmetry_space_group_name_H-M "C 2/C"
_symmetry_group_IT_number 15
_symmetry_cell_setting 'monoclinic'
loop_
_space_group_symop_operation_xyz
x,y,z
-x,y,1/2-z
-x,-y,-z
x,-y,1/2+z
1/2+x,1/2+y,z
1/2-x,1/2+y,1/2-z
1/2-x,1/2-y,-z
1/2+x,1/2-y,1/2+z
loop_
_atom_site_type_symbol
_atom_site_label
_atom_site_fract_x
_atom_site_fract_y
_atom_site_fract_z
Si Si1 0.668166 0.822673 0.589349
Si Si2 0.325666 0.475097 0.497143
Si Si3 0.752906 0.505528 0.440929
Si Si4 0.941637 0.778807 0.123731
Si Si5 0.793375 0.694648 0.187192
Si Si6 0.525579 0.014516 0.440801
Si Si7 0.607011 0.960968 0.807379
O O1 0.653639 0.679647 0.517662
O O2 0.732848 0.906824 0.623059
O O3 0.691017 0.770301 0.703693
O O4 0.599260 0.928246 0.515550
O O5 0.309340 0.459862 0.571744
O O6 0.382444 0.599807 0.543784
O O7 0.255047 0.547313 0.376221
O O8 0.743155 0.331364 0.403896
O O9 0.823918 0.540455 0.575888
O O10 0.965447 0.689811 0.074067
O O11 0.916038 0.641388 0.147480
O O12 0.000000 0.851194 0.250000
O O13 0.864166 0.648744 0.226622
O O14 0.461183 0.956649 0.308246
O O15 0.500000 0.000000 0.500000
#
# Coordination Sequence:
#
# PCOD9260551 Si02
#       7
#     8   8   8   8   8   8   8
#     4  12  24  37  60  97 132 153 200 268 327 350
#     4  11  22  40  61  91 124 160 208 260 306 366
#     4  11  21  40  64  91 122 165 215 250 305 382
#     4  10  20  39  65  85 113 167 217 243 295 385
#     4  11  20  38  66  87 123 165 206 252 306 380
#     4  11  22  39  63  89 126 160 209 256 309 376
#     4  10  18  37  67  84 112 169 217 240 291 380
#
# _framework density 19.473905999999999
#
# number of rings (size 3 to 8) (size 9 to 14) (size 15 to 20)
#    0.000    1.143    5.714    2.143    0.000    0.000 
#    2.571    0.714    0.000    0.000    0.000    0.000 
#    0.000    0.000    0.000    0.000    0.000    0.000 
#
# Total GULP energy -156045.265059 kJ/mol
# GULP energy per Si atom -5573.045181 kJ/mol
# Density = 1.942958 g / cm^3
# Si number density = 19.473906 Si / 1000 Ang^3
#
#
#
# Elastic Constant Matrix: (Units=GPa)
#
#
# Indices 1 2 3 4 5 6 
#
# 1 121.1118 39.0287 27.8405 0.0000 -20.8370 0.0000
# 2 39.0287 55.0233 21.0702 0.0000 -8.1077 0.0000
# 3 27.8405 21.0702 65.4629 0.0000 -2.9163 0.0000
# 4 0.0000 0.0000 0.0000 14.1056 0.0000 -3.9038
# 5 -20.8370 -8.1077 -2.9163 0.0000 36.2516 0.0000
# 6 0.0000 0.0000 0.0000 -3.9038 0.0000 21.9528
#
#
#
# Elastic Compliance Matrix: (Units=1/GPa)
#
#
# Indices 1 2 3 4 5 6 
#
# 1 0.011904 -0.006656 -0.002692 0.000000 0.005137 0.000000
# 2 -0.006656 0.025081 -0.005181 0.000000 0.001367 0.000000
# 3 -0.002692 -0.005181 0.018032 0.000000 -0.001255 0.000000
# 4 0.000000 0.000000 0.000000 0.074564 0.000000 0.013260
# 5 0.005137 0.001367 -0.001255 0.000000 0.030743 0.000000
# 6 0.000000 0.000000 0.000000 0.013260 0.000000 0.047910
#
#
# Mechanical properties :
#
#
# Convention : Reuss Voigt Hill
#
# Bulk Modulus (GPa) = 38.52088 46.38629 42.45358
# Shear Modulus (GPa) = 20.32980 24.70591 22.51786
#
# Velocity S-wave (km/s) = 3.23453 3.56570 3.40414
# Velocity P-wave (km/s) = 5.81148 6.38934 6.10725
#
# Compressibility (1/GPa) = 0.02595995
#
# Stress axis : x y z
#
# Youngs Moduli (GPa) = 84.00239 39.87111 55.45656
#
# Poissons Ratio (x) = 0.26539 0.14926
# Poissons Ratio (y) = 0.55914 0.28731
# Poissons Ratio (z) = 0.22609 0.20657
#
# Static dielectric constant tensor:
#      x y z
#    x 1.756050 0.000000 0.038600 
#    y 0.000000 1.669480 0.000000 
#    z 0.038600 0.000000 1.778360 
# 
# From -- ./inp_files/218501.got.cif
#   From: 2010.05.17/outbox.cif.g08.bks.cpg/sg15_110_cif.got.tgz:218501.got - 2010.06.03 18:47:42.
