data_PCOD9260242
_publ_section_title
;
Structure prediction by ZEFSAII (Michael W. Deem and Ramdas Pophale) SiO2 
 PCOD9260242
Probable space group: C 2/C
;
_chemical_formula_sum "Si O2"
_cell_formula_units_Z 52
_cell_length_a 26.547169
_cell_length_b 8.840303
_cell_length_c 16.922520
_cell_angle_alpha 90.000000
_cell_angle_beta 140.210580
_cell_angle_gamma 90.000000
_cell_volume 2541.607821
_symmetry_space_group_name_H-M "C 2/C"
_symmetry_group_IT_number 15
_symmetry_cell_setting 'monoclinic'
loop_
_space_group_symop_operation_xyz
x,y,z
-x,y,1/2-z
-x,-y,-z
x,-y,1/2+z
1/2+x,1/2+y,z
1/2-x,1/2+y,1/2-z
1/2-x,1/2-y,-z
1/2+x,1/2-y,1/2+z
loop_
_atom_site_type_symbol
_atom_site_label
_atom_site_fract_x
_atom_site_fract_y
_atom_site_fract_z
Si Si1 0.442705 0.366579 0.616629
Si Si2 0.849080 0.895960 0.095070
Si Si3 0.399714 0.105965 0.985985
Si Si4 0.759463 0.816785 0.136537
Si Si5 0.893351 0.306803 0.898281
Si Si6 0.010789 0.118352 0.943106
Si Si7 0.000000 0.322918 0.750000
O O1 0.500000 0.291293 0.750000
O O2 0.373986 0.448580 0.583248
O O3 0.415159 0.266300 0.509742
O O4 0.489669 0.508482 0.633049
O O5 0.816586 0.905955 0.145027
O O6 0.923241 0.778662 0.180124
O O7 0.779587 0.819405 0.960326
O O8 0.314269 0.087039 0.922152
O O9 0.404537 0.984659 0.922851
O O10 0.410722 0.280096 0.970905
O O11 0.466708 0.087788 0.134308
O O12 0.808174 0.749218 0.267978
O O13 0.948731 0.244911 0.894981
O O14 0.000000 0.000000 0.000000
#
# Coordination Sequence:
#
# PCOD9260242 Si02
#       7
#     8   8   8   8   8   8   4
#     4  11  20  38  62  87 118 160 206 257 297 362
#     4  10  19  38  65  86 111 158 214 245 287 370
#     4  11  22  39  61  90 126 156 201 255 299 370
#     4  10  22  37  60  89 118 162 200 245 311 365
#     4  11  25  35  61  91 128 155 197 259 317 352
#     4  10  21  39  63  90 113 159 207 251 299 359
#     4  10  18  36  66  86 114 156 208 240 296 354
#
# _framework density 20.459489000000001
#
# number of rings (size 3 to 8) (size 9 to 14) (size 15 to 20)
#    0.000    1.538    3.846    2.308    3.231    0.000 
#    0.000    0.769    0.000    0.000    0.000    0.000 
#    0.000    0.000    0.000    0.000    0.000    0.000 
#
# Total GULP energy -144880.196207 kJ/mol
# GULP energy per Si atom -5572.315239 kJ/mol
# Density = 2.041292 g / cm^3
# Si number density = 20.459489 Si / 1000 Ang^3
#
#
#
# Elastic Constant Matrix: (Units=GPa)
#
#
# Indices 1 2 3 4 5 6 
#
# 1 97.9258 11.5547 29.8649 0.0000 -0.9030 0.0000
# 2 11.5547 39.9000 13.7260 0.0000 -11.2404 0.0000
# 3 29.8649 13.7260 119.2245 0.0000 -16.1542 0.0000
# 4 0.0000 0.0000 0.0000 18.9731 0.0000 -11.7134
# 5 -0.9030 -11.2404 -16.1542 0.0000 31.5157 0.0000
# 6 0.0000 0.0000 0.0000 -11.7134 0.0000 28.8618
#
#
#
# Elastic Compliance Matrix: (Units=1/GPa)
#
#
# Indices 1 2 3 4 5 6 
#
# 1 0.011396 -0.002943 -0.002809 0.000000 -0.002163 0.000000
# 2 -0.002943 0.029073 -0.001307 0.000000 0.009615 0.000000
# 3 -0.002809 -0.001307 0.009852 0.000000 0.004503 0.000000
# 4 0.000000 0.000000 0.000000 0.070327 0.000000 0.028542
# 5 -0.002163 0.009615 0.004503 0.000000 0.037406 0.000000
# 6 0.000000 0.000000 0.000000 0.028542 0.000000 0.046231
#
#
# Mechanical properties :
#
#
# Convention : Reuss Voigt Hill
#
# Bulk Modulus (GPa) = 27.62227 40.81572 34.21899
# Shear Modulus (GPa) = 21.69474 29.33043 25.51259
#
# Velocity S-wave (km/s) = 3.25987 3.79038 3.53509
# Velocity P-wave (km/s) = 5.26301 6.25690 5.78135
#
# Compressibility (1/GPa) = 0.03620267
#
# Stress axis : x y z
#
# Youngs Moduli (GPa) = 87.75203 34.39579 101.50491
#
# Poissons Ratio (x) = 0.10123 0.28510
# Poissons Ratio (y) = 0.25827 0.13268
# Poissons Ratio (z) = 0.24648 0.04496
#
# Static dielectric constant tensor:
#      x y z
#    x 1.776060 0.000000 0.007350 
#    y 0.000000 1.743330 0.000000 
#    z 0.007350 0.000000 1.778640 
# 
# From -- ./inp_files/221943.got.cif
#   From: 2010.05.17/outbox.cif.g08.bks.cpg/sg15_111_cif.got.tgz:221943.got - 2010.06.03 18:47:42.
