data_PCOD9260190
_publ_section_title
;
Structure prediction by ZEFSAII (Michael W. Deem and Ramdas Pophale) SiO2 
 PCOD9260190
Probable space group: C 2/C
;
_chemical_formula_sum "Si O2"
_cell_formula_units_Z 56
_cell_length_a 21.151746
_cell_length_b 19.154008
_cell_length_c 8.590185
_cell_angle_alpha 90.000000
_cell_angle_beta 58.689106
_cell_angle_gamma 90.000000
_cell_volume 2973.372559
_symmetry_space_group_name_H-M "C 2/C"
_symmetry_group_IT_number 15
_symmetry_cell_setting 'monoclinic'
loop_
_space_group_symop_operation_xyz
x,y,z
-x,y,1/2-z
-x,-y,-z
x,-y,1/2+z
1/2+x,1/2+y,z
1/2-x,1/2+y,1/2-z
1/2-x,1/2-y,-z
1/2+x,1/2-y,1/2+z
loop_
_atom_site_type_symbol
_atom_site_label
_atom_site_fract_x
_atom_site_fract_y
_atom_site_fract_z
Si Si1 0.177121 0.221907 0.246380
Si Si2 0.287019 0.298572 0.318644
Si Si3 0.271083 0.090899 0.026925
Si Si4 0.426426 0.104215 0.419415
Si Si5 0.084589 0.236379 0.665077
Si Si6 0.419487 0.160170 0.777700
Si Si7 0.729547 0.946932 0.335576
O O1 0.243894 0.272431 0.220754
O O2 0.130370 0.205459 0.461769
O O3 0.122065 0.267005 0.209740
O O4 0.215108 0.154075 0.129417
O O5 0.250000 0.250000 0.500000
O O6 0.373902 0.284478 0.229687
O O7 0.270950 0.380511 0.357862
O O8 0.355698 0.116887 0.950676
O O9 0.270089 0.067879 0.848347
O O10 0.245656 0.024431 0.158509
O O11 0.500000 0.073459 0.250000
O O12 0.412450 0.179406 0.355793
O O13 0.433375 0.122879 0.592741
O O14 0.354325 0.057932 0.493902
O O15 0.000000 0.216149 0.750000
O O16 0.500000 0.168114 0.750000
#
# Coordination Sequence:
#
# PCOD9260190 Si02
#       7
#     8   8   8   8   8   8   8
#     4  10  20  39  59  89 122 156 208 248 291 361
#     4  10  18  36  64  88 118 155 207 251 297 353
#     4  11  25  39  59  86 128 159 205 251 300 364
#     4   9  18  36  55  87 123 150 199 238 290 374
#     4   9  18  33  60  94 119 146 194 251 304 354
#     4  10  21  39  59  90 124 159 198 249 305 352
#     4  11  23  39  57  90 121 162 205 243 305 363
#
# _framework density 18.833834
#
# number of rings (size 3 to 8) (size 9 to 14) (size 15 to 20)
#    0.000    2.000    5.714    0.429    4.000    5.143 
#    0.000    2.857    0.000    1.714    0.000    0.000 
#    0.000    0.000    0.000    0.000    0.000    0.000 
#
# Total GULP energy -156168.861760 kJ/mol
# GULP energy per Si atom -5577.459349 kJ/mol
# Density = 1.879097 g / cm^3
# Si number density = 18.833834 Si / 1000 Ang^3
#
#
#
# Elastic Constant Matrix: (Units=GPa)
#
#
# Indices 1 2 3 4 5 6 
#
# 1 122.4920 38.7945 9.9857 0.0000 -6.3125 0.0000
# 2 38.7945 100.2670 24.4609 0.0000 4.6060 0.0000
# 3 9.9857 24.4609 52.9441 0.0000 -17.3450 0.0000
# 4 0.0000 0.0000 0.0000 27.5569 0.0000 1.5767
# 5 -6.3125 4.6060 -17.3450 0.0000 17.9166 0.0000
# 6 0.0000 0.0000 0.0000 1.5767 0.0000 12.1785
#
#
#
# Elastic Compliance Matrix: (Units=1/GPa)
#
#
# Indices 1 2 3 4 5 6 
#
# 1 0.009851 -0.004840 0.002816 0.000000 0.007441 0.000000
# 2 -0.004840 0.015545 -0.011916 0.000000 -0.017238 0.000000
# 3 0.002816 -0.011916 0.036891 0.000000 0.039770 0.000000
# 4 0.000000 0.000000 0.000000 0.036559 0.000000 -0.004733
# 5 0.007441 -0.017238 0.039770 0.000000 0.101369 0.000000
# 6 0.000000 0.000000 0.000000 -0.004733 0.000000 0.082725
#
#
# Mechanical properties :
#
#
# Convention : Reuss Voigt Hill
#
# Bulk Modulus (GPa) = 29.06459 46.90946 37.98703
# Shear Modulus (GPa) = 15.51399 25.02786 20.27092
#
# Velocity S-wave (km/s) = 2.87318 3.64933 3.28427
# Velocity P-wave (km/s) = 5.14515 6.53589 5.88177
#
# Compressibility (1/GPa) = 0.03440613
#
# Stress axis : x y z
#
# Youngs Moduli (GPa) = 101.51621 64.32911 27.10662
#
# Poissons Ratio (x) = 0.31137 -0.07634
# Poissons Ratio (y) = 0.49136 0.32301
# Poissons Ratio (z) = -0.28589 0.76657
#
# Static dielectric constant tensor:
#      x y z
#    x 1.698440 0.000000 0.016560 
#    y 0.000000 1.651850 0.000000 
#    z 0.016560 0.000000 1.702300 
# 
# From -- ./inp_files/56495.got.cif
#   From: 2010.05.17/outbox.cif.g08.bks.cpg/sg15_29_cif.got.tgz:56495.got - 2010.06.03 18:47:42.
