data_PCOD9260333
_publ_section_title
;
Structure prediction by ZEFSAII (Michael W. Deem and Ramdas Pophale) SiO2 
 PCOD9260333
Probable space group: C 2/C
;
_chemical_formula_sum "Si O2"
_cell_formula_units_Z 44
_cell_length_a 5.481967
_cell_length_b 27.278043
_cell_length_c 16.250122
_cell_angle_alpha 90.000000
_cell_angle_beta 63.579985
_cell_angle_gamma 90.000000
_cell_volume 2176.201902
_symmetry_space_group_name_H-M "C 2/C"
_symmetry_group_IT_number 15
_symmetry_cell_setting 'monoclinic'
loop_
_space_group_symop_operation_xyz
x,y,z
-x,y,1/2-z
-x,-y,-z
x,-y,1/2+z
1/2+x,1/2+y,z
1/2-x,1/2+y,1/2-z
1/2-x,1/2-y,-z
1/2+x,1/2-y,1/2+z
loop_
_atom_site_type_symbol
_atom_site_label
_atom_site_fract_x
_atom_site_fract_y
_atom_site_fract_z
Si Si1 0.854004 0.663080 0.360471
Si Si2 0.521859 0.109059 0.917900
Si Si3 0.270320 0.801030 0.545843
Si Si4 0.836983 0.442998 0.949808
Si Si5 0.721724 0.465162 0.371248
Si Si6 0.000000 0.070229 0.750000
O O1 0.545264 0.682790 0.395340
O O2 0.820488 0.607795 0.401944
O O3 0.000000 0.662232 0.250000
O O4 0.044631 0.693333 0.398142
O O5 0.357593 0.086871 0.868057
O O6 0.826899 0.103811 0.838343
O O7 0.422052 0.160977 0.962350
O O8 0.469249 0.071672 0.002835
O O9 0.250000 0.750000 0.500000
O O10 0.885387 0.488877 0.883467
O O11 0.563554 0.459134 0.038097
O O12 0.668723 0.466039 0.283019
#
# Coordination Sequence:
#
# PCOD9260333 Si02
#       6
#     8   8   8   8   8   4
#     4  11  23  44  67 102 130 163 217 274 321 384
#     4  10  20  38  62  84 126 164 216 260 321 375
#     4  11  24  46  71  92 128 174 212 268 339 389
#     4   9  20  35  61  87 122 171 208 256 318 386
#     4  10  18  37  56  88 126 169 215 247 321 378
#     4  10  22  34  54  92 130 164 212 276 294 392
#
# _framework density 20.218710000000002
#
# number of rings (size 3 to 8) (size 9 to 14) (size 15 to 20)
#    0.000    1.818    1.818    2.182    0.000    1.455 
#    4.909    1.818    0.000    0.000    0.000    0.000 
#    0.000    0.000    0.000    0.000    0.000    0.000 
#
# Total GULP energy -122497.843855 kJ/mol
# GULP energy per Si atom -5568.083812 kJ/mol
# Density = 2.017269 g / cm^3
# Si number density = 20.218710 Si / 1000 Ang^3
#
#
#
# Elastic Constant Matrix: (Units=GPa)
#
#
# Indices 1 2 3 4 5 6 
#
# 1 100.4831 38.2576 46.0745 0.0000 19.2664 0.0000
# 2 38.2576 110.0996 54.8043 0.0000 17.2658 0.0000
# 3 46.0745 54.8043 126.3673 0.0000 10.4269 0.0000
# 4 0.0000 0.0000 0.0000 -41.5833 0.0000 -6.8158
# 5 19.2664 17.2658 10.4269 0.0000 35.0951 0.0000
# 6 0.0000 0.0000 0.0000 -6.8158 0.0000 28.0164
#
#
#
# Elastic Compliance Matrix: (Units=1/GPa)
#
#
# Indices 1 2 3 4 5 6 
#
# 1 0.013373 -0.002052 -0.003551 0.000000 -0.005277 0.000000
# 2 -0.002052 0.012572 -0.004394 0.000000 -0.003753 0.000000
# 3 -0.003551 -0.004394 0.011045 0.000000 0.000829 0.000000
# 4 0.000000 0.000000 0.000000 -0.023126 0.000000 -0.005626
# 5 -0.005277 -0.003753 0.000829 0.000000 0.032991 0.000000
# 6 0.000000 0.000000 0.000000 -0.005626 0.000000 0.034325
#
#
# Mechanical properties :
#
#
# Convention : Reuss Voigt Hill
#
# Bulk Modulus (GPa) = 58.83670 68.35808 63.59739
# Shear Modulus (GPa) = 46.79955 17.49324 32.14639
#
# Velocity S-wave (km/s) = 4.81632 2.94462 3.99172
# Velocity P-wave (km/s) = 7.75194 6.74120 7.26417
#
# Compressibility (1/GPa) = 0.01699620
#
# Stress axis : x y z
#
# Youngs Moduli (GPa) = 74.77733 79.54440 90.53583
#
# Poissons Ratio (x) = 0.16322 0.32145
# Poissons Ratio (y) = 0.15344 0.39785
# Poissons Ratio (z) = 0.26550 0.34955
#
# Static dielectric constant tensor:
#      x y z
#    x 1.803830 0.000000 -0.012950 
#    y 0.000000 1.696680 0.000000 
#    z -0.012950 0.000000 1.761870 
# 
# From -- ./inp_files/129396.got.cif
#   From: 2010.05.17/outbox.cif.g08.bks.cpg/sg15_65_cif.got.tgz:129396.got - 2010.06.03 18:47:42.
