data_PCOD9260005
_publ_section_title
;
Structure prediction by ZEFSAII (Michael W. Deem and Ramdas Pophale) SiO2 
 PCOD9260005
Probable space group: C 2/C
;
_chemical_formula_sum "Si O2"
_cell_formula_units_Z 60
_cell_length_a 11.184895
_cell_length_b 28.160986
_cell_length_c 17.701737
_cell_angle_alpha 90.000000
_cell_angle_beta 32.763000
_cell_angle_gamma 90.000000
_cell_volume 3017.349240
_symmetry_space_group_name_H-M "C 2/C"
_symmetry_group_IT_number 15
_symmetry_cell_setting 'monoclinic'
loop_
_space_group_symop_operation_xyz
x,y,z
-x,y,1/2-z
-x,-y,-z
x,-y,1/2+z
1/2+x,1/2+y,z
1/2-x,1/2+y,1/2-z
1/2-x,1/2-y,-z
1/2+x,1/2-y,1/2+z
loop_
_atom_site_type_symbol
_atom_site_label
_atom_site_fract_x
_atom_site_fract_y
_atom_site_fract_z
Si Si1 0.065370 0.162954 0.491739
Si Si2 0.582313 0.823249 0.291593
Si Si3 0.403031 0.285567 0.673928
Si Si4 0.074276 0.715280 0.128414
Si Si5 0.476471 0.566176 0.063083
Si Si6 0.648530 0.912818 0.013519
Si Si7 0.831735 0.519833 0.768113
Si Si8 0.500000 0.637949 0.250000
O O1 0.028352 0.204317 0.448930
O O2 0.281943 0.169496 0.426838
O O3 0.102469 0.117328 0.420777
O O4 0.841978 0.164673 0.657805
O O5 0.500000 0.830813 0.250000
O O6 0.539298 0.768466 0.335351
O O7 0.459204 0.863127 0.404328
O O8 0.494338 0.325478 0.682121
O O9 0.137010 0.290424 0.811544
O O10 0.000000 0.734353 0.250000
O O11 0.250000 0.750000 0.000000
O O12 0.652481 0.572112 0.036320
O O13 0.278145 0.531026 0.189835
O O14 0.621022 0.548263 0.914033
O O15 0.785296 0.896732 0.866556
O O16 0.460424 0.952758 0.131956
O O17 0.000000 0.516275 0.750000
#
# Coordination Sequence:
#
# PCOD9260005 Si02
#       8
#     8   8   8   8   8   8   8   4
#     4  11  21  38  59  87 121 158 203 252 299 352
#     4  12  20  33  59  84 122 157 200 242 295 346
#     4  11  24  35  56  89 120 168 207 244 292 355
#     4  10  22  38  55  81 123 168 212 249 297 353
#     4  10  18  36  60  89 116 140 195 256 302 362
#     4  11  22  38  57  88 118 156 191 255 300 362
#     4   9  19  35  61  90 113 144 188 249 322 358
#     4  12  24  38  58  84 130 156 212 244 294 360
#
# _framework density 19.885003999999999
#
# number of rings (size 3 to 8) (size 9 to 14) (size 15 to 20)
#    0.000    1.333    6.000    0.400    1.867    2.667 
#    0.000    0.667    0.000    0.000    0.000    0.000 
#    0.000    0.000    0.000    0.000    0.000    0.000 
#
# Total GULP energy -167204.407210 kJ/mol
# GULP energy per Si atom -5573.480240 kJ/mol
# Density = 1.983975 g / cm^3
# Si number density = 19.885004 Si / 1000 Ang^3
#
#
#
# Elastic Constant Matrix: (Units=GPa)
#
#
# Indices 1 2 3 4 5 6 
#
# 1 23.7609 1.2378 3.6400 0.0000 -13.7520 0.0000
# 2 1.2378 89.9485 42.1989 0.0000 -4.7959 -0.0001
# 3 3.6400 42.1989 110.9939 0.0001 -17.9993 0.0011
# 4 0.0000 0.0000 0.0001 38.6065 -0.0001 -7.0091
# 5 -13.7520 -4.7959 -17.9993 -0.0001 17.4774 -0.0004
# 6 0.0000 -0.0001 0.0011 -7.0091 -0.0004 49.6022
#
#
#
# Elastic Compliance Matrix: (Units=1/GPa)
#
#
# Indices 1 2 3 4 5 6 
#
# 1 0.085448 -0.001979 0.010522 0.000000 0.077528 0.000000
# 2 -0.001979 0.013630 -0.005718 0.000000 -0.003706 0.000000
# 3 0.010522 -0.005718 0.014318 0.000000 0.021456 0.000000
# 4 0.000000 0.000000 0.000000 0.026584 0.000000 0.003757
# 5 0.077528 -0.003706 0.021456 0.000000 0.139299 0.000001
# 6 0.000000 0.000000 0.000000 0.003757 0.000001 0.020691
#
#
# Mechanical properties :
#
#
# Convention : Reuss Voigt Hill
#
# Bulk Modulus (GPa) = 8.40009 35.42854 21.91432
# Shear Modulus (GPa) = 14.97004 32.97900 23.97452
#
# Velocity S-wave (km/s) = 2.74675 4.07687 3.47603
# Velocity P-wave (km/s) = 3.78061 6.32586 5.21103
#
# Compressibility (1/GPa) = 0.11904631
#
# Stress axis : x y z
#
# Youngs Moduli (GPa) = 11.70307 73.36944 69.84374
#
# Poissons Ratio (x) = 0.14518 -0.73492
# Poissons Ratio (y) = 0.02316 0.39936
# Poissons Ratio (z) = -0.12314 0.41952
#
# Static dielectric constant tensor:
#      x y z
#    x 1.727850 0.000000 0.002760 
#    y 0.000000 1.737530 0.000000 
#    z 0.002760 0.000000 1.850120 
# 
# From -- ./inp_files/201234.got.cif
#   From: 2010.05.17/outbox.cif.g08.bks.cpg/sg15_101_cif.got.tgz:201234.got - 2010.06.03 18:47:42.
