data_PCOD9260457
_publ_section_title
;
Structure prediction by ZEFSAII (Michael W. Deem and Ramdas Pophale) SiO2 
 PCOD9260457
Probable space group: C 2/C
;
_chemical_formula_sum "Si O2"
_cell_formula_units_Z 36
_cell_length_a 10.979623
_cell_length_b 9.154524
_cell_length_c 16.493493
_cell_angle_alpha 90.000000
_cell_angle_beta 118.815661
_cell_angle_gamma 90.000000
_cell_volume 1452.535238
_symmetry_space_group_name_H-M "C 2/C"
_symmetry_group_IT_number 15
_symmetry_cell_setting 'monoclinic'
loop_
_space_group_symop_operation_xyz
x,y,z
-x,y,1/2-z
-x,-y,-z
x,-y,1/2+z
1/2+x,1/2+y,z
1/2-x,1/2+y,1/2-z
1/2-x,1/2-y,-z
1/2+x,1/2-y,1/2+z
loop_
_atom_site_type_symbol
_atom_site_label
_atom_site_fract_x
_atom_site_fract_y
_atom_site_fract_z
Si Si1 0.610966 0.677931 0.050017
Si Si2 0.841426 0.148600 0.891726
Si Si3 0.000000 0.472821 0.750000
Si Si4 0.571895 0.254979 0.854403
Si Si5 0.845553 0.808781 0.214729
O O1 0.660055 0.509668 0.065617
O O2 0.507673 0.686743 0.094384
O O3 0.732325 0.795545 0.106560
O O4 0.501816 0.701986 0.942536
O O5 0.737818 0.263659 0.900719
O O6 0.790409 0.133741 0.782505
O O7 0.955405 0.581022 0.664268
O O8 0.880919 0.362483 0.739699
O O9 0.500000 0.315072 0.750000
O O10 0.000000 0.871948 0.250000
#
# Coordination Sequence:
#
# PCOD9260457 Si02
#       5
#     8   8   4   8   8
#     4  11  22  37  63  86 119 159 201 251 302 356
#     4  11  22  38  58  93 119 151 207 254 293 362
#     4   8  18  36  58  78 116 160 188 240 304 350
#     4  10  18  37  63  80 119 160 196 244 309 351
#     4  10  20  39  59  78 123 160 191 250 312 346
#
# _framework density 24.784251999999999
#
# number of rings (size 3 to 8) (size 9 to 14) (size 15 to 20)
#    1.333    0.444    4.444    0.667    0.000    1.778 
#    0.000    1.111    0.000    0.000    0.000    0.000 
#    0.000    0.000    0.000    0.000    0.000    0.000 
#
# Total GULP energy -100333.383349 kJ/mol
# GULP energy per Si atom -5574.076853 kJ/mol
# Density = 2.472784 g / cm^3
# Si number density = 24.784252 Si / 1000 Ang^3
#
#
#
# Elastic Constant Matrix: (Units=GPa)
#
#
# Indices 1 2 3 4 5 6 
#
# 1 102.4626 8.3588 14.9356 0.0000 25.7464 0.0000
# 2 8.3588 74.6654 7.1822 0.0000 4.1252 0.0000
# 3 14.9356 7.1822 80.9393 0.0000 38.4242 0.0000
# 4 0.0000 0.0000 0.0000 16.5862 0.0000 -7.8925
# 5 25.7464 4.1252 38.4242 0.0000 54.0730 0.0000
# 6 0.0000 0.0000 0.0000 -7.8925 0.0000 20.7253
#
#
#
# Elastic Compliance Matrix: (Units=1/GPa)
#
#
# Indices 1 2 3 4 5 6 
#
# 1 0.011186 -0.001007 0.000781 0.000000 -0.005804 0.000000
# 2 -0.001007 0.013602 -0.001141 0.000000 0.000253 0.000000
# 3 0.000781 -0.001141 0.018784 0.000000 -0.013632 0.000000
# 4 0.000000 0.000000 0.000000 0.073634 0.000000 0.028041
# 5 -0.005804 0.000253 -0.013632 0.000000 0.030925 0.000000
# 6 0.000000 0.000000 0.000000 0.028041 0.000000 0.058929
#
#
# Mechanical properties :
#
#
# Convention : Reuss Voigt Hill
#
# Bulk Modulus (GPa) = 24.48739 35.44671 29.96705
# Shear Modulus (GPa) = 22.38073 33.44963 27.91518
#
# Velocity S-wave (km/s) = 3.00829 3.67772 3.35972
# Velocity P-wave (km/s) = 4.68701 5.68923 5.21227
#
# Compressibility (1/GPa) = 0.04083735
#
# Stress axis : x y z
#
# Youngs Moduli (GPa) = 89.39379 73.52078 53.23725
#
# Poissons Ratio (x) = 0.07402 -0.04155
# Poissons Ratio (y) = 0.09000 0.06075
# Poissons Ratio (z) = -0.06977 0.08389
#
# Static dielectric constant tensor:
#      x y z
#    x 2.049770 0.000000 0.099680 
#    y 0.000000 1.894090 0.000000 
#    z 0.099680 0.000000 2.082010 
# 
# From -- ./inp_files/235963.got.cif
#   From: 2010.05.17/outbox.cif.g08.bks.cpg/sg15_118_cif.got.tgz:235963.got - 2010.06.03 18:47:42.
