data_PCOD9260440
_publ_section_title
;
Structure prediction by ZEFSAII (Michael W. Deem and Ramdas Pophale) SiO2 
 PCOD9260440
Probable space group: C 2/C
;
_chemical_formula_sum "Si O2"
_cell_formula_units_Z 60
_cell_length_a 16.070614
_cell_length_b 13.002317
_cell_length_c 14.742969
_cell_angle_alpha 90.000000
_cell_angle_beta 86.258429
_cell_angle_gamma 90.000000
_cell_volume 3074.054059
_symmetry_space_group_name_H-M "C 2/C"
_symmetry_group_IT_number 15
_symmetry_cell_setting 'monoclinic'
loop_
_space_group_symop_operation_xyz
x,y,z
-x,y,1/2-z
-x,-y,-z
x,-y,1/2+z
1/2+x,1/2+y,z
1/2-x,1/2+y,1/2-z
1/2-x,1/2-y,-z
1/2+x,1/2-y,1/2+z
loop_
_atom_site_type_symbol
_atom_site_label
_atom_site_fract_x
_atom_site_fract_y
_atom_site_fract_z
Si Si1 0.408157 0.550084 0.519640
Si Si2 0.193269 0.885088 0.085874
Si Si3 0.978222 0.402599 0.442678
Si Si4 0.404480 0.542531 0.733466
Si Si5 0.333318 0.253211 0.936978
Si Si6 0.645109 0.781506 0.449940
Si Si7 0.000000 0.368209 0.250000
Si Si8 0.640916 0.695646 0.259802
O O1 0.500000 0.500000 0.500000
O O2 0.344360 0.472745 0.475683
O O3 0.390579 0.564424 0.627877
O O4 0.394690 0.656202 0.467389
O O5 0.293049 0.877680 0.070165
O O6 0.157492 0.904158 0.189406
O O7 0.162785 0.778669 0.041601
O O8 0.887615 0.349651 0.449904
O O9 0.990131 0.435555 0.338232
O O10 0.000000 0.500000 0.500000
O O11 0.049560 0.316631 0.455041
O O12 0.500000 0.570465 0.750000
O O13 0.394370 0.419223 0.746633
O O14 0.307422 0.280294 0.834912
O O15 0.250000 0.250000 0.000000
O O16 0.668973 0.708809 0.361998
O O17 0.924983 0.288171 0.244274
#
# Coordination Sequence:
#
# PCOD9260440 Si02
#       8
#     8   8   8   8   8   8   4   8
#     4  12  23  40  64  95 132 167 205 264 337 380
#     4  11  23  39  61  92 128 165 210 262 321 391
#     4  10  22  41  65  85 120 171 214 250 316 385
#     4  12  22  35  65  97 126 158 212 265 330 389
#     4  11  25  40  64  96 132 161 217 277 321 375
#     4  10  23  41  62  87 127 171 214 257 322 387
#     4   8  18  36  60  88 110 158 214 250 292 386
#     4  10  18  37  62  88 121 162 206 259 319 380
#
# _framework density 19.518198000000002
#
# number of rings (size 3 to 8) (size 9 to 14) (size 15 to 20)
#    0.000    1.333    4.667    0.800    5.600    0.000 
#    0.000    1.333    0.000    0.000    0.000    0.000 
#    0.000    0.000    0.000    0.000    0.000    0.000 
#
# Total GULP energy -167203.360257 kJ/mol
# GULP energy per Si atom -5573.445342 kJ/mol
# Density = 1.947377 g / cm^3
# Si number density = 19.518198 Si / 1000 Ang^3
#
#
#
# Elastic Constant Matrix: (Units=GPa)
#
#
# Indices 1 2 3 4 5 6 
#
# 1 67.9634 8.5221 19.8944 0.0000 -12.2942 0.0000
# 2 8.5221 62.1235 35.4549 0.0000 -6.5397 0.0000
# 3 19.8944 35.4549 148.0029 0.0000 -7.7048 0.0000
# 4 0.0000 0.0000 0.0000 22.9384 0.0000 32.4406
# 5 -12.2942 -6.5397 -7.7048 0.0000 22.4212 0.0000
# 6 0.0000 0.0000 0.0000 32.4406 0.0000 -15.2912
#
#
#
# Elastic Compliance Matrix: (Units=1/GPa)
#
#
# Indices 1 2 3 4 5 6 
#
# 1 0.016807 -0.000433 -0.001713 0.000000 0.008501 0.000000
# 2 -0.000433 0.019012 -0.004297 0.000000 0.003831 0.000000
# 3 -0.001713 -0.004297 0.008046 0.000000 0.000572 0.000000
# 4 0.000000 0.000000 0.000000 0.010898 0.000000 0.023120
# 5 0.008501 0.003831 0.000572 0.000000 0.050576 0.000000
# 6 0.000000 0.000000 0.000000 0.023120 0.000000 -0.016348
#
#
# Mechanical properties :
#
#
# Convention : Reuss Voigt Hill
#
# Bulk Modulus (GPa) = 32.27925 45.09252 38.68589
# Shear Modulus (GPa) = 44.56183 20.29490 32.42836
#
# Velocity S-wave (km/s) = 4.78335 3.22808 4.08050
# Velocity P-wave (km/s) = 6.86158 6.08662 6.48568
#
# Compressibility (1/GPa) = 0.03097965
#
# Stress axis : x y z
#
# Youngs Moduli (GPa) = 59.49790 52.59857 124.28566
#
# Poissons Ratio (x) = 0.02278 0.21289
# Poissons Ratio (y) = 0.02577 0.53402
# Poissons Ratio (z) = 0.10191 0.22600
#
# Static dielectric constant tensor:
#      x y z
#    x 1.736730 0.000000 0.024650 
#    y 0.000000 1.683650 0.000000 
#    z 0.024650 0.000000 1.742860 
# 
# From -- ./inp_files/160884.got.cif
#   From: 2010.05.17/outbox.cif.g08.bks.cpg/sg15_81_cif.got.tgz:160884.got - 2010.06.03 18:47:42.
