data_PCOD9260589
_publ_section_title
;
Structure prediction by ZEFSAII (Michael W. Deem and Ramdas Pophale) SiO2 
 PCOD9260589
Probable space group: C 2/C
;
_chemical_formula_sum "Si O2"
_cell_formula_units_Z 48
_cell_length_a 22.773032
_cell_length_b 25.657526
_cell_length_c 12.693066
_cell_angle_alpha 90.000000
_cell_angle_beta 158.900743
_cell_angle_gamma 90.000000
_cell_volume 2669.846095
_symmetry_space_group_name_H-M "C 2/C"
_symmetry_group_IT_number 15
_symmetry_cell_setting 'monoclinic'
loop_
_space_group_symop_operation_xyz
x,y,z
-x,y,1/2-z
-x,-y,-z
x,-y,1/2+z
1/2+x,1/2+y,z
1/2-x,1/2+y,1/2-z
1/2-x,1/2-y,-z
1/2+x,1/2-y,1/2+z
loop_
_atom_site_type_symbol
_atom_site_label
_atom_site_fract_x
_atom_site_fract_y
_atom_site_fract_z
Si Si1 0.390463 0.603458 0.668766
Si Si2 0.942804 0.943450 0.860210
Si Si3 0.827934 0.340377 0.358380
Si Si4 0.176957 0.694680 0.408557
Si Si5 0.835985 0.491820 0.661163
Si Si6 0.000000 0.435332 0.750000
Si Si7 0.500000 0.616743 0.250000
O O1 0.500000 0.612324 0.750000
O O2 0.268008 0.649743 0.494772
O O3 0.282173 0.550376 0.480064
O O4 0.513807 0.594969 0.972906
O O5 0.023756 0.920160 0.891230
O O6 0.758431 0.954512 0.516582
O O7 0.000000 0.000000 0.000000
O O8 0.794430 0.316954 0.418973
O O9 0.980918 0.309401 0.565466
O O10 0.902674 0.397462 0.508647
O O11 0.662576 0.348001 0.017038
O O12 0.250000 0.750000 0.500000
O O13 0.879890 0.468556 0.620434
O O14 0.000000 0.500000 0.000000
#
# Coordination Sequence:
#
# PCOD9260589 Si02
#       7
#     8   8   8   8   8   4   4
#     4  11  23  39  55  87 124 152 201 254 304 360
#     4  10  23  35  55  88 122 166 202 239 299 349
#     4  10  20  38  66  86 115 156 207 253 298 358
#     4  10  21  41  64  89 113 155 207 251 310 368
#     4  11  22  34  57  83 117 163 198 243 293 353
#     4  10  18  38  54  78 120 152 214 240 266 362
#     4  12  20  40  64  86 128 162 204 256 294 356
#
# _framework density 17.978563999999999
#
# number of rings (size 3 to 8) (size 9 to 14) (size 15 to 20)
#    0.000    1.667    5.000    2.000    9.333    0.000 
#    0.000    0.833    0.000    0.000    0.000    0.000 
#    0.000    0.000    0.000    0.000    0.000    0.000 
#
# Total GULP energy -133824.477745 kJ/mol
# GULP energy per Si atom -5576.019906 kJ/mol
# Density = 1.793764 g / cm^3
# Si number density = 17.978564 Si / 1000 Ang^3
#
#
#
# Elastic Constant Matrix: (Units=GPa)
#
#
# Indices 1 2 3 4 5 6 
#
# 1 115.7226 34.9895 26.7273 0.0000 17.7729 0.0000
# 2 34.9895 66.2348 34.1014 0.0000 13.4109 0.0000
# 3 26.7273 34.1014 135.7067 0.0000 9.1978 0.0000
# 4 0.0000 0.0000 0.0000 20.8430 0.0000 15.0056
# 5 17.7729 13.4109 9.1978 0.0000 32.3326 0.0000
# 6 0.0000 0.0000 0.0000 15.0056 0.0000 22.7754
#
#
#
# Elastic Compliance Matrix: (Units=1/GPa)
#
#
# Indices 1 2 3 4 5 6 
#
# 1 0.010770 -0.004543 -0.000720 0.000000 -0.003831 0.000000
# 2 -0.004543 0.020511 -0.003928 0.000000 -0.004893 0.000000
# 3 -0.000720 -0.003928 0.008525 0.000000 -0.000400 0.000000
# 4 0.000000 0.000000 0.000000 0.091270 0.000000 -0.060133
# 5 -0.003831 -0.004893 -0.000400 0.000000 0.035178 0.000000
# 6 0.000000 0.000000 0.000000 -0.060133 0.000000 0.083526
#
#
# Mechanical properties :
#
#
# Convention : Reuss Voigt Hill
#
# Bulk Modulus (GPa) = 46.67684 56.58896 51.63290
# Shear Modulus (GPa) = 18.16196 29.97991 24.07094
#
# Velocity S-wave (km/s) = 3.18181 4.08798 3.66303
# Velocity P-wave (km/s) = 6.28629 7.33663 6.83168
#
# Compressibility (1/GPa) = 0.02142390
#
# Stress axis : x y z
#
# Youngs Moduli (GPa) = 92.85461 48.75543 117.30595
#
# Poissons Ratio (x) = 0.22149 0.08444
# Poissons Ratio (y) = 0.42183 0.46074
# Poissons Ratio (z) = 0.06684 0.19150
#
# Static dielectric constant tensor:
#      x y z
#    x 1.637700 0.000000 0.028540 
#    y 0.000000 1.608920 0.000000 
#    z 0.028540 0.000000 1.687600 
# 
# From -- ./inp_files/115073.got.cif
#   From: 2010.05.17/outbox.cif.g08.bks.cpg/sg15_58_cif.got.tgz:115073.got - 2010.06.03 18:47:42.
