data_PCOD9260272
_publ_section_title
;
Structure prediction by ZEFSAII (Michael W. Deem and Ramdas Pophale) SiO2 
 PCOD9260272
Probable space group: C 2/C
;
_chemical_formula_sum "Si O2"
_cell_formula_units_Z 56
_cell_length_a 15.829479
_cell_length_b 9.542367
_cell_length_c 19.158885
_cell_angle_alpha 90.000000
_cell_angle_beta 68.740607
_cell_angle_gamma 90.000000
_cell_volume 2697.024257
_symmetry_space_group_name_H-M "C 2/C"
_symmetry_group_IT_number 15
_symmetry_cell_setting 'monoclinic'
loop_
_space_group_symop_operation_xyz
x,y,z
-x,y,1/2-z
-x,-y,-z
x,-y,1/2+z
1/2+x,1/2+y,z
1/2-x,1/2+y,1/2-z
1/2-x,1/2-y,-z
1/2+x,1/2-y,1/2+z
loop_
_atom_site_type_symbol
_atom_site_label
_atom_site_fract_x
_atom_site_fract_y
_atom_site_fract_z
Si Si1 0.041139 0.802831 0.807807
Si Si2 0.041955 0.698646 0.433753
Si Si3 0.290875 0.543285 0.198499
Si Si4 0.392766 0.536295 0.526755
Si Si5 0.705046 0.694764 0.693215
Si Si6 0.599795 0.891372 0.411443
Si Si7 0.567002 0.414500 0.122861
O O1 0.143224 0.861600 0.773001
O O2 0.044673 0.691272 0.868306
O O3 0.000000 0.741845 0.750000
O O4 0.983492 0.941615 0.842634
O O5 0.951856 0.648990 0.502158
O O6 0.005550 0.799571 0.383056
O O7 0.104456 0.796085 0.465047
O O8 0.093671 0.556924 0.399774
O O9 0.339687 0.521840 0.109261
O O10 0.283225 0.397776 0.240585
O O11 0.204236 0.640529 0.211147
O O12 0.500000 0.500000 0.500000
O O13 0.368283 0.462241 0.461391
O O14 0.797526 0.662194 0.622722
O O15 0.621620 0.644729 0.671734
#
# Coordination Sequence:
#
# PCOD9260272 Si02
#       7
#     8   8   8   8   8   8   8
#     4  11  19  38  62  87 116 164 210 240 288 375
#     4  10  20  39  69  89 117 158 210 250 296 363
#     4  11  23  39  60  88 127 165 196 246 320 366
#     4  10  18  36  67  90 112 158 211 250 288 356
#     4  11  25  40  59  92 128 160 195 254 316 361
#     4  10  23  41  60  90 127 160 192 251 322 355
#     4  11  20  38  68  92 111 155 220 252 284 362
#
# _framework density 20.763625999999999
#
# number of rings (size 3 to 8) (size 9 to 14) (size 15 to 20)
#    0.000    1.429    5.714    2.571    2.000    2.286 
#    5.143    0.714    0.000    0.000    0.000    0.000 
#    0.000    0.000    0.000    0.000    0.000    0.000 
#
# Total GULP energy -156281.203827 kJ/mol
# GULP energy per Si atom -5581.471565 kJ/mol
# Density = 2.071637 g / cm^3
# Si number density = 20.763626 Si / 1000 Ang^3
#
#
#
# Elastic Constant Matrix: (Units=GPa)
#
#
# Indices 1 2 3 4 5 6 
#
# 1 31.2509 13.4672 3.6720 0.0000 13.2958 0.0000
# 2 13.4672 124.0311 14.4349 0.0000 9.6839 0.0000
# 3 3.6720 14.4349 40.6311 0.0000 8.0572 0.0000
# 4 0.0000 0.0000 0.0000 28.6139 0.0000 0.5631
# 5 13.2958 9.6839 8.0572 0.0000 24.4764 0.0000
# 6 0.0000 0.0000 0.0000 0.5631 0.0000 27.7101
#
#
#
# Elastic Compliance Matrix: (Units=1/GPa)
#
#
# Indices 1 2 3 4 5 6 
#
# 1 0.042718 -0.003076 0.001704 0.000000 -0.022548 0.000000
# 2 -0.003076 0.008778 -0.002657 0.000000 -0.000928 0.000000
# 3 0.001704 -0.002657 0.027149 0.000000 -0.008811 0.000000
# 4 0.000000 0.000000 0.000000 0.034962 0.000000 -0.000710
# 5 -0.022548 -0.000928 -0.008811 0.000000 0.056372 0.000000
# 6 0.000000 0.000000 0.000000 -0.000710 0.000000 0.036102
#
#
# Mechanical properties :
#
#
# Convention : Reuss Voigt Hill
#
# Bulk Modulus (GPa) = 14.16701 28.78458 21.47579
# Shear Modulus (GPa) = 21.03778 27.11603 24.07691
#
# Velocity S-wave (km/s) = 3.18654 3.61770 3.40894
# Velocity P-wave (km/s) = 4.51404 5.59852 5.08527
#
# Compressibility (1/GPa) = 0.07058653
#
# Stress axis : x y z
#
# Youngs Moduli (GPa) = 23.40946 113.92011 36.83403
#
# Poissons Ratio (x) = 0.35042 -0.06275
# Poissons Ratio (y) = 0.07201 0.09785
# Poissons Ratio (z) = -0.03988 0.30264
#
# Static dielectric constant tensor:
#      x y z
#    x 1.740240 0.000000 -0.012220 
#    y 0.000000 1.779710 0.000000 
#    z -0.012220 0.000000 1.814680 
# 
# From -- ./inp_files/246920.got.cif
#   From: 2010.05.17/outbox.cif.g08.bks.cpg/sg15_124_cif.got.tgz:246920.got - 2010.06.03 18:47:42.
