data_PCOD9260697
_publ_section_title
;
Structure prediction by ZEFSAII (Michael W. Deem and Ramdas Pophale) SiO2 
 PCOD9260697
Probable space group: C 2/C
;
_chemical_formula_sum "Si O2"
_cell_formula_units_Z 48
_cell_length_a 10.797507
_cell_length_b 21.141805
_cell_length_c 12.819726
_cell_angle_alpha 90.000000
_cell_angle_beta 133.992712
_cell_angle_gamma 90.000000
_cell_volume 2105.385996
_symmetry_space_group_name_H-M "C 2/C"
_symmetry_group_IT_number 15
_symmetry_cell_setting 'monoclinic'
loop_
_space_group_symop_operation_xyz
x,y,z
-x,y,1/2-z
-x,-y,-z
x,-y,1/2+z
1/2+x,1/2+y,z
1/2-x,1/2+y,1/2-z
1/2-x,1/2-y,-z
1/2+x,1/2-y,1/2+z
loop_
_atom_site_type_symbol
_atom_site_label
_atom_site_fract_x
_atom_site_fract_y
_atom_site_fract_z
Si Si1 0.500000 0.317133 0.250000
Si Si2 0.500000 0.898364 0.750000
Si Si3 0.991484 0.761307 0.894328
Si Si4 0.119855 0.286510 0.682132
Si Si5 0.105356 0.080410 0.980083
Si Si6 0.500000 0.480459 0.750000
Si Si7 0.350519 0.611343 0.021376
Si Si8 0.000000 0.355588 0.250000
O O1 0.367016 0.267761 0.221924
O O2 0.416587 0.359824 0.110889
O O3 0.535168 0.850015 0.674796
O O4 0.311334 0.930831 0.620095
O O5 0.815068 0.796636 0.764609
O O6 0.986894 0.693692 0.837086
O O7 0.132015 0.813730 0.945869
O O8 0.019391 0.746337 0.030800
O O9 0.007214 0.026167 0.855120
O O10 0.001172 0.093312 0.026315
O O11 0.644882 0.430382 0.871368
O O12 0.169761 0.603255 0.858574
#
# Coordination Sequence:
#
# PCOD9260697 Si02
#       8
#     4   4   8   8   8   4   8   4
#     4  10  18  38  61  97 136 174 206 262 316 398
#     4  11  22  38  70 104 134 168 211 268 330 408
#     4  12  22  40  63 102 138 173 203 260 324 408
#     4  11  21  35  65 104 139 168 206 252 334 402
#     4  11  23  45  68  94 130 174 226 278 330 371
#     4  11  29  47  72  88 129 175 233 292 326 366
#     4  12  25  47  66  96 131 177 220 276 327 386
#     4  12  27  41  69  99 137 175 218 256 332 410
#
# _framework density 22.798670999999999
#
# number of rings (size 3 to 8) (size 9 to 14) (size 15 to 20)
#    0.000    0.667    5.000    2.500    2.333    4.667 
#    0.000    1.667    0.000    0.000    0.000    0.000 
#    0.000    0.000    0.000    0.000    0.000    0.000 
#
# Total GULP energy -133877.574759 kJ/mol
# GULP energy per Si atom -5578.232282 kJ/mol
# Density = 2.274678 g / cm^3
# Si number density = 22.798671 Si / 1000 Ang^3
#
#
#
# Elastic Constant Matrix: (Units=GPa)
#
#
# Indices 1 2 3 4 5 6 
#
# 1 72.3099 14.0981 59.6939 0.0000 10.9615 0.0000
# 2 14.0981 80.6231 42.4483 0.0000 -17.2618 0.0000
# 3 59.6939 42.4483 138.5658 0.0000 21.6760 0.0000
# 4 0.0000 0.0000 0.0000 84.8764 0.0000 -68.6106
# 5 10.9615 -17.2618 21.6760 0.0000 44.9335 0.0000
# 6 0.0000 0.0000 0.0000 -68.6106 0.0000 23.1217
#
#
#
# Elastic Compliance Matrix: (Units=1/GPa)
#
#
# Indices 1 2 3 4 5 6 
#
# 1 0.021583 0.001304 -0.009683 0.000000 -0.000093 0.000000
# 2 0.001304 0.018643 -0.007943 0.000000 0.010675 0.000000
# 3 -0.009683 -0.007943 0.015066 0.000000 -0.007957 0.000000
# 4 0.000000 0.000000 0.000000 -0.008423 0.000000 -0.024995
# 5 -0.000093 0.010675 -0.007957 0.000000 0.030217 0.000000
# 6 0.000000 0.000000 0.000000 -0.024995 0.000000 -0.030921
#
#
# Mechanical properties :
#
#
# Convention : Reuss Voigt Hill
#
# Bulk Modulus (GPa) = 44.15290 58.21993 51.18641
# Shear Modulus (GPa) = 57.89933 42.27023 50.08478
#
# Velocity S-wave (km/s) = 5.04490 4.31056 4.69212
# Velocity P-wave (km/s) = 7.30364 7.09694 7.20103
#
# Compressibility (1/GPa) = 0.02264857
#
# Stress axis : x y z
#
# Youngs Moduli (GPa) = 46.33378 53.63959 66.37474
#
# Poissons Ratio (x) = -0.06994 0.64268
# Poissons Ratio (y) = -0.06042 0.52720
# Poissons Ratio (z) = 0.44863 0.42605
#
# Static dielectric constant tensor:
#      x y z
#    x 1.903970 0.000000 -0.003480 
#    y 0.000000 1.880040 0.000000 
#    z -0.003480 0.000000 1.848830 
# 
# From -- ./inp_files/31992.got.cif
#   From: 2010.05.17/outbox.cif.g08.bks.cpg/sg15_16_cif.got.tgz:31992.got - 2010.06.03 18:47:42.
