data_PCOD9260907
_publ_section_title
;
Structure prediction by ZEFSAII (Michael W. Deem and Ramdas Pophale) SiO2 
 PCOD9260907
Probable space group: C 2/C
;
_chemical_formula_sum "Si O2"
_cell_formula_units_Z 52
_cell_length_a 9.803288
_cell_length_b 21.881178
_cell_length_c 8.975228
_cell_angle_alpha 90.000000
_cell_angle_beta 103.932800
_cell_angle_gamma 90.000000
_cell_volume 1868.610355
_symmetry_space_group_name_H-M "C 2/C"
_symmetry_group_IT_number 15
_symmetry_cell_setting 'monoclinic'
loop_
_space_group_symop_operation_xyz
x,y,z
-x,y,1/2-z
-x,-y,-z
x,-y,1/2+z
1/2+x,1/2+y,z
1/2-x,1/2+y,1/2-z
1/2-x,1/2-y,-z
1/2+x,1/2-y,1/2+z
loop_
_atom_site_type_symbol
_atom_site_label
_atom_site_fract_x
_atom_site_fract_y
_atom_site_fract_z
Si Si1 0.093161 0.929892 0.592039
Si Si2 0.703790 0.620479 0.388590
Si Si3 0.765906 0.664616 0.688642
Si Si4 0.000000 0.784029 0.250000
Si Si5 0.118610 0.706194 0.511008
Si Si6 0.986359 0.429579 0.575305
Si Si7 0.736265 0.539778 0.820309
O O1 0.158290 0.872876 0.704098
O O2 0.133270 0.940338 0.430976
O O3 0.072968 0.081832 0.426822
O O4 0.161955 0.986425 0.704142
O O5 0.726515 0.675729 0.508700
O O6 0.858363 0.591589 0.429258
O O7 0.632194 0.674224 0.759888
O O8 0.880486 0.701505 0.811023
O O9 0.785875 0.592258 0.719058
O O10 0.997279 0.740755 0.392220
O O11 0.250000 0.750000 0.500000
O O12 0.102756 0.635752 0.453386
O O13 0.882863 0.471190 0.448158
O O14 0.000000 0.449756 0.750000
#
# Coordination Sequence:
#
# PCOD9260907 Si02
#       7
#     8   8   8   4   8   8   8
#     4  11  25  45  67 103 143 186 249 293 354 418
#     4  11  25  43  68 101 141 186 235 298 351 422
#     4  10  22  40  68 102 137 181 236 284 363 417
#     4  10  18  38  70 102 134 182 230 282 346 440
#     4   9  20  38  70 102 133 179 229 286 349 432
#     4  11  22  46  72  96 138 190 239 286 364 420
#     4  11  24  44  71  99 141 194 239 297 350 428
#
# _framework density 27.828167000000001
#
# number of rings (size 3 to 8) (size 9 to 14) (size 15 to 20)
#    0.000    1.538    2.308    1.846    0.000    9.846 
#    0.000    0.769    3.385    0.000    0.000    0.000 
#    0.000    0.000    0.000    0.000    0.000    0.000 
#
# Total GULP energy -145156.865843 kJ/mol
# GULP energy per Si atom -5582.956379 kJ/mol
# Density = 2.776483 g / cm^3
# Si number density = 27.828167 Si / 1000 Ang^3
#
#
#
# Elastic Constant Matrix: (Units=GPa)
#
#
# Indices 1 2 3 4 5 6 
#
# 1 169.5165 5.2671 48.5340 0.0000 -9.8050 0.0000
# 2 5.2671 61.7455 46.6503 0.0000 16.5481 0.0000
# 3 48.5340 46.6503 198.7184 0.0000 3.7833 0.0000
# 4 0.0000 0.0000 0.0000 43.3028 0.0000 10.1770
# 5 -9.8050 16.5481 3.7833 0.0000 52.6986 0.0000
# 6 0.0000 0.0000 0.0000 10.1770 0.0000 6.5617
#
#
#
# Elastic Compliance Matrix: (Units=1/GPa)
#
#
# Indices 1 2 3 4 5 6 
#
# 1 0.006440 0.000410 -0.001692 0.000000 0.001191 0.000000
# 2 0.000410 0.021702 -0.005073 0.000000 -0.006374 0.000000
# 3 -0.001692 -0.005073 0.006621 0.000000 0.000803 0.000000
# 4 0.000000 0.000000 0.000000 0.036339 0.000000 -0.056362
# 5 0.001191 -0.006374 0.000803 0.000000 0.021141 0.000000
# 6 0.000000 0.000000 0.000000 -0.056362 0.000000 0.239816
#
#
# Mechanical properties :
#
#
# Convention : Reuss Voigt Hill
#
# Bulk Modulus (GPa) = 45.34758 70.09812 57.72285
# Shear Modulus (GPa) = 14.19967 42.48122 28.34044
#
# Velocity S-wave (km/s) = 2.26135 3.91135 3.19471
# Velocity P-wave (km/s) = 4.81136 6.75593 5.86480
#
# Compressibility (1/GPa) = 0.02205189
#
# Stress axis : x y z
#
# Youngs Moduli (GPa) = 155.28887 46.07879 151.03235
#
# Poissons Ratio (x) = -0.01887 0.25549
# Poissons Ratio (y) = -0.06360 0.76624
# Poissons Ratio (z) = 0.26269 0.23377
#
# Static dielectric constant tensor:
#      x y z
#    x 2.291120 0.000000 0.027610 
#    y 0.000000 2.237970 0.000000 
#    z 0.027610 0.000000 2.253520 
# 
# From -- ./inp_files/33648.got.cif
#   From: 2010.05.17/outbox.cif.g08.bks.cpg/sg15_17_cif.got.tgz:33648.got - 2010.06.03 18:47:42.
