data_PCOD9260694
_publ_section_title
;
Structure prediction by ZEFSAII (Michael W. Deem and Ramdas Pophale) SiO2 
 PCOD9260694
Probable space group: C 2/C
;
_chemical_formula_sum "Si O2"
_cell_formula_units_Z 60
_cell_length_a 21.653542
_cell_length_b 14.255789
_cell_length_c 22.132081
_cell_angle_alpha 90.000000
_cell_angle_beta 27.500419
_cell_angle_gamma 90.000000
_cell_volume 3154.671608
_symmetry_space_group_name_H-M "C 2/C"
_symmetry_group_IT_number 15
_symmetry_cell_setting 'monoclinic'
loop_
_space_group_symop_operation_xyz
x,y,z
-x,y,1/2-z
-x,-y,-z
x,-y,1/2+z
1/2+x,1/2+y,z
1/2-x,1/2+y,1/2-z
1/2-x,1/2-y,-z
1/2+x,1/2-y,1/2+z
loop_
_atom_site_type_symbol
_atom_site_label
_atom_site_fract_x
_atom_site_fract_y
_atom_site_fract_z
Si Si1 0.088372 0.774993 0.086667
Si Si2 0.091457 0.469479 0.862037
Si Si3 0.836963 0.328637 0.604988
Si Si4 0.720674 0.294803 0.175914
Si Si5 0.280171 0.504966 0.371837
Si Si6 0.650020 0.175319 0.808950
Si Si7 0.560966 0.060895 0.133793
Si Si8 0.500000 0.570227 0.750000
O O1 0.939732 0.783223 0.185917
O O2 0.092297 0.671592 0.111945
O O3 0.094400 0.856524 0.131569
O O4 0.206692 0.773676 0.934945
O O5 0.151142 0.373934 0.837596
O O6 0.177541 0.563889 0.778415
O O7 0.022930 0.451474 0.856435
O O8 0.000000 0.500000 0.000000
O O9 0.765537 0.410983 0.629606
O O10 0.741427 0.238459 0.686285
O O11 0.988230 0.312217 0.448855
O O12 0.746506 0.402948 0.134096
O O13 0.798972 0.291034 0.170190
O O14 0.190369 0.502167 0.509413
O O15 0.431468 0.496006 0.260792
O O16 0.500000 0.031323 0.250000
#
# Coordination Sequence:
#
# PCOD9260694 Si02
#       8
#     8   8   8   8   8   8   8   4
#     4  10  20  32  53  88 125 158 193 235 293 377
#     4  10  18  38  61  90 118 164 200 239 302 371
#     4  11  21  40  66  88 118 156 209 249 301 362
#     4  10  19  33  56  86 122 156 195 237 300 356
#     4  10  20  38  58  80 120 166 188 237 310 369
#     4  11  20  36  65  90 114 160 201 253 293 356
#     4  11  20  32  58  89 122 154 200 246 287 359
#     4  10  22  34  56  82 124 160 190 240 318 366
#
# _framework density 19.019411999999999
#
# number of rings (size 3 to 8) (size 9 to 14) (size 15 to 20)
#    0.000    1.600    4.667    4.000    1.867    1.600 
#    0.000    2.000    1.467    1.600    0.000    0.000 
#    0.000    0.000    0.000    0.000    0.000    0.000 
#
# Total GULP energy -167073.268862 kJ/mol
# GULP energy per Si atom -5569.108962 kJ/mol
# Density = 1.897612 g / cm^3
# Si number density = 19.019412 Si / 1000 Ang^3
#
#
#
# Elastic Constant Matrix: (Units=GPa)
#
#
# Indices 1 2 3 4 5 6 
#
# 1 76.5385 4.9152 19.7249 -0.0005 -3.5434 0.0002
# 2 4.9152 41.8018 12.3273 -0.0005 -16.4083 0.0002
# 3 19.7249 12.3273 43.5477 -0.0007 -11.6029 0.0004
# 4 -0.0005 -0.0005 -0.0007 23.3107 0.0003 -11.4304
# 5 -3.5434 -16.4083 -11.6029 0.0003 24.2336 -0.0002
# 6 0.0002 0.0002 0.0004 -11.4304 -0.0002 23.9088
#
#
#
# Elastic Compliance Matrix: (Units=1/GPa)
#
#
# Indices 1 2 3 4 5 6 
#
# 1 0.014824 -0.000194 -0.007011 0.000000 -0.001321 0.000000
# 2 -0.000194 0.033153 -0.003810 0.000000 0.020595 0.000000
# 3 -0.007011 -0.003810 0.030097 0.000000 0.010805 0.000000
# 4 0.000000 0.000000 0.000000 0.056035 0.000000 0.026789
# 5 -0.001321 0.020595 0.010805 0.000000 0.060190 0.000000
# 6 0.000000 0.000000 0.000000 0.026789 0.000000 0.054633
#
#
# Mechanical properties :
#
#
# Convention : Reuss Voigt Hill
#
# Bulk Modulus (GPa) = 17.84333 26.20252 22.02292
# Shear Modulus (GPa) = 17.26270 22.61865 19.94068
#
# Velocity S-wave (km/s) = 3.01597 3.45228 3.24147
# Velocity P-wave (km/s) = 4.64005 5.44955 5.06101
#
# Compressibility (1/GPa) = 0.05604336
#
# Stress axis : x y z
#
# Youngs Moduli (GPa) = 67.46039 30.16345 33.22643
#
# Poissons Ratio (x) = 0.00585 0.23296
# Poissons Ratio (y) = 0.01307 0.12658
# Poissons Ratio (z) = 0.47299 0.11491
#
# Static dielectric constant tensor:
#      x y z
#    x 1.718320 0.000000 -0.019970 
#    y 0.000000 1.670880 0.000000 
#    z -0.019970 0.000000 1.738580 
# 
# From -- ./inp_files/253032.got.cif
#   From: 2010.05.17/outbox.cif.g08.bks.cpg/sg15_127_cif.got.tgz:253032.got - 2010.06.03 18:47:42.
