data_PCOD9260735
_publ_section_title
;
Structure prediction by ZEFSAII (Michael W. Deem and Ramdas Pophale) SiO2 
 PCOD9260735
Probable space group: C 2/C
;
_chemical_formula_sum "Si O2"
_cell_formula_units_Z 56
_cell_length_a 12.943780
_cell_length_b 19.797621
_cell_length_c 25.905723
_cell_angle_alpha 90.000000
_cell_angle_beta 152.758045
_cell_angle_gamma 90.000000
_cell_volume 3038.766489
_symmetry_space_group_name_H-M "C 2/C"
_symmetry_group_IT_number 15
_symmetry_cell_setting 'monoclinic'
loop_
_space_group_symop_operation_xyz
x,y,z
-x,y,1/2-z
-x,-y,-z
x,-y,1/2+z
1/2+x,1/2+y,z
1/2-x,1/2+y,1/2-z
1/2-x,1/2-y,-z
1/2+x,1/2-y,1/2+z
loop_
_atom_site_type_symbol
_atom_site_label
_atom_site_fract_x
_atom_site_fract_y
_atom_site_fract_z
Si Si1 0.850371 0.127860 0.236051
Si Si2 0.758694 0.905938 0.516437
Si Si3 0.651529 0.666140 0.868907
Si Si4 0.573823 0.037958 0.480719
Si Si5 0.595073 0.839278 0.347137
Si Si6 0.737763 0.259835 0.247573
Si Si7 0.457112 0.776020 0.021526
O O1 0.752977 0.197937 0.215000
O O2 0.000000 0.135888 0.250000
O O3 0.001861 0.095832 0.348752
O O4 0.643941 0.079078 0.133219
O O5 0.741277 0.888010 0.448486
O O6 0.633582 0.844956 0.492429
O O7 0.646309 0.977938 0.475549
O O8 0.500000 0.657030 0.750000
O O9 0.728129 0.592894 0.922947
O O10 0.502779 0.712135 0.840979
O O11 0.878447 0.704216 0.951739
O O12 0.500000 0.000000 0.500000
O O13 0.500000 0.861888 0.250000
O O14 0.372928 0.820367 0.280794
O O15 0.750236 0.771516 0.413267
O O16 0.888985 0.241889 0.365462
#
# Coordination Sequence:
#
# PCOD9260735 Si02
#       7
#     8   8   8   8   8   8   8
#     4  12  22  37  65  94 125 167 207 256 312 386
#     4  11  22  40  61  92 130 165 211 252 308 379
#     4  10  23  38  60  95 137 159 197 266 327 365
#     4  12  25  37  61  94 131 168 200 249 324 389
#     4  11  22  38  66  90 120 167 223 259 301 364
#     4  10  21  37  61  93 127 162 205 266 319 364
#     4  10  18  38  62  92 126 160 208 262 314 373
#
# _framework density 18.428531
#
# number of rings (size 3 to 8) (size 9 to 14) (size 15 to 20)
#    0.000    1.143    5.714    1.286    4.000    0.571 
#    0.000    0.000    0.000    6.000    0.000    0.000 
#    0.000    0.000    0.000    0.000    0.000    0.000 
#
# Total GULP energy -156300.389199 kJ/mol
# GULP energy per Si atom -5582.156757 kJ/mol
# Density = 1.838659 g / cm^3
# Si number density = 18.428531 Si / 1000 Ang^3
#
#
#
# Elastic Constant Matrix: (Units=GPa)
#
#
# Indices 1 2 3 4 5 6 
#
# 1 60.4250 32.1811 50.4352 -0.0011 -8.0334 0.0006
# 2 32.1811 99.8756 53.6814 -0.0010 -5.8149 0.0001
# 3 50.4352 53.6814 115.4742 -0.0039 -12.0579 -0.0002
# 4 -0.0011 -0.0010 -0.0039 26.2625 -0.0018 -3.9957
# 5 -8.0334 -5.8149 -12.0579 -0.0018 34.0448 0.0002
# 6 0.0006 0.0001 -0.0002 -3.9957 0.0002 25.5586
#
#
#
# Elastic Compliance Matrix: (Units=1/GPa)
#
#
# Indices 1 2 3 4 5 6 
#
# 1 0.026919 -0.003132 -0.010066 0.000000 0.002252 -0.000001
# 2 -0.003132 0.013712 -0.005025 0.000000 -0.000177 0.000000
# 3 -0.010066 -0.005025 0.015633 0.000002 0.002303 0.000001
# 4 0.000000 0.000000 0.000002 0.039005 0.000003 0.006098
# 5 0.002252 -0.000177 0.002303 0.000003 0.030690 0.000000
# 6 -0.000001 0.000000 0.000001 0.006098 0.000000 0.040079
#
#
# Mechanical properties :
#
#
# Convention : Reuss Voigt Hill
#
# Bulk Modulus (GPa) = 50.45992 60.93003 55.69497
# Shear Modulus (GPa) = 23.91317 26.47166 25.19242
#
# Velocity S-wave (km/s) = 3.60615 3.79416 3.70135
# Velocity P-wave (km/s) = 6.69178 7.23387 6.96810
#
# Compressibility (1/GPa) = 0.01981771
#
# Stress axis : x y z
#
# Youngs Moduli (GPa) = 37.14888 72.92778 63.96747
#
# Poissons Ratio (x) = 0.22842 0.64390
# Poissons Ratio (y) = 0.11635 0.32143
# Poissons Ratio (z) = 0.37394 0.36646
#
# Static dielectric constant tensor:
#      x y z
#    x 1.660760 0.000000 -0.022520 
#    y 0.000000 1.632320 0.000000 
#    z -0.022520 0.000000 1.681540 
# 
# From -- ./inp_files/270953.got.cif
#   From: 2010.05.17/outbox.cif.g08.bks.cpg/sg15_136_cif.got.tgz:270953.got - 2010.06.03 18:47:42.
