data_PCOD9260626
_publ_section_title
;
Structure prediction by ZEFSAII (Michael W. Deem and Ramdas Pophale) SiO2 
 PCOD9260626
Probable space group: C 2/C
;
_chemical_formula_sum "Si O2"
_cell_formula_units_Z 56
_cell_length_a 9.598732
_cell_length_b 20.750265
_cell_length_c 16.398443
_cell_angle_alpha 90.000000
_cell_angle_beta 82.722289
_cell_angle_gamma 90.000000
_cell_volume 3239.867091
_symmetry_space_group_name_H-M "C 2/C"
_symmetry_group_IT_number 15
_symmetry_cell_setting 'monoclinic'
loop_
_space_group_symop_operation_xyz
x,y,z
-x,y,1/2-z
-x,-y,-z
x,-y,1/2+z
1/2+x,1/2+y,z
1/2-x,1/2+y,1/2-z
1/2-x,1/2-y,-z
1/2+x,1/2-y,1/2+z
loop_
_atom_site_type_symbol
_atom_site_label
_atom_site_fract_x
_atom_site_fract_y
_atom_site_fract_z
Si Si1 0.493096 0.614351 0.345258
Si Si2 0.305813 0.440391 0.529811
Si Si3 0.488898 0.652248 0.934520
Si Si4 0.438849 0.232696 0.339993
Si Si5 0.113456 0.235162 0.406448
Si Si6 0.769699 0.088198 0.493250
Si Si7 0.967367 0.356607 0.989422
O O1 0.500000 0.597836 0.250000
O O2 0.615766 0.581757 0.392414
O O3 0.514881 0.691629 0.356201
O O4 0.349132 0.594060 0.400343
O O5 0.407422 0.414965 0.449260
O O6 0.289286 0.516429 0.525622
O O7 0.159008 0.404075 0.526023
O O8 0.485401 0.693690 0.854000
O O9 0.402653 0.696917 0.006032
O O10 0.643536 0.638419 0.956922
O O11 0.500000 0.210597 0.250000
O O12 0.270246 0.230808 0.360191
O O13 0.495925 0.188314 0.408707
O O14 0.074723 0.307929 0.433807
O O15 0.608063 0.105924 0.500237
#
# Coordination Sequence:
#
# PCOD9260626 Si02
#       7
#     8   8   8   8   8   8   8
#     4  10  21  36  57  82 110 139 178 233 275 313
#     4  10  18  38  59  74 109 148 185 212 266 325
#     4   9  17  36  55  75 107 141 182 218 262 322
#     4  11  20  32  57  83 109 142 179 226 285 329
#     4   9  18  36  55  76 110 145 170 220 284 321
#     4  10  22  33  56  87 102 145 194 220 254 321
#     4  11  19  35  59  81 112 141 183 227 263 329
#
# _framework density 17.284659999999999
#
# number of rings (size 3 to 8) (size 9 to 14) (size 15 to 20)
#    0.000    2.286    4.286    3.000    2.000    5.143 
#    0.000    2.857    0.000    0.000    0.000    0.000 
#    0.000    0.000    0.000    0.000    0.000    0.000 
#
# Total GULP energy -155930.019605 kJ/mol
# GULP energy per Si atom -5568.929272 kJ/mol
# Density = 1.724532 g / cm^3
# Si number density = 17.284660 Si / 1000 Ang^3
#
#
#
# Elastic Constant Matrix: (Units=GPa)
#
#
# Indices 1 2 3 4 5 6 
#
# 1 98.1782 28.1275 10.2590 0.0000 -4.2763 0.0000
# 2 28.1275 72.5037 20.9670 0.0000 2.0227 0.0000
# 3 10.2590 20.9670 53.1305 0.0000 0.9829 0.0000
# 4 0.0000 0.0000 0.0000 8.9564 0.0000 0.6865
# 5 -4.2763 2.0227 0.9829 0.0000 9.2383 0.0000
# 6 0.0000 0.0000 0.0000 0.6865 0.0000 22.6515
#
#
#
# Elastic Compliance Matrix: (Units=1/GPa)
#
#
# Indices 1 2 3 4 5 6 
#
# 1 0.011854 -0.004611 -0.000591 0.000000 0.006559 0.000000
# 2 -0.004611 0.017433 -0.005891 0.000000 -0.005325 0.000000
# 3 -0.000591 -0.005891 0.021283 0.000000 -0.001248 0.000000
# 4 0.000000 0.000000 0.000000 0.111912 0.000000 -0.003392
# 5 0.006559 -0.005325 -0.001248 0.000000 0.112580 0.000000
# 6 0.000000 0.000000 0.000000 -0.003392 0.000000 0.044250
#
#
# Mechanical properties :
#
#
# Convention : Reuss Voigt Hill
#
# Bulk Modulus (GPa) = 35.22883 38.05773 36.64328
# Shear Modulus (GPa) = 14.24664 19.13317 16.68990
#
# Velocity S-wave (km/s) = 2.87407 3.33069 3.11077
# Velocity P-wave (km/s) = 5.60709 6.07102 5.84366
#
# Compressibility (1/GPa) = 0.02838584
#
# Stress axis : x y z
#
# Youngs Moduli (GPa) = 84.35986 57.36157 46.98484
#
# Poissons Ratio (x) = 0.26449 0.02775
# Poissons Ratio (y) = 0.38897 0.27678
# Poissons Ratio (z) = 0.04983 0.33791
#
# Static dielectric constant tensor:
#      x y z
#    x 1.599960 0.000000 0.007530 
#    y 0.000000 1.628730 0.000000 
#    z 0.007530 0.000000 1.593860 
# 
# From -- ./inp_files/191596.got.cif
#   From: 2010.05.17/outbox.cif.g08.bks.cpg/sg15_96_cif.got.tgz:191596.got - 2010.06.03 18:47:42.
