data_PCOD9260139
_publ_section_title
;
Structure prediction by ZEFSAII (Michael W. Deem and Ramdas Pophale) SiO2 
 PCOD9260139
Probable space group: C 2/C
;
_chemical_formula_sum "Si O2"
_cell_formula_units_Z 64
_cell_length_a 28.948968
_cell_length_b 12.099363
_cell_length_c 17.031193
_cell_angle_alpha 90.000000
_cell_angle_beta 29.449917
_cell_angle_gamma 90.000000
_cell_volume 2932.971353
_symmetry_space_group_name_H-M "C 2/C"
_symmetry_group_IT_number 15
_symmetry_cell_setting 'monoclinic'
loop_
_space_group_symop_operation_xyz
x,y,z
-x,y,1/2-z
-x,-y,-z
x,-y,1/2+z
1/2+x,1/2+y,z
1/2-x,1/2+y,1/2-z
1/2-x,1/2-y,-z
1/2+x,1/2-y,1/2+z
loop_
_atom_site_type_symbol
_atom_site_label
_atom_site_fract_x
_atom_site_fract_y
_atom_site_fract_z
Si Si1 0.659734 0.916722 0.665215
Si Si2 0.937466 0.847616 0.420865
Si Si3 0.827333 0.976117 0.159044
Si Si4 0.951755 0.366826 0.988635
Si Si5 0.394308 0.949223 0.916553
Si Si6 0.226510 0.615436 0.652385
Si Si7 0.193898 0.656600 0.423515
Si Si8 0.779123 0.737053 0.286530
O O1 0.548660 0.933394 0.850027
O O2 0.662900 0.891809 0.568062
O O3 0.691161 0.822377 0.678032
O O4 0.719540 0.026967 0.593516
O O5 0.978890 0.754774 0.417496
O O6 0.832039 0.796263 0.559648
O O7 0.000000 0.857723 0.250000
O O8 0.922014 0.963590 0.488679
O O9 0.777107 0.948440 0.149725
O O10 0.815154 0.862925 0.225367
O O11 0.778568 0.069475 0.285366
O O12 0.883914 0.422877 0.023092
O O13 0.881621 0.358336 0.164807
O O14 0.500000 0.910043 0.750000
O O15 0.384204 0.080273 0.921413
O O16 0.278426 0.733103 0.571360
O O17 0.172823 0.687169 0.363998
#
# Coordination Sequence:
#
# PCOD9260139 Si02
#       8
#     8   8   8   8   8   8   8   8
#     4  11  22  35  60  98 124 154 216 269 310 357
#     4  11  20  37  65  93 127 165 209 261 326 375
#     4  10  18  37  66  86 119 165 210 246 313 385
#     4  11  20  38  61  91 120 164 210 265 314 373
#     4  10  21  36  58  95 130 160 204 274 318 363
#     4  11  19  36  65  87 117 165 210 259 301 386
#     4  10  18  36  63  83 118 167 210 238 322 384
#     4  10  20  39  65  88 120 169 218 249 307 395
#
# _framework density 21.820874
#
# number of rings (size 3 to 8) (size 9 to 14) (size 15 to 20)
#    0.000    1.500    7.500    1.500    0.000    1.500 
#    0.000    8.750    2.750    0.000    0.000    0.000 
#    0.000    0.000    0.000    0.000    0.000    0.000 
#
# Total GULP energy -178217.531474 kJ/mol
# GULP energy per Si atom -5569.297859 kJ/mol
# Density = 2.177121 g / cm^3
# Si number density = 21.820874 Si / 1000 Ang^3
#
#
#
# Elastic Constant Matrix: (Units=GPa)
#
#
# Indices 1 2 3 4 5 6 
#
# 1 77.3720 42.7191 0.4832 0.0000 -7.4662 0.0000
# 2 42.7191 147.4143 9.3609 0.0000 4.0765 0.0000
# 3 0.4832 9.3609 36.2248 0.0000 7.1291 0.0000
# 4 0.0000 0.0000 0.0000 29.2428 0.0000 -1.0067
# 5 -7.4662 4.0765 7.1291 0.0000 14.7532 0.0000
# 6 0.0000 0.0000 0.0000 -1.0067 0.0000 24.9268
#
#
#
# Elastic Compliance Matrix: (Units=1/GPa)
#
#
# Indices 1 2 3 4 5 6 
#
# 1 0.016728 -0.005073 -0.000944 0.000000 0.010323 0.000000
# 2 -0.005073 0.008453 -0.001273 0.000000 -0.004288 0.000000
# 3 -0.000944 -0.001273 0.030911 0.000000 -0.015063 0.000000
# 4 0.000000 0.000000 0.000000 0.034244 0.000000 0.001383
# 5 0.010323 -0.004288 -0.015063 0.000000 0.081470 0.000000
# 6 0.000000 0.000000 0.000000 0.001383 0.000000 0.040173
#
#
# Mechanical properties :
#
#
# Convention : Reuss Voigt Hill
#
# Bulk Modulus (GPa) = 24.08904 40.68194 32.38549
# Shear Modulus (GPa) = 20.79900 27.68108 24.24004
#
# Velocity S-wave (km/s) = 3.09069 3.56555 3.33658
# Velocity P-wave (km/s) = 4.87852 5.96950 5.45137
#
# Compressibility (1/GPa) = 0.04151265
#
# Stress axis : x y z
#
# Youngs Moduli (GPa) = 59.78147 118.29967 32.35059
#
# Poissons Ratio (x) = 0.60014 0.03053
# Poissons Ratio (y) = 0.30327 0.04118
# Poissons Ratio (z) = 0.05643 0.15057
#
# Static dielectric constant tensor:
#      x y z
#    x 1.813690 0.000000 -0.006060 
#    y 0.000000 1.871420 0.000000 
#    z -0.006060 0.000000 1.862760 
# 
# From -- ./inp_files/225174.got.cif
#   From: 2010.05.17/outbox.cif.g08.bks.cpg/sg15_113_cif.got.tgz:225174.got - 2010.06.03 18:47:42.
