data_PCOD9260792
_publ_section_title
;
Structure prediction by ZEFSAII (Michael W. Deem and Ramdas Pophale) SiO2 
 PCOD9260792
Probable space group: C 2/C
;
_chemical_formula_sum "Si O2"
_cell_formula_units_Z 56
_cell_length_a 28.192267
_cell_length_b 8.945825
_cell_length_c 11.664096
_cell_angle_alpha 90.000000
_cell_angle_beta 58.730271
_cell_angle_gamma 90.000000
_cell_volume 2514.386583
_symmetry_space_group_name_H-M "C 2/C"
_symmetry_group_IT_number 15
_symmetry_cell_setting 'monoclinic'
loop_
_space_group_symop_operation_xyz
x,y,z
-x,y,1/2-z
-x,-y,-z
x,-y,1/2+z
1/2+x,1/2+y,z
1/2-x,1/2+y,1/2-z
1/2-x,1/2-y,-z
1/2+x,1/2-y,1/2+z
loop_
_atom_site_type_symbol
_atom_site_label
_atom_site_fract_x
_atom_site_fract_y
_atom_site_fract_z
Si Si1 0.000000 0.941996 0.750000
Si Si2 0.716202 0.963105 0.823462
Si Si3 0.369635 0.159862 0.241637
Si Si4 0.592857 0.682719 0.606832
Si Si5 0.825463 0.793106 0.698749
Si Si6 0.457524 0.806645 0.440610
Si Si7 0.000000 0.565663 0.250000
Si Si8 0.640658 0.147485 0.618784
O O1 0.054543 0.042694 0.681675
O O2 0.004800 0.835436 0.633361
O O3 0.682772 0.859128 0.775277
O O4 0.780437 0.922616 0.739156
O O5 0.700757 0.133969 0.811653
O O6 0.690931 0.913551 0.977387
O O7 0.362586 0.281100 0.350207
O O8 0.377326 0.995233 0.284394
O O9 0.424661 0.197437 0.099711
O O10 0.621842 0.676873 0.447912
O O11 0.551910 0.824918 0.668392
O O12 0.841447 0.770662 0.811574
O O13 0.408669 0.807550 0.404981
O O14 0.493296 0.953283 0.366327
#
# Coordination Sequence:
#
# PCOD9260792 Si02
#       8
#     4   8   8   8   8   8   4   8
#     4  10  26  44  58  94 136 162 206 258 314 376
#     4  10  22  40  65  94 125 158 215 253 320 366
#     4  10  20  39  69  91 123 163 211 257 296 381
#     4  11  22  43  61  91 128 168 209 247 317 367
#     4  11  23  41  63  92 124 167 206 264 307 380
#     4  10  21  41  63  98 126 158 212 256 310 363
#     4  10  18  38  64  88 120 166 212 248 290 372
#     4  10  19  41  66  94 122 165 207 263 305 370
#
# _framework density 22.271833000000001
#
# number of rings (size 3 to 8) (size 9 to 14) (size 15 to 20)
#    0.000    1.714    2.857    2.143    0.000    4.000 
#   15.429    0.000    0.000    0.000    0.000    0.000 
#    0.000    0.000    0.000    0.000    0.000    0.000 
#
# Total GULP energy -156515.611071 kJ/mol
# GULP energy per Si atom -5589.843253 kJ/mol
# Density = 2.222114 g / cm^3
# Si number density = 22.271833 Si / 1000 Ang^3
#
#
#
# Elastic Constant Matrix: (Units=GPa)
#
#
# Indices 1 2 3 4 5 6 
#
# 1 56.6523 16.8698 22.5323 0.0000 -7.7180 0.0000
# 2 16.8698 76.2062 6.9110 0.0000 -4.2136 0.0000
# 3 22.5323 6.9110 48.3283 0.0000 10.5316 0.0000
# 4 0.0000 0.0000 0.0000 14.1052 0.0000 -4.4020
# 5 -7.7180 -4.2136 10.5316 0.0000 31.8268 0.0000
# 6 0.0000 0.0000 0.0000 -4.4020 0.0000 24.4322
#
#
#
# Elastic Compliance Matrix: (Units=1/GPa)
#
#
# Indices 1 2 3 4 5 6 
#
# 1 0.025606 -0.003870 -0.013608 0.000000 0.010200 0.000000
# 2 -0.003870 0.014078 -0.000442 0.000000 0.001072 0.000000
# 3 -0.013608 -0.000442 0.029994 0.000000 -0.013284 0.000000
# 4 0.000000 0.000000 0.000000 0.075120 0.000000 0.013534
# 5 0.010200 0.001072 -0.013284 0.000000 0.038431 0.000000
# 6 0.000000 0.000000 0.000000 0.013534 0.000000 0.043368
#
#
# Mechanical properties :
#
#
# Convention : Reuss Voigt Hill
#
# Bulk Modulus (GPa) = 29.55263 30.42368 29.98815
# Shear Modulus (GPa) = 18.26708 23.06443 20.66576
#
# Velocity S-wave (km/s) = 2.86700 3.22155 3.04943
# Velocity P-wave (km/s) = 4.92518 5.24668 5.08847
#
# Compressibility (1/GPa) = 0.03383793
#
# Stress axis : x y z
#
# Youngs Moduli (GPa) = 39.05376 71.03061 33.33994
#
# Poissons Ratio (x) = 0.27491 0.45367
# Poissons Ratio (y) = 0.15115 0.01475
# Poissons Ratio (z) = 0.53142 0.03142
#
# Static dielectric constant tensor:
#      x y z
#    x 1.888030 0.000000 0.028980 
#    y 0.000000 1.818640 0.000000 
#    z 0.028980 0.000000 1.809470 
# 
# From -- ./inp_files/121920.got.cif
#   From: 2010.05.17/outbox.cif.g08.bks.cpg/sg15_61_cif.got.tgz:121920.got - 2010.06.03 18:47:42.
