data_PCOD9260868
_publ_section_title
;
Structure prediction by ZEFSAII (Michael W. Deem and Ramdas Pophale) SiO2 
 PCOD9260868
Probable space group: C 2/C
;
_chemical_formula_sum "Si O2"
_cell_formula_units_Z 40
_cell_length_a 12.824581
_cell_length_b 12.201825
_cell_length_c 10.327551
_cell_angle_alpha 90.000000
_cell_angle_beta 80.452352
_cell_angle_gamma 90.000000
_cell_volume 1593.703130
_symmetry_space_group_name_H-M "C 2/C"
_symmetry_group_IT_number 15
_symmetry_cell_setting 'monoclinic'
loop_
_space_group_symop_operation_xyz
x,y,z
-x,y,1/2-z
-x,-y,-z
x,-y,1/2+z
1/2+x,1/2+y,z
1/2-x,1/2+y,1/2-z
1/2-x,1/2-y,-z
1/2+x,1/2-y,1/2+z
loop_
_atom_site_type_symbol
_atom_site_label
_atom_site_fract_x
_atom_site_fract_y
_atom_site_fract_z
Si Si1 0.915287 0.926147 0.381710
Si Si2 0.883882 0.360352 0.562673
Si Si3 0.756190 0.255204 0.816431
Si Si4 0.375140 0.114453 0.497628
Si Si5 0.949336 0.158222 0.401868
O O1 0.834107 0.844490 0.333373
O O2 0.000000 0.939438 0.250000
O O3 0.968999 0.875464 0.499114
O O4 0.876277 0.048991 0.418687
O O5 0.798043 0.310641 0.677960
O O6 0.866394 0.486693 0.530657
O O7 0.892132 0.271336 0.446881
O O8 0.008001 0.362816 0.584636
O O9 0.646220 0.193683 0.873186
O O10 0.785191 0.348626 0.915428
O O11 0.000000 0.164795 0.250000
#
# Coordination Sequence:
#
# PCOD9260868 Si02
#       5
#     8   8   8   8   8
#     4  10  18  38  66  94 134 192 228 279 356 419
#     4  11  22  45  70  99 143 180 229 298 350 421
#     4  11  21  45  71  98 135 186 240 280 354 430
#     4  10  24  41  70 102 130 189 231 286 358 422
#     4  10  21  35  65 101 136 182 234 284 349 411
#
# _framework density 25.098776999999998
#
# number of rings (size 3 to 8) (size 9 to 14) (size 15 to 20)
#    0.000    1.600    4.000    0.600    0.000    3.200 
#   14.400    1.000    0.000    0.000    0.000    0.000 
#    0.000    0.000    0.000    0.000    0.000    0.000 
#
# Total GULP energy -111742.587638 kJ/mol
# GULP energy per Si atom -5587.129382 kJ/mol
# Density = 2.504165 g / cm^3
# Si number density = 25.098777 Si / 1000 Ang^3
#
#
#
# Elastic Constant Matrix: (Units=GPa)
#
#
# Indices 1 2 3 4 5 6 
#
# 1 78.8084 36.1284 15.8803 0.0000 -4.8044 0.0000
# 2 36.1284 252.8106 76.8377 0.0000 -9.0908 0.0000
# 3 15.8803 76.8377 154.0826 0.0000 -12.6849 0.0000
# 4 0.0000 0.0000 0.0000 25.7791 0.0000 -7.7189
# 5 -4.8044 -9.0908 -12.6849 0.0000 29.6992 0.0000
# 6 0.0000 0.0000 0.0000 -7.7189 0.0000 16.3528
#
#
#
# Elastic Compliance Matrix: (Units=1/GPa)
#
#
# Indices 1 2 3 4 5 6 
#
# 1 0.013676 -0.001779 -0.000399 0.000000 0.001497 0.000000
# 2 -0.001779 0.004899 -0.002239 0.000000 0.000256 0.000000
# 3 -0.000399 -0.002239 0.007862 0.000000 0.002608 0.000000
# 4 0.000000 0.000000 0.000000 0.045176 0.000000 0.021324
# 5 0.001497 0.000256 0.002608 0.000000 0.035105 0.000000
# 6 0.000000 0.000000 0.000000 0.021324 0.000000 0.071217
#
#
# Mechanical properties :
#
#
# Convention : Reuss Voigt Hill
#
# Bulk Modulus (GPa) = 56.80549 82.59938 69.70244
# Shear Modulus (GPa) = 25.95525 38.15657 32.05591
#
# Velocity S-wave (km/s) = 3.21927 3.90328 3.57766
# Velocity P-wave (km/s) = 6.04154 7.30036 6.70057
#
# Compressibility (1/GPa) = 0.01760393
#
# Stress axis : x y z
#
# Youngs Moduli (GPa) = 73.11872 204.10422 127.18887
#
# Poissons Ratio (x) = 0.36317 0.05074
# Poissons Ratio (y) = 0.13010 0.28475
# Poissons Ratio (z) = 0.02917 0.45695
#
# Static dielectric constant tensor:
#      x y z
#    x 2.147290 0.000000 -0.007200 
#    y 0.000000 1.972340 0.000000 
#    z -0.007200 0.000000 2.041250 
# 
# From -- ./inp_files/94855.got.cif
#   From: 2010.05.17/outbox.cif.g08.bks.cpg/sg15_48_cif.got.tgz:94855.got - 2010.06.03 18:47:42.
