data_PCOD9260761
_publ_section_title
;
Structure prediction by ZEFSAII (Michael W. Deem and Ramdas Pophale) SiO2 
 PCOD9260761
Probable space group: C 2/C
;
_chemical_formula_sum "Si O2"
_cell_formula_units_Z 60
_cell_length_a 11.205489
_cell_length_b 19.909351
_cell_length_c 24.956944
_cell_angle_alpha 90.000000
_cell_angle_beta 148.157856
_cell_angle_gamma 90.000000
_cell_volume 2937.435218
_symmetry_space_group_name_H-M "C 2/C"
_symmetry_group_IT_number 15
_symmetry_cell_setting 'monoclinic'
loop_
_space_group_symop_operation_xyz
x,y,z
-x,y,1/2-z
-x,-y,-z
x,-y,1/2+z
1/2+x,1/2+y,z
1/2-x,1/2+y,1/2-z
1/2-x,1/2-y,-z
1/2+x,1/2-y,1/2+z
loop_
_atom_site_type_symbol
_atom_site_label
_atom_site_fract_x
_atom_site_fract_y
_atom_site_fract_z
Si Si1 0.370562 0.858781 0.336053
Si Si2 0.380574 0.485133 0.652235
Si Si3 0.337261 0.248416 0.971678
Si Si4 0.800123 0.496502 0.252043
Si Si5 0.749438 0.481848 0.109024
Si Si6 0.683102 0.178271 0.865420
Si Si7 0.965389 0.598757 0.989444
Si Si8 0.000000 0.764893 0.250000
O O1 0.276243 0.918708 0.262218
O O2 0.554809 0.815082 0.373673
O O3 0.474469 0.894904 0.428085
O O4 0.171485 0.811762 0.281697
O O5 0.500000 0.515392 0.750000
O O6 0.593571 0.463779 0.698449
O O7 0.219178 0.542168 0.566273
O O8 0.210121 0.425676 0.602073
O O9 0.388729 0.170217 0.980705
O O10 0.154484 0.270141 0.855501
O O11 0.250000 0.250000 0.000000
O O12 0.575906 0.286624 0.052614
O O13 0.780753 0.504122 0.181668
O O14 0.065238 0.511743 0.361595
O O15 0.779650 0.401819 0.122234
O O16 0.500000 0.500000 0.000000
O O17 0.500000 0.197345 0.750000
#
# Coordination Sequence:
#
# PCOD9260761 Si02
#       8
#     8   8   8   8   8   8   8   4
#     4  10  18  38  63  88 122 166 211 266 315 395
#     4  11  22  38  63  92 131 166 205 268 331 391
#     4  11  25  44  69  97 129 182 221 280 335 400
#     4  10  19  35  59  90 119 169 204 255 324 383
#     4  10  22  37  61  93 123 163 221 265 315 395
#     4  11  22  40  65  92 125 175 222 263 336 404
#     4  10  24  38  61  98 125 167 221 263 329 394
#     4  10  22  40  66  96 128 162 230 270 328 400
#
# _framework density 20.425982000000001
#
# number of rings (size 3 to 8) (size 9 to 14) (size 15 to 20)
#    0.000    1.600    4.000    2.400    6.533    2.667 
#    0.000    2.667    0.000    0.000    0.000    0.000 
#    0.000    0.000    0.000    0.000    0.000    0.000 
#
# Total GULP energy -167197.024202 kJ/mol
# GULP energy per Si atom -5573.234140 kJ/mol
# Density = 2.037949 g / cm^3
# Si number density = 20.425982 Si / 1000 Ang^3
#
#
#
# Elastic Constant Matrix: (Units=GPa)
#
#
# Indices 1 2 3 4 5 6 
#
# 1 128.7310 1.4792 58.5296 -0.0002 26.7811 -0.0004
# 2 1.4792 14.0491 14.2987 -0.0004 4.1736 -0.0004
# 3 58.5296 14.2987 140.8260 -0.0004 23.0974 -0.0004
# 4 -0.0002 -0.0004 -0.0004 29.1888 -0.0003 12.5690
# 5 26.7811 4.1736 23.0974 -0.0003 35.1066 -0.0002
# 6 -0.0004 -0.0004 -0.0004 12.5690 -0.0002 35.6660
#
#
#
# Elastic Compliance Matrix: (Units=1/GPa)
#
#
# Indices 1 2 3 4 5 6 
#
# 1 0.010801 0.004727 -0.003952 0.000000 -0.006201 0.000000
# 2 0.004727 0.082129 -0.009092 0.000001 -0.007388 0.000000
# 3 -0.003952 -0.009092 0.010083 0.000000 -0.002538 0.000000
# 4 0.000000 0.000001 0.000000 0.040389 0.000000 -0.014233
# 5 -0.006201 -0.007388 -0.002538 0.000000 0.035764 0.000000
# 6 0.000000 0.000000 0.000000 -0.014233 0.000000 0.033054
#
#
# Mechanical properties :
#
#
# Convention : Reuss Voigt Hill
#
# Bulk Modulus (GPa) = 11.57680 48.02456 29.80068
# Shear Modulus (GPa) = 19.40652 33.94553 26.67602
#
# Velocity S-wave (km/s) = 3.08570 4.08104 3.61776
# Velocity P-wave (km/s) = 4.28665 6.76528 5.66323
#
# Compressibility (1/GPa) = 0.08637968
#
# Stress axis : x y z
#
# Youngs Moduli (GPa) = 92.58671 12.17591 99.17846
#
# Poissons Ratio (x) = -0.05756 0.39193
# Poissons Ratio (y) = -0.43766 0.90171
# Poissons Ratio (z) = 0.36588 0.11070
#
# Static dielectric constant tensor:
#      x y z
#    x 2.387040 0.000020 0.831920 
#    y 0.000020 1.747120 0.000030 
#    z 0.831920 0.000030 2.932780 
# 
# From -- ./inp_files/293576.got.cif
#   From: 2010.05.17/outbox.cif.g08.bks.cpg/sg15_147_cif.got.tgz:293576.got - 2010.06.03 18:47:42.
