data_PCOD9260143
_publ_section_title
;
Structure prediction by ZEFSAII (Michael W. Deem and Ramdas Pophale) SiO2 
 PCOD9260143
Probable space group: C 2/C
;
_chemical_formula_sum "Si O2"
_cell_formula_units_Z 60
_cell_length_a 11.789334
_cell_length_b 16.291693
_cell_length_c 29.407062
_cell_angle_alpha 90.000000
_cell_angle_beta 148.417341
_cell_angle_gamma 90.000000
_cell_volume 2958.101032
_symmetry_space_group_name_H-M "C 2/C"
_symmetry_group_IT_number 15
_symmetry_cell_setting 'monoclinic'
loop_
_space_group_symop_operation_xyz
x,y,z
-x,y,1/2-z
-x,-y,-z
x,-y,1/2+z
1/2+x,1/2+y,z
1/2-x,1/2+y,1/2-z
1/2-x,1/2-y,-z
1/2+x,1/2-y,1/2+z
loop_
_atom_site_type_symbol
_atom_site_label
_atom_site_fract_x
_atom_site_fract_y
_atom_site_fract_z
Si Si1 0.052806 0.655236 0.716374
Si Si2 0.237496 0.612398 0.153659
Si Si3 0.194707 0.236089 0.104306
Si Si4 0.765800 0.198459 0.076388
Si Si5 0.260220 0.021818 0.772840
Si Si6 0.825296 0.875415 0.824273
Si Si7 0.000000 0.129610 0.750000
Si Si8 0.443064 0.765860 0.839369
O O1 0.049333 0.580402 0.680043
O O2 0.303044 0.684292 0.798348
O O3 0.000000 0.632368 0.750000
O O4 0.903374 0.731816 0.650631
O O5 0.500000 0.621971 0.250000
O O6 0.203286 0.624107 0.088955
O O7 0.173205 0.534099 0.161342
O O8 0.101099 0.684754 0.130095
O O9 0.234329 0.149907 0.144544
O O10 0.304866 0.309124 0.171086
O O11 0.316016 0.239708 0.097222
O O12 0.945331 0.258176 0.014312
O O13 0.931156 0.158044 0.097879
O O14 0.195750 0.963482 0.707932
O O15 0.065803 0.073668 0.729638
O O16 0.679603 0.817389 0.742062
#
# Coordination Sequence:
#
# PCOD9260143 Si02
#       8
#     8   8   8   8   8   8   4   8
#     4  11  20  39  64  90 123 162 211 251 310 374
#     4  11  18  39  66  87 118 167 210 248 310 380
#     4  12  23  36  65  94 127 155 217 265 298 360
#     4  11  21  39  64  94 121 168 207 259 304 367
#     4  11  22  35  68  88 124 163 206 251 313 375
#     4  10  20  39  58  89 121 164 204 245 315 367
#     4  12  20  40  58  94 116 162 212 262 298 366
#     4  10  18  36  63  85 114 162 211 250 291 370
#
# _framework density 20.283282
#
# number of rings (size 3 to 8) (size 9 to 14) (size 15 to 20)
#    0.000    1.067    8.667    1.200    0.000    2.667 
#    0.000    4.000    0.000    4.000    0.000    0.000 
#    0.000    0.000    0.000    0.000    0.000    0.000 
#
# Total GULP energy -167180.443747 kJ/mol
# GULP energy per Si atom -5572.681458 kJ/mol
# Density = 2.023712 g / cm^3
# Si number density = 20.283282 Si / 1000 Ang^3
#
#
#
# Elastic Constant Matrix: (Units=GPa)
#
#
# Indices 1 2 3 4 5 6 
#
# 1 115.0278 39.7647 6.5066 -0.0001 2.6778 0.0000
# 2 39.7647 79.3549 0.4957 0.0000 -3.5219 0.0000
# 3 6.5066 0.4957 22.6615 0.0003 6.8450 -0.0001
# 4 -0.0001 0.0000 0.0003 -2.3767 0.0000 11.4478
# 5 2.6778 -3.5219 6.8450 0.0000 20.0125 0.0000
# 6 0.0000 0.0000 -0.0001 11.4478 0.0000 8.5468
#
#
#
# Elastic Compliance Matrix: (Units=1/GPa)
#
#
# Indices 1 2 3 4 5 6 
#
# 1 0.010752 -0.005440 -0.002503 0.000000 -0.001540 0.000000
# 2 -0.005440 0.015477 0.000202 0.000000 0.003383 0.000000
# 3 -0.002503 0.000202 0.049884 0.000001 -0.016692 -0.000001
# 4 0.000000 0.000000 0.000001 -0.056465 0.000000 0.075630
# 5 -0.001540 0.003383 -0.016692 0.000000 0.056479 0.000000
# 6 0.000000 0.000000 -0.000001 0.075630 0.000000 0.015702
#
#
# Mechanical properties :
#
#
# Convention : Reuss Voigt Hill
#
# Bulk Modulus (GPa) = 16.49370 34.50870 25.50120
# Shear Modulus (GPa) = 39.20913 16.58833 27.89873
#
# Velocity S-wave (km/s) = 4.40145 2.86288 3.71274
# Velocity P-wave (km/s) = 5.82920 5.28946 5.56588
#
# Compressibility (1/GPa) = 0.06062920
#
# Stress axis : x y z
#
# Youngs Moduli (GPa) = 93.00851 64.61342 20.04659
#
# Poissons Ratio (x) = 0.35152 0.05017
# Poissons Ratio (y) = 0.50600 -0.00405
# Poissons Ratio (z) = 0.23279 -0.01304
#
# Static dielectric constant tensor:
#      x y z
#    x 1.781600 0.000000 -0.004670 
#    y 0.000000 1.783690 0.000000 
#    z -0.004670 0.000000 1.701590 
# 
# From -- ./inp_files/199121.got.cif
#   From: 2010.05.17/outbox.cif.g08.bks.cpg/sg15_100_cif.got.tgz:199121.got - 2010.06.03 18:47:42.
