data_PCOD9260477
_publ_section_title
;
Structure prediction by ZEFSAII (Michael W. Deem and Ramdas Pophale) SiO2 
 PCOD9260477
Probable space group: C 2/C
;
_chemical_formula_sum "Si O2"
_cell_formula_units_Z 48
_cell_length_a 23.198998
_cell_length_b 11.644224
_cell_length_c 11.035518
_cell_angle_alpha 90.000000
_cell_angle_beta 43.288724
_cell_angle_gamma 90.000000
_cell_volume 2044.047050
_symmetry_space_group_name_H-M "C 2/C"
_symmetry_group_IT_number 15
_symmetry_cell_setting 'monoclinic'
loop_
_space_group_symop_operation_xyz
x,y,z
-x,y,1/2-z
-x,-y,-z
x,-y,1/2+z
1/2+x,1/2+y,z
1/2-x,1/2+y,1/2-z
1/2-x,1/2-y,-z
1/2+x,1/2-y,1/2+z
loop_
_atom_site_type_symbol
_atom_site_label
_atom_site_fract_x
_atom_site_fract_y
_atom_site_fract_z
Si Si1 0.340662 0.316816 0.272120
Si Si2 0.922555 0.372012 0.180320
Si Si3 0.814816 0.931212 0.870125
Si Si4 0.936209 0.383500 0.736447
Si Si5 0.511394 0.640915 0.361948
Si Si6 0.256452 0.780663 0.315918
O O1 0.302429 0.433191 0.386359
O O2 0.369731 0.218465 0.321076
O O3 0.276308 0.272917 0.268986
O O4 0.426528 0.346554 0.066547
O O5 0.900320 0.486999 0.287241
O O6 0.946339 0.265840 0.228735
O O7 0.848304 0.333725 0.203144
O O8 0.005644 0.383246 0.972236
O O9 0.912388 0.916813 0.682299
O O10 0.759589 0.846645 0.870049
O O11 0.801120 0.871317 0.021488
O O12 0.000000 0.367426 0.750000
O O13 0.500000 0.580800 0.250000
#
# Coordination Sequence:
#
# PCOD9260477 Si02
#       6
#     8   8   8   8   8   8
#     4  11  23  38  63  93 126 163 208 272 319 374
#     4   9  21  39  64  90 123 169 210 259 305 380
#     4  10  22  40  60  89 123 164 207 254 317 385
#     4  10  22  42  63  95 126 166 214 264 318 370
#     4  10  18  37  63  90 119 163 212 251 307 380
#     4  10  22  41  62  90 122 165 212 254 318 383
#
# _framework density 23.482824999999998
#
# number of rings (size 3 to 8) (size 9 to 14) (size 15 to 20)
#    0.000    2.000    1.667    1.000    2.333    2.000 
#    9.000    1.667    0.000    0.000    0.000    0.000 
#    0.000    0.000    0.000    0.000    0.000    0.000 
#
# Total GULP energy -133985.456443 kJ/mol
# GULP energy per Si atom -5582.727352 kJ/mol
# Density = 2.342938 g / cm^3
# Si number density = 23.482825 Si / 1000 Ang^3
#
#
#
# Elastic Constant Matrix: (Units=GPa)
#
#
# Indices 1 2 3 4 5 6 
#
# 1 143.1973 79.4026 -3.4202 0.0000 7.5333 0.0000
# 2 79.4026 197.6190 15.5687 0.0000 11.8118 0.0000
# 3 -3.4202 15.5687 60.3660 0.0000 -18.9031 0.0000
# 4 0.0000 0.0000 0.0000 21.8514 0.0000 -10.0258
# 5 7.5333 11.8118 -18.9031 0.0000 32.5606 0.0000
# 6 0.0000 0.0000 0.0000 -10.0258 0.0000 17.0048
#
#
#
# Elastic Compliance Matrix: (Units=1/GPa)
#
#
# Indices 1 2 3 4 5 6 
#
# 1 0.009116 -0.003794 0.001547 0.000000 0.000165 0.000000
# 2 -0.003794 0.007039 -0.003123 0.000000 -0.003489 0.000000
# 3 0.001547 -0.003123 0.021634 0.000000 0.013335 0.000000
# 4 0.000000 0.000000 0.000000 0.062734 0.000000 0.036987
# 5 0.000165 -0.003489 0.013335 0.000000 0.039681 0.000000
# 6 0.000000 0.000000 0.000000 0.036987 0.000000 0.080614
#
#
# Mechanical properties :
#
#
# Convention : Reuss Voigt Hill
#
# Bulk Modulus (GPa) = 36.97073 64.92050 50.94561
# Shear Modulus (GPa) = 20.78354 34.92545 27.85450
#
# Velocity S-wave (km/s) = 2.97821 3.86071 3.44781
# Velocity P-wave (km/s) = 5.25397 6.89778 6.13122
#
# Compressibility (1/GPa) = 0.02704843
#
# Stress axis : x y z
#
# Youngs Moduli (GPa) = 109.70234 142.05850 46.22278
#
# Poissons Ratio (x) = 0.53902 -0.07150
# Poissons Ratio (y) = 0.41625 0.14435
# Poissons Ratio (z) = -0.16969 0.44364
#
# Static dielectric constant tensor:
#      x y z
#    x 1.874580 0.000000 -0.030470 
#    y 0.000000 1.936070 0.000000 
#    z -0.030470 0.000000 1.928630 
# 
# From -- ./inp_files/110869.got.cif
#   From: 2010.05.17/outbox.cif.g08.bks.cpg/sg15_56_cif.got.tgz:110869.got - 2010.06.03 18:47:42.
