data_PCOD9260993
_publ_section_title
;
Structure prediction by ZEFSAII (Michael W. Deem and Ramdas Pophale) SiO2 
 PCOD9260993
Probable space group: C 2/C
;
_chemical_formula_sum "Si O2"
_cell_formula_units_Z 44
_cell_length_a 12.085632
_cell_length_b 7.534220
_cell_length_c 25.733657
_cell_angle_alpha 90.000000
_cell_angle_beta 120.729153
_cell_angle_gamma 90.000000
_cell_volume 2014.196016
_symmetry_space_group_name_H-M "C 2/C"
_symmetry_group_IT_number 15
_symmetry_cell_setting 'monoclinic'
loop_
_space_group_symop_operation_xyz
x,y,z
-x,y,1/2-z
-x,-y,-z
x,-y,1/2+z
1/2+x,1/2+y,z
1/2-x,1/2+y,1/2-z
1/2-x,1/2-y,-z
1/2+x,1/2-y,1/2+z
loop_
_atom_site_type_symbol
_atom_site_label
_atom_site_fract_x
_atom_site_fract_y
_atom_site_fract_z
Si Si1 0.060283 0.343819 0.550350
Si Si2 0.254069 0.597261 0.645318
Si Si3 0.857460 0.901541 0.516397
Si Si4 0.000000 0.928817 0.750000
Si Si5 0.652129 0.122450 0.417362
Si Si6 0.000938 0.265339 0.358770
O O1 0.196004 0.422980 0.602454
O O2 0.071482 0.171221 0.517767
O O3 0.000000 0.500000 0.500000
O O4 0.967085 0.313806 0.576347
O O5 0.373128 0.545129 0.709802
O O6 0.301773 0.740449 0.614779
O O7 0.133637 0.670848 0.648954
O O8 0.750000 0.750000 0.500000
O O9 0.945489 0.883190 0.588126
O O10 0.773625 0.071705 0.482661
O O11 0.015474 0.812097 0.702103
O O12 0.597361 0.935049 0.381420
#
# Coordination Sequence:
#
# PCOD9260993 Si02
#       6
#     8   8   8   4   8   8
#     4  11  20  41  65  98 135 158 196 270 320 383
#     4  11  25  43  65  99 126 167 219 259 316 380
#     4  10  18  39  65  94 130 161 197 257 330 374
#     4  12  28  44  66  84 130 178 222 260 310 372
#     4  10  23  39  69  97 130 162 209 261 325 383
#     4  10  24  45  63  90 128 171 212 263 313 374
#
# _framework density 21.844944999999999
#
# number of rings (size 3 to 8) (size 9 to 14) (size 15 to 20)
#    0.000    1.455    5.455    2.182    0.000    8.000 
#    0.000    0.000    0.000    0.000    0.000    0.000 
#    0.000    0.000    0.000    0.000    0.000    0.000 
#
# Total GULP energy -123185.235269 kJ/mol
# GULP energy per Si atom -5599.328876 kJ/mol
# Density = 2.179522 g / cm^3
# Si number density = 21.844945 Si / 1000 Ang^3
#
#
#
# Elastic Constant Matrix: (Units=GPa)
#
#
# Indices 1 2 3 4 5 6 
#
# 1 131.6400 66.3143 70.8766 0.0000 -6.3883 0.0000
# 2 66.3143 123.2931 69.6731 0.0000 -4.7574 0.0000
# 3 70.8766 69.6731 177.4164 0.0000 2.4839 0.0000
# 4 0.0000 0.0000 0.0000 49.3266 0.0000 -1.2182
# 5 -6.3883 -4.7574 2.4839 0.0000 48.3879 0.0000
# 6 0.0000 0.0000 0.0000 -1.2182 0.0000 27.9768
#
#
#
# Elastic Compliance Matrix: (Units=1/GPa)
#
#
# Indices 1 2 3 4 5 6 
#
# 1 0.011448 -0.004520 -0.002815 0.000000 0.001212 0.000000
# 2 -0.004520 0.012283 -0.003029 0.000000 0.000766 0.000000
# 3 -0.002815 -0.003029 0.007966 0.000000 -0.001078 0.000000
# 4 0.000000 0.000000 0.000000 0.020295 0.000000 0.000884
# 5 0.001212 0.000766 -0.001078 0.000000 0.020957 0.000000
# 6 0.000000 0.000000 0.000000 0.000884 0.000000 0.035782
#
#
# Mechanical properties :
#
#
# Convention : Reuss Voigt Hill
#
# Bulk Modulus (GPa) = 91.16728 94.00862 92.58795
# Shear Modulus (GPa) = 37.56164 40.17061 38.86612
#
# Velocity S-wave (km/s) = 4.15114 4.29289 4.22261
# Velocity P-wave (km/s) = 8.04987 8.22799 8.13942
#
# Compressibility (1/GPa) = 0.01096885
#
# Stress axis : x y z
#
# Youngs Moduli (GPa) = 87.35220 81.41467 125.53797
#
# Poissons Ratio (x) = 0.36796 0.35344
# Poissons Ratio (y) = 0.39480 0.38022
# Poissons Ratio (z) = 0.24593 0.24658
#
# Static dielectric constant tensor:
#      x y z
#    x 1.886510 0.000000 0.007680 
#    y 0.000000 1.850740 0.000000 
#    z 0.007680 0.000000 1.767280 
# 
# From -- ./inp_files/242640.got.cif
#   From: 2010.05.17/outbox.cif.g08.bks.cpg/sg15_122_cif.got.tgz:242640.got - 2010.06.03 18:47:42.
