data_PCOD9260995
_publ_section_title
;
Structure prediction by ZEFSAII (Michael W. Deem and Ramdas Pophale) SiO2 
 PCOD9260995
Probable space group: C 2/C
;
_chemical_formula_sum "Si O2"
_cell_formula_units_Z 48
_cell_length_a 8.094114
_cell_length_b 28.918607
_cell_length_c 13.564810
_cell_angle_alpha 90.000000
_cell_angle_beta 44.192259
_cell_angle_gamma 90.000000
_cell_volume 2213.276615
_symmetry_space_group_name_H-M "C 2/C"
_symmetry_group_IT_number 15
_symmetry_cell_setting 'monoclinic'
loop_
_space_group_symop_operation_xyz
x,y,z
-x,y,1/2-z
-x,-y,-z
x,-y,1/2+z
1/2+x,1/2+y,z
1/2-x,1/2+y,1/2-z
1/2-x,1/2-y,-z
1/2+x,1/2-y,1/2+z
loop_
_atom_site_type_symbol
_atom_site_label
_atom_site_fract_x
_atom_site_fract_y
_atom_site_fract_z
Si Si1 0.004906 0.773988 0.574543
Si Si2 0.087765 0.515497 0.827086
Si Si3 0.619979 0.877856 0.306506
Si Si4 0.594901 0.286023 0.318532
Si Si5 0.934918 0.975727 0.925225
Si Si6 0.129633 0.873009 0.591716
O O1 0.250000 0.750000 0.500000
O O2 0.959332 0.772642 0.476336
O O3 0.016357 0.828033 0.593098
O O4 0.820503 0.747444 0.721132
O O5 0.174279 0.568562 0.804041
O O6 0.323697 0.484690 0.739944
O O7 0.000000 0.511297 0.750000
O O8 0.832134 0.507362 0.990185
O O9 0.500000 0.875288 0.250000
O O10 0.824564 0.839845 0.215502
O O11 0.412702 0.864270 0.472587
O O12 0.500000 0.278073 0.250000
O O13 0.903354 0.920824 0.952735
O O14 0.000000 0.000000 0.000000
O O15 0.000000 0.880487 0.750000
#
# Coordination Sequence:
#
# PCOD9260995 Si02
#       6
#     8   8   8   8   8   8
#     4  12  23  43  71  94 126 182 231 270 333 414
#     4   8  16  31  60  86 117 163 221 267 325 397
#     4  10  18  39  66  90 119 179 230 262 319 423
#     4  12  25  41  62  99 138 166 214 287 351 397
#     4   9  18  35  60  89 126 168 213 281 339 393
#     4  11  22  38  66  98 123 165 241 282 313 402
#
# _framework density 21.687303
#
# number of rings (size 3 to 8) (size 9 to 14) (size 15 to 20)
#    0.000    1.667    3.333    3.000    0.000    0.000 
#    0.000    8.333    0.000    0.000    0.000    0.000 
#    0.000    0.000    0.000    0.000    0.000    0.000 
#
# Total GULP energy -133842.609948 kJ/mol
# GULP energy per Si atom -5576.775414 kJ/mol
# Density = 2.163794 g / cm^3
# Si number density = 21.687303 Si / 1000 Ang^3
#
#
#
# Elastic Constant Matrix: (Units=GPa)
#
#
# Indices 1 2 3 4 5 6 
#
# 1 66.1012 22.4305 12.1153 0.0000 -1.3148 0.0000
# 2 22.4305 84.9575 16.2198 0.0000 -13.4919 0.0000
# 3 12.1153 16.2198 106.6863 0.0000 0.0549 0.0000
# 4 0.0000 0.0000 0.0000 31.5340 0.0000 -4.4741
# 5 -1.3148 -13.4919 0.0549 0.0000 40.3033 0.0000
# 6 0.0000 0.0000 0.0000 -4.4741 0.0000 12.8869
#
#
#
# Elastic Compliance Matrix: (Units=1/GPa)
#
#
# Indices 1 2 3 4 5 6 
#
# 1 0.016813 -0.004344 -0.001248 0.000000 -0.000904 0.000000
# 2 -0.004344 0.013948 -0.001630 0.000000 0.004530 0.000000
# 3 -0.001248 -0.001630 0.009763 0.000000 -0.000600 0.000000
# 4 0.000000 0.000000 0.000000 0.033355 0.000000 0.011580
# 5 -0.000904 0.004530 -0.000600 0.000000 0.026300 0.000000
# 6 0.000000 0.000000 0.000000 0.011580 0.000000 0.081619
#
#
# Mechanical properties :
#
#
# Convention : Reuss Voigt Hill
#
# Bulk Modulus (GPa) = 38.34359 39.91960 39.13159
# Shear Modulus (GPa) = 24.39793 30.74347 27.57070
#
# Velocity S-wave (km/s) = 3.35772 3.76916 3.56937
# Velocity P-wave (km/s) = 5.72285 6.11465 5.92199
#
# Compressibility (1/GPa) = 0.02607998
#
# Stress axis : x y z
#
# Youngs Moduli (GPa) = 59.47671 71.69475 102.42659
#
# Poissons Ratio (x) = 0.31146 0.12787
# Poissons Ratio (y) = 0.25838 0.16691
# Poissons Ratio (z) = 0.07425 0.11683
#
# Static dielectric constant tensor:
#      x y z
#    x 1.807270 0.000000 0.001530 
#    y 0.000000 1.774010 0.000000 
#    z 0.001530 0.000000 1.905110 
# 
# From -- ./inp_files/139395.got.cif
#   From: 2010.05.17/outbox.cif.g08.bks.cpg/sg15_70_cif.got.tgz:139395.got - 2010.06.03 18:47:42.
