data_PCOD9260434
_publ_section_title
;
Structure prediction by ZEFSAII (Michael W. Deem and Ramdas Pophale) SiO2 
 PCOD9260434
Probable space group: C 2/C
;
_chemical_formula_sum "Si O2"
_cell_formula_units_Z 56
_cell_length_a 12.984540
_cell_length_b 11.704994
_cell_length_c 26.728757
_cell_angle_alpha 90.000000
_cell_angle_beta 32.564098
_cell_angle_gamma 90.000000
_cell_volume 2186.526520
_symmetry_space_group_name_H-M "C 2/C"
_symmetry_group_IT_number 15
_symmetry_cell_setting 'monoclinic'
loop_
_space_group_symop_operation_xyz
x,y,z
-x,y,1/2-z
-x,-y,-z
x,-y,1/2+z
1/2+x,1/2+y,z
1/2-x,1/2+y,1/2-z
1/2-x,1/2-y,-z
1/2+x,1/2-y,1/2+z
loop_
_atom_site_type_symbol
_atom_site_label
_atom_site_fract_x
_atom_site_fract_y
_atom_site_fract_z
Si Si1 0.990519 0.190856 0.194080
Si Si2 0.686747 0.524796 0.604973
Si Si3 0.584670 0.727662 0.992951
Si Si4 0.766050 0.995548 0.103639
Si Si5 0.933030 0.555822 0.600727
Si Si6 0.770696 0.759116 0.550326
Si Si7 0.658212 0.079770 0.752249
O O1 0.197913 0.235040 0.089936
O O2 0.000000 0.190802 0.250000
O O3 0.826396 0.281961 0.248953
O O4 0.012990 0.060352 0.167917
O O5 0.791814 0.510270 0.615479
O O6 0.635210 0.657432 0.624827
O O7 0.856562 0.497581 0.495733
O O8 0.590931 0.589842 0.985731
O O9 0.464065 0.806010 0.080539
O O10 0.487529 0.767646 0.980472
O O11 0.739217 0.121141 0.091051
O O12 0.558499 0.940462 0.177791
O O13 0.785365 0.973436 0.155798
O O14 0.854146 0.530863 0.687226
O O15 0.750000 0.750000 0.500000
#
# Coordination Sequence:
#
# PCOD9260434 Si02
#       7
#     8   8   8   8   8   8   8
#     4  10  18  37  62  85 117 150 195 262 307 349
#     4   9  20  36  55  85 117 152 198 251 296 363
#     4   9  19  37  62  88 116 157 209 260 290 357
#     4  10  20  36  59  86 127 157 205 255 299 368
#     4   9  18  35  61  84 115 154 197 246 307 358
#     4  11  22  37  59  86 123 166 203 243 309 377
#     4  10  19  36  61  86 115 162 197 250 317 353
#
# _framework density 25.611398000000001
#
# number of rings (size 3 to 8) (size 9 to 14) (size 15 to 20)
#    0.000    2.286    2.857    2.143    0.000    6.286 
#    2.571    4.286    6.286    0.000    0.000    0.000 
#    0.000    0.000    0.000    0.000    0.000    0.000 
#
# Total GULP energy -156183.750073 kJ/mol
# GULP energy per Si atom -5577.991074 kJ/mol
# Density = 2.555311 g / cm^3
# Si number density = 25.611398 Si / 1000 Ang^3
#
#
#
# Elastic Constant Matrix: (Units=GPa)
#
#
# Indices 1 2 3 4 5 6 
#
# 1 77.0794 20.9845 53.5401 -0.0002 25.3132 0.0001
# 2 20.9845 200.3357 57.1977 0.0000 12.5193 0.0001
# 3 53.5401 57.1977 130.4470 -0.0002 31.2964 0.0000
# 4 -0.0002 0.0000 -0.0002 17.7699 0.0002 2.9216
# 5 25.3132 12.5193 31.2964 0.0002 16.3067 -0.0001
# 6 0.0001 0.0001 0.0000 2.9216 -0.0001 7.4808
#
#
#
# Elastic Compliance Matrix: (Units=1/GPa)
#
#
# Indices 1 2 3 4 5 6 
#
# 1 0.026715 0.000120 -0.001938 0.000001 -0.037842 -0.000001
# 2 0.000120 0.005712 -0.002700 0.000000 0.000611 0.000000
# 3 -0.001938 -0.002700 0.015617 0.000001 -0.024891 -0.000001
# 4 0.000001 0.000000 0.000001 0.060136 -0.000004 -0.023486
# 5 -0.037842 0.000611 -0.024891 -0.000004 0.167370 0.000005
# 6 -0.000001 0.000000 -0.000001 -0.023486 0.000005 0.142848
#
#
# Mechanical properties :
#
#
# Convention : Reuss Voigt Hill
#
# Bulk Modulus (GPa) = 25.63688 74.58963 50.11326
# Shear Modulus (GPa) = 11.35234 26.72079 19.03657
#
# Velocity S-wave (km/s) = 2.10764 3.23355 2.72928
# Velocity P-wave (km/s) = 3.99432 6.56719 5.43519
#
# Compressibility (1/GPa) = 0.03900630
#
# Stress axis : x y z
#
# Youngs Moduli (GPa) = 37.43245 175.07482 64.03079
#
# Poissons Ratio (x) = -0.02100 0.12412
# Poissons Ratio (y) = -0.00449 0.17291
# Poissons Ratio (z) = 0.07256 0.47277
#
# Static dielectric constant tensor:
#      x y z
#    x 2.060680 0.000000 -0.060700 
#    y 0.000000 2.185270 0.000000 
#    z -0.060700 0.000000 2.055700 
# 
# From -- ./inp_files/295914.got.cif
#   From: 2010.05.17/outbox.cif.g08.bks.cpg/sg15_148_cif.got.tgz:295914.got - 2010.06.03 18:47:42.
