data_PCOD9260829
_publ_section_title
;
Structure prediction by ZEFSAII (Michael W. Deem and Ramdas Pophale) SiO2 
 PCOD9260829
Probable space group: C 2/C
;
_chemical_formula_sum "Si O2"
_cell_formula_units_Z 60
_cell_length_a 12.677865
_cell_length_b 14.927666
_cell_length_c 17.903671
_cell_angle_alpha 90.000000
_cell_angle_beta 83.104194
_cell_angle_gamma 90.000000
_cell_volume 3363.776051
_symmetry_space_group_name_H-M "C 2/C"
_symmetry_group_IT_number 15
_symmetry_cell_setting 'monoclinic'
loop_
_space_group_symop_operation_xyz
x,y,z
-x,y,1/2-z
-x,-y,-z
x,-y,1/2+z
1/2+x,1/2+y,z
1/2-x,1/2+y,1/2-z
1/2-x,1/2-y,-z
1/2+x,1/2-y,1/2+z
loop_
_atom_site_type_symbol
_atom_site_label
_atom_site_fract_x
_atom_site_fract_y
_atom_site_fract_z
Si Si1 0.754164 0.290125 0.755693
Si Si2 0.500000 0.496064 0.750000
Si Si3 0.882719 0.537821 0.296352
Si Si4 0.762835 0.146739 0.522925
Si Si5 0.959922 0.707082 0.668592
Si Si6 0.809067 0.102077 0.690593
Si Si7 0.877924 0.861684 0.868504
Si Si8 0.045324 0.449678 0.066384
O O1 0.825783 0.367832 0.784695
O O2 0.650029 0.261082 0.812288
O O3 0.807948 0.195535 0.734541
O O4 0.714595 0.327820 0.679041
O O5 0.411400 0.549892 0.711458
O O6 0.440380 0.434433 0.815216
O O7 0.797374 0.458276 0.283954
O O8 0.907934 0.522296 0.380564
O O9 0.000000 0.532681 0.250000
O O10 0.750000 0.250000 0.500000
O O11 0.806461 0.126263 0.602406
O O12 0.834540 0.105415 0.451101
O O13 0.645205 0.107916 0.531958
O O14 0.000000 0.686582 0.750000
O O15 0.044761 0.776778 0.628062
O O16 0.966399 0.617230 0.618664
O O17 0.000000 0.500000 0.000000
#
# Coordination Sequence:
#
# PCOD9260829 Si02
#       8
#     8   4   8   8   8   8   8   8
#     4  11  21  37  66  90 122 164 213 258 315 371
#     4  12  24  42  64  98 126 160 212 272 322 364
#     4  11  23  41  64  92 126 167 215 260 314 380
#     4  11  21  39  62  91 125 168 215 254 311 388
#     4  10  18  38  65  91 116 165 215 253 301 377
#     4  11  24  41  61  97 132 160 212 268 314 378
#     4  11  19  38  68  89 117 169 212 253 303 388
#     4  11  24  38  60  92 129 162 212 265 314 369
#
# _framework density 17.837095999999999
#
# number of rings (size 3 to 8) (size 9 to 14) (size 15 to 20)
#    0.000    1.067    6.000    3.600    2.800    1.600 
#    0.000    0.667    0.000    0.000    0.000    0.000 
#    0.000    0.000    0.000    0.000    0.000    0.000 
#
# Total GULP energy -167353.403972 kJ/mol
# GULP energy per Si atom -5578.446799 kJ/mol
# Density = 1.779650 g / cm^3
# Si number density = 17.837096 Si / 1000 Ang^3
#
#
#
# Elastic Constant Matrix: (Units=GPa)
#
#
# Indices 1 2 3 4 5 6 
#
# 1 83.8500 58.6114 59.9960 0.0000 0.2754 0.0000
# 2 58.6114 132.9624 69.4933 0.0000 7.5663 0.0000
# 3 59.9960 69.4933 105.8162 0.0000 -13.1268 0.0000
# 4 0.0000 0.0000 0.0000 12.2023 0.0000 1.1922
# 5 0.2754 7.5663 -13.1268 0.0000 33.1319 0.0000
# 6 0.0000 0.0000 0.0000 1.1922 0.0000 20.1906
#
#
#
# Elastic Compliance Matrix: (Units=1/GPa)
#
#
# Indices 1 2 3 4 5 6 
#
# 1 0.022222 -0.004288 -0.010185 0.000000 -0.003241 0.000000
# 2 -0.004288 0.013485 -0.007154 0.000000 -0.005878 0.000000
# 3 -0.010185 -0.007154 0.021178 0.000000 0.010109 0.000000
# 4 0.000000 0.000000 0.000000 0.082427 0.000000 -0.004867
# 5 -0.003241 -0.005878 0.010109 0.000000 0.035557 0.000000
# 6 0.000000 0.000000 0.000000 -0.004867 0.000000 0.049815
#
#
# Mechanical properties :
#
#
# Convention : Reuss Voigt Hill
#
# Bulk Modulus (GPa) = 73.36958 77.64777 75.50868
# Shear Modulus (GPa) = 18.34994 22.07349 20.21172
#
# Velocity S-wave (km/s) = 3.21090 3.52163 3.36985
# Velocity P-wave (km/s) = 7.41410 7.75642 7.58719
#
# Compressibility (1/GPa) = 0.01362963
#
# Stress axis : x y z
#
# Youngs Moduli (GPa) = 45.00120 74.15920 47.21957
#
# Poissons Ratio (x) = 0.31797 0.48095
# Poissons Ratio (y) = 0.19295 0.33781
# Poissons Ratio (z) = 0.45836 0.53053
#
# Static dielectric constant tensor:
#      x y z
#    x 1.634090 0.000000 -0.031510 
#    y 0.000000 1.630720 0.000000 
#    z -0.031510 0.000000 1.605940 
# 
# From -- ./inp_files/197867.got.cif
#   From: 2010.05.17/outbox.cif.g08.bks.cpg/sg15_99_cif.got.tgz:197867.got - 2010.06.03 18:47:42.
