data_PCOD9260370
_publ_section_title
;
Structure prediction by ZEFSAII (Michael W. Deem and Ramdas Pophale) SiO2 
 PCOD9260370
Probable space group: C 2/C
;
_chemical_formula_sum "Si O2"
_cell_formula_units_Z 56
_cell_length_a 19.436209
_cell_length_b 12.492881
_cell_length_c 10.927900
_cell_angle_alpha 90.000000
_cell_angle_beta 57.271342
_cell_angle_gamma 90.000000
_cell_volume 2232.189334
_symmetry_space_group_name_H-M "C 2/C"
_symmetry_group_IT_number 15
_symmetry_cell_setting 'monoclinic'
loop_
_space_group_symop_operation_xyz
x,y,z
-x,y,1/2-z
-x,-y,-z
x,-y,1/2+z
1/2+x,1/2+y,z
1/2-x,1/2+y,1/2-z
1/2-x,1/2-y,-z
1/2+x,1/2-y,1/2+z
loop_
_atom_site_type_symbol
_atom_site_label
_atom_site_fract_x
_atom_site_fract_y
_atom_site_fract_z
Si Si1 0.000000 0.614056 0.750000
Si Si2 0.353322 0.392333 0.285249
Si Si3 0.658905 0.242835 0.976038
Si Si4 0.500000 0.522923 0.250000
Si Si5 0.156193 0.465660 0.640272
Si Si6 0.677281 0.793701 0.823276
Si Si7 0.448562 0.697521 0.140257
Si Si8 0.281438 0.399773 0.901014
O O1 0.079091 0.540983 0.691478
O O2 0.006398 0.695658 0.857895
O O3 0.322130 0.318273 0.426837
O O4 0.426564 0.448474 0.284715
O O5 0.376417 0.309096 0.157233
O O6 0.299847 0.495164 0.297655
O O7 0.735527 0.251829 0.812929
O O8 0.583553 0.285232 0.966067
O O9 0.649932 0.124183 0.038784
O O10 0.505432 0.599129 0.126182
O O11 0.150870 0.396405 0.769657
O O12 0.240398 0.536207 0.554407
O O13 0.705025 0.829538 0.929194
O O14 0.365457 0.668133 0.303327
#
# Coordination Sequence:
#
# PCOD9260370 Si02
#       8
#     4   8   8   4   8   8   8   8
#     4  11  26  41  54  90 134 155 200 249 308 372
#     4  10  18  37  59  86 122 152 202 255 284 360
#     4  10  19  37  64  86 119 154 207 256 298 342
#     4   9  20  37  60  84 116 165 200 239 314 348
#     4  11  22  39  62  90 120 165 196 248 310 370
#     4  10  20  35  62  95 119 150 206 259 289 354
#     4   9  22  42  58  85 123 158 199 259 295 360
#     4  10  20  38  67  86 113 164 202 243 308 348
#
# _framework density 25.087478999999998
#
# number of rings (size 3 to 8) (size 9 to 14) (size 15 to 20)
#    0.000    2.000    2.857    0.857    2.000    4.000 
#    2.571    0.000    0.000    0.000    0.000    0.000 
#    0.000    0.000    0.000    0.000    0.000    0.000 
#
# Total GULP energy -156152.212358 kJ/mol
# GULP energy per Si atom -5576.864727 kJ/mol
# Density = 2.503038 g / cm^3
# Si number density = 25.087479 Si / 1000 Ang^3
#
#
#
# Elastic Constant Matrix: (Units=GPa)
#
#
# Indices 1 2 3 4 5 6 
#
# 1 111.5378 28.7247 -4.0233 0.0000 8.4287 0.0000
# 2 28.7247 112.6659 17.1883 0.0000 -7.1064 0.0000
# 3 -4.0233 17.1883 40.1177 0.0000 -1.7407 0.0000
# 4 0.0000 0.0000 0.0000 26.7563 0.0000 -16.3665
# 5 8.4287 -7.1064 -1.7407 0.0000 24.9791 0.0000
# 6 0.0000 0.0000 0.0000 -16.3665 0.0000 62.4116
#
#
#
# Elastic Compliance Matrix: (Units=1/GPa)
#
#
# Indices 1 2 3 4 5 6 
#
# 1 0.010186 -0.003199 0.002210 0.000000 -0.004193 0.000000
# 2 -0.003199 0.010650 -0.004720 0.000000 0.003780 0.000000
# 3 0.002210 -0.004720 0.027162 0.000000 -0.000196 0.000000
# 4 0.000000 0.000000 0.000000 0.044515 0.000000 0.011673
# 5 -0.004193 0.003780 -0.000196 0.000000 0.042510 0.000000
# 6 0.000000 0.000000 0.000000 0.011673 0.000000 0.019084
#
#
# Mechanical properties :
#
#
# Convention : Reuss Voigt Hill
#
# Bulk Modulus (GPa) = 27.33644 38.67785 33.00714
# Shear Modulus (GPa) = 28.13470 37.65818 32.89644
#
# Velocity S-wave (km/s) = 3.35246 3.87857 3.62507
# Velocity P-wave (km/s) = 5.08974 5.95890 5.54138
#
# Compressibility (1/GPa) = 0.03658121
#
# Stress axis : x y z
#
# Youngs Moduli (GPa) = 98.17511 93.89893 36.81624
#
# Poissons Ratio (x) = 0.30034 -0.08136
# Poissons Ratio (y) = 0.31402 0.17376
# Poissons Ratio (z) = -0.21697 0.44317
#
# Static dielectric constant tensor:
#      x y z
#    x 2.081760 0.000000 -0.092340 
#    y 0.000000 2.055280 0.000000 
#    z -0.092340 0.000000 2.111760 
# 
# From -- ./inp_files/161267.got.cif
#   From: 2010.05.17/outbox.cif.g08.bks.cpg/sg15_81_cif.got.tgz:161267.got - 2010.06.03 18:47:42.
