data_PCOD9260292
_publ_section_title
;
Structure prediction by ZEFSAII (Michael W. Deem and Ramdas Pophale) SiO2 
 PCOD9260292
Probable space group: C 2/C
;
_chemical_formula_sum "Si O2"
_cell_formula_units_Z 52
_cell_length_a 9.888882
_cell_length_b 10.090173
_cell_length_c 22.807500
_cell_angle_alpha 90.000000
_cell_angle_beta 122.525479
_cell_angle_gamma 90.000000
_cell_volume 1918.799454
_symmetry_space_group_name_H-M "C 2/C"
_symmetry_group_IT_number 15
_symmetry_cell_setting 'monoclinic'
loop_
_space_group_symop_operation_xyz
x,y,z
-x,y,1/2-z
-x,-y,-z
x,-y,1/2+z
1/2+x,1/2+y,z
1/2-x,1/2+y,1/2-z
1/2-x,1/2-y,-z
1/2+x,1/2-y,1/2+z
loop_
_atom_site_type_symbol
_atom_site_label
_atom_site_fract_x
_atom_site_fract_y
_atom_site_fract_z
Si Si1 0.477792 0.731376 0.334033
Si Si2 0.000000 0.500000 0.000000
Si Si3 0.365163 0.517272 0.055948
Si Si4 0.500000 0.935617 0.250000
Si Si5 0.443767 0.775168 0.612627
Si Si6 0.000000 0.863091 0.250000
Si Si7 0.775605 0.430560 0.786847
Si Si8 0.587331 0.287080 0.550861
O O1 0.575433 0.598643 0.371912
O O2 0.563937 0.848950 0.320048
O O3 0.336271 0.691303 0.257240
O O4 0.408402 0.770225 0.380967
O O5 0.176496 0.533936 0.012904
O O6 0.043853 0.340631 0.004086
O O7 0.427904 0.365992 0.075065
O O8 0.451842 0.602562 0.026061
O O9 0.641084 0.018155 0.253268
O O10 0.483541 0.724333 0.688044
O O11 0.584767 0.883566 0.636391
O O12 0.264864 0.835269 0.575402
O O13 0.843603 0.955869 0.219527
#
# Coordination Sequence:
#
# PCOD9260292 Si02
#       8
#     8   4   8   4   8   4   8   8
#     4  10  22  38  55  92 135 162 219 259 330 399
#     4  10  18  36  68  94 126 172 234 286 348 382
#     4   9  21  37  58  95 128 168 221 284 333 394
#     4  12  24  40  60  92 136 188 206 266 318 410
#     4  11  21  36  58  87 130 170 214 264 326 401
#     4  12  22  38  56  90 138 174 214 266 312 406
#     4  12  24  37  61  91 134 182 219 253 328 405
#     4   9  19  36  60  94 128 168 224 281 334 401
#
# _framework density 27.100277999999999
#
# number of rings (size 3 to 8) (size 9 to 14) (size 15 to 20)
#    0.923    0.615    1.538    5.077    0.000    0.000 
#    0.000    0.000    0.000    0.000    0.000   79.692 
#    0.000    0.000    0.000    0.000    0.000    0.000 
#
# Total GULP energy -145226.408258 kJ/mol
# GULP energy per Si atom -5585.631087 kJ/mol
# Density = 2.703860 g / cm^3
# Si number density = 27.100278 Si / 1000 Ang^3
#
#
#
# Elastic Constant Matrix: (Units=GPa)
#
#
# Indices 1 2 3 4 5 6 
#
# 1 155.6629 51.6836 26.3339 0.0000 46.4847 0.0000
# 2 51.6836 98.5951 4.4418 0.0000 35.8232 0.0000
# 3 26.3339 4.4418 82.9807 0.0000 17.0311 0.0000
# 4 0.0000 0.0000 0.0000 34.7959 0.0000 13.1974
# 5 46.4847 35.8232 17.0311 0.0000 48.2025 0.0000
# 6 0.0000 0.0000 0.0000 13.1974 0.0000 49.3339
#
#
#
# Elastic Compliance Matrix: (Units=1/GPa)
#
#
# Indices 1 2 3 4 5 6 
#
# 1 0.009533 -0.002440 -0.001488 0.000000 -0.006854 0.000000
# 2 -0.002440 0.014690 0.001882 0.000000 -0.009230 0.000000
# 3 -0.001488 0.001882 0.013386 0.000000 -0.004693 0.000000
# 4 0.000000 0.000000 0.000000 0.031984 0.000000 -0.008556
# 5 -0.006854 -0.009230 -0.004693 0.000000 0.035873 0.000000
# 6 0.000000 0.000000 0.000000 -0.008556 0.000000 0.022559
#
#
# Mechanical properties :
#
#
# Convention : Reuss Voigt Hill
#
# Bulk Modulus (GPa) = 29.83482 55.79526 42.81504
# Shear Modulus (GPa) = 34.89475 43.45176 39.17326
#
# Velocity S-wave (km/s) = 3.59223 4.00855 3.80609
# Velocity P-wave (km/s) = 5.31398 6.48520 5.92859
#
# Compressibility (1/GPa) = 0.03351788
#
# Stress axis : x y z
#
# Youngs Moduli (GPa) = 104.90234 68.07345 74.70658
#
# Poissons Ratio (x) = 0.16607 0.11115
# Poissons Ratio (y) = 0.25592 -0.14061
# Poissons Ratio (z) = 0.15608 -0.12813
#
# Static dielectric constant tensor:
#      x y z
#    x 2.097800 0.000000 -0.057240 
#    y 0.000000 2.087610 0.000000 
#    z -0.057240 0.000000 2.213000 
# 
# From -- ./inp_files/307309.got.cif
#   From: 2010.05.17/outbox.cif.g08.bks.cpg/sg15_154_cif.got.tgz:307309.got - 2010.06.03 18:47:42.
