data_PCOD9260763
_publ_section_title
;
Structure prediction by ZEFSAII (Michael W. Deem and Ramdas Pophale) SiO2 
 PCOD9260763
Probable space group: C 2/C
;
_chemical_formula_sum "Si O2"
_cell_formula_units_Z 56
_cell_length_a 7.024854
_cell_length_b 21.283323
_cell_length_c 14.678584
_cell_angle_alpha 90.000000
_cell_angle_beta 68.513115
_cell_angle_gamma 90.000000
_cell_volume 2042.104436
_symmetry_space_group_name_H-M "C 2/C"
_symmetry_group_IT_number 15
_symmetry_cell_setting 'monoclinic'
loop_
_space_group_symop_operation_xyz
x,y,z
-x,y,1/2-z
-x,-y,-z
x,-y,1/2+z
1/2+x,1/2+y,z
1/2-x,1/2+y,1/2-z
1/2-x,1/2-y,-z
1/2+x,1/2-y,1/2+z
loop_
_atom_site_type_symbol
_atom_site_label
_atom_site_fract_x
_atom_site_fract_y
_atom_site_fract_z
Si Si1 0.991428 0.198673 0.097416
Si Si2 0.169476 0.542483 0.327968
Si Si3 0.000000 0.574340 0.750000
Si Si4 0.665169 0.178527 0.319662
Si Si5 0.629295 0.401240 0.028045
Si Si6 0.474964 0.514871 0.117000
Si Si7 0.916857 0.658632 0.614351
Si Si8 0.000000 0.786850 0.250000
O O1 0.816895 0.185803 0.205399
O O2 0.991021 0.272255 0.075875
O O3 0.196955 0.181553 0.115131
O O4 0.953801 0.156763 0.015357
O O5 0.065621 0.478369 0.314611
O O6 0.062364 0.609955 0.338053
O O7 0.343078 0.544908 0.219755
O O8 0.291676 0.535074 0.401435
O O9 0.064332 0.625407 0.660389
O O10 0.522586 0.239099 0.331744
O O11 0.476835 0.438927 0.123653
O O12 0.833315 0.381888 0.044731
O O13 0.633388 0.457491 0.953257
O O14 0.701482 0.672131 0.704685
#
# Coordination Sequence:
#
# PCOD9260763 Si02
#       8
#     8   8   4   8   8   8   8   4
#     4  10  19  38  64  86 123 158 200 241 293 362
#     4  11  20  40  65  90 115 158 203 252 292 350
#     4  12  25  38  62  88 121 150 210 254 298 346
#     4  10  18  38  63  90 112 159 209 244 285 355
#     4  11  20  37  63  90 123 159 198 239 309 365
#     4  10  21  37  66  88 121 158 199 246 294 369
#     4  11  24  39  60  89 119 166 198 252 295 356
#     4  10  23  38  62  84 119 154 218 244 282 356
#
# _framework density 27.422691
#
# number of rings (size 3 to 8) (size 9 to 14) (size 15 to 20)
#    0.000    1.429    4.286    3.429    2.000    0.000 
#    0.000    1.429    6.286    0.000    0.000    0.000 
#    0.000    0.000    0.000    0.000    0.000    0.000 
#
# Total GULP energy -156385.292868 kJ/mol
# GULP energy per Si atom -5585.189031 kJ/mol
# Density = 2.736028 g / cm^3
# Si number density = 27.422691 Si / 1000 Ang^3
#
#
#
# Elastic Constant Matrix: (Units=GPa)
#
#
# Indices 1 2 3 4 5 6 
#
# 1 76.9969 38.8066 38.0480 0.0000 31.4685 0.0000
# 2 38.8066 148.3379 63.9268 0.0000 5.7321 0.0000
# 3 38.0480 63.9268 110.2816 0.0000 37.3173 0.0000
# 4 0.0000 0.0000 0.0000 48.5106 0.0000 18.3854
# 5 31.4685 5.7321 37.3173 0.0000 51.1536 0.0000
# 6 0.0000 0.0000 0.0000 18.3854 0.0000 45.2377
#
#
#
# Elastic Compliance Matrix: (Units=1/GPa)
#
#
# Indices 1 2 3 4 5 6 
#
# 1 0.020325 -0.004741 -0.000283 0.000000 -0.011766 0.000000
# 2 -0.004741 0.010655 -0.006803 0.000000 0.006685 0.000000
# 3 -0.000283 -0.006803 0.016985 0.000000 -0.011454 0.000000
# 4 0.000000 0.000000 0.000000 0.024367 0.000000 -0.009903
# 5 -0.011766 0.006685 -0.011454 0.000000 0.034394 0.000000
# 6 0.000000 0.000000 0.000000 -0.009903 0.000000 0.026130
#
#
# Mechanical properties :
#
#
# Convention : Reuss Voigt Hill
#
# Bulk Modulus (GPa) = 41.13222 68.57546 54.85384
# Shear Modulus (GPa) = 30.37403 41.96937 36.17170
#
# Velocity S-wave (km/s) = 3.33171 3.91636 3.63580
# Velocity P-wave (km/s) = 5.46189 6.74623 6.13775
#
# Compressibility (1/GPa) = 0.02431184
#
# Stress axis : x y z
#
# Youngs Moduli (GPa) = 49.19933 93.85242 58.87659
#
# Poissons Ratio (x) = 0.44493 0.01666
# Poissons Ratio (y) = 0.23324 0.40054
# Poissons Ratio (z) = 0.01392 0.63848
#
# Static dielectric constant tensor:
#      x y z
#    x 2.249360 0.000000 -0.068300 
#    y 0.000000 2.100580 0.000000 
#    z -0.068300 0.000000 2.300420 
# 
# From -- ./inp_files/191677.got.cif
#   From: 2010.05.17/outbox.cif.g08.bks.cpg/sg15_96_cif.got.tgz:191677.got - 2010.06.03 18:47:42.
