data_PCOD9260495
_publ_section_title
;
Structure prediction by ZEFSAII (Michael W. Deem and Ramdas Pophale) SiO2 
 PCOD9260495
Probable space group: C 2/C
;
_chemical_formula_sum "Si O2"
_cell_formula_units_Z 44
_cell_length_a 12.402948
_cell_length_b 22.469039
_cell_length_c 9.243432
_cell_angle_alpha 90.000000
_cell_angle_beta 123.429991
_cell_angle_gamma 90.000000
_cell_volume 2149.809764
_symmetry_space_group_name_H-M "C 2/C"
_symmetry_group_IT_number 15
_symmetry_cell_setting 'monoclinic'
loop_
_space_group_symop_operation_xyz
x,y,z
-x,y,1/2-z
-x,-y,-z
x,-y,1/2+z
1/2+x,1/2+y,z
1/2-x,1/2+y,1/2-z
1/2-x,1/2-y,-z
1/2+x,1/2-y,1/2+z
loop_
_atom_site_type_symbol
_atom_site_label
_atom_site_fract_x
_atom_site_fract_y
_atom_site_fract_z
Si Si1 0.210196 0.617945 0.360065
Si Si2 0.964600 0.341902 0.502416
Si Si3 0.746097 0.520819 0.561373
Si Si4 0.413937 0.472056 0.307617
Si Si5 0.500000 0.913367 0.250000
Si Si6 0.613347 0.720534 0.953729
O O1 0.137156 0.631311 0.457720
O O2 0.236728 0.547878 0.376070
O O3 0.339179 0.657800 0.448187
O O4 0.106616 0.641147 0.167207
O O5 0.949688 0.372164 0.339395
O O6 0.943607 0.271153 0.483725
O O7 0.653582 0.518726 0.352518
O O8 0.694009 0.555411 0.666091
O O9 0.882875 0.545398 0.613633
O O10 0.500000 0.437624 0.250000
O O11 0.500000 0.500000 0.500000
O O12 0.500000 0.713983 0.750000
O O13 0.750000 0.750000 0.000000
#
# Coordination Sequence:
#
# PCOD9260495 Si02
#       6
#     8   8   8   8   4   8
#     4  10  20  35  63  85 114 159 213 264 308 369
#     4  10  20  37  57  87 121 165 204 262 312 373
#     4  11  21  36  58  93 122 162 203 254 322 377
#     4   9  20  37  56  75 120 160 204 249 295 380
#     4  12  24  36  60  94 142 164 198 258 326 388
#     4  10  18  37  64  90 118 156 223 273 308 362
#
# _framework density 20.466925
#
# number of rings (size 3 to 8) (size 9 to 14) (size 15 to 20)
#    0.000    1.818    3.636    3.273    0.000    4.364 
#    0.000    2.727    2.000    0.000    0.000    0.000 
#    0.000    0.000    0.000    0.000    0.000    0.000 
#
# Total GULP energy -122530.990939 kJ/mol
# GULP energy per Si atom -5569.590497 kJ/mol
# Density = 2.042034 g / cm^3
# Si number density = 20.466925 Si / 1000 Ang^3
#
#
#
# Elastic Constant Matrix: (Units=GPa)
#
#
# Indices 1 2 3 4 5 6 
#
# 1 70.1023 17.9986 37.9274 0.0000 6.2787 0.0000
# 2 17.9986 108.1045 34.0212 0.0000 13.0045 0.0000
# 3 37.9274 34.0212 115.1198 0.0000 10.7760 0.0000
# 4 0.0000 0.0000 0.0000 23.5609 0.0000 5.2658
# 5 6.2787 13.0045 10.7760 0.0000 37.9377 0.0000
# 6 0.0000 0.0000 0.0000 5.2658 0.0000 14.5702
#
#
#
# Elastic Compliance Matrix: (Units=1/GPa)
#
#
# Indices 1 2 3 4 5 6 
#
# 1 0.017538 -0.001114 -0.005355 0.000000 -0.000999 0.000000
# 2 -0.001114 0.010549 -0.002495 0.000000 -0.002723 0.000000
# 3 -0.005355 -0.002495 0.011326 0.000000 -0.001476 0.000000
# 4 0.000000 0.000000 0.000000 0.046173 0.000000 -0.016687
# 5 -0.000999 -0.002723 -0.001476 0.000000 0.027877 0.000000
# 6 0.000000 0.000000 0.000000 -0.016687 0.000000 0.074664
#
#
# Mechanical properties :
#
#
# Convention : Reuss Voigt Hill
#
# Bulk Modulus (GPa) = 46.54824 52.58012 49.56418
# Shear Modulus (GPa) = 23.45021 28.77238 26.11130
#
# Velocity S-wave (km/s) = 3.38858 3.75347 3.57568
# Velocity P-wave (km/s) = 6.17272 6.67314 6.42780
#
# Compressibility (1/GPa) = 0.02148309
#
# Stress axis : x y z
#
# Youngs Moduli (GPa) = 57.01973 94.79840 88.28855
#
# Poissons Ratio (x) = 0.10564 0.47280
# Poissons Ratio (y) = 0.06354 0.22032
# Poissons Ratio (z) = 0.30535 0.23656
#
# Static dielectric constant tensor:
#      x y z
#    x 1.880430 0.000000 0.060230 
#    y 0.000000 1.737720 0.000000 
#    z 0.060230 0.000000 1.750270 
# 
# From -- ./inp_files/42389.got.cif
#   From: 2010.05.17/outbox.cif.g08.bks.cpg/sg15_22_cif.got.tgz:42389.got - 2010.06.03 18:47:42.
