data_PCOD9260452
_publ_section_title
;
Structure prediction by ZEFSAII (Michael W. Deem and Ramdas Pophale) SiO2 
 PCOD9260452
Probable space group: C 2/C
;
_chemical_formula_sum "Si O2"
_cell_formula_units_Z 40
_cell_length_a 16.723878
_cell_length_b 16.175602
_cell_length_c 8.417373
_cell_angle_alpha 90.000000
_cell_angle_beta 131.282372
_cell_angle_gamma 90.000000
_cell_volume 1711.134001
_symmetry_space_group_name_H-M "C 2/C"
_symmetry_group_IT_number 15
_symmetry_cell_setting 'monoclinic'
loop_
_space_group_symop_operation_xyz
x,y,z
-x,y,1/2-z
-x,-y,-z
x,-y,1/2+z
1/2+x,1/2+y,z
1/2-x,1/2+y,1/2-z
1/2-x,1/2-y,-z
1/2+x,1/2-y,1/2+z
loop_
_atom_site_type_symbol
_atom_site_label
_atom_site_fract_x
_atom_site_fract_y
_atom_site_fract_z
Si Si1 0.568028 0.771933 0.988019
Si Si2 0.693762 0.396264 0.679584
Si Si3 0.107146 0.965798 0.278768
Si Si4 0.876405 0.670282 0.628736
Si Si5 0.084552 0.170127 0.486435
O O1 0.644477 0.692323 0.058711
O O2 0.629206 0.833771 0.186786
O O3 0.476466 0.732286 0.976949
O O4 0.500000 0.803921 0.750000
O O5 0.699978 0.449934 0.528006
O O6 0.618506 0.448410 0.700305
O O7 0.799379 0.382756 0.918986
O O8 0.000000 0.953905 0.250000
O O9 0.122318 0.899539 0.156256
O O10 0.851139 0.765999 0.541078
O O11 0.000000 0.652213 0.750000
O O12 0.000000 0.135748 0.250000
#
# Coordination Sequence:
#
# PCOD9260452 Si02
#       5
#     8   8   8   8   8
#     4  10  18  37  62  92 122 160 204 262 321 367
#     4  12  24  39  60  97 130 173 205 251 326 388
#     4  12  25  37  62  97 137 162 204 260 329 388
#     4   9  23  42  64  87 130 165 222 264 300 364
#     4   9  19  37  62  89 127 163 197 265 320 365
#
# _framework density 23.376311999999999
#
# number of rings (size 3 to 8) (size 9 to 14) (size 15 to 20)
#    0.000    2.000    4.000    1.200    5.600    2.400 
#    0.000    1.000    0.000    0.000    0.000    0.000 
#    0.000    0.000    0.000    0.000    0.000    0.000 
#
# Total GULP energy -111438.132776 kJ/mol
# GULP energy per Si atom -5571.906639 kJ/mol
# Density = 2.332311 g / cm^3
# Si number density = 23.376312 Si / 1000 Ang^3
#
#
#
# Elastic Constant Matrix: (Units=GPa)
#
#
# Indices 1 2 3 4 5 6 
#
# 1 50.6837 12.3016 45.3718 0.0000 -11.0815 0.0000
# 2 12.3016 26.8223 34.9738 0.0000 -13.6268 0.0000
# 3 45.3718 34.9738 239.1687 0.0000 -37.8136 0.0000
# 4 0.0000 0.0000 0.0000 33.7060 0.0000 -3.1116
# 5 -11.0815 -13.6268 -37.8136 0.0000 33.9313 0.0000
# 6 0.0000 0.0000 0.0000 -3.1116 0.0000 10.0951
#
#
#
# Elastic Compliance Matrix: (Units=1/GPa)
#
#
# Indices 1 2 3 4 5 6 
#
# 1 0.024711 -0.005787 -0.003560 0.000000 0.001778 0.000000
# 2 -0.005787 0.053002 -0.004353 0.000000 0.014544 0.000000
# 3 -0.003560 -0.004353 0.006109 0.000000 0.003897 0.000000
# 4 0.000000 0.000000 0.000000 0.030537 0.000000 0.009412
# 5 0.001778 0.014544 0.003897 0.000000 0.040236 0.000000
# 6 0.000000 0.000000 0.000000 0.009412 0.000000 0.101959
#
#
# Mechanical properties :
#
#
# Convention : Reuss Voigt Hill
#
# Bulk Modulus (GPa) = 17.72414 55.77436 36.74925
# Shear Modulus (GPa) = 16.51458 30.48166 23.49812
#
# Velocity S-wave (km/s) = 2.66083 3.61495 3.17395
# Velocity P-wave (km/s) = 4.12778 6.42923 5.40248
#
# Compressibility (1/GPa) = 0.05642024
#
# Stress axis : x y z
#
# Youngs Moduli (GPa) = 40.46795 18.86732 163.68464
#
# Poissons Ratio (x) = 0.10919 0.58277
# Poissons Ratio (y) = 0.23420 0.71253
# Poissons Ratio (z) = 0.14408 0.08213
#
# Static dielectric constant tensor:
#      x y z
#    x 1.987410 0.000000 0.002650 
#    y 0.000000 1.964680 0.000000 
#    z 0.002650 0.000000 1.977240 
# 
# From -- ./inp_files/57641.got.cif
#   From: 2010.05.17/outbox.cif.g08.bks.cpg/sg15_29_cif.got.tgz:57641.got - 2010.06.03 18:47:42.
