data_PCOD9260109
_publ_section_title
;
Structure prediction by ZEFSAII (Michael W. Deem and Ramdas Pophale) SiO2 
 PCOD9260109
Probable space group: C 2/C
;
_chemical_formula_sum "Si O2"
_cell_formula_units_Z 40
_cell_length_a 9.408446
_cell_length_b 10.120187
_cell_length_c 16.699058
_cell_angle_alpha 90.000000
_cell_angle_beta 108.341711
_cell_angle_gamma 90.000000
_cell_volume 1509.227118
_symmetry_space_group_name_H-M "C 2/C"
_symmetry_group_IT_number 15
_symmetry_cell_setting 'monoclinic'
loop_
_space_group_symop_operation_xyz
x,y,z
-x,y,1/2-z
-x,-y,-z
x,-y,1/2+z
1/2+x,1/2+y,z
1/2-x,1/2+y,1/2-z
1/2-x,1/2-y,-z
1/2+x,1/2-y,1/2+z
loop_
_atom_site_type_symbol
_atom_site_label
_atom_site_fract_x
_atom_site_fract_y
_atom_site_fract_z
Si Si1 0.500000 0.427865 0.750000
Si Si2 0.197995 0.690671 0.793282
Si Si3 0.500003 0.772245 0.586173
Si Si4 0.250000 0.250000 0.500000
Si Si5 0.801239 0.038761 0.574132
Si Si6 0.484182 0.938287 0.369332
O O1 0.410696 0.506870 0.668347
O O2 0.626479 0.322943 0.743325
O O3 0.372157 0.711014 0.831540
O O4 0.129662 0.577078 0.726544
O O5 0.121122 0.665493 0.869154
O O6 0.603185 0.789447 0.527578
O O7 0.372419 0.667611 0.548841
O O8 0.450745 0.914514 0.611532
O O9 0.189772 0.092415 0.476529
O O10 0.636575 0.072018 0.580352
#
# Coordination Sequence:
#
# PCOD9260109 Si02
#       6
#     4   8   8   4   8   8
#     4  10  18  36  62  90 116 164 198 258 318 366
#     4  10  21  38  61  90 130 158 195 265 320 363
#     4  11  22  40  62  89 123 168 209 260 308 377
#     4  10  22  42  62  90 128 170 212 254 310 374
#     4  11  21  39  66  91 124 165 211 256 314 370
#     4   9  21  37  56  94 122 153 203 258 307 373
#
# _framework density 26.503632
#
# number of rings (size 3 to 8) (size 9 to 14) (size 15 to 20)
#    0.000    2.000    4.000    1.800    0.000    4.800 
#    3.600    4.000    0.000    7.200    0.000    0.000 
#    0.000    0.000    0.000    0.000    0.000    0.000 
#
# Total GULP energy -111469.128464 kJ/mol
# GULP energy per Si atom -5573.456423 kJ/mol
# Density = 2.644331 g / cm^3
# Si number density = 26.503632 Si / 1000 Ang^3
#
#
#
# Elastic Constant Matrix: (Units=GPa)
#
#
# Indices 1 2 3 4 5 6 
#
# 1 108.9027 77.2752 -2.7774 0.0000 27.8660 0.0000
# 2 77.2752 142.5872 -9.4823 0.0000 6.1084 0.0000
# 3 -2.7774 -9.4823 66.9093 0.0000 24.7571 0.0000
# 4 0.0000 0.0000 0.0000 47.0657 0.0000 9.6241
# 5 27.8660 6.1084 24.7571 0.0000 42.2649 0.0000
# 6 0.0000 0.0000 0.0000 9.6241 0.0000 27.6281
#
#
#
# Elastic Compliance Matrix: (Units=1/GPa)
#
#
# Indices 1 2 3 4 5 6 
#
# 1 0.020125 -0.009955 0.004854 0.000000 -0.014673 0.000000
# 2 -0.009955 0.012148 -0.000601 0.000000 0.005160 0.000000
# 3 0.004854 -0.000601 0.020700 0.000000 -0.015239 0.000000
# 4 0.000000 0.000000 0.000000 0.022876 0.000000 -0.007969
# 5 -0.014673 0.005160 -0.015239 0.000000 0.041515 0.000000
# 6 0.000000 0.000000 0.000000 -0.007969 0.000000 0.038971
#
#
# Mechanical properties :
#
#
# Convention : Reuss Voigt Hill
#
# Bulk Modulus (GPa) = 24.05728 49.82556 36.94142
# Shear Modulus (GPa) = 27.53362 40.28400 33.90881
#
# Velocity S-wave (km/s) = 3.22664 3.90287 3.58075
# Velocity P-wave (km/s) = 4.79356 6.25701 5.57353
#
# Compressibility (1/GPa) = 0.04156746
#
# Stress axis : x y z
#
# Youngs Moduli (GPa) = 49.68967 82.32134 48.30831
#
# Poissons Ratio (x) = 0.81954 -0.23447
# Poissons Ratio (y) = 0.49468 0.02903
# Poissons Ratio (z) = -0.24118 0.04948
#
# Static dielectric constant tensor:
#      x y z
#    x 2.036400 0.000000 0.059030 
#    y 0.000000 2.369350 0.000000 
#    z 0.059030 0.000000 2.218120 
# 
# From -- ./inp_files/235900.got.cif
#   From: 2010.05.17/outbox.cif.g08.bks.cpg/sg15_118_cif.got.tgz:235900.got - 2010.06.03 18:47:42.
