data_PCOD9260146
_publ_section_title
;
Structure prediction by ZEFSAII (Michael W. Deem and Ramdas Pophale) SiO2 
 PCOD9260146
Probable space group: C 2/C
;
_chemical_formula_sum "Si O2"
_cell_formula_units_Z 52
_cell_length_a 16.427352
_cell_length_b 7.142861
_cell_length_c 15.649543
_cell_angle_alpha 90.000000
_cell_angle_beta 93.509256
_cell_angle_gamma 90.000000
_cell_volume 1832.847459
_symmetry_space_group_name_H-M "C 2/C"
_symmetry_group_IT_number 15
_symmetry_cell_setting 'monoclinic'
loop_
_space_group_symop_operation_xyz
x,y,z
-x,y,1/2-z
-x,-y,-z
x,-y,1/2+z
1/2+x,1/2+y,z
1/2-x,1/2+y,1/2-z
1/2-x,1/2-y,-z
1/2+x,1/2-y,1/2+z
loop_
_atom_site_type_symbol
_atom_site_label
_atom_site_fract_x
_atom_site_fract_y
_atom_site_fract_z
Si Si1 0.106457 0.454692 0.687039
Si Si2 0.432549 0.465859 0.070273
Si Si3 0.704784 0.999157 0.371543
Si Si4 0.143506 0.051548 0.710072
Si Si5 0.046659 0.476385 0.916132
Si Si6 0.762915 0.076745 0.604765
Si Si7 0.000000 0.849367 0.750000
O O1 0.152298 0.487975 0.779733
O O2 0.087018 0.232100 0.694961
O O3 0.170875 0.505872 0.616078
O O4 0.016228 0.539438 0.662356
O O5 0.433966 0.243154 0.089534
O O6 0.335198 0.504510 0.048925
O O7 0.460064 0.571030 0.157978
O O8 0.500000 0.500000 0.000000
O O9 0.633352 0.921580 0.425375
O O10 0.735984 0.199713 0.406272
O O11 0.787712 0.900858 0.355227
O O12 0.195382 0.052552 0.799645
O O13 0.093865 0.858711 0.709322
O O14 0.000000 0.500000 0.000000
#
# Coordination Sequence:
#
# PCOD9260146 Si02
#       7
#     8   8   8   8   8   8   4
#     4  10  18  36  63  87 109 158 204 243 297 366
#     4  10  21  40  63  89 122 163 205 256 300 362
#     4   9  19  37  61  85 117 155 196 250 304 356
#     4   9  17  32  63  89 109 149 209 245 289 364
#     4  11  23  39  57  88 124 159 202 250 304 362
#     4   8  18  34  58  86 121 145 195 255 302 351
#     4  10  18  38  66  90 112 162 210 238 306 366
#
# _framework density 28.371154000000001
#
# number of rings (size 3 to 8) (size 9 to 14) (size 15 to 20)
#    0.000    2.462    1.538    1.385    0.000    1.231 
#    5.538    4.615    0.000    0.000    0.000    0.000 
#    0.000    0.000    0.000    0.000    0.000    0.000 
#
# Total GULP energy -144837.941820 kJ/mol
# GULP energy per Si atom -5570.690070 kJ/mol
# Density = 2.830658 g / cm^3
# Si number density = 28.371154 Si / 1000 Ang^3
#
#
#
# Elastic Constant Matrix: (Units=GPa)
#
#
# Indices 1 2 3 4 5 6 
#
# 1 140.8886 6.3549 48.6973 0.0000 -58.5889 0.0000
# 2 6.3549 92.8687 -30.3450 0.0000 4.7662 0.0000
# 3 48.6973 -30.3450 122.7508 0.0000 -15.8552 0.0000
# 4 0.0000 0.0000 0.0000 -1.8204 0.0000 12.0417
# 5 -58.5889 4.7662 -15.8552 0.0000 64.2752 0.0000
# 6 0.0000 0.0000 0.0000 12.0417 0.0000 28.5035
#
#
#
# Elastic Compliance Matrix: (Units=1/GPa)
#
#
# Indices 1 2 3 4 5 6 
#
# 1 0.013635 -0.003052 -0.004678 0.000000 0.011501 0.000000
# 2 -0.003052 0.012399 0.003923 0.000000 -0.002734 0.000000
# 3 -0.004678 0.003923 0.010726 0.000000 -0.001909 0.000000
# 4 0.000000 0.000000 0.000000 -0.144768 0.000000 0.061159
# 5 0.011501 -0.002734 -0.001909 0.000000 0.025774 0.000000
# 6 0.000000 0.000000 0.000000 0.061159 0.000000 0.009246
#
#
# Mechanical properties :
#
#
# Convention : Reuss Voigt Hill
#
# Bulk Modulus (GPa) = 34.31142 45.10250 39.70696
# Shear Modulus (GPa) = -89.83219 40.31172 -24.76024
#
# Velocity S-wave (km/s) = -5.63311 3.77353 -2.95740
# Velocity P-wave (km/s) = 5.49447 5.90914 1.53763
#
# Compressibility (1/GPa) = 0.02914482
#
# Stress axis : x y z
#
# Youngs Moduli (GPa) = 73.33885 80.65302 93.23466
#
# Poissons Ratio (x) = 0.24615 0.43618
# Poissons Ratio (y) = 0.22383 -0.36574
# Poissons Ratio (z) = 0.34310 -0.31638
#
# Static dielectric constant tensor:
#      x y z
#    x 2.263080 0.000000 -0.148110 
#    y 0.000000 2.395890 0.000000 
#    z -0.148110 0.000000 2.295410 
# 
# From -- ./inp_files/209073.got.cif
#   From: 2010.05.17/outbox.cif.g08.bks.cpg/sg15_105_cif.got.tgz:209073.got - 2010.06.03 18:47:42.
