data_PCOD9260500
_publ_section_title
;
Structure prediction by ZEFSAII (Michael W. Deem and Ramdas Pophale) SiO2 
 PCOD9260500
Probable space group: C 2/C
;
_chemical_formula_sum "Si O2"
_cell_formula_units_Z 40
_cell_length_a 7.072476
_cell_length_b 15.984210
_cell_length_c 18.407804
_cell_angle_alpha 90.000000
_cell_angle_beta 49.604419
_cell_angle_gamma 90.000000
_cell_volume 1584.838087
_symmetry_space_group_name_H-M "C 2/C"
_symmetry_group_IT_number 15
_symmetry_cell_setting 'monoclinic'
loop_
_space_group_symop_operation_xyz
x,y,z
-x,y,1/2-z
-x,-y,-z
x,-y,1/2+z
1/2+x,1/2+y,z
1/2-x,1/2+y,1/2-z
1/2-x,1/2-y,-z
1/2+x,1/2-y,1/2+z
loop_
_atom_site_type_symbol
_atom_site_label
_atom_site_fract_x
_atom_site_fract_y
_atom_site_fract_z
Si Si1 0.408683 0.302364 0.903420
Si Si2 0.607724 0.515103 0.066046
Si Si3 0.894052 0.479169 0.644240
Si Si4 0.726716 0.619291 0.797431
Si Si5 0.650379 0.206164 0.308099
O O1 0.675467 0.277112 0.805751
O O2 0.255425 0.303395 0.865260
O O3 0.250000 0.250000 0.000000
O O4 0.459269 0.389701 0.931246
O O5 0.605229 0.553904 0.883729
O O6 0.844429 0.490474 0.960583
O O7 0.694577 0.521872 0.128547
O O8 0.804024 0.558938 0.712200
O O9 0.916714 0.392371 0.683519
O O10 0.540728 0.698860 0.838964
O O11 0.000000 0.653420 0.750000
#
# Coordination Sequence:
#
# PCOD9260500 Si02
#       5
#     8   8   8   8   8
#     4  10  18  37  64  92 117 172 216 248 313 391
#     4  10  22  39  69  89 121 170 219 264 308 388
#     4  10  22  44  64  90 123 171 222 257 316 381
#     4  12  23  38  62  95 128 168 201 268 329 371
#     4  10  21  39  62  90 132 166 207 265 318 378
#
# _framework density 25.239173000000001
#
# number of rings (size 3 to 8) (size 9 to 14) (size 15 to 20)
#    0.000    1.600    4.000    1.800    0.000    1.600 
#    0.000    2.000    0.000    0.000    0.000    0.000 
#    0.000    0.000    0.000    0.000    0.000    0.000 
#
# Total GULP energy -111392.997553 kJ/mol
# GULP energy per Si atom -5569.649878 kJ/mol
# Density = 2.518173 g / cm^3
# Si number density = 25.239173 Si / 1000 Ang^3
#
#
#
# Elastic Constant Matrix: (Units=GPa)
#
#
# Indices 1 2 3 4 5 6 
#
# 1 39.7499 6.1114 15.7573 0.0000 9.3842 -0.0002
# 2 6.1114 208.5675 47.1169 0.0000 10.1207 -0.0001
# 3 15.7573 47.1169 117.3686 0.0000 1.9342 -0.0001
# 4 0.0000 0.0000 0.0000 40.6874 0.0000 3.6321
# 5 9.3842 10.1207 1.9342 0.0000 30.5886 0.0000
# 6 -0.0002 -0.0001 -0.0001 3.6321 0.0000 18.7605
#
#
#
# Elastic Compliance Matrix: (Units=1/GPa)
#
#
# Indices 1 2 3 4 5 6 
#
# 1 0.028685 0.000461 -0.003893 0.000000 -0.008707 0.000000
# 2 0.000461 0.005361 -0.002185 0.000000 -0.001777 0.000000
# 3 -0.003893 -0.002185 0.009899 0.000000 0.001291 0.000000
# 4 0.000000 0.000000 0.000000 0.025010 0.000000 -0.004842
# 5 -0.008707 -0.001777 0.001291 0.000000 0.035869 0.000000
# 6 0.000000 0.000000 0.000000 -0.004842 0.000000 0.054241
#
#
# Mechanical properties :
#
#
# Convention : Reuss Voigt Hill
#
# Bulk Modulus (GPa) = 30.56978 55.96190 43.26584
# Shear Modulus (GPa) = 27.59366 37.78732 32.69049
#
# Velocity S-wave (km/s) = 3.31008 3.87352 3.60283
# Velocity P-wave (km/s) = 5.17176 6.49818 5.87254
#
# Compressibility (1/GPa) = 0.03271204
#
# Stress axis : x y z
#
# Youngs Moduli (GPa) = 34.86144 186.53662 101.02460
#
# Poissons Ratio (x) = -0.08607 0.39327
# Poissons Ratio (y) = -0.01608 0.22071
# Poissons Ratio (z) = 0.13571 0.40754
#
# Static dielectric constant tensor:
#      x y z
#    x 2.173080 0.000000 0.050740 
#    y 0.000000 2.105250 0.000000 
#    z 0.050740 0.000000 1.937740 
# 
# From -- ./inp_files/178472.got.cif
#   From: 2010.05.17/outbox.cif.g08.bks.cpg/sg15_90_cif.got.tgz:178472.got - 2010.06.03 18:47:42.
