data_PCOD9260879
_publ_section_title
;
Structure prediction by ZEFSAII (Michael W. Deem and Ramdas Pophale) SiO2 
 PCOD9260879
Probable space group: C 2/C
;
_chemical_formula_sum "Si O2"
_cell_formula_units_Z 48
_cell_length_a 8.855326
_cell_length_b 19.494938
_cell_length_c 11.891983
_cell_angle_alpha 90.000000
_cell_angle_beta 82.102121
_cell_angle_gamma 90.000000
_cell_volume 2033.487708
_symmetry_space_group_name_H-M "C 2/C"
_symmetry_group_IT_number 15
_symmetry_cell_setting 'monoclinic'
loop_
_space_group_symop_operation_xyz
x,y,z
-x,y,1/2-z
-x,-y,-z
x,-y,1/2+z
1/2+x,1/2+y,z
1/2-x,1/2+y,1/2-z
1/2-x,1/2-y,-z
1/2+x,1/2-y,1/2+z
loop_
_atom_site_type_symbol
_atom_site_label
_atom_site_fract_x
_atom_site_fract_y
_atom_site_fract_z
Si Si1 0.077063 0.264514 0.492131
Si Si2 0.895896 0.151775 0.657061
Si Si3 0.603919 0.917031 0.571561
Si Si4 0.840121 0.031980 0.484313
Si Si5 0.323784 0.745620 0.365432
Si Si6 0.725870 0.901235 0.794030
O O1 0.250000 0.250000 0.500000
O O2 0.069123 0.347303 0.506580
O O3 0.995822 0.213242 0.590830
O O4 0.000945 0.244977 0.380692
O O5 0.839511 0.096169 0.571156
O O6 0.739669 0.191579 0.701436
O O7 0.000000 0.125275 0.750000
O O8 0.720229 0.902201 0.661753
O O9 0.438578 0.928122 0.644746
O O10 0.693733 0.981136 0.508748
O O11 0.844458 0.056088 0.354860
O O12 0.000000 0.000000 0.500000
O O13 0.250000 0.750000 0.500000
O O14 0.256892 0.676476 0.323966
#
# Coordination Sequence:
#
# PCOD9260879 Si02
#       6
#     8   8   8   8   8   8
#     4  11  21  40  65 100 130 168 220 280 331 396
#     4  11  22  41  67  89 127 173 222 265 329 400
#     4  11  24  40  69  97 131 178 227 266 338 412
#     4  12  26  42  62  97 136 175 212 277 337 398
#     4  10  18  38  67  92 123 169 214 273 332 376
#     4  11  22  44  68  94 129 176 226 275 328 404
#
# _framework density 23.604765
#
# number of rings (size 3 to 8) (size 9 to 14) (size 15 to 20)
#    0.000    1.000    6.667    2.500    2.333    0.000 
#    0.000    2.500    0.000    0.000    0.000    0.000 
#    0.000    0.000    0.000    0.000    0.000    0.000 
#
# Total GULP energy -133831.482961 kJ/mol
# GULP energy per Si atom -5576.311790 kJ/mol
# Density = 2.355104 g / cm^3
# Si number density = 23.604765 Si / 1000 Ang^3
#
#
#
# Elastic Constant Matrix: (Units=GPa)
#
#
# Indices 1 2 3 4 5 6 
#
# 1 102.7940 24.3366 1.9602 0.0000 12.4713 0.0000
# 2 24.3366 124.1080 32.9326 0.0000 7.2780 0.0000
# 3 1.9602 32.9326 61.5647 0.0000 31.6550 0.0000
# 4 0.0000 0.0000 0.0000 24.2517 0.0000 18.5769
# 5 12.4713 7.2780 31.6550 0.0000 44.8711 0.0000
# 6 0.0000 0.0000 0.0000 18.5769 0.0000 42.6644
#
#
#
# Elastic Compliance Matrix: (Units=1/GPa)
#
#
# Indices 1 2 3 4 5 6 
#
# 1 0.010990 -0.002891 0.003964 0.000000 -0.005382 0.000000
# 2 -0.002891 0.010448 -0.007906 0.000000 0.004687 0.000000
# 3 0.003964 -0.007906 0.031782 0.000000 -0.022240 0.000000
# 4 0.000000 0.000000 0.000000 0.061870 0.000000 -0.026939
# 5 -0.005382 0.004687 -0.022240 0.000000 0.038711 0.000000
# 6 0.000000 0.000000 0.000000 -0.026939 0.000000 0.035169
#
#
# Mechanical properties :
#
#
# Convention : Reuss Voigt Hill
#
# Bulk Modulus (GPa) = 25.28328 45.21395 35.24862
# Shear Modulus (GPa) = 23.16739 37.63992 30.40366
#
# Velocity S-wave (km/s) = 3.13624 3.99756 3.59281
# Velocity P-wave (km/s) = 4.88355 6.36424 5.67241
#
# Compressibility (1/GPa) = 0.03955182
#
# Stress axis : x y z
#
# Youngs Moduli (GPa) = 90.99091 95.71546 31.46479
#
# Poissons Ratio (x) = 0.27675 -0.12473
# Poissons Ratio (y) = 0.26309 0.24878
# Poissons Ratio (z) = -0.36069 0.75677
#
# Static dielectric constant tensor:
#      x y z
#    x 1.988560 0.000000 -0.046600 
#    y 0.000000 2.084570 0.000000 
#    z -0.046600 0.000000 1.972880 
# 
# From -- ./inp_files/134859.got.cif
#   From: 2010.05.17/outbox.cif.g08.bks.cpg/sg15_68_cif.got.tgz:134859.got - 2010.06.03 18:47:42.
