data_PCOD9260271
_publ_section_title
;
Structure prediction by ZEFSAII (Michael W. Deem and Ramdas Pophale) SiO2 
 PCOD9260271
Probable space group: C 2/C
;
_chemical_formula_sum "Si O2"
_cell_formula_units_Z 40
_cell_length_a 11.431154
_cell_length_b 10.798099
_cell_length_c 14.991959
_cell_angle_alpha 90.000000
_cell_angle_beta 116.260533
_cell_angle_gamma 90.000000
_cell_volume 1659.538033
_symmetry_space_group_name_H-M "C 2/C"
_symmetry_group_IT_number 15
_symmetry_cell_setting 'monoclinic'
loop_
_space_group_symop_operation_xyz
x,y,z
-x,y,1/2-z
-x,-y,-z
x,-y,1/2+z
1/2+x,1/2+y,z
1/2-x,1/2+y,1/2-z
1/2-x,1/2-y,-z
1/2+x,1/2-y,1/2+z
loop_
_atom_site_type_symbol
_atom_site_label
_atom_site_fract_x
_atom_site_fract_y
_atom_site_fract_z
Si Si1 0.877384 0.748872 0.275782
Si Si2 0.517339 0.482603 0.110827
Si Si3 0.248360 0.850777 0.422441
Si Si4 0.152291 0.614974 0.057710
Si Si5 0.056708 0.762425 0.858569
O O1 0.756311 0.771293 0.169354
O O2 0.886728 0.645500 0.354196
O O3 0.000000 0.732333 0.250000
O O4 0.878350 0.878848 0.330810
O O5 0.388921 0.422045 0.110709
O O6 0.533367 0.616414 0.158190
O O7 0.500000 0.500000 0.000000
O O8 0.250000 0.750000 0.500000
O O9 0.343639 0.967778 0.457588
O O10 0.297016 0.679375 0.101744
O O11 0.068278 0.681145 0.951934
O O12 0.000000 0.699544 0.750000
#
# Coordination Sequence:
#
# PCOD9260271 Si02
#       5
#     8   8   8   8   8
#     4  10  21  41  64  93 127 175 226 271 329 398
#     4  10  18  36  67  87 122 172 221 266 315 387
#     4  10  23  40  62  92 128 169 212 263 335 393
#     4  10  21  41  65  97 133 169 224 275 327 401
#     4  10  20  37  65 101 129 169 225 280 328 384
#
# _framework density 24.103093999999999
#
# number of rings (size 3 to 8) (size 9 to 14) (size 15 to 20)
#    0.000    2.000    2.000    3.000    0.000    3.200 
#    0.000    7.000    0.000    0.000    0.000    0.000 
#    0.000    0.000    0.000    0.000    0.000    0.000 
#
# Total GULP energy -111742.043789 kJ/mol
# GULP energy per Si atom -5587.102189 kJ/mol
# Density = 2.404823 g / cm^3
# Si number density = 24.103094 Si / 1000 Ang^3
#
#
#
# Elastic Constant Matrix: (Units=GPa)
#
#
# Indices 1 2 3 4 5 6 
#
# 1 42.4672 39.4266 1.5216 0.0000 -13.6895 0.0000
# 2 39.4266 155.8093 88.2625 0.0000 -11.8100 0.0000
# 3 1.5216 88.2625 180.1588 0.0000 -20.8032 0.0000
# 4 0.0000 0.0000 0.0000 29.2988 0.0000 -10.1613
# 5 -13.6895 -11.8100 -20.8032 0.0000 38.3960 0.0000
# 6 0.0000 0.0000 0.0000 -10.1613 0.0000 40.6079
#
#
#
# Elastic Compliance Matrix: (Units=1/GPa)
#
#
# Indices 1 2 3 4 5 6 
#
# 1 0.040825 -0.013817 0.008123 0.000000 0.014707 0.000000
# 2 -0.013817 0.013566 -0.007058 0.000000 -0.004578 0.000000
# 3 0.008123 -0.007058 0.009626 0.000000 0.005940 0.000000
# 4 0.000000 0.000000 0.000000 0.037375 0.000000 0.009352
# 5 0.014707 -0.004578 0.005940 0.000000 0.033098 0.000000
# 6 0.000000 0.000000 0.000000 0.009352 0.000000 0.026966
#
#
# Mechanical properties :
#
#
# Convention : Reuss Voigt Hill
#
# Bulk Modulus (GPa) = 25.96611 70.76184 48.36397
# Shear Modulus (GPa) = 25.02533 38.27551 31.65042
#
# Velocity S-wave (km/s) = 3.22570 3.98928 3.62764
# Velocity P-wave (km/s) = 4.96688 7.11624 6.13640
#
# Compressibility (1/GPa) = 0.03851174
#
# Stress axis : x y z
#
# Youngs Moduli (GPa) = 24.49468 73.71580 103.88769
#
# Poissons Ratio (x) = 1.01854 -0.84384
# Poissons Ratio (y) = 0.33845 0.73323
# Poissons Ratio (z) = -0.19896 0.52028
#
# Static dielectric constant tensor:
#      x y z
#    x 2.079480 0.000000 0.079580 
#    y 0.000000 1.967640 0.000000 
#    z 0.079580 0.000000 1.818650 
# 
# From -- ./inp_files/151506.got.cif
#   From: 2010.05.17/outbox.cif.g08.bks.cpg/sg15_76_cif.got.tgz:151506.got - 2010.06.03 18:47:42.
