data_PCOD9260184
_publ_section_title
;
Structure prediction by ZEFSAII (Michael W. Deem and Ramdas Pophale) SiO2 
 PCOD9260184
Probable space group: C 2/C
;
_chemical_formula_sum "Si O2"
_cell_formula_units_Z 44
_cell_length_a 15.269027
_cell_length_b 9.530112
_cell_length_c 16.948255
_cell_angle_alpha 90.000000
_cell_angle_beta 73.592319
_cell_angle_gamma 90.000000
_cell_volume 2365.799789
_symmetry_space_group_name_H-M "C 2/C"
_symmetry_group_IT_number 15
_symmetry_cell_setting 'monoclinic'
loop_
_space_group_symop_operation_xyz
x,y,z
-x,y,1/2-z
-x,-y,-z
x,-y,1/2+z
1/2+x,1/2+y,z
1/2-x,1/2+y,1/2-z
1/2-x,1/2-y,-z
1/2+x,1/2-y,1/2+z
loop_
_atom_site_type_symbol
_atom_site_label
_atom_site_fract_x
_atom_site_fract_y
_atom_site_fract_z
Si Si1 0.466971 0.844947 0.029774
Si Si2 0.212159 0.293108 0.339145
Si Si3 0.091203 0.909753 0.493769
Si Si4 0.000000 0.918773 0.250000
Si Si5 0.331199 0.480775 0.192319
Si Si6 0.131667 0.831900 0.082463
O O1 0.390493 0.844422 0.117339
O O2 0.553005 0.742709 0.026539
O O3 0.412805 0.769597 0.971219
O O4 0.500000 0.000000 0.000000
O O5 0.264418 0.388238 0.262563
O O6 0.271889 0.293843 0.404131
O O7 0.208415 0.133369 0.312610
O O8 0.146501 0.909403 0.397720
O O9 0.139097 0.008922 0.546139
O O10 0.000000 0.000000 0.500000
O O11 0.073543 0.999729 0.284461
O O12 0.059955 0.832161 0.172898
#
# Coordination Sequence:
#
# PCOD9260184 Si02
#       6
#     8   8   8   4   8   8
#     4  11  22  37  61  90 122 153 202 253 302 348
#     4  11  24  39  62  90 123 156 203 253 301 358
#     4  10  18  39  64  82 116 164 200 233 300 370
#     4  10  18  36  64  86 110 164 204 232 302 376
#     4  11  22  38  62  88 122 156 204 249 301 364
#     4  10  20  38  65  86 116 165 202 239 302 370
#
# _framework density 18.598362000000002
#
# number of rings (size 3 to 8) (size 9 to 14) (size 15 to 20)
#    0.000    1.455    7.273    0.545    2.545    0.000 
#    0.000    6.364    0.000    1.091    0.000    0.000 
#    0.000    0.000    0.000    0.000    0.000    0.000 
#
# Total GULP energy -122678.502845 kJ/mol
# GULP energy per Si atom -5576.295584 kJ/mol
# Density = 1.855603 g / cm^3
# Si number density = 18.598362 Si / 1000 Ang^3
#
#
#
# Elastic Constant Matrix: (Units=GPa)
#
#
# Indices 1 2 3 4 5 6 
#
# 1 73.7772 54.5704 31.2815 0.0000 -6.0943 0.0000
# 2 54.5704 121.9538 28.9690 0.0000 -26.3258 0.0000
# 3 31.2815 28.9690 112.3520 0.0000 -28.3762 0.0000
# 4 0.0000 0.0000 0.0000 24.8332 0.0000 -3.3666
# 5 -6.0943 -26.3258 -28.3762 0.0000 15.8349 0.0000
# 6 0.0000 0.0000 0.0000 -3.3666 0.0000 15.5294
#
#
#
# Elastic Compliance Matrix: (Units=1/GPa)
#
#
# Indices 1 2 3 4 5 6 
#
# 1 0.033663 -0.023337 -0.018053 0.000000 -0.058193 0.000000
# 2 -0.023337 0.029915 0.016582 0.000000 0.070468 0.000000
# 3 -0.018053 0.016582 0.027145 0.000000 0.069264 0.000000
# 4 0.000000 0.000000 0.000000 0.041488 0.000000 0.008994
# 5 -0.058193 0.070468 0.069264 0.000000 0.282030 0.000000
# 6 0.000000 0.000000 0.000000 0.008994 0.000000 0.066344
#
#
# Mechanical properties :
#
#
# Convention : Reuss Voigt Hill
#
# Bulk Modulus (GPa) = 24.32659 59.74720 42.03689
# Shear Modulus (GPa) = 9.19279 24.12363 16.65821
#
# Velocity S-wave (km/s) = 2.22565 3.60541 2.99604
# Velocity P-wave (km/s) = 4.43994 7.03752 5.88387
#
# Compressibility (1/GPa) = 0.04110729
#
# Stress axis : x y z
#
# Youngs Moduli (GPa) = 29.70591 33.42793 36.83896
#
# Poissons Ratio (x) = 0.78011 0.66506
# Poissons Ratio (y) = 0.69325 -0.61086
# Poissons Ratio (z) = 0.53628 -0.55430
#
# Static dielectric constant tensor:
#      x y z
#    x 1.670430 0.000000 0.004560 
#    y 0.000000 1.617880 0.000000 
#    z 0.004560 0.000000 1.677290 
# 
# From -- ./inp_files/202583.got.cif
#   From: 2010.05.17/outbox.cif.g08.bks.cpg/sg15_102_cif.got.tgz:202583.got - 2010.06.03 18:47:42.
