data_PCOD9260191
_publ_section_title
;
Structure prediction by ZEFSAII (Michael W. Deem and Ramdas Pophale) SiO2 
 PCOD9260191
Probable space group: C 2/C
;
_chemical_formula_sum "Si O2"
_cell_formula_units_Z 64
_cell_length_a 18.391573
_cell_length_b 18.809832
_cell_length_c 19.868470
_cell_angle_alpha 90.000000
_cell_angle_beta 156.942802
_cell_angle_gamma 90.000000
_cell_volume 2691.945115
_symmetry_space_group_name_H-M "C 2/C"
_symmetry_group_IT_number 15
_symmetry_cell_setting 'monoclinic'
loop_
_space_group_symop_operation_xyz
x,y,z
-x,y,1/2-z
-x,-y,-z
x,-y,1/2+z
1/2+x,1/2+y,z
1/2-x,1/2+y,1/2-z
1/2-x,1/2-y,-z
1/2+x,1/2-y,1/2+z
loop_
_atom_site_type_symbol
_atom_site_label
_atom_site_fract_x
_atom_site_fract_y
_atom_site_fract_z
Si Si1 0.741162 0.077078 0.364471
Si Si2 0.635019 0.882678 0.464050
Si Si3 0.899019 0.481736 0.483093
Si Si4 0.735506 0.428895 0.062692
Si Si5 0.464176 0.218689 0.293550
Si Si6 0.376342 0.212107 0.422097
Si Si7 0.526448 0.637367 0.054395
Si Si8 0.280903 0.835621 0.375322
O O1 0.564528 0.049252 0.170558
O O2 0.682203 0.154387 0.340540
O O3 0.907496 0.092010 0.453519
O O4 0.762248 0.015070 0.437671
O O5 0.427019 0.900656 0.260226
O O6 0.766014 0.890352 0.510670
O O7 0.636597 0.812210 0.510887
O O8 0.681468 0.947487 0.553441
O O9 0.749790 0.419358 0.347563
O O10 0.000000 0.500000 0.500000
O O11 0.569940 0.409927 0.971442
O O12 0.500000 0.246493 0.250000
O O13 0.633566 0.185660 0.479086
O O14 0.387065 0.281747 0.274022
O O15 0.387374 0.296739 0.423756
O O16 0.207386 0.176371 0.238472
O O17 0.560152 0.179974 0.544007
#
# Coordination Sequence:
#
# PCOD9260191 Si02
#       8
#     8   8   8   8   8   8   8   8
#     4  10  21  38  63  93 125 164 207 256 311 377
#     4  10  22  42  64  93 126 165 213 262 321 384
#     4  10  18  36  64  88 118 164 205 250 312 372
#     4  10  24  40  64  94 127 166 212 264 324 377
#     4  11  23  39  63  93 130 168 205 254 310 378
#     4  12  22  41  67  93 128 168 213 265 316 377
#     4  12  23  42  65  96 126 166 215 266 321 380
#     4  11  21  40  61  90 125 164 211 250 310 372
#
# _framework density 23.774629999999998
#
# number of rings (size 3 to 8) (size 9 to 14) (size 15 to 20)
#    0.000    1.250    5.000    1.500    5.250    1.000 
#    0.000    1.250    0.000    0.000    0.000    0.000 
#    0.000    0.000    0.000    0.000    0.000    0.000 
#
# Total GULP energy -179102.985814 kJ/mol
# GULP energy per Si atom -5596.968307 kJ/mol
# Density = 2.372052 g / cm^3
# Si number density = 23.774630 Si / 1000 Ang^3
#
#
#
# Elastic Constant Matrix: (Units=GPa)
#
#
# Indices 1 2 3 4 5 6 
#
# 1 110.4637 10.7296 13.7043 -0.0133 0.6783 0.0010
# 2 10.7296 68.3753 8.1194 0.0207 0.8111 0.0137
# 3 13.7043 8.1194 58.2404 0.0402 -1.4737 0.0109
# 4 -0.0133 0.0207 0.0402 17.0713 0.0080 -0.9714
# 5 0.6783 0.8111 -1.4737 0.0080 29.9255 0.0012
# 6 0.0010 0.0137 0.0109 -0.9714 0.0012 37.1419
#
#
#
# Elastic Compliance Matrix: (Units=1/GPa)
#
#
# Indices 1 2 3 4 5 6 
#
# 1 0.009429 -0.001232 -0.002054 0.000014 -0.000281 0.000001
# 2 -0.001232 0.015040 -0.001819 -0.000015 -0.000469 -0.000005
# 3 -0.002054 -0.001819 0.017932 -0.000042 0.000979 -0.000006
# 4 0.000014 -0.000015 -0.000042 0.058665 -0.000018 0.001534
# 5 -0.000281 -0.000469 0.000979 -0.000018 0.033484 -0.000002
# 6 0.000001 -0.000005 -0.000006 0.001534 -0.000002 0.026964
#
#
# Mechanical properties :
#
#
# Convention : Reuss Voigt Hill
#
# Bulk Modulus (GPa) = 31.06468 33.57620 32.32044
# Shear Modulus (GPa) = 27.40416 30.46282 28.93349
#
# Velocity S-wave (km/s) = 3.39877 3.58343 3.49232
# Velocity P-wave (km/s) = 5.33825 5.59238 5.46679
#
# Compressibility (1/GPa) = 0.03219090
#
# Stress axis : x y z
#
# Youngs Moduli (GPa) = 106.05568 66.48902 55.76660
#
# Poissons Ratio (x) = 0.08194 0.11455
# Poissons Ratio (y) = 0.13070 0.10142
# Poissons Ratio (z) = 0.21784 0.12092
#
# Static dielectric constant tensor:
#      x y z
#    x 1.876160 -0.000010 -0.011290 
#    y -0.000010 1.912040 -0.000020 
#    z -0.011290 -0.000020 1.968280 
# 
# From -- ./inp_files/249641.got.cif
#   From: 2010.05.17/outbox.cif.g08.bks.cpg/sg15_125_cif.got.tgz:249641.got - 2010.06.03 18:47:42.
