data_PCOD9260169
_publ_section_title
;
Structure prediction by ZEFSAII (Michael W. Deem and Ramdas Pophale) SiO2 
 PCOD9260169
Probable space group: C 2/C
;
_chemical_formula_sum "Si O2"
_cell_formula_units_Z 60
_cell_length_a 10.866414
_cell_length_b 18.764135
_cell_length_c 14.280964
_cell_angle_alpha 90.000000
_cell_angle_beta 113.691394
_cell_angle_gamma 90.000000
_cell_volume 2666.468284
_symmetry_space_group_name_H-M "C 2/C"
_symmetry_group_IT_number 15
_symmetry_cell_setting 'monoclinic'
loop_
_space_group_symop_operation_xyz
x,y,z
-x,y,1/2-z
-x,-y,-z
x,-y,1/2+z
1/2+x,1/2+y,z
1/2-x,1/2+y,1/2-z
1/2-x,1/2-y,-z
1/2+x,1/2-y,1/2+z
loop_
_atom_site_type_symbol
_atom_site_label
_atom_site_fract_x
_atom_site_fract_y
_atom_site_fract_z
Si Si1 0.688524 0.634436 0.362780
Si Si2 0.217903 0.604492 0.456642
Si Si3 0.355985 0.998410 0.409821
Si Si4 0.092660 0.275594 0.032342
Si Si5 0.884616 0.626886 0.793017
Si Si6 0.074077 0.133029 0.123433
Si Si7 0.000000 0.347219 0.750000
Si Si8 0.338899 0.740939 0.832397
O O1 0.806940 0.578578 0.398700
O O2 0.621328 0.617139 0.242218
O O3 0.585790 0.626937 0.416930
O O4 0.739121 0.714718 0.368744
O O5 0.228378 0.548752 0.543031
O O6 0.201287 0.682234 0.501758
O O7 0.345030 0.591158 0.429687
O O8 0.083887 0.605758 0.350179
O O9 0.353495 0.954982 0.311746
O O10 0.500000 0.000000 0.500000
O O11 0.053212 0.338617 0.092670
O O12 0.122291 0.212983 0.114220
O O13 0.978361 0.237960 0.933821
O O14 0.747060 0.671691 0.726376
O O15 0.000000 0.632185 0.750000
O O16 0.892387 0.294632 0.766957
#
# Coordination Sequence:
#
# PCOD9260169 Si02
#       8
#     8   8   8   8   8   8   4   8
#     4  11  23  42  63  95 131 180 221 271 341 409
#     4  10  21  38  67  94 129 172 223 280 331 401
#     4  11  26  44  64  95 136 174 229 292 331 405
#     4  10  21  38  65 103 132 164 225 287 332 393
#     4  11  23  42  67 100 132 173 220 284 344 402
#     4  11  22  39  67  90 133 177 219 269 340 408
#     4  10  18  36  64 100 126 174 222 266 354 392
#     4  11  22  38  68  98 131 168 225 280 331 404
#
# _framework density 22.501674000000001
#
# number of rings (size 3 to 8) (size 9 to 14) (size 15 to 20)
#    0.000    1.333    2.667    3.600    0.000    8.000 
#    1.200    4.000    0.000    0.000    0.000    0.000 
#    0.000    0.000    0.000    0.000    0.000    0.000 
#
# Total GULP energy -167242.007549 kJ/mol
# GULP energy per Si atom -5574.733585 kJ/mol
# Density = 2.245046 g / cm^3
# Si number density = 22.501674 Si / 1000 Ang^3
#
#
#
# Elastic Constant Matrix: (Units=GPa)
#
#
# Indices 1 2 3 4 5 6 
#
# 1 125.2863 9.0885 29.0349 0.0000 -12.6164 0.0000
# 2 9.0885 47.3133 14.8811 0.0000 4.2750 0.0000
# 3 29.0349 14.8811 61.4431 0.0000 -5.6272 0.0000
# 4 0.0000 0.0000 0.0000 31.9217 0.0000 7.2468
# 5 -12.6164 4.2750 -5.6272 0.0000 36.2012 0.0000
# 6 0.0000 0.0000 0.0000 7.2468 0.0000 36.3076
#
#
#
# Elastic Compliance Matrix: (Units=1/GPa)
#
#
# Indices 1 2 3 4 5 6 
#
# 1 0.009218 -0.000781 -0.003920 0.000000 0.002696 0.000000
# 2 -0.000781 0.023421 -0.005662 0.000000 -0.003918 0.000000
# 3 -0.003920 -0.005662 0.019716 0.000000 0.002367 0.000000
# 4 0.000000 0.000000 0.000000 0.032813 0.000000 -0.006549
# 5 0.002696 -0.003918 0.002367 0.000000 0.029394 0.000000
# 6 0.000000 0.000000 0.000000 -0.006549 0.000000 0.028850
#
#
# Mechanical properties :
#
#
# Convention : Reuss Voigt Hill
#
# Bulk Modulus (GPa) = 31.61751 37.78351 34.70051
# Shear Modulus (GPa) = 28.62368 32.95531 30.78950
#
# Velocity S-wave (km/s) = 3.57048 3.83112 3.70309
# Velocity P-wave (km/s) = 5.57489 6.03307 5.80850
#
# Compressibility (1/GPa) = 0.03162805
#
# Stress axis : x y z
#
# Youngs Moduli (GPa) = 108.47984 42.69736 50.72106
#
# Poissons Ratio (x) = 0.03336 0.19883
# Poissons Ratio (y) = 0.08477 0.28718
# Poissons Ratio (z) = 0.42524 0.24175
#
# Static dielectric constant tensor:
#      x y z
#    x 1.937860 0.000000 -0.005320 
#    y 0.000000 1.893960 0.000000 
#    z -0.005320 0.000000 1.903930 
# 
# From -- ./inp_files/146128.got.cif
#   From: 2010.05.17/outbox.cif.g08.bks.cpg/sg15_74_cif.got.tgz:146128.got - 2010.06.03 18:47:42.
