data_PCOD9260173
_publ_section_title
;
Structure prediction by ZEFSAII (Michael W. Deem and Ramdas Pophale) SiO2 
 PCOD9260173
Probable space group: C 2/C
;
_chemical_formula_sum "Si O2"
_cell_formula_units_Z 44
_cell_length_a 19.270541
_cell_length_b 8.063282
_cell_length_c 13.286657
_cell_angle_alpha 90.000000
_cell_angle_beta 110.036330
_cell_angle_gamma 90.000000
_cell_volume 1939.576745
_symmetry_space_group_name_H-M "C 2/C"
_symmetry_group_IT_number 15
_symmetry_cell_setting 'monoclinic'
loop_
_space_group_symop_operation_xyz
x,y,z
-x,y,1/2-z
-x,-y,-z
x,-y,1/2+z
1/2+x,1/2+y,z
1/2-x,1/2+y,1/2-z
1/2-x,1/2-y,-z
1/2+x,1/2-y,1/2+z
loop_
_atom_site_type_symbol
_atom_site_label
_atom_site_fract_x
_atom_site_fract_y
_atom_site_fract_z
Si Si1 0.185683 0.516151 0.490208
Si Si2 0.500000 0.456656 0.250000
Si Si3 0.126282 0.265744 0.607005
Si Si4 0.256485 0.803100 0.663938
Si Si5 0.397007 0.403009 0.854361
Si Si6 0.965341 0.306204 0.561388
O O1 0.174592 0.342992 0.541626
O O2 0.229040 0.644390 0.585874
O O3 0.225344 0.546460 0.403710
O O4 0.100820 0.577134 0.435491
O O5 0.563080 0.565409 0.230367
O O6 0.530407 0.338620 0.352893
O O7 0.173544 0.268734 0.732534
O O8 0.049680 0.365446 0.588388
O O9 0.102640 0.075355 0.582365
O O10 0.187391 0.851122 0.698181
O O11 0.439084 0.270126 0.942746
#
# Coordination Sequence:
#
# PCOD9260173 Si02
#       6
#     8   4   8   8   8   8
#     4  10  21  38  58  81 117 150 182 233 280 330
#     4  10  18  36  64  78 104 152 188 228 278 334
#     4  11  20  36  59  84 111 147 189 230 276 333
#     4  10  22  38  57  85 114 150 189 226 282 341
#     4  10  22  38  57  84 113 144 190 234 279 336
#     4  10  21  38  59  84 111 146 191 231 277 337
#
# _framework density 22.685362999999999
#
# number of rings (size 3 to 8) (size 9 to 14) (size 15 to 20)
#    0.000    1.818    0.000    6.000    0.000    3.636 
#    0.000    9.091    0.000    5.455    0.000    0.000 
#    0.000    0.000    0.000    0.000    0.000    0.000 
#
# Total GULP energy -122973.914946 kJ/mol
# GULP energy per Si atom -5589.723407 kJ/mol
# Density = 2.263373 g / cm^3
# Si number density = 22.685363 Si / 1000 Ang^3
#
#
#
# Elastic Constant Matrix: (Units=GPa)
#
#
# Indices 1 2 3 4 5 6 
#
# 1 132.4516 14.8450 42.0026 0.0000 1.4971 0.0000
# 2 14.8450 40.9731 -1.7623 0.0000 -6.8851 0.0000
# 3 42.0026 -1.7623 49.4010 0.0000 1.7147 0.0000
# 4 0.0000 0.0000 0.0000 -2.0897 0.0000 -13.5730
# 5 1.4971 -6.8851 1.7147 0.0000 47.5143 0.0000
# 6 0.0000 0.0000 0.0000 -13.5730 0.0000 33.0206
#
#
#
# Elastic Compliance Matrix: (Units=1/GPa)
#
#
# Indices 1 2 3 4 5 6 
#
# 1 0.011106 -0.004547 -0.009582 0.000000 -0.000663 0.000000
# 2 -0.004547 0.026906 0.004692 0.000000 0.003873 0.000000
# 3 -0.009582 0.004692 0.028558 0.000000 -0.000049 0.000000
# 4 0.000000 0.000000 0.000000 -0.130398 0.000000 -0.053599
# 5 -0.000663 0.003873 -0.000049 0.000000 0.021630 0.000000
# 6 0.000000 0.000000 0.000000 -0.053599 0.000000 0.008252
#
#
# Mechanical properties :
#
#
# Convention : Reuss Voigt Hill
#
# Bulk Modulus (GPa) = 20.96622 36.99960 28.98291
# Shear Modulus (GPa) = 6041.36174 26.87173 3034.11674
#
# Velocity S-wave (km/s) = 51.66131 3.44545 36.61122
# Velocity P-wave (km/s) = 59.73093 5.67217 42.42616
#
# Compressibility (1/GPa) = 0.04769577
#
# Stress axis : x y z
#
# Youngs Moduli (GPa) = 90.04518 37.16596 35.01629
#
# Poissons Ratio (x) = 0.16900 0.33551
# Poissons Ratio (y) = 0.40945 -0.16428
# Poissons Ratio (z) = 0.86277 -0.17437
#
# Static dielectric constant tensor:
#      x y z
#    x 1.866250 0.000000 -0.000070 
#    y 0.000000 1.907320 0.000000 
#    z -0.000070 0.000000 1.789080 
# 
# From -- ./inp_files/109981.got.cif
#   From: 2010.05.17/outbox.cif.g08.bks.cpg/sg15_55_cif.got.tgz:109981.got - 2010.06.03 18:47:42.
