data_PCOD9260534
_publ_section_title
;
Structure prediction by ZEFSAII (Michael W. Deem and Ramdas Pophale) SiO2 
 PCOD9260534
Probable space group: C 2/C
;
_chemical_formula_sum "Si O2"
_cell_formula_units_Z 40
_cell_length_a 8.557876
_cell_length_b 14.831047
_cell_length_c 14.521581
_cell_angle_alpha 90.000000
_cell_angle_beta 49.135514
_cell_angle_gamma 90.000000
_cell_volume 1393.870247
_symmetry_space_group_name_H-M "C 2/C"
_symmetry_group_IT_number 15
_symmetry_cell_setting 'monoclinic'
loop_
_space_group_symop_operation_xyz
x,y,z
-x,y,1/2-z
-x,-y,-z
x,-y,1/2+z
1/2+x,1/2+y,z
1/2-x,1/2+y,1/2-z
1/2-x,1/2-y,-z
1/2+x,1/2-y,1/2+z
loop_
_atom_site_type_symbol
_atom_site_label
_atom_site_fract_x
_atom_site_fract_y
_atom_site_fract_z
Si Si1 0.749236 0.766406 0.670501
Si Si2 0.088007 0.573629 0.320224
Si Si3 0.363782 0.156677 0.935200
Si Si4 0.967562 0.099307 0.559344
Si Si5 0.257165 0.526982 0.911647
O O1 0.500000 0.751796 0.750000
O O2 0.732581 0.839537 0.759070
O O3 0.899090 0.684633 0.637906
O O4 0.877402 0.824849 0.544285
O O5 0.904512 0.583509 0.463601
O O6 0.205413 0.494247 0.326640
O O7 0.000000 0.557474 0.250000
O O8 0.265061 0.128502 0.874882
O O9 0.272992 0.074273 0.032186
O O10 0.250000 0.250000 0.000000
O O11 0.000000 0.000000 0.500000
O O12 0.041931 0.078994 0.633086
#
# Coordination Sequence:
#
# PCOD9260534 Si02
#       5
#     8   8   8   8   8
#     4  10  18  37  66 100 152 201 249 322 383 452
#     4  10  20  37  68 103 143 195 264 318 369 459
#     4   9  20  37  66 103 145 198 252 316 396 460
#     4   9  17  35  66 101 142 197 249 314 380 464
#     4  10  19  38  69 105 143 206 256 311 395 454
#
# _framework density 28.697075000000002
#
# number of rings (size 3 to 8) (size 9 to 14) (size 15 to 20)
#    0.000    2.400    4.000    0.000    0.000    0.000 
#    0.000   15.000    0.000    9.600    0.000    0.000 
#    0.000    6.400    0.400    0.200    0.000    0.000 
#
# Total GULP energy -111558.401073 kJ/mol
# GULP energy per Si atom -5577.920054 kJ/mol
# Density = 2.863176 g / cm^3
# Si number density = 28.697075 Si / 1000 Ang^3
#
#
#
# Elastic Constant Matrix: (Units=GPa)
#
#
# Indices 1 2 3 4 5 6 
#
# 1 257.9003 78.5262 70.7613 0.0002 -24.8843 -0.0002
# 2 78.5262 213.6144 53.4007 0.0001 -9.4531 -0.0001
# 3 70.7613 53.4007 160.5933 0.0001 -40.8690 -0.0002
# 4 0.0002 0.0001 0.0001 64.8337 -0.0002 -8.7777
# 5 -24.8843 -9.4531 -40.8690 -0.0002 64.9302 0.0002
# 6 -0.0002 -0.0001 -0.0002 -8.7777 0.0002 66.9849
#
#
#
# Elastic Compliance Matrix: (Units=1/GPa)
#
#
# Indices 1 2 3 4 5 6 
#
# 1 0.004760 -0.001351 -0.001469 0.000000 0.000703 0.000000
# 2 -0.001351 0.005498 -0.001382 0.000000 -0.000587 0.000000
# 3 -0.001469 -0.001382 0.008501 0.000000 0.004587 0.000000
# 4 0.000000 0.000000 0.000000 0.015703 0.000000 0.002058
# 5 0.000703 -0.000587 0.004587 0.000000 0.018472 0.000000
# 6 0.000000 0.000000 0.000000 0.002058 0.000000 0.015198
#
#
# Mechanical properties :
#
#
# Convention : Reuss Voigt Hill
#
# Bulk Modulus (GPa) = 96.58782 115.27606 105.93194
# Shear Modulus (GPa) = 62.50960 67.97776 65.24368
#
# Velocity S-wave (km/s) = 4.67224 4.87232 4.77333
# Velocity P-wave (km/s) = 7.92700 8.47996 8.20814
#
# Compressibility (1/GPa) = 0.01035327
#
# Stress axis : x y z
#
# Youngs Moduli (GPa) = 210.09146 181.89648 117.63275
#
# Poissons Ratio (x) = 0.24581 0.17281
# Poissons Ratio (y) = 0.28392 0.16258
# Poissons Ratio (z) = 0.30864 0.25140
#
# Static dielectric constant tensor:
#      x y z
#    x 2.461670 0.000000 -0.153910 
#    y 0.000000 2.217640 0.000000 
#    z -0.153910 0.000000 2.491760 
# 
# From -- ./inp_files/293195.got.cif
#   From: 2010.05.17/outbox.cif.g08.bks.cpg/sg15_147_cif.got.tgz:293195.got - 2010.06.03 18:47:42.
