data_PCOD9260817
_publ_section_title
;
Structure prediction by ZEFSAII (Michael W. Deem and Ramdas Pophale) SiO2 
 PCOD9260817
Probable space group: C 2/C
;
_chemical_formula_sum "Si O2"
_cell_formula_units_Z 52
_cell_length_a 9.434925
_cell_length_b 15.315071
_cell_length_c 16.327618
_cell_angle_alpha 90.000000
_cell_angle_beta 118.360936
_cell_angle_gamma 90.000000
_cell_volume 2076.105746
_symmetry_space_group_name_H-M "C 2/C"
_symmetry_group_IT_number 15
_symmetry_cell_setting 'monoclinic'
loop_
_space_group_symop_operation_xyz
x,y,z
-x,y,1/2-z
-x,-y,-z
x,-y,1/2+z
1/2+x,1/2+y,z
1/2-x,1/2+y,1/2-z
1/2-x,1/2-y,-z
1/2+x,1/2-y,1/2+z
loop_
_atom_site_type_symbol
_atom_site_label
_atom_site_fract_x
_atom_site_fract_y
_atom_site_fract_z
Si Si1 0.811535 0.602444 0.704320
Si Si2 0.029559 0.620650 0.080584
Si Si3 0.303910 0.261541 0.832037
Si Si4 0.547173 0.318280 0.022125
Si Si5 0.837314 0.024188 0.206753
Si Si6 0.296439 0.621330 0.575746
Si Si7 0.000000 0.621466 0.250000
O O1 0.811891 0.685860 0.766347
O O2 0.710987 0.631783 0.595405
O O3 0.728187 0.520273 0.727854
O O4 0.000000 0.580468 0.750000
O O5 0.051294 0.723669 0.067949
O O6 0.199904 0.576137 0.122463
O O7 0.956374 0.589430 0.147853
O O8 0.888494 0.592875 0.980932
O O9 0.219164 0.216283 0.887815
O O10 0.166999 0.329626 0.769360
O O11 0.476254 0.297932 0.911646
O O12 0.401438 0.371935 0.023868
O O13 0.881335 0.943310 0.160262
O O14 0.000000 0.079948 0.250000
#
# Coordination Sequence:
#
# PCOD9260817 Si02
#       7
#     8   8   8   8   8   8   4
#     4  11  24  40  62  92 130 173 216 267 327 390
#     4  11  22  34  63  97 128 160 217 274 315 374
#     4  10  19  34  63  96 123 163 213 269 316 381
#     4  11  19  38  68  95 125 166 222 266 320 380
#     4  11  24  41  65  88 131 173 215 259 333 389
#     4  10  18  38  64  95 121 167 220 263 315 392
#     4  12  18  34  62  98 128 158 210 266 318 374
#
# _framework density 25.046894000000002
#
# number of rings (size 3 to 8) (size 9 to 14) (size 15 to 20)
#    0.000    1.231    6.154    1.385    3.231    1.231 
#    0.000    0.000    3.385    2.769    0.000    0.000 
#    0.000    0.000    0.000    0.000    0.000    0.000 
#
# Total GULP energy -145062.115824 kJ/mol
# GULP energy per Si atom -5579.312147 kJ/mol
# Density = 2.498989 g / cm^3
# Si number density = 25.046894 Si / 1000 Ang^3
#
#
#
# Elastic Constant Matrix: (Units=GPa)
#
#
# Indices 1 2 3 4 5 6 
#
# 1 89.4858 16.3004 20.4524 0.0000 47.5957 0.0000
# 2 16.3004 58.9941 30.2154 0.0000 16.4490 0.0000
# 3 20.4524 30.2154 117.2780 0.0000 44.8270 0.0000
# 4 0.0000 0.0000 0.0000 31.4145 0.0000 5.3240
# 5 47.5957 16.4490 44.8270 0.0000 50.5908 0.0000
# 6 0.0000 0.0000 0.0000 5.3240 0.0000 8.3905
#
#
#
# Elastic Compliance Matrix: (Units=1/GPa)
#
#
# Indices 1 2 3 4 5 6 
#
# 1 0.026255 -0.002707 0.007899 0.000000 -0.030819 0.000000
# 2 -0.002707 0.020084 -0.004808 0.000000 0.000277 0.000000
# 3 0.007899 -0.004808 0.016075 0.000000 -0.020112 0.000000
# 4 0.000000 0.000000 0.000000 0.035668 0.000000 -0.022632
# 5 -0.030819 0.000277 -0.020112 0.000000 0.066492 0.000000
# 6 0.000000 0.000000 0.000000 -0.022632 0.000000 0.133542
#
#
# Mechanical properties :
#
#
# Convention : Reuss Voigt Hill
#
# Bulk Modulus (GPa) = 15.82730 44.41047 30.11889
# Shear Modulus (GPa) = 15.70305 31.33182 23.51744
#
# Velocity S-wave (km/s) = 2.50661 3.54068 3.06753
# Velocity P-wave (km/s) = 3.83539 5.87236 4.95958
#
# Compressibility (1/GPa) = 0.06318195
#
# Stress axis : x y z
#
# Youngs Moduli (GPa) = 38.08815 49.79029 62.20722
#
# Poissons Ratio (x) = 0.13477 -0.49136
# Poissons Ratio (y) = 0.10309 0.29911
# Poissons Ratio (z) = -0.30085 0.23940
#
# Static dielectric constant tensor:
#      x y z
#    x 2.005240 0.000000 0.016730 
#    y 0.000000 2.064900 0.000000 
#    z 0.016730 0.000000 1.973120 
# 
# From -- ./inp_files/191110.got.cif
#   From: 2010.05.17/outbox.cif.g08.bks.cpg/sg15_96_cif.got.tgz:191110.got - 2010.06.03 18:47:42.
