data_PCOD9260787
_publ_section_title
;
Structure prediction by ZEFSAII (Michael W. Deem and Ramdas Pophale) SiO2 
 PCOD9260787
Probable space group: C 2/C
;
_chemical_formula_sum "Si O2"
_cell_formula_units_Z 44
_cell_length_a 7.998838
_cell_length_b 11.413988
_cell_length_c 19.484203
_cell_angle_alpha 90.000000
_cell_angle_beta 86.069251
_cell_angle_gamma 90.000000
_cell_volume 1774.696673
_symmetry_space_group_name_H-M "C 2/C"
_symmetry_group_IT_number 15
_symmetry_cell_setting 'monoclinic'
loop_
_space_group_symop_operation_xyz
x,y,z
-x,y,1/2-z
-x,-y,-z
x,-y,1/2+z
1/2+x,1/2+y,z
1/2-x,1/2+y,1/2-z
1/2-x,1/2-y,-z
1/2+x,1/2-y,1/2+z
loop_
_atom_site_type_symbol
_atom_site_label
_atom_site_fract_x
_atom_site_fract_y
_atom_site_fract_z
Si Si1 0.500000 0.234407 0.750000
Si Si2 0.759026 0.020805 0.123756
Si Si3 0.196942 0.940045 0.234689
Si Si4 0.611260 0.116286 0.006835
Si Si5 0.349373 0.479098 0.914197
Si Si6 0.395181 0.763551 0.404632
O O1 0.536911 0.282566 0.671924
O O2 0.669372 0.161711 0.759194
O O3 0.689189 0.889383 0.108441
O O4 0.759500 0.031510 0.205969
O O5 0.950573 0.019990 0.094204
O O6 0.650694 0.118022 0.086627
O O7 0.220663 0.988661 0.158401
O O8 0.000000 0.908438 0.250000
O O9 0.530740 0.212990 0.960364
O O10 0.784577 0.077131 0.967018
O O11 0.500000 0.000000 0.000000
O O12 0.288134 0.347371 0.933534
#
# Coordination Sequence:
#
# PCOD9260787 Si02
#       6
#     4   8   8   8   8   8
#     4  10  18  38  64  86 124 164 202 256 320 360
#     4   9  21  38  59  88 126 152 199 256 300 363
#     4   9  19  36  64  88 121 162 204 258 306 366
#     4  10  21  40  61  89 124 161 200 253 307 368
#     4  11  21  39  65  86 120 164 203 252 309 360
#     4  10  22  37  64  89 116 163 203 250 309 368
#
# _framework density 24.792967999999998
#
# number of rings (size 3 to 8) (size 9 to 14) (size 15 to 20)
#    0.000    2.182    1.818    0.545    3.818    3.636 
#    0.000    3.636   16.000    0.000    0.000    0.000 
#    0.000    0.000    0.000    0.000    0.000    0.000 
#
# Total GULP energy -122863.295344 kJ/mol
# GULP energy per Si atom -5584.695243 kJ/mol
# Density = 2.473654 g / cm^3
# Si number density = 24.792968 Si / 1000 Ang^3
#
#
#
# Elastic Constant Matrix: (Units=GPa)
#
#
# Indices 1 2 3 4 5 6 
#
# 1 43.8546 23.5110 38.0434 0.0000 18.7553 0.0000
# 2 23.5110 74.5195 9.8890 0.0000 6.4792 0.0000
# 3 38.0434 9.8890 156.4279 0.0000 27.8945 0.0000
# 4 0.0000 0.0000 0.0000 15.6376 0.0000 -10.6424
# 5 18.7553 6.4792 27.8945 0.0000 34.3630 0.0000
# 6 0.0000 0.0000 0.0000 -10.6424 0.0000 18.8641
#
#
#
# Elastic Compliance Matrix: (Units=1/GPa)
#
#
# Indices 1 2 3 4 5 6 
#
# 1 0.040497 -0.010623 -0.006540 0.000000 -0.014791 0.000000
# 2 -0.010623 0.016459 0.001242 0.000000 0.001686 0.000000
# 3 -0.006540 0.001242 0.008547 0.000000 -0.003603 0.000000
# 4 0.000000 0.000000 0.000000 0.103805 0.000000 0.058563
# 5 -0.014791 0.001686 -0.003603 0.000000 0.039781 0.000000
# 6 0.000000 0.000000 0.000000 0.058563 0.000000 0.086050
#
#
# Mechanical properties :
#
#
# Convention : Reuss Voigt Hill
#
# Bulk Modulus (GPa) = 29.70638 46.40986 38.05812
# Shear Modulus (GPa) = 14.78413 27.33017 21.05715
#
# Velocity S-wave (km/s) = 2.44458 3.32375 2.91747
# Velocity P-wave (km/s) = 4.46943 5.78700 5.17035
#
# Compressibility (1/GPa) = 0.03366280
#
# Stress axis : x y z
#
# Youngs Moduli (GPa) = 24.69344 60.75568 116.99799
#
# Poissons Ratio (x) = 0.64540 0.76512
# Poissons Ratio (y) = 0.26231 -0.14535
# Poissons Ratio (z) = 0.16149 -0.07548
#
# Static dielectric constant tensor:
#      x y z
#    x 1.976220 0.000000 -0.028930 
#    y 0.000000 1.957840 0.000000 
#    z -0.028930 0.000000 2.046340 
# 
# From -- ./inp_files/230188.got.cif
#   From: 2010.05.17/outbox.cif.g08.bks.cpg/sg15_116_cif.got.tgz:230188.got - 2010.06.03 18:47:42.
