data_PCOD9260780
_publ_section_title
;
Structure prediction by ZEFSAII (Michael W. Deem and Ramdas Pophale) SiO2 
 PCOD9260780
Probable space group: C 2/C
;
_chemical_formula_sum "Si O2"
_cell_formula_units_Z 56
_cell_length_a 23.531284
_cell_length_b 9.216341
_cell_length_c 13.466328
_cell_angle_alpha 90.000000
_cell_angle_beta 58.476229
_cell_angle_gamma 90.000000
_cell_volume 2489.480157
_symmetry_space_group_name_H-M "C 2/C"
_symmetry_group_IT_number 15
_symmetry_cell_setting 'monoclinic'
loop_
_space_group_symop_operation_xyz
x,y,z
-x,y,1/2-z
-x,-y,-z
x,-y,1/2+z
1/2+x,1/2+y,z
1/2-x,1/2+y,1/2-z
1/2-x,1/2-y,-z
1/2+x,1/2-y,1/2+z
loop_
_atom_site_type_symbol
_atom_site_label
_atom_site_fract_x
_atom_site_fract_y
_atom_site_fract_z
Si Si1 0.264505 0.423397 0.466605
Si Si2 0.850674 0.096219 0.708589
Si Si3 0.101546 0.389074 0.783029
Si Si4 0.607331 0.287524 0.869433
Si Si5 0.375365 0.060042 0.472633
Si Si6 0.994307 0.369641 0.372968
Si Si7 0.222143 0.593749 0.696060
O O1 0.250000 0.250000 0.500000
O O2 0.330263 0.435858 0.341488
O O3 0.202118 0.475758 0.458019
O O4 0.259950 0.528102 0.565556
O O5 0.879986 0.955889 0.629749
O O6 0.780601 0.132768 0.718725
O O7 0.900342 0.230207 0.671237
O O8 0.108276 0.394916 0.656420
O O9 0.037909 0.487634 0.860981
O O10 0.168796 0.463757 0.763820
O O11 0.535221 0.255930 0.888814
O O12 0.668143 0.225394 0.743617
O O13 0.612941 0.193700 0.964489
O O14 0.419348 0.920616 0.460168
O O15 0.000000 0.345066 0.250000
#
# Coordination Sequence:
#
# PCOD9260780 Si02
#       7
#     8   8   8   8   8   8   8
#     4  11  20  37  63  86 115 158 197 230 292 366
#     4  12  21  34  59  91 123 147 188 251 302 338
#     4   9  20  37  60  83 112 162 202 234 282 361
#     4  11  22  34  59  92 118 146 191 257 296 326
#     4  10  18  38  64  83 108 164 208 230 273 370
#     4   9  20  40  63  82 110 156 209 234 282 356
#     4  10  20  35  56  86 119 153 195 231 287 367
#
# _framework density 22.494655999999999
#
# number of rings (size 3 to 8) (size 9 to 14) (size 15 to 20)
#    0.000    1.714    4.286    3.000    0.000    0.571 
#    0.000    2.857    3.143    0.000    0.000    0.000 
#    0.000    0.000    0.000    0.000    0.000    0.000 
#
# Total GULP energy -156343.401663 kJ/mol
# GULP energy per Si atom -5583.692917 kJ/mol
# Density = 2.244346 g / cm^3
# Si number density = 22.494656 Si / 1000 Ang^3
#
#
#
# Elastic Constant Matrix: (Units=GPa)
#
#
# Indices 1 2 3 4 5 6 
#
# 1 85.8061 13.4822 3.7277 0.0000 1.0698 0.0000
# 2 13.4822 50.2632 -9.5049 0.0000 8.7306 0.0000
# 3 3.7277 -9.5049 60.2317 0.0000 12.5760 0.0000
# 4 0.0000 0.0000 0.0000 21.5341 0.0000 1.2873
# 5 1.0698 8.7306 12.5760 0.0000 28.0431 0.0000
# 6 0.0000 0.0000 0.0000 1.2873 0.0000 7.7234
#
#
#
# Elastic Compliance Matrix: (Units=1/GPa)
#
#
# Indices 1 2 3 4 5 6 
#
# 1 0.012319 -0.003883 -0.001688 0.000000 0.001496 0.000000
# 2 -0.003883 0.023825 0.006088 0.000000 -0.009999 0.000000
# 3 -0.001688 0.006088 0.019915 0.000000 -0.010762 0.000000
# 4 0.000000 0.000000 0.000000 0.046905 0.000000 -0.007818
# 5 0.001496 -0.009999 -0.010762 0.000000 0.043542 0.000000
# 6 0.000000 0.000000 0.000000 -0.007818 0.000000 0.130779
#
#
# Mechanical properties :
#
#
# Convention : Reuss Voigt Hill
#
# Bulk Modulus (GPa) = 17.51539 23.52345 20.51942
# Shear Modulus (GPa) = 16.93301 24.03320 20.48311
#
# Velocity S-wave (km/s) = 2.74662 3.27218 3.02085
# Velocity P-wave (km/s) = 4.22634 4.97557 4.61618
#
# Compressibility (1/GPa) = 0.05709264
#
# Stress axis : x y z
#
# Youngs Moduli (GPa) = 81.17542 41.97280 50.21429
#
# Poissons Ratio (x) = 0.16299 0.08474
# Poissons Ratio (y) = 0.31523 -0.30570
# Poissons Ratio (z) = 0.13699 -0.25552
#
# Static dielectric constant tensor:
#      x y z
#    x 1.828210 0.000000 0.020920 
#    y 0.000000 1.832730 0.000000 
#    z 0.020920 0.000000 1.935530 
# 
# From -- ./inp_files/171816.got.cif
#   From: 2010.05.17/outbox.cif.g08.bks.cpg/sg15_86_cif.got.tgz:171816.got - 2010.06.03 18:47:42.
