data_PCOD9260377
_publ_section_title
;
Structure prediction by ZEFSAII (Michael W. Deem and Ramdas Pophale) SiO2 
 PCOD9260377
Probable space group: C 2/C
;
_chemical_formula_sum "Si O2"
_cell_formula_units_Z 60
_cell_length_a 13.353619
_cell_length_b 14.330599
_cell_length_c 23.958930
_cell_angle_alpha 90.000000
_cell_angle_beta 141.529072
_cell_angle_gamma 90.000000
_cell_volume 2852.352090
_symmetry_space_group_name_H-M "C 2/C"
_symmetry_group_IT_number 15
_symmetry_cell_setting 'monoclinic'
loop_
_space_group_symop_operation_xyz
x,y,z
-x,y,1/2-z
-x,-y,-z
x,-y,1/2+z
1/2+x,1/2+y,z
1/2-x,1/2+y,1/2-z
1/2-x,1/2-y,-z
1/2+x,1/2-y,1/2+z
loop_
_atom_site_type_symbol
_atom_site_label
_atom_site_fract_x
_atom_site_fract_y
_atom_site_fract_z
Si Si1 0.000000 0.921432 0.750000
Si Si2 0.880775 0.623635 0.247455
Si Si3 0.579525 0.861770 0.144044
Si Si4 0.966560 0.165802 0.357337
Si Si5 0.132836 0.953038 0.021083
Si Si6 0.318244 0.953093 0.417555
Si Si7 0.383725 0.055896 0.067385
Si Si8 0.830156 0.597876 0.700811
O O1 0.034531 0.863160 0.708161
O O2 0.165097 0.981231 0.834762
O O3 0.709271 0.666155 0.189320
O O4 0.841937 0.514507 0.215559
O O5 0.000000 0.658575 0.250000
O O6 0.984142 0.623796 0.349637
O O7 0.473325 0.770183 0.104967
O O8 0.669088 0.875131 0.124719
O O9 0.695305 0.861852 0.248854
O O10 0.470465 0.954382 0.100978
O O11 0.071432 0.092550 0.437747
O O12 0.210468 0.880971 0.098483
O O13 0.253161 0.035487 0.057123
O O14 0.000000 0.000000 0.000000
O O15 0.303623 0.917350 0.474295
O O16 0.500000 0.000000 0.500000
O O17 0.000000 0.628727 0.750000
#
# Coordination Sequence:
#
# PCOD9260377 Si02
#       8
#     4   8   8   8   8   8   8   8
#     4  12  24  40  70  96 134 174 222 272 324 410
#     4  10  18  39  67  84 119 166 217 251 312 385
#     4  10  23  40  60  87 130 169 205 258 334 383
#     4  12  25  38  60 104 126 158 216 281 326 371
#     4  12  21  35  64  93 118 153 213 267 304 377
#     4  10  22  43  64  89 128 176 217 255 324 407
#     4  10  19  40  64  85 117 173 207 251 315 393
#     4  10  18  37  60  80 111 165 202 239 306 382
#
# _framework density 21.035271000000002
#
# number of rings (size 3 to 8) (size 9 to 14) (size 15 to 20)
#    0.000    1.333    6.667    2.400    0.933    0.533 
#    8.400    0.000    0.000    1.600    0.000    0.000 
#    0.000    0.000    0.000    0.000    0.000    0.000 
#
# Total GULP energy -167126.781789 kJ/mol
# GULP energy per Si atom -5570.892726 kJ/mol
# Density = 2.098739 g / cm^3
# Si number density = 21.035271 Si / 1000 Ang^3
#
#
#
# Elastic Constant Matrix: (Units=GPa)
#
#
# Indices 1 2 3 4 5 6 
#
# 1 70.2311 19.7470 37.4075 0.0000 -26.2819 0.0000
# 2 19.7470 24.1053 13.7264 0.0000 -9.6390 0.0000
# 3 37.4075 13.7264 103.9853 0.0000 -19.3027 0.0000
# 4 0.0000 0.0000 0.0000 6.5563 0.0000 -1.8195
# 5 -26.2819 -9.6390 -19.3027 0.0000 49.6923 0.0000
# 6 0.0000 0.0000 0.0000 -1.8195 0.0000 13.0712
#
#
#
# Elastic Compliance Matrix: (Units=1/GPa)
#
#
# Indices 1 2 3 4 5 6 
#
# 1 0.023777 -0.013272 -0.005329 0.000000 0.007931 0.000000
# 2 -0.013272 0.054572 -0.001905 0.000000 0.002826 0.000000
# 3 -0.005329 -0.001905 0.012063 0.000000 0.001498 0.000000
# 4 0.000000 0.000000 0.000000 0.158653 0.000000 0.022084
# 5 0.007931 0.002826 0.001498 0.000000 0.025448 0.000000
# 6 0.000000 0.000000 0.000000 0.022084 0.000000 0.079578
#
#
# Mechanical properties :
#
#
# Convention : Reuss Voigt Hill
#
# Bulk Modulus (GPa) = 20.24286 37.78707 29.01497
# Shear Modulus (GPa) = 12.14860 22.36001 17.25430
#
# Velocity S-wave (km/s) = 2.40580 3.26387 2.86712
# Velocity P-wave (km/s) = 4.16670 5.67507 4.97834
#
# Compressibility (1/GPa) = 0.04940013
#
# Stress axis : x y z
#
# Youngs Moduli (GPa) = 42.05764 18.32456 82.89559
#
# Poissons Ratio (x) = 0.24320 0.44178
# Poissons Ratio (y) = 0.55819 0.15788
# Poissons Ratio (z) = 0.22414 0.03490
#
# Static dielectric constant tensor:
#      x y z
#    x 1003.001000 -0.000070 686.272060 
#    y -0.000070 1.831880 -0.000050 
#    z 686.272060 -0.000050 472.210720 
# 
# From -- ./inp_files/296707.got.cif
#   From: 2010.05.17/outbox.cif.g08.bks.cpg/sg15_149_cif.got.tgz:296707.got - 2010.06.03 18:47:42.
