data_PCOD9260151
_publ_section_title
;
Structure prediction by ZEFSAII (Michael W. Deem and Ramdas Pophale) SiO2 
 PCOD9260151
Probable space group: C 2/C
;
_chemical_formula_sum "Si O2"
_cell_formula_units_Z 40
_cell_length_a 22.669171
_cell_length_b 15.487505
_cell_length_c 13.646255
_cell_angle_alpha 90.000000
_cell_angle_beta 156.918413
_cell_angle_gamma 90.000000
_cell_volume 1878.289877
_symmetry_space_group_name_H-M "C 2/C"
_symmetry_group_IT_number 15
_symmetry_cell_setting 'monoclinic'
loop_
_space_group_symop_operation_xyz
x,y,z
-x,y,1/2-z
-x,-y,-z
x,-y,1/2+z
1/2+x,1/2+y,z
1/2-x,1/2+y,1/2-z
1/2-x,1/2-y,-z
1/2+x,1/2-y,1/2+z
loop_
_atom_site_type_symbol
_atom_site_label
_atom_site_fract_x
_atom_site_fract_y
_atom_site_fract_z
Si Si1 0.526593 0.099348 0.006234
Si Si2 0.232538 0.073509 0.451314
Si Si3 0.116811 0.395529 0.852152
Si Si4 0.500000 0.739810 0.750000
Si Si5 0.845829 0.897137 0.889562
Si Si6 0.500000 0.544731 0.250000
O O1 0.389139 0.116486 0.723603
O O2 0.539388 0.138569 0.134110
O O3 0.682275 0.113312 0.188795
O O4 0.500000 0.000000 0.000000
O O5 0.172237 0.099483 0.253842
O O6 0.118262 0.093854 0.363915
O O7 0.261637 0.968222 0.488611
O O8 0.000000 0.441425 0.750000
O O9 0.140026 0.305282 0.944045
O O10 0.456808 0.677354 0.595866
O O11 0.910118 0.984845 0.035486
#
# Coordination Sequence:
#
# PCOD9260151 Si02
#       6
#     8   8   8   4   8   4
#     4  10  18  36  63  89 119 157 219 251 299 364
#     4  11  21  37  66  92 121 162 208 263 298 358
#     4   9  19  38  63  90 118 164 206 244 306 370
#     4   9  24  38  60 100 128 161 198 253 318 368
#     4  11  21  39  56  93 129 159 203 262 306 360
#     4  11  22  34  56  94 128 153 210 255 308 356
#
# _framework density 21.295967000000001
#
# number of rings (size 3 to 8) (size 9 to 14) (size 15 to 20)
#    0.600    1.200    4.000    3.600    0.000    0.800 
#    0.000    1.000    0.000    0.000    5.200    0.000 
#    0.000    0.000    0.000    0.000    0.000    0.000 
#
# Total GULP energy -111402.388049 kJ/mol
# GULP energy per Si atom -5570.119402 kJ/mol
# Density = 2.124750 g / cm^3
# Si number density = 21.295967 Si / 1000 Ang^3
#
#
#
# Elastic Constant Matrix: (Units=GPa)
#
#
# Indices 1 2 3 4 5 6 
#
# 1 84.5234 0.6730 19.9094 0.0000 -4.0031 0.0000
# 2 0.6730 33.3331 -3.2243 0.0000 -4.8543 0.0000
# 3 19.9094 -3.2243 70.8636 0.0000 -6.1133 0.0000
# 4 0.0000 0.0000 0.0000 -3.7643 0.0000 -12.0357
# 5 -4.0031 -4.8543 -6.1133 0.0000 48.7866 0.0000
# 6 0.0000 0.0000 0.0000 -12.0357 0.0000 7.4695
#
#
#
# Elastic Compliance Matrix: (Units=1/GPa)
#
#
# Indices 1 2 3 4 5 6 
#
# 1 0.012696 -0.000520 -0.003543 0.000000 0.000546 0.000000
# 2 -0.000520 0.030658 0.001820 0.000000 0.003236 0.000000
# 3 -0.003543 0.001820 0.015346 0.000000 0.001813 0.000000
# 4 0.000000 0.000000 0.000000 -0.043183 0.000000 -0.069580
# 5 0.000546 0.003236 0.001813 0.000000 0.021091 0.000000
# 6 0.000000 0.000000 0.000000 -0.069580 0.000000 0.021762
#
#
# Mechanical properties :
#
#
# Convention : Reuss Voigt Hill
#
# Bulk Modulus (GPa) = 18.44536 24.82626 21.63581
# Shear Modulus (GPa) = 61.78317 21.92250 41.85283
#
# Velocity S-wave (km/s) = 5.39209 3.21194 4.43797
# Velocity P-wave (km/s) = 6.88814 5.04365 6.03676
#
# Compressibility (1/GPa) = 0.05421418
#
# Stress axis : x y z
#
# Youngs Moduli (GPa) = 78.76681 32.61796 65.16180
#
# Poissons Ratio (x) = 0.01695 0.23090
# Poissons Ratio (y) = 0.04092 -0.11860
# Poissons Ratio (z) = 0.27911 -0.05937
#
# Static dielectric constant tensor:
#      x y z
#    x 1.798500 0.000000 -0.006310 
#    y 0.000000 1.802550 0.000000 
#    z -0.006310 0.000000 1.831000 
# 
# From -- ./inp_files/174155.got.cif
#   From: 2010.05.17/outbox.cif.g08.bks.cpg/sg15_88_cif.got.tgz:174155.got - 2010.06.03 18:47:42.
