data_PCOD9260821
_publ_section_title
;
Structure prediction by ZEFSAII (Michael W. Deem and Ramdas Pophale) SiO2 
 PCOD9260821
Probable space group: C 2/C
;
_chemical_formula_sum "Si O2"
_cell_formula_units_Z 44
_cell_length_a 27.367033
_cell_length_b 12.985469
_cell_length_c 16.090387
_cell_angle_alpha 90.000000
_cell_angle_beta 20.503596
_cell_angle_gamma 90.000000
_cell_volume 2002.857433
_symmetry_space_group_name_H-M "C 2/C"
_symmetry_group_IT_number 15
_symmetry_cell_setting 'monoclinic'
loop_
_space_group_symop_operation_xyz
x,y,z
-x,y,1/2-z
-x,-y,-z
x,-y,1/2+z
1/2+x,1/2+y,z
1/2-x,1/2+y,1/2-z
1/2-x,1/2-y,-z
1/2+x,1/2-y,1/2+z
loop_
_atom_site_type_symbol
_atom_site_label
_atom_site_fract_x
_atom_site_fract_y
_atom_site_fract_z
Si Si1 0.000000 0.699328 0.750000
Si Si2 0.587991 0.278958 0.776909
Si Si3 0.579377 0.106044 0.357097
Si Si4 0.147889 0.145032 0.482130
Si Si5 0.208019 0.075751 0.204978
Si Si6 0.356018 0.124712 0.440840
O O1 0.999616 0.769009 0.833327
O O2 0.137280 0.629172 0.543912
O O3 0.750000 0.250000 0.500000
O O4 0.609049 0.387614 0.788024
O O5 0.516110 0.197951 0.954349
O O6 0.719866 0.093894 0.186115
O O7 0.620812 0.128022 0.195453
O O8 0.500000 0.000000 0.500000
O O9 0.148984 0.122473 0.383438
O O10 0.163406 0.264192 0.486145
O O11 0.000000 0.107576 0.750000
O O12 0.235579 0.954767 0.156262
O O13 0.500000 0.084011 0.250000
#
# Coordination Sequence:
#
# PCOD9260821 Si02
#       6
#     4   8   8   8   8   8
#     4  10  18  38  64  98 136 184 230 298 346 422
#     4  10  21  36  66 104 139 178 235 295 351 420
#     4  12  23  44  74 102 138 191 242 289 357 435
#     4  11  25  45  71 105 146 182 238 301 357 425
#     4  11  21  42  69 100 139 183 244 291 358 425
#     4  11  23  42  72 102 137 192 240 291 361 426
#
# _framework density 21.968613000000001
#
# number of rings (size 3 to 8) (size 9 to 14) (size 15 to 20)
#    0.000    1.091    2.727    6.000    0.000    0.000 
#    0.000    5.455   20.000    0.000    0.000    0.000 
#    0.000    0.000    0.000    0.000    0.000    0.000 
#
# Total GULP energy -122966.382043 kJ/mol
# GULP energy per Si atom -5589.381002 kJ/mol
# Density = 2.191861 g / cm^3
# Si number density = 21.968613 Si / 1000 Ang^3
#
#
#
# Elastic Constant Matrix: (Units=GPa)
#
#
# Indices 1 2 3 4 5 6 
#
# 1 105.5604 26.6668 3.6880 0.0000 17.0706 0.0000
# 2 26.6668 68.9599 31.7923 0.0000 2.7377 0.0000
# 3 3.6880 31.7923 93.6936 0.0000 -0.6602 0.0000
# 4 0.0000 0.0000 0.0000 -63.4783 0.0000 -12.7561
# 5 17.0706 2.7377 -0.6602 0.0000 47.4355 0.0000
# 6 0.0000 0.0000 0.0000 -12.7561 0.0000 -10.1007
#
#
#
# Elastic Compliance Matrix: (Units=1/GPa)
#
#
# Indices 1 2 3 4 5 6 
#
# 1 0.011232 -0.004716 0.001132 0.000000 -0.003754 0.000000
# 2 -0.004716 0.019225 -0.006334 0.000000 0.000499 0.000000
# 3 0.001132 -0.006334 0.012779 0.000000 0.000136 0.000000
# 4 0.000000 0.000000 0.000000 -0.021111 0.000000 0.026661
# 5 -0.003754 0.000499 0.000136 0.000000 0.022405 0.000000
# 6 0.000000 0.000000 0.000000 0.026661 0.000000 -0.132672
#
#
# Mechanical properties :
#
#
# Convention : Reuss Voigt Hill
#
# Bulk Modulus (GPa) = 42.73738 43.61202 43.17470
# Shear Modulus (GPa) = -82.63996 8.50908 -37.06544
#
# Velocity S-wave (km/s) = -6.13995 1.97020 -4.11201
# Velocity P-wave (km/s) = 5.54700 5.00706 1.68798
#
# Compressibility (1/GPa) = 0.02339872
#
# Stress axis : x y z
#
# Youngs Moduli (GPa) = 89.02947 52.01432 78.25392
#
# Poissons Ratio (x) = 0.24531 -0.08856
# Poissons Ratio (y) = 0.41988 0.49570
# Poissons Ratio (z) = -0.10076 0.32948
#
# Static dielectric constant tensor:
#      x y z
#    x 1.483130 0.000000 -0.513140 
#    y 0.000000 1.827300 0.000000 
#    z -0.513140 0.000000 0.932630 
# 
# From -- ./inp_files/142194.got.cif
#   From: 2010.05.17/outbox.cif.g08.bks.cpg/sg15_72_cif.got.tgz:142194.got - 2010.06.03 18:47:42.
