data_PCOD9260014
_publ_section_title
;
Structure prediction by ZEFSAII (Michael W. Deem and Ramdas Pophale) SiO2 
 PCOD9260014
Probable space group: C 2/C
;
_chemical_formula_sum "Si O2"
_cell_formula_units_Z 44
_cell_length_a 24.464368
_cell_length_b 16.262002
_cell_length_c 16.088704
_cell_angle_alpha 90.000000
_cell_angle_beta 17.989872
_cell_angle_gamma 90.000000
_cell_volume 1976.856273
_symmetry_space_group_name_H-M "C 2/C"
_symmetry_group_IT_number 15
_symmetry_cell_setting 'monoclinic'
loop_
_space_group_symop_operation_xyz
x,y,z
-x,y,1/2-z
-x,-y,-z
x,-y,1/2+z
1/2+x,1/2+y,z
1/2-x,1/2+y,1/2-z
1/2-x,1/2-y,-z
1/2+x,1/2-y,1/2+z
loop_
_atom_site_type_symbol
_atom_site_label
_atom_site_fract_x
_atom_site_fract_y
_atom_site_fract_z
Si Si1 0.000000 0.314801 0.750000
Si Si2 0.362700 0.514013 0.599102
Si Si3 0.819221 0.725183 0.808125
Si Si4 0.818739 0.468782 0.299120
Si Si5 0.249601 0.960056 0.073880
Si Si6 0.191786 0.214171 0.816245
O O1 0.147374 0.374418 0.578238
O O2 0.122578 0.273559 0.501957
O O3 0.319807 0.494207 0.566303
O O4 0.536895 0.463323 0.372084
O O5 0.220901 0.498944 0.878098
O O6 0.361246 0.615551 0.603467
O O7 0.802594 0.628208 0.821811
O O8 0.716250 0.753039 0.873204
O O9 0.026032 0.747577 0.508161
O O10 0.750000 0.750000 0.000000
O O11 0.807003 0.491729 0.410905
O O12 0.000000 0.500000 0.000000
#
# Coordination Sequence:
#
# PCOD9260014 Si02
#       6
#     4   8   8   8   8   8
#     4  10  22  42  68  86 134 180 212 274 334 396
#     4   9  20  37  62  88 128 169 207 269 330 386
#     4  11  23  42  65  96 131 176 220 278 341 404
#     4  11  22  39  61  91 135 165 209 273 337 388
#     4  10  18  36  60  91 116 169 217 249 322 397
#     4  10  22  43  63  93 132 175 223 274 339 393
#
# _framework density 22.257562
#
# number of rings (size 3 to 8) (size 9 to 14) (size 15 to 20)
#    0.000    1.818    0.000    5.455    0.000    3.636 
#   22.909    0.000    0.000    0.000    0.000    0.000 
#    0.000    0.000    0.000    0.000    0.000    0.000 
#
# Total GULP energy -122544.191793 kJ/mol
# GULP energy per Si atom -5570.190536 kJ/mol
# Density = 2.220690 g / cm^3
# Si number density = 22.257562 Si / 1000 Ang^3
#
#
#
# Elastic Constant Matrix: (Units=GPa)
#
#
# Indices 1 2 3 4 5 6 
#
# 1 120.4076 46.1391 34.2851 0.0010 -25.3249 -0.0002
# 2 46.1391 -2.9488 3.6340 -0.0025 24.1468 -0.0006
# 3 34.2851 3.6340 102.2312 -0.0048 12.5312 0.0026
# 4 0.0010 -0.0025 -0.0048 55.7491 0.0016 -20.2152
# 5 -25.3249 24.1468 12.5312 0.0016 12.6221 0.0004
# 6 -0.0002 -0.0006 0.0026 -20.2152 0.0004 49.9513
#
#
#
# Elastic Compliance Matrix: (Units=1/GPa)
#
#
# Indices 1 2 3 4 5 6 
#
# 1 0.004041 0.008123 -0.000835 0.000001 -0.006604 0.000000
# 2 0.008123 -0.002275 -0.005892 -0.000002 0.026501 -0.000001
# 3 -0.000835 -0.005892 0.010355 0.000001 -0.000683 0.000000
# 4 0.000001 -0.000002 0.000001 0.021023 0.000001 0.008508
# 5 -0.006604 0.026501 -0.000683 0.000001 0.015958 0.000001
# 6 0.000000 -0.000001 0.000000 0.008508 0.000001 0.023463
#
#
# Mechanical properties :
#
#
# Convention : Reuss Voigt Hill
#
# Bulk Modulus (GPa) = 67.04885 43.08961 55.06923
# Shear Modulus (GPa) = 66.89792 32.70662 49.80227
#
# Velocity S-wave (km/s) = 5.48831 3.83751 4.73540
# Velocity P-wave (km/s) = 8.38758 6.24795 7.39555
#
# Compressibility (1/GPa) = 0.01491450
#
# Stress axis : x y z
#
# Youngs Moduli (GPa) = 247.46250 -439.50055 96.57347
#
# Poissons Ratio (x) = 3.57018 0.08059
# Poissons Ratio (y) = -2.01020 0.56899
# Poissons Ratio (z) = 0.20651 -2.58943
#
# Static dielectric constant tensor:
#      x y z
#    x 1.982960 0.000010 0.014890 
#    y 0.000010 1.845170 0.000000 
#    z 0.014890 0.000000 1.859430 
# 
# From -- ./inp_files/174168.got.cif
#   From: 2010.05.17/outbox.cif.g08.bks.cpg/sg15_88_cif.got.tgz:174168.got - 2010.06.03 18:47:42.
