data_PCOD9260609
_publ_section_title
;
Structure prediction by ZEFSAII (Michael W. Deem and Ramdas Pophale) SiO2 
 PCOD9260609
Probable space group: C 2/C
;
_chemical_formula_sum "Si O2"
_cell_formula_units_Z 40
_cell_length_a 14.745287
_cell_length_b 12.789787
_cell_length_c 10.526782
_cell_angle_alpha 90.000000
_cell_angle_beta 64.547711
_cell_angle_gamma 90.000000
_cell_volume 1792.555990
_symmetry_space_group_name_H-M "C 2/C"
_symmetry_group_IT_number 15
_symmetry_cell_setting 'monoclinic'
loop_
_space_group_symop_operation_xyz
x,y,z
-x,y,1/2-z
-x,-y,-z
x,-y,1/2+z
1/2+x,1/2+y,z
1/2-x,1/2+y,1/2-z
1/2-x,1/2-y,-z
1/2+x,1/2-y,1/2+z
loop_
_atom_site_type_symbol
_atom_site_label
_atom_site_fract_x
_atom_site_fract_y
_atom_site_fract_z
Si Si1 0.334632 0.548688 0.902575
Si Si2 0.619564 0.565008 0.891427
Si Si3 0.276891 0.201391 0.679179
Si Si4 0.793388 0.341677 0.566877
Si Si5 0.004922 0.254391 0.096806
O O1 0.408011 0.541969 0.736824
O O2 0.379798 0.531258 0.013585
O O3 0.274107 0.656206 0.917735
O O4 0.261871 0.449240 0.927074
O O5 0.554944 0.657097 0.992808
O O6 0.733281 0.609151 0.799173
O O7 0.230540 0.303486 0.775028
O O8 0.395723 0.213976 0.612270
O O9 0.750000 0.250000 0.500000
O O10 0.911975 0.344583 0.472050
O O11 0.000000 0.229647 0.250000
#
# Coordination Sequence:
#
# PCOD9260609 Si02
#       5
#     8   8   8   8   8
#     4  10  18  38  57  91 116 155 200 250 296 349
#     4   9  20  35  60  88 122 152 201 246 297 349
#     4   9  20  32  57  88 115 149 203 251 288 340
#     4  11  17  34  57  83 118 157 201 240 288 359
#     4  11  17  32  60  89 111 158 205 242 282 359
#
# _framework density 22.314505
#
# number of rings (size 3 to 8) (size 9 to 14) (size 15 to 20)
#    1.200    0.800    6.000    0.000    0.000    0.800 
#    0.000    5.000    0.000    0.000   10.400    0.000 
#    0.000    0.000    0.000    0.000    0.000    0.000 
#
# Total GULP energy -111516.447712 kJ/mol
# GULP energy per Si atom -5575.822386 kJ/mol
# Density = 2.226372 g / cm^3
# Si number density = 22.314505 Si / 1000 Ang^3
#
#
#
# Elastic Constant Matrix: (Units=GPa)
#
#
# Indices 1 2 3 4 5 6 
#
# 1 108.5190 27.2552 48.5863 0.0000 -13.8682 0.0000
# 2 27.2552 76.8487 38.7444 0.0000 8.8627 0.0000
# 3 48.5863 38.7444 114.2559 0.0000 -13.4016 0.0000
# 4 0.0000 0.0000 0.0000 36.0750 0.0000 0.7108
# 5 -13.8682 8.8627 -13.4016 0.0000 43.4105 0.0000
# 6 0.0000 0.0000 0.0000 0.7108 0.0000 32.1691
#
#
#
# Elastic Compliance Matrix: (Units=1/GPa)
#
#
# Indices 1 2 3 4 5 6 
#
# 1 0.012013 -0.002709 -0.003813 0.000000 0.003214 0.000000
# 2 -0.002709 0.017442 -0.005480 0.000000 -0.006118 0.000000
# 3 -0.003813 -0.005480 0.012680 0.000000 0.003815 0.000000
# 4 0.000000 0.000000 0.000000 0.027732 0.000000 -0.000613
# 5 0.003214 -0.006118 0.003815 0.000000 0.026489 0.000000
# 6 0.000000 0.000000 0.000000 -0.000613 0.000000 0.031099
#
#
# Mechanical properties :
#
#
# Convention : Reuss Voigt Hill
#
# Bulk Modulus (GPa) = 55.15594 58.75503 56.95548
# Shear Modulus (GPa) = 31.74541 34.66677 33.20609
#
# Velocity S-wave (km/s) = 3.77588 3.94579 3.86177
# Velocity P-wave (km/s) = 6.61671 6.86634 6.74268
#
# Compressibility (1/GPa) = 0.01813041
#
# Stress axis : x y z
#
# Youngs Moduli (GPa) = 83.24202 57.33334 78.86705
#
# Poissons Ratio (x) = 0.15531 0.30072
# Poissons Ratio (y) = 0.22549 0.43221
# Poissons Ratio (z) = 0.31740 0.31420
#
# Static dielectric constant tensor:
#      x y z
#    x 1.920450 0.000000 0.055780 
#    y 0.000000 1.824860 0.000000 
#    z 0.055780 0.000000 1.893530 
# 
# From -- ./inp_files/104751.got.cif
#   From: 2010.05.17/outbox.cif.g08.bks.cpg/sg15_53_cif.got.tgz:104751.got - 2010.06.03 18:47:42.
