data_PCOD9260437
_publ_section_title
;
Structure prediction by ZEFSAII (Michael W. Deem and Ramdas Pophale) SiO2 
 PCOD9260437
Probable space group: C 2/C
;
_chemical_formula_sum "Si O2"
_cell_formula_units_Z 44
_cell_length_a 27.922901
_cell_length_b 14.600026
_cell_length_c 13.797066
_cell_angle_alpha 90.000000
_cell_angle_beta 23.274955
_cell_angle_gamma 90.000000
_cell_volume 2222.574332
_symmetry_space_group_name_H-M "C 2/C"
_symmetry_group_IT_number 15
_symmetry_cell_setting 'monoclinic'
loop_
_space_group_symop_operation_xyz
x,y,z
-x,y,1/2-z
-x,-y,-z
x,-y,1/2+z
1/2+x,1/2+y,z
1/2-x,1/2+y,1/2-z
1/2-x,1/2-y,-z
1/2+x,1/2-y,1/2+z
loop_
_atom_site_type_symbol
_atom_site_label
_atom_site_fract_x
_atom_site_fract_y
_atom_site_fract_z
Si Si1 0.568269 0.857442 0.520912
Si Si2 0.275330 0.497800 0.634003
Si Si3 0.345585 0.117507 0.312919
Si Si4 0.369096 0.675940 0.040799
Si Si5 0.177588 0.209137 0.770259
Si Si6 0.000000 0.111812 0.250000
O O1 0.500000 0.847835 0.750000
O O2 0.474289 0.904970 0.622229
O O3 0.605441 0.752477 0.423803
O O4 0.682360 0.921293 0.328849
O O5 0.214174 0.446109 0.657113
O O6 0.301822 0.422313 0.669149
O O7 0.402761 0.547205 0.376870
O O8 0.245626 0.131309 0.582534
O O9 0.369364 0.216555 0.219448
O O10 0.281484 0.734948 0.134071
O O11 0.500000 0.655500 0.750000
O O12 0.076354 0.171767 0.031339
#
# Coordination Sequence:
#
# PCOD9260437 Si02
#       6
#     8   8   8   8   8   4
#     4  11  20  41  65  88 125 168 211 251 307 377
#     4  11  23  35  62  95 125 158 211 260 307 364
#     4  10  21  40  63  91 122 170 211 247 306 382
#     4  10  18  37  62  87 112 172 204 243 300 383
#     4  10  21  38  64  88 122 166 209 249 310 368
#     4  12  22  40  60  96 130 156 204 272 310 354
#
# _framework density 19.796865
#
# number of rings (size 3 to 8) (size 9 to 14) (size 15 to 20)
#    0.000    1.455    6.364    0.545    0.000    0.727 
#    6.545    2.727    0.000    0.000    0.000    0.000 
#    0.000    0.000    0.000    0.000    0.000    0.000 
#
# Total GULP energy -122485.609737 kJ/mol
# GULP energy per Si atom -5567.527715 kJ/mol
# Density = 1.975181 g / cm^3
# Si number density = 19.796865 Si / 1000 Ang^3
#
#
#
# Elastic Constant Matrix: (Units=GPa)
#
#
# Indices 1 2 3 4 5 6 
#
# 1 65.2589 21.0294 37.2935 0.0000 -19.9072 0.0000
# 2 21.0294 99.0239 64.7243 0.0000 -7.1237 0.0000
# 3 37.2935 64.7243 105.4728 0.0000 -20.6036 0.0000
# 4 0.0000 0.0000 0.0000 30.3329 0.0000 -15.4303
# 5 -19.9072 -7.1237 -20.6036 0.0000 35.5330 0.0000
# 6 0.0000 0.0000 0.0000 -15.4303 0.0000 26.6477
#
#
#
# Elastic Compliance Matrix: (Units=1/GPa)
#
#
# Indices 1 2 3 4 5 6 
#
# 1 0.021270 -0.000129 -0.005772 0.000000 0.008544 0.000000
# 2 -0.000129 0.017142 -0.011070 0.000000 -0.003055 0.000000
# 3 -0.005772 -0.011070 0.019454 0.000000 0.005827 0.000000
# 4 0.000000 0.000000 0.000000 0.046733 0.000000 0.027061
# 5 0.008544 -0.003055 0.005827 0.000000 0.035696 0.000000
# 6 0.000000 0.000000 0.000000 0.027061 0.000000 0.053196
#
#
# Mechanical properties :
#
#
# Convention : Reuss Voigt Hill
#
# Bulk Modulus (GPa) = 41.80318 57.31665 49.55991
# Shear Modulus (GPa) = 21.23953 28.28327 24.76140
#
# Velocity S-wave (km/s) = 3.27903 3.78388 3.54047
# Velocity P-wave (km/s) = 5.95801 6.93582 6.46543
#
# Compressibility (1/GPa) = 0.02392163
#
# Stress axis : x y z
#
# Youngs Moduli (GPa) = 47.01391 58.33562 51.40367
#
# Poissons Ratio (x) = 0.00755 0.29672
# Poissons Ratio (y) = 0.00609 0.56906
# Poissons Ratio (z) = 0.27138 0.64580
#
# Static dielectric constant tensor:
#      x y z
#    x 1.726620 0.000000 -0.029550 
#    y 0.000000 1.767800 0.000000 
#    z -0.029550 0.000000 1.679820 
# 
# From -- ./inp_files/142314.got.cif
#   From: 2010.05.17/outbox.cif.g08.bks.cpg/sg15_72_cif.got.tgz:142314.got - 2010.06.03 18:47:42.
