data_PCOD9260611
_publ_section_title
;
Structure prediction by ZEFSAII (Michael W. Deem and Ramdas Pophale) SiO2 
 PCOD9260611
Probable space group: C 2/C
;
_chemical_formula_sum "Si O2"
_cell_formula_units_Z 56
_cell_length_a 17.665789
_cell_length_b 18.825951
_cell_length_c 19.666000
_cell_angle_alpha 90.000000
_cell_angle_beta 151.751432
_cell_angle_gamma 90.000000
_cell_volume 3095.567986
_symmetry_space_group_name_H-M "C 2/C"
_symmetry_group_IT_number 15
_symmetry_cell_setting 'monoclinic'
loop_
_space_group_symop_operation_xyz
x,y,z
-x,y,1/2-z
-x,-y,-z
x,-y,1/2+z
1/2+x,1/2+y,z
1/2-x,1/2+y,1/2-z
1/2-x,1/2-y,-z
1/2+x,1/2-y,1/2+z
loop_
_atom_site_type_symbol
_atom_site_label
_atom_site_fract_x
_atom_site_fract_y
_atom_site_fract_z
Si Si1 0.910228 0.833336 0.014547
Si Si2 0.738835 0.991693 0.680401
Si Si3 0.977585 0.441081 0.878141
Si Si4 0.560229 0.525617 0.871285
Si Si5 0.841382 0.454853 0.155218
Si Si6 0.890649 0.926671 0.412805
Si Si7 0.455315 0.796911 0.794147
O O1 0.910224 0.904888 0.059940
O O2 0.003835 0.859404 0.022074
O O3 0.993284 0.772523 0.124346
O O4 0.733861 0.809718 0.855220
O O5 0.616765 0.014140 0.524927
O O6 0.769382 0.059142 0.754234
O O7 0.914300 0.979186 0.787873
O O8 0.657752 0.936585 0.669029
O O9 0.905259 0.482464 0.755911
O O10 0.031547 0.365275 0.892288
O O11 0.500000 0.546802 0.750000
O O12 0.728096 0.485062 0.006338
O O13 0.716194 0.416113 0.105436
O O14 0.000000 0.419810 0.250000
O O15 0.000000 0.000000 0.500000
O O16 0.500000 0.793046 0.750000
#
# Coordination Sequence:
#
# PCOD9260611 Si02
#       7
#     8   8   8   8   8   8   8
#     4  11  24  38  54  78 114 158 191 225 270 339
#     4   9  19  32  54  80 106 144 191 239 280 326
#     4  10  20  34  54  79 113 148 188 233 277 328
#     4  11  21  33  54  78 115 145 186 231 291 328
#     4  11  20  34  57  85 108 142 185 239 298 335
#     4  10  18  38  58  78 107 148 190 236 287 330
#     4  12  25  37  54  79 118 159 196 219 266 340
#
# _framework density 18.09038
#
# number of rings (size 3 to 8) (size 9 to 14) (size 15 to 20)
#    0.000    1.429    4.286    3.000    6.000    0.000 
#    0.000    0.000    0.000    0.000    0.000    2.000 
#    0.000    0.000    0.000    0.000    0.000    0.000 
#
# Total GULP energy -156069.972548 kJ/mol
# GULP energy per Si atom -5573.927591 kJ/mol
# Density = 1.804921 g / cm^3
# Si number density = 18.090380 Si / 1000 Ang^3
#
#
#
# Elastic Constant Matrix: (Units=GPa)
#
#
# Indices 1 2 3 4 5 6 
#
# 1 91.9419 23.1119 24.0102 -0.0012 17.7776 -0.0001
# 2 23.1119 41.3809 5.1308 -0.0033 4.8131 0.0003
# 3 24.0102 5.1308 98.7088 0.0017 -1.4400 0.0026
# 4 -0.0012 -0.0033 0.0017 13.0411 0.0013 -7.2970
# 5 17.7776 4.8131 -1.4400 0.0013 33.8909 0.0006
# 6 -0.0001 0.0003 0.0026 -7.2970 0.0006 16.9863
#
#
#
# Elastic Compliance Matrix: (Units=1/GPa)
#
#
# Indices 1 2 3 4 5 6 
#
# 1 0.014874 -0.007085 -0.003351 0.000002 -0.006938 0.000002
# 2 -0.007085 0.028122 0.000258 0.000008 -0.000266 0.000003
# 3 -0.003351 0.000258 0.010964 -0.000004 0.002187 -0.000003
# 4 0.000002 0.000008 -0.000004 0.100945 -0.000007 0.043365
# 5 -0.006938 -0.000266 0.002187 -0.000007 0.033277 -0.000004
# 6 0.000002 0.000003 -0.000003 0.043365 -0.000004 0.077500
#
#
# Mechanical properties :
#
#
# Convention : Reuss Voigt Hill
#
# Bulk Modulus (GPa) = 29.75839 37.39305 33.57572
# Shear Modulus (GPa) = 16.82143 24.76889 20.79516
#
# Velocity S-wave (km/s) = 3.05266 3.70425 3.39413
# Velocity P-wave (km/s) = 5.37685 6.24582 5.82756
#
# Compressibility (1/GPa) = 0.03360397
#
# Stress axis : x y z
#
# Youngs Moduli (GPa) = 67.23101 35.55965 91.20406
#
# Poissons Ratio (x) = 0.25194 0.30562
# Poissons Ratio (y) = 0.47632 -0.02350
# Poissons Ratio (z) = 0.22529 -0.00916
#
# Static dielectric constant tensor:
#      x y z
#    x 1.713290 0.000000 0.030970 
#    y 0.000000 1.597320 0.000000 
#    z 0.030970 0.000000 1.665560 
# 
# From -- ./inp_files/249554.got.cif
#   From: 2010.05.17/outbox.cif.g08.bks.cpg/sg15_125_cif.got.tgz:249554.got - 2010.06.03 18:47:42.
