data_PCOD9260132
_publ_section_title
;
Structure prediction by ZEFSAII (Michael W. Deem and Ramdas Pophale) SiO2 
 PCOD9260132
Probable space group: C 2/C
;
_chemical_formula_sum "Si O2"
_cell_formula_units_Z 44
_cell_length_a 12.059366
_cell_length_b 13.859880
_cell_length_c 12.453187
_cell_angle_alpha 90.000000
_cell_angle_beta 123.314492
_cell_angle_gamma 90.000000
_cell_volume 1739.396018
_symmetry_space_group_name_H-M "C 2/C"
_symmetry_group_IT_number 15
_symmetry_cell_setting 'monoclinic'
loop_
_space_group_symop_operation_xyz
x,y,z
-x,y,1/2-z
-x,-y,-z
x,-y,1/2+z
1/2+x,1/2+y,z
1/2-x,1/2+y,1/2-z
1/2-x,1/2-y,-z
1/2+x,1/2-y,1/2+z
loop_
_atom_site_type_symbol
_atom_site_label
_atom_site_fract_x
_atom_site_fract_y
_atom_site_fract_z
Si Si1 0.975722 0.646788 0.500220
Si Si2 0.000000 0.316578 0.250000
Si Si3 0.321819 0.446330 0.848154
Si Si4 0.632081 0.181184 0.385086
Si Si5 0.415623 0.373925 0.448430
Si Si6 0.180432 0.137397 0.368343
O O1 0.022556 0.633936 0.647638
O O2 0.941294 0.760465 0.458596
O O3 0.829428 0.604574 0.421390
O O4 0.074484 0.622839 0.457005
O O5 0.130463 0.248915 0.338769
O O6 0.198578 0.389570 0.832453
O O7 0.317697 0.560696 0.825654
O O8 0.384724 0.401386 0.774008
O O9 0.439353 0.418812 0.994177
O O10 0.500000 0.223369 0.250000
O O11 0.750000 0.250000 0.500000
O O12 0.352716 0.394956 0.531352
#
# Coordination Sequence:
#
# PCOD9260132 Si02
#       6
#     8   4   8   8   8   8
#     4  11  22  39  69  99 130 179 236 287 340 423
#     4  10  18  36  62  94 132 162 236 284 336 398
#     4  11  21  40  64  95 142 175 221 296 354 403
#     4  12  24  44  70 104 144 183 230 293 359 421
#     4  10  21  39  63  94 129 178 234 273 345 421
#     4  11  19  39  65  93 126 177 225 293 337 405
#
# _framework density 25.296137000000002
#
# number of rings (size 3 to 8) (size 9 to 14) (size 15 to 20)
#    0.000    1.091    7.273    2.182    0.000    0.000 
#    3.273    0.909    8.000    0.000    0.000    0.000 
#    0.000    0.000    0.000    0.000    0.000    0.000 
#
# Total GULP energy -122483.735488 kJ/mol
# GULP energy per Si atom -5567.442522 kJ/mol
# Density = 2.523856 g / cm^3
# Si number density = 25.296137 Si / 1000 Ang^3
#
#
#
# Elastic Constant Matrix: (Units=GPa)
#
#
# Indices 1 2 3 4 5 6 
#
# 1 109.8173 -2.5181 23.9678 0.0000 -12.6081 0.0000
# 2 -2.5181 56.6524 -5.9235 0.0000 2.9464 0.0000
# 3 23.9678 -5.9235 79.8910 0.0000 -3.2595 0.0000
# 4 0.0000 0.0000 0.0000 2.7412 0.0000 8.2393
# 5 -12.6081 2.9464 -3.2595 0.0000 60.6155 0.0000
# 6 0.0000 0.0000 0.0000 8.2393 0.0000 12.2010
#
#
#
# Elastic Compliance Matrix: (Units=1/GPa)
#
#
# Indices 1 2 3 4 5 6 
#
# 1 0.009961 0.000039 -0.002907 0.000000 0.001914 0.000000
# 2 0.000039 0.017828 0.001278 0.000000 -0.000790 0.000000
# 3 -0.002907 0.001278 0.013486 0.000000 0.000058 0.000000
# 4 0.000000 0.000000 0.000000 -0.354261 0.000000 0.239232
# 5 0.001914 -0.000790 0.000058 0.000000 0.016937 0.000000
# 6 0.000000 0.000000 0.000000 0.239232 0.000000 -0.079592
#
#
# Mechanical properties :
#
#
# Convention : Reuss Voigt Hill
#
# Bulk Modulus (GPa) = 26.25028 30.82370 28.53699
# Shear Modulus (GPa) = -13.89809 30.50051 8.30121
#
# Velocity S-wave (km/s) = -2.34650 3.47614 1.81349
# Velocity P-wave (km/s) = 1.74879 5.32194 3.96114
#
# Compressibility (1/GPa) = 0.03809484
#
# Stress axis : x y z
#
# Youngs Moduli (GPa) = 100.38955 56.09180 74.14861
#
# Poissons Ratio (x) = -0.00220 0.21558
# Poissons Ratio (y) = -0.00394 -0.09475
# Poissons Ratio (z) = 0.29188 -0.07168
#
# Static dielectric constant tensor:
#      x y z
#    x 2.051550 0.000000 0.104330 
#    y 0.000000 2.131850 0.000000 
#    z 0.104330 0.000000 2.253600 
# 
# From -- ./inp_files/87936.got.cif
#   From: 2010.05.17/outbox.cif.g08.bks.cpg/sg15_44_cif.got.tgz:87936.got - 2010.06.03 18:47:42.
