data_PCOD9260453
_publ_section_title
;
Structure prediction by ZEFSAII (Michael W. Deem and Ramdas Pophale) SiO2 
 PCOD9260453
Probable space group: C 2/C
;
_chemical_formula_sum "Si O2"
_cell_formula_units_Z 48
_cell_length_a 12.614452
_cell_length_b 21.944760
_cell_length_c 11.590641
_cell_angle_alpha 90.000000
_cell_angle_beta 47.266820
_cell_angle_gamma 90.000000
_cell_volume 2356.738185
_symmetry_space_group_name_H-M "C 2/C"
_symmetry_group_IT_number 15
_symmetry_cell_setting 'monoclinic'
loop_
_space_group_symop_operation_xyz
x,y,z
-x,y,1/2-z
-x,-y,-z
x,-y,1/2+z
1/2+x,1/2+y,z
1/2-x,1/2+y,1/2-z
1/2-x,1/2-y,-z
1/2+x,1/2-y,1/2+z
loop_
_atom_site_type_symbol
_atom_site_label
_atom_site_fract_x
_atom_site_fract_y
_atom_site_fract_z
Si Si1 0.000000 0.186867 0.250000
Si Si2 0.492639 0.375511 0.446797
Si Si3 0.270696 0.795991 0.809145
Si Si4 0.992935 0.714310 0.563978
Si Si5 0.500000 0.728630 0.750000
Si Si6 0.000000 0.385802 0.250000
Si Si7 0.500000 0.522171 0.750000
Si Si8 0.318129 0.412529 0.966889
O O1 0.960683 0.231204 0.384016
O O2 0.863134 0.141557 0.344570
O O3 0.328392 0.356087 0.601848
O O4 0.527218 0.316863 0.338496
O O5 0.510141 0.433736 0.352090
O O6 0.590478 0.391339 0.486382
O O7 0.388277 0.799353 0.620047
O O8 0.365731 0.774888 0.847816
O O9 0.158142 0.741379 0.867781
O O10 0.971393 0.656507 0.660353
O O11 0.849552 0.418495 0.383586
O O12 0.372226 0.475271 0.872565
#
# Coordination Sequence:
#
# PCOD9260453 Si02
#       8
#     4   8   8   8   4   4   4   8
#     4  10  18  37  62  92 127 174 200 234 306 390
#     4  11  23  43  66  92 122 169 213 255 308 379
#     4  12  22  39  61  96 138 169 202 245 309 387
#     4  11  22  35  60  97 137 167 195 246 310 388
#     4  11  22  39  65  97 133 168 201 250 308 388
#     4  11  24  37  65  99 131 156 203 264 322 366
#     4  10  26  45  74  80 115 168 228 262 310 368
#     4  11  22  44  66  92 121 166 215 267 310 361
#
# _framework density 20.367134
#
# number of rings (size 3 to 8) (size 9 to 14) (size 15 to 20)
#    0.000    1.000    3.333    4.000    2.333    2.667 
#    0.000    1.667    0.000    0.000    0.000    0.000 
#    0.000    0.000    0.000    0.000    0.000    0.000 
#
# Total GULP energy -133789.343209 kJ/mol
# GULP energy per Si atom -5574.555967 kJ/mol
# Density = 2.032078 g / cm^3
# Si number density = 20.367134 Si / 1000 Ang^3
#
#
#
# Elastic Constant Matrix: (Units=GPa)
#
#
# Indices 1 2 3 4 5 6 
#
# 1 79.8621 32.2460 36.2640 0.0000 -20.8259 0.0000
# 2 32.2460 92.9190 43.4832 0.0000 -10.1008 0.0000
# 3 36.2640 43.4832 153.8457 0.0000 -19.8968 0.0000
# 4 0.0000 0.0000 0.0000 -9.1041 0.0000 -11.6089
# 5 -20.8259 -10.1008 -19.8968 0.0000 41.3955 0.0000
# 6 0.0000 0.0000 0.0000 -11.6089 0.0000 -0.1243
#
#
#
# Elastic Compliance Matrix: (Units=1/GPa)
#
#
# Indices 1 2 3 4 5 6 
#
# 1 0.016794 -0.004221 -0.001926 0.000000 0.006493 0.000000
# 2 -0.004221 0.013543 -0.002858 0.000000 -0.000192 0.000000
# 3 -0.001926 -0.002858 0.008046 0.000000 0.002201 0.000000
# 4 0.000000 0.000000 0.000000 0.000930 0.000000 -0.086871
# 5 0.006493 -0.000192 0.002201 0.000000 0.028435 0.000000
# 6 0.000000 0.000000 0.000000 -0.086871 0.000000 0.068127
#
#
# Mechanical properties :
#
#
# Convention : Reuss Voigt Hill
#
# Bulk Modulus (GPa) = 49.08153 61.17926 55.13040
# Shear Modulus (GPa) = 31.11857 20.74233 25.93045
#
# Velocity S-wave (km/s) = 3.91305 3.19473 3.57200
# Velocity P-wave (km/s) = 6.67583 6.61150 6.64374
#
# Compressibility (1/GPa) = 0.02037426
#
# Stress axis : x y z
#
# Youngs Moduli (GPa) = 59.54659 73.83717 124.27907
#
# Poissons Ratio (x) = 0.31166 0.23933
# Poissons Ratio (y) = 0.25134 0.35517
# Poissons Ratio (z) = 0.11467 0.21102
#
# Static dielectric constant tensor:
#      x y z
#    x 1.804780 0.000000 0.062250 
#    y 0.000000 1.710910 0.000000 
#    z 0.062250 0.000000 1.815150 
# 
# From -- ./inp_files/50085.got.cif
#   From: 2010.05.17/outbox.cif.g08.bks.cpg/sg15_26_cif.got.tgz:50085.got - 2010.06.03 18:47:42.
