data_PCOD9260034
_publ_section_title
;
Structure prediction by ZEFSAII (Michael W. Deem and Ramdas Pophale) SiO2 
 PCOD9260034
Probable space group: C 2/C
;
_chemical_formula_sum "Si O2"
_cell_formula_units_Z 48
_cell_length_a 28.496585
_cell_length_b 9.645635
_cell_length_c 17.187333
_cell_angle_alpha 90.000000
_cell_angle_beta 30.939669
_cell_angle_gamma 90.000000
_cell_volume 2428.899153
_symmetry_space_group_name_H-M "C 2/C"
_symmetry_group_IT_number 15
_symmetry_cell_setting 'monoclinic'
loop_
_space_group_symop_operation_xyz
x,y,z
-x,y,1/2-z
-x,-y,-z
x,-y,1/2+z
1/2+x,1/2+y,z
1/2-x,1/2+y,1/2-z
1/2-x,1/2-y,-z
1/2+x,1/2-y,1/2+z
loop_
_atom_site_type_symbol
_atom_site_label
_atom_site_fract_x
_atom_site_fract_y
_atom_site_fract_z
Si Si1 0.091494 0.653295 0.078352
Si Si2 0.899628 0.250512 0.112692
Si Si3 0.760028 0.014823 0.286965
Si Si4 0.322585 0.364084 0.426123
Si Si5 0.906685 0.828928 0.148999
Si Si6 0.322361 0.024011 0.268418
O O1 0.121548 0.786832 0.085864
O O2 0.000000 0.599370 0.250000
O O3 0.079028 0.702132 0.006846
O O4 0.174549 0.542794 0.958454
O O5 0.808484 0.157830 0.241692
O O6 0.884839 0.389503 0.182455
O O7 0.986567 0.166260 0.018895
O O8 0.724071 0.026250 0.250535
O O9 0.839578 0.900016 0.182928
O O10 0.250000 0.250000 0.500000
O O11 0.383281 0.398360 0.265550
O O12 0.259039 0.480644 0.553480
O O13 0.878639 0.666599 0.196366
#
# Coordination Sequence:
#
# PCOD9260034 Si02
#       6
#     8   8   8   8   8   8
#     4  11  20  36  62  88 114 159 202 239 280 355
#     4  11  22  35  60  92 122 152 193 247 302 344
#     4  11  21  37  57  91 122 153 191 250 303 337
#     4  10  18  36  61  85 112 149 206 238 275 340
#     4  11  21  37  63  86 115 159 205 240 281 363
#     4  10  20  37  59  86 121 156 196 242 296 347
#
# _framework density 19.762039000000001
#
# number of rings (size 3 to 8) (size 9 to 14) (size 15 to 20)
#    0.000    1.333    6.667    2.000    0.000    0.000 
#    0.000    0.833    0.000    9.000    0.000    0.000 
#    0.000    0.000    0.000    0.000    0.000    0.000 
#
# Total GULP energy -133967.377484 kJ/mol
# GULP energy per Si atom -5581.974062 kJ/mol
# Density = 1.971706 g / cm^3
# Si number density = 19.762039 Si / 1000 Ang^3
#
#
#
# Elastic Constant Matrix: (Units=GPa)
#
#
# Indices 1 2 3 4 5 6 
#
# 1 49.1224 3.6591 32.4269 0.0000 -4.7250 0.0000
# 2 3.6591 49.9311 22.8365 0.0002 3.0592 -0.0001
# 3 32.4269 22.8365 102.2614 0.0001 -8.7676 0.0000
# 4 0.0000 0.0002 0.0001 23.6147 0.0000 -6.6260
# 5 -4.7250 3.0592 -8.7676 0.0000 23.6930 0.0000
# 6 0.0000 -0.0001 0.0000 -6.6260 0.0000 27.9831
#
#
#
# Elastic Compliance Matrix: (Units=1/GPa)
#
#
# Indices 1 2 3 4 5 6 
#
# 1 0.026010 0.001878 -0.008513 0.000000 0.001794 0.000000
# 2 0.001878 0.023001 -0.006149 0.000000 -0.004871 0.000000
# 3 -0.008513 -0.006149 0.014225 0.000000 0.004360 0.000000
# 4 0.000000 0.000000 0.000000 0.045360 0.000000 0.010741
# 5 0.001794 -0.004871 0.004360 0.000000 0.044807 0.000000
# 6 0.000000 0.000000 0.000000 0.010741 0.000000 0.038279
#
#
# Mechanical properties :
#
#
# Convention : Reuss Voigt Hill
#
# Bulk Modulus (GPa) = 26.54903 35.46221 31.00562
# Shear Modulus (GPa) = 21.75732 24.55100 23.15416
#
# Velocity S-wave (km/s) = 3.32168 3.52850 3.42665
# Velocity P-wave (km/s) = 5.30801 5.88081 5.60174
#
# Compressibility (1/GPa) = 0.03766616
#
# Stress axis : x y z
#
# Youngs Moduli (GPa) = 38.44714 43.47640 70.29649
#
# Poissons Ratio (x) = -0.08163 0.59844
# Poissons Ratio (y) = -0.07219 0.43228
# Poissons Ratio (z) = 0.32730 0.26736
#
# Static dielectric constant tensor:
#      x y z
#    x 1.721920 0.000000 -0.007020 
#    y 0.000000 1.705710 0.000000 
#    z -0.007020 0.000000 1.733580 
# 
# From -- ./inp_files/209317.got.cif
#   From: 2010.05.17/outbox.cif.g08.bks.cpg/sg15_105_cif.got.tgz:209317.got - 2010.06.03 18:47:42.
