data_PCOD9260932
_publ_section_title
;
Structure prediction by ZEFSAII (Michael W. Deem and Ramdas Pophale) SiO2 
 PCOD9260932
Probable space group: C 2/C
;
_chemical_formula_sum "Si O2"
_cell_formula_units_Z 60
_cell_length_a 18.275560
_cell_length_b 9.031266
_cell_length_c 30.611148
_cell_angle_alpha 90.000000
_cell_angle_beta 149.992890
_cell_angle_gamma 90.000000
_cell_volume 2526.750036
_symmetry_space_group_name_H-M "C 2/C"
_symmetry_group_IT_number 15
_symmetry_cell_setting 'monoclinic'
loop_
_space_group_symop_operation_xyz
x,y,z
-x,y,1/2-z
-x,-y,-z
x,-y,1/2+z
1/2+x,1/2+y,z
1/2-x,1/2+y,1/2-z
1/2-x,1/2-y,-z
1/2+x,1/2-y,1/2+z
loop_
_atom_site_type_symbol
_atom_site_label
_atom_site_fract_x
_atom_site_fract_y
_atom_site_fract_z
Si Si1 0.526599 0.869629 0.875616
Si Si2 0.260738 0.670466 0.067750
Si Si3 0.971916 0.507335 0.934102
Si Si4 0.411351 0.503132 0.409995
Si Si5 0.139697 0.668485 0.743224
Si Si6 0.691167 0.475165 0.999604
Si Si7 0.246493 0.779582 0.290706
Si Si8 0.500000 0.654715 0.250000
O O1 0.427355 0.740870 0.803645
O O2 0.512118 0.876320 0.920956
O O3 0.444845 0.020421 0.816528
O O4 0.692911 0.891876 0.946057
O O5 0.259694 0.848883 0.066786
O O6 0.349199 0.590783 0.152526
O O7 0.319090 0.606079 0.052356
O O8 0.089555 0.631067 0.980162
O O9 0.809074 0.564274 0.839161
O O10 0.000000 0.500000 0.000000
O O11 0.500000 0.500000 0.500000
O O12 0.290455 0.377368 0.343984
O O13 0.532101 0.487043 0.434717
O O14 0.319468 0.654789 0.358468
O O15 0.185356 0.748975 0.722202
O O16 0.049072 0.755374 0.732342
#
# Coordination Sequence:
#
# PCOD9260932 Si02
#       8
#     8   8   8   8   8   8   8   4
#     4   9  20  37  60  83 120 164 197 247 313 369
#     4  10  20  33  59  88 118 156 191 261 309 357
#     4  10  21  37  60  94 123 162 204 255 309 372
#     4  11  22  35  59  89 114 154 208 255 297 367
#     4  10  22  35  56  89 118 154 193 254 310 364
#     4  10  18  39  57  82 121 153 203 247 315 362
#     4  10  21  40  56  86 128 161 199 246 320 365
#     4  12  20  32  58  94 118 142 204 254 310 340
#
# _framework density 23.745916999999999
#
# number of rings (size 3 to 8) (size 9 to 14) (size 15 to 20)
#    0.000    1.867    2.667    1.600    1.867    0.000 
#    2.400    0.667    0.000    3.200    0.000    0.000 
#    0.000    0.000    0.000    0.000    0.000    0.000 
#
# Total GULP energy -167620.520964 kJ/mol
# GULP energy per Si atom -5587.350699 kJ/mol
# Density = 2.369187 g / cm^3
# Si number density = 23.745917 Si / 1000 Ang^3
#
#
#
# Elastic Constant Matrix: (Units=GPa)
#
#
# Indices 1 2 3 4 5 6 
#
# 1 74.4682 -0.7869 -4.9312 0.0000 -4.2825 0.0000
# 2 -0.7869 25.4788 6.9268 0.0000 6.7506 -0.0001
# 3 -4.9312 6.9268 100.3621 0.0002 -9.7191 -0.0001
# 4 0.0000 0.0000 0.0002 34.1528 0.0000 5.0952
# 5 -4.2825 6.7506 -9.7191 0.0000 49.7448 0.0000
# 6 0.0000 -0.0001 -0.0001 5.0952 0.0000 12.6603
#
#
#
# Elastic Compliance Matrix: (Units=1/GPa)
#
#
# Indices 1 2 3 4 5 6 
#
# 1 0.013558 -0.000157 0.000807 0.000000 0.001346 0.000000
# 2 -0.000157 0.041892 -0.003517 0.000000 -0.006386 0.000000
# 3 0.000807 -0.003517 0.010498 0.000000 0.002598 0.000000
# 4 0.000000 0.000000 0.000000 0.031151 0.000000 -0.012537
# 5 0.001346 -0.006386 0.002598 0.000000 0.021593 0.000000
# 6 0.000000 0.000000 0.000000 -0.012537 0.000000 0.084032
#
#
# Mechanical properties :
#
#
# Convention : Reuss Voigt Hill
#
# Bulk Modulus (GPa) = 16.60791 22.52519 19.56655
# Shear Modulus (GPa) = 21.87913 32.58495 27.23204
#
# Velocity S-wave (km/s) = 3.03872 3.70839 3.39013
# Velocity P-wave (km/s) = 4.39556 5.27662 4.85611
#
# Compressibility (1/GPa) = 0.06021227
#
# Stress axis : x y z
#
# Youngs Moduli (GPa) = 73.75846 23.87115 95.25681
#
# Poissons Ratio (x) = 0.00376 -0.07691
# Poissons Ratio (y) = 0.01162 0.33506
# Poissons Ratio (z) = -0.05955 0.08396
#
# Static dielectric constant tensor:
#      x y z
#    x 1.897160 0.000000 0.011920 
#    y 0.000000 1.963570 0.000000 
#    z 0.011920 0.000000 1.974540 
# 
# From -- ./inp_files/316073.got.cif
#   From: 2010.05.17/outbox.cif.g08.bks.cpg/sg15_159_cif.got.tgz:316073.got - 2010.06.03 18:47:42.
