data_PCOD9260653
_publ_section_title
;
Structure prediction by ZEFSAII (Michael W. Deem and Ramdas Pophale) SiO2 
 PCOD9260653
Probable space group: C 2/C
;
_chemical_formula_sum "Si O2"
_cell_formula_units_Z 52
_cell_length_a 31.816175
_cell_length_b 9.607664
_cell_length_c 15.858259
_cell_angle_alpha 90.000000
_cell_angle_beta 28.316474
_cell_angle_gamma 90.000000
_cell_volume 2299.388020
_symmetry_space_group_name_H-M "C 2/C"
_symmetry_group_IT_number 15
_symmetry_cell_setting 'monoclinic'
loop_
_space_group_symop_operation_xyz
x,y,z
-x,y,1/2-z
-x,-y,-z
x,-y,1/2+z
1/2+x,1/2+y,z
1/2-x,1/2+y,1/2-z
1/2-x,1/2-y,-z
1/2+x,1/2-y,1/2+z
loop_
_atom_site_type_symbol
_atom_site_label
_atom_site_fract_x
_atom_site_fract_y
_atom_site_fract_z
Si Si1 0.176755 0.870928 0.964265
Si Si2 0.728327 0.622655 0.198405
Si Si3 0.492220 0.716056 0.470277
Si Si4 0.645947 0.178944 0.394608
Si Si5 0.859004 0.979653 0.296974
Si Si6 0.403547 0.113909 0.585218
Si Si7 0.500000 0.796139 0.750000
O O1 0.082927 0.796844 0.130819
O O2 0.182117 0.956668 0.039543
O O3 0.185366 0.948366 0.858547
O O4 0.259713 0.764523 0.807835
O O5 0.828177 0.649983 0.054020
O O6 0.712399 0.532209 0.144629
O O7 0.672264 0.765900 0.286826
O O8 0.443145 0.742716 0.469037
O O9 0.566468 0.598996 0.330391
O O10 0.413234 0.655046 0.668701
O O11 0.539382 0.845319 0.433398
O O12 0.636810 0.037607 0.355561
O O13 0.466254 0.124914 0.392015
#
# Coordination Sequence:
#
# PCOD9260653 Si02
#       7
#     8   8   8   8   8   8   4
#     4   9  20  37  59  94 109 161 201 255 285 354
#     4   8  21  36  58  90 117 154 203 250 293 346
#     4  10  21  35  60  89 116 160 198 242 305 363
#     4  10  22  37  60  86 124 153 195 255 301 348
#     4  10  19  38  64  87 121 160 203 242 301 358
#     4  10  19  39  58  83 125 157 193 253 304 349
#     4  10  18  38  60  86 120 150 218 242 292 354
#
# _framework density 22.614712999999998
#
# number of rings (size 3 to 8) (size 9 to 14) (size 15 to 20)
#    0.923    1.538    1.538    0.462    4.308    0.615 
#    2.769    3.077    6.769    0.000    0.000    0.000 
#    0.000    0.000    0.000    0.000    0.000    0.000 
#
# Total GULP energy -144918.146615 kJ/mol
# GULP energy per Si atom -5573.774870 kJ/mol
# Density = 2.256324 g / cm^3
# Si number density = 22.614713 Si / 1000 Ang^3
#
#
#
# Elastic Constant Matrix: (Units=GPa)
#
#
# Indices 1 2 3 4 5 6 
#
# 1 136.1976 12.6557 36.3562 0.0000 -40.4378 0.0000
# 2 12.6557 34.7445 2.6922 0.0000 -15.8529 0.0000
# 3 36.3562 2.6922 38.0507 0.0000 -20.5087 0.0000
# 4 0.0000 0.0000 0.0000 8.6970 0.0000 -4.9877
# 5 -40.4378 -15.8529 -20.5087 0.0000 49.7973 0.0000
# 6 0.0000 0.0000 0.0000 -4.9877 0.0000 22.5448
#
#
#
# Elastic Compliance Matrix: (Units=1/GPa)
#
#
# Indices 1 2 3 4 5 6 
#
# 1 0.011104 -0.000888 -0.007505 0.000000 0.005643 0.000000
# 2 -0.000888 0.034317 0.005039 0.000000 0.012279 0.000000
# 3 -0.007505 0.005039 0.039426 0.000000 0.011747 0.000000
# 4 0.000000 0.000000 0.000000 0.131691 0.000000 0.029135
# 5 0.005643 0.012279 0.011747 0.000000 0.033411 0.000000
# 6 0.000000 0.000000 0.000000 0.029135 0.000000 0.050802
#
#
# Mechanical properties :
#
#
# Convention : Reuss Voigt Hill
#
# Bulk Modulus (GPa) = 12.79780 34.71123 23.75451
# Shear Modulus (GPa) = 14.99226 26.69374 20.84300
#
# Velocity S-wave (km/s) = 2.57756 3.43938 3.03917
# Velocity P-wave (km/s) = 3.81179 5.58164 4.77936
#
# Compressibility (1/GPa) = 0.07813841
#
# Stress axis : x y z
#
# Youngs Moduli (GPa) = 90.06123 29.14004 25.36373
#
# Poissons Ratio (x) = 0.02588 0.19035
# Poissons Ratio (y) = 0.07999 -0.12780
# Poissons Ratio (z) = 0.67588 -0.14683
#
# Static dielectric constant tensor:
#      x y z
#    x 1.873760 0.000000 -0.026150 
#    y 0.000000 1.890420 0.000000 
#    z -0.026150 0.000000 1.817490 
# 
# From -- ./inp_files/224870.got.cif
#   From: 2010.05.17/outbox.cif.g08.bks.cpg/sg15_113_cif.got.tgz:224870.got - 2010.06.03 18:47:42.
