data_PCOD9260183
_publ_section_title
;
Structure prediction by ZEFSAII (Michael W. Deem and Ramdas Pophale) SiO2 
 PCOD9260183
Probable space group: C 2/C
;
_chemical_formula_sum "Si O2"
_cell_formula_units_Z 52
_cell_length_a 8.846879
_cell_length_b 24.908631
_cell_length_c 24.046399
_cell_angle_alpha 90.000000
_cell_angle_beta 146.990448
_cell_angle_gamma 90.000000
_cell_volume 2886.757019
_symmetry_space_group_name_H-M "C 2/C"
_symmetry_group_IT_number 15
_symmetry_cell_setting 'monoclinic'
loop_
_space_group_symop_operation_xyz
x,y,z
-x,y,1/2-z
-x,-y,-z
x,-y,1/2+z
1/2+x,1/2+y,z
1/2-x,1/2+y,1/2-z
1/2-x,1/2-y,-z
1/2+x,1/2-y,1/2+z
loop_
_atom_site_type_symbol
_atom_site_label
_atom_site_fract_x
_atom_site_fract_y
_atom_site_fract_z
Si Si1 0.125359 0.519422 0.727060
Si Si2 0.200166 0.023991 0.420628
Si Si3 0.128441 0.193948 0.442631
Si Si4 0.500000 0.161876 0.250000
Si Si5 0.783031 0.087624 0.960248
Si Si6 0.616074 0.088906 0.393835
Si Si7 0.235682 0.866767 0.866289
O O1 0.455714 0.517686 0.833297
O O2 0.000000 0.511626 0.750000
O O3 0.989880 0.571386 0.657410
O O4 0.028749 0.468454 0.660233
O O5 0.182702 0.046240 0.477866
O O6 0.149095 0.076727 0.367475
O O7 0.500000 0.000000 0.500000
O O8 0.250000 0.250000 0.500000
O O9 0.211088 0.146542 0.511073
O O10 0.249576 0.175554 0.420347
O O11 0.791196 0.193371 0.334970
O O12 0.532732 0.124127 0.314162
O O13 0.054332 0.081578 0.005798
O O14 0.507966 0.119315 0.414858
O O15 0.000000 0.850295 0.750000
#
# Coordination Sequence:
#
# PCOD9260183 Si02
#       7
#     8   8   8   4   8   8   8
#     4  12  21  34  57  86 124 165 193 239 302 365
#     4  11  23  35  54  89 125 164 199 245 299 362
#     4  10  22  43  62  84 116 154 202 263 314 351
#     4  10  18  36  64  86 110 154 198 238 302 374
#     4  10  23  38  57  86 118 159 202 243 303 372
#     4  11  18  35  60  89 114 149 199 239 292 368
#     4  11  20  35  62  89 113 149 208 253 285 365
#
# _framework density 18.013293999999998
#
# number of rings (size 3 to 8) (size 9 to 14) (size 15 to 20)
#    0.000    1.231    5.385    2.308    2.154    0.000 
#    0.000    6.923    0.000    0.000    0.000    0.000 
#    0.000    0.000    0.000    0.000    0.000    0.000 
#
# Total GULP energy -145242.516745 kJ/mol
# GULP energy per Si atom -5586.250644 kJ/mol
# Density = 1.797229 g / cm^3
# Si number density = 18.013294 Si / 1000 Ang^3
#
#
#
# Elastic Constant Matrix: (Units=GPa)
#
#
# Indices 1 2 3 4 5 6 
#
# 1 122.2539 36.6333 44.7671 -0.0002 11.0302 -0.0003
# 2 36.6333 88.5284 62.0216 -0.0001 4.6061 -0.0003
# 3 44.7671 62.0216 108.8375 -0.0012 20.8984 -0.0008
# 4 -0.0002 -0.0001 -0.0012 33.2757 -0.0003 -4.8488
# 5 11.0302 4.6061 20.8984 -0.0003 31.0660 -0.0002
# 6 -0.0003 -0.0003 -0.0008 -4.8488 -0.0002 16.1973
#
#
#
# Elastic Compliance Matrix: (Units=1/GPa)
#
#
# Indices 1 2 3 4 5 6 
#
# 1 0.009910 -0.002279 -0.002488 0.000000 -0.001507 0.000000
# 2 -0.002279 0.020050 -0.011567 0.000000 0.005618 0.000000
# 3 -0.002488 -0.011567 0.018722 0.000001 -0.009996 0.000001
# 4 0.000000 0.000000 0.000001 0.031423 0.000000 0.009407
# 5 -0.001507 0.005618 -0.009996 0.000000 0.038616 0.000000
# 6 0.000000 0.000000 0.000001 0.009407 0.000000 0.064555
#
#
# Mechanical properties :
#
#
# Convention : Reuss Voigt Hill
#
# Bulk Modulus (GPa) = 62.44503 67.38488 64.91495
# Shear Modulus (GPa) = 22.59564 27.85431 25.22497
#
# Velocity S-wave (km/s) = 3.54557 3.93659 3.74619
# Velocity P-wave (km/s) = 7.17655 7.62574 7.40455
#
# Compressibility (1/GPa) = 0.01601408
#
# Stress axis : x y z
#
# Youngs Moduli (GPa) = 100.91184 49.87462 53.41269
#
# Poissons Ratio (x) = 0.11368 0.13288
# Poissons Ratio (y) = 0.23001 0.61782
# Poissons Ratio (z) = 0.25105 0.57689
#
# Static dielectric constant tensor:
#      x y z
#    x 1.651540 0.000000 0.002380 
#    y 0.000000 1.579780 0.000000 
#    z 0.002380 0.000000 1.629590 
# 
# From -- ./inp_files/80639.got.cif
#   From: 2010.05.17/outbox.cif.g08.bks.cpg/sg15_41_cif.got.tgz:80639.got - 2010.06.03 18:47:42.
