data_PCOD9260861
_publ_section_title
;
Structure prediction by ZEFSAII (Michael W. Deem and Ramdas Pophale) SiO2 
 PCOD9260861
Probable space group: C 2/C
;
_chemical_formula_sum "Si O2"
_cell_formula_units_Z 60
_cell_length_a 12.897652
_cell_length_b 13.736366
_cell_length_c 13.284401
_cell_angle_alpha 90.000000
_cell_angle_beta 89.409645
_cell_angle_gamma 90.000000
_cell_volume 2353.430792
_symmetry_space_group_name_H-M "C 2/C"
_symmetry_group_IT_number 15
_symmetry_cell_setting 'monoclinic'
loop_
_space_group_symop_operation_xyz
x,y,z
-x,y,1/2-z
-x,-y,-z
x,-y,1/2+z
1/2+x,1/2+y,z
1/2-x,1/2+y,1/2-z
1/2-x,1/2-y,-z
1/2+x,1/2-y,1/2+z
loop_
_atom_site_type_symbol
_atom_site_label
_atom_site_fract_x
_atom_site_fract_y
_atom_site_fract_z
Si Si1 0.275025 0.856555 0.958457
Si Si2 0.801440 0.553533 0.742438
Si Si3 0.780917 0.622065 0.081969
Si Si4 0.765257 0.240305 0.768948
Si Si5 0.358740 0.464356 0.070995
Si Si6 0.995610 0.658867 0.041678
Si Si7 0.956508 0.144778 0.861774
Si Si8 0.000000 0.555536 0.250000
O O1 0.276018 0.834129 0.838790
O O2 0.181780 0.932564 0.971745
O O3 0.392287 0.884129 0.992460
O O4 0.250000 0.750000 0.000000
O O5 0.781163 0.477196 0.650525
O O6 0.830976 0.667825 0.725160
O O7 0.711322 0.550585 0.828103
O O8 0.905969 0.509513 0.785779
O O9 0.778977 0.715238 0.157548
O O10 0.881039 0.631222 0.005790
O O11 0.819517 0.888008 0.987815
O O12 0.838634 0.161427 0.828912
O O13 0.477973 0.448963 0.103014
O O14 0.977224 0.622447 0.156008
O O15 0.016372 0.773007 0.056530
O O16 0.000000 0.169514 0.750000
#
# Coordination Sequence:
#
# PCOD9260861 Si02
#       8
#     8   8   8   8   8   8   8   4
#     4  11  23  43  65  98 139 189 235 285 364 426
#     4  11  21  40  67  96 141 178 237 292 360 419
#     4  11  23  41  69 104 137 183 243 300 350 424
#     4  11  22  43  72  95 143 195 230 293 369 428
#     4  12  24  40  70 108 136 178 244 302 345 428
#     4  10  18  38  66  91 134 175 224 283 349 418
#     4  11  19  37  69  95 127 181 230 276 353 421
#     4  10  18  38  68 100 130 178 234 286 360 418
#
# _framework density 25.494695
#
# number of rings (size 3 to 8) (size 9 to 14) (size 15 to 20)
#    0.000    1.067    6.000    2.400    0.000    2.667 
#    2.400    6.000    4.400    0.000    0.000    0.000 
#    0.000    0.000    0.000    0.000    0.000    0.000 
#
# Total GULP energy -167104.386915 kJ/mol
# GULP energy per Si atom -5570.146230 kJ/mol
# Density = 2.543667 g / cm^3
# Si number density = 25.494695 Si / 1000 Ang^3
#
#
#
# Elastic Constant Matrix: (Units=GPa)
#
#
# Indices 1 2 3 4 5 6 
#
# 1 79.3563 55.3598 19.3594 0.0000 8.0585 0.0000
# 2 55.3598 134.5495 31.5004 0.0000 8.4208 0.0000
# 3 19.3594 31.5004 80.2399 0.0000 3.8336 0.0000
# 4 0.0000 0.0000 0.0000 41.7237 0.0000 -0.4232
# 5 8.0585 8.4208 3.8336 0.0000 29.9536 0.0000
# 6 0.0000 0.0000 0.0000 -0.4232 0.0000 38.9689
#
#
#
# Elastic Compliance Matrix: (Units=1/GPa)
#
#
# Indices 1 2 3 4 5 6 
#
# 1 0.018067 -0.006908 -0.001517 0.000000 -0.002724 0.000000
# 2 -0.006908 0.010935 -0.002584 0.000000 -0.000885 0.000000
# 3 -0.001517 -0.002584 0.013874 0.000000 -0.000641 0.000000
# 4 0.000000 0.000000 0.000000 0.023970 0.000000 0.000260
# 5 -0.002724 -0.000885 -0.000641 0.000000 0.034449 0.000000
# 6 0.000000 0.000000 0.000000 0.000260 0.000000 0.025664
#
#
# Mechanical properties :
#
#
# Convention : Reuss Voigt Hill
#
# Bulk Modulus (GPa) = 47.94306 56.28721 52.11514
# Shear Modulus (GPa) = 32.06592 34.65764 33.36178
#
# Velocity S-wave (km/s) = 3.55032 3.69101 3.62135
# Velocity P-wave (km/s) = 5.97096 6.34750 6.16210
#
# Compressibility (1/GPa) = 0.02085808
#
# Stress axis : x y z
#
# Youngs Moduli (GPa) = 55.34874 91.45131 72.07942
#
# Poissons Ratio (x) = 0.63175 0.10934
# Poissons Ratio (y) = 0.38235 0.18624
# Poissons Ratio (z) = 0.08396 0.23629
#
# Static dielectric constant tensor:
#      x y z
#    x 2.257220 0.000000 -0.001660 
#    y 0.000000 2.110930 0.000000 
#    z -0.001660 0.000000 2.111580 
# 
# From -- ./inp_files/243364.got.cif
#   From: 2010.05.17/outbox.cif.g08.bks.cpg/sg15_122_cif.got.tgz:243364.got - 2010.06.03 18:47:42.
