data_PCOD9260082
_publ_section_title
;
Structure prediction by ZEFSAII (Michael W. Deem and Ramdas Pophale) SiO2 
 PCOD9260082
Probable space group: C 2/C
;
_chemical_formula_sum "Si O2"
_cell_formula_units_Z 60
_cell_length_a 27.661593
_cell_length_b 17.810169
_cell_length_c 5.624153
_cell_angle_alpha 90.000000
_cell_angle_beta 102.997121
_cell_angle_gamma 90.000000
_cell_volume 2699.798332
_symmetry_space_group_name_H-M "C 2/C"
_symmetry_group_IT_number 15
_symmetry_cell_setting 'monoclinic'
loop_
_space_group_symop_operation_xyz
x,y,z
-x,y,1/2-z
-x,-y,-z
x,-y,1/2+z
1/2+x,1/2+y,z
1/2-x,1/2+y,1/2-z
1/2-x,1/2-y,-z
1/2+x,1/2-y,1/2+z
loop_
_atom_site_type_symbol
_atom_site_label
_atom_site_fract_x
_atom_site_fract_y
_atom_site_fract_z
Si Si1 0.385540 0.240015 0.746309
Si Si2 0.500000 0.952089 0.750000
Si Si3 0.943152 0.317171 0.908997
Si Si4 0.147734 0.517838 0.214495
Si Si5 0.759209 0.962336 0.309137
Si Si6 0.016961 0.177297 0.017225
Si Si7 0.790091 0.791263 0.379958
Si Si8 0.339272 0.183628 0.107733
O O1 0.421592 0.180185 0.651324
O O2 0.345055 0.289447 0.558552
O O3 0.425570 0.299659 0.893065
O O4 0.346534 0.185554 0.837649
O O5 0.542394 0.891106 0.719098
O O6 0.500000 0.000000 0.500000
O O7 0.894344 0.285258 0.728616
O O8 0.986116 0.256085 0.969681
O O9 0.121544 0.493660 0.431586
O O10 0.199451 0.472897 0.250485
O O11 0.163092 0.604311 0.267485
O O12 0.773275 0.875434 0.309849
O O13 0.776244 0.996697 0.583108
O O14 0.000000 0.139244 0.750000
O O15 0.000000 0.141621 0.250000
O O16 0.750000 0.750000 0.500000
O O17 0.799056 0.740076 0.158445
#
# Coordination Sequence:
#
# PCOD9260082 Si02
#       8
#     8   4   8   8   8   8   8   8
#     4  10  23  37  65  92 127 168 220 287 349 395
#     4  12  28  38  58  86 126 182 234 268 326 400
#     4  10  22  41  59  86 126 167 213 282 336 389
#     4  10  23  40  59  82 121 170 220 268 336 402
#     4  10  23  43  64  86 126 175 217 268 344 411
#     4  10  18  36  62  84 120 163 194 256 339 396
#     4  11  25  41  64  98 132 175 235 297 345 410
#     4  11  23  39  66  93 127 171 231 294 339 405
#
# _framework density 22.223884999999999
#
# number of rings (size 3 to 8) (size 9 to 14) (size 15 to 20)
#    0.000    1.600    2.000    1.600   14.000    1.600 
#    0.000    0.000    0.000    0.000    0.000    0.000 
#    0.000   33.067    0.000    0.000    0.000    0.000 
#
# Total GULP energy -167046.472601 kJ/mol
# GULP energy per Si atom -5568.215753 kJ/mol
# Density = 2.217330 g / cm^3
# Si number density = 22.223885 Si / 1000 Ang^3
#
#
#
# Elastic Constant Matrix: (Units=GPa)
#
#
# Indices 1 2 3 4 5 6 
#
# 1 100.3801 12.3255 19.8828 0.0000 -0.1813 0.0000
# 2 12.3255 61.6099 18.1426 0.0000 -23.4312 0.0000
# 3 19.8828 18.1426 126.7706 0.0000 -35.8151 0.0000
# 4 0.0000 0.0000 0.0000 28.0748 0.0000 -1.0853
# 5 -0.1813 -23.4312 -35.8151 0.0000 52.0963 0.0000
# 6 0.0000 0.0000 0.0000 -1.0853 0.0000 30.5517
#
#
#
# Elastic Compliance Matrix: (Units=1/GPa)
#
#
# Indices 1 2 3 4 5 6 
#
# 1 0.010660 -0.002476 -0.002013 0.000000 -0.002460 0.000000
# 2 -0.002476 0.020171 0.000077 0.000000 0.009117 0.000000
# 3 -0.002013 0.000077 0.010177 0.000000 0.007024 0.000000
# 4 0.000000 0.000000 0.000000 0.035668 0.000000 0.001267
# 5 -0.002460 0.009117 0.007024 0.000000 0.028116 0.000000
# 6 0.000000 0.000000 0.000000 0.001267 0.000000 0.032776
#
#
# Mechanical properties :
#
#
# Convention : Reuss Voigt Hill
#
# Bulk Modulus (GPa) = 31.06894 43.27358 37.17126
# Shear Modulus (GPa) = 31.82274 38.03855 34.93064
#
# Velocity S-wave (km/s) = 3.78817 4.14164 3.96885
# Velocity P-wave (km/s) = 5.75708 6.51037 6.14528
#
# Compressibility (1/GPa) = 0.03218649
#
# Stress axis : x y z
#
# Youngs Moduli (GPa) = 93.80577 49.57642 98.25657
#
# Poissons Ratio (x) = 0.12273 0.19776
# Poissons Ratio (y) = 0.23222 -0.00758
# Poissons Ratio (z) = 0.18880 -0.00383
#
# Static dielectric constant tensor:
#      x y z
#    x 1.645440 0.000000 -0.279750 
#    y 0.000000 1.802500 0.000000 
#    z -0.279750 0.000000 2.113050 
# 
# From -- ./inp_files/17199.got.cif
#   From: 2010.05.17/outbox.cif.g08.bks.cpg/sg15_9_cif.got.tgz:17199.got - 2010.06.03 18:47:42.
