data_PCOD9260704
_publ_section_title
;
Structure prediction by ZEFSAII (Michael W. Deem and Ramdas Pophale) SiO2 
 PCOD9260704
Probable space group: C 2/C
;
_chemical_formula_sum "Si O2"
_cell_formula_units_Z 44
_cell_length_a 21.406197
_cell_length_b 10.367563
_cell_length_c 13.061953
_cell_angle_alpha 90.000000
_cell_angle_beta 129.566486
_cell_angle_gamma 90.000000
_cell_volume 2234.675426
_symmetry_space_group_name_H-M "C 2/C"
_symmetry_group_IT_number 15
_symmetry_cell_setting 'monoclinic'
loop_
_space_group_symop_operation_xyz
x,y,z
-x,y,1/2-z
-x,-y,-z
x,-y,1/2+z
1/2+x,1/2+y,z
1/2-x,1/2+y,1/2-z
1/2-x,1/2-y,-z
1/2+x,1/2-y,1/2+z
loop_
_atom_site_type_symbol
_atom_site_label
_atom_site_fract_x
_atom_site_fract_y
_atom_site_fract_z
Si Si1 0.548543 0.190679 0.527836
Si Si2 0.000000 0.931622 0.250000
Si Si3 0.947018 0.491223 0.284975
Si Si4 0.790519 0.649865 0.120887
Si Si5 0.632413 0.555995 0.044519
Si Si6 0.599977 0.338527 0.162264
O O1 0.508844 0.091688 0.405065
O O2 0.609597 0.294342 0.543476
O O3 0.470998 0.276401 0.479502
O O4 0.579755 0.109185 0.655908
O O5 0.941678 0.855977 0.269172
O O6 0.064686 0.995406 0.393930
O O7 0.868141 0.568696 0.163943
O O8 0.000000 0.430981 0.250000
O O9 0.720638 0.556110 0.087775
O O10 0.827316 0.738811 0.249436
O O11 0.750000 0.750000 0.000000
O O12 0.625991 0.472597 0.140359
#
# Coordination Sequence:
#
# PCOD9260704 Si02
#       6
#     8   4   8   8   8   8
#     4   9  20  38  60  86 112 159 197 237 293 353
#     4  10  18  38  62  84 112 152 202 236 284 360
#     4  10  21  38  60  87 119 154 197 241 292 350
#     4  11  22  38  63  87 119 159 200 241 289 364
#     4  11  22  38  63  88 120 154 198 253 294 356
#     4  10  22  39  61  90 114 158 199 250 296 350
#
# _framework density 19.68966
#
# number of rings (size 3 to 8) (size 9 to 14) (size 15 to 20)
#    0.000    1.818    1.818    3.273   11.455    0.000 
#    9.818    0.000    0.000    3.273    0.000    0.000 
#    0.000    0.000    0.000    0.000    0.000    0.000 
#
# Total GULP energy -122595.084674 kJ/mol
# GULP energy per Si atom -5572.503849 kJ/mol
# Density = 1.964485 g / cm^3
# Si number density = 19.689660 Si / 1000 Ang^3
#
#
#
# Elastic Constant Matrix: (Units=GPa)
#
#
# Indices 1 2 3 4 5 6 
#
# 1 80.0878 13.8039 37.2866 0.0000 6.6138 0.0000
# 2 13.8039 28.6118 6.6424 0.0000 -5.8015 0.0000
# 3 37.2866 6.6424 56.4876 0.0000 9.5188 0.0000
# 4 0.0000 0.0000 0.0000 23.4362 0.0000 3.3431
# 5 6.6138 -5.8015 9.5188 0.0000 27.4023 0.0000
# 6 0.0000 0.0000 0.0000 3.3431 0.0000 11.9161
#
#
#
# Elastic Compliance Matrix: (Units=1/GPa)
#
#
# Indices 1 2 3 4 5 6 
#
# 1 0.019234 -0.007041 -0.011508 0.000000 -0.002135 0.000000
# 2 -0.007041 0.041077 -0.002055 0.000000 0.011110 0.000000
# 3 -0.011508 -0.002055 0.026710 0.000000 -0.006936 0.000000
# 4 0.000000 0.000000 0.000000 0.044448 0.000000 -0.012470
# 5 -0.002135 0.011110 -0.006936 0.000000 0.041770 0.000000
# 6 0.000000 0.000000 0.000000 -0.012470 0.000000 0.087418
#
#
# Mechanical properties :
#
#
# Convention : Reuss Voigt Hill
#
# Bulk Modulus (GPa) = 21.82782 31.18365 26.50573
# Shear Modulus (GPa) = 15.76606 19.71453 17.74029
#
# Velocity S-wave (km/s) = 2.83278 3.16771 3.00491
# Velocity P-wave (km/s) = 4.67007 5.40843 5.05275
#
# Compressibility (1/GPa) = 0.04581310
#
# Stress axis : x y z
#
# Youngs Moduli (GPa) = 51.99070 24.34437 37.43925
#
# Poissons Ratio (x) = 0.17141 0.43087
# Poissons Ratio (y) = 0.36606 0.07693
# Poissons Ratio (z) = 0.59833 0.05002
#
# Static dielectric constant tensor:
#      x y z
#    x 1.677000 0.000000 0.004120 
#    y 0.000000 1.696420 0.000000 
#    z 0.004120 0.000000 1.725930 
# 
# From -- ./inp_files/104095.got.cif
#   From: 2010.05.17/outbox.cif.g08.bks.cpg/sg15_53_cif.got.tgz:104095.got - 2010.06.03 18:47:42.
