data_PCOD9260538
_publ_section_title
;
Structure prediction by ZEFSAII (Michael W. Deem and Ramdas Pophale) SiO2 
 PCOD9260538
Probable space group: C 2/C
;
_chemical_formula_sum "Si O2"
_cell_formula_units_Z 48
_cell_length_a 22.462626
_cell_length_b 11.337583
_cell_length_c 15.056289
_cell_angle_alpha 90.000000
_cell_angle_beta 140.919779
_cell_angle_gamma 90.000000
_cell_volume 2417.244471
_symmetry_space_group_name_H-M "C 2/C"
_symmetry_group_IT_number 15
_symmetry_cell_setting 'monoclinic'
loop_
_space_group_symop_operation_xyz
x,y,z
-x,y,1/2-z
-x,-y,-z
x,-y,1/2+z
1/2+x,1/2+y,z
1/2-x,1/2+y,1/2-z
1/2-x,1/2-y,-z
1/2+x,1/2-y,1/2+z
loop_
_atom_site_type_symbol
_atom_site_label
_atom_site_fract_x
_atom_site_fract_y
_atom_site_fract_z
Si Si1 0.783549 0.378913 0.565317
Si Si2 0.574780 0.066011 0.415575
Si Si3 0.466002 0.819156 0.075844
Si Si4 0.862321 0.234990 0.133563
Si Si5 0.096439 0.972036 0.308402
Si Si6 0.443932 0.758124 0.852535
O O1 0.750000 0.250000 0.500000
O O2 0.828202 0.429849 0.526271
O O3 0.688230 0.447478 0.476327
O O4 0.864390 0.354636 0.731098
O O5 0.500000 0.044492 0.250000
O O6 0.540027 0.187271 0.420724
O O7 0.569485 0.953723 0.472638
O O8 0.407248 0.756537 0.087467
O O9 0.575881 0.821871 0.233219
O O10 0.453370 0.754651 0.968415
O O11 0.887909 0.106359 0.202099
O O12 0.750000 0.250000 0.000000
O O13 0.085584 0.867446 0.223645
O O14 0.000000 0.966979 0.250000
#
# Coordination Sequence:
#
# PCOD9260538 Si02
#       6
#     8   8   8   8   8   8
#     4   9  19  37  62  93 125 162 202 246 320 382
#     4  10  18  37  66  89 126 167 199 256 319 380
#     4  11  22  43  62  93 128 160 221 260 312 380
#     4  11  24  44  64  84 124 180 209 252 327 386
#     4  11  21  42  64  87 131 169 207 255 319 388
#     4  10  22  37  66  99 123 157 210 270 314 368
#
# _framework density 19.857322
#
# number of rings (size 3 to 8) (size 9 to 14) (size 15 to 20)
#    0.000    1.667    3.333    4.000    2.333    0.667 
#    9.000    0.000    0.000    0.000    0.000    0.000 
#    0.000    0.000    0.000    0.000    0.000    0.000 
#
# Total GULP energy -133742.650122 kJ/mol
# GULP energy per Si atom -5572.610422 kJ/mol
# Density = 1.981213 g / cm^3
# Si number density = 19.857322 Si / 1000 Ang^3
#
#
#
# Elastic Constant Matrix: (Units=GPa)
#
#
# Indices 1 2 3 4 5 6 
#
# 1 78.2301 21.4747 67.6971 0.0000 15.1223 0.0000
# 2 21.4747 96.5028 11.0601 0.0000 -3.4930 0.0000
# 3 67.6971 11.0601 88.4239 0.0000 8.6833 0.0000
# 4 0.0000 0.0000 0.0000 15.4501 0.0000 8.0299
# 5 15.1223 -3.4930 8.6833 0.0000 42.6750 0.0000
# 6 0.0000 0.0000 0.0000 8.0299 0.0000 30.3959
#
#
#
# Elastic Compliance Matrix: (Units=1/GPa)
#
#
# Indices 1 2 3 4 5 6 
#
# 1 0.044185 -0.006507 -0.032065 0.000000 -0.009666 0.000000
# 2 -0.006507 0.011527 0.003287 0.000000 0.002581 0.000000
# 3 -0.032065 0.003287 0.035004 0.000000 0.004509 0.000000
# 4 0.000000 0.000000 0.000000 0.075025 0.000000 -0.019820
# 5 -0.009666 0.002581 0.004509 0.000000 0.026152 0.000000
# 6 0.000000 0.000000 0.000000 -0.019820 0.000000 0.038135
#
#
# Mechanical properties :
#
#
# Convention : Reuss Voigt Hill
#
# Bulk Modulus (GPa) = 49.63918 51.51340 50.57629
# Shear Modulus (GPa) = 16.26992 28.56584 22.41788
#
# Velocity S-wave (km/s) = 2.86552 3.79694 3.36363
# Velocity P-wave (km/s) = 6.00004 6.72462 6.37263
#
# Compressibility (1/GPa) = 0.02014538
#
# Stress axis : x y z
#
# Youngs Moduli (GPa) = 22.63193 86.75128 28.56801
#
# Poissons Ratio (x) = 0.56453 0.91604
# Poissons Ratio (y) = 0.14728 -0.09390
# Poissons Ratio (z) = 0.72569 -0.28514
#
# Static dielectric constant tensor:
#      x y z
#    x 1.690520 0.000000 0.021280 
#    y 0.000000 1.789000 0.000000 
#    z 0.021280 0.000000 1.706520 
# 
# From -- ./inp_files/167937.got.cif
#   From: 2010.05.17/outbox.cif.g08.bks.cpg/sg15_84_cif.got.tgz:167937.got - 2010.06.03 18:47:42.
