data_PCOD9260227
_publ_section_title
;
Structure prediction by ZEFSAII (Michael W. Deem and Ramdas Pophale) SiO2 
 PCOD9260227
Probable space group: C 2/C
;
_chemical_formula_sum "Si O2"
_cell_formula_units_Z 56
_cell_length_a 9.914241
_cell_length_b 28.953463
_cell_length_c 13.233731
_cell_angle_alpha 90.000000
_cell_angle_beta 47.504097
_cell_angle_gamma 90.000000
_cell_volume 2800.925957
_symmetry_space_group_name_H-M "C 2/C"
_symmetry_group_IT_number 15
_symmetry_cell_setting 'monoclinic'
loop_
_space_group_symop_operation_xyz
x,y,z
-x,y,1/2-z
-x,-y,-z
x,-y,1/2+z
1/2+x,1/2+y,z
1/2-x,1/2+y,1/2-z
1/2-x,1/2-y,-z
1/2+x,1/2-y,1/2+z
loop_
_atom_site_type_symbol
_atom_site_label
_atom_site_fract_x
_atom_site_fract_y
_atom_site_fract_z
Si Si1 0.080779 0.893772 0.608043
Si Si2 0.085723 0.355988 0.963139
Si Si3 0.833108 0.173941 0.143079
Si Si4 0.000000 0.541955 0.250000
Si Si5 0.460716 0.236055 0.888177
Si Si6 0.271274 0.116593 0.488700
Si Si7 0.130924 0.011667 0.338148
Si Si8 0.000000 0.061214 0.750000
O O1 0.293716 0.891539 0.529407
O O2 0.000000 0.870458 0.750000
O O3 0.013529 0.859015 0.556579
O O4 0.966076 0.940767 0.651691
O O5 0.193472 0.342084 0.803602
O O6 0.039006 0.311395 0.051823
O O7 0.893603 0.374504 0.023899
O O8 0.905326 0.225247 0.130368
O O9 0.747592 0.159894 0.078168
O O10 0.158201 0.516156 0.233145
O O11 0.877600 0.575861 0.378555
O O12 0.500000 0.231244 0.750000
O O13 0.250000 0.250000 0.000000
O O14 0.086851 0.094308 0.622302
O O15 0.123311 0.974115 0.252990
O O16 0.000000 0.000000 0.500000
#
# Coordination Sequence:
#
# PCOD9260227 Si02
#       8
#     8   8   8   4   8   8   8   4
#     4  10  18  36  65  92 123 177 223 269 335 405
#     4  11  23  41  70 101 132 184 235 275 343 422
#     4  11  20  41  71  95 136 181 222 275 348 408
#     4  12  22  42  74  95 130 184 235 272 338 432
#     4  12  23  41  68 104 136 175 232 289 331 404
#     4  12  25  45  68 100 138 180 228 284 349 425
#     4  12  24  42  66  99 138 181 229 292 346 408
#     4  12  28  46  66 103 144 172 227 308 352 382
#
# _framework density 19.993389000000001
#
# number of rings (size 3 to 8) (size 9 to 14) (size 15 to 20)
#    0.000    0.571    7.857    1.286    0.000    3.429 
#    2.571    0.000    0.000    0.000    0.000    0.000 
#    0.000    0.000    0.000    0.000    0.000    0.000 
#
# Total GULP energy -155966.424473 kJ/mol
# GULP energy per Si atom -5570.229445 kJ/mol
# Density = 1.994788 g / cm^3
# Si number density = 19.993389 Si / 1000 Ang^3
#
#
#
# Elastic Constant Matrix: (Units=GPa)
#
#
# Indices 1 2 3 4 5 6 
#
# 1 128.5023 36.9144 4.4250 0.0000 5.8075 0.0000
# 2 36.9144 57.1055 15.4903 0.0000 3.1414 0.0000
# 3 4.4250 15.4903 75.9266 0.0000 6.7919 0.0000
# 4 0.0000 0.0000 0.0000 14.9771 0.0000 5.2823
# 5 5.8075 3.1414 6.7919 0.0000 20.2037 0.0000
# 6 0.0000 0.0000 0.0000 5.2823 0.0000 43.9879
#
#
#
# Elastic Compliance Matrix: (Units=1/GPa)
#
#
# Indices 1 2 3 4 5 6 
#
# 1 0.009682 -0.006395 0.000928 0.000000 -0.002101 0.000000
# 2 -0.006395 0.022815 -0.004257 0.000000 -0.000278 0.000000
# 3 0.000928 -0.004257 0.014382 0.000000 -0.004440 0.000000
# 4 0.000000 0.000000 0.000000 0.069721 0.000000 -0.008372
# 5 -0.002101 -0.000278 -0.004440 0.000000 0.051636 0.000000
# 6 0.000000 0.000000 0.000000 -0.008372 0.000000 0.023739
#
#
# Mechanical properties :
#
#
# Convention : Reuss Voigt Hill
#
# Bulk Modulus (GPa) = 36.45368 41.68821 39.07095
# Shear Modulus (GPa) = 22.66888 29.48074 26.07481
#
# Velocity S-wave (km/s) = 3.37088 3.84412 3.61525
# Velocity P-wave (km/s) = 5.78125 6.37176 6.08367
#
# Compressibility (1/GPa) = 0.02743207
#
# Stress axis : x y z
#
# Youngs Moduli (GPa) = 103.28455 43.83014 69.53047
#
# Poissons Ratio (x) = 0.28029 -0.06455
# Poissons Ratio (y) = 0.66050 0.29600
# Poissons Ratio (z) = -0.09588 0.18659
#
# Static dielectric constant tensor:
#      x y z
#    x 1.777430 0.000000 -0.036210 
#    y 0.000000 1.649710 0.000000 
#    z -0.036210 0.000000 1.674070 
# 
# From -- ./inp_files/82528.got.cif
#   From: 2010.05.17/outbox.cif.g08.bks.cpg/sg15_42_cif.got.tgz:82528.got - 2010.06.03 18:47:42.
