data_PCOD9260675
_publ_section_title
;
Structure prediction by ZEFSAII (Michael W. Deem and Ramdas Pophale) SiO2 
 PCOD9260675
Probable space group: C 2/C
;
_chemical_formula_sum "Si O2"
_cell_formula_units_Z 44
_cell_length_a 6.497563
_cell_length_b 13.712706
_cell_length_c 19.596382
_cell_angle_alpha 90.000000
_cell_angle_beta 99.095716
_cell_angle_gamma 90.000000
_cell_volume 1724.066273
_symmetry_space_group_name_H-M "C 2/C"
_symmetry_group_IT_number 15
_symmetry_cell_setting 'monoclinic'
loop_
_space_group_symop_operation_xyz
x,y,z
-x,y,1/2-z
-x,-y,-z
x,-y,1/2+z
1/2+x,1/2+y,z
1/2-x,1/2+y,1/2-z
1/2-x,1/2-y,-z
1/2+x,1/2-y,1/2+z
loop_
_atom_site_type_symbol
_atom_site_label
_atom_site_fract_x
_atom_site_fract_y
_atom_site_fract_z
Si Si1 0.328131 0.265776 0.601578
Si Si2 0.998619 0.324624 0.678682
Si Si3 0.908846 0.056108 0.381219
Si Si4 0.000000 0.324337 0.250000
Si Si5 0.583486 0.934802 0.443247
Si Si6 0.249976 0.520503 0.692184
O O1 0.092072 0.272562 0.617081
O O2 0.412751 0.370716 0.582646
O O3 0.444684 0.237874 0.680055
O O4 0.379095 0.180752 0.551234
O O5 0.157167 0.413833 0.703531
O O6 0.000000 0.266626 0.750000
O O7 0.778850 0.372300 0.649937
O O8 0.796905 0.981644 0.425849
O O9 0.021369 0.998557 0.325625
O O10 0.188783 0.399027 0.244352
O O11 0.399977 0.946086 0.377875
O O12 0.500000 0.000000 0.500000
#
# Coordination Sequence:
#
# PCOD9260675 Si02
#       6
#     8   8   8   4   8   8
#     4  10  22  37  59  90 119 155 207 248 311 378
#     4  10  19  36  57  90 126 157 192 241 305 377
#     4  10  22  40  60  86 123 163 198 257 310 364
#     4  10  18  38  60  94 124 154 202 246 304 386
#     4  10  23  42  61  86 118 159 214 262 308 367
#     4   9  20  38  60  90 121 157 202 240 305 370
#
# _framework density 25.521062000000001
#
# number of rings (size 3 to 8) (size 9 to 14) (size 15 to 20)
#    0.000    2.182    0.909    1.091    0.000    8.000 
#    0.000   10.000    0.000    0.000    0.000    0.000 
#    0.000    0.000    0.000    0.000    0.000    0.000 
#
# Total GULP energy -123097.583261 kJ/mol
# GULP energy per Si atom -5595.344694 kJ/mol
# Density = 2.546297 g / cm^3
# Si number density = 25.521062 Si / 1000 Ang^3
#
#
#
# Elastic Constant Matrix: (Units=GPa)
#
#
# Indices 1 2 3 4 5 6 
#
# 1 135.8209 44.3576 24.9168 0.0000 -41.5463 0.0000
# 2 44.3576 108.7699 12.0511 0.0000 -23.3517 0.0000
# 3 24.9168 12.0511 49.8406 0.0000 -21.6527 0.0000
# 4 0.0000 0.0000 0.0000 30.9717 0.0000 -5.2325
# 5 -41.5463 -23.3517 -21.6527 0.0000 52.7556 0.0000
# 6 0.0000 0.0000 0.0000 -5.2325 0.0000 48.8366
#
#
#
# Elastic Compliance Matrix: (Units=1/GPa)
#
#
# Indices 1 2 3 4 5 6 
#
# 1 0.010529 -0.002731 -0.001857 0.000000 0.006320 0.000000
# 2 -0.002731 0.010883 -0.000131 0.000000 0.002613 0.000000
# 3 -0.001857 -0.000131 0.024782 0.000000 0.008651 0.000000
# 4 0.000000 0.000000 0.000000 0.032883 0.000000 0.003523
# 5 0.006320 0.002613 0.008651 0.000000 0.028640 0.000000
# 6 0.000000 0.000000 0.000000 0.003523 0.000000 0.020854
#
#
# Mechanical properties :
#
#
# Convention : Reuss Voigt Hill
#
# Bulk Modulus (GPa) = 27.20715 50.78693 38.99704
# Shear Modulus (GPa) = 33.27541 40.71985 36.99763
#
# Velocity S-wave (km/s) = 3.61479 3.99875 3.81161
# Velocity P-wave (km/s) = 5.30152 6.42365 5.88937
#
# Compressibility (1/GPa) = 0.03675505
#
# Stress axis : x y z
#
# Youngs Moduli (GPa) = 94.97900 91.88738 40.35108
#
# Poissons Ratio (x) = 0.25094 0.07495
# Poissons Ratio (y) = 0.25939 0.00529
# Poissons Ratio (z) = 0.17642 0.01204
#
# Static dielectric constant tensor:
#      x y z
#    x 2.052320 0.000000 0.029220 
#    y 0.000000 1.979990 0.000000 
#    z 0.029220 0.000000 2.108320 
# 
# From -- ./inp_files/260339.got.cif
#   From: 2010.05.17/outbox.cif.g08.bks.cpg/sg15_131_cif.got.tgz:260339.got - 2010.06.03 18:47:42.
