data_PCOD9260684
_publ_section_title
;
Structure prediction by ZEFSAII (Michael W. Deem and Ramdas Pophale) SiO2 
 PCOD9260684
Probable space group: C 2/C
;
_chemical_formula_sum "Si O2"
_cell_formula_units_Z 52
_cell_length_a 9.221114
_cell_length_b 17.369480
_cell_length_c 17.320768
_cell_angle_alpha 90.000000
_cell_angle_beta 73.819840
_cell_angle_gamma 90.000000
_cell_volume 2664.312047
_symmetry_space_group_name_H-M "C 2/C"
_symmetry_group_IT_number 15
_symmetry_cell_setting 'monoclinic'
loop_
_space_group_symop_operation_xyz
x,y,z
-x,y,1/2-z
-x,-y,-z
x,-y,1/2+z
1/2+x,1/2+y,z
1/2-x,1/2+y,1/2-z
1/2-x,1/2-y,-z
1/2+x,1/2-y,1/2+z
loop_
_atom_site_type_symbol
_atom_site_label
_atom_site_fract_x
_atom_site_fract_y
_atom_site_fract_z
Si Si1 0.131395 0.083930 0.539535
Si Si2 0.610652 0.989339 0.412475
Si Si3 0.384875 0.089331 0.827669
Si Si4 0.627498 0.312199 0.449650
Si Si5 0.736941 0.344883 0.599337
Si Si6 0.367557 0.468252 0.631913
Si Si7 0.000000 0.135846 0.250000
O O1 0.267076 0.073518 0.578571
O O2 0.182031 0.070100 0.442782
O O3 0.031641 0.160249 0.559613
O O4 0.010029 0.019197 0.583268
O O5 0.503350 0.957549 0.362417
O O6 0.500000 0.000000 0.500000
O O7 0.693755 0.071882 0.390928
O O8 0.500000 0.126939 0.750000
O O9 0.274048 0.148515 0.887888
O O10 0.264756 0.024441 0.817729
O O11 0.637657 0.344673 0.535607
O O12 0.643147 0.221053 0.439021
O O13 0.632090 0.320107 0.685988
O O14 0.422928 0.414741 0.693382
#
# Coordination Sequence:
#
# PCOD9260684 Si02
#       7
#     8   8   8   8   8   8   4
#     4  10  18  38  61  84 117 163 199 240 300 371
#     4  12  20  38  65  90 120 157 208 250 298 360
#     4  11  23  37  61  92 120 154 201 259 300 354
#     4  10  22  41  60  83 127 162 197 243 310 372
#     4  11  22  37  62  90 120 160 202 248 309 361
#     4  10  19  34  59  90 116 152 204 248 295 355
#     4  12  20  34  64  94 116 156 208 264 294 368
#
# _framework density 19.517234999999999
#
# number of rings (size 3 to 8) (size 9 to 14) (size 15 to 20)
#    0.000    1.231    6.154    1.846    1.077    0.000 
#    0.000    0.769    3.385    1.846    0.000    0.000 
#    0.000    0.000    0.000    0.000    0.000    0.000 
#
# Total GULP energy -144905.206563 kJ/mol
# GULP energy per Si atom -5573.277175 kJ/mol
# Density = 1.947281 g / cm^3
# Si number density = 19.517235 Si / 1000 Ang^3
#
#
#
# Elastic Constant Matrix: (Units=GPa)
#
#
# Indices 1 2 3 4 5 6 
#
# 1 84.6596 23.9698 -3.0680 0.0000 -2.6014 0.0000
# 2 23.9698 53.4615 -1.0881 0.0000 9.3872 0.0000
# 3 -3.0680 -1.0881 85.4615 0.0000 -21.0785 0.0000
# 4 0.0000 0.0000 0.0000 13.1242 0.0000 -1.9862
# 5 -2.6014 9.3872 -21.0785 0.0000 28.0368 0.0000
# 6 0.0000 0.0000 0.0000 -1.9862 0.0000 18.7969
#
#
#
# Elastic Compliance Matrix: (Units=1/GPa)
#
#
# Indices 1 2 3 4 5 6 
#
# 1 0.014038 -0.007123 0.001624 0.000000 0.004908 0.000000
# 2 -0.007123 0.023692 -0.002546 0.000000 -0.010507 0.000000
# 3 0.001624 -0.002546 0.014700 0.000000 0.012055 0.000000
# 4 0.000000 0.000000 0.000000 0.077433 0.000000 0.008182
# 5 0.004908 -0.010507 0.012055 0.000000 0.048704 0.000000
# 6 0.000000 0.000000 0.000000 0.008182 0.000000 0.054065
#
#
# Mechanical properties :
#
#
# Convention : Reuss Voigt Hill
#
# Bulk Modulus (GPa) = 27.51701 29.24555 28.38128
# Shear Modulus (GPa) = 19.16918 25.57620 22.37269
#
# Velocity S-wave (km/s) = 3.13735 3.62393 3.38938
# Velocity P-wave (km/s) = 5.22048 5.70329 5.46722
#
# Compressibility (1/GPa) = 0.03634115
#
# Stress axis : x y z
#
# Youngs Moduli (GPa) = 71.23308 42.20863 68.02578
#
# Poissons Ratio (x) = 0.30065 -0.11047
# Poissons Ratio (y) = 0.50739 0.17317
# Poissons Ratio (z) = -0.11567 0.10745
#
# Static dielectric constant tensor:
#      x y z
#    x 1.563080 0.000000 -0.105410 
#    y 0.000000 1.997510 0.000000 
#    z -0.105410 0.000000 1.620590 
# 
# From -- ./inp_files/190312.got.cif
#   From: 2010.05.17/outbox.cif.g08.bks.cpg/sg15_96_cif.got.tgz:190312.got - 2010.06.03 18:47:42.
