data_PCOD9260079
_publ_section_title
;
Structure prediction by ZEFSAII (Michael W. Deem and Ramdas Pophale) SiO2 
 PCOD9260079
Probable space group: C 2/C
;
_chemical_formula_sum "Si O2"
_cell_formula_units_Z 60
_cell_length_a 20.934880
_cell_length_b 10.558808
_cell_length_c 12.231607
_cell_angle_alpha 90.000000
_cell_angle_beta 88.716036
_cell_angle_gamma 90.000000
_cell_volume 2703.085800
_symmetry_space_group_name_H-M "C 2/C"
_symmetry_group_IT_number 15
_symmetry_cell_setting 'monoclinic'
loop_
_space_group_symop_operation_xyz
x,y,z
-x,y,1/2-z
-x,-y,-z
x,-y,1/2+z
1/2+x,1/2+y,z
1/2-x,1/2+y,1/2-z
1/2-x,1/2-y,-z
1/2+x,1/2-y,1/2+z
loop_
_atom_site_type_symbol
_atom_site_label
_atom_site_fract_x
_atom_site_fract_y
_atom_site_fract_z
Si Si1 0.632502 0.650571 0.840185
Si Si2 0.322254 0.873319 0.503480
Si Si3 0.916854 0.946795 0.945285
Si Si4 0.798426 0.147916 0.352137
Si Si5 0.000000 0.766232 0.250000
Si Si6 0.766659 0.774770 0.328349
Si Si7 0.652078 0.152540 0.980987
Si Si8 0.026200 0.782796 0.019159
O O1 0.645703 0.781683 0.907155
O O2 0.565776 0.662620 0.779237
O O3 0.692539 0.641668 0.757879
O O4 0.621375 0.551054 0.937505
O O5 0.251132 0.899056 0.553575
O O6 0.315373 0.789912 0.394751
O O7 0.356786 0.005925 0.488923
O O8 0.864549 0.925675 0.854788
O O9 0.953159 0.078208 0.936982
O O10 0.964539 0.825787 0.952125
O O11 0.762093 0.158470 0.240142
O O12 0.013688 0.702790 0.131006
O O13 0.705235 0.838776 0.384593
O O14 0.815606 0.726833 0.418615
O O15 0.585191 0.219092 0.956015
#
# Coordination Sequence:
#
# PCOD9260079 Si02
#       8
#     8   8   8   8   4   8   8   8
#     4   9  18  39  60  86 112 159 198 234 294 367
#     4   9  20  37  61  82 121 152 197 248 295 356
#     4   9  20  39  63  86 119 154 205 243 302 360
#     4   9  19  39  58  87 114 162 197 240 299 364
#     4  10  18  36  62  84 116 156 204 232 294 368
#     4  10  22  38  56  89 122 150 194 242 307 353
#     4  11  23  39  55  92 123 154 196 256 301 351
#     4  10  21  40  60  90 121 159 200 256 297 362
#
# _framework density 22.196853000000001
#
# number of rings (size 3 to 8) (size 9 to 14) (size 15 to 20)
#    0.000    2.400    1.333    0.800    3.733    2.133 
#   12.000    6.000    0.000    0.000    0.000    0.000 
#    0.000    0.000    0.000    0.000    0.000    0.000 
#
# Total GULP energy -167343.647153 kJ/mol
# GULP energy per Si atom -5578.121572 kJ/mol
# Density = 2.214633 g / cm^3
# Si number density = 22.196853 Si / 1000 Ang^3
#
#
#
# Elastic Constant Matrix: (Units=GPa)
#
#
# Indices 1 2 3 4 5 6 
#
# 1 128.0437 19.5469 26.7151 0.0000 4.5304 0.0000
# 2 19.5469 53.5332 -5.7711 0.0000 -7.8631 0.0000
# 3 26.7151 -5.7711 54.0447 0.0000 -5.4021 0.0000
# 4 0.0000 0.0000 0.0000 8.0437 0.0000 9.0569
# 5 4.5304 -7.8631 -5.4021 0.0000 37.3959 0.0000
# 6 0.0000 0.0000 0.0000 9.0569 0.0000 21.6903
#
#
#
# Elastic Compliance Matrix: (Units=1/GPa)
#
#
# Indices 1 2 3 4 5 6 
#
# 1 0.009795 -0.004620 -0.005632 0.000000 -0.002972 0.000000
# 2 -0.004620 0.021793 0.005200 0.000000 0.005893 0.000000
# 3 -0.005632 0.005200 0.022343 0.000000 0.005003 0.000000
# 4 0.000000 0.000000 0.000000 0.234632 0.000000 -0.097972
# 5 -0.002972 0.005893 0.005003 0.000000 0.029063 0.000000
# 6 0.000000 0.000000 0.000000 -0.097972 0.000000 0.087012
#
#
# Mechanical properties :
#
#
# Convention : Reuss Voigt Hill
#
# Bulk Modulus (GPa) = 22.81743 35.17814 28.99779
# Shear Modulus (GPa) = 11.64545 26.43471 19.04008
#
# Velocity S-wave (km/s) = 2.29300 3.45472 2.93197
# Velocity P-wave (km/s) = 4.16081 5.63880 4.95522
#
# Compressibility (1/GPa) = 0.04382614
#
# Stress axis : x y z
#
# Youngs Moduli (GPa) = 102.08788 45.88574 44.75712
#
# Poissons Ratio (x) = 0.21201 0.25209
# Poissons Ratio (y) = 0.47169 -0.23274
# Poissons Ratio (z) = 0.57501 -0.23861
#
# Static dielectric constant tensor:
#      x y z
#    x 1.841970 0.000000 -0.017190 
#    y 0.000000 1.846830 0.000000 
#    z -0.017190 0.000000 1.863200 
# 
# From -- ./inp_files/111643.got.cif
#   From: 2010.05.17/outbox.cif.g08.bks.cpg/sg15_56_cif.got.tgz:111643.got - 2010.06.03 18:47:42.
