data_PCOD9260858
_publ_section_title
;
Structure prediction by ZEFSAII (Michael W. Deem and Ramdas Pophale) SiO2 
 PCOD9260858
Probable space group: C 2/C
;
_chemical_formula_sum "Si O2"
_cell_formula_units_Z 52
_cell_length_a 8.765883
_cell_length_b 26.950066
_cell_length_c 10.306949
_cell_angle_alpha 90.000000
_cell_angle_beta 91.340114
_cell_angle_gamma 90.000000
_cell_volume 2434.259231
_symmetry_space_group_name_H-M "C 2/C"
_symmetry_group_IT_number 15
_symmetry_cell_setting 'monoclinic'
loop_
_space_group_symop_operation_xyz
x,y,z
-x,y,1/2-z
-x,-y,-z
x,-y,1/2+z
1/2+x,1/2+y,z
1/2-x,1/2+y,1/2-z
1/2-x,1/2-y,-z
1/2+x,1/2-y,1/2+z
loop_
_atom_site_type_symbol
_atom_site_label
_atom_site_fract_x
_atom_site_fract_y
_atom_site_fract_z
Si Si1 0.008135 0.839030 0.496016
Si Si2 0.245393 0.210481 0.382318
Si Si3 0.000000 0.767167 0.250000
Si Si4 0.679615 0.987165 0.507282
Si Si5 0.580709 0.891658 0.612911
Si Si6 0.780934 0.597895 0.946447
Si Si7 0.655676 0.580380 0.681537
O O1 0.167056 0.866855 0.524327
O O2 0.927610 0.810284 0.612164
O O3 0.026196 0.800680 0.377311
O O4 0.900042 0.881722 0.430529
O O5 0.250000 0.250000 0.500000
O O6 0.343987 0.236026 0.270380
O O7 0.338288 0.160141 0.407681
O O8 0.686176 0.940786 0.606182
O O9 0.747624 0.964018 0.377453
O O10 0.500000 0.000000 0.500000
O O11 0.758439 0.039377 0.538873
O O12 0.500000 0.892179 0.750000
O O13 0.451019 0.895393 0.500067
O O14 0.754265 0.608012 0.793798
O O15 0.500000 0.564239 0.750000
#
# Coordination Sequence:
#
# PCOD9260858 Si02
#       7
#     8   8   4   8   8   8   8
#     4  10  19  40  65  94 123 161 211 260 312 379
#     4  10  21  38  68  87 123 169 205 257 326 372
#     4  10  18  38  66  90 126 170 200 260 330 370
#     4  10  23  38  61  95 127 167 211 253 310 379
#     4  11  23  42  62  91 132 168 207 259 318 373
#     4  10  23  39  67  92 129 163 210 259 306 377
#     4  10  20  39  64  90 128 164 207 256 314 364
#
# _framework density 21.361733999999998
#
# number of rings (size 3 to 8) (size 9 to 14) (size 15 to 20)
#    0.000    1.846    4.615    0.000    4.308    4.308 
#    0.000    3.846    3.385    0.000    0.000    0.000 
#    0.000    0.000    0.000    0.000    0.000    0.000 
#
# Total GULP energy -144900.183355 kJ/mol
# GULP energy per Si atom -5573.083975 kJ/mol
# Density = 2.131311 g / cm^3
# Si number density = 21.361734 Si / 1000 Ang^3
#
#
#
# Elastic Constant Matrix: (Units=GPa)
#
#
# Indices 1 2 3 4 5 6 
#
# 1 72.4029 47.4660 31.0391 0.0000 -39.0479 0.0000
# 2 47.4660 132.6881 6.3327 0.0000 -24.6275 0.0000
# 3 31.0391 6.3327 40.8551 0.0000 -17.1772 0.0000
# 4 0.0000 0.0000 0.0000 14.1712 0.0000 -21.4525
# 5 -39.0479 -24.6275 -17.1772 0.0000 37.7531 0.0000
# 6 0.0000 0.0000 0.0000 -21.4525 0.0000 51.0471
#
#
#
# Elastic Compliance Matrix: (Units=1/GPa)
#
#
# Indices 1 2 3 4 5 6 
#
# 1 0.046010 -0.009508 -0.019885 0.000000 0.032338 0.000000
# 2 -0.009508 0.010593 0.005382 0.000000 -0.000475 0.000000
# 3 -0.019885 0.005382 0.039049 0.000000 0.000710 0.000000
# 4 0.000000 0.000000 0.000000 0.193958 0.000000 0.081511
# 5 0.032338 -0.000475 0.000710 0.000000 0.059948 0.000000
# 6 0.000000 0.000000 0.000000 0.081511 0.000000 0.053844
#
#
# Mechanical properties :
#
#
# Convention : Reuss Voigt Hill
#
# Bulk Modulus (GPa) = 20.99604 46.18020 33.58812
# Shear Modulus (GPa) = 10.69976 31.33482 21.01729
#
# Velocity S-wave (km/s) = 2.24047 3.83413 3.14008
# Velocity P-wave (km/s) = 4.06732 6.42385 5.37629
#
# Compressibility (1/GPa) = 0.04762802
#
# Stress axis : x y z
#
# Youngs Moduli (GPa) = 21.73446 94.40571 25.60912
#
# Poissons Ratio (x) = 0.89759 0.50925
# Poissons Ratio (y) = 0.20665 -0.13782
# Poissons Ratio (z) = 0.43220 -0.50806
#
# Static dielectric constant tensor:
#      x y z
#    x 1.838120 0.000000 -0.004800 
#    y 0.000000 1.810910 0.000000 
#    z -0.004800 0.000000 1.828480 
# 
# From -- ./inp_files/80809.got.cif
#   From: 2010.05.17/outbox.cif.g08.bks.cpg/sg15_41_cif.got.tgz:80809.got - 2010.06.03 18:47:42.
