data_PCOD9260101
_publ_section_title
;
Structure prediction by ZEFSAII (Michael W. Deem and Ramdas Pophale) SiO2 
 PCOD9260101
Probable space group: C 2/C
;
_chemical_formula_sum "Si O2"
_cell_formula_units_Z 56
_cell_length_a 19.195072
_cell_length_b 14.099741
_cell_length_c 12.319792
_cell_angle_alpha 90.000000
_cell_angle_beta 114.145046
_cell_angle_gamma 90.000000
_cell_volume 3042.588730
_symmetry_space_group_name_H-M "C 2/C"
_symmetry_group_IT_number 15
_symmetry_cell_setting 'monoclinic'
loop_
_space_group_symop_operation_xyz
x,y,z
-x,y,1/2-z
-x,-y,-z
x,-y,1/2+z
1/2+x,1/2+y,z
1/2-x,1/2+y,1/2-z
1/2-x,1/2-y,-z
1/2+x,1/2-y,1/2+z
loop_
_atom_site_type_symbol
_atom_site_label
_atom_site_fract_x
_atom_site_fract_y
_atom_site_fract_z
Si Si1 0.678490 0.938670 0.412969
Si Si2 0.888735 0.443436 0.430736
Si Si3 0.359870 0.262214 0.374721
Si Si4 0.734169 0.554915 0.734146
Si Si5 0.414152 0.760897 0.158648
Si Si6 0.470706 0.114717 0.354649
Si Si7 0.281000 0.361569 0.654891
O O1 0.728156 0.986738 0.351875
O O2 0.612857 0.867726 0.332034
O O3 0.741489 0.872938 0.512106
O O4 0.640125 0.002654 0.479291
O O5 0.810556 0.398907 0.336187
O O6 0.922448 0.524169 0.370411
O O7 0.957924 0.379113 0.516138
O O8 0.331150 0.367807 0.327994
O O9 0.396782 0.255770 0.519342
O O10 0.419020 0.208363 0.333864
O O11 0.282815 0.198918 0.323597
O O12 0.709532 0.465959 0.790150
O O13 0.500000 0.747462 0.250000
O O14 0.359222 0.692314 0.190798
O O15 0.500000 0.100942 0.250000
#
# Coordination Sequence:
#
# PCOD9260101 Si02
#       7
#     8   8   8   8   8   8   8
#     4  10  18  36  62  88 118 149 193 258 301 349
#     4  10  22  35  60  93 119 156 201 239 320 355
#     4  11  21  40  59  89 123 160 196 250 301 355
#     4  11  20  35  67  84 119 163 198 243 295 357
#     4  11  21  36  64  90 120 149 204 257 296 353
#     4  11  22  38  56  89 134 151 188 255 309 362
#     4  10  20  39  57  91 116 152 207 241 294 357
#
# _framework density 18.405379
#
# number of rings (size 3 to 8) (size 9 to 14) (size 15 to 20)
#    0.000    1.429    7.143    1.714    2.000    0.571 
#    0.000    2.143    6.286    0.000    0.000    0.000 
#    0.000    0.000    0.000    0.000    0.000    0.000 
#
# Total GULP energy -156119.470218 kJ/mol
# GULP energy per Si atom -5575.695365 kJ/mol
# Density = 1.836349 g / cm^3
# Si number density = 18.405379 Si / 1000 Ang^3
#
#
#
# Elastic Constant Matrix: (Units=GPa)
#
#
# Indices 1 2 3 4 5 6 
#
# 1 113.2779 33.6984 46.4148 0.0000 7.4196 0.0000
# 2 33.6984 54.3028 31.4447 0.0000 6.8541 0.0000
# 3 46.4148 31.4447 58.8487 0.0000 2.1313 0.0000
# 4 0.0000 0.0000 0.0000 28.4515 0.0000 4.2965
# 5 7.4196 6.8541 2.1313 0.0000 32.2584 0.0000
# 6 0.0000 0.0000 0.0000 4.2965 0.0000 10.2149
#
#
#
# Elastic Compliance Matrix: (Units=1/GPa)
#
#
# Indices 1 2 3 4 5 6 
#
# 1 0.013524 -0.002920 -0.009037 0.000000 -0.001893 0.000000
# 2 -0.002920 0.028038 -0.012517 0.000000 -0.004459 0.000000
# 3 -0.009037 -0.012517 0.030711 0.000000 0.002709 0.000000
# 4 0.000000 0.000000 0.000000 0.037531 0.000000 -0.015786
# 5 -0.001893 -0.004459 0.002709 0.000000 0.032203 0.000000
# 6 0.000000 0.000000 0.000000 -0.015786 0.000000 0.104536
#
#
# Mechanical properties :
#
#
# Convention : Reuss Voigt Hill
#
# Bulk Modulus (GPa) = 42.87522 49.94945 46.41234
# Shear Modulus (GPa) = 16.48709 21.84305 19.16507
#
# Velocity S-wave (km/s) = 2.99620 3.44870 3.23038
# Velocity P-wave (km/s) = 5.94265 6.56166 6.25981
#
# Compressibility (1/GPa) = 0.02332349
#
# Stress axis : x y z
#
# Youngs Moduli (GPa) = 73.94534 35.66539 32.56183
#
# Poissons Ratio (x) = 0.10415 0.29427
# Poissons Ratio (y) = 0.21593 0.40758
# Poissons Ratio (z) = 0.66827 0.44643
#
# Static dielectric constant tensor:
#      x y z
#    x 1.651320 0.000000 -0.010350 
#    y 0.000000 1.620770 0.000000 
#    z -0.010350 0.000000 1.711950 
# 
# From -- ./inp_files/105435.got.cif
#   From: 2010.05.17/outbox.cif.g08.bks.cpg/sg15_53_cif.got.tgz:105435.got - 2010.06.03 18:47:42.
