data_PCOD9260270
_publ_section_title
;
Structure prediction by ZEFSAII (Michael W. Deem and Ramdas Pophale) SiO2 
 PCOD9260270
Probable space group: C 2/C
;
_chemical_formula_sum "Si O2"
_cell_formula_units_Z 48
_cell_length_a 13.246926
_cell_length_b 14.303354
_cell_length_c 16.443326
_cell_angle_alpha 90.000000
_cell_angle_beta 138.139348
_cell_angle_gamma 90.000000
_cell_volume 2079.110698
_symmetry_space_group_name_H-M "C 2/C"
_symmetry_group_IT_number 15
_symmetry_cell_setting 'monoclinic'
loop_
_space_group_symop_operation_xyz
x,y,z
-x,y,1/2-z
-x,-y,-z
x,-y,1/2+z
1/2+x,1/2+y,z
1/2-x,1/2+y,1/2-z
1/2-x,1/2-y,-z
1/2+x,1/2-y,1/2+z
loop_
_atom_site_type_symbol
_atom_site_label
_atom_site_fract_x
_atom_site_fract_y
_atom_site_fract_z
Si Si1 0.336382 0.320253 0.167073
Si Si2 0.140405 0.452490 0.690069
Si Si3 0.625119 0.321175 0.598030
Si Si4 0.308034 0.004762 0.472000
Si Si5 0.555542 0.627352 0.372898
Si Si6 0.092060 0.059558 0.639779
O O1 0.500000 0.275370 0.250000
O O2 0.186454 0.258098 0.075146
O O3 0.303691 0.414356 0.095753
O O4 0.357580 0.359331 0.270007
O O5 0.220352 0.357056 0.766172
O O6 0.162133 0.467627 0.605257
O O7 0.247585 0.527225 0.800528
O O8 0.966238 0.470274 0.602971
O O9 0.502565 0.298944 0.594979
O O10 0.537251 0.400339 0.494717
O O11 0.226724 0.091346 0.467307
O O12 0.500000 0.653459 0.250000
O O13 0.467048 0.532041 0.347370
#
# Coordination Sequence:
#
# PCOD9260270 Si02
#       6
#     8   8   8   8   8   8
#     4  11  22  39  61  93 129 169 198 263 333 375
#     4   9  19  35  59  91 113 163 213 258 296 369
#     4  11  24  34  59  96 134 155 206 269 323 363
#     4  10  18  36  67  87 117 162 223 248 297 386
#     4  11  17  39  65  87 116 174 214 246 301 390
#     4  10  20  40  59  87 126 161 208 266 309 368
#
# _framework density 23.086794000000001
#
# number of rings (size 3 to 8) (size 9 to 14) (size 15 to 20)
#    0.000    1.667    6.667    2.000    2.333    2.000 
#    0.000    2.500    0.000   16.000    0.000    0.000 
#    0.000    0.000    0.000    0.000    0.000    0.000 
#
# Total GULP energy -133764.604430 kJ/mol
# GULP energy per Si atom -5573.525185 kJ/mol
# Density = 2.303425 g / cm^3
# Si number density = 23.086794 Si / 1000 Ang^3
#
#
#
# Elastic Constant Matrix: (Units=GPa)
#
#
# Indices 1 2 3 4 5 6 
#
# 1 60.4131 5.5493 11.2951 0.0000 28.4458 0.0000
# 2 5.5493 24.5417 -4.7368 0.0000 7.8232 0.0000
# 3 11.2951 -4.7368 110.9707 0.0001 25.3991 0.0000
# 4 0.0000 0.0000 0.0001 13.3381 0.0000 5.1621
# 5 28.4458 7.8232 25.3991 0.0000 36.3297 0.0000
# 6 0.0000 0.0000 0.0000 5.1621 0.0000 32.1141
#
#
#
# Elastic Compliance Matrix: (Units=1/GPa)
#
#
# Indices 1 2 3 4 5 6 
#
# 1 0.026851 0.001874 0.002680 0.000000 -0.023301 0.000000
# 2 0.001874 0.046130 0.005224 0.000000 -0.015052 0.000000
# 3 0.002680 0.005224 0.011547 0.000000 -0.011296 0.000000
# 4 0.000000 0.000000 0.000000 0.079947 0.000000 -0.012851
# 5 -0.023301 -0.015052 -0.011296 0.000000 0.056909 0.000000
# 6 0.000000 0.000000 0.000000 -0.012851 0.000000 0.033205
#
#
# Mechanical properties :
#
#
# Convention : Reuss Voigt Hill
#
# Bulk Modulus (GPa) = 9.60774 24.46007 17.03391
# Shear Modulus (GPa) = 18.53716 28.61089 23.57402
#
# Velocity S-wave (km/s) = 2.83668 3.52415 3.19894
# Velocity P-wave (km/s) = 3.86000 5.21319 4.58677
#
# Compressibility (1/GPa) = 0.10408275
#
# Stress axis : x y z
#
# Youngs Moduli (GPa) = 37.24245 21.67796 86.60202
#
# Poissons Ratio (x) = -0.04062 -0.23211
# Poissons Ratio (y) = -0.06978 -0.45237
# Poissons Ratio (z) = -0.09982 -0.11324
#
# Static dielectric constant tensor:
#      x y z
#    x 1.960450 0.000000 0.009540 
#    y 0.000000 1.932390 0.000000 
#    z 0.009540 0.000000 1.874170 
# 
# From -- ./inp_files/204672.got.cif
#   From: 2010.05.17/outbox.cif.g08.bks.cpg/sg15_103_cif.got.tgz:204672.got - 2010.06.03 18:47:42.
