data_PCOD9260573
_publ_section_title
;
Structure prediction by ZEFSAII (Michael W. Deem and Ramdas Pophale) SiO2 
 PCOD9260573
Probable space group: C 2/C
;
_chemical_formula_sum "Si O2"
_cell_formula_units_Z 40
_cell_length_a 7.276001
_cell_length_b 17.075844
_cell_length_c 14.306494
_cell_angle_alpha 90.000000
_cell_angle_beta 114.615240
_cell_angle_gamma 90.000000
_cell_volume 1615.964865
_symmetry_space_group_name_H-M "C 2/C"
_symmetry_group_IT_number 15
_symmetry_cell_setting 'monoclinic'
loop_
_space_group_symop_operation_xyz
x,y,z
-x,y,1/2-z
-x,-y,-z
x,-y,1/2+z
1/2+x,1/2+y,z
1/2-x,1/2+y,1/2-z
1/2-x,1/2-y,-z
1/2+x,1/2-y,1/2+z
loop_
_atom_site_type_symbol
_atom_site_label
_atom_site_fract_x
_atom_site_fract_y
_atom_site_fract_z
Si Si1 0.762378 0.214576 0.725757
Si Si2 0.795809 0.134161 0.922931
Si Si3 0.653351 0.036390 0.367643
Si Si4 0.487528 0.630431 0.354094
Si Si5 0.257471 0.841940 0.468592
O O1 0.717419 0.190880 0.823262
O O2 0.665709 0.297353 0.682647
O O3 0.682453 0.157066 0.627346
O O4 0.000000 0.219772 0.750000
O O5 0.028157 0.127447 0.933646
O O6 0.673815 0.053666 0.898577
O O7 0.829963 0.156773 0.039132
O O8 0.500000 0.046346 0.250000
O O9 0.876657 0.058538 0.379198
O O10 0.609988 0.100263 0.439371
O O11 0.500000 0.606920 0.250000
O O12 0.250000 0.750000 0.500000
#
# Coordination Sequence:
#
# PCOD9260573 Si02
#       5
#     8   8   8   8   8
#     4  10  21  38  67  95 125 170 221 268 324 402
#     4  10  23  40  62  97 139 166 218 283 335 384
#     4  11  24  42  67  94 137 175 223 273 334 399
#     4  11  23  39  64  94 130 171 220 274 333 387
#     4  10  18  37  70  99 122 169 232 275 316 393
#
# _framework density 24.753011000000001
#
# number of rings (size 3 to 8) (size 9 to 14) (size 15 to 20)
#    0.000    1.600    4.000    3.000    2.800    5.600 
#    0.000    4.000    0.000    0.000    0.000    0.000 
#    0.000    0.000    0.000    0.000    0.000    0.000 
#
# Total GULP energy -111695.535627 kJ/mol
# GULP energy per Si atom -5584.776781 kJ/mol
# Density = 2.469667 g / cm^3
# Si number density = 24.753011 Si / 1000 Ang^3
#
#
#
# Elastic Constant Matrix: (Units=GPa)
#
#
# Indices 1 2 3 4 5 6 
#
# 1 36.7646 26.8599 18.2306 0.0000 -9.8523 0.0000
# 2 26.8599 131.2924 54.5076 0.0000 12.2993 0.0000
# 3 18.2306 54.5076 182.5953 0.0000 -5.5658 0.0000
# 4 0.0000 0.0000 0.0000 40.9414 0.0000 12.0899
# 5 -9.8523 12.2993 -5.5658 0.0000 47.8970 0.0000
# 6 0.0000 0.0000 0.0000 12.0899 0.0000 27.0962
#
#
#
# Elastic Compliance Matrix: (Units=1/GPa)
#
#
# Indices 1 2 3 4 5 6 
#
# 1 0.035865 -0.007803 -0.000969 0.000000 0.009269 0.000000
# 2 -0.007803 0.010712 -0.002560 0.000000 -0.004653 0.000000
# 3 -0.000969 -0.002560 0.006374 0.000000 0.001199 0.000000
# 4 0.000000 0.000000 0.000000 0.028132 0.000000 -0.012552
# 5 0.009269 -0.004653 0.001199 0.000000 0.024119 0.000000
# 6 0.000000 0.000000 0.000000 -0.012552 0.000000 0.042506
#
#
# Mechanical properties :
#
#
# Convention : Reuss Voigt Hill
#
# Bulk Modulus (GPa) = 33.01842 61.09429 47.05635
# Shear Modulus (GPa) = 27.70558 39.92387 33.81473
#
# Velocity S-wave (km/s) = 3.34920 4.02044 3.70007
# Velocity P-wave (km/s) = 5.32205 6.80346 6.10783
#
# Compressibility (1/GPa) = 0.03028613
#
# Stress axis : x y z
#
# Youngs Moduli (GPa) = 27.88197 93.35394 156.88251
#
# Poissons Ratio (x) = 0.72848 0.15200
# Poissons Ratio (y) = 0.21757 0.40168
# Poissons Ratio (z) = 0.02701 0.23902
#
# Static dielectric constant tensor:
#      x y z
#    x 2.069210 0.000000 -0.038700 
#    y 0.000000 1.918730 0.000000 
#    z -0.038700 0.000000 2.149890 
# 
# From -- ./inp_files/134625.got.cif
#   From: 2010.05.17/outbox.cif.g08.bks.cpg/sg15_68_cif.got.tgz:134625.got - 2010.06.03 18:47:42.
