data_PCOD9260989
_publ_section_title
;
Structure prediction by ZEFSAII (Michael W. Deem and Ramdas Pophale) SiO2 
 PCOD9260989
Probable space group: C 2/C
;
_chemical_formula_sum "Si O2"
_cell_formula_units_Z 36
_cell_length_a 8.159873
_cell_length_b 20.926171
_cell_length_c 18.795759
_cell_angle_alpha 90.000000
_cell_angle_beta 35.142330
_cell_angle_gamma 90.000000
_cell_volume 1847.400352
_symmetry_space_group_name_H-M "C 2/C"
_symmetry_group_IT_number 15
_symmetry_cell_setting 'monoclinic'
loop_
_space_group_symop_operation_xyz
x,y,z
-x,y,1/2-z
-x,-y,-z
x,-y,1/2+z
1/2+x,1/2+y,z
1/2-x,1/2+y,1/2-z
1/2-x,1/2-y,-z
1/2+x,1/2-y,1/2+z
loop_
_atom_site_type_symbol
_atom_site_label
_atom_site_fract_x
_atom_site_fract_y
_atom_site_fract_z
Si Si1 0.787187 0.332177 0.267786
Si Si2 0.661796 0.082773 0.377134
Si Si3 0.500000 0.242935 0.250000
Si Si4 0.751507 0.818564 0.538923
Si Si5 0.345710 0.063786 0.638179
O O1 0.664161 0.286048 0.249823
O O2 0.521854 0.353890 0.410392
O O3 0.918555 0.391848 0.179164
O O4 0.000000 0.301706 0.250000
O O5 0.518203 0.139111 0.384270
O O6 0.522781 0.085633 0.505674
O O7 0.000000 0.089283 0.250000
O O8 0.592747 0.011216 0.374074
O O9 0.267599 0.199672 0.372239
O O10 0.750000 0.750000 0.500000
O O11 0.000000 0.070495 0.750000
#
# Coordination Sequence:
#
# PCOD9260989 Si02
#       5
#     8   8   4   8   8
#     4  11  22  39  65  92 120 174 219 256 328 386
#     4  10  21  35  66  98 125 172 215 261 325 380
#     4  10  22  40  62  88 132 166 212 280 312 374
#     4  10  21  39  60  89 129 168 215 266 312 387
#     4  10  18  39  65  90 133 170 209 265 321 386
#
# _framework density 19.486841999999999
#
# number of rings (size 3 to 8) (size 9 to 14) (size 15 to 20)
#    0.000    1.778    3.333    1.333    0.000    6.222 
#    2.000    1.111    0.000    0.000    0.000    0.000 
#    0.000    0.000    0.000    0.000    0.000    0.000 
#
# Total GULP energy -100304.929383 kJ/mol
# GULP energy per Si atom -5572.496077 kJ/mol
# Density = 1.944249 g / cm^3
# Si number density = 19.486842 Si / 1000 Ang^3
#
#
#
# Elastic Constant Matrix: (Units=GPa)
#
#
# Indices 1 2 3 4 5 6 
#
# 1 102.5988 45.7469 37.5759 -0.0001 7.9644 0.0001
# 2 45.7469 76.4544 35.2989 0.0000 11.6332 0.0000
# 3 37.5759 35.2989 137.4610 0.0001 24.6643 0.0000
# 4 -0.0001 0.0000 0.0001 30.2045 0.0001 2.3115
# 5 7.9644 11.6332 24.6643 0.0001 30.3945 -0.0001
# 6 0.0001 0.0000 0.0000 2.3115 -0.0001 19.7258
#
#
#
# Elastic Compliance Matrix: (Units=1/GPa)
#
#
# Indices 1 2 3 4 5 6 
#
# 1 0.013719 -0.007417 -0.002001 0.000000 0.000868 0.000000
# 2 -0.007417 0.019091 -0.002238 0.000000 -0.003547 0.000000
# 3 -0.002001 -0.002238 0.009538 0.000000 -0.006358 0.000000
# 4 0.000000 0.000000 0.000000 0.033407 0.000000 -0.003915
# 5 0.000868 -0.003547 -0.006358 0.000000 0.039190 0.000000
# 6 0.000000 0.000000 0.000000 -0.003915 0.000000 0.051154
#
#
# Mechanical properties :
#
#
# Convention : Reuss Voigt Hill
#
# Bulk Modulus (GPa) = 52.53756 61.52861 57.03308
# Shear Modulus (GPa) = 25.54172 29.25779 27.39975
#
# Velocity S-wave (km/s) = 3.62431 3.87901 3.75382
# Velocity P-wave (km/s) = 6.67332 7.19064 6.93680
#
# Compressibility (1/GPa) = 0.01903400
#
# Stress axis : x y z
#
# Youngs Moduli (GPa) = 72.88897 52.38076 104.84874
#
# Poissons Ratio (x) = 0.38852 0.20984
# Poissons Ratio (y) = 0.54063 0.23470
# Poissons Ratio (z) = 0.14588 0.11725
#
# Static dielectric constant tensor:
#      x y z
#    x 1.707030 0.000000 -0.017270 
#    y 0.000000 1.696210 0.000000 
#    z -0.017270 0.000000 1.745340 
# 
# From -- ./inp_files/76461.got.cif
#   From: 2010.05.17/outbox.cif.g08.bks.cpg/sg15_39_cif.got.tgz:76461.got - 2010.06.03 18:47:42.
