data_PCOD9260358
_publ_section_title
;
Structure prediction by ZEFSAII (Michael W. Deem and Ramdas Pophale) SiO2 
 PCOD9260358
Probable space group: C 2/C
;
_chemical_formula_sum "Si O2"
_cell_formula_units_Z 48
_cell_length_a 10.107291
_cell_length_b 10.090761
_cell_length_c 21.858465
_cell_angle_alpha 90.000000
_cell_angle_beta 121.496126
_cell_angle_gamma 90.000000
_cell_volume 1900.912515
_symmetry_space_group_name_H-M "C 2/C"
_symmetry_group_IT_number 15
_symmetry_cell_setting 'monoclinic'
loop_
_space_group_symop_operation_xyz
x,y,z
-x,y,1/2-z
-x,-y,-z
x,-y,1/2+z
1/2+x,1/2+y,z
1/2-x,1/2+y,1/2-z
1/2-x,1/2-y,-z
1/2+x,1/2-y,1/2+z
loop_
_atom_site_type_symbol
_atom_site_label
_atom_site_fract_x
_atom_site_fract_y
_atom_site_fract_z
Si Si1 0.473064 0.172113 0.920391
Si Si2 0.753401 0.106681 0.786929
Si Si3 0.425230 0.997361 0.152898
Si Si4 0.899600 0.154123 0.286426
Si Si5 0.663043 0.732461 0.893106
Si Si6 0.536433 0.642072 0.980815
O O1 0.469115 0.284704 0.865979
O O2 0.290020 0.141090 0.890187
O O3 0.541704 0.240792 0.997760
O O4 0.560752 0.046600 0.914548
O O5 0.718469 0.079252 0.850022
O O6 0.587470 0.057381 0.718058
O O7 0.870081 0.999986 0.788557
O O8 0.753264 0.258113 0.765889
O O9 0.411290 0.151730 0.164501
O O10 0.000000 0.173713 0.250000
O O11 0.783181 0.828154 0.959114
O O12 0.540706 0.665340 0.909114
O O13 0.500000 0.500000 0.000000
#
# Coordination Sequence:
#
# PCOD9260358 Si02
#       6
#     8   8   8   8   8   8
#     4   9  18  36  59  77 113 147 180 229 286 321
#     4  10  20  37  59  82 122 148 195 227 288 342
#     4  10  18  37  59  81 113 153 182 234 279 342
#     4  11  20  40  56  85 117 157 182 237 284 338
#     4   9  19  37  58  76 113 144 182 235 282 322
#     4   9  19  39  57  81 110 145 188 236 280 332
#
# _framework density 25.251031000000001
#
# number of rings (size 3 to 8) (size 9 to 14) (size 15 to 20)
#    1.000    1.333    5.000    0.000    0.000    0.667 
#   15.000    0.833    0.000    0.000    0.000    0.000 
#    0.000    0.000    0.000    0.000    0.000    0.000 
#
# Total GULP energy -133796.760276 kJ/mol
# GULP energy per Si atom -5574.865012 kJ/mol
# Density = 2.519356 g / cm^3
# Si number density = 25.251031 Si / 1000 Ang^3
#
#
#
# Elastic Constant Matrix: (Units=GPa)
#
#
# Indices 1 2 3 4 5 6 
#
# 1 74.2481 32.4955 8.5718 0.0000 -38.0506 0.0000
# 2 32.4955 83.0365 22.5369 0.0000 -14.4753 0.0000
# 3 8.5718 22.5369 59.4507 0.0000 -28.1213 0.0000
# 4 0.0000 0.0000 0.0000 32.5368 0.0000 -10.3835
# 5 -38.0506 -14.4753 -28.1213 0.0000 38.9062 0.0000
# 6 0.0000 0.0000 0.0000 -10.3835 0.0000 54.9039
#
#
#
# Elastic Compliance Matrix: (Units=1/GPa)
#
#
# Indices 1 2 3 4 5 6 
#
# 1 0.050089 -0.016384 0.029292 0.000000 0.064064 0.000000
# 2 -0.016384 0.018887 -0.013756 0.000000 -0.018940 0.000000
# 3 0.029292 -0.013756 0.043978 0.000000 0.055318 0.000000
# 4 0.000000 0.000000 0.000000 0.032709 0.000000 0.006186
# 5 0.064064 -0.018940 0.055318 0.000000 0.121295 0.000000
# 6 0.000000 0.000000 0.000000 0.006186 0.000000 0.019384
#
#
# Mechanical properties :
#
#
# Convention : Reuss Voigt Hill
#
# Bulk Modulus (GPa) = 8.98813 38.21595 23.60204
# Shear Modulus (GPa) = 15.37885 35.47811 25.42848
#
# Velocity S-wave (km/s) = 2.47055 3.75242 3.17681
# Velocity P-wave (km/s) = 3.42131 5.82593 4.77739
#
# Compressibility (1/GPa) = 0.11125791
#
# Stress axis : x y z
#
# Youngs Moduli (GPa) = 19.96459 52.94785 22.73850
#
# Poissons Ratio (x) = 0.86750 -0.66607
# Poissons Ratio (y) = 0.32710 0.31280
# Poissons Ratio (z) = -0.58481 0.72836
#
# Static dielectric constant tensor:
#      x y z
#    x 2.020030 0.000000 0.063950 
#    y 0.000000 2.009360 0.000000 
#    z 0.063950 0.000000 2.292630 
# 
# From -- ./inp_files/290869.got.cif
#   From: 2010.05.17/outbox.cif.g08.bks.cpg/sg15_146_cif.got.tgz:290869.got - 2010.06.03 18:47:42.
