data_PCOD9260349
_publ_section_title
;
Structure prediction by ZEFSAII (Michael W. Deem and Ramdas Pophale) SiO2 
 PCOD9260349
Probable space group: C 2/C
;
_chemical_formula_sum "Si O2"
_cell_formula_units_Z 56
_cell_length_a 16.019601
_cell_length_b 12.270671
_cell_length_c 20.740362
_cell_angle_alpha 90.000000
_cell_angle_beta 132.567306
_cell_angle_gamma 90.000000
_cell_volume 3002.611797
_symmetry_space_group_name_H-M "C 2/C"
_symmetry_group_IT_number 15
_symmetry_cell_setting 'monoclinic'
loop_
_space_group_symop_operation_xyz
x,y,z
-x,y,1/2-z
-x,-y,-z
x,-y,1/2+z
1/2+x,1/2+y,z
1/2-x,1/2+y,1/2-z
1/2-x,1/2-y,-z
1/2+x,1/2-y,1/2+z
loop_
_atom_site_type_symbol
_atom_site_label
_atom_site_fract_x
_atom_site_fract_y
_atom_site_fract_z
Si Si1 0.405542 0.125089 0.565416
Si Si2 0.862556 0.529963 0.672463
Si Si3 0.782323 0.625554 0.368928
Si Si4 0.614520 0.208825 0.350159
Si Si5 0.649186 0.197897 0.726514
Si Si6 0.221816 0.369590 0.129248
Si Si7 0.477910 0.879703 0.567278
O O1 0.337589 0.101338 0.595907
O O2 0.327013 0.156152 0.464060
O O3 0.515336 0.197912 0.639065
O O4 0.458125 0.005986 0.575307
O O5 0.828374 0.405034 0.643593
O O6 0.824366 0.590436 0.716706
O O7 0.000000 0.526636 0.750000
O O8 0.685147 0.700951 0.289212
O O9 0.751298 0.497735 0.352860
O O10 0.891584 0.639112 0.379490
O O11 0.500000 0.224121 0.250000
O O12 0.696635 0.307875 0.377574
O O13 0.574951 0.190531 0.402688
O O14 0.719832 0.186978 0.697692
O O15 0.095034 0.361117 0.034756
#
# Coordination Sequence:
#
# PCOD9260349 Si02
#       7
#     8   8   8   8   8   8   8
#     4   9  17  37  56  79 108 145 198 240 269 338
#     4   8  18  33  56  79 107 149 198 235 271 334
#     4  11  21  34  59  84 113 149 189 236 292 341
#     4  10  20  34  58  85 114 145 189 241 286 337
#     4  11  20  32  55  83 110 148 188 235 283 339
#     4  11  21  34  57  86 115 145 193 240 287 340
#     4  10  18  37  58  83 110 146 195 241 282 333
#
# _framework density 18.650431000000001
#
# number of rings (size 3 to 8) (size 9 to 14) (size 15 to 20)
#    0.000    2.000    2.857    3.000    2.000    0.571 
#    0.000    2.143    0.000    5.143    0.000    0.000 
#    0.000    0.000    0.000    0.000    0.000    0.000 
#
# Total GULP energy -156223.680509 kJ/mol
# GULP energy per Si atom -5579.417161 kJ/mol
# Density = 1.860798 g / cm^3
# Si number density = 18.650431 Si / 1000 Ang^3
#
#
#
# Elastic Constant Matrix: (Units=GPa)
#
#
# Indices 1 2 3 4 5 6 
#
# 1 52.4177 32.0045 17.8385 0.0000 -12.6673 0.0000
# 2 32.0045 89.4727 42.6130 0.0000 3.0274 0.0000
# 3 17.8385 42.6130 107.8618 0.0000 -14.8515 0.0000
# 4 0.0000 0.0000 0.0000 23.5841 0.0000 -4.2231
# 5 -12.6673 3.0274 -14.8515 0.0000 26.6158 0.0000
# 6 0.0000 0.0000 0.0000 -4.2231 0.0000 24.6090
#
#
#
# Elastic Compliance Matrix: (Units=1/GPa)
#
#
# Indices 1 2 3 4 5 6 
#
# 1 0.029943 -0.012360 0.002260 0.000000 0.016918 0.000000
# 2 -0.012360 0.019507 -0.007342 0.000000 -0.012198 0.000000
# 3 0.002260 -0.007342 0.013065 0.000000 0.009201 0.000000
# 4 0.000000 0.000000 0.000000 0.043746 0.000000 0.007507
# 5 0.016918 -0.012198 0.009201 0.000000 0.052145 0.000000
# 6 0.000000 0.000000 0.000000 0.007507 0.000000 0.041924
#
#
# Mechanical properties :
#
#
# Convention : Reuss Voigt Hill
#
# Bulk Modulus (GPa) = 36.18980 48.29602 42.24291
# Shear Modulus (GPa) = 20.45631 25.44821 22.95226
#
# Velocity S-wave (km/s) = 3.31543 3.69790 3.51188
# Velocity P-wave (km/s) = 5.83974 6.64712 6.25647
#
# Compressibility (1/GPa) = 0.02763210
#
# Stress axis : x y z
#
# Youngs Moduli (GPa) = 33.39670 51.26308 76.54113
#
# Poissons Ratio (x) = 0.63359 -0.17300
# Poissons Ratio (y) = 0.41277 0.56198
# Poissons Ratio (z) = -0.07548 0.37638
#
# Static dielectric constant tensor:
#      x y z
#    x 1.668340 0.000000 -0.032470 
#    y 0.000000 1.647880 0.000000 
#    z -0.032470 0.000000 1.677930 
# 
# From -- ./inp_files/248419.got.cif
#   From: 2010.05.17/outbox.cif.g08.bks.cpg/sg15_125_cif.got.tgz:248419.got - 2010.06.03 18:47:42.
