data_PCOD9260194
_publ_section_title
;
Structure prediction by ZEFSAII (Michael W. Deem and Ramdas Pophale) SiO2 
 PCOD9260194
Probable space group: C 2/C
;
_chemical_formula_sum "Si O2"
_cell_formula_units_Z 44
_cell_length_a 14.747131
_cell_length_b 9.697871
_cell_length_c 17.269142
_cell_angle_alpha 90.000000
_cell_angle_beta 48.643932
_cell_angle_gamma 90.000000
_cell_volume 1853.845885
_symmetry_space_group_name_H-M "C 2/C"
_symmetry_group_IT_number 15
_symmetry_cell_setting 'monoclinic'
loop_
_space_group_symop_operation_xyz
x,y,z
-x,y,1/2-z
-x,-y,-z
x,-y,1/2+z
1/2+x,1/2+y,z
1/2-x,1/2+y,1/2-z
1/2-x,1/2-y,-z
1/2+x,1/2-y,1/2+z
loop_
_atom_site_type_symbol
_atom_site_label
_atom_site_fract_x
_atom_site_fract_y
_atom_site_fract_z
Si Si1 0.778610 0.326616 0.676718
Si Si2 0.881266 0.773276 0.967676
Si Si3 0.362135 0.155125 0.465047
Si Si4 0.620325 0.864107 0.366184
Si Si5 0.500000 0.731048 0.750000
Si Si6 0.157244 0.981163 0.621046
O O1 0.854055 0.232432 0.574405
O O2 0.725859 0.234074 0.774209
O O3 0.667054 0.374268 0.685038
O O4 0.843152 0.473657 0.659325
O O5 0.750000 0.750000 0.000000
O O6 0.996020 0.672704 0.892392
O O7 0.915706 0.921024 0.910116
O O8 0.250000 0.250000 0.500000
O O9 0.398911 0.177032 0.532958
O O10 0.468454 0.178411 0.343225
O O11 0.291746 0.011339 0.512789
O O12 0.608291 0.620035 0.687760
#
# Coordination Sequence:
#
# PCOD9260194 Si02
#       6
#     8   8   8   8   4   8
#     4  10  23  42  67 101 139 180 228 289 350 409
#     4  10  22  42  67  96 134 179 229 284 341 412
#     4   9  21  38  58  92 132 173 225 279 338 405
#     4  11  23  42  69 103 140 182 233 288 349 418
#     4  10  18  36  64  88 130 182 222 282 344 396
#     4   9  19  39  62  95 132 176 231 278 333 412
#
# _framework density 23.734442999999999
#
# number of rings (size 3 to 8) (size 9 to 14) (size 15 to 20)
#    0.000    2.182    0.000    1.636    0.000    9.455 
#    0.000   10.909    0.000    3.273    0.000    0.000 
#    0.000    0.000    0.000    0.000    0.000    0.000 
#
# Total GULP energy -122478.471686 kJ/mol
# GULP energy per Si atom -5567.203258 kJ/mol
# Density = 2.368042 g / cm^3
# Si number density = 23.734443 Si / 1000 Ang^3
#
#
#
# Elastic Constant Matrix: (Units=GPa)
#
#
# Indices 1 2 3 4 5 6 
#
# 1 106.6313 68.2658 62.4466 0.0000 0.3461 0.0000
# 2 68.2658 92.5107 86.2730 0.0000 18.5210 0.0000
# 3 62.4466 86.2730 200.6782 0.0000 17.6563 0.0000
# 4 0.0000 0.0000 0.0000 45.1974 0.0000 3.2197
# 5 0.3461 18.5210 17.6563 0.0000 34.2372 0.0000
# 6 0.0000 0.0000 0.0000 3.2197 0.0000 45.9479
#
#
#
# Elastic Compliance Matrix: (Units=1/GPa)
#
#
# Indices 1 2 3 4 5 6 
#
# 1 0.019828 -0.016524 0.000173 0.000000 0.008649 0.000000
# 2 -0.016524 0.033089 -0.007881 0.000000 -0.013669 0.000000
# 3 0.000173 -0.007881 0.008320 0.000000 -0.000029 0.000000
# 4 0.000000 0.000000 0.000000 0.022236 0.000000 -0.001558
# 5 0.008649 -0.013669 -0.000029 0.000000 0.036530 0.000000
# 6 0.000000 0.000000 0.000000 -0.001558 0.000000 0.021873
#
#
# Mechanical properties :
#
#
# Convention : Reuss Voigt Hill
#
# Bulk Modulus (GPa) = 78.29214 92.64343 85.46779
# Shear Modulus (GPa) = 25.69423 37.26547 31.47985
#
# Velocity S-wave (km/s) = 3.29382 3.96675 3.64584
# Velocity P-wave (km/s) = 6.89376 7.75230 7.33560
#
# Compressibility (1/GPa) = 0.01277267
#
# Stress axis : x y z
#
# Youngs Moduli (GPa) = 50.43485 30.22167 120.19566
#
# Poissons Ratio (x) = 0.49939 -0.02079
# Poissons Ratio (y) = 0.83339 0.94721
# Poissons Ratio (z) = -0.00872 0.23816
#
# Static dielectric constant tensor:
#      x y z
#    x 2.030080 0.000000 -0.059860 
#    y 0.000000 2.588320 0.000000 
#    z -0.059860 0.000000 1.990670 
# 
# From -- ./inp_files/204949.got.cif
#   From: 2010.05.17/outbox.cif.g08.bks.cpg/sg15_103_cif.got.tgz:204949.got - 2010.06.03 18:47:42.
