data_PCOD9260175
_publ_section_title
;
Structure prediction by ZEFSAII (Michael W. Deem and Ramdas Pophale) SiO2 
 PCOD9260175
Probable space group: C 2/C
;
_chemical_formula_sum "Si O2"
_cell_formula_units_Z 60
_cell_length_a 15.803618
_cell_length_b 14.100418
_cell_length_c 20.293140
_cell_angle_alpha 90.000000
_cell_angle_beta 137.439672
_cell_angle_gamma 90.000000
_cell_volume 3058.578371
_symmetry_space_group_name_H-M "C 2/C"
_symmetry_group_IT_number 15
_symmetry_cell_setting 'monoclinic'
loop_
_space_group_symop_operation_xyz
x,y,z
-x,y,1/2-z
-x,-y,-z
x,-y,1/2+z
1/2+x,1/2+y,z
1/2-x,1/2+y,1/2-z
1/2-x,1/2-y,-z
1/2+x,1/2-y,1/2+z
loop_
_atom_site_type_symbol
_atom_site_label
_atom_site_fract_x
_atom_site_fract_y
_atom_site_fract_z
Si Si1 0.800174 0.852889 0.885586
Si Si2 0.814124 0.410220 0.547951
Si Si3 0.284380 0.952759 0.218275
Si Si4 0.144866 0.018976 0.842193
Si Si5 0.880146 0.444321 0.901734
Si Si6 0.500000 0.971583 0.250000
Si Si7 0.149000 0.814984 0.239258
Si Si8 0.528894 0.771984 0.948932
O O1 0.741989 0.848594 0.925387
O O2 0.718626 0.783233 0.794016
O O3 0.796793 0.961865 0.861021
O O4 0.929296 0.799029 0.970087
O O5 0.699985 0.466730 0.447494
O O6 0.923404 0.467767 0.650276
O O7 0.873525 0.348957 0.523143
O O8 0.388789 0.919992 0.225681
O O9 0.208912 0.871015 0.211911
O O10 0.355019 0.006592 0.317672
O O11 0.150032 0.116847 0.802781
O O12 0.000000 0.986525 0.750000
O O13 0.252753 0.955730 0.869790
O O14 0.917798 0.336170 0.913165
O O15 0.000000 0.500000 0.000000
O O16 0.011187 0.787554 0.137676
#
# Coordination Sequence:
#
# PCOD9260175 Si02
#       8
#     8   8   8   8   8   4   8   8
#     4  11  22  35  57  89 124 155 197 254 308 367
#     4  11  20  35  58  94 126 153 199 252 322 372
#     4  10  21  38  55  86 121 158 202 256 310 367
#     4  11  23  37  58  94 131 164 200 253 317 374
#     4  11  19  38  62  87 120 167 214 247 298 366
#     4  10  18  36  64  80 114 164 212 260 300 364
#     4  11  23  36  58  86 125 160 199 248 313 366
#     4  12  20  35  59  86 122 163 203 253 298 368
#
# _framework density 19.616956999999999
#
# number of rings (size 3 to 8) (size 9 to 14) (size 15 to 20)
#    0.000    1.067    5.333    2.800    1.867    0.533 
#    0.000    1.333    1.467    0.000    0.000    9.333 
#    0.000    0.000    0.000    0.000    0.000    0.000 
#
# Total GULP energy -167174.631700 kJ/mol
# GULP energy per Si atom -5572.487723 kJ/mol
# Density = 1.957231 g / cm^3
# Si number density = 19.616957 Si / 1000 Ang^3
#
#
#
# Elastic Constant Matrix: (Units=GPa)
#
#
# Indices 1 2 3 4 5 6 
#
# 1 87.0039 36.5719 21.1005 0.0000 7.2941 0.0000
# 2 36.5719 31.6600 14.8760 0.0000 3.7955 0.0000
# 3 21.1005 14.8760 129.8960 0.0000 0.6875 0.0000
# 4 0.0000 0.0000 0.0000 21.7782 0.0000 0.3812
# 5 7.2941 3.7955 0.6875 0.0000 27.0990 0.0000
# 6 0.0000 0.0000 0.0000 0.3812 0.0000 26.2344
#
#
#
# Elastic Compliance Matrix: (Units=1/GPa)
#
#
# Indices 1 2 3 4 5 6 
#
# 1 0.022569 -0.025423 -0.000741 0.000000 -0.002495 0.000000
# 2 -0.025423 0.062598 -0.003029 0.000000 -0.001848 0.000000
# 3 -0.000741 -0.003029 0.008164 0.000000 0.000417 0.000000
# 4 0.000000 0.000000 0.000000 0.045929 0.000000 -0.000667
# 5 -0.002495 -0.001848 0.000417 0.000000 0.037822 0.000000
# 6 0.000000 0.000000 0.000000 -0.000667 0.000000 0.038128
#
#
# Mechanical properties :
#
#
# Convention : Reuss Voigt Hill
#
# Bulk Modulus (GPa) = 28.61815 43.73963 36.17889
# Shear Modulus (GPa) = 17.52879 26.75643 22.14261
#
# Velocity S-wave (km/s) = 2.99248 3.69717 3.36333
# Velocity P-wave (km/s) = 5.15364 6.36951 5.79356
#
# Compressibility (1/GPa) = 0.03494286
#
# Stress axis : x y z
#
# Youngs Moduli (GPa) = 44.30779 15.97494 122.49459
#
# Poissons Ratio (x) = 0.40614 0.09083
# Poissons Ratio (y) = 1.12645 0.37107
# Poissons Ratio (z) = 0.03285 0.04839
#
# Static dielectric constant tensor:
#      x y z
#    x 1.741430 0.000000 0.025930 
#    y 0.000000 1.701910 0.000000 
#    z 0.025930 0.000000 1.801080 
# 
# From -- ./inp_files/244703.got.cif
#   From: 2010.05.17/outbox.cif.g08.bks.cpg/sg15_123_cif.got.tgz:244703.got - 2010.06.03 18:47:42.
