data_PCOD9260179
_publ_section_title
;
Structure prediction by ZEFSAII (Michael W. Deem and Ramdas Pophale) SiO2 
 PCOD9260179
Probable space group: C 2/C
;
_chemical_formula_sum "Si O2"
_cell_formula_units_Z 44
_cell_length_a 7.661159
_cell_length_b 19.918936
_cell_length_c 17.490040
_cell_angle_alpha 90.000000
_cell_angle_beta 130.868099
_cell_angle_gamma 90.000000
_cell_volume 2018.358770
_symmetry_space_group_name_H-M "C 2/C"
_symmetry_group_IT_number 15
_symmetry_cell_setting 'monoclinic'
loop_
_space_group_symop_operation_xyz
x,y,z
-x,y,1/2-z
-x,-y,-z
x,-y,1/2+z
1/2+x,1/2+y,z
1/2-x,1/2+y,1/2-z
1/2-x,1/2-y,-z
1/2+x,1/2-y,1/2+z
loop_
_atom_site_type_symbol
_atom_site_label
_atom_site_fract_x
_atom_site_fract_y
_atom_site_fract_z
Si Si1 0.819328 0.440620 0.431553
Si Si2 0.218888 0.257849 0.769531
Si Si3 0.500000 0.520375 0.250000
Si Si4 0.018181 0.373153 0.336865
Si Si5 0.121221 0.178539 0.459906
Si Si6 0.365751 0.129026 0.376987
O O1 0.574173 0.474191 0.343240
O O2 0.894167 0.408259 0.372497
O O3 0.000000 0.500000 0.500000
O O4 0.880596 0.390090 0.518249
O O5 0.386151 0.198330 0.791537
O O6 0.356664 0.304463 0.869719
O O7 0.146705 0.305902 0.679458
O O8 0.000000 0.228112 0.750000
O O9 0.721842 0.567953 0.297595
O O10 0.000000 0.407883 0.250000
O O11 0.281643 0.361062 0.439615
O O12 0.250000 0.250000 0.500000
O O13 0.217088 0.143323 0.411039
#
# Coordination Sequence:
#
# PCOD9260179 Si02
#       6
#     8   8   4   8   8   8
#     4   9  21  38  63  90 113 165 208 247 289 365
#     4  11  21  34  58  96 126 155 195 260 308 356
#     4  10  18  36  64  82 116 160 206 244 292 354
#     4  10  21  39  61  88 124 160 201 245 308 370
#     4   9  17  34  57  82 115 161 194 233 302 375
#     4  10  18  37  63  84 117 163 204 239 306 367
#
# _framework density 21.799890999999999
#
# number of rings (size 3 to 8) (size 9 to 14) (size 15 to 20)
#    0.000    2.182    1.818    2.182    1.273    0.000 
#    3.273   12.727    0.000    4.364    0.000    0.000 
#    0.000    0.000    0.000    0.000    0.000    0.000 
#
# Total GULP energy -122659.758134 kJ/mol
# GULP energy per Si atom -5575.443552 kJ/mol
# Density = 2.175027 g / cm^3
# Si number density = 21.799891 Si / 1000 Ang^3
#
#
#
# Elastic Constant Matrix: (Units=GPa)
#
#
# Indices 1 2 3 4 5 6 
#
# 1 42.1069 4.6037 28.9841 0.0000 2.7193 0.0000
# 2 4.6037 72.8222 42.2091 0.0000 -8.2595 0.0000
# 3 28.9841 42.2091 144.5833 0.0000 -8.5791 0.0000
# 4 0.0000 0.0000 0.0000 50.9545 0.0000 -5.1143
# 5 2.7193 -8.2595 -8.5791 0.0000 21.8440 0.0000
# 6 0.0000 0.0000 0.0000 -5.1143 0.0000 8.3030
#
#
#
# Elastic Compliance Matrix: (Units=1/GPa)
#
#
# Indices 1 2 3 4 5 6 
#
# 1 0.028366 0.001280 -0.006390 0.000000 -0.005557 0.000000
# 2 0.001280 0.017022 -0.004969 0.000000 0.004325 0.000000
# 3 -0.006390 -0.004969 0.009813 0.000000 0.002770 0.000000
# 4 0.000000 0.000000 0.000000 0.020919 0.000000 0.012885
# 5 -0.005557 0.004325 0.002770 0.000000 0.049194 0.000000
# 6 0.000000 0.000000 0.000000 0.012885 0.000000 0.128375
#
#
# Mechanical properties :
#
#
# Convention : Reuss Voigt Hill
#
# Bulk Modulus (GPa) = 28.53656 45.67848 37.10752
# Shear Modulus (GPa) = 17.51143 28.46800 22.98972
#
# Velocity S-wave (km/s) = 2.83730 3.61761 3.25095
# Velocity P-wave (km/s) = 4.88388 6.20069 5.58126
#
# Compressibility (1/GPa) = 0.03504277
#
# Stress axis : x y z
#
# Youngs Moduli (GPa) = 35.25290 58.74738 101.91064
#
# Poissons Ratio (x) = -0.07521 0.65121
# Poissons Ratio (y) = -0.04513 0.50643
# Poissons Ratio (z) = 0.22527 0.29194
#
# Static dielectric constant tensor:
#      x y z
#    x 1.812650 0.000000 0.003190 
#    y 0.000000 1.892190 0.000000 
#    z 0.003190 0.000000 1.887810 
# 
# From -- ./inp_files/191823.got.cif
#   From: 2010.05.17/outbox.cif.g08.bks.cpg/sg15_96_cif.got.tgz:191823.got - 2010.06.03 18:47:42.
