data_PCOD9260721
_publ_section_title
;
Structure prediction by ZEFSAII (Michael W. Deem and Ramdas Pophale) SiO2 
 PCOD9260721
Probable space group: C 2/C
;
_chemical_formula_sum "Si O2"
_cell_formula_units_Z 64
_cell_length_a 32.812640
_cell_length_b 11.915708
_cell_length_c 19.776623
_cell_angle_alpha 90.000000
_cell_angle_beta 153.757237
_cell_angle_gamma 90.000000
_cell_volume 3419.068021
_symmetry_space_group_name_H-M "C 2/C"
_symmetry_group_IT_number 15
_symmetry_cell_setting 'monoclinic'
loop_
_space_group_symop_operation_xyz
x,y,z
-x,y,1/2-z
-x,-y,-z
x,-y,1/2+z
1/2+x,1/2+y,z
1/2-x,1/2+y,1/2-z
1/2-x,1/2-y,-z
1/2+x,1/2-y,1/2+z
loop_
_atom_site_type_symbol
_atom_site_label
_atom_site_fract_x
_atom_site_fract_y
_atom_site_fract_z
Si Si1 0.277806 0.889357 0.375876
Si Si2 0.342846 0.242157 0.848095
Si Si3 0.003691 0.443293 0.578275
Si Si4 0.705666 0.412047 0.925491
Si Si5 0.430322 0.930157 0.089871
Si Si6 0.692104 0.138031 0.424238
Si Si7 0.396608 0.466157 0.861251
Si Si8 0.820236 0.254468 0.002110
O O1 0.295619 0.789976 0.349364
O O2 0.318947 0.865237 0.511043
O O3 0.335944 0.999793 0.441472
O O4 0.172209 0.930379 0.224403
O O5 0.382197 0.367616 0.895101
O O6 0.266034 0.229176 0.675210
O O7 0.424345 0.151472 0.962508
O O8 0.097600 0.382178 0.742726
O O9 0.000000 0.500000 0.500000
O O10 0.982862 0.546171 0.598830
O O11 0.637083 0.418770 0.760908
O O12 0.790573 0.344386 0.016336
O O13 0.743637 0.533371 0.999529
O O14 0.662274 0.353390 0.925989
O O15 0.500000 0.977783 0.250000
O O16 0.398167 0.810096 0.071136
O O17 0.750000 0.250000 0.500000
O O18 0.500000 0.500000 0.000000
#
# Coordination Sequence:
#
# PCOD9260721 Si02
#       8
#     8   8   8   8   8   8   8   8
#     4  10  21  42  61  83 121 169 206 254 324 386
#     4  10  22  37  62  87 123 161 205 264 321 378
#     4  11  24  38  62  99 126 162 228 273 314 395
#     4   9  19  37  63  85 120 159 210 259 325 390
#     4  11  19  38  65  85 122 161 210 262 327 375
#     4  11  22  39  63  91 129 173 210 262 331 400
#     4  10  21  41  63  88 125 168 206 255 323 394
#     4  10  18  38  62  88 116 160 205 272 330 373
#
# _framework density 18.718551999999999
#
# number of rings (size 3 to 8) (size 9 to 14) (size 15 to 20)
#    0.000    1.750    5.000    0.750    3.500    3.000 
#    4.500    0.000    0.000    0.000    0.000    0.000 
#    0.000    0.000    0.000    0.000    0.000    0.000 
#
# Total GULP energy -178230.247392 kJ/mol
# GULP energy per Si atom -5569.695231 kJ/mol
# Density = 1.867595 g / cm^3
# Si number density = 18.718552 Si / 1000 Ang^3
#
#
#
# Elastic Constant Matrix: (Units=GPa)
#
#
# Indices 1 2 3 4 5 6 
#
# 1 119.8035 56.1543 58.3717 0.0000 -9.9892 0.0000
# 2 56.1543 97.0747 49.5300 0.0000 -1.0950 0.0000
# 3 58.3717 49.5300 101.3307 0.0000 14.3264 0.0000
# 4 0.0000 0.0000 0.0000 16.9571 0.0000 -5.4718
# 5 -9.9892 -1.0950 14.3264 0.0000 20.8181 0.0000
# 6 0.0000 0.0000 0.0000 -5.4718 0.0000 24.5538
#
#
#
# Elastic Compliance Matrix: (Units=1/GPa)
#
#
# Indices 1 2 3 4 5 6 
#
# 1 0.015913 -0.004533 -0.008859 0.000000 0.013494 0.000000
# 2 -0.004533 0.015706 -0.005400 0.000000 0.002367 0.000000
# 3 -0.008859 -0.005400 0.020220 0.000000 -0.018450 0.000000
# 4 0.000000 0.000000 0.000000 0.063542 0.000000 0.014160
# 5 0.013494 0.002367 -0.018450 0.000000 0.067331 0.000000
# 6 0.000000 0.000000 0.000000 0.014160 0.000000 0.043882
#
#
# Mechanical properties :
#
#
# Convention : Reuss Voigt Hill
#
# Bulk Modulus (GPa) = 70.15379 71.81345 70.98362
# Shear Modulus (GPa) = 18.59229 22.74267 20.66748
#
# Velocity S-wave (km/s) = 3.15501 3.48944 3.32643
# Velocity P-wave (km/s) = 7.12964 7.39480 7.26343
#
# Compressibility (1/GPa) = 0.01425440
#
# Stress axis : x y z
#
# Youngs Moduli (GPa) = 62.84158 63.67166 49.45617
#
# Poissons Ratio (x) = 0.28862 0.43812
# Poissons Ratio (y) = 0.28486 0.26708
# Poissons Ratio (z) = 0.55670 0.34385
#
# Static dielectric constant tensor:
#      x y z
#    x 1.700420 0.000000 0.009830 
#    y 0.000000 1.684870 0.000000 
#    z 0.009830 0.000000 1.662060 
# 
# From -- ./inp_files/225208.got.cif
#   From: 2010.05.17/outbox.cif.g08.bks.cpg/sg15_113_cif.got.tgz:225208.got - 2010.06.03 18:47:42.
