data_PCOD9260755
_publ_section_title
;
Structure prediction by ZEFSAII (Michael W. Deem and Ramdas Pophale) SiO2 
 PCOD9260755
Probable space group: C 2/C
;
_chemical_formula_sum "Si O2"
_cell_formula_units_Z 64
_cell_length_a 19.283777
_cell_length_b 10.573333
_cell_length_c 17.759762
_cell_angle_alpha 90.000000
_cell_angle_beta 131.919276
_cell_angle_gamma 90.000000
_cell_volume 2694.416736
_symmetry_space_group_name_H-M "C 2/C"
_symmetry_group_IT_number 15
_symmetry_cell_setting 'monoclinic'
loop_
_space_group_symop_operation_xyz
x,y,z
-x,y,1/2-z
-x,-y,-z
x,-y,1/2+z
1/2+x,1/2+y,z
1/2-x,1/2+y,1/2-z
1/2-x,1/2-y,-z
1/2+x,1/2-y,1/2+z
loop_
_atom_site_type_symbol
_atom_site_label
_atom_site_fract_x
_atom_site_fract_y
_atom_site_fract_z
Si Si1 0.097779 0.968966 0.666475
Si Si2 0.083480 0.681182 0.435435
Si Si3 0.772725 0.355821 0.873355
Si Si4 0.589381 0.965644 0.736157
Si Si5 0.189938 0.770380 0.238735
Si Si6 0.794507 0.470912 0.043110
Si Si7 0.382095 0.097414 0.890472
Si Si8 0.607784 0.530676 0.992434
O O1 0.124407 0.112234 0.710910
O O2 0.987107 0.953660 0.593686
O O3 0.167570 0.883724 0.767163
O O4 0.117011 0.958086 0.590245
O O5 0.176098 0.603255 0.477984
O O6 0.049798 0.644615 0.495791
O O7 0.096047 0.829756 0.446838
O O8 0.002357 0.619863 0.327749
O O9 0.811602 0.240190 0.853399
O O10 0.835464 0.468892 0.885405
O O11 0.786510 0.366900 0.971909
O O12 0.664290 0.858307 0.763496
O O13 0.626669 0.038747 0.835831
O O14 0.578668 0.069443 0.662552
O O15 0.296051 0.806701 0.331433
O O16 0.698533 0.476773 0.018266
#
# Coordination Sequence:
#
# PCOD9260755 Si02
#       8
#     8   8   8   8   8   8   8   8
#     4  10  21  39  63  93 114 155 205 254 289 347
#     4  11  21  37  58  89 118 157 196 245 307 362
#     4   9  20  36  58  86 123 157 194 241 301 363
#     4  11  21  37  57  87 123 156 202 246 298 358
#     4  10  18  38  63  86 117 156 206 244 300 353
#     4  11  23  38  56  89 128 158 189 245 306 362
#     4   9  19  34  60  85 114 152 202 252 289 346
#     4  11  22  39  62  88 122 151 202 251 300 352
#
# _framework density 23.752821000000001
#
# number of rings (size 3 to 8) (size 9 to 14) (size 15 to 20)
#    0.000    1.750    1.250    4.875    0.000    2.500 
#    2.250    2.500    0.000    0.000    6.500    0.000 
#    0.000    0.000    0.000    0.000    0.000    0.000 
#
# Total GULP energy -178713.221893 kJ/mol
# GULP energy per Si atom -5584.788184 kJ/mol
# Density = 2.369876 g / cm^3
# Si number density = 23.752821 Si / 1000 Ang^3
#
#
#
# Elastic Constant Matrix: (Units=GPa)
#
#
# Indices 1 2 3 4 5 6 
#
# 1 58.2247 5.6801 18.2494 0.0000 -7.8346 0.0000
# 2 5.6801 23.3400 4.8259 0.0000 3.9297 0.0000
# 3 18.2494 4.8259 124.2775 0.0000 -22.8154 0.0000
# 4 0.0000 0.0000 0.0000 20.6359 0.0000 -5.8161
# 5 -7.8346 3.9297 -22.8154 0.0000 35.4072 0.0000
# 6 0.0000 0.0000 0.0000 -5.8161 0.0000 12.7595
#
#
#
# Elastic Compliance Matrix: (Units=1/GPa)
#
#
# Indices 1 2 3 4 5 6 
#
# 1 0.018702 -0.004726 -0.001936 0.000000 0.003415 0.000000
# 2 -0.004726 0.045818 -0.002507 0.000000 -0.007746 0.000000
# 3 -0.001936 -0.002507 0.009528 0.000000 0.005989 0.000000
# 4 0.000000 0.000000 0.000000 0.055602 0.000000 0.025345
# 5 0.003415 -0.007746 0.005989 0.000000 0.033718 0.000000
# 6 0.000000 0.000000 0.000000 0.025345 0.000000 0.089925
#
#
# Mechanical properties :
#
#
# Convention : Reuss Voigt Hill
#
# Bulk Modulus (GPa) = 17.95037 29.26144 23.60590
# Shear Modulus (GPa) = 17.22941 25.56632 21.39786
#
# Velocity S-wave (km/s) = 2.69618 3.28433 3.00468
# Velocity P-wave (km/s) = 4.15524 5.16995 4.69012
#
# Compressibility (1/GPa) = 0.05570917
#
# Stress axis : x y z
#
# Youngs Moduli (GPa) = 53.46960 21.82556 104.95747
#
# Poissons Ratio (x) = 0.10315 0.20317
# Poissons Ratio (y) = 0.25271 0.26316
# Poissons Ratio (z) = 0.10350 0.05472
#
# Static dielectric constant tensor:
#      x y z
#    x 1.947240 0.000000 -0.011900 
#    y 0.000000 1.926080 0.000000 
#    z -0.011900 0.000000 1.972290 
# 
# From -- ./inp_files/215057.got.cif
#   From: 2010.05.17/outbox.cif.g08.bks.cpg/sg15_108_cif.got.tgz:215057.got - 2010.06.03 18:47:42.
