data_PCOD9260492
_publ_section_title
;
Structure prediction by ZEFSAII (Michael W. Deem and Ramdas Pophale) SiO2 
 PCOD9260492
Probable space group: C 2/C
;
_chemical_formula_sum "Si O2"
_cell_formula_units_Z 56
_cell_length_a 10.348266
_cell_length_b 14.029948
_cell_length_c 18.845301
_cell_angle_alpha 90.000000
_cell_angle_beta 124.839555
_cell_angle_gamma 90.000000
_cell_volume 2245.640682
_symmetry_space_group_name_H-M "C 2/C"
_symmetry_group_IT_number 15
_symmetry_cell_setting 'monoclinic'
loop_
_space_group_symop_operation_xyz
x,y,z
-x,y,1/2-z
-x,-y,-z
x,-y,1/2+z
1/2+x,1/2+y,z
1/2-x,1/2+y,1/2-z
1/2-x,1/2-y,-z
1/2+x,1/2-y,1/2+z
loop_
_atom_site_type_symbol
_atom_site_label
_atom_site_fract_x
_atom_site_fract_y
_atom_site_fract_z
Si Si1 0.844855 0.482465 0.752124
Si Si2 0.045116 0.292682 0.688235
Si Si3 0.796545 0.639889 0.011441
Si Si4 0.660301 0.637268 0.616753
Si Si5 0.961037 0.394978 0.413963
Si Si6 0.884946 0.764290 0.604472
Si Si7 0.167560 0.054047 0.469521
O O1 0.818962 0.370188 0.755228
O O2 0.708648 0.541186 0.671320
O O3 0.000000 0.496538 0.750000
O O4 0.868149 0.532504 0.835571
O O5 0.071435 0.211471 0.639078
O O6 0.000000 0.250249 0.750000
O O7 0.908605 0.363348 0.615253
O O8 0.896416 0.620269 0.971860
O O9 0.750000 0.750000 0.000000
O O10 0.660201 0.560099 0.967201
O O11 0.815184 0.702829 0.646639
O O12 0.602631 0.601602 0.521397
O O13 0.965176 0.292086 0.377185
O O14 0.141289 0.431784 0.471542
O O15 0.750000 0.750000 0.500000
O O16 0.896314 0.877977 0.613041
#
# Coordination Sequence:
#
# PCOD9260492 Si02
#       7
#     8   8   8   8   8   8   8
#     4  11  19  37  64  91 116 160 206 257 298 369
#     4  11  24  41  61  90 126 164 204 254 313 370
#     4  12  25  39  61  93 127 161 207 256 312 373
#     4  10  20  37  62  88 122 153 204 253 307 357
#     4  10  19  35  59  88 120 149 208 253 300 351
#     4   8  16  30  58  88 114 145 196 254 300 344
#     4  10  18  37  64  89 112 157 205 254 304 362
#
# _framework density 24.937204000000001
#
# number of rings (size 3 to 8) (size 9 to 14) (size 15 to 20)
#    0.000    2.000    4.286    3.857    4.000    0.000 
#    0.000    2.857    0.000    2.571    0.000    0.000 
#    0.000    0.000    0.000    0.000    0.000    0.000 
#
# Total GULP energy -156362.680799 kJ/mol
# GULP energy per Si atom -5584.381457 kJ/mol
# Density = 2.488045 g / cm^3
# Si number density = 24.937204 Si / 1000 Ang^3
#
#
#
# Elastic Constant Matrix: (Units=GPa)
#
#
# Indices 1 2 3 4 5 6 
#
# 1 64.8395 24.1071 22.8034 0.0000 -27.5393 0.0000
# 2 24.1071 199.0944 21.5219 0.0000 -12.3060 0.0000
# 3 22.8034 21.5219 66.0660 0.0000 -28.6898 0.0000
# 4 0.0000 0.0000 0.0000 45.5677 0.0000 -0.2106
# 5 -27.5393 -12.3060 -28.6898 0.0000 32.2451 0.0000
# 6 0.0000 0.0000 0.0000 -0.2106 0.0000 23.7613
#
#
#
# Elastic Compliance Matrix: (Units=1/GPa)
#
#
# Indices 1 2 3 4 5 6 
#
# 1 0.024864 -0.001822 0.001517 0.000000 0.021890 0.000000
# 2 -0.001822 0.005352 -0.001472 0.000000 -0.000823 0.000000
# 3 0.001517 -0.001472 0.025115 0.000000 0.023080 0.000000
# 4 0.000000 0.000000 0.000000 0.021946 0.000000 0.000194
# 5 0.021890 -0.000823 0.023080 0.000000 0.069929 0.000000
# 6 0.000000 0.000000 0.000000 0.000194 0.000000 0.042087
#
#
# Mechanical properties :
#
#
# Convention : Reuss Voigt Hill
#
# Bulk Modulus (GPa) = 19.31344 51.87385 35.59364
# Shear Modulus (GPa) = 23.79778 37.75265 30.77521
#
# Velocity S-wave (km/s) = 3.09254 3.89512 3.51680
# Velocity P-wave (km/s) = 4.52917 6.40907 5.54931
#
# Compressibility (1/GPa) = 0.05177741
#
# Stress axis : x y z
#
# Youngs Moduli (GPa) = 40.21943 186.86145 39.81713
#
# Poissons Ratio (x) = 0.34039 -0.06042
# Poissons Ratio (y) = 0.07326 0.05861
# Poissons Ratio (z) = -0.06103 0.27507
#
# Static dielectric constant tensor:
#      x y z
#    x 2.091130 0.000000 0.075520 
#    y 0.000000 2.098950 0.000000 
#    z 0.075520 0.000000 1.995170 
# 
# From -- ./inp_files/204124.got.cif
#   From: 2010.05.17/outbox.cif.g08.bks.cpg/sg15_103_cif.got.tgz:204124.got - 2010.06.03 18:47:42.
