data_PCOD9260232
_publ_section_title
;
Structure prediction by ZEFSAII (Michael W. Deem and Ramdas Pophale) SiO2 
 PCOD9260232
Probable space group: C 2/C
;
_chemical_formula_sum "Si O2"
_cell_formula_units_Z 40
_cell_length_a 23.711903
_cell_length_b 16.386026
_cell_length_c 14.789498
_cell_angle_alpha 90.000000
_cell_angle_beta 161.827688
_cell_angle_gamma 90.000000
_cell_volume 1792.153377
_symmetry_space_group_name_H-M "C 2/C"
_symmetry_group_IT_number 15
_symmetry_cell_setting 'monoclinic'
loop_
_space_group_symop_operation_xyz
x,y,z
-x,y,1/2-z
-x,-y,-z
x,-y,1/2+z
1/2+x,1/2+y,z
1/2-x,1/2+y,1/2-z
1/2-x,1/2-y,-z
1/2+x,1/2-y,1/2+z
loop_
_atom_site_type_symbol
_atom_site_label
_atom_site_fract_x
_atom_site_fract_y
_atom_site_fract_z
Si Si1 0.347406 0.335038 0.870049
Si Si2 0.663403 0.974602 0.374929
Si Si3 0.000000 0.280552 0.750000
Si Si4 0.241268 0.489141 0.289113
Si Si5 0.156506 0.103162 0.721489
Si Si6 0.000000 0.665415 0.750000
O O1 0.296760 0.417674 0.848734
O O2 0.161799 0.293688 0.552168
O O3 0.464985 0.276601 0.111100
O O4 0.472089 0.359952 0.976346
O O5 0.751549 0.969618 0.410432
O O6 0.603051 0.892922 0.334739
O O7 0.787529 0.026482 0.630748
O O8 0.469817 0.019232 0.062250
O O9 0.821055 0.334474 0.485934
O O10 0.349176 0.428370 0.389213
#
# Coordination Sequence:
#
# PCOD9260232 Si02
#       6
#     8   8   4   8   8   4
#     4  11  24  41  67  99 137 184 219 288 340 407
#     4  10  18  36  65  97 131 173 220 286 331 391
#     4  12  25  44  68 105 138 178 230 280 349 406
#     4  10  20  36  65  98 134 174 230 276 340 392
#     4  12  21  43  66 102 138 179 229 286 333 408
#     4  10  21  44  62  91 138 176 222 282 341 390
#
# _framework density 22.319517999999999
#
# number of rings (size 3 to 8) (size 9 to 14) (size 15 to 20)
#    0.000    1.200    6.000    2.400    0.000    0.000 
#    3.600    1.000    0.000    0.000    0.000    0.000 
#    0.000    0.000    0.000    0.000    0.000    0.000 
#
# Total GULP energy -111907.506315 kJ/mol
# GULP energy per Si atom -5595.375316 kJ/mol
# Density = 2.226872 g / cm^3
# Si number density = 22.319518 Si / 1000 Ang^3
#
#
#
# Elastic Constant Matrix: (Units=GPa)
#
#
# Indices 1 2 3 4 5 6 
#
# 1 161.5987 25.6966 26.8136 0.0000 3.3741 0.0000
# 2 25.6966 45.0887 23.3077 0.0000 1.2142 0.0000
# 3 26.8136 23.3077 91.6338 0.0000 13.2004 0.0000
# 4 0.0000 0.0000 0.0000 29.6983 0.0000 -11.1874
# 5 3.3741 1.2142 13.2004 0.0000 27.4999 0.0000
# 6 0.0000 0.0000 0.0000 -11.1874 0.0000 6.7121
#
#
#
# Elastic Compliance Matrix: (Units=1/GPa)
#
#
# Indices 1 2 3 4 5 6 
#
# 1 0.006914 -0.003341 -0.001152 0.000000 -0.000148 0.000000
# 2 -0.003341 0.027268 -0.006278 0.000000 0.002219 0.000000
# 3 -0.001152 -0.006278 0.013737 0.000000 -0.006175 0.000000
# 4 0.000000 0.000000 0.000000 0.090484 0.000000 0.150814
# 5 -0.000148 0.002219 -0.006175 0.000000 0.039248 0.000000
# 6 0.000000 0.000000 0.000000 0.150814 0.000000 0.400354
#
#
# Mechanical properties :
#
#
# Convention : Reuss Voigt Hill
#
# Bulk Modulus (GPa) = 37.91222 49.99522 43.95372
# Shear Modulus (GPa) = 8.21912 27.61560 17.91736
#
# Velocity S-wave (km/s) = 1.92106 3.52132 2.83639
# Velocity P-wave (km/s) = 4.68440 6.24350 5.51928
#
# Compressibility (1/GPa) = 0.02637672
#
# Stress axis : x y z
#
# Youngs Moduli (GPa) = 144.64197 36.67312 72.79857
#
# Poissons Ratio (x) = 0.12251 0.08387
# Poissons Ratio (y) = 0.48320 0.45703
# Poissons Ratio (z) = 0.16663 0.23023
#
# Static dielectric constant tensor:
#      x y z
#    x 1.818780 0.000000 0.012460 
#    y 0.000000 1.825820 0.000000 
#    z 0.012460 0.000000 1.824250 
# 
# From -- ./inp_files/174149.got.cif
#   From: 2010.05.17/outbox.cif.g08.bks.cpg/sg15_88_cif.got.tgz:174149.got - 2010.06.03 18:47:42.
