data_PCOD9260536
_publ_section_title
;
Structure prediction by ZEFSAII (Michael W. Deem and Ramdas Pophale) SiO2 
 PCOD9260536
Probable space group: C 2/C
;
_chemical_formula_sum "Si O2"
_cell_formula_units_Z 52
_cell_length_a 14.835155
_cell_length_b 30.489238
_cell_length_c 8.989572
_cell_angle_alpha 90.000000
_cell_angle_beta 139.723541
_cell_angle_gamma 90.000000
_cell_volume 2628.635255
_symmetry_space_group_name_H-M "C 2/C"
_symmetry_group_IT_number 15
_symmetry_cell_setting 'monoclinic'
loop_
_space_group_symop_operation_xyz
x,y,z
-x,y,1/2-z
-x,-y,-z
x,-y,1/2+z
1/2+x,1/2+y,z
1/2-x,1/2+y,1/2-z
1/2-x,1/2-y,-z
1/2+x,1/2-y,1/2+z
loop_
_atom_site_type_symbol
_atom_site_label
_atom_site_fract_x
_atom_site_fract_y
_atom_site_fract_z
Si Si1 0.500000 0.794725 0.750000
Si Si2 0.048629 0.784724 0.511163
Si Si3 0.894245 0.895417 0.403401
Si Si4 0.705645 0.330252 0.453183
Si Si5 0.000000 0.822469 0.750000
Si Si6 0.690041 0.972004 0.242793
Si Si7 0.000000 0.501273 0.750000
Si Si8 0.077128 0.961824 0.504467
O O1 0.436364 0.763177 0.540839
O O2 0.369027 0.821490 0.647183
O O3 0.143750 0.819117 0.537721
O O4 0.069799 0.792290 0.711595
O O5 0.888453 0.796625 0.264412
O O6 0.832767 0.876411 0.171309
O O7 0.797673 0.933167 0.349440
O O8 0.906834 0.855994 0.535867
O O9 0.043551 0.917643 0.552828
O O10 0.613839 0.970537 0.304463
O O11 0.770336 0.018814 0.331945
O O12 0.576647 0.972317 0.969818
O O13 0.000000 0.000000 0.500000
O O14 0.000000 0.958266 0.250000
#
# Coordination Sequence:
#
# PCOD9260536 Si02
#       8
#     4   8   8   8   4   8   4   8
#     4  10  18  37  66  82 115 158 200 235 284 374
#     4   9  18  37  58  85 116 154 191 238 286 354
#     4  10  22  35  56  84 117 144 189 254 298 340
#     4   9  19  36  58  89 113 149 198 238 294 343
#     4  10  22  34  56  91 121 144 188 249 313 330
#     4  10  21  38  56  79 113 155 202 232 297 351
#     4  10  22  39  54  77 112 158 200 230 279 372
#     4  10  21  34  58  86 107 146 201 247 289 340
#
# _framework density 19.782129000000001
#
# number of rings (size 3 to 8) (size 9 to 14) (size 15 to 20)
#    0.000    2.462    0.000    3.692   10.769    0.615 
#    0.000    8.462    0.000    0.000    0.000    0.000 
#    0.000    0.000    0.000    0.000    0.000    0.000 
#
# Total GULP energy -144869.054976 kJ/mol
# GULP energy per Si atom -5571.886730 kJ/mol
# Density = 1.973710 g / cm^3
# Si number density = 19.782129 Si / 1000 Ang^3
#
#
#
# Elastic Constant Matrix: (Units=GPa)
#
#
# Indices 1 2 3 4 5 6 
#
# 1 141.4769 36.6518 43.2581 0.0000 -4.9838 0.0000
# 2 36.6518 58.9866 10.0531 0.0000 -1.4564 0.0000
# 3 43.2581 10.0531 47.3511 0.0000 -7.1769 0.0000
# 4 0.0000 0.0000 0.0000 12.1994 0.0000 -1.6615
# 5 -4.9838 -1.4564 -7.1769 0.0000 45.1327 0.0000
# 6 0.0000 0.0000 0.0000 -1.6615 0.0000 -3.6346
#
#
#
# Elastic Compliance Matrix: (Units=1/GPa)
#
#
# Indices 1 2 3 4 5 6 
#
# 1 0.011282 -0.005451 -0.009210 0.000000 -0.000395 0.000000
# 2 -0.005451 0.020223 0.000711 0.000000 0.000164 0.000000
# 3 -0.009210 0.000711 0.029953 0.000000 0.003769 0.000000
# 4 0.000000 0.000000 0.000000 0.077167 0.000000 -0.035276
# 5 -0.000395 0.000164 0.003769 0.000000 0.022718 0.000000
# 6 0.000000 0.000000 0.000000 -0.035276 0.000000 -0.259008
#
#
# Mechanical properties :
#
#
# Convention : Reuss Voigt Hill
#
# Bulk Modulus (GPa) = 29.79842 47.52672 38.66257
# Shear Modulus (GPa) = -85.35357 21.26294 -32.04532
#
# Velocity S-wave (km/s) = -6.57575 3.28206 -4.02918
# Velocity P-wave (km/s) = 6.52365 6.19998 1.43496
#
# Compressibility (1/GPa) = 0.03355882
#
# Stress axis : x y z
#
# Youngs Moduli (GPa) = 88.63342 49.44946 33.38576
#
# Poissons Ratio (x) = 0.26953 0.30748
# Poissons Ratio (y) = 0.48310 -0.02373
# Poissons Ratio (z) = 0.81629 -0.03515
#
# Static dielectric constant tensor:
#      x y z
#    x 1.732030 0.000000 -0.022090 
#    y 0.000000 1.742140 0.000000 
#    z -0.022090 0.000000 1.697690 
# 
# From -- ./inp_files/44946.got.cif
#   From: 2010.05.17/outbox.cif.g08.bks.cpg/sg15_23_cif.got.tgz:44946.got - 2010.06.03 18:47:42.
