data_PCOD9260826
_publ_section_title
;
Structure prediction by ZEFSAII (Michael W. Deem and Ramdas Pophale) SiO2 
 PCOD9260826
Probable space group: C 2/C
;
_chemical_formula_sum "Si O2"
_cell_formula_units_Z 56
_cell_length_a 9.263999
_cell_length_b 16.581468
_cell_length_c 20.165482
_cell_angle_alpha 90.000000
_cell_angle_beta 83.222307
_cell_angle_gamma 90.000000
_cell_volume 3075.986148
_symmetry_space_group_name_H-M "C 2/C"
_symmetry_group_IT_number 15
_symmetry_cell_setting 'monoclinic'
loop_
_space_group_symop_operation_xyz
x,y,z
-x,y,1/2-z
-x,-y,-z
x,-y,1/2+z
1/2+x,1/2+y,z
1/2-x,1/2+y,1/2-z
1/2-x,1/2-y,-z
1/2+x,1/2-y,1/2+z
loop_
_atom_site_type_symbol
_atom_site_label
_atom_site_fract_x
_atom_site_fract_y
_atom_site_fract_z
Si Si1 0.725680 0.514367 0.154159
Si Si2 0.500000 0.877263 0.250000
Si Si3 0.740747 0.005932 0.197151
Si Si4 0.253799 0.691562 0.061516
Si Si5 0.770885 0.329976 0.168003
Si Si6 0.509458 0.123304 0.148357
Si Si7 0.536894 0.457213 0.927945
Si Si8 0.000000 0.237669 0.750000
O O1 0.684901 0.518507 0.235015
O O2 0.752463 0.419172 0.137886
O O3 0.876473 0.563700 0.142698
O O4 0.607639 0.548564 0.109505
O O5 0.628481 0.932661 0.213471
O O6 0.423112 0.827709 0.197335
O O7 0.632923 0.080355 0.186950
O O8 0.849959 0.998422 0.129227
O O9 0.264535 0.753732 0.121278
O O10 0.382928 0.626691 0.058426
O O11 0.099888 0.645887 0.078008
O O12 0.250000 0.750000 0.000000
O O13 0.636827 0.317101 0.225089
O O14 0.463473 0.203557 0.190232
O O15 0.500000 0.500000 0.000000
#
# Coordination Sequence:
#
# PCOD9260826 Si02
#       8
#     8   4   8   8   8   8   8   4
#     4  11  20  38  66  98 115 156 218 259 306 368
#     4  10  19  36  58  95 122 148 206 254 311 366
#     4  10  18  38  65  90 123 155 205 261 299 368
#     4  10  23  45  59  83 127 169 202 254 318 376
#     4  10  22  35  60  89 124 155 196 255 317 360
#     4  10  18  38  66  86 120 164 206 247 305 384
#     4  11  25  40  62  91 124 167 214 256 309 377
#     4  10  19  34  54  91 126 156 186 248 325 358
#
# _framework density 18.205544
#
# number of rings (size 3 to 8) (size 9 to 14) (size 15 to 20)
#    0.000    1.714    4.286    1.286    4.000    1.143 
#    2.571    2.857    0.000    0.000    0.000    0.000 
#    0.000    0.000    0.000    0.000    0.000    0.000 
#
# Total GULP energy -156061.284415 kJ/mol
# GULP energy per Si atom -5573.617301 kJ/mol
# Density = 1.816411 g / cm^3
# Si number density = 18.205544 Si / 1000 Ang^3
#
#
#
# Elastic Constant Matrix: (Units=GPa)
#
#
# Indices 1 2 3 4 5 6 
#
# 1 114.5447 53.9807 63.1181 0.0000 3.6508 0.0000
# 2 53.9807 94.5660 34.8655 0.0000 -9.3819 0.0000
# 3 63.1181 34.8655 109.7429 0.0000 -6.1006 0.0000
# 4 0.0000 0.0000 0.0000 28.5143 0.0000 -3.6476
# 5 3.6508 -9.3819 -6.1006 0.0000 20.7721 0.0000
# 6 0.0000 0.0000 0.0000 -3.6476 0.0000 23.0139
#
#
#
# Elastic Compliance Matrix: (Units=1/GPa)
#
#
# Indices 1 2 3 4 5 6 
#
# 1 0.016889 -0.007639 -0.007771 0.000000 -0.008701 0.000000
# 2 -0.007639 0.015835 -0.000168 0.000000 0.008445 0.000000
# 3 -0.007771 -0.000168 0.013934 0.000000 0.005382 0.000000
# 4 0.000000 0.000000 0.000000 0.035796 0.000000 0.005673
# 5 -0.008701 0.008445 0.005382 0.000000 0.055066 0.000000
# 6 0.000000 0.000000 0.000000 0.005673 0.000000 0.044351
#
#
# Mechanical properties :
#
#
# Convention : Reuss Voigt Hill
#
# Bulk Modulus (GPa) = 64.50199 69.19802 66.85001
# Shear Modulus (GPa) = 22.91540 25.58601 24.25071
#
# Velocity S-wave (km/s) = 3.55167 3.75293 3.65369
# Velocity P-wave (km/s) = 7.23367 7.54130 7.38908
#
# Compressibility (1/GPa) = 0.01550340
#
# Stress axis : x y z
#
# Youngs Moduli (GPa) = 59.20847 63.15137 71.76750
#
# Poissons Ratio (x) = 0.48243 0.55768
# Poissons Ratio (y) = 0.45231 0.01203
# Poissons Ratio (z) = 0.46008 0.01059
#
# Static dielectric constant tensor:
#      x y z
#    x 1.635920 0.000000 -0.034650 
#    y 0.000000 1.626250 0.000000 
#    z -0.034650 0.000000 1.611580 
# 
# From -- ./inp_files/231637.got.cif
#   From: 2010.05.17/outbox.cif.g08.bks.cpg/sg15_116_cif.got.tgz:231637.got - 2010.06.03 18:47:42.
