data_PCOD9260294
_publ_section_title
;
Structure prediction by ZEFSAII (Michael W. Deem and Ramdas Pophale) SiO2 
 PCOD9260294
Probable space group: C 2/C
;
_chemical_formula_sum "Si O2"
_cell_formula_units_Z 36
_cell_length_a 9.602405
_cell_length_b 16.155925
_cell_length_c 11.350440
_cell_angle_alpha 90.000000
_cell_angle_beta 106.067394
_cell_angle_gamma 90.000000
_cell_volume 1692.074094
_symmetry_space_group_name_H-M "C 2/C"
_symmetry_group_IT_number 15
_symmetry_cell_setting 'monoclinic'
loop_
_space_group_symop_operation_xyz
x,y,z
-x,y,1/2-z
-x,-y,-z
x,-y,1/2+z
1/2+x,1/2+y,z
1/2-x,1/2+y,1/2-z
1/2-x,1/2-y,-z
1/2+x,1/2-y,1/2+z
loop_
_atom_site_type_symbol
_atom_site_label
_atom_site_fract_x
_atom_site_fract_y
_atom_site_fract_z
Si Si1 0.467116 0.727760 0.119424
Si Si2 0.970234 0.539102 0.121000
Si Si3 0.655223 0.189066 0.126754
Si Si4 0.806993 0.155315 0.488778
Si Si5 0.500000 0.678715 0.750000
O O1 0.500000 0.770405 0.250000
O O2 0.315450 0.683931 0.112983
O O3 0.442315 0.791720 0.009982
O O4 0.589615 0.666110 0.101011
O O5 0.000000 0.487786 0.250000
O O6 0.096570 0.606723 0.168099
O O7 0.819051 0.589615 0.066781
O O8 0.000000 0.500000 0.000000
O O9 0.616349 0.263288 0.207509
O O10 0.750000 0.250000 0.500000
O O11 0.908043 0.133744 0.625953
#
# Coordination Sequence:
#
# PCOD9260294 Si02
#       5
#     8   8   8   8   4
#     4  10  19  31  59  96 121 155 204 274 322 372
#     4  12  25  45  65  92 133 183 218 265 338 411
#     4  10  20  35  59  93 129 154 211 265 324 381
#     4  11  20  39  67  92 131 170 217 283 327 386
#     4  10  18  36  68  96 122 168 222 278 336 376
#
# _framework density 21.275663999999999
#
# number of rings (size 3 to 8) (size 9 to 14) (size 15 to 20)
#    0.000    1.333    5.556    2.667    0.000    0.889 
#    8.000    1.111    2.444    0.000    0.000    0.000 
#    0.000    0.000    0.000    0.000    0.000    0.000 
#
# Total GULP energy -100269.970249 kJ/mol
# GULP energy per Si atom -5570.553903 kJ/mol
# Density = 2.122724 g / cm^3
# Si number density = 21.275664 Si / 1000 Ang^3
#
#
#
# Elastic Constant Matrix: (Units=GPa)
#
#
# Indices 1 2 3 4 5 6 
#
# 1 153.6245 27.9925 27.4046 0.0000 -15.2618 0.0000
# 2 27.9925 23.6298 25.6623 0.0000 2.4849 0.0000
# 3 27.4046 25.6623 202.0014 0.0000 -4.0337 0.0000
# 4 0.0000 0.0000 0.0000 10.7361 0.0000 -1.1272
# 5 -15.2618 2.4849 -4.0337 0.0000 35.4400 0.0000
# 6 0.0000 0.0000 0.0000 -1.1272 0.0000 11.6919
#
#
#
# Elastic Compliance Matrix: (Units=1/GPa)
#
#
# Indices 1 2 3 4 5 6 
#
# 1 0.009025 -0.011557 0.000338 0.000000 0.004736 0.000000
# 2 -0.011557 0.064512 -0.006833 0.000000 -0.010278 0.000000
# 3 0.000338 -0.006833 0.005798 0.000000 0.001285 0.000000
# 4 0.000000 0.000000 0.000000 0.094096 0.000000 0.009071
# 5 0.004736 -0.010278 0.001285 0.000000 0.031123 0.000000
# 6 0.000000 0.000000 0.000000 0.009071 0.000000 0.086404
#
#
# Mechanical properties :
#
#
# Convention : Reuss Voigt Hill
#
# Bulk Modulus (GPa) = 23.13104 60.15274 41.64189
# Shear Modulus (GPa) = 14.64247 31.45334 23.04791
#
# Velocity S-wave (km/s) = 2.62625 3.84913 3.29492
# Velocity P-wave (km/s) = 4.48240 6.93461 5.83870
#
# Compressibility (1/GPa) = 0.04323195
#
# Stress axis : x y z
#
# Youngs Moduli (GPa) = 110.79927 15.50107 172.46517
#
# Poissons Ratio (x) = 0.17915 -0.05835
# Poissons Ratio (y) = 1.28052 1.17844
# Poissons Ratio (z) = -0.03749 0.10592
#
# Static dielectric constant tensor:
#      x y z
#    x 1.856340 0.000000 -0.017130 
#    y 0.000000 1.761170 0.000000 
#    z -0.017130 0.000000 1.966530 
# 
# From -- ./inp_files/76307.got.cif
#   From: 2010.05.17/outbox.cif.g08.bks.cpg/sg15_39_cif.got.tgz:76307.got - 2010.06.03 18:47:42.
