data_PCOD9260100
_publ_section_title
;
Structure prediction by ZEFSAII (Michael W. Deem and Ramdas Pophale) SiO2 
 PCOD9260100
Probable space group: C 2/C
;
_chemical_formula_sum "Si O2"
_cell_formula_units_Z 36
_cell_length_a 8.617205
_cell_length_b 15.497246
_cell_length_c 11.929098
_cell_angle_alpha 90.000000
_cell_angle_beta 71.886373
_cell_angle_gamma 90.000000
_cell_volume 1514.098374
_symmetry_space_group_name_H-M "C 2/C"
_symmetry_group_IT_number 15
_symmetry_cell_setting 'monoclinic'
loop_
_space_group_symop_operation_xyz
x,y,z
-x,y,1/2-z
-x,-y,-z
x,-y,1/2+z
1/2+x,1/2+y,z
1/2-x,1/2+y,1/2-z
1/2-x,1/2-y,-z
1/2+x,1/2-y,1/2+z
loop_
_atom_site_type_symbol
_atom_site_label
_atom_site_fract_x
_atom_site_fract_y
_atom_site_fract_z
Si Si1 0.000000 0.691975 0.750000
Si Si2 0.080161 0.409301 0.952346
Si Si3 0.158787 0.913350 0.795583
Si Si4 0.201964 0.898903 0.376277
Si Si5 0.468620 0.270119 0.531705
O O1 0.156211 0.632876 0.740530
O O2 0.057173 0.747569 0.631353
O O3 0.177886 0.410750 0.814726
O O4 0.215030 0.400182 0.020167
O O5 0.958803 0.326884 0.986484
O O6 0.000000 0.500000 0.000000
O O7 0.000000 0.908649 0.750000
O O8 0.162593 0.835298 0.884704
O O9 0.145909 0.005969 0.858141
O O10 0.062666 0.827546 0.420065
#
# Coordination Sequence:
#
# PCOD9260100 Si02
#       5
#     4   8   8   8   8
#     4  10  18  36  62  88 116 162 204 246 300 366
#     4  11  24  41  65  92 124 159 204 253 305 363
#     4  12  23  38  65  93 123 161 206 250 302 359
#     4  11  22  38  63  90 122 161 202 251 303 360
#     4  11  20  38  63  92 116 160 210 247 299 364
#
# _framework density 23.776526
#
# number of rings (size 3 to 8) (size 9 to 14) (size 15 to 20)
#    0.000    0.889    3.333    7.333    0.000    0.000 
#    0.000    1.111    9.778    0.000    0.000    0.000 
#    0.000    0.000    0.000    0.000    0.000    0.000 
#
# Total GULP energy -100413.722564 kJ/mol
# GULP energy per Si atom -5578.540142 kJ/mol
# Density = 2.372241 g / cm^3
# Si number density = 23.776526 Si / 1000 Ang^3
#
#
#
# Elastic Constant Matrix: (Units=GPa)
#
#
# Indices 1 2 3 4 5 6 
#
# 1 39.4053 35.5309 30.6590 0.0000 -3.6095 0.0000
# 2 35.5309 253.7093 86.1641 0.0000 -32.4616 0.0000
# 3 30.6590 86.1641 128.6056 0.0000 -49.3569 0.0000
# 4 0.0000 0.0000 0.0000 51.0492 0.0000 -4.4022
# 5 -3.6095 -32.4616 -49.3569 0.0000 36.5599 0.0000
# 6 0.0000 0.0000 0.0000 -4.4022 0.0000 15.4385
#
#
#
# Elastic Compliance Matrix: (Units=1/GPa)
#
#
# Indices 1 2 3 4 5 6 
#
# 1 0.036744 -0.002758 -0.013404 0.000000 -0.016917 0.000000
# 2 -0.002758 0.005310 -0.002480 0.000000 0.001094 0.000000
# 3 -0.013404 -0.002480 0.023408 0.000000 0.028076 0.000000
# 4 0.000000 0.000000 0.000000 0.020083 0.000000 0.005726
# 5 -0.016917 0.001094 0.028076 0.000000 0.064557 0.000000
# 6 0.000000 0.000000 0.000000 0.005726 0.000000 0.066406
#
#
# Mechanical properties :
#
#
# Convention : Reuss Voigt Hill
#
# Bulk Modulus (GPa) = 35.49041 80.71422 58.10231
# Shear Modulus (GPa) = 18.99802 38.56725 28.78264
#
# Velocity S-wave (km/s) = 2.82977 4.03187 3.48307
# Velocity P-wave (km/s) = 5.06319 7.46293 6.37696
#
# Compressibility (1/GPa) = 0.02817663
#
# Stress axis : x y z
#
# Youngs Moduli (GPa) = 27.21564 188.32002 42.72005
#
# Poissons Ratio (x) = 0.51938 0.57263
# Poissons Ratio (y) = 0.07506 0.10596
# Poissons Ratio (z) = 0.36481 0.46710
#
# Static dielectric constant tensor:
#      x y z
#    x 2.041380 0.000000 -0.072850 
#    y 0.000000 1.970960 0.000000 
#    z -0.072850 0.000000 1.949370 
# 
# From -- ./inp_files/85005.got.cif
#   From: 2010.05.17/outbox.cif.g08.bks.cpg/sg15_43_cif.got.tgz:85005.got - 2010.06.03 18:47:42.
