data_PCOD9260541
_publ_section_title
;
Structure prediction by ZEFSAII (Michael W. Deem and Ramdas Pophale) SiO2 
 PCOD9260541
Probable space group: C 2/C
;
_chemical_formula_sum "Si O2"
_cell_formula_units_Z 60
_cell_length_a 27.006229
_cell_length_b 18.697977
_cell_length_c 12.091982
_cell_angle_alpha 90.000000
_cell_angle_beta 30.199192
_cell_angle_gamma 90.000000
_cell_volume 3071.360134
_symmetry_space_group_name_H-M "C 2/C"
_symmetry_group_IT_number 15
_symmetry_cell_setting 'monoclinic'
loop_
_space_group_symop_operation_xyz
x,y,z
-x,y,1/2-z
-x,-y,-z
x,-y,1/2+z
1/2+x,1/2+y,z
1/2-x,1/2+y,1/2-z
1/2-x,1/2-y,-z
1/2+x,1/2-y,1/2+z
loop_
_atom_site_type_symbol
_atom_site_label
_atom_site_fract_x
_atom_site_fract_y
_atom_site_fract_z
Si Si1 0.517983 0.853978 0.347296
Si Si2 0.978280 0.185441 0.418516
Si Si3 0.783966 0.139128 0.116231
Si Si4 0.344456 0.907491 0.839260
Si Si5 0.000000 0.121132 0.750000
Si Si6 0.571523 0.565344 0.386988
Si Si7 0.258050 0.287767 0.365786
Si Si8 0.210309 0.561482 0.477391
O O1 0.500000 0.869694 0.250000
O O2 0.502751 0.768968 0.390979
O O3 0.439578 0.892790 0.579201
O O4 0.626644 0.880922 0.168972
O O5 0.037659 0.134292 0.384333
O O6 0.000000 0.168114 0.250000
O O7 0.862280 0.174163 0.657386
O O8 0.744555 0.104930 0.078031
O O9 0.740131 0.219192 0.218383
O O10 0.745408 0.086785 0.287273
O O11 0.901390 0.155649 0.888155
O O12 0.327960 0.846156 0.964289
O O13 0.338394 0.983847 0.910103
O O14 0.049051 0.077242 0.558473
O O15 0.500000 0.500000 0.500000
O O16 0.688571 0.557796 0.147972
O O17 0.250000 0.250000 0.500000
#
# Coordination Sequence:
#
# PCOD9260541 Si02
#       8
#     8   8   8   8   4   8   8   8
#     4  11  21  41  66  91 126 170 216 262 316 377
#     4  11  22  39  67  94 124 167 219 266 318 390
#     4  10  19  38  62  91 123 161 209 261 309 379
#     4  11  21  39  69  89 124 162 223 259 305 391
#     4  10  22  34  64  86 126 164 198 260 332 364
#     4  11  24  42  61  93 131 163 213 268 325 387
#     4  10  18  37  66  92 111 164 217 260 304 369
#     4  11  23  39  63  94 128 172 197 264 332 369
#
# _framework density 19.535319000000001
#
# number of rings (size 3 to 8) (size 9 to 14) (size 15 to 20)
#    0.000    1.333    4.000    4.400    0.933    0.533 
#    2.400    0.000    1.467    0.000    0.000    0.000 
#    0.000    0.000    0.000    0.000    0.000    0.000 
#
# Total GULP energy -167096.827593 kJ/mol
# GULP energy per Si atom -5569.894253 kJ/mol
# Density = 1.949086 g / cm^3
# Si number density = 19.535319 Si / 1000 Ang^3
#
#
#
# Elastic Constant Matrix: (Units=GPa)
#
#
# Indices 1 2 3 4 5 6 
#
# 1 45.2110 24.4092 29.0138 0.0000 -6.2656 0.0000
# 2 24.4092 92.5419 41.7340 0.0000 10.7928 0.0000
# 3 29.0138 41.7340 129.5778 0.0000 -4.3705 0.0000
# 4 0.0000 0.0000 0.0000 27.4405 0.0000 4.6851
# 5 -6.2656 10.7928 -4.3705 0.0000 36.1579 0.0000
# 6 0.0000 0.0000 0.0000 4.6851 0.0000 36.7166
#
#
#
# Elastic Compliance Matrix: (Units=1/GPa)
#
#
# Indices 1 2 3 4 5 6 
#
# 1 0.029284 -0.006584 -0.004216 0.000000 0.006530 0.000000
# 2 -0.006584 0.014820 -0.003501 0.000000 -0.005988 0.000000
# 3 -0.004216 -0.003501 0.009840 0.000000 0.001504 0.000000
# 4 0.000000 0.000000 0.000000 0.037254 0.000000 -0.004754
# 5 0.006530 -0.005988 0.001504 0.000000 0.030757 0.000000
# 6 0.000000 0.000000 0.000000 -0.004754 0.000000 0.027842
#
#
# Mechanical properties :
#
#
# Convention : Reuss Voigt Hill
#
# Bulk Modulus (GPa) = 39.46170 50.84940 45.15555
# Shear Modulus (GPa) = 26.76001 31.54124 29.15063
#
# Velocity S-wave (km/s) = 3.70513 4.02254 3.86709
# Velocity P-wave (km/s) = 6.20871 6.90365 6.56538
#
# Compressibility (1/GPa) = 0.02534103
#
# Stress axis : x y z
#
# Youngs Moduli (GPa) = 34.14838 67.47781 101.62999
#
# Poissons Ratio (x) = 0.44430 0.42848
# Poissons Ratio (y) = 0.22484 0.35578
# Poissons Ratio (z) = 0.14397 0.23622
#
# Static dielectric constant tensor:
#      x y z
#    x 1.758260 0.000000 -0.044030 
#    y 0.000000 1.670910 0.000000 
#    z -0.044030 0.000000 1.695250 
# 
# From -- ./inp_files/123976.got.cif
#   From: 2010.05.17/outbox.cif.g08.bks.cpg/sg15_62_cif.got.tgz:123976.got - 2010.06.03 18:47:42.
