data_PCOD9260289
_publ_section_title
;
Structure prediction by ZEFSAII (Michael W. Deem and Ramdas Pophale) SiO2 
 PCOD9260289
Probable space group: C 2/C
;
_chemical_formula_sum "Si O2"
_cell_formula_units_Z 52
_cell_length_a 11.442638
_cell_length_b 14.837315
_cell_length_c 17.760051
_cell_angle_alpha 90.000000
_cell_angle_beta 116.890416
_cell_angle_gamma 90.000000
_cell_volume 2689.235259
_symmetry_space_group_name_H-M "C 2/C"
_symmetry_group_IT_number 15
_symmetry_cell_setting 'monoclinic'
loop_
_space_group_symop_operation_xyz
x,y,z
-x,y,1/2-z
-x,-y,-z
x,-y,1/2+z
1/2+x,1/2+y,z
1/2-x,1/2+y,1/2-z
1/2-x,1/2-y,-z
1/2+x,1/2-y,1/2+z
loop_
_atom_site_type_symbol
_atom_site_label
_atom_site_fract_x
_atom_site_fract_y
_atom_site_fract_z
Si Si1 0.239144 0.857006 0.504471
Si Si2 0.500000 0.229543 0.750000
Si Si3 0.926498 0.042654 0.658940
Si Si4 0.784920 0.118083 0.207712
Si Si5 0.085468 0.910668 0.606986
Si Si6 0.906782 0.733444 0.563149
Si Si7 0.484485 0.903234 0.955401
O O1 0.250000 0.750000 0.500000
O O2 0.181416 0.895711 0.410114
O O3 0.147335 0.895565 0.543659
O O4 0.385912 0.891246 0.555479
O O5 0.629329 0.291473 0.775488
O O6 0.454284 0.187356 0.656491
O O7 0.000000 0.090275 0.750000
O O8 0.862540 0.957049 0.682198
O O9 0.016717 0.001825 0.618026
O O10 0.796709 0.099377 0.299198
O O11 0.641327 0.112893 0.133127
O O12 0.977243 0.831247 0.584613
O O13 0.750000 0.750000 0.500000
O O14 0.967372 0.672550 0.514986
O O15 0.500000 0.000000 0.000000
#
# Coordination Sequence:
#
# PCOD9260289 Si02
#       7
#     8   4   8   8   8   8   8
#     4  12  25  41  57  94 137 167 197 257 325 381
#     4  10  18  36  68  94 120 154 222 270 302 366
#     4  10  19  41  69  89 115 166 223 255 303 375
#     4  10  18  38  67  91 115 165 210 262 312 362
#     4  10  21  40  65  92 123 164 219 257 301 389
#     4  11  20  38  66  97 122 161 216 263 316 364
#     4  12  24  40  65  89 133 167 202 257 328 377
#
# _framework density 19.336352999999999
#
# number of rings (size 3 to 8) (size 9 to 14) (size 15 to 20)
#    0.000    1.231    8.462    0.462    0.000    0.615 
#    2.769    3.077    0.000    0.000    0.000    0.000 
#    0.000    0.000    0.000    0.000    0.000    0.000 
#
# Total GULP energy -144767.040191 kJ/mol
# GULP energy per Si atom -5567.963084 kJ/mol
# Density = 1.929234 g / cm^3
# Si number density = 19.336353 Si / 1000 Ang^3
#
#
#
# Elastic Constant Matrix: (Units=GPa)
#
#
# Indices 1 2 3 4 5 6 
#
# 1 87.7066 5.5751 49.1190 0.0000 11.5266 0.0000
# 2 5.5751 41.1571 24.6019 0.0000 4.7621 0.0000
# 3 49.1190 24.6019 164.9528 0.0000 21.8684 0.0000
# 4 0.0000 0.0000 0.0000 20.3819 0.0000 7.0849
# 5 11.5266 4.7621 21.8684 0.0000 39.9687 0.0000
# 6 0.0000 0.0000 0.0000 7.0849 0.0000 15.2701
#
#
#
# Elastic Compliance Matrix: (Units=1/GPa)
#
#
# Indices 1 2 3 4 5 6 
#
# 1 0.013831 0.000722 -0.003974 0.000000 -0.001900 0.000000
# 2 0.000722 0.026756 -0.004049 0.000000 -0.001181 0.000000
# 3 -0.003974 -0.004049 0.008231 0.000000 -0.002875 0.000000
# 4 0.000000 0.000000 0.000000 0.058498 0.000000 -0.027141
# 5 -0.001900 -0.001181 -0.002875 0.000000 0.027281 0.000000
# 6 0.000000 0.000000 0.000000 -0.027141 0.000000 0.078080
#
#
# Mechanical properties :
#
#
# Convention : Reuss Voigt Hill
#
# Bulk Modulus (GPa) = 29.22642 50.26762 39.74702
# Shear Modulus (GPa) = 20.94806 29.42552 25.18679
#
# Velocity S-wave (km/s) = 3.29500 3.90522 3.61302
# Velocity P-wave (km/s) = 5.44276 6.81082 6.16485
#
# Compressibility (1/GPa) = 0.03421562
#
# Stress axis : x y z
#
# Youngs Moduli (GPa) = 72.29978 37.37440 121.49439
#
# Poissons Ratio (x) = -0.02699 0.48287
# Poissons Ratio (y) = -0.05220 0.49193
# Poissons Ratio (z) = 0.28735 0.15133
#
# Static dielectric constant tensor:
#      x y z
#    x 1.799890 0.000000 0.307210 
#    y 0.000000 1.640030 0.000000 
#    z 0.307210 0.000000 2.722240 
# 
# From -- ./inp_files/198016.got.cif
#   From: 2010.05.17/outbox.cif.g08.bks.cpg/sg15_100_cif.got.tgz:198016.got - 2010.06.03 18:47:42.
