data_PCOD9260313
_publ_section_title
;
Structure prediction by ZEFSAII (Michael W. Deem and Ramdas Pophale) SiO2 
 PCOD9260313
Probable space group: C 2/C
;
_chemical_formula_sum "Si O2"
_cell_formula_units_Z 48
_cell_length_a 21.980608
_cell_length_b 25.836181
_cell_length_c 9.481899
_cell_angle_alpha 90.000000
_cell_angle_beta 27.405348
_cell_angle_gamma 90.000000
_cell_volume 2478.494451
_symmetry_space_group_name_H-M "C 2/C"
_symmetry_group_IT_number 15
_symmetry_cell_setting 'monoclinic'
loop_
_space_group_symop_operation_xyz
x,y,z
-x,y,1/2-z
-x,-y,-z
x,-y,1/2+z
1/2+x,1/2+y,z
1/2-x,1/2+y,1/2-z
1/2-x,1/2-y,-z
1/2+x,1/2-y,1/2+z
loop_
_atom_site_type_symbol
_atom_site_label
_atom_site_fract_x
_atom_site_fract_y
_atom_site_fract_z
Si Si1 0.373730 0.814056 0.864667
Si Si2 0.500000 0.298585 0.750000
Si Si3 0.524179 0.560212 0.422868
Si Si4 0.615469 0.776454 0.222476
Si Si5 0.808708 0.892334 0.162231
Si Si6 0.500000 0.624300 0.750000
Si Si7 0.266923 0.300188 0.645761
O O1 0.530199 0.806713 0.512863
O O2 0.301549 0.813375 0.860400
O O3 0.336339 0.870136 0.007724
O O4 0.320703 0.759197 0.038102
O O5 0.485244 0.265505 0.638816
O O6 0.622417 0.336524 0.498990
O O7 0.500000 0.500000 0.500000
O O8 0.391009 0.581998 0.620974
O O9 0.545795 0.589313 0.525251
O O10 0.645729 0.573993 0.066607
O O11 0.750000 0.750000 0.000000
O O12 0.663448 0.807253 0.986311
O O13 0.613670 0.661519 0.572539
#
# Coordination Sequence:
#
# PCOD9260313 Si02
#       7
#     8   4   8   8   8   4   8
#     4  11  20  38  53  80 125 180 204 244 328 383
#     4  10  18  37  50  80 126 164 199 252 290 382
#     4  10  22  39  63  93 124 154 216 286 335 379
#     4  12  23  33  54  82 128 172 222 251 295 375
#     4  10  21  37  62  83 125 171 196 253 348 383
#     4  12  22  35  60  98 120 160 219 264 326 382
#     4  11  22  32  54  84 125 169 208 256 301 394
#
# _framework density 19.366596000000001
#
# number of rings (size 3 to 8) (size 9 to 14) (size 15 to 20)
#    0.000    1.333    5.000    3.000    7.000    0.000 
#    0.000    0.000    0.000    0.000    0.000    7.000 
#    0.000    0.000    0.000    0.000    0.000    0.000 
#
# Total GULP energy -133905.368696 kJ/mol
# GULP energy per Si atom -5579.390362 kJ/mol
# Density = 1.932252 g / cm^3
# Si number density = 19.366596 Si / 1000 Ang^3
#
#
#
# Elastic Constant Matrix: (Units=GPa)
#
#
# Indices 1 2 3 4 5 6 
#
# 1 87.6649 34.8191 20.8368 0.0032 5.3847 -0.0024
# 2 34.8191 114.6276 46.6615 0.0027 5.8233 -0.0024
# 3 20.8368 46.6615 106.8006 0.0043 2.6483 -0.0050
# 4 0.0032 0.0027 0.0043 17.9852 -0.0018 -2.1918
# 5 5.3847 5.8233 2.6483 -0.0018 25.8139 0.0028
# 6 -0.0024 -0.0024 -0.0050 -2.1918 0.0028 13.0602
#
#
#
# Elastic Compliance Matrix: (Units=1/GPa)
#
#
# Indices 1 2 3 4 5 6 
#
# 1 0.013145 -0.003495 -0.000992 -0.000002 -0.001852 0.000002
# 2 -0.003495 0.011636 -0.004366 0.000000 -0.001448 0.000000
# 3 -0.000992 -0.004366 0.011464 -0.000002 0.000016 0.000003
# 4 -0.000002 0.000000 -0.000002 0.056762 0.000004 0.009526
# 5 -0.001852 -0.001448 0.000016 0.000004 0.039450 -0.000009
# 6 0.000002 0.000000 0.000003 0.009526 -0.000009 0.078167
#
#
# Mechanical properties :
#
#
# Convention : Reuss Voigt Hill
#
# Bulk Modulus (GPa) = 53.93948 57.08089 55.51018
# Shear Modulus (GPa) = 21.32105 25.15691 23.23898
#
# Velocity S-wave (km/s) = 3.32161 3.60805 3.46779
# Velocity P-wave (km/s) = 6.52863 6.84801 6.69023
#
# Compressibility (1/GPa) = 0.01853930
#
# Stress axis : x y z
#
# Youngs Moduli (GPa) = 76.07626 85.93655 87.23017
#
# Poissons Ratio (x) = 0.30036 0.08650
# Poissons Ratio (y) = 0.26589 0.38087
# Poissons Ratio (z) = 0.07544 0.37522
#
# Static dielectric constant tensor:
#      x y z
#    x 1.718490 0.000000 0.055030 
#    y 0.000000 1.655420 -0.000010 
#    z 0.055030 -0.000010 1.679740 
# 
# From -- ./inp_files/59094.got.cif
#   From: 2010.05.17/outbox.cif.g08.bks.cpg/sg15_30_cif.got.tgz:59094.got - 2010.06.03 18:47:42.
