data_PCOD9260239
_publ_section_title
;
Structure prediction by ZEFSAII (Michael W. Deem and Ramdas Pophale) SiO2 
 PCOD9260239
Probable space group: C 2/C
;
_chemical_formula_sum "Si O2"
_cell_formula_units_Z 52
_cell_length_a 12.697981
_cell_length_b 13.237737
_cell_length_c 19.303495
_cell_angle_alpha 90.000000
_cell_angle_beta 137.308316
_cell_angle_gamma 90.000000
_cell_volume 2200.128304
_symmetry_space_group_name_H-M "C 2/C"
_symmetry_group_IT_number 15
_symmetry_cell_setting 'monoclinic'
loop_
_space_group_symop_operation_xyz
x,y,z
-x,y,1/2-z
-x,-y,-z
x,-y,1/2+z
1/2+x,1/2+y,z
1/2-x,1/2+y,1/2-z
1/2-x,1/2-y,-z
1/2+x,1/2-y,1/2+z
loop_
_atom_site_type_symbol
_atom_site_label
_atom_site_fract_x
_atom_site_fract_y
_atom_site_fract_z
Si Si1 0.943140 0.125294 0.870581
Si Si2 0.200672 0.795329 0.065676
Si Si3 0.575230 0.114264 0.920910
Si Si4 0.908939 0.893399 0.851186
Si Si5 0.269702 0.200206 0.838564
Si Si6 0.741980 0.424849 0.454496
Si Si7 0.500000 0.562863 0.250000
O O1 0.859701 0.194252 0.886279
O O2 0.893240 0.166077 0.771624
O O3 0.881171 0.011124 0.850410
O O4 0.129073 0.115827 0.960087
O O5 0.365606 0.841053 0.123578
O O6 0.174088 0.683607 0.023112
O O7 0.077318 0.864698 0.963315
O O8 0.399910 0.140825 0.855819
O O9 0.622351 0.998216 0.953634
O O10 0.795660 0.817197 0.835054
O O11 0.917306 0.877250 0.772326
O O12 0.294663 0.163516 0.928653
O O13 0.627588 0.495209 0.351871
#
# Coordination Sequence:
#
# PCOD9260239 Si02
#       7
#     8   8   8   8   8   8   4
#     4  11  22  38  67  85 116 163 203 238 296 361
#     4  10  21  38  62  95 116 151 201 251 302 345
#     4  10  22  37  62  90 125 149 197 258 295 349
#     4  10  21  37  61  89 118 151 198 253 284 357
#     4  11  23  37  59  93 123 151 201 251 297 343
#     4  11  20  41  61  86 116 164 201 236 291 370
#     4  10  18  36  66  82 106 156 210 232 282 346
#
# _framework density 23.634986000000001
#
# number of rings (size 3 to 8) (size 9 to 14) (size 15 to 20)
#    0.000    1.538    6.154    0.923    2.154    0.615 
#    0.000    3.077   10.154    0.000    0.000    0.000 
#    0.000    0.000    0.000    0.000    0.000    0.000 
#
# Total GULP energy -145345.869003 kJ/mol
# GULP energy per Si atom -5590.225731 kJ/mol
# Density = 2.358119 g / cm^3
# Si number density = 23.634986 Si / 1000 Ang^3
#
#
#
# Elastic Constant Matrix: (Units=GPa)
#
#
# Indices 1 2 3 4 5 6 
#
# 1 98.7225 30.2354 -3.2033 0.0000 -18.5657 0.0000
# 2 30.2354 90.8033 -2.2849 0.0000 -2.1503 0.0000
# 3 -3.2033 -2.2849 35.0567 0.0000 -4.9465 0.0000
# 4 0.0000 0.0000 0.0000 17.8557 0.0000 -2.7606
# 5 -18.5657 -2.1503 -4.9465 0.0000 29.1094 0.0000
# 6 0.0000 0.0000 0.0000 -2.7606 0.0000 42.4711
#
#
#
# Elastic Compliance Matrix: (Units=1/GPa)
#
#
# Indices 1 2 3 4 5 6 
#
# 1 0.013021 -0.004085 0.002103 0.000000 0.008360 0.000000
# 2 -0.004085 0.012339 0.000197 0.000000 -0.001660 0.000000
# 3 0.002103 0.000197 0.029632 0.000000 0.006391 0.000000
# 4 0.000000 0.000000 0.000000 0.056573 0.000000 0.003677
# 5 0.008360 -0.001660 0.006391 0.000000 0.040649 0.000000
# 6 0.000000 0.000000 0.000000 0.003677 0.000000 0.023784
#
#
# Mechanical properties :
#
#
# Convention : Reuss Voigt Hill
#
# Bulk Modulus (GPa) = 19.44705 30.45297 24.95001
# Shear Modulus (GPa) = 25.41839 31.20959 28.31399
#
# Velocity S-wave (km/s) = 3.28297 3.63779 3.46492
# Velocity P-wave (km/s) = 4.75568 5.52787 5.15625
#
# Compressibility (1/GPa) = 0.05142169
#
# Stress axis : x y z
#
# Youngs Moduli (GPa) = 76.79973 81.04666 33.74727
#
# Poissons Ratio (x) = 0.33105 -0.07098
# Poissons Ratio (y) = 0.31371 -0.00664
# Poissons Ratio (z) = -0.16152 -0.01594
#
# Static dielectric constant tensor:
#      x y z
#    x 1.946560 0.000000 -0.014280 
#    y 0.000000 1.906620 0.000000 
#    z -0.014280 0.000000 1.909250 
# 
# From -- ./inp_files/197350.got.cif
#   From: 2010.05.17/outbox.cif.g08.bks.cpg/sg15_99_cif.got.tgz:197350.got - 2010.06.03 18:47:42.
