data_PCOD9260135
_publ_section_title
;
Structure prediction by ZEFSAII (Michael W. Deem and Ramdas Pophale) SiO2 
 PCOD9260135
Probable space group: C 2/C
;
_chemical_formula_sum "Si O2"
_cell_formula_units_Z 60
_cell_length_a 8.021852
_cell_length_b 28.577709
_cell_length_c 11.512091
_cell_angle_alpha 90.000000
_cell_angle_beta 90.718437
_cell_angle_gamma 90.000000
_cell_volume 2638.895096
_symmetry_space_group_name_H-M "C 2/C"
_symmetry_group_IT_number 15
_symmetry_cell_setting 'monoclinic'
loop_
_space_group_symop_operation_xyz
x,y,z
-x,y,1/2-z
-x,-y,-z
x,-y,1/2+z
1/2+x,1/2+y,z
1/2-x,1/2+y,1/2-z
1/2-x,1/2-y,-z
1/2+x,1/2-y,1/2+z
loop_
_atom_site_type_symbol
_atom_site_label
_atom_site_fract_x
_atom_site_fract_y
_atom_site_fract_z
Si Si1 0.027737 0.930067 0.888399
Si Si2 0.672418 0.232832 0.316531
Si Si3 0.000000 0.066960 0.750000
Si Si4 0.780568 0.981601 0.056910
Si Si5 0.697188 0.184860 0.549185
Si Si6 0.809929 0.872037 0.435056
Si Si7 0.541512 0.092219 0.613196
Si Si8 0.832358 0.274830 0.109111
O O1 0.000000 0.926936 0.750000
O O2 0.180965 0.963635 0.933365
O O3 0.074259 0.880870 0.951185
O O4 0.871440 0.957073 0.947498
O O5 0.500000 0.223527 0.250000
O O6 0.710316 0.193265 0.411850
O O7 0.667966 0.281975 0.388009
O O8 0.808075 0.241577 0.218507
O O9 0.878491 0.036247 0.671641
O O10 0.893070 0.097181 0.836717
O O11 0.600973 0.958305 0.070679
O O12 0.684687 0.131221 0.588708
O O13 0.519682 0.208092 0.586448
O O14 0.621323 0.889624 0.454231
O O15 0.779955 0.821229 0.380892
O O16 0.500000 0.092182 0.750000
O O17 0.750000 0.250000 0.000000
#
# Coordination Sequence:
#
# PCOD9260135 Si02
#       8
#     8   8   4   8   8   8   8   8
#     4  10  22  44  63  93 135 170 211 269 324 386
#     4  11  22  38  63  87 119 166 217 268 322 389
#     4  10  18  36  62  98 116 156 212 266 308 370
#     4  10  21  37  68  93 124 168 213 261 326 386
#     4  10  23  41  59  92 128 163 208 279 338 367
#     4  10  23  37  65  94 127 163 222 266 325 384
#     4  11  21  40  64  98 132 165 215 278 329 391
#     4  11  22  41  62  88 127 170 213 270 322 386
#
# _framework density 22.736789000000002
#
# number of rings (size 3 to 8) (size 9 to 14) (size 15 to 20)
#    0.000    1.600    3.333    2.000    0.933    1.600 
#    2.400    0.667    0.000    0.000    0.000    0.000 
#    0.000    0.000    0.000    0.000    0.000    0.000 
#
# Total GULP energy -167648.824255 kJ/mol
# GULP energy per Si atom -5588.294142 kJ/mol
# Density = 2.268504 g / cm^3
# Si number density = 22.736789 Si / 1000 Ang^3
#
#
#
# Elastic Constant Matrix: (Units=GPa)
#
#
# Indices 1 2 3 4 5 6 
#
# 1 43.2128 4.5262 9.2787 0.0000 0.8353 0.0000
# 2 4.5262 47.0417 7.7504 0.0000 -10.6182 0.0000
# 3 9.2787 7.7504 147.8539 0.0000 -2.7643 0.0000
# 4 0.0000 0.0000 0.0000 17.2805 0.0000 -2.6355
# 5 0.8353 -10.6182 -2.7643 0.0000 27.7455 0.0000
# 6 0.0000 0.0000 0.0000 -2.6355 0.0000 31.2627
#
#
#
# Elastic Compliance Matrix: (Units=1/GPa)
#
#
# Indices 1 2 3 4 5 6 
#
# 1 0.023733 -0.002459 -0.001394 0.000000 -0.001794 0.000000
# 2 -0.002459 0.023688 -0.000918 0.000000 0.009048 0.000000
# 3 -0.001394 -0.000918 0.006906 0.000000 0.000379 0.000000
# 4 0.000000 0.000000 0.000000 0.058623 0.000000 0.004942
# 5 -0.001794 0.009048 0.000379 0.000000 0.039596 0.000000
# 6 0.000000 0.000000 0.000000 0.004942 0.000000 0.032404
#
#
# Mechanical properties :
#
#
# Convention : Reuss Voigt Hill
#
# Bulk Modulus (GPa) = 22.32908 31.24656 26.78782
# Shear Modulus (GPa) = 23.87549 29.69460 26.78504
#
# Velocity S-wave (km/s) = 3.24401 3.61780 3.43599
# Velocity P-wave (km/s) = 4.88605 5.58784 5.24869
#
# Compressibility (1/GPa) = 0.04478464
#
# Stress axis : x y z
#
# Youngs Moduli (GPa) = 42.13569 42.21566 144.79891
#
# Poissons Ratio (x) = 0.10380 0.20186
# Poissons Ratio (y) = 0.10360 0.13296
# Poissons Ratio (z) = 0.05874 0.03876
#
# Static dielectric constant tensor:
#      x y z
#    x 1.868960 0.000000 -0.007400 
#    y 0.000000 2.007250 0.000000 
#    z -0.007400 0.000000 1.829160 
# 
# From -- ./inp_files/82210.got.cif
#   From: 2010.05.17/outbox.cif.g08.bks.cpg/sg15_42_cif.got.tgz:82210.got - 2010.06.03 18:47:42.
