data_PCOD9260595
_publ_section_title
;
Structure prediction by ZEFSAII (Michael W. Deem and Ramdas Pophale) SiO2 
 PCOD9260595
Probable space group: C 2/C
;
_chemical_formula_sum "Si O2"
_cell_formula_units_Z 36
_cell_length_a 14.563811
_cell_length_b 7.108239
_cell_length_c 19.284769
_cell_angle_alpha 90.000000
_cell_angle_beta 40.681842
_cell_angle_gamma 90.000000
_cell_volume 1301.381316
_symmetry_space_group_name_H-M "C 2/C"
_symmetry_group_IT_number 15
_symmetry_cell_setting 'monoclinic'
loop_
_space_group_symop_operation_xyz
x,y,z
-x,y,1/2-z
-x,-y,-z
x,-y,1/2+z
1/2+x,1/2+y,z
1/2-x,1/2+y,1/2-z
1/2-x,1/2-y,-z
1/2+x,1/2-y,1/2+z
loop_
_atom_site_type_symbol
_atom_site_label
_atom_site_fract_x
_atom_site_fract_y
_atom_site_fract_z
Si Si1 0.695787 0.006255 0.898274
Si Si2 0.509710 0.102191 0.875114
Si Si3 0.219369 0.063496 0.858583
Si Si4 0.500000 0.663631 0.750000
Si Si5 0.047006 0.022201 0.586634
O O1 0.703036 0.786598 0.875647
O O2 0.852573 0.074415 0.810605
O O3 0.609284 0.112933 0.887632
O O4 0.618786 0.008448 0.016390
O O5 0.619133 0.023942 0.755082
O O6 0.451013 0.306411 0.884775
O O7 0.168077 0.968112 0.958826
O O8 0.102483 0.020570 0.867933
O O9 0.552416 0.686219 0.639683
#
# Coordination Sequence:
#
# PCOD9260595 Si02
#       5
#     8   8   8   4   8
#     4  10  22  33  62  80 113 141 192 218 284 311
#     4  10  18  38  55  86 102 154 184 225 252 356
#     4  10  18  38  55  86 102 154 184 225 252 356
#     4  12  20  38  50  92 112 142 168 252 276 320
#     4  10  22  33  62  80 113 141 192 218 284 311
#
# _framework density 27.662913
#
# number of rings (size 3 to 8) (size 9 to 14) (size 15 to 20)
#    0.000    1.778    4.444    0.000    0.000    3.556 
#    0.000    0.000    0.000   26.667    0.000    0.000 
#    0.000    0.000    0.000    0.000    0.000    0.000 
#
# Total GULP energy -100541.745398 kJ/mol
# GULP energy per Si atom -5585.652522 kJ/mol
# Density = 2.759995 g / cm^3
# Si number density = 27.662913 Si / 1000 Ang^3
#
#
#
# Elastic Constant Matrix: (Units=GPa)
#
#
# Indices 1 2 3 4 5 6 
#
# 1 30.5498 11.4907 1.7627 0.0000 1.2160 0.0000
# 2 11.4907 87.9150 23.5488 0.0000 11.7426 0.0000
# 3 1.7627 23.5488 216.6996 0.0000 15.4928 0.0000
# 4 0.0000 0.0000 0.0000 46.4910 0.0000 2.9227
# 5 1.2160 11.7426 15.4928 0.0000 53.9096 0.0000
# 6 0.0000 0.0000 0.0000 2.9227 0.0000 -11.1501
#
#
#
# Elastic Compliance Matrix: (Units=1/GPa)
#
#
# Indices 1 2 3 4 5 6 
#
# 1 0.034437 -0.004578 0.000206 0.000000 0.000161 0.000000
# 2 -0.004578 0.012593 -0.001167 0.000000 -0.002305 0.000000
# 3 0.000206 -0.001167 0.004821 0.000000 -0.001136 0.000000
# 4 0.000000 0.000000 0.000000 0.021161 0.000000 0.005547
# 5 0.000161 -0.002305 -0.001136 0.000000 0.019374 0.000000
# 6 0.000000 0.000000 0.000000 0.005547 0.000000 -0.088232
#
#
# Mechanical properties :
#
#
# Convention : Reuss Voigt Hill
#
# Bulk Modulus (GPa) = 24.52515 45.41875 34.97195
# Shear Modulus (GPa) = 173.47319 37.74093 105.60706
#
# Velocity S-wave (km/s) = 7.92753 3.69767 6.18541
# Velocity P-wave (km/s) = 9.62701 5.88937 7.98010
#
# Compressibility (1/GPa) = 0.04077447
#
# Stress axis : x y z
#
# Youngs Moduli (GPa) = 29.03858 79.40793 207.42617
#
# Poissons Ratio (x) = 0.36350 -0.04269
# Poissons Ratio (y) = 0.13293 0.24196
# Poissons Ratio (z) = -0.00598 0.09263
#
# Static dielectric constant tensor:
#      x y z
#    x 2.109430 0.000000 0.097660 
#    y 0.000000 2.211950 0.000000 
#    z 0.097660 0.000000 2.175090 
# 
# From -- ./inp_files/158445.got.cif
#   From: 2010.05.17/outbox.cif.g08.bks.cpg/sg15_80_cif.got.tgz:158445.got - 2010.06.03 18:47:42.
