data_PCOD9260368
_publ_section_title
;
Structure prediction by ZEFSAII (Michael W. Deem and Ramdas Pophale) SiO2 
 PCOD9260368
Probable space group: C 2/C
;
_chemical_formula_sum "Si O2"
_cell_formula_units_Z 52
_cell_length_a 8.885472
_cell_length_b 19.274391
_cell_length_c 21.006520
_cell_angle_alpha 90.000000
_cell_angle_beta 130.552725
_cell_angle_gamma 90.000000
_cell_volume 2733.500417
_symmetry_space_group_name_H-M "C 2/C"
_symmetry_group_IT_number 15
_symmetry_cell_setting 'monoclinic'
loop_
_space_group_symop_operation_xyz
x,y,z
-x,y,1/2-z
-x,-y,-z
x,-y,1/2+z
1/2+x,1/2+y,z
1/2-x,1/2+y,1/2-z
1/2-x,1/2-y,-z
1/2+x,1/2-y,1/2+z
loop_
_atom_site_type_symbol
_atom_site_label
_atom_site_fract_x
_atom_site_fract_y
_atom_site_fract_z
Si Si1 0.349410 0.380367 0.301170
Si Si2 0.617240 0.502618 0.346332
Si Si3 0.000000 0.407804 0.750000
Si Si4 0.043489 0.514396 0.648417
Si Si5 0.439757 0.771696 0.307148
Si Si6 0.055326 0.870571 0.621925
Si Si7 0.230447 0.124052 0.570571
O O1 0.549865 0.423018 0.341686
O O2 0.181587 0.431023 0.225319
O O3 0.281312 0.306353 0.252656
O O4 0.329991 0.377311 0.371983
O O5 0.500000 0.523145 0.250000
O O6 0.844699 0.504031 0.386264
O O7 0.536787 0.557639 0.375390
O O8 0.028757 0.452188 0.693708
O O9 0.208350 0.371583 0.818548
O O10 0.832261 0.550562 0.581737
O O11 0.500000 0.777207 0.250000
O O12 0.476361 0.694169 0.340183
O O13 0.593918 0.819771 0.387967
O O14 0.948338 0.859653 0.525301
#
# Coordination Sequence:
#
# PCOD9260368 Si02
#       7
#     8   8   4   8   8   8   8
#     4   9  17  37  61  83 110 158 193 232 283 359
#     4  10  19  34  60  84 116 147 198 240 288 344
#     4  12  22  36  56  84 124 150 194 240 292 352
#     4  10  18  37  59  85 115 154 193 240 287 356
#     4   9  20  38  63  82 113 161 196 232 289 358
#     4  12  23  36  57  89 120 152 194 249 290 341
#     4  10  20  37  61  85 117 152 199 237 292 348
#
# _framework density 19.023228
#
# number of rings (size 3 to 8) (size 9 to 14) (size 15 to 20)
#    0.000    1.846    4.615    1.846    0.000    3.077 
#    6.923    0.000    0.000    1.846    0.000    0.000 
#    0.000    0.000    0.000    0.000    0.000    0.000 
#
# Total GULP energy -144786.044633 kJ/mol
# GULP energy per Si atom -5568.694024 kJ/mol
# Density = 1.897993 g / cm^3
# Si number density = 19.023228 Si / 1000 Ang^3
#
#
#
# Elastic Constant Matrix: (Units=GPa)
#
#
# Indices 1 2 3 4 5 6 
#
# 1 62.5402 10.2912 36.5473 0.0000 4.0419 0.0000
# 2 10.2912 44.6340 31.4091 0.0000 4.9697 0.0000
# 3 36.5473 31.4091 97.0002 0.0000 8.9106 0.0000
# 4 0.0000 0.0000 0.0000 15.3550 0.0000 -4.6552
# 5 4.0419 4.9697 8.9106 0.0000 16.2395 0.0000
# 6 0.0000 0.0000 0.0000 -4.6552 0.0000 20.2079
#
#
#
# Elastic Compliance Matrix: (Units=1/GPa)
#
#
# Indices 1 2 3 4 5 6 
#
# 1 0.020550 0.000983 -0.007965 0.000000 -0.001045 0.000000
# 2 0.000983 0.029302 -0.009491 0.000000 -0.004004 0.000000
# 3 -0.007965 -0.009491 0.016780 0.000000 -0.004321 0.000000
# 4 0.000000 0.000000 0.000000 0.070015 0.000000 0.016129
# 5 -0.001045 -0.004004 -0.004321 0.000000 0.065435 0.000000
# 6 0.000000 0.000000 0.000000 0.016129 0.000000 0.053201
#
#
# Mechanical properties :
#
#
# Convention : Reuss Voigt Hill
#
# Bulk Modulus (GPa) = 29.68470 40.07440 34.87955
# Shear Modulus (GPa) = 16.69678 18.75558 17.72618
#
# Velocity S-wave (km/s) = 2.96582 3.14336 3.05588
# Velocity P-wave (km/s) = 5.23130 5.85543 5.55214
#
# Compressibility (1/GPa) = 0.03368738
#
# Stress axis : x y z
#
# Youngs Moduli (GPa) = 48.66136 34.12700 59.59326
#
# Poissons Ratio (x) = -0.03356 0.47467
# Poissons Ratio (y) = -0.04785 0.56559
# Poissons Ratio (z) = 0.38760 0.32389
#
# Static dielectric constant tensor:
#      x y z
#    x 1.720760 0.000000 0.031460 
#    y 0.000000 1.699670 0.000000 
#    z 0.031460 0.000000 1.644850 
# 
# From -- ./inp_files/233128.got.cif
#   From: 2010.05.17/outbox.cif.g08.bks.cpg/sg15_117_cif.got.tgz:233128.got - 2010.06.03 18:47:42.
