data_PCOD9260278
_publ_section_title
;
Structure prediction by ZEFSAII (Michael W. Deem and Ramdas Pophale) SiO2 
 PCOD9260278
Probable space group: C 2/C
;
_chemical_formula_sum "Si O2"
_cell_formula_units_Z 36
_cell_length_a 9.537279
_cell_length_b 11.454170
_cell_length_c 18.142933
_cell_angle_alpha 90.000000
_cell_angle_beta 134.101221
_cell_angle_gamma 90.000000
_cell_volume 1423.270575
_symmetry_space_group_name_H-M "C 2/C"
_symmetry_group_IT_number 15
_symmetry_cell_setting 'monoclinic'
loop_
_space_group_symop_operation_xyz
x,y,z
-x,y,1/2-z
-x,-y,-z
x,-y,1/2+z
1/2+x,1/2+y,z
1/2-x,1/2+y,1/2-z
1/2-x,1/2-y,-z
1/2+x,1/2-y,1/2+z
loop_
_atom_site_type_symbol
_atom_site_label
_atom_site_fract_x
_atom_site_fract_y
_atom_site_fract_z
Si Si1 0.811202 0.163378 0.225834
Si Si2 0.914496 0.345881 0.487832
Si Si3 0.573755 0.610078 0.075446
Si Si4 0.500000 0.104979 0.750000
Si Si5 0.674901 0.053316 0.961221
O O1 0.607683 0.152004 0.109498
O O2 0.000000 0.113946 0.250000
O O3 0.805357 0.106926 0.304633
O O4 0.857541 0.302861 0.239809
O O5 0.849015 0.215379 0.446484
O O6 0.991618 0.396904 0.438890
O O7 0.770187 0.436924 0.473308
O O8 0.500000 0.500000 0.000000
O O9 0.356303 0.641355 0.027614
O O10 0.610088 0.034008 0.853225
#
# Coordination Sequence:
#
# PCOD9260278 Si02
#       5
#     8   8   8   4   8
#     4  10  19  37  66  88 121 159 218 251 317 382
#     4  11  22  40  64  93 122 163 213 267 310 383
#     4  12  24  41  62  92 134 170 207 262 323 384
#     4  10  18  36  68  84 120 156 220 260 312 386
#     4  11  22  39  66  91 120 162 217 261 318 374
#
# _framework density 25.293854
#
# number of rings (size 3 to 8) (size 9 to 14) (size 15 to 20)
#    0.667    0.444    6.667    0.667    3.111    0.889 
#    0.000    0.000    2.444    0.000    0.000    0.000 
#    0.000    0.000    0.000    0.000    0.000    0.000 
#
# Total GULP energy -100522.076061 kJ/mol
# GULP energy per Si atom -5584.559781 kJ/mol
# Density = 2.523628 g / cm^3
# Si number density = 25.293854 Si / 1000 Ang^3
#
#
#
# Elastic Constant Matrix: (Units=GPa)
#
#
# Indices 1 2 3 4 5 6 
#
# 1 31.4618 -1.8525 1.6854 0.0000 -19.6459 0.0000
# 2 -1.8525 101.7322 12.1398 0.0000 -30.8188 0.0000
# 3 1.6854 12.1398 179.9894 0.0000 -35.0008 0.0000
# 4 0.0000 0.0000 0.0000 34.5229 0.0000 -19.2667
# 5 -19.6459 -30.8188 -35.0008 0.0000 46.0054 0.0000
# 6 0.0000 0.0000 0.0000 -19.2667 0.0000 35.5792
#
#
#
# Elastic Compliance Matrix: (Units=1/GPa)
#
#
# Indices 1 2 3 4 5 6 
#
# 1 0.053364 0.010633 0.005398 0.000000 0.034018 0.000000
# 2 0.010633 0.014579 0.001994 0.000000 0.015825 0.000000
# 3 0.005398 0.001994 0.007134 0.000000 0.009069 0.000000
# 4 0.000000 0.000000 0.000000 0.041512 0.000000 0.022479
# 5 0.034018 0.015825 0.009069 0.000000 0.053764 0.000000
# 6 0.000000 0.000000 0.000000 0.022479 0.000000 0.040279
#
#
# Mechanical properties :
#
#
# Convention : Reuss Voigt Hill
#
# Bulk Modulus (GPa) = 8.99853 37.45875 23.22864
# Shear Modulus (GPa) = 23.62682 43.30221 33.46452
#
# Velocity S-wave (km/s) = 3.05961 4.14208 3.64129
# Velocity P-wave (km/s) = 4.00586 6.14144 5.18480
#
# Compressibility (1/GPa) = 0.11112923
#
# Stress axis : x y z
#
# Youngs Moduli (GPa) = 18.73926 68.59048 140.16590
#
# Poissons Ratio (x) = -0.72933 -0.75667
# Poissons Ratio (y) = -0.19926 -0.27954
# Poissons Ratio (z) = -0.10116 -0.13679
#
# Static dielectric constant tensor:
#      x y z
#    x 2.259070 0.000000 0.024410 
#    y 0.000000 2.112590 0.000000 
#    z 0.024410 0.000000 1.952200 
# 
# From -- ./inp_files/117871.got.cif
#   From: 2010.05.17/outbox.cif.g08.bks.cpg/sg15_59_cif.got.tgz:117871.got - 2010.06.03 18:47:42.
