data_PCOD9260261
_publ_section_title
;
Structure prediction by ZEFSAII (Michael W. Deem and Ramdas Pophale) SiO2 
 PCOD9260261
Probable space group: C 2/C
;
_chemical_formula_sum "Si O2"
_cell_formula_units_Z 56
_cell_length_a 7.861484
_cell_length_b 16.393469
_cell_length_c 21.845351
_cell_angle_alpha 90.000000
_cell_angle_beta 107.255053
_cell_angle_gamma 90.000000
_cell_volume 2688.654344
_symmetry_space_group_name_H-M "C 2/C"
_symmetry_group_IT_number 15
_symmetry_cell_setting 'monoclinic'
loop_
_space_group_symop_operation_xyz
x,y,z
-x,y,1/2-z
-x,-y,-z
x,-y,1/2+z
1/2+x,1/2+y,z
1/2-x,1/2+y,1/2-z
1/2-x,1/2-y,-z
1/2+x,1/2-y,1/2+z
loop_
_atom_site_type_symbol
_atom_site_label
_atom_site_fract_x
_atom_site_fract_y
_atom_site_fract_z
Si Si1 0.117474 0.858830 0.176268
Si Si2 0.762617 0.690613 0.260177
Si Si3 0.290120 0.517690 0.236939
Si Si4 0.451059 0.323466 0.636424
Si Si5 0.848839 0.660400 0.577736
Si Si6 0.224170 0.426939 0.110497
Si Si7 0.370710 0.545476 0.033589
O O1 0.130127 0.773163 0.214190
O O2 0.238422 0.854224 0.128582
O O3 0.911607 0.879279 0.139730
O O4 0.198661 0.935032 0.222445
O O5 0.810746 0.596933 0.248380
O O6 0.680198 0.673499 0.319224
O O7 0.626961 0.709350 0.190026
O O8 0.500000 0.539691 0.250000
O O9 0.211336 0.491536 0.163993
O O10 0.376043 0.257319 0.580990
O O11 0.468862 0.407738 0.600744
O O12 0.741454 0.612455 0.514741
O O13 0.048832 0.626268 0.596486
O O14 0.245184 0.477285 0.050380
O O15 0.500000 0.500000 0.000000
#
# Coordination Sequence:
#
# PCOD9260261 Si02
#       7
#     8   8   8   8   8   8   8
#     4  10  22  39  68 100 130 166 215 267 338 384
#     4  10  18  36  68  97 125 167 214 268 330 401
#     4  10  18  36  66  93 129 171 207 268 333 397
#     4  10  20  39  65  95 124 170 217 263 334 391
#     4  11  24  40  68  92 127 174 216 268 320 395
#     4  11  22  42  64  94 131 169 216 267 325 384
#     4  12  23  42  65  93 129 177 221 268 321 386
#
# _framework density 20.828261000000001
#
# number of rings (size 3 to 8) (size 9 to 14) (size 15 to 20)
#    0.000    1.429    4.286    2.571    0.000    1.714 
#    0.000    2.143   12.571    0.000    0.000    0.000 
#    0.000    0.000    0.000    0.000    0.000    0.000 
#
# Total GULP energy -156053.027881 kJ/mol
# GULP energy per Si atom -5573.322424 kJ/mol
# Density = 2.078086 g / cm^3
# Si number density = 20.828261 Si / 1000 Ang^3
#
#
#
# Elastic Constant Matrix: (Units=GPa)
#
#
# Indices 1 2 3 4 5 6 
#
# 1 89.4002 43.0462 46.8833 0.0000 -5.3463 0.0000
# 2 43.0462 145.7945 52.1196 0.0000 1.4318 0.0000
# 3 46.8833 52.1196 84.1177 0.0000 -6.6379 0.0000
# 4 0.0000 0.0000 0.0000 37.3476 0.0000 -10.9078
# 5 -5.3463 1.4318 -6.6379 0.0000 7.8427 0.0000
# 6 0.0000 0.0000 0.0000 -10.9078 0.0000 7.7964
#
#
#
# Elastic Compliance Matrix: (Units=1/GPa)
#
#
# Indices 1 2 3 4 5 6 
#
# 1 0.016455 -0.002295 -0.007320 0.000000 0.005441 0.000000
# 2 -0.002295 0.009469 -0.005195 0.000000 -0.007690 0.000000
# 3 -0.007320 -0.005195 0.020218 0.000000 0.013071 0.000000
# 4 0.000000 0.000000 0.000000 0.045276 0.000000 0.063345
# 5 0.005441 -0.007690 0.013071 0.000000 0.143683 0.000000
# 6 0.000000 0.000000 0.000000 0.063345 0.000000 0.216889
#
#
# Mechanical properties :
#
#
# Convention : Reuss Voigt Hill
#
# Bulk Modulus (GPa) = 60.52300 67.04560 63.78430
# Shear Modulus (GPa) = 10.26447 22.41488 16.33968
#
# Velocity S-wave (km/s) = 2.22235 3.28407 2.80392
# Velocity P-wave (km/s) = 5.97548 6.82933 6.41662
#
# Compressibility (1/GPa) = 0.01652264
#
# Stress axis : x y z
#
# Youngs Moduli (GPa) = 60.77284 105.60567 49.46093
#
# Poissons Ratio (x) = 0.24237 0.36204
# Poissons Ratio (y) = 0.13947 0.25694
# Poissons Ratio (z) = 0.44484 0.54860
#
# Static dielectric constant tensor:
#      x y z
#    x 1.780360 0.000000 0.005750 
#    y 0.000000 1.814720 0.000000 
#    z 0.005750 0.000000 1.755390 
# 
# From -- ./inp_files/264389.got.cif
#   From: 2010.05.17/outbox.cif.g08.bks.cpg/sg15_133_cif.got.tgz:264389.got - 2010.06.03 18:47:42.
