data_PCOD9260672
_publ_section_title
;
Structure prediction by ZEFSAII (Michael W. Deem and Ramdas Pophale) SiO2 
 PCOD9260672
Probable space group: C 2/C
;
_chemical_formula_sum "Si O2"
_cell_formula_units_Z 44
_cell_length_a 12.689180
_cell_length_b 15.190647
_cell_length_c 26.934409
_cell_angle_alpha 90.000000
_cell_angle_beta 20.779328
_cell_angle_gamma 90.000000
_cell_volume 1841.890260
_symmetry_space_group_name_H-M "C 2/C"
_symmetry_group_IT_number 15
_symmetry_cell_setting 'monoclinic'
loop_
_space_group_symop_operation_xyz
x,y,z
-x,y,1/2-z
-x,-y,-z
x,-y,1/2+z
1/2+x,1/2+y,z
1/2-x,1/2+y,1/2-z
1/2-x,1/2-y,-z
1/2+x,1/2-y,1/2+z
loop_
_atom_site_type_symbol
_atom_site_label
_atom_site_fract_x
_atom_site_fract_y
_atom_site_fract_z
Si Si1 0.239601 0.107139 0.687201
Si Si2 0.500000 0.818199 0.250000
Si Si3 0.720756 0.148767 0.402133
Si Si4 0.799433 0.761002 0.419724
Si Si5 0.743062 0.562952 0.421308
Si Si6 0.695591 0.461945 0.313351
O O1 0.565519 0.109703 0.518904
O O2 0.223942 0.048007 0.742591
O O3 0.000000 0.085276 0.750000
O O4 0.117349 0.201557 0.762220
O O5 0.335776 0.749079 0.358644
O O6 0.319674 0.879351 0.291459
O O7 0.442453 0.165619 0.488615
O O8 0.000000 0.106638 0.250000
O O9 0.750000 0.750000 0.500000
O O10 0.732435 0.668263 0.422153
O O11 0.500000 0.500000 0.500000
O O12 0.643887 0.535876 0.520748
O O13 0.085511 0.538003 0.264574
#
# Coordination Sequence:
#
# PCOD9260672 Si02
#       6
#     8   4   8   8   8   8
#     4  10  23  41  67  94 131 182 232 273 336 422
#     4  10  18  38  60  92 142 160 214 290 346 396
#     4   9  19  37  62  94 128 164 224 286 328 393
#     4  11  20  41  68  92 135 185 228 272 343 422
#     4  12  23  41  67 100 137 177 223 289 356 408
#     4  12  23  42  63  97 139 176 221 284 348 418
#
# _framework density 23.888503
#
# number of rings (size 3 to 8) (size 9 to 14) (size 15 to 20)
#    0.545    0.727    5.455    0.000    0.000    6.545 
#    3.273    0.909    0.000    0.000    0.000    0.000 
#    0.000    0.000    0.000    0.000    0.000    0.000 
#
# Total GULP energy -122554.805247 kJ/mol
# GULP energy per Si atom -5570.672966 kJ/mol
# Density = 2.383413 g / cm^3
# Si number density = 23.888503 Si / 1000 Ang^3
#
#
#
# Elastic Constant Matrix: (Units=GPa)
#
#
# Indices 1 2 3 4 5 6 
#
# 1 80.6832 13.4888 -7.1074 0.0622 22.9015 0.0002
# 2 13.4888 65.7466 8.1572 0.2410 -0.3160 -0.0850
# 3 -7.1074 8.1572 147.3803 0.3081 15.8974 -0.1017
# 4 0.0622 0.2410 0.3081 19.2020 -0.0674 8.3456
# 5 22.9015 -0.3160 15.8974 -0.0674 31.1410 -0.0588
# 6 0.0002 -0.0850 -0.1017 8.3456 -0.0588 19.0882
#
#
#
# Elastic Compliance Matrix: (Units=1/GPa)
#
#
# Indices 1 2 3 4 5 6 
#
# 1 0.017263 -0.003927 0.002565 -0.000095 -0.014045 -0.000006
# 2 -0.003927 0.016221 -0.001498 -0.000230 0.003817 0.000177
# 3 0.002565 -0.001498 0.007617 -0.000172 -0.005790 0.000091
# 4 -0.000095 -0.000230 -0.000172 0.064304 0.000241 -0.028116
# 5 -0.014045 0.003817 -0.005790 0.000241 0.045436 0.000021
# 6 -0.000006 0.000177 0.000091 -0.028116 0.000021 0.064682
#
#
# Mechanical properties :
#
#
# Convention : Reuss Voigt Hill
#
# Bulk Modulus (GPa) = 28.26438 35.87635 32.07037
# Shear Modulus (GPa) = 21.45567 32.50434 26.98000
#
# Velocity S-wave (km/s) = 3.00018 3.69273 3.36432
# Velocity P-wave (km/s) = 4.88456 5.76476 5.34282
#
# Compressibility (1/GPa) = 0.03538022
#
# Stress axis : x y z
#
# Youngs Moduli (GPa) = 57.92582 61.64866 131.28899
#
# Poissons Ratio (x) = 0.24211 -0.33677
# Poissons Ratio (y) = 0.22749 0.19672
# Poissons Ratio (z) = -0.14859 0.09237
#
# Static dielectric constant tensor:
#      x y z
#    x 1.927660 0.000020 0.015940 
#    y 0.000020 1.922660 -0.000140 
#    z 0.015940 -0.000140 2.073650 
# 
# From -- ./inp_files/313946.got.cif
#   From: 2010.05.17/outbox.cif.g08.bks.cpg/sg15_157_cif.got.tgz:313946.got - 2010.06.03 18:47:42.
