data_PCOD9260504
_publ_section_title
;
Structure prediction by ZEFSAII (Michael W. Deem and Ramdas Pophale) SiO2 
 PCOD9260504
Probable space group: C 2/C
;
_chemical_formula_sum "Si O2"
_cell_formula_units_Z 64
_cell_length_a 19.212654
_cell_length_b 11.980383
_cell_length_c 25.054565
_cell_angle_alpha 90.000000
_cell_angle_beta 146.471910
_cell_angle_gamma 90.000000
_cell_volume 3185.341071
_symmetry_space_group_name_H-M "C 2/C"
_symmetry_group_IT_number 15
_symmetry_cell_setting 'monoclinic'
loop_
_space_group_symop_operation_xyz
x,y,z
-x,y,1/2-z
-x,-y,-z
x,-y,1/2+z
1/2+x,1/2+y,z
1/2-x,1/2+y,1/2-z
1/2-x,1/2-y,-z
1/2+x,1/2-y,1/2+z
loop_
_atom_site_type_symbol
_atom_site_label
_atom_site_fract_x
_atom_site_fract_y
_atom_site_fract_z
Si Si1 0.803847 0.849256 0.733145
Si Si2 0.611474 0.750248 0.777710
Si Si3 0.762658 0.058976 0.421132
Si Si4 0.442528 0.108138 0.360067
Si Si5 0.634857 0.508278 0.819225
Si Si6 0.294454 0.872501 0.506887
Si Si7 0.697832 0.094571 0.779205
Si Si8 0.543459 0.510886 0.590573
O O1 0.661163 0.856216 0.663780
O O2 0.841911 0.722230 0.746258
O O3 0.801801 0.916495 0.676556
O O4 0.897848 0.907147 0.837461
O O5 0.500000 0.760932 0.750000
O O6 0.731523 0.821073 0.874493
O O7 0.573382 0.810292 0.700074
O O8 0.629216 0.620118 0.779744
O O9 0.680786 0.059316 0.422755
O O10 0.910544 0.049906 0.530295
O O11 0.722301 0.964706 0.352534
O O12 0.591166 0.121300 0.462272
O O13 0.400615 0.984788 0.314417
O O14 0.500000 0.463474 0.750000
O O15 0.688751 0.560495 0.907810
O O16 0.250000 0.750000 0.500000
O O17 0.833109 0.087900 0.835426
O O18 0.500000 0.500000 0.500000
#
# Coordination Sequence:
#
# PCOD9260504 Si02
#       8
#     8   8   8   8   8   8   8   8
#     4  11  24  43  63  91 138 173 211 265 331 396
#     4  10  18  37  64  93 125 158 205 279 332 371
#     4  10  19  38  66  94 120 158 221 268 313 390
#     4  10  23  39  64  95 126 164 217 264 327 390
#     4  11  24  41  61  94 131 167 216 267 333 377
#     4  12  22  39  65 100 125 164 214 280 328 373
#     4   9  22  41  62  91 127 177 208 261 327 387
#     4   9  20  41  65  94 120 166 222 260 309 396
#
# _framework density 20.092039
#
# number of rings (size 3 to 8) (size 9 to 14) (size 15 to 20)
#    0.000    1.750    2.500    2.250    5.250    0.500 
#    6.750    0.625    0.000    0.000    0.000    0.000 
#    0.000    0.000    0.000    0.000    0.000    0.000 
#
# Total GULP energy -178248.107646 kJ/mol
# GULP energy per Si atom -5570.253364 kJ/mol
# Density = 2.004631 g / cm^3
# Si number density = 20.092039 Si / 1000 Ang^3
#
#
#
# Elastic Constant Matrix: (Units=GPa)
#
#
# Indices 1 2 3 4 5 6 
#
# 1 80.1418 37.8593 8.2021 0.0000 3.9849 0.0002
# 2 37.8593 132.2886 8.6033 0.0001 -5.5261 -0.0002
# 3 8.2021 8.6033 52.7170 0.0001 9.2931 -0.0002
# 4 0.0000 0.0001 0.0001 15.9407 0.0000 -17.8443
# 5 3.9849 -5.5261 9.2931 0.0000 32.5753 -0.0001
# 6 0.0002 -0.0002 -0.0002 -17.8443 -0.0001 354.0431
#
#
#
# Elastic Compliance Matrix: (Units=1/GPa)
#
#
# Indices 1 2 3 4 5 6 
#
# 1 0.014703 -0.004219 -0.001217 0.000000 -0.002167 0.000000
# 2 -0.004219 0.008946 -0.001224 0.000000 0.002383 0.000000
# 3 -0.001217 -0.001224 0.020394 0.000000 -0.005877 0.000000
# 4 0.000000 0.000000 0.000000 0.066483 0.000000 0.003351
# 5 -0.002167 0.002383 -0.005877 0.000000 0.033044 0.000000
# 6 0.000000 0.000000 0.000000 0.003351 0.000000 0.002993
#
#
# Mechanical properties :
#
#
# Convention : Reuss Voigt Hill
#
# Bulk Modulus (GPa) = 32.54810 41.60855 37.07833
# Shear Modulus (GPa) = 29.39012 94.54401 61.96706
#
# Velocity S-wave (km/s) = 3.82877 6.86714 5.55955
# Velocity P-wave (km/s) = 5.98169 9.14498 7.72695
#
# Compressibility (1/GPa) = 0.03072376
#
# Stress axis : x y z
#
# Youngs Moduli (GPa) = 68.01137 111.78370 49.03347
#
# Poissons Ratio (x) = 0.47165 0.05968
# Poissons Ratio (y) = 0.28696 0.05999
# Poissons Ratio (z) = 0.08277 0.13677
#
# Static dielectric constant tensor:
#      x y z
#    x 1.793220 0.000000 0.025110 
#    y 0.000000 1.705990 0.000000 
#    z 0.025110 0.000000 1.727790 
# 
# From -- ./inp_files/300864.got.cif
#   From: 2010.05.17/outbox.cif.g08.bks.cpg/sg15_151_cif.got.tgz:300864.got - 2010.06.03 18:47:42.
