data_PCOD9260525
_publ_section_title
;
Structure prediction by ZEFSAII (Michael W. Deem and Ramdas Pophale) SiO2 
 PCOD9260525
Probable space group: C 2/C
;
_chemical_formula_sum "Si O2"
_cell_formula_units_Z 40
_cell_length_a 22.069200
_cell_length_b 6.995078
_cell_length_c 14.443819
_cell_angle_alpha 90.000000
_cell_angle_beta 53.871137
_cell_angle_gamma 90.000000
_cell_volume 1800.974207
_symmetry_space_group_name_H-M "C 2/C"
_symmetry_group_IT_number 15
_symmetry_cell_setting 'monoclinic'
loop_
_space_group_symop_operation_xyz
x,y,z
-x,y,1/2-z
-x,-y,-z
x,-y,1/2+z
1/2+x,1/2+y,z
1/2-x,1/2+y,1/2-z
1/2-x,1/2-y,-z
1/2+x,1/2-y,1/2+z
loop_
_atom_site_type_symbol
_atom_site_label
_atom_site_fract_x
_atom_site_fract_y
_atom_site_fract_z
Si Si1 0.085802 0.560636 0.399877
Si Si2 0.698127 0.189572 0.919685
Si Si3 0.972631 0.953891 0.684379
Si Si4 0.640709 0.221860 0.175949
Si Si5 0.102733 0.010923 0.428430
O O1 0.147719 0.446217 0.401967
O O2 0.106970 0.558938 0.272265
O O3 0.097239 0.785217 0.415402
O O4 0.000000 0.500000 0.500000
O O5 0.787484 0.176875 0.839762
O O6 0.678320 0.402986 0.901239
O O7 0.669702 0.159180 0.050051
O O8 0.923271 0.120030 0.774207
O O9 0.921669 0.880851 0.644441
O O10 0.000000 0.835893 0.750000
O O11 0.040880 0.042629 0.563846
#
# Coordination Sequence:
#
# PCOD9260525 Si02
#       5
#     8   8   8   8   8
#     4  11  25  43  67 105 129 172 232 274 330 407
#     4  11  23  47  65  96 141 170 227 272 340 407
#     4  10  18  37  65  90 123 170 217 264 328 391
#     4  10  24  41  69  95 134 186 207 284 342 388
#     4  10  22  40  67  95 126 176 218 272 337 389
#
# _framework density 22.2102
#
# number of rings (size 3 to 8) (size 9 to 14) (size 15 to 20)
#    0.000    1.600    2.000    3.600    5.600    0.000 
#    7.200    4.000    0.000    0.000    0.000    0.000 
#    0.000    0.000    0.000    0.000    0.000    0.000 
#
# Total GULP energy -111569.938582 kJ/mol
# GULP energy per Si atom -5578.496929 kJ/mol
# Density = 2.215965 g / cm^3
# Si number density = 22.210200 Si / 1000 Ang^3
#
#
#
# Elastic Constant Matrix: (Units=GPa)
#
#
# Indices 1 2 3 4 5 6 
#
# 1 122.0036 31.3213 45.6537 0.0000 17.0808 0.0000
# 2 31.3213 75.6428 19.2346 0.0001 -1.6551 0.0000
# 3 45.6537 19.2346 138.1219 0.0001 17.8724 0.0000
# 4 0.0000 0.0001 0.0001 16.5672 0.0000 3.1993
# 5 17.0808 -1.6551 17.8724 0.0000 42.9458 0.0000
# 6 0.0000 0.0000 0.0000 3.1993 0.0000 39.2468
#
#
#
# Elastic Compliance Matrix: (Units=1/GPa)
#
#
# Indices 1 2 3 4 5 6 
#
# 1 0.010588 -0.003810 -0.002542 0.000000 -0.003300 0.000000
# 2 -0.003810 0.015156 -0.001187 0.000000 0.002593 0.000000
# 3 -0.002542 -0.001187 0.008583 0.000000 -0.002607 0.000000
# 4 0.000000 0.000000 0.000000 0.061326 0.000000 -0.004999
# 5 -0.003300 0.002593 -0.002607 0.000000 0.025782 0.000000
# 6 0.000000 0.000000 0.000000 -0.004999 0.000000 0.025887
#
#
# Mechanical properties :
#
#
# Convention : Reuss Voigt Hill
#
# Bulk Modulus (GPa) = 51.95060 58.68750 55.31905
# Shear Modulus (GPa) = 29.61804 35.72253 32.67029
#
# Velocity S-wave (km/s) = 3.65572 4.01482 3.83947
# Velocity P-wave (km/s) = 6.42341 6.92623 6.67956
#
# Compressibility (1/GPa) = 0.01924906
#
# Stress axis : x y z
#
# Youngs Moduli (GPa) = 94.44818 65.97982 116.51262
#
# Poissons Ratio (x) = 0.25138 0.29618
# Poissons Ratio (y) = 0.35984 0.13829
# Poissons Ratio (z) = 0.24009 0.07831
#
# Static dielectric constant tensor:
#      x y z
#    x 1.835850 0.000000 0.043690 
#    y 0.000000 1.838220 0.000000 
#    z 0.043690 0.000000 1.816180 
# 
# From -- ./inp_files/166020.got.cif
#   From: 2010.05.17/outbox.cif.g08.bks.cpg/sg15_84_cif.got.tgz:166020.got - 2010.06.03 18:47:42.
