data_PCOD9260000
_publ_section_title
;
Structure prediction by ZEFSAII (Michael W. Deem and Ramdas Pophale) SiO2 
 PCOD9260000
Probable space group: C 2/C
;
_chemical_formula_sum "Si O2"
_cell_formula_units_Z 44
_cell_length_a 24.201002
_cell_length_b 10.420841
_cell_length_c 18.420397
_cell_angle_alpha 90.000000
_cell_angle_beta 31.807686
_cell_angle_gamma 90.000000
_cell_volume 2448.517634
_symmetry_space_group_name_H-M "C 2/C"
_symmetry_group_IT_number 15
_symmetry_cell_setting 'monoclinic'
loop_
_space_group_symop_operation_xyz
x,y,z
-x,y,1/2-z
-x,-y,-z
x,-y,1/2+z
1/2+x,1/2+y,z
1/2-x,1/2+y,1/2-z
1/2-x,1/2-y,-z
1/2+x,1/2-y,1/2+z
loop_
_atom_site_type_symbol
_atom_site_label
_atom_site_fract_x
_atom_site_fract_y
_atom_site_fract_z
Si Si1 0.974657 0.050455 0.657312
Si Si2 0.698993 0.738064 0.635921
Si Si3 0.500000 0.644962 0.250000
Si Si4 0.206855 0.754183 0.466414
Si Si5 0.775675 0.982071 0.633785
Si Si6 0.720153 0.506155 0.202299
O O1 0.920875 0.186833 0.735465
O O2 0.099225 0.048860 0.511888
O O3 0.906978 0.000096 0.664607
O O4 0.944748 0.951877 0.755411
O O5 0.750000 0.750000 0.500000
O O6 0.713784 0.868896 0.663014
O O7 0.752495 0.622647 0.622700
O O8 0.417903 0.729486 0.385293
O O9 0.250000 0.750000 0.500000
O O10 0.238148 0.630514 0.385666
O O11 0.243497 0.883206 0.384863
O O12 0.749588 0.992841 0.747752
#
# Coordination Sequence:
#
# PCOD9260000 Si02
#       6
#     8   8   4   8   8   8
#     4   9  20  35  60  82 113 147 197 221 283 344
#     4  10  20  36  56  84 115 149 191 231 277 338
#     4  10  18  36  60  88 106 158 186 234 278 334
#     4  11  20  37  60  86 113 146 197 234 273 339
#     4  11  21  37  62  83 114 154 185 235 291 329
#     4  10  21  37  57  86 117 147 188 236 282 336
#
# _framework density 17.970057000000001
#
# number of rings (size 3 to 8) (size 9 to 14) (size 15 to 20)
#    1.091    0.727    1.818    4.909    0.000    0.000 
#    0.000    3.636    0.000    3.273    0.000    0.000 
#    0.000    0.000    0.000    0.000    0.000    0.000 
#
# Total GULP energy -122534.597305 kJ/mol
# GULP energy per Si atom -5569.754423 kJ/mol
# Density = 1.792916 g / cm^3
# Si number density = 17.970057 Si / 1000 Ang^3
#
#
#
# Elastic Constant Matrix: (Units=GPa)
#
#
# Indices 1 2 3 4 5 6 
#
# 1 80.4142 33.4513 23.4889 0.0000 38.8707 0.0000
# 2 33.4513 129.7980 49.4935 0.0000 25.4099 0.0000
# 3 23.4889 49.4935 67.5242 0.0000 25.2853 0.0000
# 4 0.0000 0.0000 0.0000 23.6121 0.0000 -2.3630
# 5 38.8707 25.4099 25.2853 0.0000 39.7631 0.0000
# 6 0.0000 0.0000 0.0000 -2.3630 0.0000 37.9929
#
#
#
# Elastic Compliance Matrix: (Units=1/GPa)
#
#
# Indices 1 2 3 4 5 6 
#
# 1 0.024141 -0.002470 0.002177 0.000000 -0.023405 0.000000
# 2 -0.002470 0.011127 -0.007269 0.000000 -0.000074 0.000000
# 3 0.002177 -0.007269 0.024200 0.000000 -0.012872 0.000000
# 4 0.000000 0.000000 0.000000 0.042616 0.000000 0.002651
# 5 -0.023405 -0.000074 -0.012872 0.000000 0.056261 0.000000
# 6 0.000000 0.000000 0.000000 0.002651 0.000000 0.026486
#
#
# Mechanical properties :
#
#
# Convention : Reuss Voigt Hill
#
# Bulk Modulus (GPa) = 22.55081 54.51154 38.53118
# Shear Modulus (GPa) = 23.28444 31.69380 27.48912
#
# Velocity S-wave (km/s) = 3.60354 4.20420 3.91540
# Velocity P-wave (km/s) = 5.46720 7.34626 6.47526
#
# Compressibility (1/GPa) = 0.04434430
#
# Stress axis : x y z
#
# Youngs Moduli (GPa) = 41.42403 89.87159 41.32189
#
# Poissons Ratio (x) = 0.22196 -0.08996
# Poissons Ratio (y) = 0.10231 0.30037
# Poissons Ratio (z) = -0.09018 0.65328
#
# Static dielectric constant tensor:
#      x y z
#    x 1.648780 0.000000 -0.014730 
#    y 0.000000 1.615930 0.000000 
#    z -0.014730 0.000000 1.627450 
# 
# From -- ./inp_files/218464.got.cif
#   From: 2010.05.17/outbox.cif.g08.bks.cpg/sg15_110_cif.got.tgz:218464.got - 2010.06.03 18:47:42.
