data_PCOD9260024
_publ_section_title
;
Structure prediction by ZEFSAII (Michael W. Deem and Ramdas Pophale) SiO2 
 PCOD9260024
Probable space group: C 2/C
;
_chemical_formula_sum "Si O2"
_cell_formula_units_Z 60
_cell_length_a 16.466194
_cell_length_b 11.160455
_cell_length_c 14.889789
_cell_angle_alpha 90.000000
_cell_angle_beta 100.846951
_cell_angle_gamma 90.000000
_cell_volume 2687.411306
_symmetry_space_group_name_H-M "C 2/C"
_symmetry_group_IT_number 15
_symmetry_cell_setting 'monoclinic'
loop_
_space_group_symop_operation_xyz
x,y,z
-x,y,1/2-z
-x,-y,-z
x,-y,1/2+z
1/2+x,1/2+y,z
1/2-x,1/2+y,1/2-z
1/2-x,1/2-y,-z
1/2+x,1/2-y,1/2+z
loop_
_atom_site_type_symbol
_atom_site_label
_atom_site_fract_x
_atom_site_fract_y
_atom_site_fract_z
Si Si1 0.162599 0.877668 0.226341
Si Si2 0.803168 0.251167 0.600560
Si Si3 0.062872 0.085789 0.145288
Si Si4 0.095316 0.960937 0.440845
Si Si5 0.500000 0.231337 0.250000
Si Si6 0.674195 0.676959 0.522432
Si Si7 0.074606 0.429966 0.910647
Si Si8 0.992504 0.682957 0.566021
O O1 0.223700 0.817790 0.313943
O O2 0.187800 0.847525 0.130318
O O3 0.077394 0.808528 0.231542
O O4 0.135116 0.018843 0.215694
O O5 0.750000 0.250000 0.500000
O O6 0.879933 0.166860 0.589362
O O7 0.837366 0.386333 0.611703
O O8 0.042651 0.227111 0.142556
O O9 0.077201 0.059487 0.042116
O O10 0.976178 0.015571 0.135872
O O11 0.168581 0.056261 0.461827
O O12 0.487289 0.140507 0.165491
O O13 0.750000 0.750000 0.500000
O O14 0.582257 0.736794 0.492576
O O15 0.055669 0.569786 0.903051
O O16 0.055225 0.377112 0.006388
#
# Coordination Sequence:
#
# PCOD9260024 Si02
#       8
#     8   8   8   8   4   8   8   8
#     4  10  20  36  64  92 120 162 215 275 316 378
#     4  11  23  38  60  90 127 171 223 261 324 395
#     4   9  16  34  61  93 116 146 217 270 319 372
#     4   9  18  33  59  88 117 158 207 271 309 383
#     4  10  18  36  60  96 114 146 218 264 318 372
#     4  10  21  37  61  87 130 169 213 252 332 393
#     4  10  20  35  62  88 127 160 206 266 320 388
#     4  10  19  35  61  93 119 167 202 258 331 380
#
# _framework density 22.326318000000001
#
# number of rings (size 3 to 8) (size 9 to 14) (size 15 to 20)
#    0.000    2.133    2.667    2.400    1.867    0.000 
#    0.000    6.000    5.867    1.600    0.000    0.000 
#    0.000    0.000    0.000    0.000    0.000    0.000 
#
# Total GULP energy -167003.924326 kJ/mol
# GULP energy per Si atom -5566.797478 kJ/mol
# Density = 2.227550 g / cm^3
# Si number density = 22.326318 Si / 1000 Ang^3
#
#
#
# Elastic Constant Matrix: (Units=GPa)
#
#
# Indices 1 2 3 4 5 6 
#
# 1 29.1664 9.3708 15.2655 0.0000 -2.7621 0.0000
# 2 9.3708 141.7956 38.9594 0.0000 9.6329 0.0000
# 3 15.2655 38.9594 107.2912 0.0000 4.6461 0.0000
# 4 0.0000 0.0000 0.0000 28.4430 0.0000 -0.9317
# 5 -2.7621 9.6329 4.6461 0.0000 28.5300 0.0000
# 6 0.0000 0.0000 0.0000 -0.9317 0.0000 30.1691
#
#
#
# Elastic Compliance Matrix: (Units=1/GPa)
#
#
# Indices 1 2 3 4 5 6 
#
# 1 0.037882 -0.001446 -0.005081 0.000000 0.004983 0.000000
# 2 -0.001446 0.008028 -0.002604 0.000000 -0.002427 0.000000
# 3 -0.005081 -0.002604 0.011050 0.000000 -0.001412 0.000000
# 4 0.000000 0.000000 0.000000 0.035194 0.000000 0.001087
# 5 0.004983 -0.002427 -0.001412 0.000000 0.036583 0.000000
# 6 0.000000 0.000000 0.000000 0.001087 0.000000 0.033180
#
#
# Mechanical properties :
#
#
# Convention : Reuss Voigt Hill
#
# Bulk Modulus (GPa) = 25.84103 45.04939 35.44521
# Shear Modulus (GPa) = 25.89629 31.73893 28.81761
#
# Velocity S-wave (km/s) = 3.40942 3.77449 3.59659
# Velocity P-wave (km/s) = 5.20560 6.26237 5.75828
#
# Compressibility (1/GPa) = 0.03869816
#
# Stress axis : x y z
#
# Youngs Moduli (GPa) = 26.39799 124.55767 90.49646
#
# Poissons Ratio (x) = 0.18012 0.45977
# Poissons Ratio (y) = 0.03817 0.23569
# Poissons Ratio (z) = 0.13412 0.32440
#
# Static dielectric constant tensor:
#      x y z
#    x 1.918130 0.000000 0.014980 
#    y 0.000000 1.890160 0.000000 
#    z 0.014980 0.000000 1.964270 
# 
# From -- ./inp_files/160973.got.cif
#   From: 2010.05.17/outbox.cif.g08.bks.cpg/sg15_81_cif.got.tgz:160973.got - 2010.06.03 18:47:42.
