data_PCOD9260094
_publ_section_title
;
Structure prediction by ZEFSAII (Michael W. Deem and Ramdas Pophale) SiO2 
 PCOD9260094
Probable space group: C 2/C
;
_chemical_formula_sum "Si O2"
_cell_formula_units_Z 32
_cell_length_a 22.650775
_cell_length_b 6.994944
_cell_length_c 12.430289
_cell_angle_alpha 90.000000
_cell_angle_beta 134.944531
_cell_angle_gamma 90.000000
_cell_volume 1393.970481
_symmetry_space_group_name_H-M "C 2/C"
_symmetry_group_IT_number 15
_symmetry_cell_setting 'monoclinic'
loop_
_space_group_symop_operation_xyz
x,y,z
-x,y,1/2-z
-x,-y,-z
x,-y,1/2+z
1/2+x,1/2+y,z
1/2-x,1/2+y,1/2-z
1/2-x,1/2-y,-z
1/2+x,1/2-y,1/2+z
loop_
_atom_site_type_symbol
_atom_site_label
_atom_site_fract_x
_atom_site_fract_y
_atom_site_fract_z
Si Si1 0.203200 0.556223 0.415236
Si Si2 0.003027 0.214678 0.096803
Si Si3 0.145662 0.808850 0.952557
Si Si4 0.480552 0.840610 0.845848
O O1 0.250000 0.750000 0.500000
O O2 0.174205 0.412538 0.473937
O O3 0.269690 0.429136 0.436206
O O4 0.116995 0.628963 0.254802
O O5 0.085335 0.154566 0.269860
O O6 0.988964 0.441280 0.105574
O O7 0.916192 0.138137 0.031164
O O8 0.015067 0.208724 0.984941
O O9 0.500000 0.773177 0.750000
#
# Coordination Sequence:
#
# PCOD9260094 Si02
#       4
#     8   8   8   8
#     4  10  20  37  58  90 124 157 200 259 306 367
#     4   9  17  36  62  87 118 168 203 256 314 374
#     4   9  18  39  62  86 123 158 204 251 315 369
#     4  10  18  36  62  86 123 166 206 253 315 368
#
# _framework density 22.956007
#
# number of rings (size 3 to 8) (size 9 to 14) (size 15 to 20)
#    0.000    2.500    5.000    0.000    0.000    0.000 
#    9.000    3.750    0.000    0.000    0.000    0.000 
#    0.000    0.000    0.000    0.000    0.000    0.000 
#
# Total GULP energy -89238.449649 kJ/mol
# GULP energy per Si atom -5577.403103 kJ/mol
# Density = 2.290376 g / cm^3
# Si number density = 22.956007 Si / 1000 Ang^3
#
#
#
# Elastic Constant Matrix: (Units=GPa)
#
#
# Indices 1 2 3 4 5 6 
#
# 1 138.5023 25.6982 73.2771 0.0000 2.1964 0.0000
# 2 25.6982 85.2346 20.4641 0.0000 7.3012 0.0000
# 3 73.2771 20.4641 73.7784 0.0000 -11.0200 0.0000
# 4 0.0000 0.0000 0.0000 3.2730 0.0000 -3.6343
# 5 2.1964 7.3012 -11.0200 0.0000 52.7646 0.0000
# 6 0.0000 0.0000 0.0000 -3.6343 0.0000 8.8959
#
#
#
# Elastic Compliance Matrix: (Units=1/GPa)
#
#
# Indices 1 2 3 4 5 6 
#
# 1 0.016064 -0.000562 -0.016399 0.000000 -0.004016 0.000000
# 2 -0.000562 0.012930 -0.003398 0.000000 -0.002475 0.000000
# 3 -0.016399 -0.003398 0.031953 0.000000 0.007826 0.000000
# 4 0.000000 0.000000 0.000000 0.559208 0.000000 0.228456
# 5 -0.004016 -0.002475 0.007826 0.000000 0.021096 0.000000
# 6 0.000000 0.000000 0.000000 0.228456 0.000000 0.205743
#
#
# Mechanical properties :
#
#
# Convention : Reuss Voigt Hill
#
# Bulk Modulus (GPa) = 49.43349 59.59935 54.51642
# Shear Modulus (GPa) = 5.58999 24.85843 15.22421
#
# Velocity S-wave (km/s) = 1.56217 3.29427 2.57804
# Velocity P-wave (km/s) = 4.98343 6.36305 5.71502
#
# Compressibility (1/GPa) = 0.02022920
#
# Stress axis : x y z
#
# Youngs Moduli (GPa) = 62.24992 77.34191 31.29586
#
# Poissons Ratio (x) = 0.04348 0.51322
# Poissons Ratio (y) = 0.03499 0.10634
# Poissons Ratio (z) = 1.02084 0.26279
#
# Static dielectric constant tensor:
#      x y z
#    x 1.914250 0.000000 0.075080 
#    y 0.000000 2.066050 0.000000 
#    z 0.075080 0.000000 2.099590 
# 
# From -- ./inp_files/109876.got.cif
#   From: 2010.05.17/outbox.cif.g08.bks.cpg/sg15_55_cif.got.tgz:109876.got - 2010.06.03 18:47:42.
