data_PCOD9260415
_publ_section_title
;
Structure prediction by ZEFSAII (Michael W. Deem and Ramdas Pophale) SiO2 
 PCOD9260415
Probable space group: C 2/C
;
_chemical_formula_sum "Si O2"
_cell_formula_units_Z 56
_cell_length_a 16.422234
_cell_length_b 26.520905
_cell_length_c 7.186705
_cell_angle_alpha 90.000000
_cell_angle_beta 129.716130
_cell_angle_gamma 90.000000
_cell_volume 2407.691231
_symmetry_space_group_name_H-M "C 2/C"
_symmetry_group_IT_number 15
_symmetry_cell_setting 'monoclinic'
loop_
_space_group_symop_operation_xyz
x,y,z
-x,y,1/2-z
-x,-y,-z
x,-y,1/2+z
1/2+x,1/2+y,z
1/2-x,1/2+y,1/2-z
1/2-x,1/2-y,-z
1/2+x,1/2-y,1/2+z
loop_
_atom_site_type_symbol
_atom_site_label
_atom_site_fract_x
_atom_site_fract_y
_atom_site_fract_z
Si Si1 0.558754 0.194198 0.587672
Si Si2 0.473394 0.586310 0.935606
Si Si3 0.482025 0.697472 0.503479
Si Si4 0.255983 0.831571 0.880399
Si Si5 0.701712 0.440582 0.839254
Si Si6 0.636848 0.147809 0.336483
Si Si7 0.246353 0.049545 0.970727
O O1 0.491179 0.245497 0.510008
O O2 0.621822 0.187016 0.483834
O O3 0.472955 0.149512 0.440237
O O4 0.644762 0.192593 0.873495
O O5 0.500000 0.586122 0.750000
O O6 0.361430 0.559633 0.801806
O O7 0.465785 0.645053 0.985786
O O8 0.574480 0.560200 0.179649
O O9 0.358493 0.693121 0.269462
O O10 0.500000 0.696216 0.750000
O O11 0.246212 0.886655 0.961852
O O12 0.276789 0.835774 0.689360
O O13 0.717958 0.439739 0.641790
O O14 0.764102 0.489846 0.993670
O O15 0.667582 0.091990 0.452688
#
# Coordination Sequence:
#
# PCOD9260415 Si02
#       7
#     8   8   8   8   8   8   8
#     4  11  22  40  61  84 119 156 201 252 294 341
#     4   8  16  32  55  83 120 149 183 237 298 359
#     4  10  18  37  61  88 120 155 191 244 300 356
#     4  10  22  39  63  85 118 156 196 241 300 362
#     4   9  19  33  58  83 114 150 187 240 298 351
#     4  10  22  39  59  86 115 156 200 249 292 347
#     4  10  19  35  57  85 113 155 193 237 300 357
#
# _framework density 23.258797000000001
#
# number of rings (size 3 to 8) (size 9 to 14) (size 15 to 20)
#    0.000    2.286    1.429    3.857    2.000    0.571 
#    2.571    0.714    3.143    0.000    0.000    0.000 
#    0.000    0.000    0.000    0.000    0.000    0.000 
#
# Total GULP energy -156213.193968 kJ/mol
# GULP energy per Si atom -5579.042642 kJ/mol
# Density = 2.320586 g / cm^3
# Si number density = 23.258797 Si / 1000 Ang^3
#
#
#
# Elastic Constant Matrix: (Units=GPa)
#
#
# Indices 1 2 3 4 5 6 
#
# 1 46.9905 7.1769 -5.4540 0.0000 -4.5211 0.0000
# 2 7.1769 123.0233 20.5267 0.0000 9.2650 0.0000
# 3 -5.4540 20.5267 65.8980 0.0000 -7.7975 0.0000
# 4 0.0000 0.0000 0.0000 35.3645 0.0000 3.1215
# 5 -4.5211 9.2650 -7.7975 0.0000 22.8640 0.0000
# 6 0.0000 0.0000 0.0000 3.1215 0.0000 5.2444
#
#
#
# Elastic Compliance Matrix: (Units=1/GPa)
#
#
# Indices 1 2 3 4 5 6 
#
# 1 0.022677 -0.002389 0.003403 0.000000 0.006613 0.000000
# 2 -0.002389 0.009310 -0.003751 0.000000 -0.005524 0.000000
# 3 0.003403 -0.003751 0.017595 0.000000 0.008194 0.000000
# 4 0.000000 0.000000 0.000000 0.029845 0.000000 -0.017764
# 5 0.006613 -0.005524 0.008194 0.000000 0.050077 0.000000
# 6 0.000000 0.000000 0.000000 -0.017764 0.000000 0.201252
#
#
# Mechanical properties :
#
#
# Convention : Reuss Voigt Hill
#
# Bulk Modulus (GPa) = 22.67157 31.15676 26.91417
# Shear Modulus (GPa) = 14.24778 26.93872 20.59325
#
# Velocity S-wave (km/s) = 2.47771 3.40695 2.97879
# Velocity P-wave (km/s) = 4.23723 5.37598 4.84021
#
# Compressibility (1/GPa) = 0.04410811
#
# Stress axis : x y z
#
# Youngs Moduli (GPa) = 44.09749 107.41315 56.83541
#
# Poissons Ratio (x) = 0.25659 -0.19343
# Poissons Ratio (y) = 0.10534 0.21321
# Poissons Ratio (z) = -0.15008 0.40294
#
# Static dielectric constant tensor:
#      x y z
#    x 1.939600 0.000000 -0.043560 
#    y 0.000000 1.926570 0.000000 
#    z -0.043560 0.000000 1.878130 
# 
# From -- ./inp_files/52375.got.cif
#   From: 2010.05.17/outbox.cif.g08.bks.cpg/sg15_27_cif.got.tgz:52375.got - 2010.06.03 18:47:42.
