data_PCOD9260013
_publ_section_title
;
Structure prediction by ZEFSAII (Michael W. Deem and Ramdas Pophale) SiO2 
 PCOD9260013
Probable space group: C 2/C
;
_chemical_formula_sum "Si O2"
_cell_formula_units_Z 64
_cell_length_a 8.935726
_cell_length_b 13.571939
_cell_length_c 25.565297
_cell_angle_alpha 90.000000
_cell_angle_beta 122.929014
_cell_angle_gamma 90.000000
_cell_volume 2602.333405
_symmetry_space_group_name_H-M "C 2/C"
_symmetry_group_IT_number 15
_symmetry_cell_setting 'monoclinic'
loop_
_space_group_symop_operation_xyz
x,y,z
-x,y,1/2-z
-x,-y,-z
x,-y,1/2+z
1/2+x,1/2+y,z
1/2-x,1/2+y,1/2-z
1/2-x,1/2-y,-z
1/2+x,1/2-y,1/2+z
loop_
_atom_site_type_symbol
_atom_site_label
_atom_site_fract_x
_atom_site_fract_y
_atom_site_fract_z
Si Si1 0.667752 0.721937 0.807659
Si Si2 0.527934 0.448956 0.581161
Si Si3 0.919000 0.321547 0.533526
Si Si4 0.531499 0.265937 0.847667
Si Si5 0.695917 0.320878 0.037447
Si Si6 0.807745 0.075040 0.189808
Si Si7 0.069883 0.586121 0.349892
Si Si8 0.242886 0.073807 0.912499
O O1 0.500000 0.669784 0.750000
O O2 0.601259 0.826479 0.815356
O O3 0.725666 0.667026 0.871454
O O4 0.830353 0.732401 0.798398
O O5 0.500706 0.356865 0.616890
O O6 0.420296 0.408762 0.509481
O O7 0.738844 0.469788 0.616259
O O8 0.426797 0.543742 0.584545
O O9 0.750000 0.250000 0.500000
O O10 0.929432 0.371240 0.591249
O O11 0.897108 0.400771 0.482856
O O12 0.077809 0.248981 0.551048
O O13 0.624009 0.173266 0.894394
O O14 0.644481 0.314875 0.822509
O O15 0.750000 0.250000 0.000000
O O16 0.638867 0.056224 0.195888
O O17 0.000000 0.044333 0.250000
O O18 0.748384 0.014889 0.126900
#
# Coordination Sequence:
#
# PCOD9260013 Si02
#       8
#     8   8   8   8   8   8   8   8
#     4  11  22  42  68  90 123 174 224 263 313 385
#     4   9  20  37  59  90 128 163 198 255 321 382
#     4  12  21  40  65  92 131 165 210 267 318 386
#     4   9  19  37  60  91 121 165 212 254 310 376
#     4  10  18  36  60  90 130 165 205 255 314 386
#     4  11  23  42  64  93 129 164 212 269 320 380
#     4  11  22  41  66  97 122 168 218 262 322 386
#     4  11  24  41  61  91 131 167 208 263 331 378
#
# _framework density 24.593312000000001
#
# number of rings (size 3 to 8) (size 9 to 14) (size 15 to 20)
#    0.000    1.500    3.750    2.625    0.000    1.000 
#    2.250    1.250    0.000    3.000    0.000    0.000 
#    0.000    0.000    0.000    0.000    0.000    0.000 
#
# Total GULP energy -178649.628957 kJ/mol
# GULP energy per Si atom -5582.800905 kJ/mol
# Density = 2.453734 g / cm^3
# Si number density = 24.593312 Si / 1000 Ang^3
#
#
#
# Elastic Constant Matrix: (Units=GPa)
#
#
# Indices 1 2 3 4 5 6 
#
# 1 109.9616 22.8840 17.6438 0.0000 32.1537 0.0000
# 2 22.8840 59.1060 15.2241 0.0000 5.8003 0.0000
# 3 17.6438 15.2241 88.3065 0.0000 12.7581 0.0000
# 4 0.0000 0.0000 0.0000 -10.0774 0.0000 11.2126
# 5 32.1537 5.8003 12.7581 0.0000 46.9400 0.0000
# 6 0.0000 0.0000 0.0000 11.2126 0.0000 18.7976
#
#
#
# Elastic Compliance Matrix: (Units=1/GPa)
#
#
# Indices 1 2 3 4 5 6 
#
# 1 0.012260 -0.003813 -0.000673 0.000000 -0.007744 0.000000
# 2 -0.003813 0.018982 -0.002653 0.000000 0.000988 0.000000
# 3 -0.000673 -0.002653 0.012285 0.000000 -0.002550 0.000000
# 4 0.000000 0.000000 0.000000 -0.059646 0.000000 0.035578
# 5 -0.007744 0.000988 -0.002550 0.000000 0.027179 0.000000
# 6 0.000000 0.000000 0.000000 0.035578 0.000000 0.031976
#
#
# Mechanical properties :
#
#
# Convention : Reuss Voigt Hill
#
# Bulk Modulus (GPa) = 34.19229 40.98644 37.58936
# Shear Modulus (GPa) = 74.55513 24.57353 49.56433
#
# Velocity S-wave (km/s) = 5.51190 3.16443 4.49414
# Velocity P-wave (km/s) = 7.37843 5.48210 6.49980
#
# Compressibility (1/GPa) = 0.02924636
#
# Stress axis : x y z
#
# Youngs Moduli (GPa) = 81.56548 52.68250 81.40318
#
# Poissons Ratio (x) = 0.20090 0.05481
# Poissons Ratio (y) = 0.31104 0.21598
# Poissons Ratio (z) = 0.05492 0.13978
#
# Static dielectric constant tensor:
#      x y z
#    x 1.399840 0.000000 -0.230280 
#    y 0.000000 1.955250 0.000000 
#    z -0.230280 0.000000 1.879600 
# 
# From -- ./inp_files/308306.got.cif
#   From: 2010.05.17/outbox.cif.g08.bks.cpg/sg15_155_cif.got.tgz:308306.got - 2010.06.03 18:47:42.
