data_PCOD9260854
_publ_section_title
;
Structure prediction by ZEFSAII (Michael W. Deem and Ramdas Pophale) SiO2 
 PCOD9260854
Probable space group: C 2/C
;
_chemical_formula_sum "Si O2"
_cell_formula_units_Z 52
_cell_length_a 13.404385
_cell_length_b 11.238939
_cell_length_c 17.095163
_cell_angle_alpha 90.000000
_cell_angle_beta 104.280326
_cell_angle_gamma 90.000000
_cell_volume 2495.825775
_symmetry_space_group_name_H-M "C 2/C"
_symmetry_group_IT_number 15
_symmetry_cell_setting 'monoclinic'
loop_
_space_group_symop_operation_xyz
x,y,z
-x,y,1/2-z
-x,-y,-z
x,-y,1/2+z
1/2+x,1/2+y,z
1/2-x,1/2+y,1/2-z
1/2-x,1/2-y,-z
1/2+x,1/2-y,1/2+z
loop_
_atom_site_type_symbol
_atom_site_label
_atom_site_fract_x
_atom_site_fract_y
_atom_site_fract_z
Si Si1 0.178045 0.377309 0.119491
Si Si2 0.165895 0.809452 0.039678
Si Si3 0.461952 0.062650 0.325982
Si Si4 0.945348 0.731246 0.040056
Si Si5 0.677521 0.292779 0.220306
Si Si6 0.500000 0.469669 0.250000
Si Si7 0.123483 0.987717 0.414464
O O1 0.085860 0.457685 0.133143
O O2 0.137027 0.295675 0.042054
O O3 0.230329 0.305589 0.200594
O O4 0.264841 0.464462 0.100806
O O5 0.205389 0.823758 0.136157
O O6 0.250000 0.750000 0.000000
O O7 0.060690 0.733846 0.027241
O O8 0.132698 0.931736 0.992119
O O9 0.500000 0.018874 0.250000
O O10 0.550114 0.131676 0.391618
O O11 0.374783 0.163092 0.292143
O O12 0.922325 0.858740 0.073324
O O13 0.590001 0.384598 0.233624
O O14 0.550167 0.539739 0.332059
#
# Coordination Sequence:
#
# PCOD9260854 Si02
#       7
#     8   8   8   8   8   4   8
#     4  11  25  38  62  99 120 160 219 268 318 384
#     4  11  24  42  63  92 133 171 208 270 330 372
#     4  11  21  41  64  84 127 173 204 266 329 378
#     4  11  23  41  64  91 129 166 220 258 320 400
#     4  10  21  41  61  87 125 165 216 259 320 390
#     4  10  18  38  66  90 116 162 230 254 306 394
#     4  11  21  41  66  92 124 170 213 263 320 386
#
# _framework density 20.834788
#
# number of rings (size 3 to 8) (size 9 to 14) (size 15 to 20)
#    0.000    1.231    3.846    4.154    0.000    3.692 
#    5.538    0.000    0.000    0.000    0.000    0.000 
#    0.000    0.000    0.000    0.000    0.000    0.000 
#
# Total GULP energy -145357.646805 kJ/mol
# GULP energy per Si atom -5590.678723 kJ/mol
# Density = 2.078737 g / cm^3
# Si number density = 20.834788 Si / 1000 Ang^3
#
#
#
# Elastic Constant Matrix: (Units=GPa)
#
#
# Indices 1 2 3 4 5 6 
#
# 1 57.1805 -7.7174 30.0059 0.0000 -13.8562 0.0000
# 2 -7.7174 9.1048 13.6294 0.0000 6.5247 0.0000
# 3 30.0059 13.6294 165.9498 0.0000 18.7232 0.0000
# 4 0.0000 0.0000 0.0000 24.5097 0.0000 4.4297
# 5 -13.8562 6.5247 18.7232 0.0000 46.0364 0.0000
# 6 0.0000 0.0000 0.0000 4.4297 0.0000 11.9167
#
#
#
# Elastic Compliance Matrix: (Units=1/GPa)
#
#
# Indices 1 2 3 4 5 6 
#
# 1 0.027878 0.030903 -0.008418 0.000000 0.007434 0.000000
# 2 0.030903 0.169041 -0.018674 0.000000 -0.007062 0.000000
# 3 -0.008418 -0.018674 0.009505 0.000000 -0.003753 0.000000
# 4 0.000000 0.000000 0.000000 0.043739 0.000000 -0.016259
# 5 0.007434 -0.007062 -0.003753 0.000000 0.026487 0.000000
# 6 0.000000 0.000000 0.000000 -0.016259 0.000000 0.089960
#
#
# Mechanical properties :
#
#
# Convention : Reuss Voigt Hill
#
# Bulk Modulus (GPa) = 4.67189 33.78565 19.22877
# Shear Modulus (GPa) = 11.61885 29.58036 20.59961
#
# Velocity S-wave (km/s) = 2.36406 3.77206 3.14779
# Velocity P-wave (km/s) = 3.11431 5.93485 4.73927
#
# Compressibility (1/GPa) = 0.21404599
#
# Stress axis : x y z
#
# Youngs Moduli (GPa) = 35.87055 5.91574 105.20782
#
# Poissons Ratio (x) = -0.18281 0.88559
# Poissons Ratio (y) = -1.10850 1.96466
# Poissons Ratio (z) = 0.30194 0.11047
#
# Static dielectric constant tensor:
#      x y z
#    x 1.754850 0.000000 0.007640 
#    y 0.000000 1.720840 0.000000 
#    z 0.007640 0.000000 1.759190 
# 
# From -- ./inp_files/152706.got.cif
#   From: 2010.05.17/outbox.cif.g08.bks.cpg/sg15_77_cif.got.tgz:152706.got - 2010.06.03 18:47:42.
