data_PCOD9260964
_publ_section_title
;
Structure prediction by ZEFSAII (Michael W. Deem and Ramdas Pophale) SiO2 
 PCOD9260964
Probable space group: C 2/C
;
_chemical_formula_sum "Si O2"
_cell_formula_units_Z 60
_cell_length_a 32.039512
_cell_length_b 5.748437
_cell_length_c 15.053835
_cell_angle_alpha 90.000000
_cell_angle_beta 80.468217
_cell_angle_gamma 90.000000
_cell_volume 2734.293499
_symmetry_space_group_name_H-M "C 2/C"
_symmetry_group_IT_number 15
_symmetry_cell_setting 'monoclinic'
loop_
_space_group_symop_operation_xyz
x,y,z
-x,y,1/2-z
-x,-y,-z
x,-y,1/2+z
1/2+x,1/2+y,z
1/2-x,1/2+y,1/2-z
1/2-x,1/2-y,-z
1/2+x,1/2-y,1/2+z
loop_
_atom_site_type_symbol
_atom_site_label
_atom_site_fract_x
_atom_site_fract_y
_atom_site_fract_z
Si Si1 0.925713 0.510968 0.495812
Si Si2 0.280870 0.573535 0.439363
Si Si3 0.234611 0.616826 0.795387
Si Si4 0.587686 0.688520 0.162157
Si Si5 0.500000 0.541479 0.250000
Si Si6 0.337509 0.911295 0.297807
Si Si7 0.641732 0.707982 0.561490
Si Si8 0.010497 0.208385 0.926285
O O1 0.908292 0.334522 0.428685
O O2 0.885716 0.686241 0.510349
O O3 0.947570 0.355682 0.564208
O O4 0.967655 0.640500 0.444580
O O5 0.250000 0.750000 0.500000
O O6 0.251196 0.409495 0.389572
O O7 0.309614 0.723635 0.361647
O O8 0.316885 0.437888 0.482099
O O9 0.244858 0.885253 0.762094
O O10 0.186061 0.562332 0.787010
O O11 0.539291 0.687888 0.203636
O O12 0.615893 0.807353 0.227197
O O13 0.607199 0.442210 0.128646
O O14 0.484480 0.392086 0.172874
O O15 0.340532 0.122470 0.366786
O O16 0.000000 0.000000 0.000000
#
# Coordination Sequence:
#
# PCOD9260964 Si02
#       8
#     8   8   8   8   4   8   8   8
#     4  10  20  39  66  86 129 175 222 273 348 408
#     4  10  21  36  65  95 126 168 221 274 340 414
#     4  10  19  38  64  95 126 176 216 270 340 412
#     4  10  21  38  66  91 123 176 216 275 335 400
#     4  12  22  40  68  94 134 172 236 282 336 424
#     4   9  20  37  65  87 129 171 211 265 340 406
#     4  10  18  39  63  87 127 170 216 267 340 403
#     4  11  22  40  63  96 127 173 228 280 342 411
#
# _framework density 21.943511000000001
#
# number of rings (size 3 to 8) (size 9 to 14) (size 15 to 20)
#    0.000    1.867    4.000    0.000    0.000    1.067 
#    0.000    0.000   23.467    0.000    0.000    0.000 
#    0.000    0.000    0.000    0.000    0.000    0.000 
#
# Total GULP energy -167117.018228 kJ/mol
# GULP energy per Si atom -5570.567274 kJ/mol
# Density = 2.189357 g / cm^3
# Si number density = 21.943511 Si / 1000 Ang^3
#
#
#
# Elastic Constant Matrix: (Units=GPa)
#
#
# Indices 1 2 3 4 5 6 
#
# 1 167.8016 27.1190 13.1539 0.0000 24.2818 0.0000
# 2 27.1190 50.5392 -0.3411 0.0000 1.0891 0.0000
# 3 13.1539 -0.3411 27.2547 0.0000 8.3491 0.0000
# 4 0.0000 0.0000 0.0000 6.0555 0.0000 2.6497
# 5 24.2818 1.0891 8.3491 0.0000 30.5114 0.0000
# 6 0.0000 0.0000 0.0000 2.6497 0.0000 54.4684
#
#
#
# Elastic Compliance Matrix: (Units=1/GPa)
#
#
# Indices 1 2 3 4 5 6 
#
# 1 0.007521 -0.003936 -0.002061 0.000000 -0.005281 0.000000
# 2 -0.003936 0.021868 0.001586 0.000000 0.001918 0.000000
# 3 -0.002061 0.001586 0.040626 0.000000 -0.009533 0.000000
# 4 0.000000 0.000000 0.000000 0.168731 0.000000 -0.008208
# 5 -0.005281 0.001918 -0.009533 0.000000 0.039518 0.000000
# 6 0.000000 0.000000 0.000000 -0.008208 0.000000 0.018759
#
#
# Mechanical properties :
#
#
# Convention : Reuss Voigt Hill
#
# Bulk Modulus (GPa) = 16.34200 36.16212 26.25206
# Shear Modulus (GPa) = 15.32599 31.91797 23.62198
#
# Velocity S-wave (km/s) = 2.64565 3.81800 3.28455
# Velocity P-wave (km/s) = 4.09830 5.99596 5.13554
#
# Compressibility (1/GPa) = 0.06119204
#
# Stress axis : x y z
#
# Youngs Moduli (GPa) = 132.95524 45.72888 24.61477
#
# Poissons Ratio (x) = 0.17999 0.05074
# Poissons Ratio (y) = 0.52331 -0.03903
# Poissons Ratio (z) = 0.27408 -0.07252
#
# Static dielectric constant tensor:
#      x y z
#    x 1.854860 0.000000 0.035250 
#    y 0.000000 1.969900 0.000000 
#    z 0.035250 0.000000 1.750250 
# 
# From -- ./inp_files/223632.got.cif
#   From: 2010.05.17/outbox.cif.g08.bks.cpg/sg15_112_cif.got.tgz:223632.got - 2010.06.03 18:47:42.
