data_PCOD9260913
_publ_section_title
;
Structure prediction by ZEFSAII (Michael W. Deem and Ramdas Pophale) SiO2 
 PCOD9260913
Probable space group: C 2/C
;
_chemical_formula_sum "Si O2"
_cell_formula_units_Z 44
_cell_length_a 27.689046
_cell_length_b 8.247211
_cell_length_c 29.815143
_cell_angle_alpha 90.000000
_cell_angle_beta 17.775137
_cell_angle_gamma 90.000000
_cell_volume 2078.515882
_symmetry_space_group_name_H-M "C 2/C"
_symmetry_group_IT_number 15
_symmetry_cell_setting 'monoclinic'
loop_
_space_group_symop_operation_xyz
x,y,z
-x,y,1/2-z
-x,-y,-z
x,-y,1/2+z
1/2+x,1/2+y,z
1/2-x,1/2+y,1/2-z
1/2-x,1/2-y,-z
1/2+x,1/2-y,1/2+z
loop_
_atom_site_type_symbol
_atom_site_label
_atom_site_fract_x
_atom_site_fract_y
_atom_site_fract_z
Si Si1 0.185443 0.386657 0.001246
Si Si2 0.252589 0.067706 0.784213
Si Si3 0.076353 0.740942 0.508770
Si Si4 0.238285 0.585737 0.872034
Si Si5 0.931399 0.225125 0.631578
Si Si6 0.500000 0.808083 0.250000
O O1 0.093338 0.268259 0.047543
O O2 0.221907 0.545625 0.939115
O O3 0.351866 0.303086 0.865922
O O4 0.073459 0.407013 0.143259
O O5 0.155991 0.107243 0.914901
O O6 0.400444 0.193081 0.650365
O O7 0.135254 0.106871 0.847409
O O8 0.332547 0.892662 0.714000
O O9 0.183478 0.585553 0.399297
O O10 0.399798 0.643700 0.707700
O O11 0.109997 0.717115 0.970502
#
# Coordination Sequence:
#
# PCOD9260913 Si02
#       6
#     8   8   8   8   8   4
#     4   9  20  37  63  94 113 144 185 251 293 358
#     4  11  21  34  56  82 119 158 206 229 278 322
#     4   9  20  36  55  85 113 153 187 248 277 345
#     4   9  22  38  54  81 120 153 195 234 295 331
#     4  11  22  37  54  84 119 167 195 242 267 340
#     4  10  18  38  70  96 108 136 194 244 310 354
#
# _framework density 21.168952000000001
#
# number of rings (size 3 to 8) (size 9 to 14) (size 15 to 20)
#    1.091    1.091    0.000    3.273    0.000    7.273 
#    0.000    0.000    0.000    3.273    0.000    0.000 
#    0.000    0.000    0.000    0.000    0.000    0.000 
#
# Total GULP energy -122724.957473 kJ/mol
# GULP energy per Si atom -5578.407158 kJ/mol
# Density = 2.112077 g / cm^3
# Si number density = 21.168952 Si / 1000 Ang^3
#
#
#
# Elastic Constant Matrix: (Units=GPa)
#
#
# Indices 1 2 3 4 5 6 
#
# 1 51.7932 -1.8636 3.3747 -0.0080 18.3994 0.0191
# 2 -1.8636 37.0183 12.1618 -0.0042 5.6751 -0.0105
# 3 3.3747 12.1618 44.4524 0.0064 10.8165 -0.0388
# 4 -0.0080 -0.0042 0.0064 21.1312 -0.0021 34.3247
# 5 18.3994 5.6751 10.8165 -0.0021 38.4896 0.0120
# 6 0.0191 -0.0105 -0.0388 34.3247 0.0120 -27.4905
#
#
#
# Elastic Compliance Matrix: (Units=1/GPa)
#
#
# Indices 1 2 3 4 5 6 
#
# 1 0.023577 0.002900 0.000283 -0.000003 -0.011778 0.000007
# 2 0.002900 0.030220 -0.007585 0.000003 -0.003710 0.000004
# 3 0.000283 -0.007585 0.026095 0.000016 -0.006350 -0.000016
# 4 -0.000003 0.000003 0.000016 0.015628 -0.000009 0.019513
# 5 -0.011778 -0.003710 -0.006350 -0.000009 0.033943 0.000006
# 6 0.000007 0.000004 -0.000016 0.019513 0.000006 -0.012013
#
#
# Mechanical properties :
#
#
# Convention : Reuss Voigt Hill
#
# Bulk Modulus (GPa) = 14.06733 17.84554 15.95644
# Shear Modulus (GPa) = 33.34387 14.39879 23.87133
#
# Velocity S-wave (km/s) = 3.97310 2.61086 3.36170
# Velocity P-wave (km/s) = 5.26375 4.18774 4.75627
#
# Compressibility (1/GPa) = 0.07108668
#
# Stress axis : x y z
#
# Youngs Moduli (GPa) = 42.41335 33.09013 38.32165
#
# Poissons Ratio (x) = -0.09595 -0.01083
# Poissons Ratio (y) = -0.12298 0.29068
# Poissons Ratio (z) = -0.01199 0.25100
#
# Static dielectric constant tensor:
#      x y z
#    x 1.792020 0.000000 0.027280 
#    y 0.000000 1.771520 0.000010 
#    z 0.027280 0.000010 1.751010 
# 
# From -- ./inp_files/319467.got.cif
#   From: 2010.05.17/outbox.cif.g08.bks.cpg/sg15_160_cif.got.tgz:319467.got - 2010.06.03 18:47:42.
