data_PCOD9260767
_publ_section_title
;
Structure prediction by ZEFSAII (Michael W. Deem and Ramdas Pophale) SiO2 
 PCOD9260767
Probable space group: C 2/C
;
_chemical_formula_sum "Si O2"
_cell_formula_units_Z 64
_cell_length_a 23.866186
_cell_length_b 9.368866
_cell_length_c 14.457208
_cell_angle_alpha 90.000000
_cell_angle_beta 127.449414
_cell_angle_gamma 90.000000
_cell_volume 2566.345263
_symmetry_space_group_name_H-M "C 2/C"
_symmetry_group_IT_number 15
_symmetry_cell_setting 'monoclinic'
loop_
_space_group_symop_operation_xyz
x,y,z
-x,y,1/2-z
-x,-y,-z
x,-y,1/2+z
1/2+x,1/2+y,z
1/2-x,1/2+y,1/2-z
1/2-x,1/2-y,-z
1/2+x,1/2-y,1/2+z
loop_
_atom_site_type_symbol
_atom_site_label
_atom_site_fract_x
_atom_site_fract_y
_atom_site_fract_z
Si Si1 0.199297 0.554131 0.096401
Si Si2 0.544386 0.895711 0.458301
Si Si3 0.323329 0.147860 0.627317
Si Si4 0.552027 0.341008 0.123554
Si Si5 0.273088 0.782309 0.279761
Si Si6 0.424764 0.356070 0.647534
Si Si7 0.437623 0.086444 0.261758
Si Si8 0.606852 0.562302 0.041410
O O1 0.116671 0.515809 0.024940
O O2 0.212660 0.671439 0.189818
O O3 0.241335 0.411025 0.164039
O O4 0.214671 0.628771 0.012054
O O5 0.546388 0.777170 0.538369
O O6 0.549555 0.789041 0.376251
O O7 0.475567 0.992302 0.380866
O O8 0.290883 0.148861 0.697134
O O9 0.372791 0.290146 0.671750
O O10 0.370508 0.005226 0.670340
O O11 0.582615 0.249280 0.237572
O O12 0.594543 0.471840 0.123438
O O13 0.470983 0.379812 0.059610
O O14 0.336049 0.683731 0.383314
O O15 0.500000 0.426027 0.750000
O O16 0.380823 0.452442 0.531133
O O17 0.500000 0.089540 0.250000
#
# Coordination Sequence:
#
# PCOD9260767 Si02
#       8
#     8   8   8   8   8   8   8   8
#     4  11  26  46  71  99 134 183 241 287 346 404
#     4  10  18  38  63  91 132 171 225 275 335 416
#     4  11  23  45  72 101 136 181 232 284 355 419
#     4  10  22  35  62  96 131 173 216 273 354 404
#     4  12  27  48  74  97 136 188 235 294 344 410
#     4  10  19  37  64  97 136 178 219 272 349 411
#     4  12  19  35  65  99 136 168 213 283 341 413
#     4  10  24  41  62  97 141 177 227 284 343 421
#
# _framework density 24.938189000000001
#
# number of rings (size 3 to 8) (size 9 to 14) (size 15 to 20)
#    0.000    1.250    3.750    3.000    8.750    0.500 
#    0.000    0.625    0.000    0.000    0.000    0.000 
#    0.000    0.000    0.000    0.000    0.000    0.000 
#
# Total GULP energy -178790.437055 kJ/mol
# GULP energy per Si atom -5587.201158 kJ/mol
# Density = 2.488143 g / cm^3
# Si number density = 24.938189 Si / 1000 Ang^3
#
#
#
# Elastic Constant Matrix: (Units=GPa)
#
#
# Indices 1 2 3 4 5 6 
#
# 1 27.9252 9.2450 5.8447 0.0000 -1.1125 0.0000
# 2 9.2450 103.2442 43.4566 0.0000 -3.6697 0.0000
# 3 5.8447 43.4566 87.7906 0.0000 6.8741 0.0000
# 4 0.0000 0.0000 0.0000 27.0679 0.0000 8.9143
# 5 -1.1125 -3.6697 6.8741 0.0000 24.4513 0.0000
# 6 0.0000 0.0000 0.0000 8.9143 0.0000 22.6878
#
#
#
# Elastic Compliance Matrix: (Units=1/GPa)
#
#
# Indices 1 2 3 4 5 6 
#
# 1 0.037040 -0.002738 -0.001238 0.000000 0.001622 0.000000
# 2 -0.002738 0.012759 -0.006415 0.000000 0.003594 0.000000
# 3 -0.001238 -0.006415 0.015060 0.000000 -0.005253 0.000000
# 4 0.000000 0.000000 0.000000 0.042435 0.000000 -0.016673
# 5 0.001622 0.003594 -0.005253 0.000000 0.042988 0.000000
# 6 0.000000 0.000000 0.000000 -0.016673 0.000000 0.050628
#
#
# Mechanical properties :
#
#
# Convention : Reuss Voigt Hill
#
# Bulk Modulus (GPa) = 22.68726 37.33918 30.01322
# Shear Modulus (GPa) = 21.15218 25.53564 23.34391
#
# Velocity S-wave (km/s) = 2.91552 3.20340 3.06285
# Velocity P-wave (km/s) = 4.52226 5.35608 4.95673
#
# Compressibility (1/GPa) = 0.04407760
#
# Stress axis : x y z
#
# Youngs Moduli (GPa) = 26.99778 78.37792 66.40231
#
# Poissons Ratio (x) = 0.21461 0.08218
# Poissons Ratio (y) = 0.07392 0.42595
# Poissons Ratio (z) = 0.03341 0.50277
#
# Static dielectric constant tensor:
#      x y z
#    x 2.055210 0.000000 -0.075670 
#    y 0.000000 1.967460 0.000000 
#    z -0.075670 0.000000 2.149820 
# 
# From -- ./inp_files/181173.got.cif
#   From: 2010.05.17/outbox.cif.g08.bks.cpg/sg15_91_cif.got.tgz:181173.got - 2010.06.03 18:47:42.
