data_PCOD9260420
_publ_section_title
;
Structure prediction by ZEFSAII (Michael W. Deem and Ramdas Pophale) SiO2 
 PCOD9260420
Probable space group: C 2/C
;
_chemical_formula_sum "Si O2"
_cell_formula_units_Z 60
_cell_length_a 12.437641
_cell_length_b 14.640107
_cell_length_c 16.581290
_cell_angle_alpha 90.000000
_cell_angle_beta 83.657612
_cell_angle_gamma 90.000000
_cell_volume 3000.781103
_symmetry_space_group_name_H-M "C 2/C"
_symmetry_group_IT_number 15
_symmetry_cell_setting 'monoclinic'
loop_
_space_group_symop_operation_xyz
x,y,z
-x,y,1/2-z
-x,-y,-z
x,-y,1/2+z
1/2+x,1/2+y,z
1/2-x,1/2+y,1/2-z
1/2-x,1/2-y,-z
1/2+x,1/2-y,1/2+z
loop_
_atom_site_type_symbol
_atom_site_label
_atom_site_fract_x
_atom_site_fract_y
_atom_site_fract_z
Si Si1 0.361105 0.632679 0.389374
Si Si2 0.325553 0.237082 0.173350
Si Si3 0.225540 0.644099 0.818096
Si Si4 0.358391 0.422314 0.072387
Si Si5 0.000000 0.634978 0.250000
Si Si6 0.341606 0.981059 0.325149
Si Si7 0.491335 0.813715 0.347933
Si Si8 0.439827 0.550930 0.836431
O O1 0.245504 0.661811 0.364973
O O2 0.353135 0.588731 0.477936
O O3 0.432856 0.724491 0.386769
O O4 0.409251 0.554854 0.328233
O O5 0.264362 0.271940 0.258864
O O6 0.331444 0.324490 0.115201
O O7 0.439956 0.197540 0.189994
O O8 0.194233 0.563791 0.757169
O O9 0.112845 0.669898 0.869501
O O10 0.329793 0.608161 0.857259
O O11 0.267309 0.490929 0.114154
O O12 0.475936 0.444567 0.097647
O O13 0.088484 0.569685 0.200423
O O14 0.417710 0.904414 0.361452
O O15 0.500000 0.799776 0.250000
O O16 0.500000 0.584264 0.750000
#
# Coordination Sequence:
#
# PCOD9260420 Si02
#       8
#     8   8   8   8   4   8   8   8
#     4  12  24  38  64  92 120 166 213 238 298 387
#     4  11  22  37  62  89 121 156 202 249 304 371
#     4  10  19  39  61  90 121 155 198 260 312 337
#     4  11  24  44  58  88 133 166 189 252 318 363
#     4  12  22  36  62 100 116 152 212 268 300 354
#     4  10  19  36  61  84 124 152 196 256 302 348
#     4  10  18  37  61  90 115 155 205 252 289 348
#     4  12  23  39  64  92 121 158 208 258 305 352
#
# _framework density 19.994793999999999
#
# number of rings (size 3 to 8) (size 9 to 14) (size 15 to 20)
#    0.000    1.067    8.667    2.800    0.000    0.000 
#    0.000    2.667    0.000    0.000    0.000    0.000 
#    0.000    0.000    0.000    0.000    0.000    0.000 
#
# Total GULP energy -167581.009070 kJ/mol
# GULP energy per Si atom -5586.033636 kJ/mol
# Density = 1.994929 g / cm^3
# Si number density = 19.994794 Si / 1000 Ang^3
#
#
#
# Elastic Constant Matrix: (Units=GPa)
#
#
# Indices 1 2 3 4 5 6 
#
# 1 136.4682 14.5347 28.4532 0.0000 14.6828 0.0000
# 2 14.5347 32.5671 7.9014 0.0000 6.0947 0.0000
# 3 28.4532 7.9014 35.2211 0.0000 3.9951 0.0000
# 4 0.0000 0.0000 0.0000 10.3450 0.0000 -4.5408
# 5 14.6828 6.0947 3.9951 0.0000 18.7843 0.0000
# 6 0.0000 0.0000 0.0000 -4.5408 0.0000 44.4154
#
#
#
# Elastic Compliance Matrix: (Units=1/GPa)
#
#
# Indices 1 2 3 4 5 6 
#
# 1 0.009478 -0.001585 -0.006681 0.000000 -0.005474 0.000000
# 2 -0.001585 0.034371 -0.005437 0.000000 -0.008757 0.000000
# 3 -0.006681 -0.005437 0.035062 0.000000 -0.000471 0.000000
# 4 0.000000 0.000000 0.000000 0.101206 0.000000 0.010347
# 5 -0.005474 -0.008757 -0.000471 0.000000 0.060456 0.000000
# 6 0.000000 0.000000 0.000000 0.010347 0.000000 0.023573
#
#
# Mechanical properties :
#
#
# Convention : Reuss Voigt Hill
#
# Bulk Modulus (GPa) = 19.41508 34.00389 26.70948
# Shear Modulus (GPa) = 16.19589 24.93343 20.56466
#
# Velocity S-wave (km/s) = 2.84915 3.53511 3.21050
# Velocity P-wave (km/s) = 4.53372 5.80569 5.20868
#
# Compressibility (1/GPa) = 0.05150636
#
# Stress axis : x y z
#
# Youngs Moduli (GPa) = 105.50391 29.09417 28.52077
#
# Poissons Ratio (x) = 0.04611 0.19054
# Poissons Ratio (y) = 0.16722 0.15507
# Poissons Ratio (z) = 0.70483 0.15819
#
# Static dielectric constant tensor:
#      x y z
#    x 1.752720 0.000000 -0.012410 
#    y 0.000000 1.701540 0.000000 
#    z -0.012410 0.000000 1.680290 
# 
# From -- ./inp_files/197878.got.cif
#   From: 2010.05.17/outbox.cif.g08.bks.cpg/sg15_99_cif.got.tgz:197878.got - 2010.06.03 18:47:42.
