data_PCOD9260162
_publ_section_title
;
Structure prediction by ZEFSAII (Michael W. Deem and Ramdas Pophale) SiO2 
 PCOD9260162
Probable space group: C 2/C
;
_chemical_formula_sum "Si O2"
_cell_formula_units_Z 64
_cell_length_a 23.930263
_cell_length_b 14.834043
_cell_length_c 9.863199
_cell_angle_alpha 90.000000
_cell_angle_beta 52.901323
_cell_angle_gamma 90.000000
_cell_volume 2792.600293
_symmetry_space_group_name_H-M "C 2/C"
_symmetry_group_IT_number 15
_symmetry_cell_setting 'monoclinic'
loop_
_space_group_symop_operation_xyz
x,y,z
-x,y,1/2-z
-x,-y,-z
x,-y,1/2+z
1/2+x,1/2+y,z
1/2-x,1/2+y,1/2-z
1/2-x,1/2-y,-z
1/2+x,1/2-y,1/2+z
loop_
_atom_site_type_symbol
_atom_site_label
_atom_site_fract_x
_atom_site_fract_y
_atom_site_fract_z
Si Si1 0.932113 0.931035 0.933654
Si Si2 0.854322 0.657540 0.990230
Si Si3 0.736260 0.025455 0.487097
Si Si4 0.239535 0.314031 0.195888
Si Si5 0.070567 0.245464 0.891368
Si Si6 0.295705 0.336548 0.400351
Si Si7 0.414880 0.766720 0.127878
Si Si8 0.379783 0.436928 0.727485
O O1 0.876790 0.946516 0.894543
O O2 0.000000 0.958496 0.750000
O O3 0.939697 0.829490 0.974803
O O4 0.921001 0.989891 0.082336
O O5 0.787233 0.728224 0.078811
O O6 0.887867 0.676774 0.087866
O O7 0.831989 0.553391 0.999900
O O8 0.904166 0.686822 0.791447
O O9 0.732802 0.102125 0.606005
O O10 0.800642 0.053289 0.296365
O O11 0.758462 0.927073 0.509535
O O12 0.283007 0.349273 0.259332
O O13 0.158052 0.288736 0.344352
O O14 0.122629 0.194069 0.708365
O O15 0.994016 0.279763 0.957247
O O16 0.250000 0.250000 0.500000
O O17 0.410076 0.659947 0.155578
#
# Coordination Sequence:
#
# PCOD9260162 Si02
#       8
#     8   8   8   8   8   8   8   8
#     4  12  23  36  55  90 141 176 221 260 335 414
#     4  10  18  36  63  94 124 167 223 268 316 387
#     4  11  21  38  67  93 126 171 228 266 327 403
#     4  10  21  39  65  95 129 173 223 276 321 395
#     4  11  21  38  64  91 131 174 216 283 341 399
#     4  11  26  44  63  92 131 171 218 278 350 406
#     4  11  19  36  62  93 128 169 216 272 332 388
#     4  12  22  36  58  93 134 175 216 273 323 408
#
# _framework density 22.91771
#
# number of rings (size 3 to 8) (size 9 to 14) (size 15 to 20)
#    0.000    1.000    6.250    2.250    0.000    3.000 
#    0.000    0.625    0.000    9.750    0.000    0.000 
#    0.000    0.000    0.000    0.000    0.000    0.000 
#
# Total GULP energy -178336.668907 kJ/mol
# GULP energy per Si atom -5573.020903 kJ/mol
# Density = 2.286555 g / cm^3
# Si number density = 22.917710 Si / 1000 Ang^3
#
#
#
# Elastic Constant Matrix: (Units=GPa)
#
#
# Indices 1 2 3 4 5 6 
#
# 1 52.4564 9.8321 17.4585 0.0000 -31.7648 0.0000
# 2 9.8321 72.5689 21.3421 0.0000 -27.7403 0.0000
# 3 17.4585 21.3421 72.8185 0.0000 -32.7627 0.0000
# 4 0.0000 0.0000 0.0000 26.7180 0.0000 -0.0601
# 5 -31.7648 -27.7403 -32.7627 0.0000 43.0699 0.0000
# 6 0.0000 0.0000 0.0000 -0.0601 0.0000 10.6266
#
#
#
# Elastic Compliance Matrix: (Units=1/GPa)
#
#
# Indices 1 2 3 4 5 6 
#
# 1 0.038403 0.007437 0.005338 0.000000 0.037174 0.000000
# 2 0.007437 0.019721 0.000942 0.000000 0.018904 0.000000
# 3 0.005338 0.000942 0.021621 0.000000 0.020991 0.000000
# 4 0.000000 0.000000 0.000000 0.037428 0.000000 0.000212
# 5 0.037174 0.018904 0.020991 0.000000 0.078777 0.000000
# 6 0.000000 0.000000 0.000000 0.000212 0.000000 0.094105
#
#
# Mechanical properties :
#
#
# Convention : Reuss Voigt Hill
#
# Bulk Modulus (GPa) = 9.33006 32.78991 21.05998
# Shear Modulus (GPa) = 16.75893 26.03029 21.39461
#
# Velocity S-wave (km/s) = 2.70713 3.37384 3.05870
# Velocity P-wave (km/s) = 3.72174 5.43285 4.65656
#
# Compressibility (1/GPa) = 0.10718049
#
# Stress axis : x y z
#
# Youngs Moduli (GPa) = 26.03941 50.70617 46.25149
#
# Poissons Ratio (x) = -0.37710 -0.24691
# Poissons Ratio (y) = -0.19366 -0.04357
# Poissons Ratio (z) = -0.13901 -0.04777
#
# Static dielectric constant tensor:
#      x y z
#    x 2.064600 0.000000 -0.064900 
#    y 0.000000 1.894540 0.000000 
#    z -0.064900 0.000000 1.985080 
# 
# From -- ./inp_files/123518.got.cif
#   From: 2010.05.17/outbox.cif.g08.bks.cpg/sg15_62_cif.got.tgz:123518.got - 2010.06.03 18:47:42.
