data_PCOD9260436
_publ_section_title
;
Structure prediction by ZEFSAII (Michael W. Deem and Ramdas Pophale) SiO2 
 PCOD9260436
Probable space group: C 2/C
;
_chemical_formula_sum "Si O2"
_cell_formula_units_Z 64
_cell_length_a 8.660647
_cell_length_b 16.011672
_cell_length_c 24.113349
_cell_angle_alpha 90.000000
_cell_angle_beta 97.154004
_cell_angle_gamma 90.000000
_cell_volume 3317.801058
_symmetry_space_group_name_H-M "C 2/C"
_symmetry_group_IT_number 15
_symmetry_cell_setting 'monoclinic'
loop_
_space_group_symop_operation_xyz
x,y,z
-x,y,1/2-z
-x,-y,-z
x,-y,1/2+z
1/2+x,1/2+y,z
1/2-x,1/2+y,1/2-z
1/2-x,1/2-y,-z
1/2+x,1/2-y,1/2+z
loop_
_atom_site_type_symbol
_atom_site_label
_atom_site_fract_x
_atom_site_fract_y
_atom_site_fract_z
Si Si1 0.829952 0.281743 0.728132
Si Si2 0.865917 0.397984 0.623472
Si Si3 0.944012 0.268210 0.348586
Si Si4 0.585509 0.075699 0.894136
Si Si5 0.878145 0.886228 0.698670
Si Si6 0.321926 0.949951 0.903328
Si Si7 0.303020 0.347425 0.497899
Si Si8 0.356369 0.301902 0.962904
O O1 0.845744 0.344768 0.677095
O O2 0.702940 0.218557 0.698088
O O3 0.754573 0.334607 0.774499
O O4 0.000000 0.248550 0.750000
O O5 0.746947 0.372996 0.570326
O O6 0.847925 0.495578 0.634303
O O7 0.039462 0.386525 0.607728
O O8 0.048598 0.349384 0.351641
O O9 0.903852 0.254820 0.411757
O O10 0.028556 0.183920 0.332296
O O11 0.706713 0.110411 0.944106
O O12 0.424608 0.035492 0.913829
O O13 0.798640 0.951046 0.653168
O O14 0.000000 0.919486 0.750000
O O15 0.239093 0.906914 0.951688
O O16 0.250000 0.250000 0.500000
O O17 0.489483 0.339482 0.502290
O O18 0.250000 0.250000 0.000000
#
# Coordination Sequence:
#
# PCOD9260436 Si02
#       8
#     8   8   8   8   8   8   8   8
#     4  10  18  37  62  87 110 150 198 258 306 351
#     4   9  22  36  59  87 122 152 198 249 309 358
#     4  10  21  38  59  86 119 154 209 243 290 372
#     4  10  22  39  59  88 123 163 194 248 308 361
#     4  10  19  36  64  87 110 159 206 248 302 369
#     4  10  20  37  59  88 120 159 202 247 304 371
#     4  12  21  36  63  86 122 166 208 241 297 370
#     4  11  22  36  59  89 121 157 204 250 291 356
#
# _framework density 19.289885999999999
#
# number of rings (size 3 to 8) (size 9 to 14) (size 15 to 20)
#    0.750    1.000    3.750    1.125    0.000    0.500 
#    0.000    6.250    0.000    0.000    0.000    0.000 
#    0.000    0.000    0.000    0.000    0.000    0.000 
#
# Total GULP energy -178233.408914 kJ/mol
# GULP energy per Si atom -5569.794029 kJ/mol
# Density = 1.924598 g / cm^3
# Si number density = 19.289886 Si / 1000 Ang^3
#
#
#
# Elastic Constant Matrix: (Units=GPa)
#
#
# Indices 1 2 3 4 5 6 
#
# 1 110.5084 8.5678 45.7250 0.0000 29.0942 0.0000
# 2 8.5678 42.9332 17.3685 0.0000 22.0521 0.0000
# 3 45.7250 17.3685 83.2387 0.0000 30.5296 0.0000
# 4 0.0000 0.0000 0.0000 10.6728 0.0000 6.1874
# 5 29.0942 22.0521 30.5296 0.0000 45.2984 0.0000
# 6 0.0000 0.0000 0.0000 6.1874 0.0000 29.9138
#
#
#
# Elastic Compliance Matrix: (Units=1/GPa)
#
#
# Indices 1 2 3 4 5 6 
#
# 1 0.012569 0.002600 -0.005342 0.000000 -0.005738 0.000000
# 2 0.002600 0.031693 -0.002351 0.000000 -0.015514 0.000000
# 3 -0.005342 -0.002351 0.018279 0.000000 -0.007744 0.000000
# 4 0.000000 0.000000 0.000000 0.106463 0.000000 -0.022021
# 5 -0.005738 -0.015514 -0.007744 0.000000 0.038533 0.000000
# 6 0.000000 0.000000 0.000000 -0.022021 0.000000 0.037984
#
#
# Mechanical properties :
#
#
# Convention : Reuss Voigt Hill
#
# Bulk Modulus (GPa) = 19.10078 42.22255 30.66167
# Shear Modulus (GPa) = 18.30442 28.17826 23.24134
#
# Velocity S-wave (km/s) = 3.08378 3.82616 3.47485
# Velocity P-wave (km/s) = 4.75427 6.43858 5.65943
#
# Compressibility (1/GPa) = 0.05235388
#
# Stress axis : x y z
#
# Youngs Moduli (GPa) = 79.56325 31.55277 54.70749
#
# Poissons Ratio (x) = -0.08204 0.29227
# Poissons Ratio (y) = -0.20688 0.12863
# Poissons Ratio (z) = 0.42505 0.07419
#
# Static dielectric constant tensor:
#      x y z
#    x 1.735160 0.000000 0.000970 
#    y 0.000000 1.662730 0.000000 
#    z 0.000970 0.000000 1.682490 
# 
# From -- ./inp_files/265286.got.cif
#   From: 2010.05.17/outbox.cif.g08.bks.cpg/sg15_133_cif.got.tgz:265286.got - 2010.06.03 18:47:42.
