data_PCOD9260613
_publ_section_title
;
Structure prediction by ZEFSAII (Michael W. Deem and Ramdas Pophale) SiO2 
 PCOD9260613
Probable space group: C 2/C
;
_chemical_formula_sum "Si O2"
_cell_formula_units_Z 48
_cell_length_a 20.651983
_cell_length_b 8.665623
_cell_length_c 19.386747
_cell_angle_alpha 90.000000
_cell_angle_beta 38.219700
_cell_angle_gamma 90.000000
_cell_volume 2146.503290
_symmetry_space_group_name_H-M "C 2/C"
_symmetry_group_IT_number 15
_symmetry_cell_setting 'monoclinic'
loop_
_space_group_symop_operation_xyz
x,y,z
-x,y,1/2-z
-x,-y,-z
x,-y,1/2+z
1/2+x,1/2+y,z
1/2-x,1/2+y,1/2-z
1/2-x,1/2-y,-z
1/2+x,1/2-y,1/2+z
loop_
_atom_site_type_symbol
_atom_site_label
_atom_site_fract_x
_atom_site_fract_y
_atom_site_fract_z
Si Si1 0.501017 0.948047 0.332012
Si Si2 0.869581 0.179175 0.485448
Si Si3 0.619560 0.458129 0.916811
Si Si4 0.198821 0.980525 0.076417
Si Si5 0.605106 0.242493 0.062166
Si Si6 0.387567 0.337167 0.722281
O O1 0.500000 0.931834 0.250000
O O2 0.399683 0.856429 0.448139
O O3 0.402773 0.846974 0.219785
O O4 0.493833 0.127482 0.356684
O O5 0.989018 0.113670 0.375275
O O6 0.835742 0.116963 0.588300
O O7 0.795084 0.102306 0.491681
O O8 0.659133 0.388816 0.811765
O O9 0.500000 0.500000 0.000000
O O10 0.622653 0.333614 0.976094
O O11 0.111337 0.861274 0.120376
O O12 0.168191 0.077682 0.168713
O O13 0.297824 0.872239 0.005710
#
# Coordination Sequence:
#
# PCOD9260613 Si02
#       6
#     8   8   8   8   8   8
#     4  10  19  34  53  90 108 134 202 239 274 338
#     4   8  16  33  56  81 108 151 189 221 288 343
#     4   9  18  35  57  79 108 157 186 224 289 347
#     4  10  18  38  58  78 115 151 181 237 294 342
#     4  10  23  33  57  89 113 142 195 242 285 341
#     4   9  17  34  60  77 113 152 189 225 289 346
#
# _framework density 22.36195
#
# number of rings (size 3 to 8) (size 9 to 14) (size 15 to 20)
#    1.000    1.667    1.667    0.500    0.000    5.333 
#    0.000    1.667    7.333    0.000    0.000    0.000 
#    0.000    0.000    0.000    0.000    0.000    0.000 
#
# Total GULP energy -133642.759863 kJ/mol
# GULP energy per Si atom -5568.448328 kJ/mol
# Density = 2.231105 g / cm^3
# Si number density = 22.361950 Si / 1000 Ang^3
#
#
#
# Elastic Constant Matrix: (Units=GPa)
#
#
# Indices 1 2 3 4 5 6 
#
# 1 60.8974 13.6792 27.9318 0.0000 13.7226 0.0000
# 2 13.6792 116.9803 25.9886 0.0000 17.2318 0.0000
# 3 27.9318 25.9886 70.2711 0.0000 25.7943 0.0000
# 4 0.0000 0.0000 0.0000 20.6377 0.0000 2.7928
# 5 13.7226 17.2318 25.7943 0.0000 44.4178 0.0000
# 6 0.0000 0.0000 0.0000 2.7928 0.0000 9.3025
#
#
#
# Elastic Compliance Matrix: (Units=1/GPa)
#
#
# Indices 1 2 3 4 5 6 
#
# 1 0.020248 -0.000495 -0.007167 0.000000 -0.001901 0.000000
# 2 -0.000495 0.009475 -0.002560 0.000000 -0.002036 0.000000
# 3 -0.007167 -0.002560 0.021413 0.000000 -0.009228 0.000000
# 4 0.000000 0.000000 0.000000 0.050507 0.000000 -0.015163
# 5 -0.001901 -0.002036 -0.009228 0.000000 0.029250 0.000000
# 6 0.000000 0.000000 0.000000 -0.015163 0.000000 0.112051
#
#
# Mechanical properties :
#
#
# Convention : Reuss Voigt Hill
#
# Bulk Modulus (GPa) = 32.58218 42.59424 37.58821
# Shear Modulus (GPa) = 18.27352 26.90818 22.59085
#
# Velocity S-wave (km/s) = 2.86172 3.47263 3.18187
# Velocity P-wave (km/s) = 5.05186 5.93025 5.50859
#
# Compressibility (1/GPa) = 0.03069162
#
# Stress axis : x y z
#
# Youngs Moduli (GPa) = 49.38711 105.54057 46.69951
#
# Poissons Ratio (x) = 0.05228 0.33471
# Poissons Ratio (y) = 0.02447 0.11954
# Poissons Ratio (z) = 0.35397 0.27017
#
# Static dielectric constant tensor:
#      x y z
#    x 1.863410 0.000000 -0.058850 
#    y 0.000000 1.906160 0.000000 
#    z -0.058850 0.000000 1.865820 
# 
# From -- ./inp_files/218122.got.cif
#   From: 2010.05.17/outbox.cif.g08.bks.cpg/sg15_110_cif.got.tgz:218122.got - 2010.06.03 18:47:42.
