data_PCOD9260105
_publ_section_title
;
Structure prediction by ZEFSAII (Michael W. Deem and Ramdas Pophale) SiO2 
 PCOD9260105
Probable space group: C 2/C
;
_chemical_formula_sum "Si O2"
_cell_formula_units_Z 56
_cell_length_a 16.350409
_cell_length_b 12.205638
_cell_length_c 15.665120
_cell_angle_alpha 90.000000
_cell_angle_beta 55.144644
_cell_angle_gamma 90.000000
_cell_volume 2565.387575
_symmetry_space_group_name_H-M "C 2/C"
_symmetry_group_IT_number 15
_symmetry_cell_setting 'monoclinic'
loop_
_space_group_symop_operation_xyz
x,y,z
-x,y,1/2-z
-x,-y,-z
x,-y,1/2+z
1/2+x,1/2+y,z
1/2-x,1/2+y,1/2-z
1/2-x,1/2-y,-z
1/2+x,1/2-y,1/2+z
loop_
_atom_site_type_symbol
_atom_site_label
_atom_site_fract_x
_atom_site_fract_y
_atom_site_fract_z
Si Si1 0.500000 0.120264 0.750000
Si Si2 0.361608 0.431078 0.768214
Si Si3 0.040906 0.248354 0.394172
Si Si4 0.801067 0.407709 0.164875
Si Si5 0.682428 0.244846 0.123918
Si Si6 0.338163 0.662125 0.465323
Si Si7 0.303440 0.008386 0.856245
Si Si8 0.000000 0.113415 0.750000
O O1 0.468519 0.192687 0.690578
O O2 0.406099 0.050553 0.835898
O O3 0.385971 0.354233 0.672216
O O4 0.248966 0.480542 0.841868
O O5 0.378467 0.369128 0.847758
O O6 0.439798 0.532009 0.723025
O O7 0.093212 0.345731 0.418070
O O8 0.927679 0.205221 0.473175
O O9 0.726681 0.315979 0.174556
O O10 0.796177 0.435278 0.267856
O O11 0.579614 0.304694 0.160906
O O12 0.683009 0.120631 0.154212
O O13 0.750000 0.250000 0.000000
O O14 0.250000 0.750000 0.500000
O O15 0.288666 0.553966 0.534991
#
# Coordination Sequence:
#
# PCOD9260105 Si02
#       8
#     4   8   8   8   8   8   8   4
#     4  10  18  36  62  88 126 172 224 264 342 414
#     4  11  20  40  68  91 129 182 225 275 344 411
#     4  11  19  39  63  97 131 175 224 285 335 413
#     4  10  24  41  62  94 136 172 221 286 349 400
#     4  11  24  44  68  98 136 181 233 290 349 433
#     4  12  21  37  68 102 127 173 234 278 335 430
#     4  11  22  38  64  94 132 177 220 287 351 403
#     4  10  20  40  68  94 126 182 234 270 342 418
#
# _framework density 21.829059999999998
#
# number of rings (size 3 to 8) (size 9 to 14) (size 15 to 20)
#    0.000    1.143    4.286    3.857    0.000    0.000 
#    5.143    2.143    3.143    0.000    0.000    0.000 
#    0.000    0.000    0.000    0.000    0.000    0.000 
#
# Total GULP energy -155943.509845 kJ/mol
# GULP energy per Si atom -5569.411066 kJ/mol
# Density = 2.177938 g / cm^3
# Si number density = 21.829060 Si / 1000 Ang^3
#
#
#
# Elastic Constant Matrix: (Units=GPa)
#
#
# Indices 1 2 3 4 5 6 
#
# 1 80.2334 37.1414 12.7738 0.0000 -25.3096 0.0000
# 2 37.1414 106.8765 25.2919 0.0000 -6.9630 0.0000
# 3 12.7738 25.2919 56.6975 0.0000 -18.1293 0.0000
# 4 0.0000 0.0000 0.0000 22.0217 0.0000 -16.5160
# 5 -25.3096 -6.9630 -18.1293 0.0000 29.7223 0.0000
# 6 0.0000 0.0000 0.0000 -16.5160 0.0000 40.6173
#
#
#
# Elastic Compliance Matrix: (Units=1/GPa)
#
#
# Indices 1 2 3 4 5 6 
#
# 1 0.021048 -0.007147 0.004524 0.000000 0.019008 0.000000
# 2 -0.007147 0.012893 -0.006362 0.000000 -0.006946 0.000000
# 3 0.004524 -0.006362 0.025109 0.000000 0.017677 0.000000
# 4 0.000000 0.000000 0.000000 0.065334 0.000000 0.026567
# 5 0.019008 -0.006946 0.017677 0.000000 0.058986 0.000000
# 6 0.000000 0.000000 0.000000 0.026567 0.000000 0.035423
#
#
# Mechanical properties :
#
#
# Convention : Reuss Voigt Hill
#
# Bulk Modulus (GPa) = 24.34290 43.80238 34.07264
# Shear Modulus (GPa) = 19.96354 29.71227 24.83791
#
# Velocity S-wave (km/s) = 3.02742 3.69336 3.37684
# Velocity P-wave (km/s) = 4.83696 6.18850 5.55399
#
# Compressibility (1/GPa) = 0.04107974
#
# Stress axis : x y z
#
# Youngs Moduli (GPa) = 47.51070 77.55968 39.82680
#
# Poissons Ratio (x) = 0.55430 -0.18018
# Poissons Ratio (y) = 0.33954 0.25339
# Poissons Ratio (z) = -0.21494 0.49346
#
# Static dielectric constant tensor:
#      x y z
#    x 1.944480 0.000000 -0.061300 
#    y 0.000000 1.849060 0.000000 
#    z -0.061300 0.000000 1.781560 
# 
# From -- ./inp_files/210585.got.cif
#   From: 2010.05.17/outbox.cif.g08.bks.cpg/sg15_106_cif.got.tgz:210585.got - 2010.06.03 18:47:42.
