data_PCOD9260700
_publ_section_title
;
Structure prediction by ZEFSAII (Michael W. Deem and Ramdas Pophale) SiO2 
 PCOD9260700
Probable space group: C 2/C
;
_chemical_formula_sum "Si O2"
_cell_formula_units_Z 48
_cell_length_a 11.709275
_cell_length_b 14.608975
_cell_length_c 15.494438
_cell_angle_alpha 90.000000
_cell_angle_beta 107.460089
_cell_angle_gamma 90.000000
_cell_volume 2528.368379
_symmetry_space_group_name_H-M "C 2/C"
_symmetry_group_IT_number 15
_symmetry_cell_setting 'monoclinic'
loop_
_space_group_symop_operation_xyz
x,y,z
-x,y,1/2-z
-x,-y,-z
x,-y,1/2+z
1/2+x,1/2+y,z
1/2-x,1/2+y,1/2-z
1/2-x,1/2-y,-z
1/2+x,1/2-y,1/2+z
loop_
_atom_site_type_symbol
_atom_site_label
_atom_site_fract_x
_atom_site_fract_y
_atom_site_fract_z
Si Si1 0.811533 0.431857 0.650569
Si Si2 0.267981 0.375629 0.410762
Si Si3 0.376358 0.327855 0.255244
Si Si4 0.417682 0.786234 0.019835
Si Si5 0.197407 0.253011 0.083623
Si Si6 0.923650 0.624995 0.342050
O O1 0.757687 0.517168 0.586703
O O2 0.719269 0.348331 0.625700
O O3 0.848592 0.441228 0.760855
O O4 0.937739 0.404130 0.634166
O O5 0.313539 0.370168 0.323454
O O6 0.363290 0.314449 0.486165
O O7 0.144653 0.324705 0.408526
O O8 0.500000 0.370997 0.250000
O O9 0.281399 0.319517 0.157695
O O10 0.410440 0.225287 0.295554
O O11 0.559758 0.780044 0.055752
O O12 0.386640 0.855112 0.932507
O O13 0.250000 0.250000 0.000000
#
# Coordination Sequence:
#
# PCOD9260700 Si02
#       6
#     8   8   8   8   8   8
#     4  10  19  35  58  87 114 147 200 240 274 338
#     4  10  23  38  57  85 120 152 185 244 296 337
#     4  10  18  38  62  79 111 160 195 225 285 358
#     4  10  21  39  58  83 122 154 185 237 300 343
#     4  11  19  34  62  89 109 154 200 233 279 348
#     4   9  17  36  61  78 112 154 194 234 275 334
#
# _framework density 18.984576000000001
#
# number of rings (size 3 to 8) (size 9 to 14) (size 15 to 20)
#    0.000    2.000    5.000    1.000    0.000    4.667 
#    3.000    0.000   11.000    0.000    0.000    0.000 
#    0.000    0.000    0.000    0.000    0.000    0.000 
#
# Total GULP energy -133640.968106 kJ/mol
# GULP energy per Si atom -5568.373671 kJ/mol
# Density = 1.894137 g / cm^3
# Si number density = 18.984576 Si / 1000 Ang^3
#
#
#
# Elastic Constant Matrix: (Units=GPa)
#
#
# Indices 1 2 3 4 5 6 
#
# 1 134.6415 9.2354 43.5368 0.0000 -0.1864 0.0000
# 2 9.2354 37.0793 8.0045 0.0000 7.8906 0.0000
# 3 43.5368 8.0045 48.7733 0.0000 0.5432 0.0000
# 4 0.0000 0.0000 0.0000 -7.4062 0.0000 -14.1782
# 5 -0.1864 7.8906 0.5432 0.0000 27.8912 0.0000
# 6 0.0000 0.0000 0.0000 -14.1782 0.0000 12.0683
#
#
#
# Elastic Compliance Matrix: (Units=1/GPa)
#
#
# Indices 1 2 3 4 5 6 
#
# 1 0.010459 -0.000710 -0.009225 0.000000 0.000450 0.000000
# 2 -0.000710 0.029825 -0.004168 0.000000 -0.008361 0.000000
# 3 -0.009225 -0.004168 0.029416 0.000000 0.000545 0.000000
# 4 0.000000 0.000000 0.000000 -0.041557 0.000000 -0.048823
# 5 0.000450 -0.008361 0.000545 0.000000 0.038211 0.000000
# 6 0.000000 0.000000 0.000000 -0.048823 0.000000 0.025503
#
#
# Mechanical properties :
#
#
# Convention : Reuss Voigt Hill
#
# Bulk Modulus (GPa) = 24.09964 38.00529 31.05247
# Shear Modulus (GPa) = 37.34279 17.15848 27.25063
#
# Velocity S-wave (km/s) = 4.43991 3.00961 3.79279
# Velocity P-wave (km/s) = 6.24544 5.66917 5.96427
#
# Compressibility (1/GPa) = 0.04149439
#
# Stress axis : x y z
#
# Youngs Moduli (GPa) = 95.60830 33.52887 33.99561
#
# Poissons Ratio (x) = 0.02379 0.31361
# Poissons Ratio (y) = 0.06784 0.14170
# Poissons Ratio (z) = 0.88198 0.13976
#
# Static dielectric constant tensor:
#      x y z
#    x 1.672320 0.000000 -0.016900 
#    y 0.000000 1.672370 0.000000 
#    z -0.016900 0.000000 1.716380 
# 
# From -- ./inp_files/143816.got.cif
#   From: 2010.05.17/outbox.cif.g08.bks.cpg/sg15_72_cif.got.tgz:143816.got - 2010.06.03 18:47:42.
