data_PCOD9260103
_publ_section_title
;
Structure prediction by ZEFSAII (Michael W. Deem and Ramdas Pophale) SiO2 
 PCOD9260103
Probable space group: C 2/C
;
_chemical_formula_sum "Si O2"
_cell_formula_units_Z 40
_cell_length_a 13.978290
_cell_length_b 11.039161
_cell_length_c 13.331504
_cell_angle_alpha 90.000000
_cell_angle_beta 119.470156
_cell_angle_gamma 90.000000
_cell_volume 1790.993231
_symmetry_space_group_name_H-M "C 2/C"
_symmetry_group_IT_number 15
_symmetry_cell_setting 'monoclinic'
loop_
_space_group_symop_operation_xyz
x,y,z
-x,y,1/2-z
-x,-y,-z
x,-y,1/2+z
1/2+x,1/2+y,z
1/2-x,1/2+y,1/2-z
1/2-x,1/2-y,-z
1/2+x,1/2-y,1/2+z
loop_
_atom_site_type_symbol
_atom_site_label
_atom_site_fract_x
_atom_site_fract_y
_atom_site_fract_z
Si Si1 0.500000 0.671592 0.250000
Si Si2 0.569005 0.934172 0.946761
Si Si3 0.727317 0.409461 0.776397
Si Si4 0.263606 0.670963 0.671736
Si Si5 0.857468 0.672496 0.534513
Si Si6 0.500000 0.753233 0.750000
O O1 0.391885 0.601280 0.231105
O O2 0.541809 0.749035 0.368990
O O3 0.500739 0.840944 0.846266
O O4 0.618677 0.041984 0.904275
O O5 0.672356 0.862403 0.043676
O O6 0.500000 0.000000 0.000000
O O7 0.741748 0.551979 0.757697
O O8 0.733092 0.302571 0.698730
O O9 0.821556 0.369004 0.904056
O O10 0.387245 0.679169 0.694331
O O11 0.750000 0.750000 0.500000
#
# Coordination Sequence:
#
# PCOD9260103 Si02
#       6
#     4   8   8   8   8   4
#     4  10  18  36  62  88 119 164 211 274 333 388
#     4  11  23  42  66  97 133 175 224 277 336 401
#     4  10  22  40  61  90 127 167 217 271 326 393
#     4  11  24  42  63  94 132 175 224 275 331 399
#     4   9  19  34  58  89 120 158 209 261 319 387
#     4  12  24  42  66  94 133 180 219 278 341 396
#
# _framework density 22.333977000000001
#
# number of rings (size 3 to 8) (size 9 to 14) (size 15 to 20)
#    0.000    1.600    0.000    5.400    0.000    4.800 
#    0.000    6.000    0.000    0.000    0.000    0.000 
#    0.000    0.000    0.000    0.000    0.000    0.000 
#
# Total GULP energy -111335.447823 kJ/mol
# GULP energy per Si atom -5566.772391 kJ/mol
# Density = 2.228314 g / cm^3
# Si number density = 22.333977 Si / 1000 Ang^3
#
#
#
# Elastic Constant Matrix: (Units=GPa)
#
#
# Indices 1 2 3 4 5 6 
#
# 1 112.9556 34.6368 39.2570 0.0000 23.8486 0.0000
# 2 34.6368 121.5444 23.9567 0.0000 3.7061 0.0000
# 3 39.2570 23.9567 95.0894 0.0000 40.2797 0.0000
# 4 0.0000 0.0000 0.0000 33.9333 0.0000 9.7579
# 5 23.8486 3.7061 40.2797 0.0000 26.9726 0.0000
# 6 0.0000 0.0000 0.0000 9.7579 0.0000 25.1474
#
#
#
# Elastic Compliance Matrix: (Units=1/GPa)
#
#
# Indices 1 2 3 4 5 6 
#
# 1 0.011947 -0.003159 0.000420 0.000000 -0.010757 0.000000
# 2 -0.003159 0.009819 -0.004848 0.000000 0.008684 0.000000
# 3 0.000420 -0.004848 0.031135 0.000000 -0.046201 0.000000
# 4 0.000000 0.000000 0.000000 0.033171 0.000000 -0.012871
# 5 -0.010757 0.008684 -0.046201 0.000000 0.114388 0.000000
# 6 0.000000 0.000000 0.000000 -0.012871 0.000000 0.044760
#
#
# Mechanical properties :
#
#
# Convention : Reuss Voigt Hill
#
# Bulk Modulus (GPa) = 26.50637 58.36557 42.43597
# Shear Modulus (GPa) = 18.31714 32.65992 25.48853
#
# Velocity S-wave (km/s) = 2.86693 3.82821 3.38190
# Velocity P-wave (km/s) = 4.78048 6.76240 5.85590
#
# Compressibility (1/GPa) = 0.03772678
#
# Stress axis : x y z
#
# Youngs Moduli (GPa) = 83.70403 101.84829 32.11810
#
# Poissons Ratio (x) = 0.32178 -0.01350
# Poissons Ratio (y) = 0.26445 0.15570
# Poissons Ratio (z) = -0.03519 0.49375
#
# Static dielectric constant tensor:
#      x y z
#    x 1.931220 0.000000 0.013470 
#    y 0.000000 1.922150 0.000000 
#    z 0.013470 0.000000 1.891610 
# 
# From -- ./inp_files/152319.got.cif
#   From: 2010.05.17/outbox.cif.g08.bks.cpg/sg15_77_cif.got.tgz:152319.got - 2010.06.03 18:47:42.
