data_PCOD9260878
_publ_section_title
;
Structure prediction by ZEFSAII (Michael W. Deem and Ramdas Pophale) SiO2 
 PCOD9260878
Probable space group: C 2/C
;
_chemical_formula_sum "Si O2"
_cell_formula_units_Z 52
_cell_length_a 11.283341
_cell_length_b 14.333476
_cell_length_c 19.016234
_cell_angle_alpha 90.000000
_cell_angle_beta 118.087688
_cell_angle_gamma 90.000000
_cell_volume 2713.280016
_symmetry_space_group_name_H-M "C 2/C"
_symmetry_group_IT_number 15
_symmetry_cell_setting 'monoclinic'
loop_
_space_group_symop_operation_xyz
x,y,z
-x,y,1/2-z
-x,-y,-z
x,-y,1/2+z
1/2+x,1/2+y,z
1/2-x,1/2+y,1/2-z
1/2-x,1/2-y,-z
1/2+x,1/2-y,1/2+z
loop_
_atom_site_type_symbol
_atom_site_label
_atom_site_fract_x
_atom_site_fract_y
_atom_site_fract_z
Si Si1 0.500000 0.466486 0.250000
Si Si2 0.676328 0.410664 0.508576
Si Si3 0.474279 0.739047 0.440743
Si Si4 0.696184 0.319425 0.362781
Si Si5 0.105095 0.077997 0.400763
Si Si6 0.056574 0.622313 0.341052
Si Si7 0.412133 0.086273 0.444496
O O1 0.625712 0.397566 0.296175
O O2 0.499377 0.532163 0.317697
O O3 0.577743 0.337070 0.517228
O O4 0.722896 0.362649 0.447891
O O5 0.612763 0.508471 0.469271
O O6 0.803956 0.424169 0.594684
O O7 0.336221 0.782173 0.371796
O O8 0.562628 0.681086 0.410820
O O9 0.550762 0.822432 0.500037
O O10 0.597061 0.231695 0.345897
O O11 0.253193 0.072385 0.408430
O O12 0.000000 0.591722 0.250000
O O13 0.953876 0.603826 0.375636
O O14 0.500000 0.000000 0.500000
#
# Coordination Sequence:
#
# PCOD9260878 Si02
#       7
#     4   8   8   8   8   8   8
#     4  10  22  42  58  94 126 170 216 266 322 374
#     4  10  19  40  61  90 122 171 221 260 313 388
#     4  11  21  38  66  97 122 170 225 261 315 394
#     4  10  18  38  67  88 120 163 226 266 306 375
#     4  11  24  38  64  95 138 174 207 259 337 398
#     4  11  20  35  66  99 116 156 228 275 305 365
#     4  12  22  42  66  94 131 175 214 262 332 393
#
# _framework density 19.164995000000001
#
# number of rings (size 3 to 8) (size 9 to 14) (size 15 to 20)
#    0.000    1.231    5.385    2.769    0.000    2.462 
#    0.000    0.000    1.692    0.000    0.000    0.000 
#    0.000    0.000    0.000    0.000    0.000    0.000 
#
# Total GULP energy -145167.122321 kJ/mol
# GULP energy per Si atom -5583.350858 kJ/mol
# Density = 1.912137 g / cm^3
# Si number density = 19.164995 Si / 1000 Ang^3
#
#
#
# Elastic Constant Matrix: (Units=GPa)
#
#
# Indices 1 2 3 4 5 6 
#
# 1 75.5165 35.1219 34.8708 0.0000 -1.0335 0.0000
# 2 35.1219 91.4244 54.4405 0.0000 -0.1803 0.0000
# 3 34.8708 54.4405 143.7792 0.0000 1.4711 0.0000
# 4 0.0000 0.0000 0.0000 20.8889 0.0000 0.2650
# 5 -1.0335 -0.1803 1.4711 0.0000 13.5594 0.0000
# 6 0.0000 0.0000 0.0000 0.2650 0.0000 31.2930
#
#
#
# Elastic Compliance Matrix: (Units=1/GPa)
#
#
# Indices 1 2 3 4 5 6 
#
# 1 0.016618 -0.005129 -0.002103 0.000000 0.001427 0.000000
# 2 -0.005129 0.015713 -0.004709 0.000000 0.000329 0.000000
# 3 -0.002103 -0.004709 0.009261 0.000000 -0.001228 0.000000
# 4 0.000000 0.000000 0.000000 0.047877 0.000000 -0.000406
# 5 0.001427 0.000329 -0.001228 0.000000 0.073996 0.000000
# 6 0.000000 0.000000 0.000000 -0.000406 0.000000 0.031959
#
#
# Mechanical properties :
#
#
# Convention : Reuss Voigt Hill
#
# Bulk Modulus (GPa) = 56.46530 62.17628 59.32079
# Shear Modulus (GPa) = 22.20150 25.56740 23.88445
#
# Velocity S-wave (km/s) = 3.40728 3.65645 3.53406
# Velocity P-wave (km/s) = 6.70866 7.09502 6.90454
#
# Compressibility (1/GPa) = 0.01770999
#
# Stress axis : x y z
#
# Youngs Moduli (GPa) = 60.17497 63.64108 107.98295
#
# Poissons Ratio (x) = 0.32642 0.22708
# Poissons Ratio (y) = 0.30864 0.50849
# Poissons Ratio (z) = 0.12655 0.29969
#
# Static dielectric constant tensor:
#      x y z
#    x 1.690800 0.000000 0.015420 
#    y 0.000000 1.684390 0.000000 
#    z 0.015420 0.000000 1.668010 
# 
# From -- ./inp_files/238446.got.cif
#   From: 2010.05.17/outbox.cif.g08.bks.cpg/sg15_120_cif.got.tgz:238446.got - 2010.06.03 18:47:42.
