data_PCOD9260669
_publ_section_title
;
Structure prediction by ZEFSAII (Michael W. Deem and Ramdas Pophale) SiO2 
 PCOD9260669
Probable space group: C 2/C
;
_chemical_formula_sum "Si O2"
_cell_formula_units_Z 36
_cell_length_a 23.099469
_cell_length_b 14.774353
_cell_length_c 14.172651
_cell_angle_alpha 90.000000
_cell_angle_beta 162.560192
_cell_angle_gamma 90.000000
_cell_volume 1449.618346
_symmetry_space_group_name_H-M "C 2/C"
_symmetry_group_IT_number 15
_symmetry_cell_setting 'monoclinic'
loop_
_space_group_symop_operation_xyz
x,y,z
-x,y,1/2-z
-x,-y,-z
x,-y,1/2+z
1/2+x,1/2+y,z
1/2-x,1/2+y,1/2-z
1/2-x,1/2-y,-z
1/2+x,1/2-y,1/2+z
loop_
_atom_site_type_symbol
_atom_site_label
_atom_site_fract_x
_atom_site_fract_y
_atom_site_fract_z
Si Si1 0.198814 0.141349 0.584920
Si Si2 0.678073 0.026189 0.903130
Si Si3 0.580694 0.831935 0.776007
Si Si4 0.500000 0.666841 0.750000
Si Si5 0.274839 0.464241 0.762196
O O1 0.253419 0.083587 0.578167
O O2 0.161162 0.064874 0.606185
O O3 0.391896 0.191121 0.919517
O O4 0.000000 0.192449 0.250000
O O5 0.450297 0.044413 0.560767
O O6 0.692512 0.917866 0.908547
O O7 0.786700 0.048915 0.168866
O O8 0.500000 0.875504 0.750000
O O9 0.647902 0.736511 0.925062
O O10 0.391696 0.606569 0.505863
#
# Coordination Sequence:
#
# PCOD9260669 Si02
#       5
#     8   8   8   4   8
#     4  11  21  38  63  87 113 157 210 241 275 349
#     4  10  20  39  66  83 115 161 197 242 290 341
#     4   9  18  39  60  83 119 156 183 236 302 346
#     4  10  20  36  62  88 126 150 182 248 304 354
#     4  10  18  38  60  92 114 148 201 242 289 354
#
# _framework density 24.834122000000001
#
# number of rings (size 3 to 8) (size 9 to 14) (size 15 to 20)
#    0.667    1.333    5.556    2.667    0.000    0.889 
#    4.000    5.556    4.889    0.000    0.000    0.000 
#    0.000    0.000    0.000    0.000    0.000    0.000 
#
# Total GULP energy -100603.176209 kJ/mol
# GULP energy per Si atom -5589.065345 kJ/mol
# Density = 2.477760 g / cm^3
# Si number density = 24.834122 Si / 1000 Ang^3
#
#
#
# Elastic Constant Matrix: (Units=GPa)
#
#
# Indices 1 2 3 4 5 6 
#
# 1 62.6457 -0.1706 40.6256 0.0000 -18.3291 0.0000
# 2 -0.1706 85.2030 34.6567 0.0000 -10.2363 0.0000
# 3 40.6256 34.6567 172.3690 0.0000 -28.9948 0.0000
# 4 0.0000 0.0000 0.0000 -34.5223 0.0000 -40.1137
# 5 -18.3291 -10.2363 -28.9948 0.0000 42.1942 0.0000
# 6 0.0000 0.0000 0.0000 -40.1137 0.0000 3.8205
#
#
#
# Elastic Compliance Matrix: (Units=1/GPa)
#
#
# Indices 1 2 3 4 5 6 
#
# 1 0.020695 0.002582 -0.004273 0.000000 0.006680 0.000000
# 2 0.002582 0.013190 -0.002865 0.000000 0.002353 0.000000
# 3 -0.004273 -0.002865 0.007865 0.000000 0.002853 0.000000
# 4 0.000000 0.000000 0.000000 -0.002194 0.000000 -0.023041
# 5 0.006680 0.002353 0.002853 0.000000 0.029133 0.000000
# 6 0.000000 0.000000 0.000000 -0.023041 0.000000 0.019829
#
#
# Mechanical properties :
#
#
# Convention : Reuss Voigt Hill
#
# Bulk Modulus (GPa) = 30.63897 52.27124 41.45511
# Shear Modulus (GPa) = 46.07934 18.63888 32.35911
#
# Velocity S-wave (km/s) = 4.31221 2.74256 3.61364
# Velocity P-wave (km/s) = 6.09571 5.57877 5.84296
#
# Compressibility (1/GPa) = 0.03263818
#
# Stress axis : x y z
#
# Youngs Moduli (GPa) = 48.31976 75.81636 127.15252
#
# Poissons Ratio (x) = -0.19577 0.54335
# Poissons Ratio (y) = -0.12477 0.36426
# Poissons Ratio (z) = 0.20648 0.21719
#
# Static dielectric constant tensor:
#      x y z
#    x 2.216940 0.000000 0.199110 
#    y 0.000000 1.983440 0.000000 
#    z 0.199110 0.000000 2.094700 
# 
# From -- ./inp_files/178661.got.cif
#   From: 2010.05.17/outbox.cif.g08.bks.cpg/sg15_90_cif.got.tgz:178661.got - 2010.06.03 18:47:42.
