data_PCOD9260493
_publ_section_title
;
Structure prediction by ZEFSAII (Michael W. Deem and Ramdas Pophale) SiO2 
 PCOD9260493
Probable space group: C 2/C
;
_chemical_formula_sum "Si O2"
_cell_formula_units_Z 48
_cell_length_a 18.913855
_cell_length_b 19.906363
_cell_length_c 11.905196
_cell_angle_alpha 90.000000
_cell_angle_beta 30.588461
_cell_angle_gamma 90.000000
_cell_volume 2280.939230
_symmetry_space_group_name_H-M "C 2/C"
_symmetry_group_IT_number 15
_symmetry_cell_setting 'monoclinic'
loop_
_space_group_symop_operation_xyz
x,y,z
-x,y,1/2-z
-x,-y,-z
x,-y,1/2+z
1/2+x,1/2+y,z
1/2-x,1/2+y,1/2-z
1/2-x,1/2-y,-z
1/2+x,1/2-y,1/2+z
loop_
_atom_site_type_symbol
_atom_site_label
_atom_site_fract_x
_atom_site_fract_y
_atom_site_fract_z
Si Si1 0.643432 0.578254 0.105211
Si Si2 0.915950 0.071673 0.734904
Si Si3 0.770795 0.415103 0.194369
Si Si4 0.786270 0.131445 0.114992
Si Si5 0.144228 0.437849 0.994015
Si Si6 0.164212 0.728520 0.003947
O O1 0.500000 0.610333 0.250000
O O2 0.601950 0.502160 0.192919
O O3 0.752380 0.580757 0.852558
O O4 0.733286 0.594030 0.094724
O O5 0.882071 0.075608 0.650908
O O6 0.068148 0.099747 0.544427
O O7 0.801793 0.114551 0.961430
O O8 0.844311 0.481346 0.041952
O O9 0.819969 0.343055 0.080037
O O10 0.662946 0.094274 0.345739
O O11 0.787311 0.209769 0.140479
O O12 0.000000 0.423277 0.250000
O O13 0.000000 0.737685 0.250000
O O14 0.250000 0.750000 0.000000
#
# Coordination Sequence:
#
# PCOD9260493 Si02
#       6
#     8   8   8   8   8   8
#     4  11  21  37  64  92 115 157 207 248 287 349
#     4  10  18  37  64  90 115 154 201 255 292 337
#     4  11  22  38  59  95 122 150 201 253 299 351
#     4  11  19  40  63  86 118 161 204 240 296 357
#     4  11  25  40  59  89 129 164 188 241 313 363
#     4  12  24  39  62  90 120 154 198 251 303 347
#
# _framework density 21.043963000000002
#
# number of rings (size 3 to 8) (size 9 to 14) (size 15 to 20)
#    0.000    1.000    6.667    1.500    0.000    4.667 
#    0.000    1.667    0.000    0.000    0.000    0.000 
#    0.000    0.000    0.000    0.000    0.000    0.000 
#
# Total GULP energy -133635.388766 kJ/mol
# GULP energy per Si atom -5568.141199 kJ/mol
# Density = 2.099607 g / cm^3
# Si number density = 21.043963 Si / 1000 Ang^3
#
#
#
# Elastic Constant Matrix: (Units=GPa)
#
#
# Indices 1 2 3 4 5 6 
#
# 1 44.1492 2.3274 16.1635 -0.0005 11.0744 0.0001
# 2 2.3274 110.2187 38.7343 -0.0006 1.4866 0.0003
# 3 16.1635 38.7343 115.7524 -0.0010 9.7538 0.0001
# 4 -0.0005 -0.0006 -0.0010 5.5180 0.0005 -10.6383
# 5 11.0744 1.4866 9.7538 0.0005 32.8955 -0.0004
# 6 0.0001 0.0003 0.0001 -10.6383 -0.0004 -2.7874
#
#
#
# Elastic Compliance Matrix: (Units=1/GPa)
#
#
# Indices 1 2 3 4 5 6 
#
# 1 0.025717 0.000673 -0.003163 0.000001 -0.007750 -0.000001
# 2 0.000673 0.010310 -0.003575 0.000000 0.000367 0.000000
# 3 -0.003163 -0.003575 0.010435 0.000000 -0.001867 -0.000001
# 4 0.000001 0.000000 0.000000 0.021683 -0.000002 -0.082754
# 5 -0.007750 0.000367 -0.001867 -0.000002 0.033546 0.000001
# 6 -0.000001 0.000000 -0.000001 -0.082754 0.000001 -0.042924
#
#
# Mechanical properties :
#
#
# Convention : Reuss Voigt Hill
#
# Bulk Modulus (GPa) = 29.12784 42.73009 35.92896
# Shear Modulus (GPa) = 60.72350 21.31822 41.02086
#
# Velocity S-wave (km/s) = 5.37756 3.18627 4.41987
# Velocity P-wave (km/s) = 7.24079 5.82114 6.56943
#
# Compressibility (1/GPa) = 0.03433142
#
# Stress axis : x y z
#
# Youngs Moduli (GPa) = 38.88452 96.99248 95.83571
#
# Poissons Ratio (x) = -0.06529 0.30316
# Poissons Ratio (y) = -0.02618 0.34262
# Poissons Ratio (z) = 0.12300 0.34675
#
# Static dielectric constant tensor:
#      x y z
#    x 1.852390 0.000000 -0.023250 
#    y 0.000000 1.805440 0.000000 
#    z -0.023250 0.000000 1.757080 
# 
# From -- ./inp_files/114204.got.cif
#   From: 2010.05.17/outbox.cif.g08.bks.cpg/sg15_58_cif.got.tgz:114204.got - 2010.06.03 18:47:42.
