data_PCOD9260572
_publ_section_title
;
Structure prediction by ZEFSAII (Michael W. Deem and Ramdas Pophale) SiO2 
 PCOD9260572
Probable space group: C 2/C
;
_chemical_formula_sum "Si O2"
_cell_formula_units_Z 60
_cell_length_a 15.366689
_cell_length_b 15.428638
_cell_length_c 17.551009
_cell_angle_alpha 90.000000
_cell_angle_beta 143.645670
_cell_angle_gamma 90.000000
_cell_volume 2466.615268
_symmetry_space_group_name_H-M "C 2/C"
_symmetry_group_IT_number 15
_symmetry_cell_setting 'monoclinic'
loop_
_space_group_symop_operation_xyz
x,y,z
-x,y,1/2-z
-x,-y,-z
x,-y,1/2+z
1/2+x,1/2+y,z
1/2-x,1/2+y,1/2-z
1/2-x,1/2-y,-z
1/2+x,1/2-y,1/2+z
loop_
_atom_site_type_symbol
_atom_site_label
_atom_site_fract_x
_atom_site_fract_y
_atom_site_fract_z
Si Si1 0.644169 0.544116 0.184212
Si Si2 0.693932 0.286022 0.803989
Si Si3 0.901372 0.579712 0.902229
Si Si4 0.000000 0.460790 0.250000
Si Si5 0.290459 0.896005 0.644079
Si Si6 0.096240 0.315791 0.419170
Si Si7 0.443375 0.571235 0.625449
Si Si8 0.181709 0.213335 0.766372
O O1 0.696841 0.613875 0.282853
O O2 0.756811 0.464493 0.264751
O O3 0.660404 0.588697 0.114227
O O4 0.490726 0.508612 0.105114
O O5 0.526664 0.254782 0.688252
O O6 0.777696 0.238487 0.792774
O O7 0.768786 0.275702 0.938813
O O8 0.820407 0.655286 0.894571
O O9 0.005955 0.630784 0.919801
O O10 0.000000 0.500000 0.000000
O O11 0.088476 0.528873 0.260056
O O12 0.112798 0.392575 0.368556
O O13 0.341553 0.800137 0.701104
O O14 0.224061 0.908149 0.513014
O O15 0.500000 0.549927 0.750000
O O16 0.536734 0.655877 0.668903
#
# Coordination Sequence:
#
# PCOD9260572 Si02
#       8
#     8   8   8   4   8   8   8   8
#     4  10  21  43  69 100 131 187 227 279 348 422
#     4  10  23  41  72 100 135 180 234 292 350 421
#     4  10  18  37  70 100 134 173 230 284 336 421
#     4  12  28  44  70  98 138 186 240 290 364 420
#     4  11  25  46  69  97 142 187 232 292 348 426
#     4  11  24  43  66 104 137 180 237 294 357 421
#     4  11  26  43  67 104 141 176 227 288 351 421
#     4   9  24  41  65 104 136 182 230 285 353 422
#
# _framework density 24.324831
#
# number of rings (size 3 to 8) (size 9 to 14) (size 15 to 20)
#    0.000    1.600    2.667    0.400    8.400    2.133 
#    1.200    0.000    0.000    0.000    0.000    0.000 
#    0.000    0.000    0.000    0.000    0.000    0.000 
#
# Total GULP energy -167485.361363 kJ/mol
# GULP energy per Si atom -5582.845379 kJ/mol
# Density = 2.426947 g / cm^3
# Si number density = 24.324831 Si / 1000 Ang^3
#
#
#
# Elastic Constant Matrix: (Units=GPa)
#
#
# Indices 1 2 3 4 5 6 
#
# 1 42.7863 8.6287 2.5991 0.0002 -6.6229 0.0001
# 2 8.6287 112.9256 25.0414 0.0002 7.6397 0.0002
# 3 2.5991 25.0414 104.3772 0.0003 -4.8870 0.0002
# 4 0.0002 0.0002 0.0003 34.6842 0.0002 10.4133
# 5 -6.6229 7.6397 -4.8870 0.0002 22.2893 0.0001
# 6 0.0001 0.0002 0.0002 10.4133 0.0001 27.5588
#
#
#
# Elastic Compliance Matrix: (Units=1/GPa)
#
#
# Indices 1 2 3 4 5 6 
#
# 1 0.025177 -0.002582 0.000388 0.000000 0.008451 0.000000
# 2 -0.002582 0.009936 -0.002541 0.000000 -0.004730 0.000000
# 3 0.000388 -0.002541 0.010333 0.000000 0.003252 0.000000
# 4 0.000000 0.000000 0.000000 0.032521 0.000000 -0.012288
# 5 0.008451 -0.004730 0.003252 0.000000 0.049710 0.000000
# 6 0.000000 0.000000 0.000000 -0.012288 0.000000 0.040929
#
#
# Mechanical properties :
#
#
# Convention : Reuss Voigt Hill
#
# Bulk Modulus (GPa) = 27.79539 36.95862 32.37700
# Shear Modulus (GPa) = 26.30645 31.82777 29.06711
#
# Velocity S-wave (km/s) = 3.29213 3.62117 3.46056
# Velocity P-wave (km/s) = 5.08944 5.71932 5.41355
#
# Compressibility (1/GPa) = 0.03597719
#
# Stress axis : x y z
#
# Youngs Moduli (GPa) = 39.71851 100.64317 96.77886
#
# Poissons Ratio (x) = 0.25982 -0.03756
# Poissons Ratio (y) = 0.10254 0.24591
# Poissons Ratio (z) = -0.01541 0.25573
#
# Static dielectric constant tensor:
#      x y z
#    x 2.033430 0.000000 -0.017140 
#    y 0.000000 1.928730 0.000000 
#    z -0.017140 0.000000 2.041620 
# 
# From -- ./inp_files/253047.got.cif
#   From: 2010.05.17/outbox.cif.g08.bks.cpg/sg15_127_cif.got.tgz:253047.got - 2010.06.03 18:47:42.
