data_PCOD9260268
_publ_section_title
;
Structure prediction by ZEFSAII (Michael W. Deem and Ramdas Pophale) SiO2 
 PCOD9260268
Probable space group: C 2/C
;
_chemical_formula_sum "Si O2"
_cell_formula_units_Z 52
_cell_length_a 21.437831
_cell_length_b 13.313682
_cell_length_c 12.910904
_cell_angle_alpha 90.000000
_cell_angle_beta 44.805091
_cell_angle_gamma 90.000000
_cell_volume 2596.798519
_symmetry_space_group_name_H-M "C 2/C"
_symmetry_group_IT_number 15
_symmetry_cell_setting 'monoclinic'
loop_
_space_group_symop_operation_xyz
x,y,z
-x,y,1/2-z
-x,-y,-z
x,-y,1/2+z
1/2+x,1/2+y,z
1/2-x,1/2+y,1/2-z
1/2-x,1/2-y,-z
1/2+x,1/2-y,1/2+z
loop_
_atom_site_type_symbol
_atom_site_label
_atom_site_fract_x
_atom_site_fract_y
_atom_site_fract_z
Si Si1 0.757950 0.794334 0.296346
Si Si2 0.775850 0.184322 0.369899
Si Si3 0.685652 0.983324 0.491868
Si Si4 0.500000 0.893769 0.750000
Si Si5 0.820398 0.895490 0.495498
Si Si6 0.078588 0.919592 0.923805
Si Si7 0.062432 0.211568 0.811596
O O1 0.727245 0.760552 0.221257
O O2 0.726268 0.904585 0.362768
O O3 0.717487 0.712747 0.424056
O O4 0.862519 0.786427 0.189854
O O5 0.750000 0.250000 0.500000
O O6 0.866162 0.118068 0.241777
O O7 0.702904 0.097755 0.444206
O O8 0.582568 0.959734 0.618711
O O9 0.743143 0.956316 0.527724
O O10 0.542461 0.817925 0.783746
O O11 0.856027 0.948994 0.557835
O O12 0.897727 0.865592 0.322190
O O13 0.027899 0.825497 0.032867
O O14 0.000000 0.000000 0.000000
#
# Coordination Sequence:
#
# PCOD9260268 Si02
#       7
#     8   8   8   4   8   8   8
#     4  10  20  41  65  96 131 178 216 266 337 399
#     4  11  27  47  61  90 143 181 214 273 347 396
#     4  11  22  40  69  95 125 173 217 269 335 399
#     4  12  18  36  66 100 120 154 222 260 324 388
#     4  10  18  36  66  98 134 164 215 280 335 378
#     4  11  22  38  65  98 129 171 227 275 325 397
#     4  11  18  35  65 102 124 155 220 288 312 383
#
# _framework density 20.024657000000001
#
# number of rings (size 3 to 8) (size 9 to 14) (size 15 to 20)
#    0.000    1.231    4.615    3.692    0.000    3.692 
#    2.769    2.308    0.000    0.000    0.000    0.000 
#    0.000    0.000    0.000    0.000    0.000    0.000 
#
# Total GULP energy -145076.086854 kJ/mol
# GULP energy per Si atom -5579.849494 kJ/mol
# Density = 1.997908 g / cm^3
# Si number density = 20.024657 Si / 1000 Ang^3
#
#
#
# Elastic Constant Matrix: (Units=GPa)
#
#
# Indices 1 2 3 4 5 6 
#
# 1 82.8261 20.2373 30.3265 0.0000 -10.9586 0.0000
# 2 20.2373 67.0968 16.4530 0.0000 6.4489 0.0000
# 3 30.3265 16.4530 97.3383 0.0000 -10.2275 0.0000
# 4 0.0000 0.0000 0.0000 130.7214 0.0000 -104.5992
# 5 -10.9586 6.4489 -10.2275 0.0000 35.5714 0.0000
# 6 0.0000 0.0000 0.0000 -104.5992 0.0000 116.0865
#
#
#
# Elastic Compliance Matrix: (Units=1/GPa)
#
#
# Indices 1 2 3 4 5 6 
#
# 1 0.014921 -0.004055 -0.003509 0.000000 0.004323 0.000000
# 2 -0.004055 0.017134 -0.002155 0.000000 -0.004975 0.000000
# 3 -0.003509 -0.002155 0.012022 0.000000 0.002766 0.000000
# 4 0.000000 0.000000 0.000000 0.027418 0.000000 0.024705
# 5 0.004323 -0.004975 0.002766 0.000000 0.031142 0.000000
# 6 0.000000 0.000000 0.000000 0.024705 0.000000 0.030874
#
#
# Mechanical properties :
#
#
# Convention : Reuss Voigt Hill
#
# Bulk Modulus (GPa) = 40.58968 42.36610 41.47789
# Shear Modulus (GPa) = 31.02465 68.49215 49.75840
#
# Velocity S-wave (km/s) = 3.94041 5.85476 4.99024
# Velocity P-wave (km/s) = 6.40440 8.17968 7.34586
#
# Compressibility (1/GPa) = 0.02463681
#
# Stress axis : x y z
#
# Youngs Moduli (GPa) = 67.01870 58.36442 83.18286
#
# Poissons Ratio (x) = 0.23670 0.29190
# Poissons Ratio (y) = 0.27179 0.17929
# Poissons Ratio (z) = 0.23517 0.12580
#
# Static dielectric constant tensor:
#      x y z
#    x 1.747220 0.000000 0.005840 
#    y 0.000000 1.729520 0.000000 
#    z 0.005840 0.000000 1.744050 
# 
# From -- ./inp_files/118733.got.cif
#   From: 2010.05.17/outbox.cif.g08.bks.cpg/sg15_60_cif.got.tgz:118733.got - 2010.06.03 18:47:42.
