data_PCOD9260705
_publ_section_title
;
Structure prediction by ZEFSAII (Michael W. Deem and Ramdas Pophale) SiO2 
 PCOD9260705
Probable space group: C 2/C
;
_chemical_formula_sum "Si O2"
_cell_formula_units_Z 48
_cell_length_a 16.104046
_cell_length_b 10.152862
_cell_length_c 27.988345
_cell_angle_alpha 90.000000
_cell_angle_beta 34.139630
_cell_angle_gamma 90.000000
_cell_volume 2568.191177
_symmetry_space_group_name_H-M "C 2/C"
_symmetry_group_IT_number 15
_symmetry_cell_setting 'monoclinic'
loop_
_space_group_symop_operation_xyz
x,y,z
-x,y,1/2-z
-x,-y,-z
x,-y,1/2+z
1/2+x,1/2+y,z
1/2-x,1/2+y,1/2-z
1/2-x,1/2-y,-z
1/2+x,1/2-y,1/2+z
loop_
_atom_site_type_symbol
_atom_site_label
_atom_site_fract_x
_atom_site_fract_y
_atom_site_fract_z
Si Si1 0.840034 0.003504 0.343291
Si Si2 0.554924 0.360408 0.994047
Si Si3 0.379616 0.746314 0.671216
Si Si4 0.690877 0.963126 0.315148
Si Si5 0.554481 0.884442 0.010101
Si Si6 0.166455 0.257259 0.590501
O O1 0.768874 0.943352 0.329179
O O2 0.843749 0.884798 0.379338
O O3 0.000000 0.051625 0.250000
O O4 0.730185 0.110913 0.418772
O O5 0.515170 0.251886 0.973228
O O6 0.728416 0.348695 0.926461
O O7 0.500000 0.500000 0.000000
O O8 0.465251 0.309277 0.083750
O O9 0.271791 0.631784 0.740169
O O10 0.498595 0.787114 0.655402
O O11 0.296177 0.881796 0.700054
O O12 0.517962 0.926774 0.405403
O O13 0.500000 0.000000 0.000000
O O14 0.250000 0.250000 0.500000
#
# Coordination Sequence:
#
# PCOD9260705 Si02
#       6
#     8   8   8   8   8   8
#     4  11  19  37  65  91 112 165 216 246 304 382
#     4  11  22  38  64  92 125 162 206 260 317 367
#     4  11  23  39  62  93 126 160 213 261 305 373
#     4  11  22  38  62  93 125 166 202 258 316 372
#     4  10  18  38  62  84 117 166 202 242 311 377
#     4  10  20  37  62  90 119 159 210 254 297 375
#
# _framework density 18.690197000000001
#
# number of rings (size 3 to 8) (size 9 to 14) (size 15 to 20)
#    0.000    1.333    8.333    1.000    2.333    0.000 
#    0.000    1.667    0.000    4.000    0.000    0.000 
#    0.000    0.000    0.000    0.000    0.000    0.000 
#
# Total GULP energy -133662.719135 kJ/mol
# GULP energy per Si atom -5569.279964 kJ/mol
# Density = 1.864766 g / cm^3
# Si number density = 18.690197 Si / 1000 Ang^3
#
#
#
# Elastic Constant Matrix: (Units=GPa)
#
#
# Indices 1 2 3 4 5 6 
#
# 1 45.9465 21.4819 3.6463 0.0000 -4.2343 0.0000
# 2 21.4819 112.9656 21.7223 0.0000 1.7604 0.0000
# 3 3.6463 21.7223 94.8629 0.0000 -13.4671 0.0000
# 4 0.0000 0.0000 0.0000 29.2153 0.0000 3.9752
# 5 -4.2343 1.7604 -13.4671 0.0000 23.6201 0.0000
# 6 0.0000 0.0000 0.0000 3.9752 0.0000 24.9291
#
#
#
# Elastic Compliance Matrix: (Units=1/GPa)
#
#
# Indices 1 2 3 4 5 6 
#
# 1 0.024476 -0.004917 0.000936 0.000000 0.005288 0.000000
# 2 -0.004917 0.010341 -0.002626 0.000000 -0.003149 0.000000
# 3 0.000936 -0.002626 0.012141 0.000000 0.007286 0.000000
# 4 0.000000 0.000000 0.000000 0.034988 0.000000 -0.005579
# 5 0.005288 -0.003149 0.007286 0.000000 0.047674 0.000000
# 6 0.000000 0.000000 0.000000 -0.005579 0.000000 0.041003
#
#
# Mechanical properties :
#
#
# Convention : Reuss Voigt Hill
#
# Bulk Modulus (GPa) = 29.63453 38.60845 34.12149
# Shear Modulus (GPa) = 25.62970 29.34787 27.48878
#
# Velocity S-wave (km/s) = 3.70711 3.96691 3.83921
# Velocity P-wave (km/s) = 5.84924 6.45629 6.16025
#
# Compressibility (1/GPa) = 0.03374442
#
# Stress axis : x y z
#
# Youngs Moduli (GPa) = 40.85582 96.69944 82.36386
#
# Poissons Ratio (x) = 0.47546 -0.07707
# Poissons Ratio (y) = 0.20088 0.21630
# Poissons Ratio (z) = -0.03823 0.25395
#
# Static dielectric constant tensor:
#      x y z
#    x 1.691040 0.000000 -0.048020 
#    y 0.000000 1.612020 0.000000 
#    z -0.048020 0.000000 1.751450 
# 
# From -- ./inp_files/315644.got.cif
#   From: 2010.05.17/outbox.cif.g08.bks.cpg/sg15_158_cif.got.tgz:315644.got - 2010.06.03 18:47:42.
