data_PCOD9260134
_publ_section_title
;
Structure prediction by ZEFSAII (Michael W. Deem and Ramdas Pophale) SiO2 
 PCOD9260134
Probable space group: C 2/C
;
_chemical_formula_sum "Si O2"
_cell_formula_units_Z 52
_cell_length_a 12.041701
_cell_length_b 13.626655
_cell_length_c 12.835845
_cell_angle_alpha 90.000000
_cell_angle_beta 89.051485
_cell_angle_gamma 90.000000
_cell_volume 2105.920878
_symmetry_space_group_name_H-M "C 2/C"
_symmetry_group_IT_number 15
_symmetry_cell_setting 'monoclinic'
loop_
_space_group_symop_operation_xyz
x,y,z
-x,y,1/2-z
-x,-y,-z
x,-y,1/2+z
1/2+x,1/2+y,z
1/2-x,1/2+y,1/2-z
1/2-x,1/2-y,-z
1/2+x,1/2-y,1/2+z
loop_
_atom_site_type_symbol
_atom_site_label
_atom_site_fract_x
_atom_site_fract_y
_atom_site_fract_z
Si Si1 0.000000 0.633282 0.750000
Si Si2 0.279344 0.610381 0.576862
Si Si3 0.004013 0.152611 0.478081
Si Si4 0.385520 0.537124 0.210541
Si Si5 0.919615 0.285152 0.851156
Si Si6 0.207939 0.774728 0.719958
Si Si7 0.539541 0.124207 0.530536
O O1 0.888590 0.699233 0.746544
O O2 0.999215 0.576787 0.860161
O O3 0.394184 0.596278 0.515323
O O4 0.293294 0.539591 0.676545
O O5 0.569148 0.685409 0.581254
O O6 0.166855 0.592393 0.515099
O O7 0.961107 0.259119 0.440223
O O8 0.728191 0.279085 0.375870
O O9 0.077578 0.100670 0.391070
O O10 0.500000 0.490281 0.250000
O O11 0.343992 0.617789 0.293684
O O12 0.796389 0.292055 0.810247
O O13 0.000000 0.283782 0.750000
O O14 0.960791 0.369549 0.931484
#
# Coordination Sequence:
#
# PCOD9260134 Si02
#       7
#     4   8   8   8   8   8   8
#     4  10  18  36  62  96 124 184 230 272 336 398
#     4  11  23  40  67  99 144 181 226 292 356 405
#     4  10  21  39  65 100 134 178 232 285 348 402
#     4  12  25  40  68 107 137 178 239 291 340 417
#     4  10  21  36  69  95 129 188 233 271 344 417
#     4  11  20  43  67  95 139 182 231 278 348 411
#     4   9  20  36  65  95 131 188 226 276 348 418
#
# _framework density 24.692285999999999
#
# number of rings (size 3 to 8) (size 9 to 14) (size 15 to 20)
#    0.923    0.615    3.846    1.846    2.154    3.692 
#    0.000    0.769    6.769    0.000    0.000    0.000 
#    0.000    0.000    0.000    0.000    0.000    0.000 
#
# Total GULP energy -145202.578650 kJ/mol
# GULP energy per Si atom -5584.714563 kJ/mol
# Density = 2.463609 g / cm^3
# Si number density = 24.692286 Si / 1000 Ang^3
#
#
#
# Elastic Constant Matrix: (Units=GPa)
#
#
# Indices 1 2 3 4 5 6 
#
# 1 98.2827 7.9605 37.4456 0.0000 29.5401 0.0000
# 2 7.9605 82.5336 17.8659 0.0000 0.7824 0.0000
# 3 37.4456 17.8659 126.1955 0.0000 20.5612 0.0000
# 4 0.0000 0.0000 0.0000 -11.2437 0.0000 3.6304
# 5 29.5401 0.7824 20.5612 0.0000 50.7677 0.0000
# 6 0.0000 0.0000 0.0000 3.6304 0.0000 20.3861
#
#
#
# Elastic Compliance Matrix: (Units=1/GPa)
#
#
# Indices 1 2 3 4 5 6 
#
# 1 0.013260 -0.000616 -0.002775 0.000000 -0.006582 0.000000
# 2 -0.000616 0.012543 -0.001734 0.000000 0.000867 0.000000
# 3 -0.002775 -0.001734 0.009342 0.000000 -0.002142 0.000000
# 4 0.000000 0.000000 0.000000 -0.084103 0.000000 0.014977
# 5 -0.006582 0.000867 -0.002142 0.000000 0.024382 0.000000
# 6 0.000000 0.000000 0.000000 0.014977 0.000000 0.046386
#
#
# Mechanical properties :
#
#
# Convention : Reuss Voigt Hill
#
# Bulk Modulus (GPa) = 40.16883 48.17288 44.17085
# Shear Modulus (GPa) = 123.88870 28.23135 76.06003
#
# Velocity S-wave (km/s) = 7.09098 3.38498 5.55608
# Velocity P-wave (km/s) = 9.12939 5.90162 7.68683
#
# Compressibility (1/GPa) = 0.02489492
#
# Stress axis : x y z
#
# Youngs Moduli (GPa) = 75.41303 79.72647 107.04108
#
# Poissons Ratio (x) = 0.04910 0.29704
# Poissons Ratio (y) = 0.04645 0.18564
# Poissons Ratio (z) = 0.20927 0.13827
#
# Static dielectric constant tensor:
#      x y z
#    x 1.926850 0.000000 -0.026320 
#    y 0.000000 1.983640 0.000000 
#    z -0.026320 0.000000 2.097360 
# 
# From -- ./inp_files/144344.got.cif
#   From: 2010.05.17/outbox.cif.g08.bks.cpg/sg15_73_cif.got.tgz:144344.got - 2010.06.03 18:47:42.
