data_PCOD9260290
_publ_section_title
;
Structure prediction by ZEFSAII (Michael W. Deem and Ramdas Pophale) SiO2 
 PCOD9260290
Probable space group: C 2/C
;
_chemical_formula_sum "Si O2"
_cell_formula_units_Z 52
_cell_length_a 9.260169
_cell_length_b 25.848854
_cell_length_c 11.956764
_cell_angle_alpha 90.000000
_cell_angle_beta 58.570360
_cell_angle_gamma 90.000000
_cell_volume 2442.114480
_symmetry_space_group_name_H-M "C 2/C"
_symmetry_group_IT_number 15
_symmetry_cell_setting 'monoclinic'
loop_
_space_group_symop_operation_xyz
x,y,z
-x,y,1/2-z
-x,-y,-z
x,-y,1/2+z
1/2+x,1/2+y,z
1/2-x,1/2+y,1/2-z
1/2-x,1/2-y,-z
1/2+x,1/2-y,1/2+z
loop_
_atom_site_type_symbol
_atom_site_label
_atom_site_fract_x
_atom_site_fract_y
_atom_site_fract_z
Si Si1 0.500000 0.135137 0.250000
Si Si2 0.630679 0.067771 0.611997
Si Si3 0.174531 0.970257 0.941607
Si Si4 0.304877 0.314809 0.362587
Si Si5 0.515197 0.614532 0.112963
Si Si6 0.189256 0.204820 0.373129
Si Si7 0.876363 0.418282 0.025395
O O1 0.354282 0.173831 0.265030
O O2 0.449147 0.100138 0.375899
O O3 0.500000 0.094213 0.750000
O O4 0.802547 0.098109 0.510272
O O5 0.522572 0.059270 0.543220
O O6 0.687774 0.013500 0.645709
O O7 0.132688 0.918459 0.889533
O O8 0.224389 0.955572 0.048382
O O9 0.000000 0.000000 0.000000
O O10 0.500000 0.318820 0.250000
O O11 0.214577 0.265439 0.342979
O O12 0.307041 0.304449 0.494882
O O13 0.205174 0.367846 0.384512
O O14 0.500000 0.602883 0.250000
O O15 0.471918 0.674647 0.109449
#
# Coordination Sequence:
#
# PCOD9260290 Si02
#       7
#     4   8   8   8   8   8   8
#     4  10  18  36  68  94 124 162 234 264 320 384
#     4  11  27  41  63  99 139 177 218 284 346 396
#     4  10  23  42  64  93 127 173 226 278 332 394
#     4  10  21  36  68  96 127 167 216 268 333 394
#     4  11  23  45  69  96 134 177 225 276 334 400
#     4  10  20  38  63  98 127 163 215 274 317 399
#     4  11  23  41  66  95 131 177 221 275 326 400
#
# _framework density 21.293023999999999
#
# number of rings (size 3 to 8) (size 9 to 14) (size 15 to 20)
#    0.000    1.538    3.846    1.385    3.231    2.462 
#    0.000    2.308    0.000    0.000    0.000    0.000 
#    0.000    0.000    0.000    0.000    0.000    0.000 
#
# Total GULP energy -145084.007309 kJ/mol
# GULP energy per Si atom -5580.154127 kJ/mol
# Density = 2.124456 g / cm^3
# Si number density = 21.293024 Si / 1000 Ang^3
#
#
#
# Elastic Constant Matrix: (Units=GPa)
#
#
# Indices 1 2 3 4 5 6 
#
# 1 133.7205 35.4146 36.0589 0.0000 -15.2770 0.0000
# 2 35.4146 80.5786 26.6891 0.0000 -23.9288 0.0000
# 3 36.0589 26.6891 86.2675 0.0000 -20.2976 0.0000
# 4 0.0000 0.0000 0.0000 4.5146 0.0000 4.3297
# 5 -15.2770 -23.9288 -20.2976 0.0000 27.9933 0.0000
# 6 0.0000 0.0000 0.0000 4.3297 0.0000 23.4654
#
#
#
# Elastic Compliance Matrix: (Units=1/GPa)
#
#
# Indices 1 2 3 4 5 6 
#
# 1 0.009052 -0.002934 -0.002778 0.000000 0.000418 0.000000
# 2 -0.002934 0.017928 -0.001315 0.000000 0.012769 0.000000
# 3 -0.002778 -0.001315 0.015118 0.000000 0.008322 0.000000
# 4 0.000000 0.000000 0.000000 0.269129 0.000000 -0.049659
# 5 0.000418 0.012769 0.008322 0.000000 0.052900 0.000000
# 6 0.000000 0.000000 0.000000 -0.049659 0.000000 0.051779
#
#
# Mechanical properties :
#
#
# Convention : Reuss Voigt Hill
#
# Bulk Modulus (GPa) = 35.65965 55.21019 45.43492
# Shear Modulus (GPa) = 11.38155 24.68827 18.03491
#
# Velocity S-wave (km/s) = 2.31448 3.40877 2.91346
# Velocity P-wave (km/s) = 4.89141 6.44034 5.71856
#
# Compressibility (1/GPa) = 0.02804290
#
# Stress axis : x y z
#
# Youngs Moduli (GPa) = 110.47087 55.77975 66.14753
#
# Poissons Ratio (x) = 0.16368 0.18373
# Poissons Ratio (y) = 0.32417 0.08701
# Poissons Ratio (z) = 0.30684 0.07337
#
# Static dielectric constant tensor:
#      x y z
#    x 1.771170 0.000000 -0.022110 
#    y 0.000000 1.833040 0.000000 
#    z -0.022110 0.000000 1.803540 
# 
# From -- ./inp_files/138445.got.cif
#   From: 2010.05.17/outbox.cif.g08.bks.cpg/sg15_70_cif.got.tgz:138445.got - 2010.06.03 18:47:42.
