data_PCOD9260280
_publ_section_title
;
Structure prediction by ZEFSAII (Michael W. Deem and Ramdas Pophale) SiO2 
 PCOD9260280
Probable space group: C 2/C
;
_chemical_formula_sum "Si O2"
_cell_formula_units_Z 44
_cell_length_a 18.555014
_cell_length_b 15.372594
_cell_length_c 8.587916
_cell_angle_alpha 90.000000
_cell_angle_beta 125.953822
_cell_angle_gamma 90.000000
_cell_volume 1982.932667
_symmetry_space_group_name_H-M "C 2/C"
_symmetry_group_IT_number 15
_symmetry_cell_setting 'monoclinic'
loop_
_space_group_symop_operation_xyz
x,y,z
-x,y,1/2-z
-x,-y,-z
x,-y,1/2+z
1/2+x,1/2+y,z
1/2-x,1/2+y,1/2-z
1/2-x,1/2-y,-z
1/2+x,1/2-y,1/2+z
loop_
_atom_site_type_symbol
_atom_site_label
_atom_site_fract_x
_atom_site_fract_y
_atom_site_fract_z
Si Si1 0.195434 0.619049 0.011727
Si Si2 0.866575 0.947836 0.857368
Si Si3 0.500000 0.141831 0.750000
Si Si4 0.048089 0.222274 0.044685
Si Si5 0.766024 0.293487 0.263841
Si Si6 0.381248 0.377848 0.225553
O O1 0.264392 0.551927 0.172425
O O2 0.212788 0.709825 0.127277
O O3 0.221352 0.641087 0.866211
O O4 0.092600 0.592277 0.893780
O O5 0.911650 0.865840 0.826140
O O6 0.904325 0.041438 0.867863
O O7 0.875470 0.920072 0.047926
O O8 0.479835 0.205651 0.867813
O O9 0.134799 0.261113 0.066758
O O10 0.960402 0.190723 0.846097
O O11 0.709988 0.335537 0.330458
#
# Coordination Sequence:
#
# PCOD9260280 Si02
#       6
#     8   8   4   8   8   8
#     4   9  18  37  59  93 115 165 207 245 307 365
#     4  11  25  37  60  92 128 165 201 254 316 366
#     4  10  18  36  68  86 122 166 204 258 290 378
#     4  10  22  36  61  96 119 166 206 249 309 369
#     4   9  19  37  62  85 126 161 209 246 303 374
#     4  12  23  41  61  90 134 164 200 259 307 371
#
# _framework density 22.189356
#
# number of rings (size 3 to 8) (size 9 to 14) (size 15 to 20)
#    0.000    1.818    1.818    3.273    2.545    2.909 
#    3.273    0.000    0.000    9.818    0.000    0.000 
#    0.000    0.000    0.000    0.000    0.000    0.000 
#
# Total GULP energy -122949.377127 kJ/mol
# GULP energy per Si atom -5588.608051 kJ/mol
# Density = 2.213885 g / cm^3
# Si number density = 22.189356 Si / 1000 Ang^3
#
#
#
# Elastic Constant Matrix: (Units=GPa)
#
#
# Indices 1 2 3 4 5 6 
#
# 1 75.6753 6.9653 44.4224 0.0000 24.2493 0.0000
# 2 6.9653 33.3757 15.3073 0.0000 -0.4883 0.0000
# 3 44.4224 15.3073 124.3147 0.0000 26.8575 0.0000
# 4 0.0000 0.0000 0.0000 27.5510 0.0000 -0.1241
# 5 24.2493 -0.4883 26.8575 0.0000 46.4171 0.0000
# 6 0.0000 0.0000 0.0000 -0.1241 0.0000 21.3621
#
#
#
# Elastic Compliance Matrix: (Units=1/GPa)
#
#
# Indices 1 2 3 4 5 6 
#
# 1 0.018432 -0.001696 -0.004907 0.000000 -0.006808 0.000000
# 2 -0.001696 0.032273 -0.004152 0.000000 0.003628 0.000000
# 3 -0.004907 -0.004152 0.011159 0.000000 -0.003937 0.000000
# 4 0.000000 0.000000 0.000000 0.036297 0.000000 0.000211
# 5 -0.006808 0.003628 -0.003937 0.000000 0.027417 0.000000
# 6 0.000000 0.000000 0.000000 0.000211 0.000000 0.046813
#
#
# Mechanical properties :
#
#
# Convention : Reuss Voigt Hill
#
# Bulk Modulus (GPa) = 24.77946 40.75060 32.76503
# Shear Modulus (GPa) = 24.11351 30.17742 27.14546
#
# Velocity S-wave (km/s) = 3.30011 3.69181 3.50144
# Velocity P-wave (km/s) = 5.07075 6.04793 5.58077
#
# Compressibility (1/GPa) = 0.04035600
#
# Stress axis : x y z
#
# Youngs Moduli (GPa) = 54.25205 30.98569 89.61110
#
# Poissons Ratio (x) = 0.05255 0.43972
# Poissons Ratio (y) = 0.09200 0.37203
# Poissons Ratio (z) = 0.26621 0.12864
#
# Static dielectric constant tensor:
#      x y z
#    x 1.855840 0.000000 0.012710 
#    y 0.000000 1.802290 0.000000 
#    z 0.012710 0.000000 1.849200 
# 
# From -- ./inp_files/39035.got.cif
#   From: 2010.05.17/outbox.cif.g08.bks.cpg/sg15_20_cif.got.tgz:39035.got - 2010.06.03 18:47:42.
