data_PCOD9260319
_publ_section_title
;
Structure prediction by ZEFSAII (Michael W. Deem and Ramdas Pophale) SiO2 
 PCOD9260319
Probable space group: C 2/C
;
_chemical_formula_sum "Si O2"
_cell_formula_units_Z 60
_cell_length_a 17.486866
_cell_length_b 11.677734
_cell_length_c 22.441883
_cell_angle_alpha 90.000000
_cell_angle_beta 43.492545
_cell_angle_gamma 90.000000
_cell_volume 3154.151165
_symmetry_space_group_name_H-M "C 2/C"
_symmetry_group_IT_number 15
_symmetry_cell_setting 'monoclinic'
loop_
_space_group_symop_operation_xyz
x,y,z
-x,y,1/2-z
-x,-y,-z
x,-y,1/2+z
1/2+x,1/2+y,z
1/2-x,1/2+y,1/2-z
1/2-x,1/2-y,-z
1/2+x,1/2-y,1/2+z
loop_
_atom_site_type_symbol
_atom_site_label
_atom_site_fract_x
_atom_site_fract_y
_atom_site_fract_z
Si Si1 0.600166 0.968731 0.899614
Si Si2 0.628653 0.386938 0.889544
Si Si3 0.500000 0.106879 0.250000
Si Si4 0.753168 0.165260 0.836126
Si Si5 0.138439 0.785815 0.099625
Si Si6 0.836365 0.790620 0.159653
Si Si7 0.961992 0.049860 0.940840
Si Si8 0.339667 0.972682 0.258292
O O1 0.630659 0.835484 0.878794
O O2 0.707500 0.038322 0.860193
O O3 0.580548 0.019688 0.844237
O O4 0.500000 0.000000 0.000000
O O5 0.649811 0.253665 0.888947
O O6 0.524228 0.427364 0.908666
O O7 0.738726 0.441041 0.798511
O O8 0.627825 0.443558 0.956022
O O9 0.551544 0.184744 0.166970
O O10 0.403763 0.026702 0.277393
O O11 0.819113 0.181042 0.859123
O O12 0.824180 0.195444 0.737903
O O13 0.081811 0.888844 0.093860
O O14 0.250000 0.750000 0.000000
O O15 0.722897 0.850487 0.199809
O O16 0.941750 0.869221 0.086039
#
# Coordination Sequence:
#
# PCOD9260319 Si02
#       8
#     8   8   4   8   8   8   8   8
#     4  11  22  36  61  87 117 158 204 250 305 375
#     4  10  18  37  54  87 115 154 198 241 307 374
#     4  12  22  38  64  88 130 164 216 258 334 372
#     4  11  21  36  58  86 121 154 197 256 310 359
#     4  12  22  34  57  95 127 153 202 270 314 374
#     4  10  21  39  58  84 120 156 209 247 301 383
#     4  10  20  32  60  83 117 155 190 249 309 362
#     4  10  21  37  62  86 115 165 202 252 308 376
#
# _framework density 19.022552000000001
#
# number of rings (size 3 to 8) (size 9 to 14) (size 15 to 20)
#    0.000    1.333    4.000    2.400    1.867    0.000 
#    0.000    0.000    5.867    0.800    0.000    0.000 
#    0.000    0.000    0.000    0.000    0.000    0.000 
#
# Total GULP energy -167120.854772 kJ/mol
# GULP energy per Si atom -5570.695159 kJ/mol
# Density = 1.897926 g / cm^3
# Si number density = 19.022552 Si / 1000 Ang^3
#
#
#
# Elastic Constant Matrix: (Units=GPa)
#
#
# Indices 1 2 3 4 5 6 
#
# 1 101.6948 44.7866 23.3938 0.0000 5.0840 0.0000
# 2 44.7866 103.1346 27.9175 0.0000 0.6216 0.0000
# 3 23.3938 27.9175 103.5177 0.0000 7.8204 0.0000
# 4 0.0000 0.0000 0.0000 25.3755 0.0000 -1.6680
# 5 5.0840 0.6216 7.8204 0.0000 18.7406 0.0000
# 6 0.0000 0.0000 0.0000 -1.6680 0.0000 38.0435
#
#
#
# Elastic Compliance Matrix: (Units=1/GPa)
#
#
# Indices 1 2 3 4 5 6 
#
# 1 0.012488 -0.005068 -0.001252 0.000000 -0.002697 0.000000
# 2 -0.005068 0.012530 -0.002381 0.000000 0.001953 0.000000
# 3 -0.001252 -0.002381 0.010897 0.000000 -0.004129 0.000000
# 4 0.000000 0.000000 0.000000 0.039522 0.000000 0.001733
# 5 -0.002697 0.001953 -0.004129 0.000000 0.055750 0.000000
# 6 0.000000 0.000000 0.000000 0.001733 0.000000 0.026362
#
#
# Mechanical properties :
#
#
# Convention : Reuss Voigt Hill
#
# Bulk Modulus (GPa) = 54.01581 55.61590 54.81585
# Shear Modulus (GPa) = 27.60580 30.58187 29.09384
#
# Velocity S-wave (km/s) = 3.81361 4.01392 3.91505
# Velocity P-wave (km/s) = 6.91729 7.12617 7.02251
#
# Compressibility (1/GPa) = 0.01851310
#
# Stress axis : x y z
#
# Youngs Moduli (GPa) = 80.07663 79.81054 91.76696
#
# Poissons Ratio (x) = 0.40447 0.11486
# Poissons Ratio (y) = 0.40582 0.21853
# Poissons Ratio (z) = 0.10023 0.19006
#
# Static dielectric constant tensor:
#      x y z
#    x 1.666840 0.000000 -0.030320 
#    y 0.000000 1.726910 0.000000 
#    z -0.030320 0.000000 1.787140 
# 
# From -- ./inp_files/277260.got.cif
#   From: 2010.05.17/outbox.cif.g08.bks.cpg/sg15_139_cif.got.tgz:277260.got - 2010.06.03 18:47:42.
