data_PCOD9260759
_publ_section_title
;
Structure prediction by ZEFSAII (Michael W. Deem and Ramdas Pophale) SiO2 
 PCOD9260759
Probable space group: C 2/C
;
_chemical_formula_sum "Si O2"
_cell_formula_units_Z 64
_cell_length_a 27.465909
_cell_length_b 11.061822
_cell_length_c 14.530737
_cell_angle_alpha 90.000000
_cell_angle_beta 42.348203
_cell_angle_gamma 90.000000
_cell_volume 2973.942889
_symmetry_space_group_name_H-M "C 2/C"
_symmetry_group_IT_number 15
_symmetry_cell_setting 'monoclinic'
loop_
_space_group_symop_operation_xyz
x,y,z
-x,y,1/2-z
-x,-y,-z
x,-y,1/2+z
1/2+x,1/2+y,z
1/2-x,1/2+y,1/2-z
1/2-x,1/2-y,-z
1/2+x,1/2-y,1/2+z
loop_
_atom_site_type_symbol
_atom_site_label
_atom_site_fract_x
_atom_site_fract_y
_atom_site_fract_z
Si Si1 0.243007 0.053784 0.428632
Si Si2 0.792619 0.703811 0.602961
Si Si3 0.523924 0.279526 0.318052
Si Si4 0.613199 0.946662 0.657035
Si Si5 0.342581 0.566515 0.785923
Si Si6 0.942150 0.888042 0.589704
Si Si7 0.373669 0.774939 0.337244
Si Si8 0.252571 0.310187 0.136784
O O1 0.200243 0.173756 0.464404
O O2 0.322413 0.077024 0.358444
O O3 0.198620 0.996503 0.575108
O O4 0.244462 0.954276 0.348787
O O5 0.852885 0.607874 0.485491
O O6 0.715979 0.651143 0.677292
O O7 0.779696 0.741741 0.725119
O O8 0.500000 0.322448 0.250000
O O9 0.547999 0.140813 0.274841
O O10 0.591522 0.356788 0.263268
O O11 0.461643 0.298161 0.480551
O O12 0.597081 0.089435 0.682062
O O13 0.370072 0.465273 0.678731
O O14 0.930165 0.814681 0.703827
O O15 0.000000 0.000000 0.500000
O O16 0.330417 0.732436 0.489768
O O17 0.308683 0.792823 0.354763
#
# Coordination Sequence:
#
# PCOD9260759 Si02
#       8
#     8   8   8   8   8   8   8   8
#     4  10  18  38  63  87 128 159 193 263 309 368
#     4  11  21  34  66  94 125 162 199 264 307 378
#     4  11  23  39  63  90 117 169 213 255 294 368
#     4  10  21  39  61  89 126 162 205 252 319 361
#     4  10  19  40  60  90 124 156 210 250 312 354
#     4  10  23  41  66  85 120 169 210 248 304 370
#     4  10  22  42  59  89 131 159 201 264 309 372
#     4  10  23  34  61  98 124 158 197 256 330 363
#
# _framework density 21.520250999999998
#
# number of rings (size 3 to 8) (size 9 to 14) (size 15 to 20)
#    0.000    1.750    3.750    0.750    5.250    1.500 
#    0.000    0.000    5.500    0.000    0.000    0.000 
#    0.000    0.000    0.000    0.000    0.000    0.000 
#
# Total GULP energy -178294.490999 kJ/mol
# GULP energy per Si atom -5571.702844 kJ/mol
# Density = 2.147127 g / cm^3
# Si number density = 21.520251 Si / 1000 Ang^3
#
#
#
# Elastic Constant Matrix: (Units=GPa)
#
#
# Indices 1 2 3 4 5 6 
#
# 1 29.5045 16.0293 22.4807 0.0000 5.9601 0.0000
# 2 16.0293 119.2003 57.9794 0.0000 -3.1529 0.0000
# 3 22.4807 57.9794 145.9728 0.0000 11.9769 0.0000
# 4 0.0000 0.0000 0.0000 46.7334 0.0000 -2.8339
# 5 5.9601 -3.1529 11.9769 0.0000 22.2579 0.0000
# 6 0.0000 0.0000 0.0000 -2.8339 0.0000 2.6097
#
#
#
# Elastic Compliance Matrix: (Units=1/GPa)
#
#
# Indices 1 2 3 4 5 6 
#
# 1 0.040904 -0.003787 -0.004031 0.000000 -0.009320 0.000000
# 2 -0.003787 0.011077 -0.004214 0.000000 0.004851 0.000000
# 3 -0.004031 -0.004214 0.009526 0.000000 -0.004644 0.000000
# 4 0.000000 0.000000 0.000000 0.022906 0.000000 0.024874
# 5 -0.009320 0.004851 -0.004644 0.000000 0.050610 0.000000
# 6 0.000000 0.000000 0.000000 0.024874 0.000000 0.410199
#
#
# Mechanical properties :
#
#
# Convention : Reuss Voigt Hill
#
# Bulk Modulus (GPa) = 26.70670 54.18404 40.44537
# Shear Modulus (GPa) = 8.59451 27.53275 18.06363
#
# Velocity S-wave (km/s) = 2.00059 3.58073 2.90035
# Velocity P-wave (km/s) = 4.21586 6.50603 5.48187
#
# Compressibility (1/GPa) = 0.03744379
#
# Stress axis : x y z
#
# Youngs Moduli (GPa) = 24.44733 90.28011 104.97253
#
# Poissons Ratio (x) = 0.34185 0.42312
# Poissons Ratio (y) = 0.09257 0.44240
# Poissons Ratio (z) = 0.09854 0.38048
#
# Static dielectric constant tensor:
#      x y z
#    x 1.807860 0.000000 0.007790 
#    y 0.000000 1.947460 0.000000 
#    z 0.007790 0.000000 1.869070 
# 
# From -- ./inp_files/181761.got.cif
#   From: 2010.05.17/outbox.cif.g08.bks.cpg/sg15_91_cif.got.tgz:181761.got - 2010.06.03 18:47:42.
