data_PCOD9260481
_publ_section_title
;
Structure prediction by ZEFSAII (Michael W. Deem and Ramdas Pophale) SiO2 
 PCOD9260481
Probable space group: C 2/C
;
_chemical_formula_sum "Si O2"
_cell_formula_units_Z 48
_cell_length_a 20.316057
_cell_length_b 7.182693
_cell_length_c 13.250017
_cell_angle_alpha 90.000000
_cell_angle_beta 82.707904
_cell_angle_gamma 90.000000
_cell_volume 1917.857301
_symmetry_space_group_name_H-M "C 2/C"
_symmetry_group_IT_number 15
_symmetry_cell_setting 'monoclinic'
loop_
_space_group_symop_operation_xyz
x,y,z
-x,y,1/2-z
-x,-y,-z
x,-y,1/2+z
1/2+x,1/2+y,z
1/2-x,1/2+y,1/2-z
1/2-x,1/2-y,-z
1/2+x,1/2-y,1/2+z
loop_
_atom_site_type_symbol
_atom_site_label
_atom_site_fract_x
_atom_site_fract_y
_atom_site_fract_z
Si Si1 0.190085 0.803577 0.150240
Si Si2 0.687821 0.387137 0.803240
Si Si3 0.071448 0.605532 0.270440
Si Si4 0.815899 0.796986 0.923127
Si Si5 0.446054 0.172232 0.004238
Si Si6 0.041356 0.177021 0.335618
O O1 0.258427 0.689476 0.128729
O O2 0.127763 0.670618 0.182513
O O3 0.201827 0.912037 0.253863
O O4 0.175465 0.975403 0.077784
O O5 0.687965 0.269511 0.697233
O O6 0.612526 0.395939 0.853903
O O7 0.081001 0.692011 0.378531
O O8 0.061240 0.385608 0.292347
O O9 0.000000 0.673357 0.250000
O O10 0.878419 0.680157 0.952063
O O11 0.750000 0.750000 0.000000
O O12 0.491984 0.319188 0.938626
O O13 0.500000 0.000000 0.000000
O O14 0.000000 0.092913 0.250000
#
# Coordination Sequence:
#
# PCOD9260481 Si02
#       6
#     8   8   8   8   8   8
#     4  10  22  39  61  92 126 174 218 271 336 398
#     4  10  21  36  64  88 130 167 220 258 337 393
#     4  10  22  39  64  91 130 168 219 274 343 398
#     4  10  22  38  63  93 130 171 222 277 328 400
#     4  10  21  38  66  98 128 170 227 277 329 403
#     4  10  18  37  63  98 125 170 220 268 323 403
#
# _framework density 25.027930999999999
#
# number of rings (size 3 to 8) (size 9 to 14) (size 15 to 20)
#    1.000    1.000    1.667    2.000    4.667    2.000 
#    0.000    5.000    0.000    6.000    0.000    0.000 
#    0.000    0.000    0.000    0.000    0.000    0.000 
#
# Total GULP energy -133792.778550 kJ/mol
# GULP energy per Si atom -5574.699106 kJ/mol
# Density = 2.497097 g / cm^3
# Si number density = 25.027931 Si / 1000 Ang^3
#
#
#
# Elastic Constant Matrix: (Units=GPa)
#
#
# Indices 1 2 3 4 5 6 
#
# 1 200.9436 47.9453 35.4276 0.0000 -1.3485 0.0000
# 2 47.9453 110.0915 17.7312 0.0000 6.0046 0.0000
# 3 35.4276 17.7312 68.2160 0.0000 -1.9604 0.0000
# 4 0.0000 0.0000 0.0000 17.4267 0.0000 -12.8083
# 5 -1.3485 6.0046 -1.9604 0.0000 46.0622 0.0000
# 6 0.0000 0.0000 0.0000 -12.8083 0.0000 75.4825
#
#
#
# Elastic Compliance Matrix: (Units=1/GPa)
#
#
# Indices 1 2 3 4 5 6 
#
# 1 0.005947 -0.002206 -0.002505 0.000000 0.000355 0.000000
# 2 -0.002206 0.010382 -0.001596 0.000000 -0.001486 0.000000
# 3 -0.002505 -0.001596 0.016399 0.000000 0.000833 0.000000
# 4 0.000000 0.000000 0.000000 0.065560 0.000000 0.011125
# 5 0.000355 -0.001486 0.000833 0.000000 0.021949 0.000000
# 6 0.000000 0.000000 0.000000 0.011125 0.000000 0.015136
#
#
# Mechanical properties :
#
#
# Convention : Reuss Voigt Hill
#
# Bulk Modulus (GPa) = 49.71421 64.60658 57.16040
# Shear Modulus (GPa) = 32.32266 46.33742 39.33004
#
# Velocity S-wave (km/s) = 3.59759 4.30749 3.96845
# Velocity P-wave (km/s) = 6.09619 7.11401 6.62468
#
# Compressibility (1/GPa) = 0.02011497
#
# Stress axis : x y z
#
# Youngs Moduli (GPa) = 168.15662 96.32021 60.97958
#
# Poissons Ratio (x) = 0.21246 0.15275
# Poissons Ratio (y) = 0.37092 0.09731
# Poissons Ratio (z) = 0.42122 0.15370
#
# Static dielectric constant tensor:
#      x y z
#    x 1.966770 0.000000 0.042000 
#    y 0.000000 2.084240 0.000000 
#    z 0.042000 0.000000 2.017960 
# 
# From -- ./inp_files/165731.got.cif
#   From: 2010.05.17/outbox.cif.g08.bks.cpg/sg15_83_cif.got.tgz:165731.got - 2010.06.03 18:47:42.
