data_PCOD9260682
_publ_section_title
;
Structure prediction by ZEFSAII (Michael W. Deem and Ramdas Pophale) SiO2 
 PCOD9260682
Probable space group: C 2/C
;
_chemical_formula_sum "Si O2"
_cell_formula_units_Z 44
_cell_length_a 9.243961
_cell_length_b 14.164805
_cell_length_c 14.831264
_cell_angle_alpha 90.000000
_cell_angle_beta 115.564394
_cell_angle_gamma 90.000000
_cell_volume 1751.870385
_symmetry_space_group_name_H-M "C 2/C"
_symmetry_group_IT_number 15
_symmetry_cell_setting 'monoclinic'
loop_
_space_group_symop_operation_xyz
x,y,z
-x,y,1/2-z
-x,-y,-z
x,-y,1/2+z
1/2+x,1/2+y,z
1/2-x,1/2+y,1/2-z
1/2-x,1/2-y,-z
1/2+x,1/2-y,1/2+z
loop_
_atom_site_type_symbol
_atom_site_label
_atom_site_fract_x
_atom_site_fract_y
_atom_site_fract_z
Si Si1 0.654359 0.752223 0.203660
Si Si2 0.500000 0.529721 0.750000
Si Si3 0.086031 0.193594 0.879678
Si Si4 0.152624 0.141461 0.384513
Si Si5 0.119811 0.387621 0.948667
Si Si6 0.059639 0.412240 0.414015
O O1 0.799168 0.772576 0.173620
O O2 0.691897 0.713953 0.313682
O O3 0.524880 0.674454 0.131907
O O4 0.548927 0.846693 0.176340
O O5 0.471781 0.606486 0.821834
O O6 0.367588 0.459535 0.672643
O O7 0.023910 0.295038 0.893156
O O8 0.201134 0.149227 0.986628
O O9 0.277230 0.132282 0.499595
O O10 0.054911 0.414958 0.029023
O O11 0.099194 0.483550 0.888133
#
# Coordination Sequence:
#
# PCOD9260682 Si02
#       6
#     8   4   8   8   8   8
#     4   9  21  36  58  84 117 147 195 231 286 336
#     4  10  20  34  58  80 112 150 190 228 282 330
#     4  10  19  37  55  86 111 143 195 241 269 341
#     4  10  21  40  58  84 114 159 187 230 290 350
#     4   9  20  34  60  83 111 147 190 232 292 332
#     4  10  18  38  61  83 115 156 184 237 285 345
#
# _framework density 25.116014
#
# number of rings (size 3 to 8) (size 9 to 14) (size 15 to 20)
#    0.000    2.545    1.818    0.545    2.545    0.000 
#    0.000   10.000    4.000    0.000    0.000    0.000 
#    0.000    0.000    0.000    0.000    0.000    0.000 
#
# Total GULP energy -122568.128195 kJ/mol
# GULP energy per Si atom -5571.278554 kJ/mol
# Density = 2.505885 g / cm^3
# Si number density = 25.116014 Si / 1000 Ang^3
#
#
#
# Elastic Constant Matrix: (Units=GPa)
#
#
# Indices 1 2 3 4 5 6 
#
# 1 60.3888 19.5094 30.2754 0.0000 13.6985 0.0000
# 2 19.5094 219.6078 45.7272 0.0000 1.6108 0.0000
# 3 30.2754 45.7272 46.3955 0.0000 -7.5032 0.0000
# 4 0.0000 0.0000 0.0000 41.4930 0.0000 -5.1657
# 5 13.6985 1.6108 -7.5032 0.0000 27.2087 0.0000
# 6 0.0000 0.0000 0.0000 -5.1657 0.0000 10.1812
#
#
#
# Elastic Compliance Matrix: (Units=1/GPa)
#
#
# Indices 1 2 3 4 5 6 
#
# 1 0.038925 0.003808 -0.033870 0.000000 -0.029163 0.000000
# 2 0.003808 0.006206 -0.009390 0.000000 -0.004874 0.000000
# 3 -0.033870 -0.009390 0.058361 0.000000 0.033702 0.000000
# 4 0.000000 0.000000 0.000000 0.025725 0.000000 0.013052
# 5 -0.029163 -0.004874 0.033702 0.000000 0.061018 0.000000
# 6 0.000000 0.000000 0.000000 0.013052 0.000000 0.104843
#
#
# Mechanical properties :
#
#
# Convention : Reuss Voigt Hill
#
# Bulk Modulus (GPa) = 40.67007 57.49068 49.08037
# Shear Modulus (GPa) = 13.08288 31.16858 22.12573
#
# Velocity S-wave (km/s) = 2.28479 3.52658 2.97129
# Velocity P-wave (km/s) = 4.81544 6.28666 5.59958
#
# Compressibility (1/GPa) = 0.02458811
#
# Stress axis : x y z
#
# Youngs Moduli (GPa) = 25.69057 161.12707 17.13460
#
# Poissons Ratio (x) = -0.61365 0.58035
# Poissons Ratio (y) = -0.09784 0.16090
# Poissons Ratio (z) = 0.87015 1.51305
#
# Static dielectric constant tensor:
#      x y z
#    x 2.047830 0.000000 0.034430 
#    y 0.000000 2.057140 0.000000 
#    z 0.034430 0.000000 2.106750 
# 
# From -- ./inp_files/195635.got.cif
#   From: 2010.05.17/outbox.cif.g08.bks.cpg/sg15_98_cif.got.tgz:195635.got - 2010.06.03 18:47:42.
