data_PCOD9260001
_publ_section_title
;
Structure prediction by ZEFSAII (Michael W. Deem and Ramdas Pophale) SiO2 
 PCOD9260001
Probable space group: C 2/C
;
_chemical_formula_sum "Si O2"
_cell_formula_units_Z 52
_cell_length_a 16.240418
_cell_length_b 8.427595
_cell_length_c 18.863061
_cell_angle_alpha 90.000000
_cell_angle_beta 61.079901
_cell_angle_gamma 90.000000
_cell_volume 2259.786695
_symmetry_space_group_name_H-M "C 2/C"
_symmetry_group_IT_number 15
_symmetry_cell_setting 'monoclinic'
loop_
_space_group_symop_operation_xyz
x,y,z
-x,y,1/2-z
-x,-y,-z
x,-y,1/2+z
1/2+x,1/2+y,z
1/2-x,1/2+y,1/2-z
1/2-x,1/2-y,-z
1/2+x,1/2-y,1/2+z
loop_
_atom_site_type_symbol
_atom_site_label
_atom_site_fract_x
_atom_site_fract_y
_atom_site_fract_z
Si Si1 0.500000 0.735358 0.250000
Si Si2 0.632551 0.264608 0.959520
Si Si3 0.857457 0.013407 0.267707
Si Si4 0.353186 0.400454 0.119387
Si Si5 0.365607 0.948642 0.628973
Si Si6 0.359887 0.716603 0.883578
Si Si7 0.632377 0.016740 0.707473
O O1 0.435535 0.644395 0.221381
O O2 0.422845 0.850979 0.313777
O O3 0.609957 0.432960 0.930137
O O4 0.746386 0.241371 0.923145
O O5 0.606604 0.103058 0.928975
O O6 0.600823 0.275128 0.054137
O O7 0.749179 0.063749 0.317093
O O8 0.865251 0.895146 0.199390
O O9 0.883266 0.944852 0.333553
O O10 0.389324 0.223880 0.084122
O O11 0.241081 0.430336 0.156690
O O12 0.392055 0.990343 0.699396
O O13 0.394056 0.856766 0.820456
#
# Coordination Sequence:
#
# PCOD9260001 Si02
#       7
#     4   8   8   8   8   8   8
#     4  12  22  34  54  94 116 150 188 254 276 346
#     4   9  19  32  59  85 119 139 196 237 298 327
#     4  10  20  34  58  84 118 145 199 234 290 333
#     4  10  18  36  60  88 109 155 191 241 277 356
#     4  10  18  36  60  88 109 155 191 241 277 356
#     4   9  18  37  50  84 119 150 174 255 289 337
#     4  10  20  34  58  84 118 145 199 234 290 333
#
# _framework density 23.011023000000002
#
# number of rings (size 3 to 8) (size 9 to 14) (size 15 to 20)
#    0.000    2.154    3.077    0.923    4.308    0.615 
#    2.769    3.077    0.000    7.385    0.000    0.000 
#    0.000    0.000    0.000    0.000    0.000    0.000 
#
# Total GULP energy -144792.837849 kJ/mol
# GULP energy per Si atom -5568.955302 kJ/mol
# Density = 2.295865 g / cm^3
# Si number density = 23.011023 Si / 1000 Ang^3
#
#
#
# Elastic Constant Matrix: (Units=GPa)
#
#
# Indices 1 2 3 4 5 6 
#
# 1 62.5371 26.3353 18.8105 0.0000 4.6159 0.0000
# 2 26.3353 156.1990 50.8452 0.0000 21.4633 0.0000
# 3 18.8105 50.8452 92.3326 0.0000 40.6404 0.0000
# 4 0.0000 0.0000 0.0000 19.1847 0.0000 12.3383
# 5 4.6159 21.4633 40.6404 0.0000 10.5973 0.0000
# 6 0.0000 0.0000 0.0000 12.3383 0.0000 25.3790
#
#
#
# Elastic Compliance Matrix: (Units=1/GPa)
#
#
# Indices 1 2 3 4 5 6 
#
# 1 0.017112 -0.002192 0.001384 0.000000 -0.008323 0.000000
# 2 -0.002192 0.008074 -0.004038 0.000000 0.000087 0.000000
# 3 0.001384 -0.004038 -0.013718 0.000000 0.060183 0.000000
# 4 0.000000 0.000000 0.000000 0.075837 0.000000 -0.036869
# 5 -0.008323 0.000087 0.060183 0.000000 -0.132989 0.000000
# 6 0.000000 0.000000 0.000000 -0.036869 0.000000 0.057327
#
#
# Mechanical properties :
#
#
# Convention : Reuss Voigt Hill
#
# Bulk Modulus (GPa) = 562.76973 55.89453 309.33213
# Shear Modulus (GPa) = 228.04361 25.37069 126.70715
#
# Velocity S-wave (km/s) = 9.96579 3.32406 7.42854
# Velocity P-wave (km/s) = 19.42985 6.25105 14.43251
#
# Compressibility (1/GPa) = 0.00177693
#
# Stress axis : x y z
#
# Youngs Moduli (GPa) = 58.44020 123.85248 -72.89726
#
# Poissons Ratio (x) = 0.27149 0.10092
# Poissons Ratio (y) = 0.12810 -0.29434
# Poissons Ratio (z) = -0.08091 0.50009
#
# Static dielectric constant tensor:
#      x y z
#    x 1.885470 0.000000 -0.068640 
#    y 0.000000 1.982170 0.000000 
#    z -0.068640 0.000000 1.843490 
# 
# From -- ./inp_files/209043.got.cif
#   From: 2010.05.17/outbox.cif.g08.bks.cpg/sg15_105_cif.got.tgz:209043.got - 2010.06.03 18:47:42.
