data_PCOD9260535
_publ_section_title
;
Structure prediction by ZEFSAII (Michael W. Deem and Ramdas Pophale) SiO2 
 PCOD9260535
Probable space group: C 2/C
;
_chemical_formula_sum "Si O2"
_cell_formula_units_Z 32
_cell_length_a 13.281367
_cell_length_b 18.069511
_cell_length_c 6.559656
_cell_angle_alpha 90.000000
_cell_angle_beta 45.677530
_cell_angle_gamma 90.000000
_cell_volume 1126.239038
_symmetry_space_group_name_H-M "C 2/C"
_symmetry_group_IT_number 15
_symmetry_cell_setting 'monoclinic'
loop_
_space_group_symop_operation_xyz
x,y,z
-x,y,1/2-z
-x,-y,-z
x,-y,1/2+z
1/2+x,1/2+y,z
1/2-x,1/2+y,1/2-z
1/2-x,1/2-y,-z
1/2+x,1/2-y,1/2+z
loop_
_atom_site_type_symbol
_atom_site_label
_atom_site_fract_x
_atom_site_fract_y
_atom_site_fract_z
Si Si1 0.851290 0.682609 0.740514
Si Si2 0.340455 0.652497 0.162485
Si Si3 0.103229 0.527957 0.969620
Si Si4 0.625989 0.396853 0.347300
O O1 0.897705 0.763471 0.613154
O O2 0.927908 0.615321 0.529407
O O3 0.691068 0.671525 0.883612
O O4 0.817286 0.658741 0.021677
O O5 0.337922 0.627356 0.934414
O O6 0.458401 0.599628 0.097187
O O7 0.079857 0.494526 0.758739
O O8 0.275655 0.533901 0.733245
#
# Coordination Sequence:
#
# PCOD9260535 Si02
#       4
#     8   8   8   8
#     4   9  21  35  63 101 139 172 213 279 342 422
#     4  10  18  37  66 107 134 168 212 281 368 397
#     4  10  24  43  63  90 131 186 234 274 322 399
#     4   9  21  36  65  94 139 166 217 282 329 411
#
# _framework density 28.413153000000001
#
# number of rings (size 3 to 8) (size 9 to 14) (size 15 to 20)
#    1.500    1.000    0.000    1.500    3.500    2.000 
#    0.000    5.000    0.000   18.000    0.000    0.000 
#    0.000    0.000    0.000    0.000    0.000    0.000 
#
# Total GULP energy -89161.100325 kJ/mol
# GULP energy per Si atom -5572.568770 kJ/mol
# Density = 2.834848 g / cm^3
# Si number density = 28.413153 Si / 1000 Ang^3
#
#
#
# Elastic Constant Matrix: (Units=GPa)
#
#
# Indices 1 2 3 4 5 6 
#
# 1 141.3257 78.6506 38.1160 0.0000 9.6212 0.0000
# 2 78.6506 129.8631 73.7056 0.0000 -11.2825 0.0000
# 3 38.1160 73.7056 163.9544 0.0000 4.3329 0.0000
# 4 0.0000 0.0000 0.0000 41.8436 0.0000 -13.1413
# 5 9.6212 -11.2825 4.3329 0.0000 49.4026 0.0000
# 6 0.0000 0.0000 0.0000 -13.1413 0.0000 46.1694
#
#
#
# Elastic Compliance Matrix: (Units=1/GPa)
#
#
# Indices 1 2 3 4 5 6 
#
# 1 0.011463 -0.007852 0.000974 0.000000 -0.004111 0.000000
# 2 -0.007852 0.016111 -0.005568 0.000000 0.005697 0.000000
# 3 0.000974 -0.005568 0.008434 0.000000 -0.002201 0.000000
# 4 0.000000 0.000000 0.000000 0.026245 0.000000 0.007470
# 5 -0.004111 0.005697 -0.002201 0.000000 0.022537 0.000000
# 6 0.000000 0.000000 0.000000 0.007470 0.000000 0.023786
#
#
# Mechanical properties :
#
#
# Convention : Reuss Voigt Hill
#
# Bulk Modulus (GPa) = 89.96487 90.67642 90.32065
# Shear Modulus (GPa) = 36.45024 43.79452 40.12238
#
# Velocity S-wave (km/s) = 3.58560 3.93026 3.76188
# Velocity P-wave (km/s) = 6.99098 7.25112 7.12224
#
# Compressibility (1/GPa) = 0.01111545
#
# Stress axis : x y z
#
# Youngs Moduli (GPa) = 87.23616 62.06850 118.56688
#
# Poissons Ratio (x) = 0.48739 -0.11545
# Poissons Ratio (y) = 0.68501 0.66016
# Poissons Ratio (z) = -0.08495 0.34559
#
# Static dielectric constant tensor:
#      x y z
#    x 2.212740 0.000000 0.073150 
#    y 0.000000 2.049320 0.000000 
#    z 0.073150 0.000000 2.444490 
# 
# From -- ./inp_files/9968.got.cif
#   From: 2010.05.17/outbox.cif.g08.bks.cpg/sg15_5_cif.got.tgz:9968.got - 2010.06.03 18:47:42.
