data_PCOD9260892
_publ_section_title
;
Structure prediction by ZEFSAII (Michael W. Deem and Ramdas Pophale) SiO2 
 PCOD9260892
Probable space group: C 2/C
;
_chemical_formula_sum "Si O2"
_cell_formula_units_Z 44
_cell_length_a 9.348917
_cell_length_b 16.273601
_cell_length_c 14.380112
_cell_angle_alpha 90.000000
_cell_angle_beta 69.511167
_cell_angle_gamma 90.000000
_cell_volume 2049.398906
_symmetry_space_group_name_H-M "C 2/C"
_symmetry_group_IT_number 15
_symmetry_cell_setting 'monoclinic'
loop_
_space_group_symop_operation_xyz
x,y,z
-x,y,1/2-z
-x,-y,-z
x,-y,1/2+z
1/2+x,1/2+y,z
1/2-x,1/2+y,1/2-z
1/2-x,1/2-y,-z
1/2+x,1/2-y,1/2+z
loop_
_atom_site_type_symbol
_atom_site_label
_atom_site_fract_x
_atom_site_fract_y
_atom_site_fract_z
Si Si1 0.924702 0.271284 0.963759
Si Si2 0.216803 0.907898 0.283727
Si Si3 0.825134 0.835929 0.012840
Si Si4 0.934430 0.006810 0.411015
Si Si5 0.114597 0.435605 0.428132
Si Si6 0.000000 0.769324 0.250000
O O1 0.973221 0.285171 0.846622
O O2 0.014939 0.192708 0.979591
O O3 0.750000 0.250000 0.000000
O O4 0.947921 0.347866 0.025305
O O5 0.255946 0.880166 0.380349
O O6 0.355947 0.938390 0.188944
O O7 0.140071 0.829835 0.247031
O O8 0.081740 0.976350 0.319793
O O9 0.750000 0.750000 0.000000
O O10 0.864491 0.900858 0.922896
O O11 0.786547 0.950112 0.428536
O O12 0.000000 0.000000 0.500000
O O13 0.000000 0.500000 0.500000
#
# Coordination Sequence:
#
# PCOD9260892 Si02
#       6
#     8   8   8   8   8   4
#     4  11  21  40  67  89 123 166 216 258 310 383
#     4  10  19  40  68  85 126 178 213 248 317 398
#     4  10  22  41  65  96 131 161 210 272 326 377
#     4  10  20  40  66  89 122 176 216 248 313 403
#     4  12  23  40  62  96 131 161 211 276 320 363
#     4  10  18  38  68  88 116 168 226 248 298 386
#
# _framework density 21.469709999999999
#
# number of rings (size 3 to 8) (size 9 to 14) (size 15 to 20)
#    0.000    1.455    3.636    3.273    0.000    0.000 
#    9.818    8.182    0.000    0.000    0.000    0.000 
#    0.000    0.000    0.000    0.000    0.000    0.000 
#
# Total GULP energy -122765.997006 kJ/mol
# GULP energy per Si atom -5580.272591 kJ/mol
# Density = 2.142084 g / cm^3
# Si number density = 21.469710 Si / 1000 Ang^3
#
#
#
# Elastic Constant Matrix: (Units=GPa)
#
#
# Indices 1 2 3 4 5 6 
#
# 1 47.9485 2.1734 20.6996 0.0000 -7.0471 0.0000
# 2 2.1734 101.5080 63.9707 0.0000 -10.7406 0.0000
# 3 20.6996 63.9707 167.6721 0.0000 -20.7112 0.0000
# 4 0.0000 0.0000 0.0000 34.4423 0.0000 -0.8289
# 5 -7.0471 -10.7406 -20.7112 0.0000 30.5161 0.0000
# 6 0.0000 0.0000 0.0000 -0.8289 0.0000 30.7857
#
#
#
# Elastic Compliance Matrix: (Units=1/GPa)
#
#
# Indices 1 2 3 4 5 6 
#
# 1 0.022637 0.001821 -0.003018 0.000000 0.003821 0.000000
# 2 0.001821 0.013165 -0.005046 0.000000 0.001629 0.000000
# 3 -0.003018 -0.005046 0.008684 0.000000 0.003421 0.000000
# 4 0.000000 0.000000 0.000000 0.029053 0.000000 0.000782
# 5 0.003821 0.001629 0.003421 0.000000 0.036547 0.000000
# 6 0.000000 0.000000 0.000000 0.000782 0.000000 0.032504
#
#
# Mechanical properties :
#
#
# Convention : Reuss Voigt Hill
#
# Bulk Modulus (GPa) = 31.24849 54.53512 42.89181
# Shear Modulus (GPa) = 30.16714 34.50114 32.33414
#
# Velocity S-wave (km/s) = 3.75254 4.01305 3.88498
# Velocity P-wave (km/s) = 5.77595 6.85046 6.33603
#
# Compressibility (1/GPa) = 0.03200155
#
# Stress axis : x y z
#
# Youngs Moduli (GPa) = 44.17471 75.95852 115.14859
#
# Poissons Ratio (x) = -0.13834 0.34747
# Poissons Ratio (y) = -0.08045 0.58108
# Poissons Ratio (z) = 0.13330 0.38331
#
# Static dielectric constant tensor:
#      x y z
#    x 1.809310 0.000000 0.000920 
#    y 0.000000 2.018070 0.000000 
#    z 0.000920 0.000000 1.764110 
# 
# From -- ./inp_files/134763.got.cif
#   From: 2010.05.17/outbox.cif.g08.bks.cpg/sg15_68_cif.got.tgz:134763.got - 2010.06.03 18:47:42.
