data_PCOD9260557
_publ_section_title
;
Structure prediction by ZEFSAII (Michael W. Deem and Ramdas Pophale) SiO2 
 PCOD9260557
Probable space group: C 2/C
;
_chemical_formula_sum "Si O2"
_cell_formula_units_Z 60
_cell_length_a 8.215776
_cell_length_b 18.535511
_cell_length_c 20.744153
_cell_angle_alpha 90.000000
_cell_angle_beta 109.331091
_cell_angle_gamma 90.000000
_cell_volume 2980.894944
_symmetry_space_group_name_H-M "C 2/C"
_symmetry_group_IT_number 15
_symmetry_cell_setting 'monoclinic'
loop_
_space_group_symop_operation_xyz
x,y,z
-x,y,1/2-z
-x,-y,-z
x,-y,1/2+z
1/2+x,1/2+y,z
1/2-x,1/2+y,1/2-z
1/2-x,1/2-y,-z
1/2+x,1/2-y,1/2+z
loop_
_atom_site_type_symbol
_atom_site_label
_atom_site_fract_x
_atom_site_fract_y
_atom_site_fract_z
Si Si1 0.500000 0.335584 0.750000
Si Si2 0.161875 0.449161 0.031777
Si Si3 0.093653 0.194186 0.481428
Si Si4 0.400466 0.571946 0.116775
Si Si5 0.585570 0.186621 0.608441
Si Si6 0.276999 0.355587 0.377001
Si Si7 0.164384 0.985179 0.568836
Si Si8 0.187917 0.771855 0.251086
O O1 0.590650 0.386449 0.815275
O O2 0.657915 0.285983 0.743664
O O3 0.295320 0.497598 0.092506
O O4 0.110196 0.376276 0.060048
O O5 0.223576 0.439524 0.966123
O O6 0.000000 0.500000 0.000000
O O7 0.250000 0.250000 0.500000
O O8 0.157421 0.127517 0.446578
O O9 0.077658 0.171302 0.553257
O O10 0.934824 0.236033 0.429109
O O11 0.596469 0.557050 0.121294
O O12 0.408829 0.175544 0.625855
O O13 0.740369 0.184400 0.678605
O O14 0.264499 0.440358 0.392820
O O15 0.320519 0.324775 0.312415
O O16 0.000000 0.000000 0.500000
O O17 0.000000 0.743641 0.250000
#
# Coordination Sequence:
#
# PCOD9260557 Si02
#       8
#     4   8   8   8   8   8   8   8
#     4  12  24  54  66  94 142 186 232 296 348 420
#     4  11  21  40  65 104 135 171 229 291 337 421
#     4  10  18  37  67  96 123 185 229 272 358 407
#     4  11  23  41  69  90 138 187 219 287 360 403
#     4  11  22  41  68 102 141 180 233 286 357 412
#     4  11  20  42  70  96 140 189 226 286 354 413
#     4  10  21  38  62  96 135 171 224 281 336 411
#     4  12  27  44  70 102 139 184 237 291 348 423
#
# _framework density 20.128183
#
# number of rings (size 3 to 8) (size 9 to 14) (size 15 to 20)
#    0.000    1.067    6.667    1.600    3.733    1.067 
#    4.800    1.333    0.000    0.000    0.000    0.000 
#    0.000    0.000    0.000    0.000    0.000    0.000 
#
# Total GULP energy -167149.116759 kJ/mol
# GULP energy per Si atom -5571.637225 kJ/mol
# Density = 2.008237 g / cm^3
# Si number density = 20.128183 Si / 1000 Ang^3
#
#
#
# Elastic Constant Matrix: (Units=GPa)
#
#
# Indices 1 2 3 4 5 6 
#
# 1 86.9786 9.5020 10.8066 0.0000 -11.5271 0.0000
# 2 9.5020 60.8719 16.3283 0.0000 -9.2416 0.0000
# 3 10.8066 16.3283 93.0643 0.0000 -5.1379 0.0000
# 4 0.0000 0.0000 0.0000 39.6109 0.0000 -2.3073
# 5 -11.5271 -9.2416 -5.1379 0.0000 21.5374 0.0000
# 6 0.0000 0.0000 0.0000 -2.3073 0.0000 25.2170
#
#
#
# Elastic Compliance Matrix: (Units=1/GPa)
#
#
# Indices 1 2 3 4 5 6 
#
# 1 0.012515 -0.000758 -0.000981 0.000000 0.006139 0.000000
# 2 -0.000758 0.018316 -0.002750 0.000000 0.006797 0.000000
# 3 -0.000981 -0.002750 0.011398 0.000000 0.001014 0.000000
# 4 0.000000 0.000000 0.000000 0.025381 0.000000 0.002322
# 5 0.006139 0.006797 0.001014 0.000000 0.052875 0.000000
# 6 0.000000 0.000000 0.000000 0.002322 0.000000 0.039868
#
#
# Mechanical properties :
#
#
# Convention : Reuss Voigt Hill
#
# Bulk Modulus (GPa) = 30.07584 34.90984 32.49284
# Shear Modulus (GPa) = 27.71367 30.89158 29.30262
#
# Velocity S-wave (km/s) = 3.71463 3.92183 3.81963
# Velocity P-wave (km/s) = 5.77690 6.15541 5.96916
#
# Compressibility (1/GPa) = 0.03324928
#
# Stress axis : x y z
#
# Youngs Moduli (GPa) = 79.90135 54.59693 87.73689
#
# Poissons Ratio (x) = 0.04141 0.08610
# Poissons Ratio (y) = 0.06060 0.24130
# Poissons Ratio (z) = 0.07841 0.15016
#
# Static dielectric constant tensor:
#      x y z
#    x 1.801070 0.000000 -0.005150 
#    y 0.000000 1.721630 0.000000 
#    z -0.005150 0.000000 1.732770 
# 
# From -- ./inp_files/232750.got.cif
#   From: 2010.05.17/outbox.cif.g08.bks.cpg/sg15_117_cif.got.tgz:232750.got - 2010.06.03 18:47:42.
