data_PCOD9260039
_publ_section_title
;
Structure prediction by ZEFSAII (Michael W. Deem and Ramdas Pophale) SiO2 
 PCOD9260039
Probable space group: C 2/C
;
_chemical_formula_sum "Si O2"
_cell_formula_units_Z 56
_cell_length_a 21.896533
_cell_length_b 13.791855
_cell_length_c 10.395416
_cell_angle_alpha 90.000000
_cell_angle_beta 117.594680
_cell_angle_gamma 90.000000
_cell_volume 2782.239363
_symmetry_space_group_name_H-M "C 2/C"
_symmetry_group_IT_number 15
_symmetry_cell_setting 'monoclinic'
loop_
_space_group_symop_operation_xyz
x,y,z
-x,y,1/2-z
-x,-y,-z
x,-y,1/2+z
1/2+x,1/2+y,z
1/2-x,1/2+y,1/2-z
1/2-x,1/2-y,-z
1/2+x,1/2-y,1/2+z
loop_
_atom_site_type_symbol
_atom_site_label
_atom_site_fract_x
_atom_site_fract_y
_atom_site_fract_z
Si Si1 0.852194 0.825982 0.876495
Si Si2 0.501449 0.411573 0.400887
Si Si3 0.753349 0.548030 0.072746
Si Si4 0.868765 0.432486 0.897784
Si Si5 0.258137 0.642144 0.055803
Si Si6 0.151180 0.629302 0.519908
Si Si7 0.436285 0.214775 0.286873
O O1 0.799677 0.875208 0.924793
O O2 0.823120 0.864803 0.714437
O O3 0.928001 0.856212 0.993086
O O4 0.845584 0.709798 0.868246
O O5 0.500000 0.445503 0.250000
O O6 0.500000 0.500000 0.500000
O O7 0.444374 0.324757 0.345968
O O8 0.820321 0.541370 0.228869
O O9 0.776702 0.583937 0.954597
O O10 0.727709 0.438850 0.036914
O O11 0.814368 0.382711 0.942579
O O12 0.925737 0.359475 0.895353
O O13 0.892727 0.534346 0.983843
O O14 0.250000 0.750000 0.000000
O O15 0.125863 0.691156 0.371568
O O16 0.500000 0.198171 0.250000
#
# Coordination Sequence:
#
# PCOD9260039 Si02
#       7
#     8   8   8   8   8   8   8
#     4  11  21  36  61  85 117 165 204 253 315 373
#     4  11  25  45  65  89 125 170 221 268 308 378
#     4   9  20  35  57  89 117 153 202 250 322 377
#     4   9  20  36  61  90 120 159 196 259 319 380
#     4  10  21  36  57  91 126 152 198 262 323 382
#     4  10  18  36  61  86 121 151 203 256 312 379
#     4  10  20  40  60  85 119 162 211 255 311 377
#
# _framework density 20.127670999999999
#
# number of rings (size 3 to 8) (size 9 to 14) (size 15 to 20)
#    0.000    2.000    2.857    1.286    2.000    1.714 
#    0.000    0.000    0.000    0.000    0.000    0.000 
#    0.000    0.000    0.000    0.000    0.000    0.000 
#
# Total GULP energy -155907.500383 kJ/mol
# GULP energy per Si atom -5568.125014 kJ/mol
# Density = 2.008186 g / cm^3
# Si number density = 20.127671 Si / 1000 Ang^3
#
#
#
# Elastic Constant Matrix: (Units=GPa)
#
#
# Indices 1 2 3 4 5 6 
#
# 1 13.3068 35.2290 19.1568 0.0000 -5.8640 0.0000
# 2 35.2290 167.2561 46.0775 0.0000 -13.6464 0.0000
# 3 19.1568 46.0775 54.8782 0.0000 -3.3382 0.0000
# 4 0.0000 0.0000 0.0000 36.1817 0.0000 -8.1494
# 5 -5.8640 -13.6464 -3.3382 0.0000 20.6357 0.0000
# 6 0.0000 0.0000 0.0000 -8.1494 0.0000 25.9707
#
#
#
# Elastic Compliance Matrix: (Units=1/GPa)
#
#
# Indices 1 2 3 4 5 6 
#
# 1 0.304734 -0.041315 -0.068757 0.000000 0.048152 0.000000
# 2 -0.041315 0.013744 0.002748 0.000000 -0.002207 0.000000
# 3 -0.068757 0.002748 0.039224 0.000000 -0.011376 0.000000
# 4 0.000000 0.000000 0.000000 0.029740 0.000000 0.009332
# 5 0.048152 -0.002207 -0.011376 0.000000 0.058843 0.000000
# 6 0.000000 0.000000 0.000000 0.009332 0.000000 0.041433
#
#
# Mechanical properties :
#
#
# Convention : Reuss Voigt Hill
#
# Bulk Modulus (GPa) = 6.99039 48.48530 27.73784
# Shear Modulus (GPa) = 6.66620 25.55612 16.11116
#
# Velocity S-wave (km/s) = 1.82185 3.56715 2.83229
# Velocity P-wave (km/s) = 2.81178 6.41149 4.95042
#
# Compressibility (1/GPa) = 0.14305362
#
# Stress axis : x y z
#
# Youngs Moduli (GPa) = 3.28155 72.75978 25.49430
#
# Poissons Ratio (x) = 3.00608 1.75292
# Poissons Ratio (y) = 0.13558 -0.07006
# Poissons Ratio (z) = 0.22563 -0.19995
#
# Static dielectric constant tensor:
#      x y z
#    x 1.759520 0.000000 0.001020 
#    y 0.000000 1.763440 0.000000 
#    z 0.001020 0.000000 1.784850 
# 
# From -- ./inp_files/117673.got.cif
#   From: 2010.05.17/outbox.cif.g08.bks.cpg/sg15_59_cif.got.tgz:117673.got - 2010.06.03 18:47:42.
