data_PCOD9260643
_publ_section_title
;
Structure prediction by ZEFSAII (Michael W. Deem and Ramdas Pophale) SiO2 
 PCOD9260643
Probable space group: C 2/C
;
_chemical_formula_sum "Si O2"
_cell_formula_units_Z 56
_cell_length_a 20.873035
_cell_length_b 18.072663
_cell_length_c 8.264609
_cell_angle_alpha 90.000000
_cell_angle_beta 106.912636
_cell_angle_gamma 90.000000
_cell_volume 2982.828504
_symmetry_space_group_name_H-M "C 2/C"
_symmetry_group_IT_number 15
_symmetry_cell_setting 'monoclinic'
loop_
_space_group_symop_operation_xyz
x,y,z
-x,y,1/2-z
-x,-y,-z
x,-y,1/2+z
1/2+x,1/2+y,z
1/2-x,1/2+y,1/2-z
1/2-x,1/2-y,-z
1/2+x,1/2-y,1/2+z
loop_
_atom_site_type_symbol
_atom_site_label
_atom_site_fract_x
_atom_site_fract_y
_atom_site_fract_z
Si Si1 0.483343 0.732379 0.932898
Si Si2 0.248654 0.311948 0.358533
Si Si3 0.847220 0.291582 0.754174
Si Si4 0.775024 0.106050 0.364953
Si Si5 0.696818 0.447828 0.250281
Si Si6 0.961737 0.932026 0.390033
Si Si7 0.630912 0.750599 0.098718
O O1 0.500000 0.732492 0.750000
O O2 0.417623 0.783787 0.899576
O O3 0.466067 0.648788 0.973407
O O4 0.552213 0.750153 0.073897
O O5 0.250000 0.250000 0.500000
O O6 0.301185 0.277510 0.270008
O O7 0.272850 0.396561 0.372669
O O8 0.173303 0.304886 0.241427
O O9 0.797228 0.360139 0.734737
O O10 0.861425 0.280855 0.576534
O O11 0.778950 0.083213 0.557612
O O12 0.831591 0.169925 0.371947
O O13 0.785586 0.032541 0.269999
O O14 0.616397 0.445956 0.190580
O O15 0.000000 0.923487 0.250000
O O16 0.000000 0.000000 0.500000
#
# Coordination Sequence:
#
# PCOD9260643 Si02
#       7
#     8   8   8   8   8   8   8
#     4   9  17  32  61  83 101 144 195 233 284 340
#     4  11  22  36  56  81 117 151 196 244 282 338
#     4  10  18  39  59  79 110 148 198 241 280 349
#     4  11  22  34  58  84 119 151 192 242 286 351
#     4  12  22  38  55  86 118 155 194 235 297 344
#     4  11  21  36  52  79 120 152 182 228 281 351
#     4  10  18  38  60  84 106 147 197 238 284 352
#
# _framework density 18.774125999999999
#
# number of rings (size 3 to 8) (size 9 to 14) (size 15 to 20)
#    0.000    1.429    4.286    4.286    4.000    0.000 
#    2.571    0.714    0.000    0.857    0.000    0.000 
#    0.000    0.000    0.000    0.000    0.000    0.000 
#
# Total GULP energy -156025.453872 kJ/mol
# GULP energy per Si atom -5572.337638 kJ/mol
# Density = 1.873139 g / cm^3
# Si number density = 18.774126 Si / 1000 Ang^3
#
#
#
# Elastic Constant Matrix: (Units=GPa)
#
#
# Indices 1 2 3 4 5 6 
#
# 1 122.4783 68.8162 43.3914 0.0000 55.9455 0.0000
# 2 68.8162 97.7723 21.8329 0.0000 25.2123 0.0000
# 3 43.3914 21.8329 49.0641 0.0000 24.2090 0.0000
# 4 0.0000 0.0000 0.0000 18.8888 0.0000 -4.0172
# 5 55.9455 25.2123 24.2090 0.0000 31.4912 0.0000
# 6 0.0000 0.0000 0.0000 -4.0172 0.0000 30.2905
#
#
#
# Elastic Compliance Matrix: (Units=1/GPa)
#
#
# Indices 1 2 3 4 5 6 
#
# 1 0.063920 -0.019818 0.000791 0.000000 -0.098298 0.000000
# 2 -0.019818 0.019066 -0.001285 0.000000 0.020931 0.000000
# 3 0.000791 -0.001285 0.032931 0.000000 -0.025691 0.000000
# 4 0.000000 0.000000 0.000000 0.054478 0.000000 0.007225
# 5 -0.098298 0.020931 -0.025691 0.000000 0.209379 0.000000
# 6 0.000000 0.000000 0.000000 0.007225 0.000000 0.033972
#
#
# Mechanical properties :
#
#
# Convention : Reuss Voigt Hill
#
# Bulk Modulus (GPa) = 13.28164 59.71062 36.49613
# Shear Modulus (GPa) = 10.42821 25.15238 17.79029
#
# Velocity S-wave (km/s) = 2.35937 3.66421 3.08164
# Velocity P-wave (km/s) = 3.80946 7.05519 5.66955
#
# Compressibility (1/GPa) = 0.07529190
#
# Stress axis : x y z
#
# Youngs Moduli (GPa) = 15.64444 52.44862 30.36692
#
# Poissons Ratio (x) = 1.03945 -0.02401
# Poissons Ratio (y) = 0.31005 0.03902
# Poissons Ratio (z) = -0.01237 0.06740
#
# Static dielectric constant tensor:
#      x y z
#    x 1.676430 0.000000 -0.019090 
#    y 0.000000 1.678470 0.000000 
#    z -0.019090 0.000000 1.724060 
# 
# From -- ./inp_files/62005.got.cif
#   From: 2010.05.17/outbox.cif.g08.bks.cpg/sg15_32_cif.got.tgz:62005.got - 2010.06.03 18:47:42.
