data_PCOD9260901
_publ_section_title
;
Structure prediction by ZEFSAII (Michael W. Deem and Ramdas Pophale) SiO2 
 PCOD9260901
Probable space group: C 2/C
;
_chemical_formula_sum "Si O2"
_cell_formula_units_Z 56
_cell_length_a 8.173331
_cell_length_b 17.110554
_cell_length_c 23.713430
_cell_angle_alpha 90.000000
_cell_angle_beta 130.581153
_cell_angle_gamma 90.000000
_cell_volume 2518.702808
_symmetry_space_group_name_H-M "C 2/C"
_symmetry_group_IT_number 15
_symmetry_cell_setting 'monoclinic'
loop_
_space_group_symop_operation_xyz
x,y,z
-x,y,1/2-z
-x,-y,-z
x,-y,1/2+z
1/2+x,1/2+y,z
1/2-x,1/2+y,1/2-z
1/2-x,1/2-y,-z
1/2+x,1/2-y,1/2+z
loop_
_atom_site_type_symbol
_atom_site_label
_atom_site_fract_x
_atom_site_fract_y
_atom_site_fract_z
Si Si1 0.162815 0.241638 0.071069
Si Si2 0.442476 0.064734 0.802419
Si Si3 0.644172 0.036794 0.117151
Si Si4 0.746378 0.727248 0.785283
Si Si5 0.834779 0.296079 0.845310
Si Si6 0.352660 0.647569 0.924223
Si Si7 0.743905 0.083934 0.547260
O O1 0.129904 0.250553 0.130295
O O2 0.402738 0.209509 0.107453
O O3 0.155808 0.329796 0.044470
O O4 0.982855 0.185462 0.004768
O O5 0.500000 0.049967 0.750000
O O6 0.289805 0.140166 0.772455
O O7 0.648735 0.092965 0.885501
O O8 0.358348 0.991869 0.818924
O O9 0.727422 0.124948 0.137644
O O10 0.759757 0.971831 0.105023
O O11 0.412419 0.045718 0.034157
O O12 0.500000 0.729447 0.750000
O O13 0.773077 0.785696 0.739548
O O14 0.779235 0.220821 0.869854
O O15 0.525040 0.598831 0.927303
#
# Coordination Sequence:
#
# PCOD9260901 Si02
#       7
#     8   8   8   8   8   8   8
#     4  10  18  38  68  98 116 175 224 256 317 383
#     4  12  26  40  63  95 136 169 207 270 339 381
#     4  11  22  39  66  96 128 165 217 265 326 378
#     4  10  22  41  69  90 125 174 225 264 317 402
#     4  10  19  39  70  90 121 169 222 267 301 381
#     4  11  21  40  70  91 132 170 216 263 316 392
#     4  10  20  39  67  94 126 170 216 263 321 385
#
# _framework density 22.233667000000001
#
# number of rings (size 3 to 8) (size 9 to 14) (size 15 to 20)
#    0.000    1.429    5.714    0.857    0.000    2.857 
#    0.000    0.000   12.571    0.000    0.000    0.000 
#    0.000    0.000    0.000    0.000    0.000    0.000 
#
# Total GULP energy -156561.138569 kJ/mol
# GULP energy per Si atom -5591.469235 kJ/mol
# Density = 2.218306 g / cm^3
# Si number density = 22.233667 Si / 1000 Ang^3
#
#
#
# Elastic Constant Matrix: (Units=GPa)
#
#
# Indices 1 2 3 4 5 6 
#
# 1 29.5142 16.5000 12.2361 0.0001 -16.4061 0.0000
# 2 16.5000 78.3968 13.9968 0.0000 -7.0877 0.0000
# 3 12.2361 13.9968 83.6366 0.0001 -26.6792 0.0001
# 4 0.0001 0.0000 0.0001 30.2410 0.0001 -7.3281
# 5 -16.4061 -7.0877 -26.6792 0.0001 32.3351 0.0000
# 6 0.0000 0.0000 0.0001 -7.3281 0.0000 12.9560
#
#
#
# Elastic Compliance Matrix: (Units=1/GPa)
#
#
# Indices 1 2 3 4 5 6 
#
# 1 0.052893 -0.009128 0.002323 0.000000 0.026753 0.000000
# 2 -0.009128 0.014774 -0.002146 0.000000 -0.003164 0.000000
# 3 0.002323 -0.002146 0.016560 0.000000 0.014372 0.000000
# 4 0.000000 0.000000 0.000000 0.038320 0.000000 0.021674
# 5 0.026753 -0.003164 0.014372 0.000000 0.055664 0.000000
# 6 0.000000 0.000000 0.000000 0.021674 0.000000 0.089444
#
#
# Mechanical properties :
#
#
# Convention : Reuss Voigt Hill
#
# Bulk Modulus (GPa) = 15.07742 30.77926 22.92834
# Shear Modulus (GPa) = 16.25139 25.02742 20.63940
#
# Velocity S-wave (km/s) = 2.70652 3.35872 3.05010
# Velocity P-wave (km/s) = 4.06977 5.37726 4.76854
#
# Compressibility (1/GPa) = 0.06632435
#
# Stress axis : x y z
#
# Youngs Moduli (GPa) = 18.90610 67.68651 60.38545
#
# Poissons Ratio (x) = 0.61787 -0.14029
# Poissons Ratio (y) = 0.17258 0.12960
# Poissons Ratio (z) = -0.04392 0.14527
#
# Static dielectric constant tensor:
#      x y z
#    x 1.821660 0.000000 0.026340 
#    y 0.000000 1.755440 0.000000 
#    z 0.026340 0.000000 1.857630 
# 
# From -- ./inp_files/265595.got.cif
#   From: 2010.05.17/outbox.cif.g08.bks.cpg/sg15_133_cif.got.tgz:265595.got - 2010.06.03 18:47:42.
