data_PCOD9260608
_publ_section_title
;
Structure prediction by ZEFSAII (Michael W. Deem and Ramdas Pophale) SiO2 
 PCOD9260608
Probable space group: C 2/C
;
_chemical_formula_sum "Si O2"
_cell_formula_units_Z 60
_cell_length_a 17.483318
_cell_length_b 17.039908
_cell_length_c 10.058870
_cell_angle_alpha 90.000000
_cell_angle_beta 62.920740
_cell_angle_gamma 90.000000
_cell_volume 2668.176443
_symmetry_space_group_name_H-M "C 2/C"
_symmetry_group_IT_number 15
_symmetry_cell_setting 'monoclinic'
loop_
_space_group_symop_operation_xyz
x,y,z
-x,y,1/2-z
-x,-y,-z
x,-y,1/2+z
1/2+x,1/2+y,z
1/2-x,1/2+y,1/2-z
1/2-x,1/2-y,-z
1/2+x,1/2-y,1/2+z
loop_
_atom_site_type_symbol
_atom_site_label
_atom_site_fract_x
_atom_site_fract_y
_atom_site_fract_z
Si Si1 0.242640 0.981095 0.309252
Si Si2 0.082321 0.036714 0.751822
Si Si3 0.851173 0.632921 0.562451
Si Si4 0.302123 0.327492 0.002516
Si Si5 0.938161 0.199822 0.603101
Si Si6 0.000000 0.327561 0.750000
Si Si7 0.110620 0.782197 0.823783
Si Si8 0.785054 0.873125 0.536440
O O1 0.149901 0.994995 0.308743
O O2 0.233045 0.914139 0.432411
O O3 0.272870 0.064450 0.338708
O O4 0.310938 0.946633 0.151113
O O5 0.043307 0.114703 0.850924
O O6 0.144960 0.071340 0.590282
O O7 0.000000 0.993690 0.750000
O O8 0.865964 0.690206 0.677047
O O9 0.774752 0.664627 0.527813
O O10 0.937018 0.629299 0.404124
O O11 0.366892 0.329421 0.826464
O O12 0.250000 0.250000 0.000000
O O13 0.347744 0.303926 0.103239
O O14 0.942411 0.267434 0.708824
O O15 0.010950 0.214435 0.437080
O O16 0.164210 0.819279 0.902729
#
# Coordination Sequence:
#
# PCOD9260608 Si02
#       8
#     8   8   8   8   8   4   8   8
#     4  10  24  40  56  90 132 163 205 253 299 375
#     4  10  18  38  57  85 124 162 205 247 283 359
#     4  10  22  41  63  92 119 150 217 264 304 377
#     4  11  23  38  59  89 131 170 203 246 314 368
#     4  10  20  38  59  94 128 152 209 265 293 368
#     4  10  20  38  72  90 110 156 206 270 328 346
#     4  11  21  38  64  91 121 165 207 252 315 359
#     4  11  23  37  63  90 122 170 203 255 310 361
#
# _framework density 22.487269000000001
#
# number of rings (size 3 to 8) (size 9 to 14) (size 15 to 20)
#    0.000    1.600    3.333    1.600    5.600    0.533 
#    0.000    0.667    0.000    1.600    0.000    0.000 
#    0.000    0.000    0.000    0.000    0.000    0.000 
#
# Total GULP energy -167414.025692 kJ/mol
# GULP energy per Si atom -5580.467523 kJ/mol
# Density = 2.243609 g / cm^3
# Si number density = 22.487269 Si / 1000 Ang^3
#
#
#
# Elastic Constant Matrix: (Units=GPa)
#
#
# Indices 1 2 3 4 5 6 
#
# 1 52.2756 11.7316 -2.2996 0.0000 9.7066 0.0000
# 2 11.7316 45.0456 -7.3379 0.0000 -0.1171 0.0000
# 3 -2.2996 -7.3379 66.8441 0.0000 -4.4492 0.0000
# 4 0.0000 0.0000 0.0000 12.2476 0.0000 4.9705
# 5 9.7066 -0.1171 -4.4492 0.0000 33.8758 0.0000
# 6 0.0000 0.0000 0.0000 4.9705 0.0000 18.5416
#
#
#
# Elastic Compliance Matrix: (Units=1/GPa)
#
#
# Indices 1 2 3 4 5 6 
#
# 1 0.021547 -0.005676 -0.000297 0.000000 -0.006233 0.000000
# 2 -0.005676 0.024105 0.002587 0.000000 0.002050 0.000000
# 3 -0.000297 0.002587 0.015375 0.000000 0.002113 0.000000
# 4 0.000000 0.000000 0.000000 0.091616 0.000000 -0.024560
# 5 -0.006233 0.002050 0.002113 0.000000 0.031590 0.000000
# 6 0.000000 0.000000 0.000000 -0.024560 0.000000 0.060516
#
#
# Mechanical properties :
#
#
# Convention : Reuss Voigt Hill
#
# Bulk Modulus (GPa) = 18.43129 18.70594 18.56861
# Shear Modulus (GPa) = 18.54558 23.73773 21.14166
#
# Velocity S-wave (km/s) = 2.87490 3.25254 3.06953
# Velocity P-wave (km/s) = 4.38568 4.73728 4.56487
#
# Compressibility (1/GPa) = 0.05425555
#
# Stress axis : x y z
#
# Youngs Moduli (GPa) = 46.40910 41.48544 65.04206
#
# Poissons Ratio (x) = 0.23548 0.01930
# Poissons Ratio (y) = 0.26343 -0.16828
# Poissons Ratio (z) = 0.01377 -0.10733
#
# Static dielectric constant tensor:
#      x y z
#    x 1.845590 0.000000 -0.020710 
#    y 0.000000 1.839910 0.000000 
#    z -0.020710 0.000000 1.990830 
# 
# From -- ./inp_files/50180.got.cif
#   From: 2010.05.17/outbox.cif.g08.bks.cpg/sg15_26_cif.got.tgz:50180.got - 2010.06.03 18:47:42.
