data_PCOD9260562
_publ_section_title
;
Structure prediction by ZEFSAII (Michael W. Deem and Ramdas Pophale) SiO2 
 PCOD9260562
Probable space group: C 2/C
;
_chemical_formula_sum "Si O2"
_cell_formula_units_Z 56
_cell_length_a 27.884816
_cell_length_b 17.016537
_cell_length_c 5.562051
_cell_angle_alpha 90.000000
_cell_angle_beta 102.022828
_cell_angle_gamma 90.000000
_cell_volume 2581.318006
_symmetry_space_group_name_H-M "C 2/C"
_symmetry_group_IT_number 15
_symmetry_cell_setting 'monoclinic'
loop_
_space_group_symop_operation_xyz
x,y,z
-x,y,1/2-z
-x,-y,-z
x,-y,1/2+z
1/2+x,1/2+y,z
1/2-x,1/2+y,1/2-z
1/2-x,1/2-y,-z
1/2+x,1/2-y,1/2+z
loop_
_atom_site_type_symbol
_atom_site_label
_atom_site_fract_x
_atom_site_fract_y
_atom_site_fract_z
Si Si1 0.714206 0.846359 0.461826
Si Si2 0.074579 0.332665 0.606789
Si Si3 0.855846 0.253881 0.472059
Si Si4 0.691109 0.688110 0.679860
Si Si5 0.000000 0.551080 0.250000
Si Si6 0.581631 0.682457 0.346070
Si Si7 0.869891 0.543886 0.588419
Si Si8 0.000000 0.049794 0.250000
O O1 0.713807 0.776228 0.657334
O O2 0.766668 0.862518 0.398537
O O3 0.685002 0.923449 0.502178
O O4 0.677786 0.805955 0.230779
O O5 0.123734 0.308702 0.796710
O O6 0.043755 0.387301 0.749443
O O7 0.055591 0.250341 0.479834
O O8 0.091260 0.385613 0.400681
O O9 0.821769 0.186561 0.552945
O O10 0.903997 0.218054 0.397582
O O11 0.637545 0.672568 0.506396
O O12 0.000000 0.500000 0.500000
O O13 0.547899 0.606467 0.302520
O O14 0.877646 0.491686 0.358844
O O15 0.000000 0.000000 0.500000
#
# Coordination Sequence:
#
# PCOD9260562 Si02
#       8
#     8   8   8   8   4   8   8   4
#     4  10  19  36  59  98 133 185 233 291 339 404
#     4  11  24  42  68  95 138 185 250 288 334 415
#     4  10  18  37  68 102 129 173 235 294 341 400
#     4   9  19  37  67  98 131 169 244 293 339 401
#     4  12  30  44  62 100 146 194 240 292 360 394
#     4  10  24  44  75 103 129 180 238 293 356 430
#     4  12  24  39  60  92 145 190 226 275 343 402
#     4  12  32  54  80 110 146 178 222 302 406 460
#
# _framework density 21.694341999999999
#
# number of rings (size 3 to 8) (size 9 to 14) (size 15 to 20)
#    0.000    1.429    4.286    2.143    8.000    0.000 
#    0.000    1.429    0.000    0.000    0.000    0.000 
#    0.000    0.000    0.000    0.000    0.000    0.000 
#
# Total GULP energy -156097.551475 kJ/mol
# GULP energy per Si atom -5574.912553 kJ/mol
# Density = 2.164496 g / cm^3
# Si number density = 21.694342 Si / 1000 Ang^3
#
#
#
# Elastic Constant Matrix: (Units=GPa)
#
#
# Indices 1 2 3 4 5 6 
#
# 1 129.0276 53.5232 31.5652 0.0000 -22.3600 0.0000
# 2 53.5232 95.0185 52.8397 0.0000 -6.6868 0.0000
# 3 31.5652 52.8397 106.2238 0.0000 -22.5350 0.0000
# 4 0.0000 0.0000 0.0000 33.4459 0.0000 -10.8145
# 5 -22.3600 -6.6868 -22.5350 0.0000 27.6242 0.0000
# 6 0.0000 0.0000 0.0000 -10.8145 0.0000 46.9064
#
#
#
# Elastic Compliance Matrix: (Units=1/GPa)
#
#
# Indices 1 2 3 4 5 6 
#
# 1 0.011873 -0.007163 0.002063 0.000000 0.009560 0.000000
# 2 -0.007163 0.019062 -0.009196 0.000000 -0.008685 0.000000
# 3 0.002063 -0.009196 0.016032 0.000000 0.012522 0.000000
# 4 0.000000 0.000000 0.000000 0.032307 0.000000 0.007449
# 5 0.009560 -0.008685 0.012522 0.000000 0.052051 0.000000
# 6 0.000000 0.000000 0.000000 0.007449 0.000000 0.023036
#
#
# Mechanical properties :
#
#
# Convention : Reuss Voigt Hill
#
# Bulk Modulus (GPa) = 54.42104 67.34735 60.88420
# Shear Modulus (GPa) = 26.44395 34.41809 30.43102
#
# Velocity S-wave (km/s) = 3.49511 3.98741 3.74935
# Velocity P-wave (km/s) = 6.43642 7.23259 6.84609
#
# Compressibility (1/GPa) = 0.01837525
#
# Stress axis : x y z
#
# Youngs Moduli (GPa) = 84.22119 52.46142 62.37461
#
# Poissons Ratio (x) = 0.37576 -0.12866
# Poissons Ratio (y) = 0.60324 0.57361
# Poissons Ratio (z) = -0.17372 0.48244
#
# Static dielectric constant tensor:
#      x y z
#    x 1.851660 0.000000 -0.035530 
#    y 0.000000 1.827260 0.000000 
#    z -0.035530 0.000000 1.904520 
# 
# From -- ./inp_files/18237.got.cif
#   From: 2010.05.17/outbox.cif.g08.bks.cpg/sg15_10_cif.got.tgz:18237.got - 2010.06.03 18:47:42.
