data_PCOD9260354
_publ_section_title
;
Structure prediction by ZEFSAII (Michael W. Deem and Ramdas Pophale) SiO2 
 PCOD9260354
Probable space group: C 2/C
;
_chemical_formula_sum "Si O2"
_cell_formula_units_Z 56
_cell_length_a 12.041169
_cell_length_b 24.939757
_cell_length_c 13.530115
_cell_angle_alpha 90.000000
_cell_angle_beta 147.749762
_cell_angle_gamma 90.000000
_cell_volume 2168.167607
_symmetry_space_group_name_H-M "C 2/C"
_symmetry_group_IT_number 15
_symmetry_cell_setting 'monoclinic'
loop_
_space_group_symop_operation_xyz
x,y,z
-x,y,1/2-z
-x,-y,-z
x,-y,1/2+z
1/2+x,1/2+y,z
1/2-x,1/2+y,1/2-z
1/2-x,1/2-y,-z
1/2+x,1/2-y,1/2+z
loop_
_atom_site_type_symbol
_atom_site_label
_atom_site_fract_x
_atom_site_fract_y
_atom_site_fract_z
Si Si1 0.232812 0.567332 0.419589
Si Si2 0.535209 0.171954 0.086719
Si Si3 0.873634 0.540995 0.756490
Si Si4 0.500000 0.500184 0.750000
Si Si5 0.937522 0.223453 0.412268
Si Si6 0.000000 0.167593 0.250000
Si Si7 0.747371 0.080040 0.150960
Si Si8 0.361912 0.365826 0.309000
O O1 0.221020 0.518432 0.330135
O O2 0.303758 0.534630 0.570949
O O3 0.417548 0.609296 0.554000
O O4 0.000000 0.590271 0.250000
O O5 0.502609 0.215030 0.973255
O O6 0.300782 0.147203 0.903041
O O7 0.700115 0.209378 0.271691
O O8 0.679816 0.119261 0.186668
O O9 0.727061 0.589182 0.682253
O O10 0.000000 0.551550 0.750000
O O11 0.050820 0.546107 0.972146
O O12 0.562269 0.460967 0.707093
O O13 0.977511 0.202985 0.330958
O O14 0.087149 0.187447 0.592079
O O15 0.192163 0.125374 0.386547
#
# Coordination Sequence:
#
# PCOD9260354 Si02
#       8
#     8   8   8   4   8   4   8   8
#     4  11  24  41  64  91 118 164 212 261 324 361
#     4  10  22  38  56  90 120 170 204 245 311 364
#     4  10  18  37  58  87 125 165 200 236 301 373
#     4  11  20  40  62  84 132 162 198 270 299 374
#     4  11  21  39  59  86 131 163 209 252 297 368
#     4   9  20  32  56  90 122 172 204 234 297 356
#     4   9  18  33  55  83 125 164 194 237 299 362
#     4  11  24  40  62  91 126 162 211 262 303 369
#
# _framework density 25.828261999999999
#
# number of rings (size 3 to 8) (size 9 to 14) (size 15 to 20)
#    0.000    1.714    4.286    1.286    4.000    3.429 
#    5.143    1.429    0.000    0.857    0.000    0.000 
#    0.000    0.000    0.000    0.000    0.000    0.000 
#
# Total GULP energy -156014.724361 kJ/mol
# GULP energy per Si atom -5571.954441 kJ/mol
# Density = 2.576948 g / cm^3
# Si number density = 25.828262 Si / 1000 Ang^3
#
#
#
# Elastic Constant Matrix: (Units=GPa)
#
#
# Indices 1 2 3 4 5 6 
#
# 1 64.1531 34.5546 13.7678 0.0000 23.9394 0.0000
# 2 34.5546 129.6796 26.0246 0.0000 13.8136 0.0000
# 3 13.7678 26.0246 135.5900 -0.0001 23.2571 0.0000
# 4 0.0000 0.0000 -0.0001 52.1212 0.0000 5.8093
# 5 23.9394 13.8136 23.2571 0.0000 31.3765 0.0000
# 6 0.0000 0.0000 0.0000 5.8093 0.0000 18.1082
#
#
#
# Elastic Compliance Matrix: (Units=1/GPa)
#
#
# Indices 1 2 3 4 5 6 
#
# 1 0.024513 -0.004952 0.001484 0.000000 -0.017622 0.000000
# 2 -0.004952 0.009232 -0.001398 0.000000 0.000750 0.000000
# 3 0.001484 -0.001398 0.008686 0.000000 -0.006955 0.000000
# 4 0.000000 0.000000 0.000000 0.019898 0.000000 -0.006383
# 5 -0.017622 0.000750 -0.006955 0.000000 0.050141 0.000000
# 6 0.000000 0.000000 0.000000 -0.006383 0.000000 0.057271
#
#
# Mechanical properties :
#
#
# Convention : Reuss Voigt Hill
#
# Bulk Modulus (GPa) = 30.58277 53.12407 41.85342
# Shear Modulus (GPa) = 26.26444 37.32621 31.79532
#
# Velocity S-wave (km/s) = 3.19233 3.80566 3.51241
# Velocity P-wave (km/s) = 5.04524 6.31851 5.71743
#
# Compressibility (1/GPa) = 0.03269815
#
# Stress axis : x y z
#
# Youngs Moduli (GPa) = 40.79517 108.32470 115.13147
#
# Poissons Ratio (x) = 0.53647 -0.17088
# Poissons Ratio (y) = 0.20203 0.16092
# Poissons Ratio (z) = -0.06055 0.15141
#
# Static dielectric constant tensor:
#      x y z
#    x 2.184110 0.000000 0.015330 
#    y 0.000000 2.025520 0.000000 
#    z 0.015330 0.000000 2.066020 
# 
# From -- ./inp_files/250247.got.cif
#   From: 2010.05.17/outbox.cif.g08.bks.cpg/sg15_126_cif.got.tgz:250247.got - 2010.06.03 18:47:42.
