data_PCOD9260857
_publ_section_title
;
Structure prediction by ZEFSAII (Michael W. Deem and Ramdas Pophale) SiO2 
 PCOD9260857
Probable space group: C 2/C
;
_chemical_formula_sum "Si O2"
_cell_formula_units_Z 52
_cell_length_a 26.166327
_cell_length_b 16.471424
_cell_length_c 9.921202
_cell_angle_alpha 90.000000
_cell_angle_beta 147.240209
_cell_angle_gamma 90.000000
_cell_volume 2313.824057
_symmetry_space_group_name_H-M "C 2/C"
_symmetry_group_IT_number 15
_symmetry_cell_setting 'monoclinic'
loop_
_space_group_symop_operation_xyz
x,y,z
-x,y,1/2-z
-x,-y,-z
x,-y,1/2+z
1/2+x,1/2+y,z
1/2-x,1/2+y,1/2-z
1/2-x,1/2-y,-z
1/2+x,1/2-y,1/2+z
loop_
_atom_site_type_symbol
_atom_site_label
_atom_site_fract_x
_atom_site_fract_y
_atom_site_fract_z
Si Si1 0.009574 0.759542 0.004411
Si Si2 0.189518 0.827477 0.321191
Si Si3 0.000000 0.873736 0.250000
Si Si4 0.305619 0.574724 0.396271
Si Si5 0.816570 0.682750 0.579386
Si Si6 0.147339 0.532744 0.647256
Si Si7 0.122187 0.596752 0.322523
O O1 0.082135 0.799448 0.057462
O O2 0.062158 0.677626 0.170409
O O3 0.995247 0.816434 0.105848
O O4 0.907950 0.730287 0.728200
O O5 0.250000 0.750000 0.500000
O O6 0.175769 0.879659 0.424152
O O7 0.268104 0.875581 0.410757
O O8 0.093841 0.928898 0.453731
O O9 0.250175 0.496133 0.322022
O O10 0.237764 0.631300 0.154780
O O11 0.750000 0.750000 0.500000
O O12 0.847721 0.616098 0.758997
O O13 0.091766 0.546700 0.385661
O O14 0.116329 0.460731 0.678835
#
# Coordination Sequence:
#
# PCOD9260857 Si02
#       7
#     8   8   4   8   8   8   8
#     4  10  20  37  62  97 124 173 208 263 324 388
#     4   8  18  36  62  84 118 164 210 253 313 377
#     4  10  18  38  66  90 126 168 228 256 336 378
#     4  10  21  40  61  91 124 173 210 271 317 389
#     4  12  24  40  65  95 131 164 223 271 319 377
#     4  11  23  43  63  93 133 170 212 264 330 381
#     4  10  21  40  65  92 131 173 214 257 320 395
#
# _framework density 22.473618999999999
#
# number of rings (size 3 to 8) (size 9 to 14) (size 15 to 20)
#    0.000    1.846    3.077    0.923    4.308    0.615 
#    2.769    8.462    0.000    0.000    0.000    0.000 
#    0.000    0.000    0.000    0.000    0.000    0.000 
#
# Total GULP energy -145066.391354 kJ/mol
# GULP energy per Si atom -5579.476591 kJ/mol
# Density = 2.242247 g / cm^3
# Si number density = 22.473619 Si / 1000 Ang^3
#
#
#
# Elastic Constant Matrix: (Units=GPa)
#
#
# Indices 1 2 3 4 5 6 
#
# 1 62.3082 83.8479 66.0438 0.0000 49.9478 0.0000
# 2 83.8479 -38.2845 -51.7696 0.0000 -34.4792 0.0000
# 3 66.0438 -51.7696 70.2707 0.0000 15.5344 0.0000
# 4 0.0000 0.0000 0.0000 23.1418 0.0000 20.1300
# 5 49.9478 -34.4792 15.5344 0.0000 23.6250 0.0000
# 6 0.0000 0.0000 0.0000 20.1300 0.0000 11.8267
#
#
#
# Elastic Compliance Matrix: (Units=1/GPa)
#
#
# Indices 1 2 3 4 5 6 
#
# 1 0.004363 0.007342 0.001145 0.000000 0.000738 0.000000
# 2 0.007342 0.002619 -0.002790 0.000000 -0.009866 0.000000
# 3 0.001145 -0.002790 0.014666 0.000000 -0.016137 0.000000
# 4 0.000000 0.000000 0.000000 -0.089919 0.000000 0.153049
# 5 0.000738 -0.009866 -0.016137 0.000000 0.036979 0.000000
# 6 0.000000 0.000000 0.000000 0.153049 0.000000 -0.175947
#
#
# Mechanical properties :
#
#
# Convention : Reuss Voigt Hill
#
# Bulk Modulus (GPa) = 30.26363 32.28205 31.27284
# Shear Modulus (GPa) = -24.08251 11.46352 -6.30949
#
# Velocity S-wave (km/s) = -3.27707 2.26096 -1.67738
# Velocity P-wave (km/s) = 0.90739 4.60560 3.19282
#
# Compressibility (1/GPa) = 0.03304297
#
# Stress axis : x y z
#
# Youngs Moduli (GPa) = 229.19410 381.84289 68.18490
#
# Poissons Ratio (x) = -2.80360 -0.07810
# Poissons Ratio (y) = -1.68281 0.19025
# Poissons Ratio (z) = -0.26251 1.06541
#
# Static dielectric constant tensor:
#      x y z
#    x 1.837660 0.000000 0.048430 
#    y 0.000000 1.794010 0.000000 
#    z 0.048430 0.000000 1.901410 
# 
# From -- ./inp_files/123919.got.cif
#   From: 2010.05.17/outbox.cif.g08.bks.cpg/sg15_62_cif.got.tgz:123919.got - 2010.06.03 18:47:42.
