data_PCOD9260176
_publ_section_title
;
Structure prediction by ZEFSAII (Michael W. Deem and Ramdas Pophale) SiO2 
 PCOD9260176
Probable space group: C 2/C
;
_chemical_formula_sum "Si O2"
_cell_formula_units_Z 44
_cell_length_a 25.155944
_cell_length_b 9.348765
_cell_length_c 7.614129
_cell_angle_alpha 90.000000
_cell_angle_beta 87.143654
_cell_angle_gamma 90.000000
_cell_volume 1788.443383
_symmetry_space_group_name_H-M "C 2/C"
_symmetry_group_IT_number 15
_symmetry_cell_setting 'monoclinic'
loop_
_space_group_symop_operation_xyz
x,y,z
-x,y,1/2-z
-x,-y,-z
x,-y,1/2+z
1/2+x,1/2+y,z
1/2-x,1/2+y,1/2-z
1/2-x,1/2-y,-z
1/2+x,1/2-y,1/2+z
loop_
_atom_site_type_symbol
_atom_site_label
_atom_site_fract_x
_atom_site_fract_y
_atom_site_fract_z
Si Si1 0.169426 0.008427 0.920908
Si Si2 0.000000 0.385120 0.250000
Si Si3 0.322532 0.191038 0.946376
Si Si4 0.372642 0.713094 0.873749
Si Si5 0.563504 0.858762 0.911022
Si Si6 0.284196 0.072198 0.302648
O O1 0.157083 0.103337 0.752853
O O2 0.226504 0.931241 0.899956
O O3 0.170640 0.139614 0.061851
O O4 0.124925 0.886556 0.957506
O O5 0.974091 0.308129 0.422564
O O6 0.957372 0.491946 0.164148
O O7 0.302314 0.093872 0.791302
O O8 0.379153 0.132107 0.006528
O O9 0.283519 0.148016 0.114045
O O10 0.425363 0.762315 0.763147
O O11 0.331589 0.844407 0.895137
#
# Coordination Sequence:
#
# PCOD9260176 Si02
#       6
#     8   4   8   8   8   8
#     4  10  20  35  52  77 113 153 179 220 263 317
#     4  10  18  36  64  82 110 128 180 232 284 332
#     4  10  21  34  53  80 115 139 184 225 271 320
#     4  10  22  36  54  79 115 144 189 222 267 320
#     4   9  19  35  56  86 103 137 169 229 280 323
#     4  10  19  33  53  81 109 150 190 219 252 314
#
# _framework density 24.602401
#
# number of rings (size 3 to 8) (size 9 to 14) (size 15 to 20)
#    0.000    2.545    0.000    4.364    0.000    4.364 
#    0.000    7.273    0.000   13.091    0.000    0.000 
#    0.000    0.000    0.000    0.000    0.000    0.000 
#
# Total GULP energy -122777.488833 kJ/mol
# GULP energy per Si atom -5580.794947 kJ/mol
# Density = 2.454640 g / cm^3
# Si number density = 24.602401 Si / 1000 Ang^3
#
#
#
# Elastic Constant Matrix: (Units=GPa)
#
#
# Indices 1 2 3 4 5 6 
#
# 1 62.8611 12.6619 17.8157 0.0000 -22.0838 0.0000
# 2 12.6619 116.0965 44.3757 0.0000 -24.9234 0.0000
# 3 17.8157 44.3757 116.9585 0.0000 -36.0864 0.0000
# 4 0.0000 0.0000 0.0000 53.0036 0.0000 -13.1365
# 5 -22.0838 -24.9234 -36.0864 0.0000 36.7603 0.0000
# 6 0.0000 0.0000 0.0000 -13.1365 0.0000 16.9574
#
#
#
# Elastic Compliance Matrix: (Units=1/GPa)
#
#
# Indices 1 2 3 4 5 6 
#
# 1 0.020246 0.000294 0.000888 0.000000 0.013233 0.000000
# 2 0.000294 0.010605 -0.002576 0.000000 0.004838 0.000000
# 3 0.000888 -0.002576 0.012936 0.000000 0.011486 0.000000
# 4 0.000000 0.000000 0.000000 0.023350 0.000000 0.018088
# 5 0.013233 0.004838 0.011486 0.000000 0.049709 0.000000
# 6 0.000000 0.000000 0.000000 0.018088 0.000000 0.072984
#
#
# Mechanical properties :
#
#
# Convention : Reuss Voigt Hill
#
# Bulk Modulus (GPa) = 24.39137 49.51364 36.95251
# Shear Modulus (GPa) = 24.23843 36.08178 30.16010
#
# Velocity S-wave (km/s) = 3.14220 3.83377 3.50509
# Velocity P-wave (km/s) = 4.80628 6.30605 5.60654
#
# Compressibility (1/GPa) = 0.04099810
#
# Stress axis : x y z
#
# Youngs Moduli (GPa) = 49.39130 94.29912 77.30448
#
# Poissons Ratio (x) = -0.02768 -0.06862
# Poissons Ratio (y) = -0.01450 0.19910
# Poissons Ratio (z) = -0.04384 0.24287
#
# Static dielectric constant tensor:
#      x y z
#    x 1.950430 0.000000 0.003530 
#    y 0.000000 1.953620 0.000000 
#    z 0.003530 0.000000 2.180380 
# 
# From -- ./inp_files/68283.got.cif
#   From: 2010.05.17/outbox.cif.g08.bks.cpg/sg15_35_cif.got.tgz:68283.got - 2010.06.03 18:47:42.
