data_PCOD9260926
_publ_section_title
;
Structure prediction by ZEFSAII (Michael W. Deem and Ramdas Pophale) SiO2 
 PCOD9260926
Probable space group: C 2/C
;
_chemical_formula_sum "Si O2"
_cell_formula_units_Z 60
_cell_length_a 29.701422
_cell_length_b 10.658571
_cell_length_c 8.079662
_cell_angle_alpha 90.000000
_cell_angle_beta 86.355618
_cell_angle_gamma 90.000000
_cell_volume 2552.644256
_symmetry_space_group_name_H-M "C 2/C"
_symmetry_group_IT_number 15
_symmetry_cell_setting 'monoclinic'
loop_
_space_group_symop_operation_xyz
x,y,z
-x,y,1/2-z
-x,-y,-z
x,-y,1/2+z
1/2+x,1/2+y,z
1/2-x,1/2+y,1/2-z
1/2-x,1/2-y,-z
1/2+x,1/2-y,1/2+z
loop_
_atom_site_type_symbol
_atom_site_label
_atom_site_fract_x
_atom_site_fract_y
_atom_site_fract_z
Si Si1 0.140579 0.236585 0.968951
Si Si2 0.447142 0.352465 0.561697
Si Si3 0.278977 0.445997 0.341893
Si Si4 0.871818 0.596155 0.349101
Si Si5 0.654006 0.558351 0.424847
Si Si6 0.712721 0.093790 0.594916
Si Si7 0.909788 0.363131 0.208232
Si Si8 0.000000 0.937277 0.250000
O O1 0.188949 0.292109 0.009719
O O2 0.110064 0.287006 0.127856
O O3 0.129518 0.296544 0.791924
O O4 0.141320 0.086928 0.965427
O O5 0.393626 0.376891 0.583986
O O6 0.452852 0.217136 0.642608
O O7 0.467688 0.357280 0.374690
O O8 0.469423 0.468435 0.650784
O O9 0.310297 0.541345 0.230397
O O10 0.316304 0.374998 0.440707
O O11 0.247183 0.524293 0.467995
O O12 0.244052 0.368062 0.241210
O O13 0.826504 0.508041 0.349022
O O14 0.911617 0.503204 0.277540
O O15 0.880580 0.625362 0.541567
#
# Coordination Sequence:
#
# PCOD9260926 Si02
#       8
#     8   8   8   8   8   8   8   4
#     4  11  22  39  65  92 132 189 231 286 335 380
#     4  11  24  46  72 101 137 166 215 277 332 429
#     4  10  21  34  56  81 136 176 222 283 336 370
#     4  11  21  39  67  97 128 188 238 271 325 384
#     4  11  24  40  59 100 130 167 230 283 339 397
#     4  10  18  39  54  81 132 176 237 277 318 392
#     4  11  22  40  69 104 132 168 229 280 324 393
#     4  10  24  46  74 104 132 176 206 252 362 426
#
# _framework density 23.505037999999999
#
# number of rings (size 3 to 8) (size 9 to 14) (size 15 to 20)
#    0.000    1.333    4.000    3.200    3.733    2.133 
#    0.000    2.000    0.000    2.400    0.000    0.000 
#    0.000    0.000    0.000    0.000    0.000    0.000 
#
# Total GULP energy -167500.111653 kJ/mol
# GULP energy per Si atom -5583.337055 kJ/mol
# Density = 2.345154 g / cm^3
# Si number density = 23.505038 Si / 1000 Ang^3
#
#
#
# Elastic Constant Matrix: (Units=GPa)
#
#
# Indices 1 2 3 4 5 6 
#
# 1 38.3508 -6.1692 -0.9167 0.0000 -2.3036 0.0000
# 2 -6.1692 85.2070 20.2224 0.0000 -3.5237 0.0000
# 3 -0.9167 20.2224 121.2172 0.0000 -10.1789 0.0000
# 4 0.0000 0.0000 0.0000 -11.4936 0.0000 43.1904
# 5 -2.3036 -3.5237 -10.1789 0.0000 30.6236 0.0000
# 6 0.0000 0.0000 0.0000 43.1904 0.0000 -51.2445
#
#
#
# Elastic Compliance Matrix: (Units=1/GPa)
#
#
# Indices 1 2 3 4 5 6 
#
# 1 0.026533 0.002001 0.000055 0.000000 0.002245 0.000000
# 2 0.002001 0.012388 -0.001974 0.000000 0.000920 0.000000
# 3 0.000055 -0.001974 0.008807 0.000000 0.002704 0.000000
# 4 0.000000 0.000000 0.000000 0.040147 0.000000 0.033837
# 5 0.002245 0.000920 0.002704 0.000000 0.033828 0.000000
# 6 0.000000 0.000000 0.000000 0.033837 0.000000 0.009005
#
#
# Mechanical properties :
#
#
# Convention : Reuss Voigt Hill
#
# Bulk Modulus (GPa) = 20.88080 30.11645 25.49863
# Shear Modulus (GPa) = 34.12816 9.01966 21.57391
#
# Velocity S-wave (km/s) = 3.81458 1.96104 3.03288
# Velocity P-wave (km/s) = 5.32017 4.23888 4.81001
#
# Compressibility (1/GPa) = 0.04789088
#
# Stress axis : x y z
#
# Youngs Moduli (GPa) = 37.68878 80.72610 113.55243
#
# Poissons Ratio (x) = -0.16151 -0.00629
# Poissons Ratio (y) = -0.07541 0.22418
# Poissons Ratio (z) = -0.00209 0.15937
#
# Static dielectric constant tensor:
#      x y z
#    x 1.893390 0.000000 0.051800 
#    y 0.000000 1.880610 0.000000 
#    z 0.051800 0.000000 1.982350 
# 
# From -- ./inp_files/69095.got.cif
#   From: 2010.05.17/outbox.cif.g08.bks.cpg/sg15_35_cif.got.tgz:69095.got - 2010.06.03 18:47:42.
