data_PCOD9260655
_publ_section_title
;
Structure prediction by ZEFSAII (Michael W. Deem and Ramdas Pophale) SiO2 
 PCOD9260655
Probable space group: C 2/C
;
_chemical_formula_sum "Si O2"
_cell_formula_units_Z 40
_cell_length_a 11.682979
_cell_length_b 15.021995
_cell_length_c 14.247317
_cell_angle_alpha 90.000000
_cell_angle_beta 132.598948
_cell_angle_gamma 90.000000
_cell_volume 1840.588601
_symmetry_space_group_name_H-M "C 2/C"
_symmetry_group_IT_number 15
_symmetry_cell_setting 'monoclinic'
loop_
_space_group_symop_operation_xyz
x,y,z
-x,y,1/2-z
-x,-y,-z
x,-y,1/2+z
1/2+x,1/2+y,z
1/2-x,1/2+y,1/2-z
1/2-x,1/2-y,-z
1/2+x,1/2-y,1/2+z
loop_
_atom_site_type_symbol
_atom_site_label
_atom_site_fract_x
_atom_site_fract_y
_atom_site_fract_z
Si Si1 0.866484 0.622670 0.543923
Si Si2 0.843213 0.946346 0.889658
Si Si3 0.216365 0.628390 0.790117
Si Si4 0.823899 0.310036 0.822442
Si Si5 0.095971 0.569275 0.397639
O O1 0.775048 0.629005 0.591224
O O2 0.799374 0.673886 0.419031
O O3 0.880078 0.517810 0.527052
O O4 0.041937 0.652279 0.663298
O O5 0.815993 0.860756 0.809129
O O6 0.762623 0.913429 0.942261
O O7 0.752024 0.026565 0.785190
O O8 0.000000 0.000000 0.000000
O O9 0.323791 0.704532 0.806626
O O10 0.987886 0.355575 0.883148
O O11 0.000000 0.541251 0.250000
#
# Coordination Sequence:
#
# PCOD9260655 Si02
#       5
#     8   8   8   8   8
#     4  10  18  38  60  87 120 157 213 256 304 380
#     4  10  22  41  60  86 128 163 206 270 316 363
#     4  10  21  37  59  92 122 158 208 269 309 363
#     4  11  21  34  67  89 117 169 208 253 323 377
#     4   9  17  38  60  81 117 167 202 245 318 373
#
# _framework density 21.732178999999999
#
# number of rings (size 3 to 8) (size 9 to 14) (size 15 to 20)
#    0.000    2.000    6.000    1.200    2.800    0.000 
#    3.600    1.000    4.400    0.000    0.000    0.000 
#    0.000    0.000    0.000    0.000    0.000    0.000 
#
# Total GULP energy -111369.707301 kJ/mol
# GULP energy per Si atom -5568.485365 kJ/mol
# Density = 2.168272 g / cm^3
# Si number density = 21.732179 Si / 1000 Ang^3
#
#
#
# Elastic Constant Matrix: (Units=GPa)
#
#
# Indices 1 2 3 4 5 6 
#
# 1 45.5495 19.9066 16.5054 0.0000 9.9253 0.0000
# 2 19.9066 107.3479 -15.9165 0.0000 -3.0159 0.0000
# 3 16.5054 -15.9165 40.8485 0.0000 -6.4058 0.0000
# 4 0.0000 0.0000 0.0000 14.7752 0.0000 2.5365
# 5 9.9253 -3.0159 -6.4058 0.0000 24.8396 0.0000
# 6 0.0000 0.0000 0.0000 2.5365 0.0000 23.6061
#
#
#
# Elastic Compliance Matrix: (Units=1/GPa)
#
#
# Indices 1 2 3 4 5 6 
#
# 1 0.042097 -0.012322 -0.025724 0.000000 -0.024951 0.000000
# 2 -0.012322 0.013619 0.011794 0.000000 0.009618 0.000000
# 3 -0.025724 0.011794 0.043047 0.000000 0.022812 0.000000
# 4 0.000000 0.000000 0.000000 0.068953 0.000000 -0.007409
# 5 -0.024951 0.009618 0.022812 0.000000 0.057279 0.000000
# 6 0.000000 0.000000 0.000000 -0.007409 0.000000 0.043158
#
#
# Mechanical properties :
#
#
# Convention : Reuss Voigt Hill
#
# Bulk Modulus (GPa) = 21.61658 26.08189 23.84923
# Shear Modulus (GPa) = 14.87753 24.19420 19.53587
#
# Velocity S-wave (km/s) = 2.61930 3.34022 3.00148
# Velocity P-wave (km/s) = 4.37219 5.18687 4.79686
#
# Compressibility (1/GPa) = 0.04626080
#
# Stress axis : x y z
#
# Youngs Moduli (GPa) = 23.75449 73.42519 23.23018
#
# Poissons Ratio (x) = 0.90471 0.59757
# Poissons Ratio (y) = 0.29269 -0.27397
# Poissons Ratio (z) = 0.61106 -0.86596
#
# Static dielectric constant tensor:
#      x y z
#    x 1.894090 0.000000 0.065000 
#    y 0.000000 1.825180 0.000000 
#    z 0.065000 0.000000 1.817080 
# 
# From -- ./inp_files/85522.got.cif
#   From: 2010.05.17/outbox.cif.g08.bks.cpg/sg15_43_cif.got.tgz:85522.got - 2010.06.03 18:47:42.
