data_PCOD9260648
_publ_section_title
;
Structure prediction by ZEFSAII (Michael W. Deem and Ramdas Pophale) SiO2 
 PCOD9260648
Probable space group: C 2/C
;
_chemical_formula_sum "Si O2"
_cell_formula_units_Z 36
_cell_length_a 8.340547
_cell_length_b 17.525439
_cell_length_c 13.932348
_cell_angle_alpha 90.000000
_cell_angle_beta 132.855567
_cell_angle_gamma 90.000000
_cell_volume 1492.909711
_symmetry_space_group_name_H-M "C 2/C"
_symmetry_group_IT_number 15
_symmetry_cell_setting 'monoclinic'
loop_
_space_group_symop_operation_xyz
x,y,z
-x,y,1/2-z
-x,-y,-z
x,-y,1/2+z
1/2+x,1/2+y,z
1/2-x,1/2+y,1/2-z
1/2-x,1/2-y,-z
1/2+x,1/2-y,1/2+z
loop_
_atom_site_type_symbol
_atom_site_label
_atom_site_fract_x
_atom_site_fract_y
_atom_site_fract_z
Si Si1 0.236881 0.358388 0.142998
Si Si2 0.500000 0.631334 0.250000
Si Si3 0.295119 0.422381 0.360614
Si Si4 0.714591 0.495463 0.954349
Si Si5 0.979814 0.214691 0.058377
O O1 0.500000 0.348512 0.250000
O O2 0.170709 0.378049 0.225831
O O3 0.183471 0.432080 0.056763
O O4 0.118514 0.281116 0.066462
O O5 0.317979 0.577179 0.127369
O O6 0.590655 0.682923 0.200750
O O7 0.191253 0.471888 0.404126
O O8 0.464760 0.478147 0.375869
O O9 0.432875 0.356732 0.471106
O O10 0.750000 0.250000 0.000000
#
# Coordination Sequence:
#
# PCOD9260648 Si02
#       5
#     8   4   8   8   8
#     4  10  20  38  63  89 125 164 213 258 304 371
#     4  10  18  38  60  84 120 170 200 254 310 368
#     4   9  18  34  60  87 121 163 202 253 316 356
#     4   9  17  34  62  89 114 163 208 255 304 364
#     4  11  23  36  59  90 129 166 205 254 321 371
#
# _framework density 24.113983000000001
#
# number of rings (size 3 to 8) (size 9 to 14) (size 15 to 20)
#    0.000    2.222    3.333    1.333    0.000    3.556 
#    0.000    4.444    4.889    5.333    0.000    0.000 
#    0.000    0.000    0.000    0.000    0.000    0.000 
#
# Total GULP energy -100682.334268 kJ/mol
# GULP energy per Si atom -5593.463015 kJ/mol
# Density = 2.405910 g / cm^3
# Si number density = 24.113983 Si / 1000 Ang^3
#
#
#
# Elastic Constant Matrix: (Units=GPa)
#
#
# Indices 1 2 3 4 5 6 
#
# 1 56.4093 43.1597 39.3034 0.0000 -7.0866 0.0000
# 2 43.1597 152.4173 29.5910 0.0000 -15.2109 0.0000
# 3 39.3034 29.5910 51.5331 0.0000 -27.7175 0.0000
# 4 0.0000 0.0000 0.0000 31.3428 0.0000 -5.6624
# 5 -7.0866 -15.2109 -27.7175 0.0000 52.7865 0.0000
# 6 0.0000 0.0000 0.0000 -5.6624 0.0000 48.0741
#
#
#
# Elastic Compliance Matrix: (Units=1/GPa)
#
#
# Indices 1 2 3 4 5 6 
#
# 1 0.055043 -0.008264 -0.048137 0.000000 -0.020268 0.000000
# 2 -0.008264 0.008625 0.002912 0.000000 0.002905 0.000000
# 3 -0.048137 0.002912 0.071659 0.000000 0.032004 0.000000
# 4 0.000000 0.000000 0.000000 0.032599 0.000000 0.003840
# 5 -0.020268 0.002905 0.032004 0.000000 0.033866 0.000000
# 6 0.000000 0.000000 0.000000 0.003840 0.000000 0.021253
#
#
# Mechanical properties :
#
#
# Convention : Reuss Voigt Hill
#
# Bulk Modulus (GPa) = 35.27038 53.82979 44.55009
# Shear Modulus (GPa) = 14.72872 36.32772 25.52822
#
# Velocity S-wave (km/s) = 2.47411 3.88558 3.25722
# Velocity P-wave (km/s) = 4.77702 6.51934 5.71497
#
# Compressibility (1/GPa) = 0.02835240
#
# Stress axis : x y z
#
# Youngs Moduli (GPa) = 18.16746 115.93548 13.95493
#
# Poissons Ratio (x) = 0.95806 0.67174
# Poissons Ratio (y) = 0.15013 -0.04064
# Poissons Ratio (z) = 0.87452 -0.33765
#
# Static dielectric constant tensor:
#      x y z
#    x 1.980580 0.000000 0.013340 
#    y 0.000000 1.893760 0.000000 
#    z 0.013340 0.000000 1.968380 
# 
# From -- ./inp_files/134169.got.cif
#   From: 2010.05.17/outbox.cif.g08.bks.cpg/sg15_68_cif.got.tgz:134169.got - 2010.06.03 18:47:42.
