data_PCOD9260423
_publ_section_title
;
Structure prediction by ZEFSAII (Michael W. Deem and Ramdas Pophale) SiO2 
 PCOD9260423
Probable space group: C 2/C
;
_chemical_formula_sum "Si O2"
_cell_formula_units_Z 56
_cell_length_a 16.771980
_cell_length_b 11.562170
_cell_length_c 10.566075
_cell_angle_alpha 90.000000
_cell_angle_beta 92.860376
_cell_angle_gamma 90.000000
_cell_volume 2046.425570
_symmetry_space_group_name_H-M "C 2/C"
_symmetry_group_IT_number 15
_symmetry_cell_setting 'monoclinic'
loop_
_space_group_symop_operation_xyz
x,y,z
-x,y,1/2-z
-x,-y,-z
x,-y,1/2+z
1/2+x,1/2+y,z
1/2-x,1/2+y,1/2-z
1/2-x,1/2-y,-z
1/2+x,1/2-y,1/2+z
loop_
_atom_site_type_symbol
_atom_site_label
_atom_site_fract_x
_atom_site_fract_y
_atom_site_fract_z
Si Si1 0.175380 0.013233 0.408864
Si Si2 0.928331 0.584203 0.827486
Si Si3 0.921252 0.335481 0.886544
Si Si4 0.642300 0.284578 0.536494
Si Si5 0.799785 0.384961 0.105374
Si Si6 0.731246 0.171589 0.251771
Si Si7 0.483109 0.627636 0.045350
O O1 0.228825 0.041348 0.536886
O O2 0.231273 0.052009 0.297951
O O3 0.101411 0.103076 0.396435
O O4 0.148167 0.879580 0.422694
O O5 0.961631 0.459587 0.872699
O O6 0.887411 0.651507 0.943786
O O7 0.858027 0.570551 0.719771
O O8 0.000000 0.641114 0.750000
O O9 0.864260 0.320309 0.760329
O O10 0.970554 0.224125 0.934044
O O11 0.859231 0.356242 0.995392
O O12 0.726162 0.297306 0.614871
O O13 0.567574 0.338097 0.612893
O O14 0.760318 0.270160 0.157689
O O15 0.500000 0.500000 0.000000
#
# Coordination Sequence:
#
# PCOD9260423 Si02
#       7
#     8   8   8   8   8   8   8
#     4  10  18  37  61  91 122 162 210 260 319 380
#     4  11  25  39  61  89 123 173 216 259 316 386
#     4  11  20  40  67  89 124 167 215 260 316 392
#     4  10  23  36  58  92 130 164 215 265 308 383
#     4  10  19  37  66  93 118 164 213 259 320 396
#     4  10  19  36  66  94 121 167 210 257 324 396
#     4  10  20  35  62  88 123 165 203 260 319 367
#
# _framework density 27.364787
#
# number of rings (size 3 to 8) (size 9 to 14) (size 15 to 20)
#    0.000    1.714    2.857    2.571    2.000    2.286 
#    0.000    2.857   18.857    0.000    0.000    0.000 
#    0.000    0.000    0.000    0.000    0.000    0.000 
#
# Total GULP energy -156365.552875 kJ/mol
# GULP energy per Si atom -5584.484031 kJ/mol
# Density = 2.730250 g / cm^3
# Si number density = 27.364787 Si / 1000 Ang^3
#
#
#
# Elastic Constant Matrix: (Units=GPa)
#
#
# Indices 1 2 3 4 5 6 
#
# 1 53.0348 19.3338 46.3298 0.0000 22.3419 0.0000
# 2 19.3338 168.1349 51.1538 0.0000 -7.8429 0.0000
# 3 46.3298 51.1538 92.9552 0.0000 12.6603 0.0000
# 4 0.0000 0.0000 0.0000 40.9883 0.0000 -3.9216
# 5 22.3419 -7.8429 12.6603 0.0000 44.1443 0.0000
# 6 0.0000 0.0000 0.0000 -3.9216 0.0000 52.5873
#
#
#
# Elastic Compliance Matrix: (Units=1/GPa)
#
#
# Indices 1 2 3 4 5 6 
#
# 1 0.041872 0.000175 -0.018819 0.000000 -0.015764 0.000000
# 2 0.000175 0.007418 -0.004513 0.000000 0.002524 0.000000
# 3 -0.018819 -0.004513 0.022304 0.000000 0.002326 0.000000
# 4 0.000000 0.000000 0.000000 0.024573 0.000000 0.001832
# 5 -0.015764 0.002524 0.002326 0.000000 0.030412 0.000000
# 6 0.000000 0.000000 0.000000 0.001832 0.000000 0.019153
#
#
# Mechanical properties :
#
#
# Convention : Reuss Voigt Hill
#
# Bulk Modulus (GPa) = 39.55593 60.86219 50.20906
# Shear Modulus (GPa) = 24.94093 40.69782 32.81937
#
# Velocity S-wave (km/s) = 3.02226 3.86065 3.46689
# Velocity P-wave (km/s) = 5.16383 6.49324 5.86631
#
# Compressibility (1/GPa) = 0.02528066
#
# Stress axis : x y z
#
# Youngs Moduli (GPa) = 23.88226 134.80077 44.83402
#
# Poissons Ratio (x) = -0.02364 0.84373
# Poissons Ratio (y) = -0.00419 0.20236
# Poissons Ratio (z) = 0.44944 0.60842
#
# Static dielectric constant tensor:
#      x y z
#    x 2.166010 0.000000 0.003990 
#    y 0.000000 2.257440 0.000000 
#    z 0.003990 0.000000 2.212350 
# 
# From -- ./inp_files/160986.got.cif
#   From: 2010.05.17/outbox.cif.g08.bks.cpg/sg15_81_cif.got.tgz:160986.got - 2010.06.03 18:47:42.
