data_PCOD9260115
_publ_section_title
;
Structure prediction by ZEFSAII (Michael W. Deem and Ramdas Pophale) SiO2 
 PCOD9260115
Probable space group: C 2/C
;
_chemical_formula_sum "Si O2"
_cell_formula_units_Z 52
_cell_length_a 19.888493
_cell_length_b 14.636154
_cell_length_c 11.118206
_cell_angle_alpha 90.000000
_cell_angle_beta 136.941641
_cell_angle_gamma 90.000000
_cell_volume 2209.636200
_symmetry_space_group_name_H-M "C 2/C"
_symmetry_group_IT_number 15
_symmetry_cell_setting 'monoclinic'
loop_
_space_group_symop_operation_xyz
x,y,z
-x,y,1/2-z
-x,-y,-z
x,-y,1/2+z
1/2+x,1/2+y,z
1/2-x,1/2+y,1/2-z
1/2-x,1/2-y,-z
1/2+x,1/2-y,1/2+z
loop_
_atom_site_type_symbol
_atom_site_label
_atom_site_fract_x
_atom_site_fract_y
_atom_site_fract_z
Si Si1 0.730046 0.668936 0.747363
Si Si2 0.087121 0.689018 0.653777
Si Si3 0.581493 0.543242 0.691565
Si Si4 0.388830 0.354615 0.649807
Si Si5 0.122389 0.686029 0.251831
Si Si6 0.000000 0.802628 0.250000
Si Si7 0.439904 0.002708 0.793417
O O1 0.843164 0.656705 0.863056
O O2 0.673359 0.588556 0.743329
O O3 0.680034 0.672369 0.550411
O O4 0.706582 0.759776 0.792935
O O5 0.122694 0.785077 0.754171
O O6 0.095090 0.607260 0.760738
O O7 0.975761 0.696139 0.460045
O O8 0.500000 0.500000 0.500000
O O9 0.618787 0.461190 0.825136
O O10 0.518346 0.624614 0.668512
O O11 0.500000 0.340436 0.750000
O O12 0.089315 0.735396 0.331626
O O13 0.138523 0.578945 0.294622
O O14 0.500000 0.982652 0.750000
O O15 0.500000 0.000000 0.000000
#
# Coordination Sequence:
#
# PCOD9260115 Si02
#       7
#     8   8   8   8   8   4   8
#     4  11  24  40  61  96 121 167 212 261 328 382
#     4  11  24  40  61  93 130 160 216 266 313 393
#     4  11  20  37  63  87 123 161 208 258 319 380
#     4  12  20  39  64  88 122 167 206 257 321 380
#     4  10  21  41  66  86 126 167 212 261 326 378
#     4  10  18  36  62  92 116 160 212 254 312 386
#     4  10  22  42  68  91 125 177 218 261 324 382
#
# _framework density 23.533284999999999
#
# number of rings (size 3 to 8) (size 9 to 14) (size 15 to 20)
#    0.000    1.231    4.615    1.846    2.154    1.231 
#    5.538    3.077    0.000    0.000    0.000    0.000 
#    0.000    0.000    0.000    0.000    0.000    0.000 
#
# Total GULP energy -145220.350848 kJ/mol
# GULP energy per Si atom -5585.398110 kJ/mol
# Density = 2.347972 g / cm^3
# Si number density = 23.533285 Si / 1000 Ang^3
#
#
#
# Elastic Constant Matrix: (Units=GPa)
#
#
# Indices 1 2 3 4 5 6 
#
# 1 92.8401 19.3540 5.3130 0.0000 -8.8267 0.0000
# 2 19.3540 138.0420 16.9510 0.0000 -9.4040 0.0000
# 3 5.3130 16.9510 67.4913 0.0000 -16.2070 0.0000
# 4 0.0000 0.0000 0.0000 8.8014 0.0000 -11.5983
# 5 -8.8267 -9.4040 -16.2070 0.0000 21.9435 0.0000
# 6 0.0000 0.0000 0.0000 -11.5983 0.0000 24.7365
#
#
#
# Elastic Compliance Matrix: (Units=1/GPa)
#
#
# Indices 1 2 3 4 5 6 
#
# 1 0.011445 -0.001367 0.000495 0.000000 0.004383 0.000000
# 2 -0.001367 0.007727 -0.001422 0.000000 0.001711 0.000000
# 3 0.000495 -0.001422 0.018278 0.000000 0.013090 0.000000
# 4 0.000000 0.000000 0.000000 0.297328 0.000000 0.139409
# 5 0.004383 0.001711 0.013090 0.000000 0.057736 0.000000
# 6 0.000000 0.000000 0.000000 0.139409 0.000000 0.105791
#
#
# Mechanical properties :
#
#
# Convention : Reuss Voigt Hill
#
# Bulk Modulus (GPa) = 30.43043 42.40106 36.41574
# Shear Modulus (GPa) = 9.73053 28.21330 18.97191
#
# Velocity S-wave (km/s) = 2.03563 3.46622 2.84240
# Velocity P-wave (km/s) = 4.29929 5.83748 5.12641
#
# Compressibility (1/GPa) = 0.03286185
#
# Stress axis : x y z
#
# Youngs Moduli (GPa) = 87.37783 129.41616 54.70994
#
# Poissons Ratio (x) = 0.17688 -0.02708
# Poissons Ratio (y) = 0.11942 0.07781
# Poissons Ratio (z) = -0.04325 0.18405
#
# Static dielectric constant tensor:
#      x y z
#    x 1.855180 0.000000 -0.019950 
#    y 0.000000 1.942740 0.000000 
#    z -0.019950 0.000000 1.954720 
# 
# From -- ./inp_files/112810.got.cif
#   From: 2010.05.17/outbox.cif.g08.bks.cpg/sg15_57_cif.got.tgz:112810.got - 2010.06.03 18:47:42.
