data_PCOD9260585
_publ_section_title
;
Structure prediction by ZEFSAII (Michael W. Deem and Ramdas Pophale) SiO2 
 PCOD9260585
Probable space group: C 2/C
;
_chemical_formula_sum "Si O2"
_cell_formula_units_Z 64
_cell_length_a 17.222312
_cell_length_b 23.164072
_cell_length_c 17.309967
_cell_angle_alpha 90.000000
_cell_angle_beta 147.687152
_cell_angle_gamma 90.000000
_cell_volume 3691.342419
_symmetry_space_group_name_H-M "C 2/C"
_symmetry_group_IT_number 15
_symmetry_cell_setting 'monoclinic'
loop_
_space_group_symop_operation_xyz
x,y,z
-x,y,1/2-z
-x,-y,-z
x,-y,1/2+z
1/2+x,1/2+y,z
1/2-x,1/2+y,1/2-z
1/2-x,1/2-y,-z
1/2+x,1/2-y,1/2+z
loop_
_atom_site_type_symbol
_atom_site_label
_atom_site_fract_x
_atom_site_fract_y
_atom_site_fract_z
Si Si1 0.984131 0.604783 0.100292
Si Si2 0.158697 0.553894 0.671123
Si Si3 0.879952 0.045289 0.211875
Si Si4 0.056980 0.476358 0.380557
Si Si5 0.971934 0.937022 0.397013
Si Si6 0.331694 0.219716 0.996738
Si Si7 0.958933 0.815457 0.306653
Si Si8 0.265068 0.573066 0.266508
O O1 0.977539 0.544971 0.141500
O O2 0.915588 0.659921 0.084865
O O3 0.149023 0.614527 0.209699
O O4 0.891180 0.588995 0.945619
O O5 0.326370 0.569894 0.826446
O O6 0.171890 0.484722 0.667105
O O7 0.041552 0.557403 0.639906
O O8 0.839876 0.089004 0.248345
O O9 0.000000 0.062519 0.250000
O O10 0.940874 0.989016 0.310431
O O11 0.728029 0.031427 0.040824
O O12 0.000000 0.456977 0.250000
O O13 0.988463 0.878402 0.363569
O O14 0.111634 0.944586 0.568407
O O15 0.447256 0.267719 0.070432
O O16 0.250000 0.250000 0.000000
O O17 0.208510 0.203074 0.832388
O O18 0.000000 0.815690 0.250000
#
# Coordination Sequence:
#
# PCOD9260585 Si02
#       8
#     8   8   8   8   8   8   8   8
#     4  11  19  39  57  69 108 155 192 237 281 328
#     4  10  18  38  53  71 107 146 193 238 274 338
#     4  11  21  33  48  76 114 140 176 232 278 332
#     4  11  22  32  52  81 107 145 193 227 282 347
#     4  11  21  34  55  74 106 149 188 225 284 329
#     4  10  22  37  54  75 105 144 188 241 274 320
#     4  10  21  37  51  74 108 140 186 232 275 321
#     4  10  21  34  54  78 102 145 194 230 276 350
#
# _framework density 17.337866000000002
#
# number of rings (size 3 to 8) (size 9 to 14) (size 15 to 20)
#    0.000    1.500    5.000    2.625    7.000    2.500 
#    0.000    0.000    0.000    0.000    0.000    0.000 
#    0.000    6.000    0.000    0.000    0.000    0.000 
#
# Total GULP energy -178289.657683 kJ/mol
# GULP energy per Si atom -5571.551803 kJ/mol
# Density = 1.729840 g / cm^3
# Si number density = 17.337866 Si / 1000 Ang^3
#
#
#
# Elastic Constant Matrix: (Units=GPa)
#
#
# Indices 1 2 3 4 5 6 
#
# 1 82.3296 6.4952 40.6307 0.0000 7.5221 0.0000
# 2 6.4952 41.8380 10.3276 0.0000 0.9454 0.0000
# 3 40.6307 10.3276 112.7850 0.0000 4.4687 0.0000
# 4 0.0000 0.0000 0.0000 18.1969 0.0000 9.6012
# 5 7.5221 0.9454 4.4687 0.0000 29.5507 0.0000
# 6 0.0000 0.0000 0.0000 9.6012 0.0000 21.4310
#
#
#
# Elastic Compliance Matrix: (Units=1/GPa)
#
#
# Indices 1 2 3 4 5 6 
#
# 1 0.015076 -0.000983 -0.005222 0.000000 -0.003017 0.000000
# 2 -0.000983 0.024524 -0.001881 0.000000 -0.000250 0.000000
# 3 -0.005222 -0.001881 0.010930 0.000000 -0.000264 0.000000
# 4 0.000000 0.000000 0.000000 0.071966 0.000000 -0.032241
# 5 -0.003017 -0.000250 -0.000264 0.000000 0.034656 0.000000
# 6 0.000000 0.000000 0.000000 -0.032241 0.000000 0.061106
#
#
# Mechanical properties :
#
#
# Convention : Reuss Voigt Hill
#
# Bulk Modulus (GPa) = 29.10539 39.09552 34.10046
# Shear Modulus (GPa) = 20.33473 25.80233 23.06853
#
# Velocity S-wave (km/s) = 3.42841 3.86191 3.65160
# Velocity P-wave (km/s) = 5.70049 6.51798 6.12289
#
# Compressibility (1/GPa) = 0.03435790
#
# Stress axis : x y z
#
# Youngs Moduli (GPa) = 66.32854 40.77563 91.48906
#
# Poissons Ratio (x) = 0.04010 0.47773
# Poissons Ratio (y) = 0.06523 0.17214
# Poissons Ratio (z) = 0.34635 0.07672
#
# Static dielectric constant tensor:
#      x y z
#    x 1.656380 0.000000 0.033310 
#    y 0.000000 1.587250 0.000000 
#    z 0.033310 0.000000 1.643530 
# 
# From -- ./inp_files/212163.got.cif
#   From: 2010.05.17/outbox.cif.g08.bks.cpg/sg15_107_cif.got.tgz:212163.got - 2010.06.03 18:47:42.
