data_PCOD9260243
_publ_section_title
;
Structure prediction by ZEFSAII (Michael W. Deem and Ramdas Pophale) SiO2 
 PCOD9260243
Probable space group: C 2/C
;
_chemical_formula_sum "Si O2"
_cell_formula_units_Z 60
_cell_length_a 11.294601
_cell_length_b 15.404024
_cell_length_c 14.372162
_cell_angle_alpha 90.000000
_cell_angle_beta 85.803590
_cell_angle_gamma 90.000000
_cell_volume 2493.798186
_symmetry_space_group_name_H-M "C 2/C"
_symmetry_group_IT_number 15
_symmetry_cell_setting 'monoclinic'
loop_
_space_group_symop_operation_xyz
x,y,z
-x,y,1/2-z
-x,-y,-z
x,-y,1/2+z
1/2+x,1/2+y,z
1/2-x,1/2+y,1/2-z
1/2-x,1/2-y,-z
1/2+x,1/2-y,1/2+z
loop_
_atom_site_type_symbol
_atom_site_label
_atom_site_fract_x
_atom_site_fract_y
_atom_site_fract_z
Si Si1 0.036704 0.325817 0.406912
Si Si2 0.243899 0.533064 0.192713
Si Si3 0.722879 0.151052 0.523449
Si Si4 0.786597 0.770313 0.706154
Si Si5 0.431441 0.756980 0.894363
Si Si6 0.857755 0.484648 0.014025
Si Si7 0.500000 0.091041 0.250000
Si Si8 0.877781 0.136325 0.676501
O O1 0.088268 0.272227 0.319547
O O2 0.035674 0.268200 0.501133
O O3 0.134788 0.400455 0.422303
O O4 0.899051 0.354232 0.407922
O O5 0.293972 0.627015 0.218684
O O6 0.205973 0.532953 0.083142
O O7 0.331162 0.455300 0.218229
O O8 0.114677 0.530979 0.248033
O O9 0.750000 0.250000 0.500000
O O10 0.837789 0.123091 0.572565
O O11 0.698122 0.075994 0.449589
O O12 0.707268 0.759512 0.617146
O O13 0.705064 0.716339 0.782940
O O14 0.482722 0.841765 0.836716
O O15 0.488898 0.672285 0.842502
O O16 0.000000 0.500000 0.000000
#
# Coordination Sequence:
#
# PCOD9260243 Si02
#       8
#     8   8   8   8   8   8   4   8
#     4  11  21  38  63  89 122 155 207 259 300 371
#     4  10  21  36  61  91 121 157 210 258 304 361
#     4  10  21  37  59  87 123 163 196 251 325 368
#     4  11  23  40  62  92 121 165 209 258 303 361
#     4  11  19  38  66  87 117 163 208 247 303 370
#     4   9  19  34  55  89 119 146 206 262 293 362
#     4  10  18  36  66  86 114 164 212 260 302 344
#     4  11  22  40  62  88 127 158 203 252 315 371
#
# _framework density 24.059685000000002
#
# number of rings (size 3 to 8) (size 9 to 14) (size 15 to 20)
#    0.000    1.600    6.667    0.400    0.000    3.733 
#    2.400    2.000    2.933    0.000    0.000    0.000 
#    0.000    0.000    0.000    0.000    0.000    0.000 
#
# Total GULP energy -167226.239265 kJ/mol
# GULP energy per Si atom -5574.207976 kJ/mol
# Density = 2.400492 g / cm^3
# Si number density = 24.059685 Si / 1000 Ang^3
#
#
#
# Elastic Constant Matrix: (Units=GPa)
#
#
# Indices 1 2 3 4 5 6 
#
# 1 55.9891 35.3077 12.3660 0.0000 -7.4858 0.0000
# 2 35.3077 198.3007 11.7143 0.0000 -20.7353 0.0000
# 3 12.3660 11.7143 43.7779 0.0000 1.8812 0.0000
# 4 0.0000 0.0000 0.0000 21.6103 0.0000 -6.9360
# 5 -7.4858 -20.7353 1.8812 0.0000 28.8871 0.0000
# 6 0.0000 0.0000 0.0000 -6.9360 0.0000 54.5609
#
#
#
# Elastic Compliance Matrix: (Units=1/GPa)
#
#
# Indices 1 2 3 4 5 6 
#
# 1 0.021518 -0.003127 -0.005400 0.000000 0.003683 0.000000
# 2 -0.003127 0.006025 -0.000882 0.000000 0.003572 0.000000
# 3 -0.005400 -0.000882 0.024761 0.000000 -0.003645 0.000000
# 4 0.000000 0.000000 0.000000 0.048243 0.000000 0.006133
# 5 0.003683 0.003572 -0.003645 0.000000 0.038373 0.000000
# 6 0.000000 0.000000 0.000000 0.006133 0.000000 0.019108
#
#
# Mechanical properties :
#
#
# Convention : Reuss Voigt Hill
#
# Bulk Modulus (GPa) = 29.86400 46.31595 38.08998
# Shear Modulus (GPa) = 26.59472 36.92365 31.75918
#
# Velocity S-wave (km/s) = 3.32831 3.92173 3.63714
# Velocity P-wave (km/s) = 5.21628 6.30864 5.78829
#
# Compressibility (1/GPa) = 0.03348513
#
# Stress axis : x y z
#
# Youngs Moduli (GPa) = 46.47348 165.96736 40.38680
#
# Poissons Ratio (x) = 0.51901 0.21807
# Poissons Ratio (y) = 0.14533 0.03564
# Poissons Ratio (z) = 0.25094 0.14646
#
# Static dielectric constant tensor:
#      x y z
#    x 1.920450 0.000000 0.048020 
#    y 0.000000 2.036430 0.000000 
#    z 0.048020 0.000000 2.046860 
# 
# From -- ./inp_files/197847.got.cif
#   From: 2010.05.17/outbox.cif.g08.bks.cpg/sg15_99_cif.got.tgz:197847.got - 2010.06.03 18:47:42.
