data_PCOD9260044
_publ_section_title
;
Structure prediction by ZEFSAII (Michael W. Deem and Ramdas Pophale) SiO2 
 PCOD9260044
Probable space group: C 2/C
;
_chemical_formula_sum "Si O2"
_cell_formula_units_Z 56
_cell_length_a 14.248036
_cell_length_b 12.467446
_cell_length_c 22.689258
_cell_angle_alpha 90.000000
_cell_angle_beta 34.640567
_cell_angle_gamma 90.000000
_cell_volume 2291.010280
_symmetry_space_group_name_H-M "C 2/C"
_symmetry_group_IT_number 15
_symmetry_cell_setting 'monoclinic'
loop_
_space_group_symop_operation_xyz
x,y,z
-x,y,1/2-z
-x,-y,-z
x,-y,1/2+z
1/2+x,1/2+y,z
1/2-x,1/2+y,1/2-z
1/2-x,1/2-y,-z
1/2+x,1/2-y,1/2+z
loop_
_atom_site_type_symbol
_atom_site_label
_atom_site_fract_x
_atom_site_fract_y
_atom_site_fract_z
Si Si1 0.837374 0.084426 0.400381
Si Si2 0.900721 0.724416 0.467993
Si Si3 0.559030 0.399070 0.893985
Si Si4 0.674594 0.378776 0.377213
Si Si5 0.000000 0.277288 0.250000
Si Si6 0.507652 0.010980 0.924744
Si Si7 0.000000 0.096715 0.750000
Si Si8 0.239431 0.694106 0.824484
O O1 0.648880 0.079774 0.516291
O O2 0.969405 0.061582 0.382123
O O3 0.889090 0.196357 0.345953
O O4 0.860422 0.986271 0.342982
O O5 0.750000 0.750000 0.500000
O O6 0.983952 0.608189 0.411883
O O7 0.823786 0.713278 0.574625
O O8 0.049851 0.809756 0.400516
O O9 0.658760 0.496106 0.870846
O O10 0.674796 0.297282 0.824117
O O11 0.411428 0.366084 0.014231
O O12 0.864070 0.343048 0.283958
O O13 0.664868 0.086338 0.834373
O O14 0.500000 0.000000 0.000000
O O15 0.931262 0.172708 0.735029
#
# Coordination Sequence:
#
# PCOD9260044 Si02
#       8
#     8   8   8   8   4   8   4   8
#     4  11  22  38  64  91 125 163 208 262 316 367
#     4  10  19  36  63  92 117 164 207 249 298 387
#     4  10  23  44  61  88 127 172 210 251 308 396
#     4  10  23  41  67  88 131 169 208 256 320 380
#     4  11  24  39  64  96 126 161 209 270 324 368
#     4  10  18  36  61  87 117 160 206 251 300 381
#     4  11  22  37  60  90 124 161 205 274 312 356
#     4  10  22  38  60  88 123 159 202 258 314 359
#
# _framework density 24.443363999999999
#
# number of rings (size 3 to 8) (size 9 to 14) (size 15 to 20)
#    0.000    1.714    2.857    3.429    2.000    4.000 
#    0.000    0.000    0.000    0.000    0.000    0.000 
#    0.000    0.000    0.000    0.000    0.000    0.000 
#
# Total GULP energy -156615.322225 kJ/mol
# GULP energy per Si atom -5593.404365 kJ/mol
# Density = 2.438773 g / cm^3
# Si number density = 24.443364 Si / 1000 Ang^3
#
#
#
# Elastic Constant Matrix: (Units=GPa)
#
#
# Indices 1 2 3 4 5 6 
#
# 1 89.2528 30.2667 27.2861 0.0000 -26.7685 0.0000
# 2 30.2667 122.5394 41.3470 0.0000 -38.4370 0.0000
# 3 27.2861 41.3470 80.6937 -0.0003 -32.0161 0.0000
# 4 0.0000 0.0000 -0.0003 21.9369 0.0000 -19.9711
# 5 -26.7685 -38.4370 -32.0161 0.0000 50.7079 0.0000
# 6 0.0000 0.0000 0.0000 -19.9711 0.0000 41.6673
#
#
#
# Elastic Compliance Matrix: (Units=1/GPa)
#
#
# Indices 1 2 3 4 5 6 
#
# 1 0.013740 -0.001093 -0.002051 0.000000 0.005130 0.000000
# 2 -0.001093 0.011376 -0.003025 0.000000 0.006137 0.000000
# 3 -0.002051 -0.003025 0.017741 0.000000 0.007826 0.000000
# 4 0.000000 0.000000 0.000000 0.080875 0.000000 0.038763
# 5 0.005130 0.006137 0.007826 0.000000 0.032022 0.000000
# 6 0.000000 0.000000 0.000000 0.038763 0.000000 0.042579
#
#
# Mechanical properties :
#
#
# Convention : Reuss Voigt Hill
#
# Bulk Modulus (GPa) = 32.76453 54.47615 43.62034
# Shear Modulus (GPa) = 22.64056 35.76818 29.20437
#
# Velocity S-wave (km/s) = 3.04673 3.82947 3.46030
# Velocity P-wave (km/s) = 5.08037 6.47211 5.81800
#
# Compressibility (1/GPa) = 0.03052081
#
# Stress axis : x y z
#
# Youngs Moduli (GPa) = 72.77857 87.90470 56.36690
#
# Poissons Ratio (x) = 0.09604 0.11560
# Poissons Ratio (y) = 0.07951 0.17050
# Poissons Ratio (z) = 0.14926 0.26590
#
# Static dielectric constant tensor:
#      x y z
#    x 1.976220 0.000000 0.077670 
#    y 0.000000 1.907810 0.000000 
#    z 0.077670 0.000000 2.057750 
# 
# From -- ./inp_files/313755.got.cif
#   From: 2010.05.17/outbox.cif.g08.bks.cpg/sg15_157_cif.got.tgz:313755.got - 2010.06.03 18:47:42.
