data_PCOD9260744
_publ_section_title
;
Structure prediction by ZEFSAII (Michael W. Deem and Ramdas Pophale) SiO2 
 PCOD9260744
Probable space group: C 2/C
;
_chemical_formula_sum "Si O2"
_cell_formula_units_Z 48
_cell_length_a 14.521013
_cell_length_b 27.201763
_cell_length_c 9.327607
_cell_angle_alpha 90.000000
_cell_angle_beta 42.280265
_cell_angle_gamma 90.000000
_cell_volume 2478.693871
_symmetry_space_group_name_H-M "C 2/C"
_symmetry_group_IT_number 15
_symmetry_cell_setting 'monoclinic'
loop_
_space_group_symop_operation_xyz
x,y,z
-x,y,1/2-z
-x,-y,-z
x,-y,1/2+z
1/2+x,1/2+y,z
1/2-x,1/2+y,1/2-z
1/2-x,1/2-y,-z
1/2+x,1/2-y,1/2+z
loop_
_atom_site_type_symbol
_atom_site_label
_atom_site_fract_x
_atom_site_fract_y
_atom_site_fract_z
Si Si1 0.727347 0.354172 0.729592
Si Si2 0.536642 0.291425 0.547192
Si Si3 0.618109 0.550233 0.005911
Si Si4 0.421644 0.559377 0.969654
Si Si5 0.797834 0.357015 0.324714
Si Si6 0.039719 0.308606 0.870918
O O1 0.582985 0.327838 0.865479
O O2 0.691652 0.409119 0.819284
O O3 0.806484 0.350190 0.486847
O O4 0.811357 0.329338 0.760334
O O5 0.500000 0.273034 0.750000
O O6 0.677319 0.321366 0.403654
O O7 0.539252 0.246174 0.436239
O O8 0.639421 0.492598 0.014787
O O9 0.744391 0.587195 0.864839
O O10 0.500000 0.569521 0.250000
O O11 0.545018 0.550257 0.937447
O O12 0.500000 0.586238 0.750000
O O13 0.932224 0.341744 0.084452
O O14 0.000000 0.309364 0.750000
#
# Coordination Sequence:
#
# PCOD9260744 Si02
#       6
#     8   8   8   8   8   8
#     4  11  22  41  63  89 119 161 202 237 295 355
#     4  10  21  41  67  88 110 155 209 246 286 355
#     4  10  18  38  62  95 119 152 198 243 292 353
#     4  10  21  33  63  96 125 148 191 250 299 344
#     4  11  21  41  65  87 118 159 204 242 286 360
#     4  12  28  40  55  87 127 158 195 250 306 351
#
# _framework density 19.365037000000001
#
# number of rings (size 3 to 8) (size 9 to 14) (size 15 to 20)
#    0.000    1.333    3.333    3.000    2.333    6.000 
#    0.000    0.833    0.000    0.000    0.000    0.000 
#    0.000    0.000    0.000    0.000    0.000    0.000 
#
# Total GULP energy -133981.507353 kJ/mol
# GULP energy per Si atom -5582.562806 kJ/mol
# Density = 1.932096 g / cm^3
# Si number density = 19.365037 Si / 1000 Ang^3
#
#
#
# Elastic Constant Matrix: (Units=GPa)
#
#
# Indices 1 2 3 4 5 6 
#
# 1 100.4802 17.0626 18.7146 0.0000 18.2570 0.0000
# 2 17.0626 88.4950 16.7674 0.0000 3.2614 0.0000
# 3 18.7146 16.7674 58.7104 0.0000 10.4731 0.0000
# 4 0.0000 0.0000 0.0000 18.0196 0.0000 4.9918
# 5 18.2570 3.2614 10.4731 0.0000 25.6625 0.0000
# 6 0.0000 0.0000 0.0000 4.9918 0.0000 37.3812
#
#
#
# Elastic Compliance Matrix: (Units=1/GPa)
#
#
# Indices 1 2 3 4 5 6 
#
# 1 0.011966 -0.001651 -0.002008 0.000000 -0.007484 0.000000
# 2 -0.001651 0.012175 -0.003111 0.000000 0.000897 0.000000
# 3 -0.002008 -0.003111 0.019668 0.000000 -0.006203 0.000000
# 4 0.000000 0.000000 0.000000 0.057627 0.000000 -0.007695
# 5 -0.007484 0.000897 -0.006203 0.000000 0.046709 0.000000
# 6 0.000000 0.000000 0.000000 -0.007695 0.000000 0.027779
#
#
# Mechanical properties :
#
#
# Convention : Reuss Voigt Hill
#
# Bulk Modulus (GPa) = 33.03646 39.19722 36.11684
# Shear Modulus (GPa) = 25.05602 29.22206 27.13904
#
# Velocity S-wave (km/s) = 3.60096 3.88881 3.74765
# Velocity P-wave (km/s) = 5.86396 6.35995 6.11699
#
# Compressibility (1/GPa) = 0.03026958
#
# Stress axis : x y z
#
# Youngs Moduli (GPa) = 83.56772 82.13721 50.84480
#
# Poissons Ratio (x) = 0.13561 0.10209
# Poissons Ratio (y) = 0.13797 0.15817
# Poissons Ratio (z) = 0.16779 0.25551
#
# Static dielectric constant tensor:
#      x y z
#    x 1.674370 0.000000 0.021510 
#    y 0.000000 1.713020 0.000000 
#    z 0.021510 0.000000 1.693190 
# 
# From -- ./inp_files/33418.got.cif
#   From: 2010.05.17/outbox.cif.g08.bks.cpg/sg15_17_cif.got.tgz:33418.got - 2010.06.03 18:47:42.
