data_PCOD9260968
_publ_section_title
;
Structure prediction by ZEFSAII (Michael W. Deem and Ramdas Pophale) SiO2 
 PCOD9260968
Probable space group: C 2/C
;
_chemical_formula_sum "Si O2"
_cell_formula_units_Z 52
_cell_length_a 11.328533
_cell_length_b 16.070387
_cell_length_c 27.310418
_cell_angle_alpha 90.000000
_cell_angle_beta 149.890407
_cell_angle_gamma 90.000000
_cell_volume 2494.215684
_symmetry_space_group_name_H-M "C 2/C"
_symmetry_group_IT_number 15
_symmetry_cell_setting 'monoclinic'
loop_
_space_group_symop_operation_xyz
x,y,z
-x,y,1/2-z
-x,-y,-z
x,-y,1/2+z
1/2+x,1/2+y,z
1/2-x,1/2+y,1/2-z
1/2-x,1/2-y,-z
1/2+x,1/2-y,1/2+z
loop_
_atom_site_type_symbol
_atom_site_label
_atom_site_fract_x
_atom_site_fract_y
_atom_site_fract_z
Si Si1 0.285500 0.718214 0.768860
Si Si2 0.960362 0.364629 0.969008
Si Si3 0.408840 0.831901 0.061467
Si Si4 0.232636 0.189090 0.066919
Si Si5 0.600827 0.422928 0.425726
Si Si6 0.979309 0.064817 0.036744
Si Si7 0.500000 0.685913 0.250000
O O1 0.500257 0.781402 0.838003
O O2 0.402704 0.633484 0.830111
O O3 0.153017 0.697057 0.671494
O O4 0.108341 0.757247 0.745356
O O5 0.716961 0.365630 0.851456
O O6 0.924163 0.372582 0.013831
O O7 0.069988 0.270920 0.002231
O O8 0.164864 0.425191 0.023088
O O9 0.250000 0.750000 0.000000
O O10 0.276764 0.893188 0.051573
O O11 0.159195 0.138472 0.088920
O O12 0.182408 0.129194 0.002976
O O13 0.498229 0.510982 0.406086
O O14 0.000000 0.000000 0.000000
#
# Coordination Sequence:
#
# PCOD9260968 Si02
#       7
#     8   8   8   8   8   8   4
#     4  11  22  36  67  97 129 175 227 261 330 390
#     4  11  21  38  67  92 131 171 225 270 321 388
#     4  12  24  41  62  99 134 175 215 279 331 382
#     4  10  18  39  63  98 124 166 223 278 314 384
#     4  10  21  40  63  96 129 176 214 270 328 393
#     4  10  23  43  66  92 137 170 212 275 338 382
#     4  12  18  34  66  94 128 174 226 264 310 408
#
# _framework density 20.848237000000001
#
# number of rings (size 3 to 8) (size 9 to 14) (size 15 to 20)
#    0.000    1.231    6.154    0.923    2.154    3.077 
#    0.000    6.154    0.000    0.000    0.000    0.000 
#    0.000    0.000    0.000    0.000    0.000    0.000 
#
# Total GULP energy -145285.530907 kJ/mol
# GULP energy per Si atom -5587.905035 kJ/mol
# Density = 2.080079 g / cm^3
# Si number density = 20.848237 Si / 1000 Ang^3
#
#
#
# Elastic Constant Matrix: (Units=GPa)
#
#
# Indices 1 2 3 4 5 6 
#
# 1 115.1861 23.9322 22.4164 0.0014 3.8793 0.0010
# 2 23.9322 51.8500 13.6711 0.0009 -1.3142 0.0008
# 3 22.4164 13.6711 110.4582 0.0025 -5.6452 0.0025
# 4 0.0014 0.0009 0.0025 2.4243 0.0013 -8.5283
# 5 3.8793 -1.3142 -5.6452 0.0013 26.0207 0.0009
# 6 0.0010 0.0008 0.0025 -8.5283 0.0009 44.2343
#
#
#
# Elastic Compliance Matrix: (Units=1/GPa)
#
#
# Indices 1 2 3 4 5 6 
#
# 1 0.009938 -0.004217 -0.001599 -0.000004 -0.002042 -0.000001
# 2 -0.004217 0.021732 -0.001765 -0.000017 0.001343 -0.000004
# 3 -0.001599 -0.001765 0.009712 -0.000036 0.002256 -0.000007
# 4 -0.000004 -0.000017 -0.000036 1.281907 -0.000081 0.247149
# 5 -0.002042 0.001343 0.002256 -0.000081 0.039293 -0.000016
# 6 -0.000001 -0.000004 -0.000007 0.247149 -0.000016 0.070257
#
#
# Mechanical properties :
#
#
# Convention : Reuss Voigt Hill
#
# Bulk Modulus (GPa) = 38.14082 44.17042 41.15562
# Shear Modulus (GPa) = 3.43232 29.03417 16.23325
#
# Velocity S-wave (km/s) = 1.28449 3.73586 2.79344
# Velocity P-wave (km/s) = 4.53146 6.31202 5.49434
#
# Compressibility (1/GPa) = 0.02621863
#
# Stress axis : x y z
#
# Youngs Moduli (GPa) = 100.62645 46.01436 102.97037
#
# Poissons Ratio (x) = 0.19404 0.16467
# Poissons Ratio (y) = 0.42434 0.18177
# Poissons Ratio (z) = 0.16092 0.08123
#
# Static dielectric constant tensor:
#      x y z
#    x 1.818510 0.000000 -0.033680 
#    y 0.000000 1.767120 0.000000 
#    z -0.033680 0.000000 1.736380 
# 
# From -- ./inp_files/293481.got.cif
#   From: 2010.05.17/outbox.cif.g08.bks.cpg/sg15_147_cif.got.tgz:293481.got - 2010.06.03 18:47:42.
