data_PCOD9260888
_publ_section_title
;
Structure prediction by ZEFSAII (Michael W. Deem and Ramdas Pophale) SiO2 
 PCOD9260888
Probable space group: C 2/C
;
_chemical_formula_sum "Si O2"
_cell_formula_units_Z 52
_cell_length_a 8.869550
_cell_length_b 29.455377
_cell_length_c 12.400010
_cell_angle_alpha 90.000000
_cell_angle_beta 56.385352
_cell_angle_gamma 90.000000
_cell_volume 2697.853459
_symmetry_space_group_name_H-M "C 2/C"
_symmetry_group_IT_number 15
_symmetry_cell_setting 'monoclinic'
loop_
_space_group_symop_operation_xyz
x,y,z
-x,y,1/2-z
-x,-y,-z
x,-y,1/2+z
1/2+x,1/2+y,z
1/2-x,1/2+y,1/2-z
1/2-x,1/2-y,-z
1/2+x,1/2-y,1/2+z
loop_
_atom_site_type_symbol
_atom_site_label
_atom_site_fract_x
_atom_site_fract_y
_atom_site_fract_z
Si Si1 0.528251 0.065802 0.975941
Si Si2 0.000000 0.349746 0.750000
Si Si3 0.897237 0.342969 0.182948
Si Si4 0.504481 0.622556 0.868417
Si Si5 0.211851 0.988485 0.699604
Si Si6 0.193031 0.700169 0.988282
Si Si7 0.755357 0.927319 0.608773
O O1 0.526850 0.114425 0.917784
O O2 0.665444 0.033730 0.854695
O O3 0.329382 0.044486 0.072874
O O4 0.622432 0.066373 0.057950
O O5 0.046222 0.319241 0.629525
O O6 0.169769 0.383314 0.701396
O O7 0.701151 0.357902 0.302499
O O8 0.877447 0.302532 0.105532
O O9 0.000000 0.331526 0.250000
O O10 0.500000 0.602108 0.750000
O O11 0.358620 0.663721 0.926725
O O12 0.444286 0.586511 0.980397
O O13 0.226900 0.967310 0.813373
O O14 0.000000 0.992366 0.750000
O O15 0.250000 0.750000 0.000000
#
# Coordination Sequence:
#
# PCOD9260888 Si02
#       7
#     8   4   8   8   8   8   8
#     4  11  23  43  59  86 126 169 210 260 325 377
#     4  10  18  38  68  84 118 166 208 254 298 380
#     4  11  23  40  64  92 129 162 206 263 321 372
#     4   9  19  37  62  90 113 163 202 246 310 383
#     4  11  26  37  60  93 122 160 220 274 312 369
#     4  10  21  37  68  96 121 163 210 253 309 390
#     4  11  19  41  62  80 124 166 211 251 317 377
#
# _framework density 19.274583
#
# number of rings (size 3 to 8) (size 9 to 14) (size 15 to 20)
#    0.000    1.538    6.154    0.000    7.538    3.077 
#    0.000    0.769    0.000    0.000    0.000    0.000 
#    0.000    0.000    0.000    0.000    0.000    0.000 
#
# Total GULP energy -145077.979092 kJ/mol
# GULP energy per Si atom -5579.922273 kJ/mol
# Density = 1.923071 g / cm^3
# Si number density = 19.274583 Si / 1000 Ang^3
#
#
#
# Elastic Constant Matrix: (Units=GPa)
#
#
# Indices 1 2 3 4 5 6 
#
# 1 84.3870 19.1471 47.5669 0.0000 7.7731 0.0000
# 2 19.1471 94.8612 50.6621 0.0000 18.8732 0.0000
# 3 47.5669 50.6621 131.8973 0.0000 -2.9082 0.0000
# 4 0.0000 0.0000 0.0000 10.7611 0.0000 9.1666
# 5 7.7731 18.8732 -2.9082 0.0000 35.0104 0.0000
# 6 0.0000 0.0000 0.0000 9.1666 0.0000 11.2944
#
#
#
# Elastic Compliance Matrix: (Units=1/GPa)
#
#
# Indices 1 2 3 4 5 6 
#
# 1 0.015448 0.001007 -0.006057 0.000000 -0.004476 0.000000
# 2 0.001007 0.015699 -0.006597 0.000000 -0.009234 0.000000
# 3 -0.006057 -0.006597 0.012430 0.000000 0.005933 0.000000
# 4 0.000000 0.000000 0.000000 0.301076 0.000000 -0.244356
# 5 -0.004476 -0.009234 0.005933 0.000000 0.035027 0.000000
# 6 0.000000 0.000000 0.000000 -0.244356 0.000000 0.286860
#
#
# Mechanical properties :
#
#
# Convention : Reuss Voigt Hill
#
# Bulk Modulus (GPa) = 49.29837 60.65531 54.97684
# Shear Modulus (GPa) = 7.17777 24.33113 15.75445
#
# Velocity S-wave (km/s) = 1.93185 3.55680 2.86207
# Velocity P-wave (km/s) = 5.53249 6.95738 6.28544
#
# Compressibility (1/GPa) = 0.02028465
#
# Stress axis : x y z
#
# Youngs Moduli (GPa) = 64.73393 63.69937 80.44750
#
# Poissons Ratio (x) = -0.06414 0.48723
# Poissons Ratio (y) = -0.06519 0.53069
# Poissons Ratio (z) = 0.39206 0.42020
#
# Static dielectric constant tensor:
#      x y z
#    x 1.698470 0.000000 -0.011490 
#    y 0.000000 1.694770 0.000000 
#    z -0.011490 0.000000 1.712090 
# 
# From -- ./inp_files/82090.got.cif
#   From: 2010.05.17/outbox.cif.g08.bks.cpg/sg15_42_cif.got.tgz:82090.got - 2010.06.03 18:47:42.
