data_PCOD9260822
_publ_section_title
;
Structure prediction by ZEFSAII (Michael W. Deem and Ramdas Pophale) SiO2 
 PCOD9260822
Probable space group: C 2/C
;
_chemical_formula_sum "Si O2"
_cell_formula_units_Z 52
_cell_length_a 8.499178
_cell_length_b 19.149389
_cell_length_c 19.059806
_cell_angle_alpha 90.000000
_cell_angle_beta 53.229472
_cell_angle_gamma 90.000000
_cell_volume 2484.872994
_symmetry_space_group_name_H-M "C 2/C"
_symmetry_group_IT_number 15
_symmetry_cell_setting 'monoclinic'
loop_
_space_group_symop_operation_xyz
x,y,z
-x,y,1/2-z
-x,-y,-z
x,-y,1/2+z
1/2+x,1/2+y,z
1/2-x,1/2+y,1/2-z
1/2-x,1/2-y,-z
1/2+x,1/2-y,1/2+z
loop_
_atom_site_type_symbol
_atom_site_label
_atom_site_fract_x
_atom_site_fract_y
_atom_site_fract_z
Si Si1 0.243801 0.946816 0.512044
Si Si2 0.833157 0.531732 0.674671
Si Si3 0.349642 0.664969 0.575347
Si Si4 0.554695 0.794550 0.534375
Si Si5 0.152472 0.093853 0.592368
Si Si6 0.722688 0.380545 0.672992
Si Si7 0.000000 0.622857 0.750000
O O1 0.460466 0.964561 0.423457
O O2 0.141882 0.896272 0.483460
O O3 0.236770 0.906737 0.588246
O O4 0.146021 0.021680 0.551094
O O5 0.677766 0.569741 0.665446
O O6 0.771291 0.451595 0.702404
O O7 0.867169 0.572313 0.737529
O O8 0.427029 0.738354 0.525600
O O9 0.480890 0.642300 0.607624
O O10 0.129591 0.668214 0.662865
O O11 0.750000 0.750000 0.500000
O O12 0.648628 0.862810 0.475418
O O13 0.396859 0.823356 0.633571
O O14 0.500000 0.357937 0.750000
#
# Coordination Sequence:
#
# PCOD9260822 Si02
#       7
#     8   8   8   8   8   8   4
#     4  10  19  39  62  89 118 160 205 255 315 374
#     4  10  20  39  63  87 120 161 203 255 318 374
#     4  10  23  36  59  90 123 161 206 253 311 382
#     4  10  21  40  61  88 121 173 210 254 311 396
#     4  10  18  38  65  84 113 162 217 245 308 383
#     4  11  22  37  64  93 122 157 209 270 315 365
#     4  10  24  38  54  94 128 152 200 270 312 374
#
# _framework density 20.926621999999998
#
# number of rings (size 3 to 8) (size 9 to 14) (size 15 to 20)
#    0.000    1.846    3.077    1.385    5.385    0.615 
#    0.000    0.000    0.000    7.385    0.000    0.000 
#    0.000    0.000    0.000    0.000    0.000    0.000 
#
# Total GULP energy -144883.101777 kJ/mol
# GULP energy per Si atom -5572.426991 kJ/mol
# Density = 2.087899 g / cm^3
# Si number density = 20.926622 Si / 1000 Ang^3
#
#
#
# Elastic Constant Matrix: (Units=GPa)
#
#
# Indices 1 2 3 4 5 6 
#
# 1 41.7530 23.5233 15.2074 0.0000 -7.3933 0.0000
# 2 23.5233 90.3934 22.1632 0.0000 -12.1085 0.0000
# 3 15.2074 22.1632 79.4831 0.0000 -24.4121 0.0000
# 4 0.0000 0.0000 0.0000 1.5258 0.0000 -34.8466
# 5 -7.3933 -12.1085 -24.4121 0.0000 32.2764 0.0000
# 6 0.0000 0.0000 0.0000 -34.8466 0.0000 -2.9647
#
#
#
# Elastic Compliance Matrix: (Units=1/GPa)
#
#
# Indices 1 2 3 4 5 6 
#
# 1 0.029125 -0.006556 -0.003192 0.000000 0.001797 0.000000
# 2 -0.006556 0.013512 -0.001847 0.000000 0.002171 0.000000
# 3 -0.003192 -0.001847 0.017285 0.000000 0.011649 0.000000
# 4 0.000000 0.000000 0.000000 0.002432 0.000000 -0.028591
# 5 0.001797 0.002171 0.011649 0.000000 0.041019 0.000000
# 6 0.000000 0.000000 0.000000 -0.028591 0.000000 -0.001252
#
#
# Mechanical properties :
#
#
# Convention : Reuss Voigt Hill
#
# Bulk Modulus (GPa) = 27.22395 37.04637 32.13516
# Shear Modulus (GPa) = 36.34889 16.21656 26.28272
#
# Velocity S-wave (km/s) = 4.17222 2.78677 3.54778
# Velocity P-wave (km/s) = 6.02058 5.30058 5.67202
#
# Compressibility (1/GPa) = 0.03673236
#
# Stress axis : x y z
#
# Youngs Moduli (GPa) = 34.33500 74.00636 57.85384
#
# Poissons Ratio (x) = 0.48517 0.18469
# Poissons Ratio (y) = 0.22509 0.10685
# Poissons Ratio (z) = 0.10961 0.13668
#
# Static dielectric constant tensor:
#      x y z
#    x 1.785020 0.000000 -0.041640 
#    y 0.000000 1.777370 0.000000 
#    z -0.041640 0.000000 1.777920 
# 
# From -- ./inp_files/190498.got.cif
#   From: 2010.05.17/outbox.cif.g08.bks.cpg/sg15_96_cif.got.tgz:190498.got - 2010.06.03 18:47:42.
