data_PCOD9260566
_publ_section_title
;
Structure prediction by ZEFSAII (Michael W. Deem and Ramdas Pophale) SiO2 
 PCOD9260566
Probable space group: C 2/C
;
_chemical_formula_sum "Si O2"
_cell_formula_units_Z 60
_cell_length_a 21.790715
_cell_length_b 9.898334
_cell_length_c 17.970380
_cell_angle_alpha 90.000000
_cell_angle_beta 125.432503
_cell_angle_gamma 90.000000
_cell_volume 3158.212573
_symmetry_space_group_name_H-M "C 2/C"
_symmetry_group_IT_number 15
_symmetry_cell_setting 'monoclinic'
loop_
_space_group_symop_operation_xyz
x,y,z
-x,y,1/2-z
-x,-y,-z
x,-y,1/2+z
1/2+x,1/2+y,z
1/2-x,1/2+y,1/2-z
1/2-x,1/2-y,-z
1/2+x,1/2-y,1/2+z
loop_
_atom_site_type_symbol
_atom_site_label
_atom_site_fract_x
_atom_site_fract_y
_atom_site_fract_z
Si Si1 0.239554 0.429611 0.656067
Si Si2 0.843656 0.073791 0.084116
Si Si3 0.500000 0.591080 0.250000
Si Si4 0.706446 0.777757 0.186712
Si Si5 0.417382 0.048655 0.200281
Si Si6 0.391255 0.145893 0.541783
Si Si7 0.747749 0.854523 0.930862
Si Si8 0.445599 0.193074 0.833740
O O1 0.301399 0.420641 0.633770
O O2 0.249315 0.309374 0.721157
O O3 0.240091 0.573070 0.698018
O O4 0.161427 0.413489 0.557976
O O5 0.928825 0.018989 0.160435
O O6 0.855618 0.220825 0.055224
O O7 0.790393 0.986661 0.992265
O O8 0.539078 0.689414 0.216407
O O9 0.709688 0.703831 0.110120
O O10 0.622005 0.782150 0.158377
O O11 0.500000 0.117343 0.250000
O O12 0.339710 0.128472 0.154178
O O13 0.403313 0.961613 0.115867
O O14 0.425998 0.940966 0.272891
O O15 0.474154 0.178487 0.570231
O O16 0.750000 0.750000 0.000000
#
# Coordination Sequence:
#
# PCOD9260566 Si02
#       8
#     8   8   4   8   8   8   8   8
#     4  12  24  41  64  96 131 167 215 270 329 383
#     4  11  21  39  70  91 126 170 217 259 320 400
#     4  10  18  40  66 100 124 162 218 270 322 394
#     4  12  26  41  63  95 134 169 209 276 323 390
#     4  10  18  37  68  96 122 160 222 273 317 380
#     4  10  20  37  68  97 119 168 222 260 318 397
#     4  12  25  43  59  93 135 177 217 261 327 392
#     4  10  19  38  64  97 125 164 217 275 319 378
#
# _framework density 18.998087000000002
#
# number of rings (size 3 to 8) (size 9 to 14) (size 15 to 20)
#    0.000    1.067    7.333    1.200    3.733    0.533 
#    1.200    5.333    0.000    0.000    0.000    0.000 
#    0.000    0.000    0.000    0.000    0.000    0.000 
#
# Total GULP energy -167456.135775 kJ/mol
# GULP energy per Si atom -5581.871192 kJ/mol
# Density = 1.895485 g / cm^3
# Si number density = 18.998087 Si / 1000 Ang^3
#
#
#
# Elastic Constant Matrix: (Units=GPa)
#
#
# Indices 1 2 3 4 5 6 
#
# 1 120.0067 23.8954 52.7183 0.0000 -2.0380 0.0000
# 2 23.8954 59.4790 40.6547 0.0000 -3.2788 0.0000
# 3 52.7183 40.6547 92.2068 0.0000 9.7536 0.0000
# 4 0.0000 0.0000 0.0000 -1.4165 0.0000 -23.7770
# 5 -2.0380 -3.2788 9.7536 0.0000 33.0951 0.0000
# 6 0.0000 0.0000 0.0000 -23.7770 0.0000 -11.1422
#
#
#
# Elastic Compliance Matrix: (Units=1/GPa)
#
#
# Indices 1 2 3 4 5 6 
#
# 1 0.011361 0.000328 -0.006934 0.000000 0.002775 0.000000
# 2 0.000328 0.025159 -0.011918 0.000000 0.006025 0.000000
# 3 -0.006934 -0.011918 0.020885 0.000000 -0.007763 0.000000
# 4 0.000000 0.000000 0.000000 0.020275 0.000000 -0.043265
# 5 0.002775 0.006025 -0.007763 0.000000 0.033272 0.000000
# 6 0.000000 0.000000 0.000000 -0.043265 0.000000 0.002577
#
#
# Mechanical properties :
#
#
# Convention : Reuss Voigt Hill
#
# Bulk Modulus (GPa) = 49.11993 56.24771 52.68382
# Shear Modulus (GPa) = 31.77420 14.40223 23.08822
#
# Velocity S-wave (km/s) = 4.09405 2.75633 3.48989
# Velocity P-wave (km/s) = 6.94692 6.30881 6.63554
#
# Compressibility (1/GPa) = 0.02035833
#
# Stress axis : x y z
#
# Youngs Moduli (GPa) = 88.02411 39.74748 47.88107
#
# Poissons Ratio (x) = -0.01304 0.33198
# Poissons Ratio (y) = -0.02888 0.57063
# Poissons Ratio (z) = 0.61032 0.47370
#
# Static dielectric constant tensor:
#      x y z
#    x 1.677610 0.000000 0.041020 
#    y 0.000000 1.676250 0.000000 
#    z 0.041020 0.000000 1.663350 
# 
# From -- ./inp_files/214308.got.cif
#   From: 2010.05.17/outbox.cif.g08.bks.cpg/sg15_108_cif.got.tgz:214308.got - 2010.06.03 18:47:42.
