data_PCOD9260279
_publ_section_title
;
Structure prediction by ZEFSAII (Michael W. Deem and Ramdas Pophale) SiO2 
 PCOD9260279
Probable space group: C 2/C
;
_chemical_formula_sum "Si O2"
_cell_formula_units_Z 48
_cell_length_a 19.547524
_cell_length_b 8.317095
_cell_length_c 17.886821
_cell_angle_alpha 90.000000
_cell_angle_beta 130.263696
_cell_angle_gamma 90.000000
_cell_volume 2219.041937
_symmetry_space_group_name_H-M "C 2/C"
_symmetry_group_IT_number 15
_symmetry_cell_setting 'monoclinic'
loop_
_space_group_symop_operation_xyz
x,y,z
-x,y,1/2-z
-x,-y,-z
x,-y,1/2+z
1/2+x,1/2+y,z
1/2-x,1/2+y,1/2-z
1/2-x,1/2-y,-z
1/2+x,1/2-y,1/2+z
loop_
_atom_site_type_symbol
_atom_site_label
_atom_site_fract_x
_atom_site_fract_y
_atom_site_fract_z
Si Si1 0.712974 0.197322 0.592743
Si Si2 0.816873 0.460079 0.579145
Si Si3 0.500000 0.500000 0.500000
Si Si4 0.959497 0.656322 0.930457
Si Si5 0.000000 0.274172 0.750000
Si Si6 0.887905 0.064289 0.780126
Si Si7 0.407550 0.215421 0.730821
O O1 0.740219 0.358216 0.567310
O O2 0.702170 0.060166 0.521713
O O3 0.622789 0.210948 0.574910
O O4 0.795066 0.156195 0.704577
O O5 0.832335 0.631129 0.627306
O O6 0.913252 0.373648 0.662744
O O7 0.482380 0.319038 0.529642
O O8 0.580547 0.536657 0.614560
O O9 0.926721 0.621747 0.822689
O O10 0.000000 0.500000 0.000000
O O11 0.034266 0.164729 0.706345
O O12 0.880197 0.893973 0.733809
O O13 0.500000 0.220069 0.750000
#
# Coordination Sequence:
#
# PCOD9260279 Si02
#       7
#     8   8   4   8   4   8   8
#     4  10  23  42  62 100 127 169 223 268 332 391
#     4  10  21  38  67  93 127 169 217 269 323 397
#     4  10  24  44  64  94 128 174 214 266 328 392
#     4  11  25  44  68  95 132 175 222 271 334 397
#     4  10  18  36  68  84 124 176 206 264 320 394
#     4  10  22  40  64  93 131 169 216 270 325 395
#     4  11  22  39  63  97 126 170 220 265 324 395
#
# _framework density 21.630956000000001
#
# number of rings (size 3 to 8) (size 9 to 14) (size 15 to 20)
#    0.000    1.667    1.667    2.000    4.667    3.333 
#    3.000    0.000    0.000    0.000    0.000    0.000 
#    0.000    0.000    0.000    0.000    0.000    0.000 
#
# Total GULP energy -133610.927265 kJ/mol
# GULP energy per Si atom -5567.121969 kJ/mol
# Density = 2.158172 g / cm^3
# Si number density = 21.630956 Si / 1000 Ang^3
#
#
#
# Elastic Constant Matrix: (Units=GPa)
#
#
# Indices 1 2 3 4 5 6 
#
# 1 56.3767 -26.4707 3.3878 0.0000 0.6612 0.0000
# 2 -26.4707 23.8157 -5.7951 0.0000 -2.0158 0.0000
# 3 3.3878 -5.7951 83.1761 0.0000 -16.3922 0.0000
# 4 0.0000 0.0000 0.0000 37.8559 0.0000 -10.8755
# 5 0.6612 -2.0158 -16.3922 0.0000 17.2159 0.0000
# 6 0.0000 0.0000 0.0000 -10.8755 0.0000 5.8865
#
#
#
# Elastic Compliance Matrix: (Units=1/GPa)
#
#
# Indices 1 2 3 4 5 6 
#
# 1 0.037763 0.043146 0.002681 0.000000 0.006154 0.000000
# 2 0.043146 0.093352 0.008093 0.000000 0.016979 0.000000
# 3 0.002681 0.008093 0.015564 0.000000 0.015664 0.000000
# 4 0.000000 0.000000 0.000000 0.056296 0.000000 0.104008
# 5 0.006154 0.016979 0.015664 0.000000 0.074752 0.000000
# 6 0.000000 0.000000 0.000000 0.104008 0.000000 0.362036
#
#
# Mechanical properties :
#
#
# Convention : Reuss Voigt Hill
#
# Bulk Modulus (GPa) = 3.92897 11.73472 7.83184
# Shear Modulus (GPa) = 8.10684 25.00810 16.55747
#
# Velocity S-wave (km/s) = 1.93802 3.40387 2.76968
# Velocity P-wave (km/s) = 2.61309 4.57003 3.72246
#
# Compressibility (1/GPa) = 0.25451983
#
# Stress axis : x y z
#
# Youngs Moduli (GPa) = 26.48080 10.71216 64.24900
#
# Poissons Ratio (x) = -0.46219 -0.17224
# Poissons Ratio (y) = -1.14255 -0.51996
# Poissons Ratio (z) = -0.07099 -0.08669
#
# Static dielectric constant tensor:
#      x y z
#    x 1.796150 0.000000 -0.008870 
#    y 0.000000 1.904900 0.000000 
#    z -0.008870 0.000000 1.760650 
# 
# From -- ./inp_files/214108.got.cif
#   From: 2010.05.17/outbox.cif.g08.bks.cpg/sg15_108_cif.got.tgz:214108.got - 2010.06.03 18:47:42.
