data_PCOD9260283
_publ_section_title
;
Structure prediction by ZEFSAII (Michael W. Deem and Ramdas Pophale) SiO2 
 PCOD9260283
Probable space group: C 2/C
;
_chemical_formula_sum "Si O2"
_cell_formula_units_Z 48
_cell_length_a 8.675990
_cell_length_b 28.273976
_cell_length_c 8.579916
_cell_angle_alpha 90.000000
_cell_angle_beta 95.978093
_cell_angle_gamma 90.000000
_cell_volume 2093.248234
_symmetry_space_group_name_H-M "C 2/C"
_symmetry_group_IT_number 15
_symmetry_cell_setting 'monoclinic'
loop_
_space_group_symop_operation_xyz
x,y,z
-x,y,1/2-z
-x,-y,-z
x,-y,1/2+z
1/2+x,1/2+y,z
1/2-x,1/2+y,1/2-z
1/2-x,1/2-y,-z
1/2+x,1/2-y,1/2+z
loop_
_atom_site_type_symbol
_atom_site_label
_atom_site_fract_x
_atom_site_fract_y
_atom_site_fract_z
Si Si1 0.760037 0.488083 0.424950
Si Si2 0.316247 0.165208 0.257192
Si Si3 0.000000 0.433540 0.250000
Si Si4 0.316494 0.760800 0.185941
Si Si5 0.260955 0.362451 0.394717
Si Si6 0.500000 0.577908 0.750000
Si Si7 0.686291 0.064745 0.273177
O O1 0.623942 0.456548 0.341197
O O2 0.751568 0.543200 0.381756
O O3 0.762881 0.476529 0.605846
O O4 0.917754 0.466052 0.369960
O O5 0.500000 0.169289 0.250000
O O6 0.245806 0.216570 0.219865
O O7 0.271983 0.151789 0.430405
O O8 0.261200 0.116802 0.167266
O O9 0.127146 0.398586 0.332449
O O10 0.500000 0.762316 0.250000
O O11 0.254356 0.813745 0.205771
O O12 0.250000 0.750000 0.000000
O O13 0.419455 0.388332 0.368747
O O14 0.500000 0.067559 0.250000
#
# Coordination Sequence:
#
# PCOD9260283 Si02
#       7
#     8   8   4   8   8   4   8
#     4  11  24  40  64  97 131 180 225 283 335 404
#     4  10  23  41  67  96 138 177 229 278 341 405
#     4  10  18  36  68  88 130 172 232 278 326 402
#     4  10  22  43  68 102 135 180 225 280 348 409
#     4  10  21  42  67  97 133 173 224 278 337 407
#     4  10  26  42  64  98 136 174 226 272 358 392
#     4  11  23  40  66  97 131 176 232 277 338 400
#
# _framework density 22.930866999999999
#
# number of rings (size 3 to 8) (size 9 to 14) (size 15 to 20)
#    0.000    1.667    1.667    2.500    5.833    3.333 
#    1.500    3.333    0.000    0.000    0.000    0.000 
#    0.000    0.000    0.000    0.000    0.000    0.000 
#
# Total GULP energy -134000.078310 kJ/mol
# GULP energy per Si atom -5583.336596 kJ/mol
# Density = 2.287868 g / cm^3
# Si number density = 22.930867 Si / 1000 Ang^3
#
#
#
# Elastic Constant Matrix: (Units=GPa)
#
#
# Indices 1 2 3 4 5 6 
#
# 1 97.0983 56.3552 22.4731 0.0000 -8.6936 0.0000
# 2 56.3552 173.5698 10.7223 0.0000 -1.9071 0.0000
# 3 22.4731 10.7223 49.3160 0.0000 -0.7171 0.0000
# 4 0.0000 0.0000 0.0000 20.3051 0.0000 -4.4712
# 5 -8.6936 -1.9071 -0.7171 0.0000 29.2526 0.0000
# 6 0.0000 0.0000 0.0000 -4.4712 0.0000 27.0893
#
#
#
# Elastic Compliance Matrix: (Units=1/GPa)
#
#
# Indices 1 2 3 4 5 6 
#
# 1 0.014433 -0.004299 -0.005586 0.000000 0.003872 0.000000
# 2 -0.004299 0.007124 0.000398 0.000000 -0.000803 0.000000
# 3 -0.005586 0.000398 0.022721 0.000000 -0.001077 0.000000
# 4 0.000000 0.000000 0.000000 0.051106 0.000000 0.008435
# 5 0.003872 -0.000803 -0.001077 0.000000 0.035257 0.000000
# 6 0.000000 0.000000 0.000000 0.008435 0.000000 0.038307
#
#
# Mechanical properties :
#
#
# Convention : Reuss Voigt Hill
#
# Bulk Modulus (GPa) = 39.51847 55.45389 47.48618
# Shear Modulus (GPa) = 25.46391 30.69162 28.07776
#
# Velocity S-wave (km/s) = 3.33598 3.66244 3.50301
# Velocity P-wave (km/s) = 5.66652 6.49001 6.09220
#
# Compressibility (1/GPa) = 0.02530463
#
# Stress axis : x y z
#
# Youngs Moduli (GPa) = 69.28386 140.37789 44.01262
#
# Poissons Ratio (x) = 0.60343 0.24587
# Poissons Ratio (y) = 0.29783 -0.01753
# Poissons Ratio (z) = 0.38704 -0.05592
#
# Static dielectric constant tensor:
#      x y z
#    x 1.679410 0.000000 0.531110 
#    y 0.000000 1.886880 0.000000 
#    z 0.531110 0.000000 0.177050 
# 
# From -- ./inp_files/26177.got.cif
#   From: 2010.05.17/outbox.cif.g08.bks.cpg/sg15_14_cif.got.tgz:26177.got - 2010.06.03 18:47:42.
