data_PCOD9260211
_publ_section_title
;
Structure prediction by ZEFSAII (Michael W. Deem and Ramdas Pophale) SiO2 
 PCOD9260211
Probable space group: C 2/C
;
_chemical_formula_sum "Si O2"
_cell_formula_units_Z 44
_cell_length_a 8.020963
_cell_length_b 12.746282
_cell_length_c 18.928774
_cell_angle_alpha 90.000000
_cell_angle_beta 106.559442
_cell_angle_gamma 90.000000
_cell_volume 1854.965211
_symmetry_space_group_name_H-M "C 2/C"
_symmetry_group_IT_number 15
_symmetry_cell_setting 'monoclinic'
loop_
_space_group_symop_operation_xyz
x,y,z
-x,y,1/2-z
-x,-y,-z
x,-y,1/2+z
1/2+x,1/2+y,z
1/2-x,1/2+y,1/2-z
1/2-x,1/2-y,-z
1/2+x,1/2-y,1/2+z
loop_
_atom_site_type_symbol
_atom_site_label
_atom_site_fract_x
_atom_site_fract_y
_atom_site_fract_z
Si Si1 0.940574 0.139967 0.565529
Si Si2 0.306070 0.858591 0.743950
Si Si3 0.683382 0.614513 0.795942
Si Si4 0.938712 0.901593 0.916305
Si Si5 0.781987 0.220516 0.126946
Si Si6 0.000000 0.378377 0.250000
O O1 0.094135 0.226231 0.591020
O O2 0.819940 0.132209 0.620338
O O3 0.854013 0.144924 0.477631
O O4 0.031803 0.025631 0.574037
O O5 0.500000 0.890669 0.750000
O O6 0.314114 0.730797 0.737181
O O7 0.176240 0.888706 0.666642
O O8 0.242257 0.868868 0.816348
O O9 0.500000 0.566059 0.750000
O O10 0.845180 0.564750 0.774157
O O11 0.117660 0.836707 0.924712
O O12 0.910225 0.307448 0.177454
#
# Coordination Sequence:
#
# PCOD9260211 Si02
#       6
#     8   8   8   8   8   4
#     4  11  24  41  64  96 136 181 219 278 355 416
#     4  10  19  40  63  92 125 164 226 275 333 403
#     4  10  18  37  66  89 126 165 218 276 329 403
#     4  11  24  41  63  97 137 177 221 278 352 418
#     4  11  19  42  65  92 129 173 226 273 338 406
#     4  10  18  36  64  96 118 162 226 272 334 392
#
# _framework density 23.720120999999999
#
# number of rings (size 3 to 8) (size 9 to 14) (size 15 to 20)
#    0.000    1.455    9.091    0.545    0.000    2.182 
#    1.636    0.000    0.000    4.364    0.000    0.000 
#    0.000    0.000    0.000    0.000    0.000    0.000 
#
# Total GULP energy -122910.809573 kJ/mol
# GULP energy per Si atom -5586.854981 kJ/mol
# Density = 2.366613 g / cm^3
# Si number density = 23.720121 Si / 1000 Ang^3
#
#
#
# Elastic Constant Matrix: (Units=GPa)
#
#
# Indices 1 2 3 4 5 6 
#
# 1 120.6882 20.0950 28.3760 0.0000 -28.0378 0.0000
# 2 20.0950 54.1922 4.5489 0.0000 -0.8543 0.0000
# 3 28.3760 4.5489 101.5156 0.0000 -33.5838 0.0000
# 4 0.0000 0.0000 0.0000 12.3754 0.0000 -3.4028
# 5 -28.0378 -0.8543 -33.5838 0.0000 47.2778 0.0000
# 6 0.0000 0.0000 0.0000 -3.4028 0.0000 29.3652
#
#
#
# Elastic Compliance Matrix: (Units=1/GPa)
#
#
# Indices 1 2 3 4 5 6 
#
# 1 0.010380 -0.003684 -0.000944 0.000000 0.005419 0.000000
# 2 -0.003684 0.019834 -0.000605 0.000000 -0.002257 0.000000
# 3 -0.000944 -0.000605 0.013010 0.000000 0.008671 0.000000
# 4 0.000000 0.000000 0.000000 0.083465 0.000000 0.009672
# 5 0.005419 -0.002257 0.008671 0.000000 0.030484 0.000000
# 6 0.000000 0.000000 0.000000 0.009672 0.000000 0.035175
#
#
# Mechanical properties :
#
#
# Convention : Reuss Voigt Hill
#
# Bulk Modulus (GPa) = 30.52726 42.49286 36.51006
# Shear Modulus (GPa) = 23.39351 32.69541 28.04446
#
# Velocity S-wave (km/s) = 3.14384 3.71669 3.44220
# Velocity P-wave (km/s) = 5.10647 6.03088 5.58782
#
# Compressibility (1/GPa) = 0.03275761
#
# Stress axis : x y z
#
# Youngs Moduli (GPa) = 96.33862 50.41768 76.86232
#
# Poissons Ratio (x) = 0.18576 0.07253
# Poissons Ratio (y) = 0.35495 0.04654
# Poissons Ratio (z) = 0.09091 0.03053
#
# Static dielectric constant tensor:
#      x y z
#    x 1.955920 0.000000 -0.031320 
#    y 0.000000 2.022560 0.000000 
#    z -0.031320 0.000000 1.940010 
# 
# From -- ./inp_files/188970.got.cif
#   From: 2010.05.17/outbox.cif.g08.bks.cpg/sg15_95_cif.got.tgz:188970.got - 2010.06.03 18:47:42.
