data_PCOD9260872
_publ_section_title
;
Structure prediction by ZEFSAII (Michael W. Deem and Ramdas Pophale) SiO2 
 PCOD9260872
Probable space group: C 2/C
;
_chemical_formula_sum "Si O2"
_cell_formula_units_Z 52
_cell_length_a 27.452830
_cell_length_b 7.577627
_cell_length_c 14.815640
_cell_angle_alpha 90.000000
_cell_angle_beta 138.935987
_cell_angle_gamma 90.000000
_cell_volume 2024.609262
_symmetry_space_group_name_H-M "C 2/C"
_symmetry_group_IT_number 15
_symmetry_cell_setting 'monoclinic'
loop_
_space_group_symop_operation_xyz
x,y,z
-x,y,1/2-z
-x,-y,-z
x,-y,1/2+z
1/2+x,1/2+y,z
1/2-x,1/2+y,1/2-z
1/2-x,1/2-y,-z
1/2+x,1/2-y,1/2+z
loop_
_atom_site_type_symbol
_atom_site_label
_atom_site_fract_x
_atom_site_fract_y
_atom_site_fract_z
Si Si1 0.987899 0.878684 0.070844
Si Si2 0.154114 0.017937 0.028104
Si Si3 0.000000 0.566064 0.750000
Si Si4 0.913784 0.487388 0.960935
Si Si5 0.760373 0.615282 0.815356
Si Si6 0.765103 0.042499 0.032374
Si Si7 0.109508 0.363523 0.775313
O O1 0.068070 0.823902 0.220031
O O2 0.930316 0.967260 0.059260
O O3 0.947807 0.686379 0.001818
O O4 0.000000 0.000000 0.000000
O O5 0.200105 0.199747 0.108387
O O6 0.198127 0.879876 0.151967
O O7 0.169378 0.977713 0.946651
O O8 0.961665 0.625492 0.601134
O O9 0.931070 0.461692 0.698237
O O10 0.830294 0.503960 0.878621
O O11 0.910401 0.421795 0.854172
O O12 0.722711 0.520586 0.848601
O O13 0.695088 0.918179 0.905662
O O14 0.750000 0.250000 0.000000
#
# Coordination Sequence:
#
# PCOD9260872 Si02
#       7
#     8   8   4   8   8   8   8
#     4  10  24  43  70 104 145 190 245 304 386 453
#     4  11  25  46  73 107 148 200 253 320 387 465
#     4  10  18  38  66  98 134 190 250 286 368 460
#     4  10  21  42  71 100 137 199 247 298 380 459
#     4  11  23  44  72 104 146 189 251 315 387 453
#     4  12  26  45  74 109 149 200 263 317 387 465
#     4  11  23  44  72 101 148 198 246 312 378 456
#
# _framework density 25.683969999999999
#
# number of rings (size 3 to 8) (size 9 to 14) (size 15 to 20)
#    0.000    1.231    3.077    3.231    4.308    1.231 
#    2.769    0.000    0.000    3.692    0.000    0.000 
#    0.000    0.000    0.000    0.000    0.000    0.000 
#
# Total GULP energy -145320.680856 kJ/mol
# GULP energy per Si atom -5589.256956 kJ/mol
# Density = 2.562551 g / cm^3
# Si number density = 25.683970 Si / 1000 Ang^3
#
#
#
# Elastic Constant Matrix: (Units=GPa)
#
#
# Indices 1 2 3 4 5 6 
#
# 1 223.5038 52.5834 47.3241 0.0000 -21.7002 0.0000
# 2 52.5834 121.8139 33.1275 0.0000 9.2833 0.0000
# 3 47.3241 33.1275 113.5985 0.0000 -11.1256 0.0000
# 4 0.0000 0.0000 0.0000 3.7977 0.0000 6.8275
# 5 -21.7002 9.2833 -11.1256 0.0000 34.5462 0.0000
# 6 0.0000 0.0000 0.0000 6.8275 0.0000 22.0319
#
#
#
# Elastic Compliance Matrix: (Units=1/GPa)
#
#
# Indices 1 2 3 4 5 6 
#
# 1 0.005679 -0.002387 -0.001298 0.000000 0.003790 0.000000
# 2 -0.002387 0.010309 -0.002509 0.000000 -0.005078 0.000000
# 3 -0.001298 -0.002509 0.010389 0.000000 0.003205 0.000000
# 4 0.000000 0.000000 0.000000 0.594538 0.000000 -0.184241
# 5 0.003790 -0.005078 0.003205 0.000000 0.033724 0.000000
# 6 0.000000 0.000000 0.000000 -0.184241 0.000000 0.102483
#
#
# Mechanical properties :
#
#
# Convention : Reuss Voigt Hill
#
# Bulk Modulus (GPa) = 71.49048 80.55404 76.02226
# Shear Modulus (GPa) = 6.45849 33.80056 20.12953
#
# Velocity S-wave (km/s) = 1.58747 3.63163 2.80257
# Velocity P-wave (km/s) = 5.59063 7.00119 6.33529
#
# Compressibility (1/GPa) = 0.01398788
#
# Stress axis : x y z
#
# Youngs Moduli (GPa) = 176.09542 97.00220 96.25202
#
# Poissons Ratio (x) = 0.23156 0.12497
# Poissons Ratio (y) = 0.42036 0.24151
# Poissons Ratio (z) = 0.22863 0.24340
#
# Static dielectric constant tensor:
#      x y z
#    x 1.873970 0.000000 0.083300 
#    y 0.000000 2.058160 0.000000 
#    z 0.083300 0.000000 1.993460 
# 
# From -- ./inp_files/176707.got.cif
#   From: 2010.05.17/outbox.cif.g08.bks.cpg/sg15_89_cif.got.tgz:176707.got - 2010.06.03 18:47:42.
