data_PCOD9260641
_publ_section_title
;
Structure prediction by ZEFSAII (Michael W. Deem and Ramdas Pophale) SiO2 
 PCOD9260641
Probable space group: C 2/C
;
_chemical_formula_sum "Si O2"
_cell_formula_units_Z 48
_cell_length_a 8.486518
_cell_length_b 12.589624
_cell_length_c 23.506728
_cell_angle_alpha 90.000000
_cell_angle_beta 52.275912
_cell_angle_gamma 90.000000
_cell_volume 1986.517961
_symmetry_space_group_name_H-M "C 2/C"
_symmetry_group_IT_number 15
_symmetry_cell_setting 'monoclinic'
loop_
_space_group_symop_operation_xyz
x,y,z
-x,y,1/2-z
-x,-y,-z
x,-y,1/2+z
1/2+x,1/2+y,z
1/2-x,1/2+y,1/2-z
1/2-x,1/2-y,-z
1/2+x,1/2-y,1/2+z
loop_
_atom_site_type_symbol
_atom_site_label
_atom_site_fract_x
_atom_site_fract_y
_atom_site_fract_z
Si Si1 0.777887 0.648901 0.323982
Si Si2 0.824098 0.382443 0.942568
Si Si3 0.449993 0.313305 0.071977
Si Si4 0.561848 0.252680 0.677405
Si Si5 0.091218 0.058357 0.818355
Si Si6 0.730363 0.019513 0.339431
O O1 0.786386 0.668821 0.388980
O O2 0.628544 0.718436 0.318633
O O3 0.689972 0.530235 0.336583
O O4 0.000000 0.655503 0.250000
O O5 0.935251 0.297721 0.958998
O O6 0.993949 0.471289 0.897133
O O7 0.603963 0.400853 0.015765
O O8 0.224340 0.304099 0.101245
O O9 0.405957 0.333213 0.148380
O O10 0.500000 0.195449 0.750000
O O11 0.672389 0.361605 0.675691
O O12 0.203565 0.035805 0.734171
O O13 0.856718 0.040357 0.858916
#
# Coordination Sequence:
#
# PCOD9260641 Si02
#       6
#     8   8   8   8   8   8
#     4  11  19  35  65  83 108 159 208 237 300 366
#     4  10  21  40  59  84 120 163 195 234 304 369
#     4  10  23  38  57  88 125 152 194 249 299 351
#     4  10  18  38  60  83 115 159 194 244 302 355
#     4  10  19  36  58  89 113 152 201 252 284 346
#     4   9  17  38  62  82 115 160 199 236 296 353
#
# _framework density 24.162882
#
# number of rings (size 3 to 8) (size 9 to 14) (size 15 to 20)
#    0.000    2.000    5.000    1.000    0.000    2.667 
#    9.000    0.000    0.000    0.000    0.000    0.000 
#    0.000    0.000    0.000    0.000    0.000    0.000 
#
# Total GULP energy -133867.428787 kJ/mol
# GULP energy per Si atom -5577.809533 kJ/mol
# Density = 2.410789 g / cm^3
# Si number density = 24.162882 Si / 1000 Ang^3
#
#
#
# Elastic Constant Matrix: (Units=GPa)
#
#
# Indices 1 2 3 4 5 6 
#
# 1 109.6350 14.5279 51.9458 0.0000 -29.8404 0.0000
# 2 14.5279 36.5156 9.3889 0.0000 -11.8400 0.0000
# 3 51.9458 9.3889 137.4463 0.0001 -38.8357 -0.0001
# 4 0.0000 0.0000 0.0001 15.7714 -0.0001 -3.9404
# 5 -29.8404 -11.8400 -38.8357 -0.0001 43.7707 0.0000
# 6 0.0000 0.0000 -0.0001 -3.9404 0.0000 12.0625
#
#
#
# Elastic Compliance Matrix: (Units=1/GPa)
#
#
# Indices 1 2 3 4 5 6 
#
# 1 0.012250 -0.002476 -0.003056 0.000000 0.004970 0.000000
# 2 -0.002476 0.030530 0.000943 0.000000 0.007407 0.000000
# 3 -0.003056 0.000943 0.010476 0.000000 0.007466 0.000000
# 4 0.000000 0.000000 0.000000 0.069041 0.000000 0.022553
# 5 0.004970 0.007407 0.007466 0.000000 0.034863 0.000000
# 6 0.000000 0.000000 0.000000 0.022553 0.000000 0.090269
#
#
# Mechanical properties :
#
#
# Convention : Reuss Voigt Hill
#
# Bulk Modulus (GPa) = 22.68762 48.36911 35.52836
# Shear Modulus (GPa) = 18.42983 28.16989 23.29986
#
# Velocity S-wave (km/s) = 2.76476 3.41813 3.10866
# Velocity P-wave (km/s) = 4.42738 5.96989 5.25553
#
# Compressibility (1/GPa) = 0.04407690
#
# Stress axis : x y z
#
# Youngs Moduli (GPa) = 81.63182 32.75472 95.45775
#
# Poissons Ratio (x) = 0.08112 0.29175
# Poissons Ratio (y) = 0.20216 -0.09005
# Poissons Ratio (z) = 0.24950 -0.03090
#
# Static dielectric constant tensor:
#      x y z
#    x 1.953030 0.000000 -0.051430 
#    y 0.000000 1.973570 0.000000 
#    z -0.051430 0.000000 2.005540 
# 
# From -- ./inp_files/289004.got.cif
#   From: 2010.05.17/outbox.cif.g08.bks.cpg/sg15_145_cif.got.tgz:289004.got - 2010.06.03 18:47:42.
