data_PCOD9260685
_publ_section_title
;
Structure prediction by ZEFSAII (Michael W. Deem and Ramdas Pophale) SiO2 
 PCOD9260685
Probable space group: C 2/C
;
_chemical_formula_sum "Si O2"
_cell_formula_units_Z 48
_cell_length_a 10.656610
_cell_length_b 12.453404
_cell_length_c 13.813133
_cell_angle_alpha 90.000000
_cell_angle_beta 82.636606
_cell_angle_gamma 90.000000
_cell_volume 1818.038073
_symmetry_space_group_name_H-M "C 2/C"
_symmetry_group_IT_number 15
_symmetry_cell_setting 'monoclinic'
loop_
_space_group_symop_operation_xyz
x,y,z
-x,y,1/2-z
-x,-y,-z
x,-y,1/2+z
1/2+x,1/2+y,z
1/2-x,1/2+y,1/2-z
1/2-x,1/2-y,-z
1/2+x,1/2-y,1/2+z
loop_
_atom_site_type_symbol
_atom_site_label
_atom_site_fract_x
_atom_site_fract_y
_atom_site_fract_z
Si Si1 0.614309 0.007517 0.083616
Si Si2 0.973633 0.130101 0.066078
Si Si3 0.000000 0.747116 0.250000
Si Si4 0.628323 0.577198 0.605742
Si Si5 0.000000 0.269618 0.250000
Si Si6 0.432490 0.174509 0.055428
Si Si7 0.347286 0.961452 0.225016
O O1 0.478708 0.979595 0.152775
O O2 0.692726 0.024409 0.173849
O O3 0.571305 0.116634 0.035054
O O4 0.643190 0.908753 0.007969
O O5 0.967915 0.200042 0.161186
O O6 0.853920 0.114580 0.006817
O O7 0.025612 0.015963 0.097381
O O8 0.065314 0.206097 0.989476
O O9 0.083740 0.824015 0.175209
O O10 0.082252 0.685873 0.325551
O O11 0.741417 0.530278 0.655739
O O12 0.125724 0.343572 0.231962
#
# Coordination Sequence:
#
# PCOD9260685 Si02
#       7
#     8   8   4   8   4   8   8
#     4   9  19  37  62  90 128 150 198 266 312 363
#     4  10  20  41  61  84 121 167 202 257 302 369
#     4  10  21  39  58  82 124 164 203 249 300 366
#     4  10  23  39  62  87 125 165 212 246 311 369
#     4  10  19  39  66  86 124 158 209 261 310 362
#     4  10  18  38  61  84 118 164 190 250 321 355
#     4  10  19  39  61  93 119 160 205 258 305 366
#
# _framework density 26.402090000000001
#
# number of rings (size 3 to 8) (size 9 to 14) (size 15 to 20)
#    0.000    2.333    3.333    1.500    0.000    0.667 
#    9.000   13.333    0.000    0.000    0.000    0.000 
#    0.000    0.000    0.000    0.000    0.000    0.000 
#
# Total GULP energy -133700.113339 kJ/mol
# GULP energy per Si atom -5570.838056 kJ/mol
# Density = 2.634200 g / cm^3
# Si number density = 26.402090 Si / 1000 Ang^3
#
#
#
# Elastic Constant Matrix: (Units=GPa)
#
#
# Indices 1 2 3 4 5 6 
#
# 1 43.9253 -4.9878 36.0101 0.0000 22.5969 0.0000
# 2 -4.9878 100.1116 47.4520 0.0000 1.0840 0.0000
# 3 36.0101 47.4520 229.5825 0.0000 25.3240 0.0000
# 4 0.0000 0.0000 0.0000 68.0787 0.0000 11.4151
# 5 22.5969 1.0840 25.3240 0.0000 43.5608 0.0000
# 6 0.0000 0.0000 0.0000 11.4151 0.0000 -1.6368
#
#
#
# Elastic Compliance Matrix: (Units=1/GPa)
#
#
# Indices 1 2 3 4 5 6 
#
# 1 0.035046 0.004108 -0.004626 0.000000 -0.015593 0.000000
# 2 0.004108 0.011607 -0.002967 0.000000 -0.000695 0.000000
# 3 -0.004626 -0.002967 0.005793 0.000000 -0.000894 0.000000
# 4 0.000000 0.000000 0.000000 0.006771 0.000000 0.047221
# 5 -0.015593 -0.000695 -0.000894 0.000000 0.031582 0.000000
# 6 0.000000 0.000000 0.000000 0.047221 0.000000 -0.281623
#
#
# Mechanical properties :
#
#
# Convention : Reuss Voigt Hill
#
# Bulk Modulus (GPa) = 21.98932 58.95200 40.47066
# Shear Modulus (GPa) = -29.63954 41.67689 6.01867
#
# Velocity S-wave (km/s) = -3.35419 3.97740 1.51148
# Velocity P-wave (km/s) = 2.57955 6.59318 4.29045
#
# Compressibility (1/GPa) = 0.04547661
#
# Stress axis : x y z
#
# Youngs Moduli (GPa) = 28.53353 86.15329 172.61741
#
# Poissons Ratio (x) = -0.35389 0.79854
# Poissons Ratio (y) = -0.11721 0.51210
# Poissons Ratio (z) = 0.13200 0.25559
#
# Static dielectric constant tensor:
#      x y z
#    x 2.208880 0.000000 0.009710 
#    y 0.000000 2.234950 0.000000 
#    z 0.009710 0.000000 2.240910 
# 
# From -- ./inp_files/153081.got.cif
#   From: 2010.05.17/outbox.cif.g08.bks.cpg/sg15_77_cif.got.tgz:153081.got - 2010.06.03 18:47:42.
