data_PCOD9260341
_publ_section_title
;
Structure prediction by ZEFSAII (Michael W. Deem and Ramdas Pophale) SiO2 
 PCOD9260341
Probable space group: C 2/C
;
_chemical_formula_sum "Si O2"
_cell_formula_units_Z 64
_cell_length_a 18.184233
_cell_length_b 12.834305
_cell_length_c 21.063015
_cell_angle_alpha 90.000000
_cell_angle_beta 144.577992
_cell_angle_gamma 90.000000
_cell_volume 2849.127822
_symmetry_space_group_name_H-M "C 2/C"
_symmetry_group_IT_number 15
_symmetry_cell_setting 'monoclinic'
loop_
_space_group_symop_operation_xyz
x,y,z
-x,y,1/2-z
-x,-y,-z
x,-y,1/2+z
1/2+x,1/2+y,z
1/2-x,1/2+y,1/2-z
1/2-x,1/2-y,-z
1/2+x,1/2-y,1/2+z
loop_
_atom_site_type_symbol
_atom_site_label
_atom_site_fract_x
_atom_site_fract_y
_atom_site_fract_z
Si Si1 0.574863 0.554638 0.936230
Si Si2 0.674664 0.092494 0.470483
Si Si3 0.157841 0.576920 0.138070
Si Si4 0.647392 0.132814 0.982845
Si Si5 0.295934 0.357248 0.854559
Si Si6 0.612097 0.857787 0.057055
Si Si7 0.067731 0.838378 0.866251
Si Si8 0.537139 0.740049 0.708835
O O1 0.699821 0.582993 0.982467
O O2 0.629551 0.565346 0.046040
O O3 0.531497 0.440974 0.881571
O O4 0.474067 0.646547 0.850372
O O5 0.707701 0.124962 0.565952
O O6 0.580148 0.179974 0.380328
O O7 0.605580 0.980205 0.427369
O O8 0.169545 0.618857 0.074135
O O9 0.264620 0.599262 0.263738
O O10 0.133339 0.453699 0.118298
O O11 0.027654 0.628909 0.069908
O O12 0.784347 0.147838 0.047285
O O13 0.561264 0.229976 0.900904
O O14 0.377760 0.253287 0.905533
O O15 0.164126 0.310078 0.791538
O O16 0.000000 0.833692 0.750000
O O17 0.500000 0.688750 0.750000
#
# Coordination Sequence:
#
# PCOD9260341 Si02
#       8
#     8   8   8   8   8   8   8   8
#     4  11  22  36  57  89 124 154 196 246 296 370
#     4  10  18  37  57  84 119 149 194 249 292 349
#     4  10  22  39  60  83 115 166 197 242 300 344
#     4   9  22  41  63  87 117 155 207 247 289 359
#     4  12  22  36  59  89 120 158 202 243 300 360
#     4  10  21  39  56  81 123 150 199 252 287 360
#     4  10  22  43  63  89 122 157 197 255 309 344
#     4  12  21  33  57  90 120 155 189 241 313 349
#
# _framework density 22.463014000000001
#
# number of rings (size 3 to 8) (size 9 to 14) (size 15 to 20)
#    0.000    1.500    3.750    1.500    0.000    4.500 
#    2.250    0.000    0.000    3.750    0.000    0.000 
#    0.000    0.000    0.000    0.000    0.000    0.000 
#
# Total GULP energy -178729.510237 kJ/mol
# GULP energy per Si atom -5585.297195 kJ/mol
# Density = 2.241189 g / cm^3
# Si number density = 22.463014 Si / 1000 Ang^3
#
#
#
# Elastic Constant Matrix: (Units=GPa)
#
#
# Indices 1 2 3 4 5 6 
#
# 1 53.0449 1.5123 4.6522 0.0000 -7.9654 0.0000
# 2 1.5123 136.2851 63.0557 0.0000 -30.1634 0.0000
# 3 4.6522 63.0557 110.7628 -0.0001 -37.6103 0.0000
# 4 0.0000 0.0000 -0.0001 14.8959 0.0000 0.0514
# 5 -7.9654 -30.1634 -37.6103 0.0000 32.9886 0.0000
# 6 0.0000 0.0000 0.0000 0.0514 0.0000 13.1060
#
#
#
# Elastic Compliance Matrix: (Units=1/GPa)
#
#
# Indices 1 2 3 4 5 6 
#
# 1 0.019734 0.000797 0.000951 0.000000 0.006578 0.000000
# 2 0.000797 0.010384 -0.004333 0.000000 0.004747 0.000000
# 3 0.000951 -0.004333 0.016623 0.000000 0.015220 0.000000
# 4 0.000000 0.000000 0.000000 0.067133 0.000000 -0.000263
# 5 0.006578 0.004747 0.015220 0.000000 0.053594 0.000000
# 6 0.000000 0.000000 0.000000 -0.000263 0.000000 0.076302
#
#
# Mechanical properties :
#
#
# Convention : Reuss Voigt Hill
#
# Bulk Modulus (GPa) = 24.05567 48.72591 36.39079
# Shear Modulus (GPa) = 19.02608 27.58963 23.30786
#
# Velocity S-wave (km/s) = 2.91348 3.50841 3.22469
# Velocity P-wave (km/s) = 4.69575 6.17662 5.48638
#
# Compressibility (1/GPa) = 0.04157024
#
# Stress axis : x y z
#
# Youngs Moduli (GPa) = 50.67511 96.30014 60.15743
#
# Poissons Ratio (x) = -0.07673 -0.05721
# Poissons Ratio (y) = -0.04038 0.26067
# Poissons Ratio (z) = -0.04819 0.41728
#
# Static dielectric constant tensor:
#      x y z
#    x 1.898620 0.000000 0.003100 
#    y 0.000000 1.827940 0.000000 
#    z 0.003100 0.000000 1.877210 
# 
# From -- ./inp_files/281975.got.cif
#   From: 2010.05.17/outbox.cif.g08.bks.cpg/sg15_141_cif.got.tgz:281975.got - 2010.06.03 18:47:42.
