data_PCOD9260047
_publ_section_title
;
Structure prediction by ZEFSAII (Michael W. Deem and Ramdas Pophale) SiO2 
 PCOD9260047
Probable space group: C 2/C
;
_chemical_formula_sum "Si O2"
_cell_formula_units_Z 56
_cell_length_a 19.696637
_cell_length_b 13.238391
_cell_length_c 11.267436
_cell_angle_alpha 90.000000
_cell_angle_beta 91.381459
_cell_angle_gamma 90.000000
_cell_volume 2937.150066
_symmetry_space_group_name_H-M "C 2/C"
_symmetry_group_IT_number 15
_symmetry_cell_setting 'monoclinic'
loop_
_space_group_symop_operation_xyz
x,y,z
-x,y,1/2-z
-x,-y,-z
x,-y,1/2+z
1/2+x,1/2+y,z
1/2-x,1/2+y,1/2-z
1/2-x,1/2-y,-z
1/2+x,1/2-y,1/2+z
loop_
_atom_site_type_symbol
_atom_site_label
_atom_site_fract_x
_atom_site_fract_y
_atom_site_fract_z
Si Si1 0.780187 0.405303 0.500949
Si Si2 0.386052 0.268895 0.013786
Si Si3 0.167180 0.896184 0.691763
Si Si4 0.678154 0.608863 0.787611
Si Si5 0.105509 0.564371 0.946608
Si Si6 0.490477 0.884489 0.617118
Si Si7 0.214352 0.725866 0.872513
O O1 0.818882 0.299325 0.490117
O O2 0.736463 0.406968 0.618492
O O3 0.730521 0.426684 0.391136
O O4 0.836925 0.489273 0.506490
O O5 0.374713 0.325662 0.138245
O O6 0.447251 0.191802 0.034025
O O7 0.385800 0.343591 0.901485
O O8 0.185917 0.823979 0.802477
O O9 0.147193 0.009144 0.727689
O O10 0.725360 0.673529 0.701232
O O11 0.051473 0.491019 0.876437
O O12 0.148945 0.651226 0.883331
O O13 0.062094 0.603115 0.055626
O O14 0.500000 0.845733 0.750000
O O15 0.250000 0.750000 0.000000
#
# Coordination Sequence:
#
# PCOD9260047 Si02
#       7
#     8   8   8   8   8   8   8
#     4  10  18  36  61  88 124 161 190 243 317 374
#     4  10  21  39  60  83 121 172 204 237 306 375
#     4  11  21  36  57  89 127 162 197 248 307 369
#     4  11  21  35  59  90 127 159 196 247 309 373
#     4  10  23  38  60  96 124 153 203 254 313 362
#     4  10  24  41  65  88 120 167 209 257 305 365
#     4  12  24  34  58  96 130 158 191 259 312 362
#
# _framework density 19.066101
#
# number of rings (size 3 to 8) (size 9 to 14) (size 15 to 20)
#    0.000    1.429    4.286    1.714    6.000    1.143 
#    0.000    0.000    0.000    3.429    0.000    0.000 
#    0.000    0.000    0.000    0.000    0.000    0.000 
#
# Total GULP energy -156207.833164 kJ/mol
# GULP energy per Si atom -5578.851184 kJ/mol
# Density = 1.902271 g / cm^3
# Si number density = 19.066101 Si / 1000 Ang^3
#
#
#
# Elastic Constant Matrix: (Units=GPa)
#
#
# Indices 1 2 3 4 5 6 
#
# 1 36.9828 9.7066 21.5847 0.0000 -3.2194 0.0000
# 2 9.7066 72.4001 23.9707 0.0000 -3.9246 0.0000
# 3 21.5847 23.9707 78.5733 0.0000 1.3164 0.0000
# 4 0.0000 0.0000 0.0000 19.7553 0.0000 0.4813
# 5 -3.2194 -3.9246 1.3164 0.0000 11.0891 0.0000
# 6 0.0000 0.0000 0.0000 0.4813 0.0000 5.4796
#
#
#
# Elastic Compliance Matrix: (Units=1/GPa)
#
#
# Indices 1 2 3 4 5 6 
#
# 1 0.033503 -0.000910 -0.009102 0.000000 0.010485 0.000000
# 2 -0.000910 0.015799 -0.004668 0.000000 0.005881 0.000000
# 3 -0.009102 -0.004668 0.016757 0.000000 -0.006284 0.000000
# 4 0.000000 0.000000 0.000000 0.050728 0.000000 -0.004455
# 5 0.010485 0.005881 -0.006284 0.000000 0.096050 0.000000
# 6 0.000000 0.000000 0.000000 -0.004455 0.000000 0.182885
#
#
# Mechanical properties :
#
#
# Convention : Reuss Voigt Hill
#
# Bulk Modulus (GPa) = 27.24893 33.16449 30.20671
# Shear Modulus (GPa) = 11.43342 16.11108 13.77225
#
# Velocity S-wave (km/s) = 2.45148 2.91006 2.69056
# Velocity P-wave (km/s) = 4.72608 5.35943 5.05269
#
# Compressibility (1/GPa) = 0.03669869
#
# Stress axis : x y z
#
# Youngs Moduli (GPa) = 29.84786 63.29697 59.67758
#
# Poissons Ratio (x) = 0.05760 0.54317
# Poissons Ratio (y) = 0.02716 0.27859
# Poissons Ratio (z) = 0.27167 0.29549
#
# Static dielectric constant tensor:
#      x y z
#    x 1.640840 0.000000 -0.001430 
#    y 0.000000 1.742870 0.000000 
#    z -0.001430 0.000000 1.680090 
# 
# From -- ./inp_files/111581.got.cif
#   From: 2010.05.17/outbox.cif.g08.bks.cpg/sg15_56_cif.got.tgz:111581.got - 2010.06.03 18:47:42.
