data_PCOD9260606
_publ_section_title
;
Structure prediction by ZEFSAII (Michael W. Deem and Ramdas Pophale) SiO2 
 PCOD9260606
Probable space group: C 2/C
;
_chemical_formula_sum "Si O2"
_cell_formula_units_Z 56
_cell_length_a 10.882743
_cell_length_b 8.849175
_cell_length_c 32.096076
_cell_angle_alpha 90.000000
_cell_angle_beta 128.769464
_cell_angle_gamma 90.000000
_cell_volume 2409.932763
_symmetry_space_group_name_H-M "C 2/C"
_symmetry_group_IT_number 15
_symmetry_cell_setting 'monoclinic'
loop_
_space_group_symop_operation_xyz
x,y,z
-x,y,1/2-z
-x,-y,-z
x,-y,1/2+z
1/2+x,1/2+y,z
1/2-x,1/2+y,1/2-z
1/2-x,1/2-y,-z
1/2+x,1/2-y,1/2+z
loop_
_atom_site_type_symbol
_atom_site_label
_atom_site_fract_x
_atom_site_fract_y
_atom_site_fract_z
Si Si1 0.944556 0.963361 0.420068
Si Si2 0.206379 0.303527 0.426586
Si Si3 0.769024 0.717017 0.157413
Si Si4 0.089268 0.408937 0.182424
Si Si5 0.500000 0.980694 0.250000
Si Si6 0.194730 0.524148 0.006923
Si Si7 0.750000 0.750000 0.000000
Si Si8 0.971856 0.271265 0.625130
O O1 0.848488 0.901347 0.438389
O O2 0.922937 0.853058 0.375834
O O3 0.881925 0.128335 0.394398
O O4 0.133027 0.944157 0.469427
O O5 0.148228 0.371766 0.458558
O O6 0.259825 0.133469 0.446336
O O7 0.068407 0.320494 0.364484
O O8 0.724196 0.830371 0.184403
O O9 0.876294 0.584929 0.199282
O O10 0.872682 0.790974 0.143049
O O11 0.095332 0.398334 0.233462
O O12 0.063140 0.580537 0.160492
O O13 0.119986 0.364241 0.000489
O O14 0.841767 0.687136 0.062680
#
# Coordination Sequence:
#
# PCOD9260606 Si02
#       8
#     8   8   8   8   4   8   4   8
#     4  11  21  38  65  92 129 170 209 259 313 376
#     4  11  20  38  61  94 129 170 215 254 315 385
#     4  11  23  45  68  91 128 165 212 276 330 384
#     4  11  22  45  68  93 127 168 210 278 327 385
#     4  10  24  44  68  92 120 160 220 274 338 388
#     4  10  21  34  61  95 129 174 215 250 314 382
#     4  10  18  38  56  94 140 172 210 256 296 380
#     4  10  23  39  61  96 134 171 214 252 310 383
#
# _framework density 23.237165000000001
#
# number of rings (size 3 to 8) (size 9 to 14) (size 15 to 20)
#    0.000    1.429    5.714    0.429    0.000    5.714 
#    0.000    3.571    0.000    0.000    0.000    0.000 
#    0.000    0.000    0.000    0.000    0.000    0.000 
#
# Total GULP energy -155979.558651 kJ/mol
# GULP energy per Si atom -5570.698523 kJ/mol
# Density = 2.318428 g / cm^3
# Si number density = 23.237165 Si / 1000 Ang^3
#
#
#
# Elastic Constant Matrix: (Units=GPa)
#
#
# Indices 1 2 3 4 5 6 
#
# 1 59.5562 14.2031 -9.6015 0.0000 -12.5744 0.0000
# 2 14.2031 99.8561 -2.7791 0.0000 -20.9582 0.0000
# 3 -9.6015 -2.7791 49.8462 0.0000 -13.4360 0.0000
# 4 0.0000 0.0000 0.0000 31.7555 0.0000 -10.6939
# 5 -12.5744 -20.9582 -13.4360 0.0000 36.8058 0.0000
# 6 0.0000 0.0000 0.0000 -10.6939 0.0000 28.3127
#
#
#
# Elastic Compliance Matrix: (Units=1/GPa)
#
#
# Indices 1 2 3 4 5 6 
#
# 1 0.019757 -0.000866 0.006038 0.000000 0.008461 0.000000
# 2 -0.000866 0.011734 0.002450 0.000000 0.007280 0.000000
# 3 0.006038 0.002450 0.024726 0.000000 0.012484 0.000000
# 4 0.000000 0.000000 0.000000 0.036080 0.000000 0.013628
# 5 0.008461 0.007280 0.012484 0.000000 0.038763 0.000000
# 6 0.000000 0.000000 0.000000 0.013628 0.000000 0.040467
#
#
# Mechanical properties :
#
#
# Convention : Reuss Voigt Hill
#
# Bulk Modulus (GPa) = 13.99392 23.65595 18.82493
# Shear Modulus (GPa) = 27.76164 33.20386 30.48275
#
# Velocity S-wave (km/s) = 3.46021 3.78420 3.62582
# Velocity P-wave (km/s) = 4.69034 5.41256 5.06434
#
# Compressibility (1/GPa) = 0.07145960
#
# Stress axis : x y z
#
# Youngs Moduli (GPa) = 50.61430 85.22466 40.44262
#
# Poissons Ratio (x) = 0.07384 -0.24419
# Poissons Ratio (y) = 0.04385 -0.09907
# Poissons Ratio (z) = -0.30561 -0.20876
#
# Static dielectric constant tensor:
#      x y z
#    x 2.058220 0.000000 0.044050 
#    y 0.000000 2.565880 0.000000 
#    z 0.044050 0.000000 1.972480 
# 
# From -- ./inp_files/310416.got.cif
#   From: 2010.05.17/outbox.cif.g08.bks.cpg/sg15_156_cif.got.tgz:310416.got - 2010.06.03 18:47:42.
