data_PCOD9260231
_publ_section_title
;
Structure prediction by ZEFSAII (Michael W. Deem and Ramdas Pophale) SiO2 
 PCOD9260231
Probable space group: C 2/C
;
_chemical_formula_sum "Si O2"
_cell_formula_units_Z 48
_cell_length_a 10.225402
_cell_length_b 27.451125
_cell_length_c 9.825268
_cell_angle_alpha 90.000000
_cell_angle_beta 61.309674
_cell_angle_gamma 90.000000
_cell_volume 2419.340800
_symmetry_space_group_name_H-M "C 2/C"
_symmetry_group_IT_number 15
_symmetry_cell_setting 'monoclinic'
loop_
_space_group_symop_operation_xyz
x,y,z
-x,y,1/2-z
-x,-y,-z
x,-y,1/2+z
1/2+x,1/2+y,z
1/2-x,1/2+y,1/2-z
1/2-x,1/2-y,-z
1/2+x,1/2-y,1/2+z
loop_
_atom_site_type_symbol
_atom_site_label
_atom_site_fract_x
_atom_site_fract_y
_atom_site_fract_z
Si Si1 0.384517 0.054446 0.929364
Si Si2 0.616857 0.689993 0.812994
Si Si3 0.162121 0.696640 0.307303
Si Si4 0.667164 0.158599 0.013799
Si Si5 0.139635 0.862022 0.587407
Si Si6 0.108626 0.445936 0.569598
O O1 0.500000 0.064142 0.750000
O O2 0.320238 0.999325 0.951044
O O3 0.255995 0.094110 0.006578
O O4 0.495534 0.054203 0.000828
O O5 0.500000 0.679527 0.750000
O O6 0.615963 0.747351 0.845211
O O7 0.771411 0.678272 0.658791
O O8 0.597215 0.659773 0.961057
O O9 0.277370 0.679079 0.362964
O O10 0.011549 0.664920 0.397398
O O11 0.218850 0.687330 0.123922
O O12 0.709443 0.101851 0.007950
O O13 0.000000 0.877738 0.750000
O O14 0.000000 0.438954 0.750000
#
# Coordination Sequence:
#
# PCOD9260231 Si02
#       6
#     8   8   8   8   8   8
#     4  10  21  38  64  94 126 158 215 265 315 381
#     4  12  26  41  62  92 131 176 214 267 323 385
#     4  11  23  41  64  92 126 172 218 265 321 380
#     4  11  20  39  70  91 127 164 219 265 316 392
#     4  12  26  42  62  94 137 173 213 269 327 381
#     4  10  18  36  65  96 119 160 209 265 316 373
#
# _framework density 19.840115999999998
#
# number of rings (size 3 to 8) (size 9 to 14) (size 15 to 20)
#    0.000    1.000    5.000    3.000    2.333    0.000 
#    0.000    0.833    0.000   16.000    0.000    0.000 
#    0.000    0.000    0.000    0.000    0.000    0.000 
#
# Total GULP energy -134001.656571 kJ/mol
# GULP energy per Si atom -5583.402357 kJ/mol
# Density = 1.979496 g / cm^3
# Si number density = 19.840116 Si / 1000 Ang^3
#
#
#
# Elastic Constant Matrix: (Units=GPa)
#
#
# Indices 1 2 3 4 5 6 
#
# 1 68.2408 24.0622 44.8740 0.0000 12.9230 0.0000
# 2 24.0622 128.0551 48.0299 0.0000 -1.0129 0.0000
# 3 44.8740 48.0299 143.5484 0.0000 8.0406 0.0000
# 4 0.0000 0.0000 0.0000 79.3988 0.0000 6.8210
# 5 12.9230 -1.0129 8.0406 0.0000 25.4970 0.0000
# 6 0.0000 0.0000 0.0000 6.8210 0.0000 16.4816
#
#
#
# Elastic Compliance Matrix: (Units=1/GPa)
#
#
# Indices 1 2 3 4 5 6 
#
# 1 0.020458 -0.001944 -0.005253 0.000000 -0.008790 0.000000
# 2 -0.001944 0.009158 -0.002578 0.000000 0.002162 0.000000
# 3 -0.005253 -0.002578 0.009495 0.000000 -0.000435 0.000000
# 4 0.000000 0.000000 0.000000 0.013059 0.000000 -0.005405
# 5 -0.008790 0.002162 -0.000435 0.000000 0.043898 0.000000
# 6 0.000000 0.000000 0.000000 -0.005405 0.000000 0.062910
#
#
# Mechanical properties :
#
#
# Convention : Reuss Voigt Hill
#
# Bulk Modulus (GPa) = 51.11595 63.75295 57.43445
# Shear Modulus (GPa) = 27.02002 39.13401 33.07702
#
# Velocity S-wave (km/s) = 3.69438 4.44607 4.08754
# Velocity P-wave (km/s) = 6.63459 7.65244 7.16162
#
# Compressibility (1/GPa) = 0.01956337
#
# Stress axis : x y z
#
# Youngs Moduli (GPa) = 48.88091 109.19050 105.31709
#
# Poissons Ratio (x) = 0.21222 0.55319
# Poissons Ratio (y) = 0.09500 0.27149
# Poissons Ratio (z) = 0.25675 0.28147
#
# Static dielectric constant tensor:
#      x y z
#    x 1.710720 0.000000 -0.018000 
#    y 0.000000 1.737520 0.000000 
#    z -0.018000 0.000000 1.691440 
# 
# From -- ./inp_files/33387.got.cif
#   From: 2010.05.17/outbox.cif.g08.bks.cpg/sg15_17_cif.got.tgz:33387.got - 2010.06.03 18:47:42.
