data_PCOD9260956
_publ_section_title
;
Structure prediction by ZEFSAII (Michael W. Deem and Ramdas Pophale) SiO2 
 PCOD9260956
Probable space group: C 2/C
;
_chemical_formula_sum "Si O2"
_cell_formula_units_Z 60
_cell_length_a 11.496849
_cell_length_b 14.597964
_cell_length_c 20.559775
_cell_angle_alpha 90.000000
_cell_angle_beta 51.323890
_cell_angle_gamma 90.000000
_cell_volume 2693.820591
_symmetry_space_group_name_H-M "C 2/C"
_symmetry_group_IT_number 15
_symmetry_cell_setting 'monoclinic'
loop_
_space_group_symop_operation_xyz
x,y,z
-x,y,1/2-z
-x,-y,-z
x,-y,1/2+z
1/2+x,1/2+y,z
1/2-x,1/2+y,1/2-z
1/2-x,1/2-y,-z
1/2+x,1/2-y,1/2+z
loop_
_atom_site_type_symbol
_atom_site_label
_atom_site_fract_x
_atom_site_fract_y
_atom_site_fract_z
Si Si1 0.599750 0.242811 0.594824
Si Si2 0.814243 0.949620 0.618287
Si Si3 0.038314 0.942445 0.661309
Si Si4 0.000000 0.628539 0.250000
Si Si5 0.278937 0.653323 0.627033
Si Si6 0.934655 0.240162 0.026048
Si Si7 0.631036 0.303335 0.273088
Si Si8 0.684902 0.378207 0.110425
O O1 0.750000 0.250000 0.500000
O O2 0.585169 0.338417 0.636702
O O3 0.632084 0.166932 0.636318
O O4 0.469928 0.230480 0.588195
O O5 0.636994 0.934101 0.681462
O O6 0.867532 0.861951 0.557923
O O7 0.900762 0.950055 0.658060
O O8 0.840073 0.053240 0.586619
O O9 0.000000 0.960495 0.750000
O O10 0.171775 0.014492 0.599236
O O11 0.915189 0.700088 0.230623
O O12 0.406852 0.727488 0.563698
O O13 0.252085 0.674017 0.712008
O O14 0.819930 0.315187 0.038292
O O15 0.672266 0.355590 0.192175
O O16 0.476286 0.342797 0.356235
#
# Coordination Sequence:
#
# PCOD9260956 Si02
#       8
#     8   8   8   4   8   8   8   8
#     4   9  23  42  56  83 127 162 198 244 301 362
#     4  11  21  40  59  89 123 159 199 248 311 355
#     4  11  21  38  65  90 115 157 206 251 299 372
#     4  10  22  40  58  84 126 156 188 258 320 340
#     4  11  22  39  58  91 119 160 212 237 297 375
#     4  10  21  40  64  83 124 167 194 254 303 356
#     4  10  19  38  60  82 127 145 197 265 293 360
#     4  10  18  39  62  90 116 152 200 254 309 344
#
# _framework density 22.273199000000002
#
# number of rings (size 3 to 8) (size 9 to 14) (size 15 to 20)
#    0.000    1.867    5.333    0.400    1.867    0.533 
#    6.000    2.667    0.000    0.000    0.000    0.000 
#    0.000    0.000    0.000    0.000    0.000    0.000 
#
# Total GULP energy -167221.282128 kJ/mol
# GULP energy per Si atom -5574.042738 kJ/mol
# Density = 2.222250 g / cm^3
# Si number density = 22.273199 Si / 1000 Ang^3
#
#
#
# Elastic Constant Matrix: (Units=GPa)
#
#
# Indices 1 2 3 4 5 6 
#
# 1 64.5903 32.4367 2.9356 0.0000 5.6053 0.0000
# 2 32.4367 60.1106 -3.0468 0.0000 0.1605 0.0000
# 3 2.9356 -3.0468 19.1067 0.0000 -6.0760 0.0000
# 4 0.0000 0.0000 0.0000 14.3239 0.0000 -8.9775
# 5 5.6053 0.1605 -6.0760 0.0000 35.3422 0.0000
# 6 0.0000 0.0000 0.0000 -8.9775 0.0000 28.2529
#
#
#
# Elastic Compliance Matrix: (Units=1/GPa)
#
#
# Indices 1 2 3 4 5 6 
#
# 1 0.022462 -0.012460 -0.006932 0.000000 -0.004698 0.000000
# 2 -0.012460 0.023688 0.006649 0.000000 0.003012 0.000000
# 3 -0.006932 0.006649 0.057972 0.000000 0.011036 0.000000
# 4 0.000000 0.000000 0.000000 0.087174 0.000000 0.027700
# 5 -0.004698 0.003012 0.011036 0.000000 0.030923 0.000000
# 6 0.000000 0.000000 0.000000 0.027700 0.000000 0.044196
#
#
# Mechanical properties :
#
#
# Convention : Reuss Voigt Hill
#
# Bulk Modulus (GPa) = 12.71637 23.16209 17.93923
# Shear Modulus (GPa) = 15.71762 23.01593 19.36677
#
# Velocity S-wave (km/s) = 2.65933 3.21806 2.95194
# Velocity P-wave (km/s) = 3.89244 4.92235 4.43738
#
# Compressibility (1/GPa) = 0.07863879
#
# Stress axis : x y z
#
# Youngs Moduli (GPa) = 44.51949 42.21465 17.24957
#
# Poissons Ratio (x) = 0.52598 0.11957
# Poissons Ratio (y) = 0.55470 -0.11470
# Poissons Ratio (z) = 0.30860 -0.28070
#
# Static dielectric constant tensor:
#      x y z
#    x 1.875530 0.000000 0.041730 
#    y 0.000000 1.853590 0.000000 
#    z 0.041730 0.000000 1.879640 
# 
# From -- ./inp_files/269720.got.cif
#   From: 2010.05.17/outbox.cif.g08.bks.cpg/sg15_135_cif.got.tgz:269720.got - 2010.06.03 18:47:42.
