data_PCOD9260965
_publ_section_title
;
Structure prediction by ZEFSAII (Michael W. Deem and Ramdas Pophale) SiO2 
 PCOD9260965
Probable space group: C 2/C
;
_chemical_formula_sum "Si O2"
_cell_formula_units_Z 40
_cell_length_a 10.997205
_cell_length_b 21.422867
_cell_length_c 7.848023
_cell_angle_alpha 90.000000
_cell_angle_beta 121.525901
_cell_angle_gamma 90.000000
_cell_volume 1576.034051
_symmetry_space_group_name_H-M "C 2/C"
_symmetry_group_IT_number 15
_symmetry_cell_setting 'monoclinic'
loop_
_space_group_symop_operation_xyz
x,y,z
-x,y,1/2-z
-x,-y,-z
x,-y,1/2+z
1/2+x,1/2+y,z
1/2-x,1/2+y,1/2-z
1/2-x,1/2-y,-z
1/2+x,1/2-y,1/2+z
loop_
_atom_site_type_symbol
_atom_site_label
_atom_site_fract_x
_atom_site_fract_y
_atom_site_fract_z
Si Si1 0.901794 0.737371 0.021556
Si Si2 0.800586 0.068335 0.543539
Si Si3 0.264670 0.927293 0.992474
Si Si4 0.053350 0.606810 0.552945
Si Si5 0.472949 0.369809 0.483527
O O1 0.000000 0.716854 0.250000
O O2 0.968866 0.800231 0.994830
O O3 0.750000 0.750000 0.000000
O O4 0.910356 0.680186 0.897139
O O5 0.636696 0.087247 0.444039
O O6 0.877758 0.108684 0.749413
O O7 0.888464 0.085881 0.439005
O O8 0.804622 0.995058 0.579755
O O9 0.362115 0.930431 0.236989
O O10 0.386547 0.906706 0.949816
O O11 0.135670 0.880213 0.941316
#
# Coordination Sequence:
#
# PCOD9260965 Si02
#       5
#     8   8   8   8   8
#     4  12  22  45  71  95 132 170 233 273 316 400
#     4  10  18  39  63  89 130 171 216 260 316 395
#     4  10  21  39  63  93 139 163 216 268 328 396
#     4  10  22  39  63  97 127 178 210 269 333 378
#     4  10  20  38  65  93 121 172 219 269 321 373
#
# _framework density 25.380163
#
# number of rings (size 3 to 8) (size 9 to 14) (size 15 to 20)
#    0.000    1.600    4.000    2.400    0.000    0.800 
#   10.800    2.000    0.000    0.000    0.000    0.000 
#    0.000    0.000    0.000    0.000    0.000    0.000 
#
# Total GULP energy -111877.073277 kJ/mol
# GULP energy per Si atom -5593.853664 kJ/mol
# Density = 2.532240 g / cm^3
# Si number density = 25.380163 Si / 1000 Ang^3
#
#
#
# Elastic Constant Matrix: (Units=GPa)
#
#
# Indices 1 2 3 4 5 6 
#
# 1 242.6749 36.9339 23.7566 0.0000 21.8784 0.0000
# 2 36.9339 172.3153 -8.9959 0.0000 -4.0221 0.0000
# 3 23.7566 -8.9959 69.3120 0.0000 11.5715 0.0000
# 4 0.0000 0.0000 0.0000 -49.8255 0.0000 9.8873
# 5 21.8784 -4.0221 11.5715 0.0000 46.4276 0.0000
# 6 0.0000 0.0000 0.0000 9.8873 0.0000 37.0126
#
#
#
# Elastic Compliance Matrix: (Units=1/GPa)
#
#
# Indices 1 2 3 4 5 6 
#
# 1 0.004598 -0.001103 -0.001400 0.000000 -0.001914 0.000000
# 2 -0.001103 0.006113 0.001040 0.000000 0.000790 0.000000
# 3 -0.001400 0.001040 0.015565 0.000000 -0.003130 0.000000
# 4 0.000000 0.000000 0.000000 -0.019060 0.000000 0.005092
# 5 -0.001914 0.000790 -0.003130 0.000000 0.023289 0.000000
# 6 0.000000 0.000000 0.000000 0.005092 0.000000 0.025658
#
#
# Mechanical properties :
#
#
# Convention : Reuss Voigt Hill
#
# Bulk Modulus (GPa) = 42.82957 65.29902 54.06429
# Shear Modulus (GPa) = 74.76923 35.56346 55.16634
#
# Velocity S-wave (km/s) = 5.43357 3.74736 4.66725
# Velocity P-wave (km/s) = 7.50178 6.67142 7.09875
#
# Compressibility (1/GPa) = 0.02334836
#
# Stress axis : x y z
#
# Youngs Moduli (GPa) = 217.47623 163.59870 64.24798
#
# Poissons Ratio (x) = 0.18050 0.08993
# Poissons Ratio (y) = 0.23994 -0.06679
# Poissons Ratio (z) = 0.30441 -0.17007
#
# Static dielectric constant tensor:
#      x y z
#    x 1.977360 0.000000 -0.056080 
#    y 0.000000 1.971720 0.000000 
#    z -0.056080 0.000000 2.169980 
# 
# From -- ./inp_files/88653.got.cif
#   From: 2010.05.17/outbox.cif.g08.bks.cpg/sg15_45_cif.got.tgz:88653.got - 2010.06.03 18:47:42.
