data_PCOD9260768
_publ_section_title
;
Structure prediction by ZEFSAII (Michael W. Deem and Ramdas Pophale) SiO2 
 PCOD9260768
Probable space group: C 2/C
;
_chemical_formula_sum "Si O2"
_cell_formula_units_Z 56
_cell_length_a 8.227189
_cell_length_b 24.202987
_cell_length_c 14.775294
_cell_angle_alpha 90.000000
_cell_angle_beta 117.689913
_cell_angle_gamma 90.000000
_cell_volume 2605.152176
_symmetry_space_group_name_H-M "C 2/C"
_symmetry_group_IT_number 15
_symmetry_cell_setting 'monoclinic'
loop_
_space_group_symop_operation_xyz
x,y,z
-x,y,1/2-z
-x,-y,-z
x,-y,1/2+z
1/2+x,1/2+y,z
1/2-x,1/2+y,1/2-z
1/2-x,1/2-y,-z
1/2+x,1/2-y,1/2+z
loop_
_atom_site_type_symbol
_atom_site_label
_atom_site_fract_x
_atom_site_fract_y
_atom_site_fract_z
Si Si1 0.494743 0.723242 0.103932
Si Si2 0.304075 0.917732 0.736741
Si Si3 0.812329 0.978557 0.640569
Si Si4 0.128351 0.301233 0.000316
Si Si5 0.900608 0.899701 0.127472
Si Si6 0.965026 0.097996 0.030181
Si Si7 0.228005 0.306138 0.693553
O O1 0.496126 0.777881 0.045051
O O2 0.464217 0.664222 0.047279
O O3 0.701334 0.723191 0.198231
O O4 0.346731 0.721945 0.145517
O O5 0.500000 0.901452 0.750000
O O6 0.333774 0.964608 0.819476
O O7 0.162011 0.925216 0.617719
O O8 0.212111 0.869017 0.772742
O O9 0.000000 0.974330 0.750000
O O10 0.826497 0.936645 0.558833
O O11 0.798933 0.041560 0.607309
O O12 0.258064 0.351379 0.063266
O O13 0.250000 0.250000 0.000000
O O14 0.983855 0.311176 0.883305
O O15 0.000000 0.888824 0.250000
O O16 0.041847 0.907731 0.079809
#
# Coordination Sequence:
#
# PCOD9260768 Si02
#       7
#     8   8   8   8   8   8   8
#     4  10  21  39  66  89 120 163 212 261 314 376
#     4  10  19  34  66  98 123 149 205 273 321 370
#     4   9  19  38  66  91 125 165 210 259 316 390
#     4  12  25  38  60  90 130 166 212 262 319 380
#     4  11  24  40  61  92 131 175 215 257 318 382
#     4  10  18  38  63  93 118 165 216 256 310 376
#     4  10  22  40  63  94 119 159 212 265 316 373
#
# _framework density 21.495865999999999
#
# number of rings (size 3 to 8) (size 9 to 14) (size 15 to 20)
#    0.000    1.714    2.857    1.714    4.000    0.000 
#    0.000    2.857    9.429    0.000    0.000    0.000 
#    0.000    0.000    0.000    0.000    0.000    0.000 
#
# Total GULP energy -156051.580716 kJ/mol
# GULP energy per Si atom -5573.270740 kJ/mol
# Density = 2.144694 g / cm^3
# Si number density = 21.495866 Si / 1000 Ang^3
#
#
#
# Elastic Constant Matrix: (Units=GPa)
#
#
# Indices 1 2 3 4 5 6 
#
# 1 69.5578 24.6825 35.2019 0.0000 -14.3402 0.0000
# 2 24.6825 86.4530 31.3365 0.0000 -10.3123 0.0000
# 3 35.2019 31.3365 117.7463 0.0000 -2.3446 0.0000
# 4 0.0000 0.0000 0.0000 29.6496 0.0000 -11.2107
# 5 -14.3402 -10.3123 -2.3446 0.0000 35.2315 0.0000
# 6 0.0000 0.0000 0.0000 -11.2107 0.0000 22.8183
#
#
#
# Elastic Compliance Matrix: (Units=1/GPa)
#
#
# Indices 1 2 3 4 5 6 
#
# 1 0.019240 -0.002948 -0.004835 0.000000 0.006647 0.000000
# 2 -0.002948 0.013706 -0.002714 0.000000 0.002631 0.000000
# 3 -0.004835 -0.002714 0.010620 0.000000 -0.002056 0.000000
# 4 0.000000 0.000000 0.000000 0.041422 0.000000 0.020351
# 5 0.006647 0.002631 -0.002056 0.000000 0.031722 0.000000
# 6 0.000000 0.000000 0.000000 0.020351 0.000000 0.053823
#
#
# Mechanical properties :
#
#
# Convention : Reuss Voigt Hill
#
# Bulk Modulus (GPa) = 44.30266 50.68876 47.49571
# Shear Modulus (GPa) = 25.11923 29.70895 27.41409
#
# Velocity S-wave (km/s) = 3.42213 3.72166 3.57504
# Velocity P-wave (km/s) = 6.02239 6.48842 6.25975
#
# Compressibility (1/GPa) = 0.02257201
#
# Stress axis : x y z
#
# Youngs Moduli (GPa) = 51.97568 72.95980 94.16397
#
# Poissons Ratio (x) = 0.21505 0.45530
# Poissons Ratio (y) = 0.15320 0.25557
# Poissons Ratio (z) = 0.25131 0.19802
#
# Static dielectric constant tensor:
#      x y z
#    x 1.851420 0.000000 -0.020440 
#    y 0.000000 1.818870 0.000000 
#    z -0.020440 0.000000 1.873860 
# 
# From -- ./inp_files/137961.got.cif
#   From: 2010.05.17/outbox.cif.g08.bks.cpg/sg15_69_cif.got.tgz:137961.got - 2010.06.03 18:47:42.
