data_PCOD9260756
_publ_section_title
;
Structure prediction by ZEFSAII (Michael W. Deem and Ramdas Pophale) SiO2 
 PCOD9260756
Probable space group: C 2/C
;
_chemical_formula_sum "Si O2"
_cell_formula_units_Z 60
_cell_length_a 22.253488
_cell_length_b 8.855547
_cell_length_c 16.318976
_cell_angle_alpha 90.000000
_cell_angle_beta 109.776642
_cell_angle_gamma 90.000000
_cell_volume 3026.249154
_symmetry_space_group_name_H-M "C 2/C"
_symmetry_group_IT_number 15
_symmetry_cell_setting 'monoclinic'
loop_
_space_group_symop_operation_xyz
x,y,z
-x,y,1/2-z
-x,-y,-z
x,-y,1/2+z
1/2+x,1/2+y,z
1/2-x,1/2+y,1/2-z
1/2-x,1/2-y,-z
1/2+x,1/2-y,1/2+z
loop_
_atom_site_type_symbol
_atom_site_label
_atom_site_fract_x
_atom_site_fract_y
_atom_site_fract_z
Si Si1 0.735900 0.535332 0.901996
Si Si2 0.167083 0.745862 0.635559
Si Si3 0.500000 0.595917 0.250000
Si Si4 0.052599 0.404744 0.977877
Si Si5 0.141672 0.209966 0.307563
Si Si6 0.156611 0.995673 0.019745
Si Si7 0.518083 0.417573 0.421326
Si Si8 0.651004 0.151260 0.979063
O O1 0.767657 0.674577 0.869691
O O2 0.677559 0.451348 0.830746
O O3 0.712275 0.552425 0.984797
O O4 0.794654 0.421462 0.940574
O O5 0.106213 0.671264 0.561335
O O6 0.157274 0.723471 0.726724
O O7 0.164872 0.922278 0.609854
O O8 0.565812 0.690148 0.288293
O O9 0.489446 0.497906 0.328091
O O10 0.013720 0.263935 0.920889
O O11 0.093238 0.531142 0.947560
O O12 0.000000 0.500000 0.000000
O O13 0.169953 0.309275 0.394721
O O14 0.093491 0.059276 0.948239
O O15 0.142852 0.817697 0.014151
O O16 0.500000 0.500000 0.500000
#
# Coordination Sequence:
#
# PCOD9260756 Si02
#       8
#     8   8   4   8   8   8   8   8
#     4  10  21  40  61  90 124 163 213 258 318 383
#     4  10  23  38  63  93 121 160 215 265 315 374
#     4  12  22  40  64  94 132 168 220 268 318 396
#     4  10  22  40  61  89 124 165 211 259 322 384
#     4  11  23  38  63  93 128 167 212 262 326 385
#     4  10  18  38  63  86 118 164 204 254 313 380
#     4  11  22  39  64  92 125 167 216 262 319 388
#     4  10  21  39  64  87 126 167 205 255 321 389
#
# _framework density 19.826525
#
# number of rings (size 3 to 8) (size 9 to 14) (size 15 to 20)
#    0.000    1.600    2.667    4.400    1.867    2.133 
#    2.400    1.333    0.000    0.000    0.000    0.000 
#    0.000    0.000    0.000    0.000    0.000    0.000 
#
# Total GULP energy -167072.074220 kJ/mol
# GULP energy per Si atom -5569.069141 kJ/mol
# Density = 1.978140 g / cm^3
# Si number density = 19.826525 Si / 1000 Ang^3
#
#
#
# Elastic Constant Matrix: (Units=GPa)
#
#
# Indices 1 2 3 4 5 6 
#
# 1 49.6702 15.9311 -6.9561 0.0000 -1.2816 0.0000
# 2 15.9311 91.7857 29.7911 0.0000 -22.1729 0.0000
# 3 -6.9561 29.7911 62.7419 0.0000 -13.3158 0.0000
# 4 0.0000 0.0000 0.0000 16.9611 0.0000 -5.0821
# 5 -1.2816 -22.1729 -13.3158 0.0000 24.0424 0.0000
# 6 0.0000 0.0000 0.0000 -5.0821 0.0000 28.9043
#
#
#
# Elastic Compliance Matrix: (Units=1/GPa)
#
#
# Indices 1 2 3 4 5 6 
#
# 1 0.022697 -0.005924 0.005016 0.000000 -0.001475 0.000000
# 2 -0.005924 0.016744 -0.006116 0.000000 0.011739 0.000000
# 3 0.005016 -0.006116 0.020690 0.000000 0.006086 0.000000
# 4 0.000000 0.000000 0.000000 0.062237 0.000000 0.010943
# 5 -0.001475 0.011739 0.006086 0.000000 0.055712 0.000000
# 6 0.000000 0.000000 0.000000 0.010943 0.000000 0.036521
#
#
# Mechanical properties :
#
#
# Convention : Reuss Voigt Hill
#
# Bulk Modulus (GPa) = 21.69949 31.30333 26.50141
# Shear Modulus (GPa) = 20.49098 25.01034 22.75066
#
# Velocity S-wave (km/s) = 3.21832 3.55555 3.39113
# Velocity P-wave (km/s) = 4.97780 5.71654 5.35991
#
# Compressibility (1/GPa) = 0.04608403
#
# Stress axis : x y z
#
# Youngs Moduli (GPa) = 44.05813 59.72285 48.33238
#
# Poissons Ratio (x) = 0.35380 -0.24244
# Poissons Ratio (y) = 0.26100 0.29559
# Poissons Ratio (z) = -0.22100 0.36525
#
# Static dielectric constant tensor:
#      x y z
#    x 1.760660 0.000000 -0.007260 
#    y 0.000000 1.806910 0.000000 
#    z -0.007260 0.000000 1.713630 
# 
# From -- ./inp_files/172425.got.cif
#   From: 2010.05.17/outbox.cif.g08.bks.cpg/sg15_87_cif.got.tgz:172425.got - 2010.06.03 18:47:42.
