data_PCOD9260221
_publ_section_title
;
Structure prediction by ZEFSAII (Michael W. Deem and Ramdas Pophale) SiO2 
 PCOD9260221
Probable space group: C 2/C
;
_chemical_formula_sum "Si O2"
_cell_formula_units_Z 40
_cell_length_a 11.718117
_cell_length_b 7.440482
_cell_length_c 18.004890
_cell_angle_alpha 90.000000
_cell_angle_beta 69.212312
_cell_angle_gamma 90.000000
_cell_volume 1467.626159
_symmetry_space_group_name_H-M "C 2/C"
_symmetry_group_IT_number 15
_symmetry_cell_setting 'monoclinic'
loop_
_space_group_symop_operation_xyz
x,y,z
-x,y,1/2-z
-x,-y,-z
x,-y,1/2+z
1/2+x,1/2+y,z
1/2-x,1/2+y,1/2-z
1/2-x,1/2-y,-z
1/2+x,1/2-y,1/2+z
loop_
_atom_site_type_symbol
_atom_site_label
_atom_site_fract_x
_atom_site_fract_y
_atom_site_fract_z
Si Si1 0.178817 0.891171 0.934953
Si Si2 0.607884 0.083752 0.525280
Si Si3 0.265421 0.498520 0.864373
Si Si4 0.053119 0.492269 0.317748
Si Si5 0.998473 0.100129 0.880582
O O1 0.223592 0.692969 0.905130
O O2 0.295877 0.984173 0.944315
O O3 0.079980 0.884783 0.024522
O O4 0.119002 0.997475 0.880287
O O5 0.500000 0.000000 0.500000
O O6 0.700200 0.143294 0.436992
O O7 0.514808 0.149125 0.611129
O O8 0.409289 0.501383 0.842391
O O9 0.198109 0.500717 0.800930
O O10 0.019435 0.698854 0.346365
O O11 0.000000 0.455946 0.250000
#
# Coordination Sequence:
#
# PCOD9260221 Si02
#       5
#     8   8   8   8   8
#     4  10  18  36  65  86 112 146 194 245 280 335
#     4   9  17  35  61  82 111 152 185 233 288 327
#     4  10  19  39  62  82 114 150 195 239 276 341
#     4  11  22  39  57  83 121 155 187 236 294 344
#     4  10  20  38  59  91 113 143 194 241 287 338
#
# _framework density 27.254897
#
# number of rings (size 3 to 8) (size 9 to 14) (size 15 to 20)
#    0.000    2.000    4.000    1.200    0.000    0.000 
#   10.800    5.000    0.000    0.000    0.000    0.000 
#    0.000    0.000    0.000    0.000    0.000    0.000 
#
# Total GULP energy -111573.254857 kJ/mol
# GULP energy per Si atom -5578.662743 kJ/mol
# Density = 2.719286 g / cm^3
# Si number density = 27.254897 Si / 1000 Ang^3
#
#
#
# Elastic Constant Matrix: (Units=GPa)
#
#
# Indices 1 2 3 4 5 6 
#
# 1 188.9111 59.5675 54.4674 0.0000 64.2560 0.0000
# 2 59.5675 83.2264 1.5234 0.0000 9.8134 0.0000
# 3 54.4674 1.5234 125.7002 0.0000 33.0864 0.0000
# 4 0.0000 0.0000 0.0000 18.4010 0.0000 10.2293
# 5 64.2560 9.8134 33.0864 0.0000 59.1900 0.0000
# 6 0.0000 0.0000 0.0000 10.2293 0.0000 32.5000
#
#
#
# Elastic Compliance Matrix: (Units=1/GPa)
#
#
# Indices 1 2 3 4 5 6 
#
# 1 0.011663 -0.007102 -0.002280 0.000000 -0.010209 0.000000
# 2 -0.007102 0.016602 0.001842 0.000000 0.003927 0.000000
# 3 -0.002280 0.001842 0.009791 0.000000 -0.003303 0.000000
# 4 0.000000 0.000000 0.000000 0.065870 0.000000 -0.020732
# 5 -0.010209 0.003927 -0.003303 0.000000 0.029172 0.000000
# 6 0.000000 0.000000 0.000000 -0.020732 0.000000 0.037295
#
#
# Mechanical properties :
#
#
# Convention : Reuss Voigt Hill
#
# Bulk Modulus (GPa) = 43.52542 69.88382 56.70462
# Shear Modulus (GPa) = 25.88924 40.83683 33.36303
#
# Velocity S-wave (km/s) = 3.08538 3.87503 3.50253
# Velocity P-wave (km/s) = 5.35697 6.76148 6.09979
#
# Compressibility (1/GPa) = 0.02297508
#
# Stress axis : x y z
#
# Youngs Moduli (GPa) = 85.74291 60.23504 102.13928
#
# Poissons Ratio (x) = 0.42778 0.23292
# Poissons Ratio (y) = 0.60894 -0.18818
# Poissons Ratio (z) = 0.19553 -0.11098
#
# Static dielectric constant tensor:
#      x y z
#    x 2.126370 0.000000 -0.032270 
#    y 0.000000 2.269400 0.000000 
#    z -0.032270 0.000000 2.196360 
# 
# From -- ./inp_files/195175.got.cif
#   From: 2010.05.17/outbox.cif.g08.bks.cpg/sg15_98_cif.got.tgz:195175.got - 2010.06.03 18:47:42.
