data_PCOD9260386
_publ_section_title
;
Structure prediction by ZEFSAII (Michael W. Deem and Ramdas Pophale) SiO2 
 PCOD9260386
Probable space group: C 2/C
;
_chemical_formula_sum "Si O2"
_cell_formula_units_Z 36
_cell_length_a 21.711831
_cell_length_b 7.851882
_cell_length_c 14.532261
_cell_angle_alpha 90.000000
_cell_angle_beta 136.367376
_cell_angle_gamma 90.000000
_cell_volume 1709.513331
_symmetry_space_group_name_H-M "C 2/C"
_symmetry_group_IT_number 15
_symmetry_cell_setting 'monoclinic'
loop_
_space_group_symop_operation_xyz
x,y,z
-x,y,1/2-z
-x,-y,-z
x,-y,1/2+z
1/2+x,1/2+y,z
1/2-x,1/2+y,1/2-z
1/2-x,1/2-y,-z
1/2+x,1/2-y,1/2+z
loop_
_atom_site_type_symbol
_atom_site_label
_atom_site_fract_x
_atom_site_fract_y
_atom_site_fract_z
Si Si1 0.031501 0.038564 0.931529
Si Si2 0.676755 0.211341 0.843021
Si Si3 0.224543 0.109168 0.097969
Si Si4 0.500000 0.750445 0.250000
Si Si5 0.343873 0.403202 0.186982
O O1 0.948572 0.143180 0.799107
O O2 0.038843 0.873241 0.872399
O O3 0.128757 0.118754 0.041053
O O4 0.000000 0.000000 0.000000
O O5 0.583970 0.157202 0.793097
O O6 0.660731 0.400368 0.785727
O O7 0.717995 0.062803 0.825478
O O8 0.750000 0.250000 0.000000
O O9 0.286600 0.271108 0.183180
O O10 0.196416 0.104414 0.959152
#
# Coordination Sequence:
#
# PCOD9260386 Si02
#       5
#     8   8   8   4   8
#     4  11  20  37  60  83 119 154 184 241 293 334
#     4   9  16  33  58  82 106 148 186 229 283 334
#     4  10  18  37  60  84 109 150 192 228 289 339
#     4  10  18  38  56  80 116 144 190 236 284 342
#     4   9  19  36  57  84 110 147 187 235 281 339
#
# _framework density 21.058626
#
# number of rings (size 3 to 8) (size 9 to 14) (size 15 to 20)
#    0.000    2.222    6.667    0.000    0.000    0.000 
#   20.000    0.000    0.000    6.667    0.000    0.000 
#    0.000    0.000    0.000    0.000    0.000    0.000 
#
# Total GULP energy -100278.965332 kJ/mol
# GULP energy per Si atom -5571.053630 kJ/mol
# Density = 2.101070 g / cm^3
# Si number density = 21.058626 Si / 1000 Ang^3
#
#
#
# Elastic Constant Matrix: (Units=GPa)
#
#
# Indices 1 2 3 4 5 6 
#
# 1 105.8266 71.2031 35.5138 0.0000 46.6114 0.0000
# 2 71.2031 87.0108 24.8381 0.0000 29.1865 0.0000
# 3 35.5138 24.8381 58.6081 0.0000 26.9416 0.0000
# 4 0.0000 0.0000 0.0000 13.2103 0.0000 13.6220
# 5 46.6114 29.1865 26.9416 0.0000 63.2711 0.0000
# 6 0.0000 0.0000 0.0000 13.6220 0.0000 20.6276
#
#
#
# Elastic Compliance Matrix: (Units=1/GPa)
#
#
# Indices 1 2 3 4 5 6 
#
# 1 0.027230 -0.017659 -0.004401 0.000000 -0.010040 0.000000
# 2 -0.017659 0.025681 -0.000892 0.000000 0.001543 0.000000
# 3 -0.004401 -0.000892 0.022913 0.000000 -0.006103 0.000000
# 4 0.000000 0.000000 0.000000 0.237262 0.000000 -0.156682
# 5 -0.010040 0.001543 -0.006103 0.000000 0.025089 0.000000
# 6 0.000000 0.000000 0.000000 -0.156682 0.000000 0.151947
#
#
# Mechanical properties :
#
#
# Convention : Reuss Voigt Hill
#
# Bulk Modulus (GPa) = 33.42290 57.17283 45.29786
# Shear Modulus (GPa) = 9.15755 27.41451 18.28603
#
# Velocity S-wave (km/s) = 2.08759 3.61199 2.94996
# Velocity P-wave (km/s) = 4.66010 6.67859 5.75848
#
# Compressibility (1/GPa) = 0.02991961
#
# Stress axis : x y z
#
# Youngs Moduli (GPa) = 36.72456 38.93999 43.64381
#
# Poissons Ratio (x) = 0.68763 0.19207
# Poissons Ratio (y) = 0.64851 0.03894
# Poissons Ratio (z) = 0.16162 0.03474
#
# Static dielectric constant tensor:
#      x y z
#    x 1.838760 0.000000 -0.069070 
#    y 0.000000 1.795600 0.000000 
#    z -0.069070 0.000000 1.952810 
# 
# From -- ./inp_files/159570.got.cif
#   From: 2010.05.17/outbox.cif.g08.bks.cpg/sg15_80_cif.got.tgz:159570.got - 2010.06.03 18:47:42.
