data_PCOD9260962
_publ_section_title
;
Structure prediction by ZEFSAII (Michael W. Deem and Ramdas Pophale) SiO2 
 PCOD9260962
Probable space group: C 2/C
;
_chemical_formula_sum "Si O2"
_cell_formula_units_Z 52
_cell_length_a 12.695651
_cell_length_b 11.412072
_cell_length_c 20.571414
_cell_angle_alpha 90.000000
_cell_angle_beta 117.070337
_cell_angle_gamma 90.000000
_cell_volume 2653.948208
_symmetry_space_group_name_H-M "C 2/C"
_symmetry_group_IT_number 15
_symmetry_cell_setting 'monoclinic'
loop_
_space_group_symop_operation_xyz
x,y,z
-x,y,1/2-z
-x,-y,-z
x,-y,1/2+z
1/2+x,1/2+y,z
1/2-x,1/2+y,1/2-z
1/2-x,1/2-y,-z
1/2+x,1/2-y,1/2+z
loop_
_atom_site_type_symbol
_atom_site_label
_atom_site_fract_x
_atom_site_fract_y
_atom_site_fract_z
Si Si1 0.869759 0.324082 0.677674
Si Si2 0.370122 0.439452 0.184086
Si Si3 0.500000 0.827465 0.250000
Si Si4 0.412216 0.181414 0.500194
Si Si5 0.329464 0.011584 0.274928
Si Si6 0.640244 0.672879 0.393138
Si Si7 0.542536 0.926188 0.926130
O O1 0.836307 0.191341 0.654259
O O2 0.795765 0.393172 0.710852
O O3 0.875385 0.388658 0.610455
O O4 0.000000 0.325746 0.750000
O O5 0.500000 0.437402 0.250000
O O6 0.284300 0.470306 0.219143
O O7 0.366696 0.536220 0.126827
O O8 0.574859 0.746100 0.318917
O O9 0.407511 0.911254 0.261792
O O10 0.420175 0.281328 0.557334
O O11 0.280579 0.200096 0.434685
O O12 0.515368 0.167804 0.475314
O O13 0.416804 0.051680 0.534675
O O14 0.415531 0.059903 0.355294
#
# Coordination Sequence:
#
# PCOD9260962 Si02
#       7
#     8   8   4   8   8   8   8
#     4   9  20  38  60  88 121 160 208 255 301 363
#     4  11  24  37  57  92 134 159 195 260 328 362
#     4  12  22  38  68  94 118 160 220 260 308 364
#     4  10  21  36  63  89 125 165 212 257 304 368
#     4  11  20  38  63  91 117 162 216 252 299 374
#     4  11  22  36  57  95 128 159 202 263 312 364
#     4  10  18  39  63  87 117 169 214 252 295 377
#
# _framework density 19.593450000000001
#
# number of rings (size 3 to 8) (size 9 to 14) (size 15 to 20)
#    0.000    1.538    6.154    0.000    2.154    1.231 
#    0.000    1.538    0.000    0.000    0.000    0.000 
#    0.000    0.000    0.000    0.000    0.000    0.000 
#
# Total GULP energy -145017.096251 kJ/mol
# GULP energy per Si atom -5577.580625 kJ/mol
# Density = 1.954885 g / cm^3
# Si number density = 19.593450 Si / 1000 Ang^3
#
#
#
# Elastic Constant Matrix: (Units=GPa)
#
#
# Indices 1 2 3 4 5 6 
#
# 1 78.1164 25.7563 23.4243 0.0000 -10.9130 0.0000
# 2 25.7563 94.0837 34.8642 0.0000 -12.0009 0.0000
# 3 23.4243 34.8642 82.1413 0.0000 -15.0631 0.0000
# 4 0.0000 0.0000 0.0000 -0.2365 0.0000 6.6037
# 5 -10.9130 -12.0009 -15.0631 0.0000 16.6632 0.0000
# 6 0.0000 0.0000 0.0000 6.6037 0.0000 8.2223
#
#
#
# Elastic Compliance Matrix: (Units=1/GPa)
#
#
# Indices 1 2 3 4 5 6 
#
# 1 0.015142 -0.002584 -0.002091 0.000000 0.006166 0.000000
# 2 -0.002584 0.013424 -0.004193 0.000000 0.004185 0.000000
# 3 -0.002091 -0.004193 0.016477 0.000000 0.010505 0.000000
# 4 0.000000 0.000000 0.000000 -0.180495 0.000000 0.144964
# 5 0.006166 0.004185 0.010505 0.000000 0.076561 0.000000
# 6 0.000000 0.000000 0.000000 0.144964 0.000000 0.005193
#
#
# Mechanical properties :
#
#
# Convention : Reuss Voigt Hill
#
# Bulk Modulus (GPa) = 36.62147 46.93676 41.77912
# Shear Modulus (GPa) = -186.14476 16.28289 -84.93093
#
# Velocity S-wave (km/s) = -9.75755 2.88590 -6.59096
# Velocity P-wave (km/s) = 10.40265 5.92553 6.04579
#
# Compressibility (1/GPa) = 0.02730639
#
# Stress axis : x y z
#
# Youngs Moduli (GPa) = 66.04310 74.49367 60.69217
#
# Poissons Ratio (x) = 0.19249 0.12688
# Poissons Ratio (y) = 0.17066 0.25450
# Poissons Ratio (z) = 0.13806 0.31238
#
# Static dielectric constant tensor:
#      x y z
#    x 1.683860 0.000000 -0.012160 
#    y 0.000000 1.704320 0.000000 
#    z -0.012160 0.000000 1.702360 
# 
# From -- ./inp_files/237692.got.cif
#   From: 2010.05.17/outbox.cif.g08.bks.cpg/sg15_119_cif.got.tgz:237692.got - 2010.06.03 18:47:42.
