data_PCOD9260741
_publ_section_title
;
Structure prediction by ZEFSAII (Michael W. Deem and Ramdas Pophale) SiO2 
 PCOD9260741
Probable space group: C 2/C
;
_chemical_formula_sum "Si O2"
_cell_formula_units_Z 44
_cell_length_a 7.657354
_cell_length_b 15.622661
_cell_length_c 17.239234
_cell_angle_alpha 90.000000
_cell_angle_beta 66.138985
_cell_angle_gamma 90.000000
_cell_volume 1886.033378
_symmetry_space_group_name_H-M "C 2/C"
_symmetry_group_IT_number 15
_symmetry_cell_setting 'monoclinic'
loop_
_space_group_symop_operation_xyz
x,y,z
-x,y,1/2-z
-x,-y,-z
x,-y,1/2+z
1/2+x,1/2+y,z
1/2-x,1/2+y,1/2-z
1/2-x,1/2-y,-z
1/2+x,1/2-y,1/2+z
loop_
_atom_site_type_symbol
_atom_site_label
_atom_site_fract_x
_atom_site_fract_y
_atom_site_fract_z
Si Si1 0.725667 0.968287 0.096507
Si Si2 0.481076 0.135831 0.153982
Si Si3 0.000000 0.343091 0.250000
Si Si4 0.323675 0.251711 0.645322
Si Si5 0.362236 0.832879 0.506734
Si Si6 0.608966 0.571779 0.310289
O O1 0.606412 0.902982 0.170561
O O2 0.729780 0.916987 0.015742
O O3 0.617444 0.057677 0.104129
O O4 0.894254 0.996897 0.125046
O O5 0.615691 0.215390 0.155874
O O6 0.325590 0.095169 0.241244
O O7 0.370650 0.162435 0.096946
O O8 0.151893 0.289574 0.273612
O O9 0.424522 0.187980 0.566313
O O10 0.441612 0.340194 0.636921
O O11 0.250000 0.750000 0.500000
O O12 0.500000 0.553815 0.250000
#
# Coordination Sequence:
#
# PCOD9260741 Si02
#       6
#     8   8   4   8   8   8
#     4  10  21  41  62  89 126 169 214 259 324 393
#     4  11  22  42  66  93 125 177 217 262 333 389
#     4  10  18  38  62  94 126 162 210 276 314 374
#     4  10  21  38  66  89 131 166 220 261 325 384
#     4  11  24  41  62  96 133 172 216 271 329 378
#     4  11  21  41  65  96 127 170 219 274 323 388
#
# _framework density 23.329387000000001
#
# number of rings (size 3 to 8) (size 9 to 14) (size 15 to 20)
#    0.000    1.455    2.727    3.818    2.545    0.000 
#    3.273   10.000    0.000    0.000    0.000    0.000 
#    0.000    0.000    0.000    0.000    0.000    0.000 
#
# Total GULP energy -122768.005326 kJ/mol
# GULP energy per Si atom -5580.363878 kJ/mol
# Density = 2.327629 g / cm^3
# Si number density = 23.329387 Si / 1000 Ang^3
#
#
#
# Elastic Constant Matrix: (Units=GPa)
#
#
# Indices 1 2 3 4 5 6 
#
# 1 117.5022 35.0995 37.2143 0.0000 20.3289 0.0000
# 2 35.0995 93.0055 22.7816 0.0000 14.3594 0.0000
# 3 37.2143 22.7816 73.6624 0.0000 14.7062 0.0000
# 4 0.0000 0.0000 0.0000 41.3676 0.0000 18.1149
# 5 20.3289 14.3594 14.7062 0.0000 44.0651 0.0000
# 6 0.0000 0.0000 0.0000 18.1149 0.0000 29.6297
#
#
#
# Elastic Compliance Matrix: (Units=1/GPa)
#
#
# Indices 1 2 3 4 5 6 
#
# 1 0.011158 -0.002737 -0.004222 0.000000 -0.002846 0.000000
# 2 -0.002737 0.012630 -0.002093 0.000000 -0.002154 0.000000
# 3 -0.004222 -0.002093 0.016961 0.000000 -0.003031 0.000000
# 4 0.000000 0.000000 0.000000 0.033011 0.000000 -0.020182
# 5 -0.002846 -0.002154 -0.003031 0.000000 0.025720 0.000000
# 6 0.000000 0.000000 0.000000 -0.020182 0.000000 0.046089
#
#
# Mechanical properties :
#
#
# Convention : Reuss Voigt Hill
#
# Bulk Modulus (GPa) = 44.16186 52.70676 48.43431
# Shear Modulus (GPa) = 29.20168 35.61745 32.40957
#
# Velocity S-wave (km/s) = 3.54179 3.91157 3.73126
# Velocity P-wave (km/s) = 5.97466 6.56064 6.27449
#
# Compressibility (1/GPa) = 0.02264398
#
# Stress axis : x y z
#
# Youngs Moduli (GPa) = 89.62377 79.17389 58.95927
#
# Poissons Ratio (x) = 0.21671 0.24893
# Poissons Ratio (y) = 0.24532 0.12342
# Poissons Ratio (z) = 0.37840 0.16573
#
# Static dielectric constant tensor:
#      x y z
#    x 1.997140 0.000000 -0.016980 
#    y 0.000000 1.849320 0.000000 
#    z -0.016980 0.000000 1.956940 
# 
# From -- ./inp_files/188843.got.cif
#   From: 2010.05.17/outbox.cif.g08.bks.cpg/sg15_95_cif.got.tgz:188843.got - 2010.06.03 18:47:42.
