data_PCOD9260267
_publ_section_title
;
Structure prediction by ZEFSAII (Michael W. Deem and Ramdas Pophale) SiO2 
 PCOD9260267
Probable space group: C 2/C
;
_chemical_formula_sum "Si O2"
_cell_formula_units_Z 44
_cell_length_a 11.250859
_cell_length_b 20.215013
_cell_length_c 8.445985
_cell_angle_alpha 90.000000
_cell_angle_beta 96.670543
_cell_angle_gamma 90.000000
_cell_volume 1907.919561
_symmetry_space_group_name_H-M "C 2/C"
_symmetry_group_IT_number 15
_symmetry_cell_setting 'monoclinic'
loop_
_space_group_symop_operation_xyz
x,y,z
-x,y,1/2-z
-x,-y,-z
x,-y,1/2+z
1/2+x,1/2+y,z
1/2-x,1/2+y,1/2-z
1/2-x,1/2-y,-z
1/2+x,1/2-y,1/2+z
loop_
_atom_site_type_symbol
_atom_site_label
_atom_site_fract_x
_atom_site_fract_y
_atom_site_fract_z
Si Si1 0.918876 0.293731 0.454766
Si Si2 0.308488 0.810272 0.114514
Si Si3 0.891160 0.147864 0.360726
Si Si4 0.226004 0.581555 0.112945
Si Si5 0.500000 0.881690 0.750000
Si Si6 0.909055 0.963912 0.103157
O O1 0.815816 0.306954 0.306775
O O2 0.913697 0.214612 0.458678
O O3 0.051870 0.307751 0.409778
O O4 0.924866 0.334914 0.617374
O O5 0.234171 0.616334 0.942903
O O6 0.250000 0.750000 0.000000
O O7 0.781472 0.140924 0.225620
O O8 0.861898 0.093986 0.487655
O O9 0.000000 0.136209 0.250000
O O10 0.307557 0.516378 0.139016
O O11 0.092071 0.574814 0.159477
O O12 0.000000 0.938780 0.250000
O O13 0.000000 0.000000 0.000000
#
# Coordination Sequence:
#
# PCOD9260267 Si02
#       6
#     8   8   8   8   4   8
#     4  10  21  39  63 103 139 179 232 283 358 421
#     4  10  18  36  66  97 134 184 222 284 363 412
#     4  12  21  41  69 101 140 175 228 302 346 408
#     4  11  22  43  64  94 145 182 233 283 344 423
#     4  10  26  44  62 100 148 188 230 286 342 438
#     4  12  24  43  70 101 134 180 235 295 352 401
#
# _framework density 23.061768000000001
#
# number of rings (size 3 to 8) (size 9 to 14) (size 15 to 20)
#    0.000    1.091    7.273    0.000    1.273    0.727 
#    3.273    0.909    0.000    2.182    0.000    0.000 
#    2.727    0.000    0.000    0.000    0.000    0.000 
#
# Total GULP energy -122560.578903 kJ/mol
# GULP energy per Si atom -5570.935405 kJ/mol
# Density = 2.300928 g / cm^3
# Si number density = 23.061768 Si / 1000 Ang^3
#
#
#
# Elastic Constant Matrix: (Units=GPa)
#
#
# Indices 1 2 3 4 5 6 
#
# 1 88.2134 27.8983 27.5517 0.0000 -11.2273 0.0000
# 2 27.8983 89.4746 34.7833 0.0000 -1.7364 0.0000
# 3 27.5517 34.7833 114.0421 0.0000 17.1504 0.0000
# 4 0.0000 0.0000 0.0000 25.4091 0.0000 10.6783
# 5 -11.2273 -1.7364 17.1504 0.0000 37.4767 0.0000
# 6 0.0000 0.0000 0.0000 10.6783 0.0000 13.9382
#
#
#
# Elastic Compliance Matrix: (Units=1/GPa)
#
#
# Indices 1 2 3 4 5 6 
#
# 1 0.014024 -0.002973 -0.003321 0.000000 0.005583 0.000000
# 2 -0.002973 0.013538 -0.003620 0.000000 0.001393 0.000000
# 3 -0.003321 -0.003620 0.011652 0.000000 -0.006495 0.000000
# 4 0.000000 0.000000 0.000000 0.058044 0.000000 -0.044468
# 5 0.005583 0.001393 -0.006495 0.000000 0.031393 0.000000
# 6 0.000000 0.000000 0.000000 -0.044468 0.000000 0.105813
#
#
# Mechanical properties :
#
#
# Convention : Reuss Voigt Hill
#
# Bulk Modulus (GPa) = 51.58653 52.46631 52.02642
# Shear Modulus (GPa) = 19.17510 28.79792 23.98651
#
# Velocity S-wave (km/s) = 2.88665 3.53757 3.22855
# Velocity P-wave (km/s) = 5.79031 6.28376 6.04207
#
# Compressibility (1/GPa) = 0.01938491
#
# Stress axis : x y z
#
# Youngs Moduli (GPa) = 71.30441 73.86671 85.82255
#
# Poissons Ratio (x) = 0.21964 0.28501
# Poissons Ratio (y) = 0.21202 0.31070
# Poissons Ratio (z) = 0.23680 0.26742
#
# Static dielectric constant tensor:
#      x y z
#    x 1.973200 0.000000 -0.026910 
#    y 0.000000 1.032030 0.000000 
#    z -0.026910 0.000000 2.012970 
# 
# From -- ./inp_files/31415.got.cif
#   From: 2010.05.17/outbox.cif.g08.bks.cpg/sg15_16_cif.got.tgz:31415.got - 2010.06.03 18:47:42.
