data_PCOD9260020
_publ_section_title
;
Structure prediction by ZEFSAII (Michael W. Deem and Ramdas Pophale) SiO2 
 PCOD9260020
Probable space group: C 2/C
;
_chemical_formula_sum "Si O2"
_cell_formula_units_Z 64
_cell_length_a 19.988182
_cell_length_b 15.958689
_cell_length_c 16.731274
_cell_angle_alpha 90.000000
_cell_angle_beta 146.806031
_cell_angle_gamma 90.000000
_cell_volume 2921.890410
_symmetry_space_group_name_H-M "C 2/C"
_symmetry_group_IT_number 15
_symmetry_cell_setting 'monoclinic'
loop_
_space_group_symop_operation_xyz
x,y,z
-x,y,1/2-z
-x,-y,-z
x,-y,1/2+z
1/2+x,1/2+y,z
1/2-x,1/2+y,1/2-z
1/2-x,1/2-y,-z
1/2+x,1/2-y,1/2+z
loop_
_atom_site_type_symbol
_atom_site_label
_atom_site_fract_x
_atom_site_fract_y
_atom_site_fract_z
Si Si1 0.208395 0.058406 0.795995
Si Si2 0.223579 0.774718 0.221461
Si Si3 0.517589 0.310207 0.884771
Si Si4 0.404447 0.971313 0.080879
Si Si5 0.411680 0.853177 0.304989
Si Si6 0.201544 0.072851 0.493159
Si Si7 0.966436 0.081812 0.634377
Si Si8 0.845451 0.107594 0.346252
O O1 0.198021 0.987583 0.715914
O O2 0.188600 0.154363 0.750020
O O3 0.337323 0.047672 0.970008
O O4 0.093835 0.038355 0.738182
O O5 0.124624 0.779796 0.052167
O O6 0.358300 0.809191 0.329919
O O7 0.240284 0.676689 0.253827
O O8 0.593925 0.360901 0.895840
O O9 0.446107 0.227405 0.785683
O O10 0.427715 0.365026 0.851652
O O11 0.500000 0.987887 0.250000
O O12 0.474671 0.915052 0.086616
O O13 0.287633 0.923002 0.001751
O O14 0.298462 0.905958 0.159098
O O15 0.138381 0.984260 0.446366
O O16 0.920900 0.115854 0.503897
O O17 0.000000 0.131412 0.750000
#
# Coordination Sequence:
#
# PCOD9260020 Si02
#       8
#     8   8   8   8   8   8   8   8
#     4  12  22  41  72  96 127 177 215 269 328 379
#     4  10  22  38  62  99 130 165 225 271 317 386
#     4  10  18  36  60  92 129 169 214 265 324 385
#     4  10  22  40  59  91 134 174 216 263 328 398
#     4   9  20  36  58  87 132 168 208 271 322 388
#     4  10  20  37  59  91 125 170 218 259 318 396
#     4  12  23  41  68  98 126 169 220 269 325 386
#     4  11  22  39  67  98 129 166 218 274 318 378
#
# _framework density 21.903628000000001
#
# number of rings (size 3 to 8) (size 9 to 14) (size 15 to 20)
#    0.000    1.500    3.750    2.625    0.000    1.000 
#    0.000   13.125    0.000    0.000    0.000    0.000 
#    0.000    0.000    0.000    0.000    0.000    0.000 
#
# Total GULP energy -178250.277512 kJ/mol
# GULP energy per Si atom -5570.321172 kJ/mol
# Density = 2.185377 g / cm^3
# Si number density = 21.903628 Si / 1000 Ang^3
#
#
#
# Elastic Constant Matrix: (Units=GPa)
#
#
# Indices 1 2 3 4 5 6 
#
# 1 58.5491 14.8822 30.1200 0.0000 12.2253 0.0000
# 2 14.8822 41.7893 24.3802 0.0000 6.4708 0.0000
# 3 30.1200 24.3802 99.1492 0.0000 -1.0193 0.0000
# 4 0.0000 0.0000 0.0000 28.3244 0.0000 13.8780
# 5 12.2253 6.4708 -1.0193 0.0000 27.8963 0.0000
# 6 0.0000 0.0000 0.0000 13.8780 0.0000 10.9708
#
#
#
# Elastic Compliance Matrix: (Units=1/GPa)
#
#
# Indices 1 2 3 4 5 6 
#
# 1 0.023157 -0.003018 -0.006392 0.000000 -0.009682 0.000000
# 2 -0.003018 0.029655 -0.006435 0.000000 -0.005791 0.000000
# 3 -0.006392 -0.006435 0.013659 0.000000 0.004793 0.000000
# 4 0.000000 0.000000 0.000000 0.092862 0.000000 -0.117470
# 5 -0.009682 -0.005791 0.004793 0.000000 0.041608 0.000000
# 6 0.000000 0.000000 0.000000 -0.117470 0.000000 0.239752
#
#
# Mechanical properties :
#
#
# Convention : Reuss Voigt Hill
#
# Bulk Modulus (GPa) = 28.75130 37.58360 33.16745
# Shear Modulus (GPa) = 10.33107 22.11198 16.22152
#
# Velocity S-wave (km/s) = 2.17413 3.18073 2.72432
# Velocity P-wave (km/s) = 4.41103 5.53943 5.00712
#
# Compressibility (1/GPa) = 0.03478103
#
# Stress axis : x y z
#
# Youngs Moduli (GPa) = 43.18397 33.72088 73.21117
#
# Poissons Ratio (x) = 0.10178 0.46796
# Poissons Ratio (y) = 0.13035 0.47109
# Poissons Ratio (z) = 0.27603 0.21698
#
# Static dielectric constant tensor:
#      x y z
#    x 1.878500 0.000000 -0.034700 
#    y 0.000000 1.854280 0.000000 
#    z -0.034700 0.000000 1.841830 
# 
# From -- ./inp_files/216185.got.cif
#   From: 2010.05.17/outbox.cif.g08.bks.cpg/sg15_109_cif.got.tgz:216185.got - 2010.06.03 18:47:42.
