data_PCOD9260361
_publ_section_title
;
Structure prediction by ZEFSAII (Michael W. Deem and Ramdas Pophale) SiO2 
 PCOD9260361
Probable space group: C 2/C
;
_chemical_formula_sum "Si O2"
_cell_formula_units_Z 56
_cell_length_a 16.428208
_cell_length_b 17.435641
_cell_length_c 26.228695
_cell_angle_alpha 90.000000
_cell_angle_beta 156.031979
_cell_angle_gamma 90.000000
_cell_volume 3051.920758
_symmetry_space_group_name_H-M "C 2/C"
_symmetry_group_IT_number 15
_symmetry_cell_setting 'monoclinic'
loop_
_space_group_symop_operation_xyz
x,y,z
-x,y,1/2-z
-x,-y,-z
x,-y,1/2+z
1/2+x,1/2+y,z
1/2-x,1/2+y,1/2-z
1/2-x,1/2-y,-z
1/2+x,1/2-y,1/2+z
loop_
_atom_site_type_symbol
_atom_site_label
_atom_site_fract_x
_atom_site_fract_y
_atom_site_fract_z
Si Si1 0.564074 0.505275 0.618066
Si Si2 0.692359 0.203556 0.036986
Si Si3 0.727842 0.853715 0.222769
Si Si4 0.782277 0.427240 0.650432
Si Si5 0.490172 0.348089 0.626021
Si Si6 0.360535 0.228399 0.374834
Si Si7 0.208933 0.245278 0.841849
O O1 0.672694 0.563619 0.718329
O O2 0.724150 0.474611 0.667797
O O3 0.388522 0.549616 0.487746
O O4 0.469226 0.432532 0.592297
O O5 0.511905 0.146171 0.918636
O O6 0.619323 0.285291 0.972283
O O7 0.887557 0.170647 0.121417
O O8 0.703224 0.217291 0.103107
O O9 0.795975 0.809240 0.313082
O O10 0.789999 0.802088 0.209951
O O11 0.768146 0.336470 0.654437
O O12 0.000000 0.442282 0.750000
O O13 0.726926 0.330648 0.766097
O O14 0.600184 0.221191 0.514340
O O15 0.000000 0.232611 0.750000
#
# Coordination Sequence:
#
# PCOD9260361 Si02
#       7
#     8   8   8   8   8   8   8
#     4  11  22  38  57  91 124 152 195 260 304 354
#     4   9  20  37  58  84 116 160 203 243 288 374
#     4  10  21  36  60  87 118 155 198 248 303 355
#     4  10  22  39  61  85 120 157 197 252 307 346
#     4  10  21  36  58  88 119 157 204 243 302 356
#     4  10  18  37  59  82 112 156 198 245 290 353
#     4  10  21  41  60  86 117 158 208 244 290 367
#
# _framework density 18.3491
#
# number of rings (size 3 to 8) (size 9 to 14) (size 15 to 20)
#    0.000    2.000    1.429    3.000    4.000    0.571 
#    2.571    4.286    0.000    0.000    0.000    0.000 
#    0.000    0.000    0.000    0.000    0.000    0.000 
#
# Total GULP energy -156145.847420 kJ/mol
# GULP energy per Si atom -5576.637408 kJ/mol
# Density = 1.830734 g / cm^3
# Si number density = 18.349100 Si / 1000 Ang^3
#
#
#
# Elastic Constant Matrix: (Units=GPa)
#
#
# Indices 1 2 3 4 5 6 
#
# 1 52.7094 31.6108 49.8888 -0.0012 14.2080 0.0003
# 2 31.6108 96.9740 42.8793 0.0044 5.2979 -0.0002
# 3 49.8888 42.8793 105.3665 0.0121 12.0447 0.0005
# 4 -0.0012 0.0044 0.0121 20.2891 0.0017 -5.0793
# 5 14.2080 5.2979 12.0447 0.0017 29.3271 -0.0005
# 6 0.0003 -0.0002 0.0005 -5.0793 -0.0005 22.7482
#
#
#
# Elastic Compliance Matrix: (Units=1/GPa)
#
#
# Indices 1 2 3 4 5 6 
#
# 1 0.040119 -0.005644 -0.015312 0.000015 -0.012128 0.000003
# 2 -0.005644 0.013370 -0.002943 -0.000002 0.001528 0.000000
# 3 -0.015312 -0.002943 0.017868 -0.000012 0.000611 -0.000003
# 4 0.000015 -0.000002 -0.000012 0.052206 -0.000005 0.011657
# 5 -0.012128 0.001528 0.000611 -0.000005 0.039447 0.000000
# 6 0.000003 0.000000 -0.000003 0.011657 0.000000 0.046562
#
#
# Mechanical properties :
#
#
# Convention : Reuss Voigt Hill
#
# Bulk Modulus (GPa) = 42.44840 55.97864 49.21352
# Shear Modulus (GPa) = 18.85203 23.18427 21.01815
#
# Velocity S-wave (km/s) = 3.20880 3.55844 3.38814
# Velocity P-wave (km/s) = 6.07557 6.88892 6.49499
#
# Compressibility (1/GPa) = 0.02355801
#
# Stress axis : x y z
#
# Youngs Moduli (GPa) = 24.92599 74.79518 55.96477
#
# Poissons Ratio (x) = 0.42218 0.85693
# Poissons Ratio (y) = 0.14069 0.16471
# Poissons Ratio (z) = 0.38167 0.22013
#
# Static dielectric constant tensor:
#      x y z
#    x 1.649420 0.000000 0.015900 
#    y 0.000000 1.619590 0.000000 
#    z 0.015900 0.000000 1.636970 
# 
# From -- ./inp_files/299350.got.cif
#   From: 2010.05.17/outbox.cif.g08.bks.cpg/sg15_150_cif.got.tgz:299350.got - 2010.06.03 18:47:42.
