data_PCOD9260563
_publ_section_title
;
Structure prediction by ZEFSAII (Michael W. Deem and Ramdas Pophale) SiO2 
 PCOD9260563
Probable space group: C 2/C
;
_chemical_formula_sum "Si O2"
_cell_formula_units_Z 40
_cell_length_a 10.559201
_cell_length_b 12.479056
_cell_length_c 12.396226
_cell_angle_alpha 90.000000
_cell_angle_beta 78.338540
_cell_angle_gamma 90.000000
_cell_volume 1599.720801
_symmetry_space_group_name_H-M "C 2/C"
_symmetry_group_IT_number 15
_symmetry_cell_setting 'monoclinic'
loop_
_space_group_symop_operation_xyz
x,y,z
-x,y,1/2-z
-x,-y,-z
x,-y,1/2+z
1/2+x,1/2+y,z
1/2-x,1/2+y,1/2-z
1/2-x,1/2-y,-z
1/2+x,1/2-y,1/2+z
loop_
_atom_site_type_symbol
_atom_site_label
_atom_site_fract_x
_atom_site_fract_y
_atom_site_fract_z
Si Si1 0.953195 0.074177 0.655794
Si Si2 0.377336 0.625308 0.054041
Si Si3 0.521702 0.959705 0.369010
Si Si4 0.243727 0.288490 0.296672
Si Si5 0.869478 0.245142 0.398798
O O1 0.871256 0.172320 0.714512
O O2 0.000000 0.007686 0.750000
O O3 0.083634 0.113339 0.576292
O O4 0.868734 0.995814 0.597569
O O5 0.261434 0.702155 0.106632
O O6 0.511788 0.676370 0.076302
O O7 0.500000 0.016003 0.250000
O O8 0.658459 0.894277 0.340734
O O9 0.417927 0.865854 0.380047
O O10 0.500000 0.000000 0.500000
O O11 0.173194 0.218210 0.214428
O O12 0.750000 0.250000 0.500000
#
# Coordination Sequence:
#
# PCOD9260563 Si02
#       5
#     8   8   8   8   8
#     4  11  23  40  63  91 124 161 208 260 313 375
#     4  10  22  41  64  91 118 163 214 249 311 380
#     4   9  20  37  59  94 128 160 209 263 315 382
#     4  10  21  40  61  90 123 161 211 260 308 375
#     4  10  18  37  68  86 115 163 213 258 299 377
#
# _framework density 25.004363999999999
#
# number of rings (size 3 to 8) (size 9 to 14) (size 15 to 20)
#    0.000    2.000    2.000    3.000    0.000    4.000 
#    3.600    4.000    0.000    0.000    0.000    0.000 
#    0.000    0.000    0.000    0.000    0.000    0.000 
#
# Total GULP energy -111464.464594 kJ/mol
# GULP energy per Si atom -5573.223230 kJ/mol
# Density = 2.494745 g / cm^3
# Si number density = 25.004364 Si / 1000 Ang^3
#
#
#
# Elastic Constant Matrix: (Units=GPa)
#
#
# Indices 1 2 3 4 5 6 
#
# 1 53.6270 12.7369 21.5049 0.0000 -24.9807 0.0000
# 2 12.7369 71.0868 45.6875 0.0000 -14.5386 0.0000
# 3 21.5049 45.6875 182.9507 0.0000 -10.0110 0.0000
# 4 0.0000 0.0000 0.0000 34.1148 0.0000 -1.5528
# 5 -24.9807 -14.5386 -10.0110 0.0000 50.4873 0.0000
# 6 0.0000 0.0000 0.0000 -1.5528 0.0000 11.4557
#
#
#
# Elastic Compliance Matrix: (Units=1/GPa)
#
#
# Indices 1 2 3 4 5 6 
#
# 1 0.025185 -0.000722 -0.002133 0.000000 0.011830 0.000000
# 2 -0.000722 0.017634 -0.004105 0.000000 0.003907 0.000000
# 3 -0.002133 -0.004105 0.006692 0.000000 -0.000910 0.000000
# 4 0.000000 0.000000 0.000000 0.029495 0.000000 0.003998
# 5 0.011830 0.003907 -0.000910 0.000000 0.026605 0.000000
# 6 0.000000 0.000000 0.000000 0.003998 0.000000 0.087834
#
#
# Mechanical properties :
#
#
# Convention : Reuss Voigt Hill
#
# Bulk Modulus (GPa) = 28.09692 51.94701 40.02196
# Shear Modulus (GPa) = 22.80723 34.39390 28.60057
#
# Velocity S-wave (km/s) = 3.02343 3.71282 3.38571
# Velocity P-wave (km/s) = 4.84245 6.26101 5.59686
#
# Compressibility (1/GPa) = 0.03559109
#
# Stress axis : x y z
#
# Youngs Moduli (GPa) = 39.70616 56.70872 149.43361
#
# Poissons Ratio (x) = 0.04096 0.31869
# Poissons Ratio (y) = 0.02868 0.61342
# Poissons Ratio (z) = 0.08468 0.23279
#
# Static dielectric constant tensor:
#      x y z
#    x 2.196260 0.000000 -0.059860 
#    y 0.000000 1.917340 0.000000 
#    z -0.059860 0.000000 2.312820 
# 
# From -- ./inp_files/85514.got.cif
#   From: 2010.05.17/outbox.cif.g08.bks.cpg/sg15_43_cif.got.tgz:85514.got - 2010.06.03 18:47:42.
