data_PCOD9260253
_publ_section_title
;
Structure prediction by ZEFSAII (Michael W. Deem and Ramdas Pophale) SiO2 
 PCOD9260253
Probable space group: C 2/C
;
_chemical_formula_sum "Si O2"
_cell_formula_units_Z 36
_cell_length_a 16.136781
_cell_length_b 11.724296
_cell_length_c 12.400106
_cell_angle_alpha 90.000000
_cell_angle_beta 127.645732
_cell_angle_gamma 90.000000
_cell_volume 1857.572978
_symmetry_space_group_name_H-M "C 2/C"
_symmetry_group_IT_number 15
_symmetry_cell_setting 'monoclinic'
loop_
_space_group_symop_operation_xyz
x,y,z
-x,y,1/2-z
-x,-y,-z
x,-y,1/2+z
1/2+x,1/2+y,z
1/2-x,1/2+y,1/2-z
1/2-x,1/2-y,-z
1/2+x,1/2-y,1/2+z
loop_
_atom_site_type_symbol
_atom_site_label
_atom_site_fract_x
_atom_site_fract_y
_atom_site_fract_z
Si Si1 0.670825 0.273069 0.099641
Si Si2 0.754814 0.329951 0.399318
Si Si3 0.727230 0.071919 0.993285
Si Si4 0.000000 0.472521 0.750000
Si Si5 0.492776 0.868309 0.531625
O O1 0.694150 0.295504 0.243260
O O2 0.707243 0.379995 0.056103
O O3 0.552765 0.223654 0.007770
O O4 0.730230 0.167413 0.089276
O O5 0.750000 0.250000 0.500000
O O6 0.728444 0.455746 0.422354
O O7 0.873768 0.335233 0.452012
O O8 0.604507 0.045234 0.863435
O O9 0.037869 0.387075 0.686777
O O10 0.500000 0.000000 0.500000
#
# Coordination Sequence:
#
# PCOD9260253 Si02
#       5
#     8   8   8   4   8
#     4  11  22  39  66  95 128 162 215 265 316 362
#     4  11  24  39  67  93 131 164 209 263 317 374
#     4  10  23  38  63 101 125 165 211 266 315 367
#     4  10  18  36  66  90 126 152 222 256 296 378
#     4  11  20  39  65  94 116 165 215 254 302 378
#
# _framework density 19.380127000000002
#
# number of rings (size 3 to 8) (size 9 to 14) (size 15 to 20)
#    0.000    1.333    4.444    4.000    3.111    0.000 
#    0.000    1.111    4.889    0.000    0.000    0.000 
#    0.000    0.000    0.000    0.000    0.000    0.000 
#
# Total GULP energy -100209.243120 kJ/mol
# GULP energy per Si atom -5567.180173 kJ/mol
# Density = 1.933602 g / cm^3
# Si number density = 19.380127 Si / 1000 Ang^3
#
#
#
# Elastic Constant Matrix: (Units=GPa)
#
#
# Indices 1 2 3 4 5 6 
#
# 1 113.4773 42.0868 1.4268 0.0000 -6.5842 0.0000
# 2 42.0868 86.9935 22.7001 0.0000 -6.6079 0.0000
# 3 1.4268 22.7001 42.1244 0.0000 -12.9445 0.0000
# 4 0.0000 0.0000 0.0000 30.2226 0.0000 -10.4867
# 5 -6.5842 -6.6079 -12.9445 0.0000 30.0775 0.0000
# 6 0.0000 0.0000 0.0000 -10.4867 0.0000 48.0746
#
#
#
# Elastic Compliance Matrix: (Units=1/GPa)
#
#
# Indices 1 2 3 4 5 6 
#
# 1 0.011230 -0.006220 0.003811 0.000000 0.002732 0.000000
# 2 -0.006220 0.016822 -0.009377 0.000000 -0.001702 0.000000
# 3 0.003811 -0.009377 0.032598 0.000000 0.012803 0.000000
# 4 0.000000 0.000000 0.000000 0.035797 0.000000 0.007809
# 5 0.002732 -0.001702 0.012803 0.000000 0.038982 0.000000
# 6 0.000000 0.000000 0.000000 0.007809 0.000000 0.022504
#
#
# Mechanical properties :
#
#
# Convention : Reuss Voigt Hill
#
# Bulk Modulus (GPa) = 26.97089 41.66917 34.32003
# Shear Modulus (GPa) = 25.79132 33.43372 29.61252
#
# Velocity S-wave (km/s) = 3.65199 4.15800 3.91318
# Velocity P-wave (km/s) = 5.63291 6.67830 6.17776
#
# Compressibility (1/GPa) = 0.03707701
#
# Stress axis : x y z
#
# Youngs Moduli (GPa) = 89.04934 59.44658 30.67707
#
# Poissons Ratio (x) = 0.36974 -0.11691
# Poissons Ratio (y) = 0.55386 0.28766
# Poissons Ratio (z) = -0.33935 0.55744
#
# Static dielectric constant tensor:
#      x y z
#    x 1.715610 0.000000 -0.061300 
#    y 0.000000 1.690160 0.000000 
#    z -0.061300 0.000000 1.871320 
# 
# From -- ./inp_files/94758.got.cif
#   From: 2010.05.17/outbox.cif.g08.bks.cpg/sg15_48_cif.got.tgz:94758.got - 2010.06.03 18:47:42.
