data_PCOD9260584
_publ_section_title
;
Structure prediction by ZEFSAII (Michael W. Deem and Ramdas Pophale) SiO2 
 PCOD9260584
Probable space group: C 2/C
;
_chemical_formula_sum "Si O2"
_cell_formula_units_Z 52
_cell_length_a 21.744609
_cell_length_b 20.754684
_cell_length_c 9.327231
_cell_angle_alpha 90.000000
_cell_angle_beta 151.522420
_cell_angle_gamma 90.000000
_cell_volume 2007.105609
_symmetry_space_group_name_H-M "C 2/C"
_symmetry_group_IT_number 15
_symmetry_cell_setting 'monoclinic'
loop_
_space_group_symop_operation_xyz
x,y,z
-x,y,1/2-z
-x,-y,-z
x,-y,1/2+z
1/2+x,1/2+y,z
1/2-x,1/2+y,1/2-z
1/2-x,1/2-y,-z
1/2+x,1/2-y,1/2+z
loop_
_atom_site_type_symbol
_atom_site_label
_atom_site_fract_x
_atom_site_fract_y
_atom_site_fract_z
Si Si1 0.684538 0.068085 0.859187
Si Si2 0.000000 0.327315 0.250000
Si Si3 0.247162 0.296391 0.624375
Si Si4 0.116419 0.231400 0.810864
Si Si5 0.875236 0.907453 0.257884
Si Si6 0.080514 0.375989 0.699055
Si Si7 0.672321 0.501613 0.602757
O O1 0.538064 0.078018 0.503532
O O2 0.768997 0.048074 0.897199
O O3 0.734204 0.134132 0.028516
O O4 0.714629 0.022109 0.055789
O O5 0.111854 0.283037 0.423682
O O6 0.065028 0.373583 0.496438
O O7 0.250000 0.250000 0.500000
O O8 0.351087 0.287949 0.960046
O O9 0.049233 0.301615 0.677463
O O10 0.250000 0.250000 0.000000
O O11 0.063699 0.164489 0.632846
O O12 0.730164 0.891787 0.020758
O O13 0.871877 0.941637 0.092799
O O14 0.918617 0.960041 0.466745
#
# Coordination Sequence:
#
# PCOD9260584 Si02
#       7
#     8   4   8   8   8   8   8
#     4  10  22  37  54  88 124 164 207 243 298 382
#     4  10  18  38  52  82 120 150 198 246 316 356
#     4  11  22  37  60  85 120 163 211 267 304 363
#     4  10  19  37  55  78 112 165 207 252 312 345
#     4  10  19  34  51  76 111 158 201 241 293 358
#     4  10  20  33  57  75 116 169 199 246 302 360
#     4  10  21  34  54  80 121 167 200 237 299 375
#
# _framework density 25.907955000000001
#
# number of rings (size 3 to 8) (size 9 to 14) (size 15 to 20)
#    0.000    1.846    4.615    0.923    4.308    4.308 
#    2.769    0.000    0.000    0.000    0.000    0.000 
#    0.000   51.692    0.000    0.000    0.000    0.000 
#
# Total GULP energy -145123.384405 kJ/mol
# GULP energy per Si atom -5581.668631 kJ/mol
# Density = 2.584899 g / cm^3
# Si number density = 25.907955 Si / 1000 Ang^3
#
#
#
# Elastic Constant Matrix: (Units=GPa)
#
#
# Indices 1 2 3 4 5 6 
#
# 1 110.0416 30.8238 23.7976 0.0000 -12.8252 0.0000
# 2 30.8238 157.0345 28.6490 0.0000 -13.8504 0.0000
# 3 23.7976 28.6490 73.1339 0.0000 -17.0932 0.0000
# 4 0.0000 0.0000 0.0000 30.0538 0.0000 0.7526
# 5 -12.8252 -13.8504 -17.0932 0.0000 45.4406 0.0000
# 6 0.0000 0.0000 0.0000 0.7526 0.0000 26.4019
#
#
#
# Elastic Compliance Matrix: (Units=1/GPa)
#
#
# Indices 1 2 3 4 5 6 
#
# 1 0.010184 -0.001426 -0.002396 0.000000 0.001539 0.000000
# 2 -0.001426 0.007116 -0.002095 0.000000 0.000979 0.000000
# 3 -0.002396 -0.002095 0.016409 0.000000 0.004858 0.000000
# 4 0.000000 0.000000 0.000000 0.033297 0.000000 -0.000949
# 5 0.001539 0.000979 0.004858 0.000000 0.024567 0.000000
# 6 0.000000 0.000000 0.000000 -0.000949 0.000000 0.037903
#
#
# Mechanical properties :
#
#
# Convention : Reuss Voigt Hill
#
# Bulk Modulus (GPa) = 45.71168 56.30562 51.00865
# Shear Modulus (GPa) = 33.64667 37.50856 35.57762
#
# Velocity S-wave (km/s) = 3.60766 3.80908 3.70973
# Velocity P-wave (km/s) = 5.91910 6.41292 6.17095
#
# Compressibility (1/GPa) = 0.02187625
#
# Stress axis : x y z
#
# Youngs Moduli (GPa) = 98.18945 140.51862 60.94155
#
# Poissons Ratio (x) = 0.20042 0.14599
# Poissons Ratio (y) = 0.14005 0.12767
# Poissons Ratio (z) = 0.23523 0.29438
#
# Static dielectric constant tensor:
#      x y z
#    x 2.177790 0.000000 0.256230 
#    y 0.000000 2.239020 0.000000 
#    z 0.256230 0.000000 2.444840 
# 
# From -- ./inp_files/63459.got.cif
#   From: 2010.05.17/outbox.cif.g08.bks.cpg/sg15_32_cif.got.tgz:63459.got - 2010.06.03 18:47:42.
