data_PCOD9260719
_publ_section_title
;
Structure prediction by ZEFSAII (Michael W. Deem and Ramdas Pophale) SiO2 
 PCOD9260719
Probable space group: C 2/C
;
_chemical_formula_sum "Si O2"
_cell_formula_units_Z 52
_cell_length_a 10.590168
_cell_length_b 20.424922
_cell_length_c 14.251619
_cell_angle_alpha 90.000000
_cell_angle_beta 118.285324
_cell_angle_gamma 90.000000
_cell_volume 2714.598028
_symmetry_space_group_name_H-M "C 2/C"
_symmetry_group_IT_number 15
_symmetry_cell_setting 'monoclinic'
loop_
_space_group_symop_operation_xyz
x,y,z
-x,y,1/2-z
-x,-y,-z
x,-y,1/2+z
1/2+x,1/2+y,z
1/2-x,1/2+y,1/2-z
1/2-x,1/2-y,-z
1/2+x,1/2-y,1/2+z
loop_
_atom_site_type_symbol
_atom_site_label
_atom_site_fract_x
_atom_site_fract_y
_atom_site_fract_z
Si Si1 0.968173 0.683874 0.581728
Si Si2 0.221184 0.620767 0.411063
Si Si3 0.790680 0.354286 0.200674
Si Si4 0.491086 0.707336 0.561126
Si Si5 0.455423 0.068795 0.439441
Si Si6 0.166572 0.490421 0.777051
Si Si7 0.500000 0.206037 0.250000
O O1 0.870391 0.680454 0.640525
O O2 0.128974 0.671666 0.677931
O O3 0.973381 0.747201 0.516856
O O4 0.913675 0.622038 0.501748
O O5 0.348557 0.664678 0.494904
O O6 0.094420 0.602776 0.439490
O O7 0.264193 0.551049 0.382180
O O8 0.140339 0.660425 0.299458
O O9 0.625697 0.337859 0.132035
O O10 0.808209 0.432590 0.210355
O O11 0.478987 0.752827 0.648551
O O12 0.500000 0.000000 0.500000
O O13 0.334505 0.045472 0.323624
O O14 0.000000 0.482685 0.750000
#
# Coordination Sequence:
#
# PCOD9260719 Si02
#       7
#     8   8   8   8   8   8   4
#     4  11  21  40  62  86 120 166 207 242 295 378
#     4  11  22  39  61  91 121 152 199 260 303 354
#     4  11  23  40  62  88 121 163 207 246 300 370
#     4  12  26  37  59  92 130 156 196 255 319 361
#     4  11  19  34  66  91 109 154 211 251 292 355
#     4  10  18  38  62  87 114 152 203 253 289 356
#     4  12  22  40  62  88 120 162 200 244 304 372
#
# _framework density 19.155691000000001
#
# number of rings (size 3 to 8) (size 9 to 14) (size 15 to 20)
#    0.000    0.923    6.923    2.769    2.154    0.615 
#    0.000    0.000    0.000    1.846    0.000    0.000 
#    0.000    0.000    0.000    0.000    0.000    0.000 
#
# Total GULP energy -144994.430518 kJ/mol
# GULP energy per Si atom -5576.708866 kJ/mol
# Density = 1.911209 g / cm^3
# Si number density = 19.155691 Si / 1000 Ang^3
#
#
#
# Elastic Constant Matrix: (Units=GPa)
#
#
# Indices 1 2 3 4 5 6 
#
# 1 28.8151 22.8492 20.7802 0.0000 9.2817 0.0000
# 2 22.8492 100.3557 49.5155 0.0000 8.8760 0.0000
# 3 20.7802 49.5155 90.7782 0.0000 6.3217 0.0000
# 4 0.0000 0.0000 0.0000 -193.1738 0.0000 -78.6066
# 5 9.2817 8.8760 6.3217 0.0000 33.3275 0.0000
# 6 0.0000 0.0000 0.0000 -78.6066 0.0000 -24.6244
#
#
#
# Elastic Compliance Matrix: (Units=1/GPa)
#
#
# Indices 1 2 3 4 5 6 
#
# 1 0.048193 -0.006799 -0.006602 0.000000 -0.010359 0.000000
# 2 -0.006799 0.014762 -0.006439 0.000000 -0.000817 0.000000
# 3 -0.006602 -0.006439 0.016003 0.000000 0.000518 0.000000
# 4 0.000000 0.000000 0.000000 0.017314 0.000000 -0.055270
# 5 -0.010359 -0.000817 0.000518 0.000000 0.033009 0.000000
# 6 0.000000 0.000000 0.000000 -0.055270 0.000000 0.135826
#
#
# Mechanical properties :
#
#
# Convention : Reuss Voigt Hill
#
# Bulk Modulus (GPa) = 25.45921 45.13764 35.29843
# Shear Modulus (GPa) = 15.72926 -28.44051 -6.35563
#
# Velocity S-wave (km/s) = 2.86864 -3.85736 -1.82348
# Velocity P-wave (km/s) = 4.92866 1.94312 3.74616
#
# Compressibility (1/GPa) = 0.03927852
#
# Stress axis : x y z
#
# Youngs Moduli (GPa) = 20.74978 67.74344 62.48831
#
# Poissons Ratio (x) = 0.46060 0.41255
# Poissons Ratio (y) = 0.14108 0.40233
# Poissons Ratio (z) = 0.13699 0.43617
#
# Static dielectric constant tensor:
#      x y z
#    x 1.693360 0.000000 -0.050530 
#    y 0.000000 1.725710 0.000000 
#    z -0.050530 0.000000 1.699960 
# 
# From -- ./inp_files/147231.got.cif
#   From: 2010.05.17/outbox.cif.g08.bks.cpg/sg15_74_cif.got.tgz:147231.got - 2010.06.03 18:47:42.
