data_PCOD9260154
_publ_section_title
;
Structure prediction by ZEFSAII (Michael W. Deem and Ramdas Pophale) SiO2 
 PCOD9260154
Probable space group: C 2/C
;
_chemical_formula_sum "Si O2"
_cell_formula_units_Z 48
_cell_length_a 5.003180
_cell_length_b 17.874937
_cell_length_c 24.068838
_cell_angle_alpha 90.000000
_cell_angle_beta 97.526182
_cell_angle_gamma 90.000000
_cell_volume 2133.969285
_symmetry_space_group_name_H-M "C 2/C"
_symmetry_group_IT_number 15
_symmetry_cell_setting 'monoclinic'
loop_
_space_group_symop_operation_xyz
x,y,z
-x,y,1/2-z
-x,-y,-z
x,-y,1/2+z
1/2+x,1/2+y,z
1/2-x,1/2+y,1/2-z
1/2-x,1/2-y,-z
1/2+x,1/2-y,1/2+z
loop_
_atom_site_type_symbol
_atom_site_label
_atom_site_fract_x
_atom_site_fract_y
_atom_site_fract_z
Si Si1 0.000000 0.334530 0.750000
Si Si2 0.782386 0.965624 0.626595
Si Si3 0.472430 0.918033 0.044187
Si Si4 0.833562 0.705077 0.360415
Si Si5 0.370855 0.248878 0.920257
Si Si6 0.577602 0.592089 0.029022
Si Si7 0.500000 0.558182 0.250000
O O1 0.084307 0.284623 0.700502
O O2 0.257169 0.388951 0.765260
O O3 0.637423 0.884505 0.629101
O O4 0.008263 0.945649 0.586258
O O5 0.894811 0.983187 0.691485
O O6 0.597858 0.030671 0.596011
O O7 0.529267 0.831555 0.059489
O O8 0.160437 0.926517 0.020546
O O9 0.642517 0.929197 0.991921
O O10 0.535280 0.729069 0.368995
O O11 0.051366 0.748079 0.403006
O O12 0.435189 0.318391 0.962163
#
# Coordination Sequence:
#
# PCOD9260154 Si02
#       7
#     4   8   8   8   8   8   4
#     4  10  18  36  63  90 109 154 212 254 292 346
#     4  10  23  41  63  91 119 157 207 252 301 358
#     4  12  24  38  61  91 127 161 197 250 308 361
#     4  10  21  38  62  86 118 157 205 252 294 362
#     4  11  22  39  58  88 125 162 196 245 307 362
#     4  11  22  38  61  89 122 162 205 247 292 362
#     4  10  22  38  63  90 119 152 196 258 308 352
#
# _framework density 22.493296000000001
#
# number of rings (size 3 to 8) (size 9 to 14) (size 15 to 20)
#    0.000    1.333    0.000    8.000    0.000    6.667 
#    0.000    0.833    0.000    6.000    0.000    0.000 
#    0.000    0.000    0.000    0.000    0.000    0.000 
#
# Total GULP energy -134289.540577 kJ/mol
# GULP energy per Si atom -5595.397524 kJ/mol
# Density = 2.244210 g / cm^3
# Si number density = 22.493296 Si / 1000 Ang^3
#
#
#
# Elastic Constant Matrix: (Units=GPa)
#
#
# Indices 1 2 3 4 5 6 
#
# 1 95.8978 1.3664 16.3917 0.0000 -0.8327 0.0000
# 2 1.3664 77.3216 28.1504 0.0000 2.1785 0.0000
# 3 16.3917 28.1504 139.4894 0.0000 5.2925 0.0000
# 4 0.0000 0.0000 0.0000 22.6247 0.0000 3.3982
# 5 -0.8327 2.1785 5.2925 0.0000 33.7278 0.0000
# 6 0.0000 0.0000 0.0000 3.3982 0.0000 20.6117
#
#
#
# Elastic Compliance Matrix: (Units=1/GPa)
#
#
# Indices 1 2 3 4 5 6 
#
# 1 0.010654 0.000282 -0.001326 0.000000 0.000453 0.000000
# 2 0.000282 0.013973 -0.002836 0.000000 -0.000451 0.000000
# 3 -0.001326 -0.002836 0.007939 0.000000 -0.001095 0.000000
# 4 0.000000 0.000000 0.000000 0.045322 0.000000 -0.007472
# 5 0.000453 -0.000451 -0.001095 0.000000 0.029861 0.000000
# 6 0.000000 0.000000 0.000000 -0.007472 0.000000 0.049748
#
#
# Mechanical properties :
#
#
# Convention : Reuss Voigt Hill
#
# Bulk Modulus (GPa) = 40.31328 44.94729 42.63028
# Shear Modulus (GPa) = 28.81402 33.17951 30.99676
#
# Velocity S-wave (km/s) = 3.58300 3.84485 3.71623
# Velocity P-wave (km/s) = 5.92270 6.30368 6.11616
#
# Compressibility (1/GPa) = 0.02480572
#
# Stress axis : x y z
#
# Youngs Moduli (GPa) = 93.85834 71.56564 125.96498
#
# Poissons Ratio (x) = -0.02016 0.16704
# Poissons Ratio (y) = -0.02644 0.35723
# Poissons Ratio (z) = 0.12446 0.20296
#
# Static dielectric constant tensor:
#      x y z
#    x 1.836010 0.000000 0.007500 
#    y 0.000000 1.858290 0.000000 
#    z 0.007500 0.000000 1.883690 
# 
# From -- ./inp_files/260774.got.cif
#   From: 2010.05.17/outbox.cif.g08.bks.cpg/sg15_131_cif.got.tgz:260774.got - 2010.06.03 18:47:42.
