data_PCOD9260552
_publ_section_title
;
Structure prediction by ZEFSAII (Michael W. Deem and Ramdas Pophale) SiO2 
 PCOD9260552
Probable space group: C 2/C
;
_chemical_formula_sum "Si O2"
_cell_formula_units_Z 60
_cell_length_a 30.944307
_cell_length_b 14.807373
_cell_length_c 21.055235
_cell_angle_alpha 90.000000
_cell_angle_beta 161.284324
_cell_angle_gamma 90.000000
_cell_volume 3095.643011
_symmetry_space_group_name_H-M "C 2/C"
_symmetry_group_IT_number 15
_symmetry_cell_setting 'monoclinic'
loop_
_space_group_symop_operation_xyz
x,y,z
-x,y,1/2-z
-x,-y,-z
x,-y,1/2+z
1/2+x,1/2+y,z
1/2-x,1/2+y,1/2-z
1/2-x,1/2-y,-z
1/2+x,1/2-y,1/2+z
loop_
_atom_site_type_symbol
_atom_site_label
_atom_site_fract_x
_atom_site_fract_y
_atom_site_fract_z
Si Si1 0.196541 0.465162 0.582986
Si Si2 0.567543 0.109765 0.107495
Si Si3 0.162780 0.335010 0.864534
Si Si4 0.281854 0.965879 0.249035
Si Si5 0.022217 0.660121 0.658839
Si Si6 0.021348 0.143463 0.352728
Si Si7 0.725718 0.463113 0.947071
Si Si8 0.000000 0.613154 0.250000
O O1 0.254507 0.497454 0.731466
O O2 0.286232 0.446205 0.645936
O O3 0.095112 0.384248 0.460711
O O4 0.108966 0.546705 0.432584
O O5 0.617537 0.177978 0.229333
O O6 0.696656 0.046207 0.271809
O O7 0.439042 0.065953 0.965540
O O8 0.513590 0.141541 0.964532
O O9 0.047148 0.330445 0.756086
O O10 0.250000 0.250000 0.000000
O O11 0.227447 0.435298 0.967656
O O12 0.172765 0.891803 0.076964
O O13 0.020850 0.766889 0.667846
O O14 0.158376 0.606046 0.866381
O O15 0.916934 0.063441 0.222374
O O16 0.000000 0.168002 0.250000
#
# Coordination Sequence:
#
# PCOD9260552 Si02
#       8
#     8   8   8   8   8   8   8   4
#     4  10  18  37  67  86 117 163 211 247 300 373
#     4  10  20  40  64  87 120 162 208 255 307 373
#     4  11  22  40  65  90 116 160 208 255 308 375
#     4  10  21  39  64  88 122 166 207 255 311 364
#     4  11  21  37  65  93 118 167 214 250 307 379
#     4  12  25  38  59  93 131 165 205 264 314 367
#     4  11  22  40  62  89 127 163 206 256 315 366
#     4  10  18  38  64  88 112 154 200 252 296 362
#
# _framework density 19.382079999999998
#
# number of rings (size 3 to 8) (size 9 to 14) (size 15 to 20)
#    0.000    1.333    4.000    4.400    0.000    3.733 
#    3.600    1.333    0.000    0.000    0.000    0.000 
#    0.000    0.000    0.000    0.000    0.000    0.000 
#
# Total GULP energy -167107.477484 kJ/mol
# GULP energy per Si atom -5570.249249 kJ/mol
# Density = 1.933797 g / cm^3
# Si number density = 19.382080 Si / 1000 Ang^3
#
#
#
# Elastic Constant Matrix: (Units=GPa)
#
#
# Indices 1 2 3 4 5 6 
#
# 1 102.7303 28.2741 11.2544 0.0000 -22.2515 0.0000
# 2 28.2741 55.8556 37.7041 0.0000 -5.1501 0.0000
# 3 11.2544 37.7041 38.6774 0.0000 -8.3437 0.0000
# 4 0.0000 0.0000 0.0000 31.4588 0.0000 0.0077
# 5 -22.2515 -5.1501 -8.3437 0.0000 28.3379 0.0000
# 6 0.0000 0.0000 0.0000 0.0077 0.0000 9.8404
#
#
#
# Elastic Compliance Matrix: (Units=1/GPa)
#
#
# Indices 1 2 3 4 5 6 
#
# 1 0.015548 -0.016183 0.014150 0.000000 0.013434 0.000000
# 2 -0.016183 0.070136 -0.067971 0.000000 -0.019974 0.000000
# 3 0.014150 -0.067971 0.093680 0.000000 0.026341 0.000000
# 4 0.000000 0.000000 0.000000 0.031788 0.000000 -0.000025
# 5 0.013434 -0.019974 0.026341 0.000000 0.049962 0.000000
# 6 0.000000 0.000000 0.000000 -0.000025 0.000000 0.101622
#
#
# Mechanical properties :
#
#
# Convention : Reuss Voigt Hill
#
# Bulk Modulus (GPa) = 25.40938 39.08094 32.24516
# Shear Modulus (GPa) = 9.69250 21.92945 15.81098
#
# Velocity S-wave (km/s) = 2.23866 3.36732 2.85924
# Velocity P-wave (km/s) = 4.45200 5.94354 5.25100
#
# Compressibility (1/GPa) = 0.03935555
#
# Stress axis : x y z
#
# Youngs Moduli (GPa) = 64.31750 14.25806 10.67461
#
# Poissons Ratio (x) = 0.23074 -0.15104
# Poissons Ratio (y) = 1.04087 0.72556
# Poissons Ratio (z) = -0.91008 0.96913
#
# Static dielectric constant tensor:
#      x y z
#    x 1.668840 0.000000 -0.012460 
#    y 0.000000 1.656150 0.000000 
#    z -0.012460 0.000000 1.618950 
# 
# From -- ./inp_files/259396.got.cif
#   From: 2010.05.17/outbox.cif.g08.bks.cpg/sg15_130_cif.got.tgz:259396.got - 2010.06.03 18:47:42.
