data_PCOD9260208
_publ_section_title
;
Structure prediction by ZEFSAII (Michael W. Deem and Ramdas Pophale) SiO2 
 PCOD9260208
Probable space group: C 2/C
;
_chemical_formula_sum "Si O2"
_cell_formula_units_Z 56
_cell_length_a 22.865169
_cell_length_b 8.175676
_cell_length_c 21.625009
_cell_angle_alpha 90.000000
_cell_angle_beta 36.577983
_cell_angle_gamma 90.000000
_cell_volume 2409.015939
_symmetry_space_group_name_H-M "C 2/C"
_symmetry_group_IT_number 15
_symmetry_cell_setting 'monoclinic'
loop_
_space_group_symop_operation_xyz
x,y,z
-x,y,1/2-z
-x,-y,-z
x,-y,1/2+z
1/2+x,1/2+y,z
1/2-x,1/2+y,1/2-z
1/2-x,1/2-y,-z
1/2+x,1/2-y,1/2+z
loop_
_atom_site_type_symbol
_atom_site_label
_atom_site_fract_x
_atom_site_fract_y
_atom_site_fract_z
Si Si1 0.998563 0.872884 0.596657
Si Si2 0.000000 0.765846 0.750000
Si Si3 0.793204 0.435957 0.125758
Si Si4 0.629596 0.492513 0.178754
Si Si5 0.484119 0.962680 0.158855
Si Si6 0.552037 0.683091 0.493003
Si Si7 0.154965 0.669875 0.307927
Si Si8 0.500000 0.798784 0.750000
O O1 0.037871 0.689355 0.578183
O O2 0.930074 0.845123 0.594587
O O3 0.072222 0.018398 0.514217
O O4 0.933476 0.946162 0.707698
O O5 0.945806 0.646279 0.748880
O O6 0.910153 0.889111 0.841797
O O7 0.739824 0.492514 0.108780
O O8 0.897757 0.349258 0.026895
O O9 0.802054 0.576715 0.169363
O O10 0.729858 0.285027 0.207860
O O11 0.590275 0.314774 0.194429
O O12 0.397093 0.034837 0.191598
O O13 0.530888 0.104391 0.161514
O O14 0.435973 0.716261 0.595415
#
# Coordination Sequence:
#
# PCOD9260208 Si02
#       8
#     8   4   8   8   8   8   8   4
#     4  10  20  38  60  89 130 167 209 252 323 378
#     4   8  20  34  64  92 116 170 220 256 320 364
#     4  12  24  38  64  97 128 166 212 265 323 396
#     4  10  19  39  62  94 122 166 213 264 312 380
#     4  10  19  37  64  91 120 168 213 263 311 379
#     4  11  23  40  60  94 137 174 199 260 334 385
#     4  12  25  40  63  99 131 164 212 264 327 388
#     4  10  18  36  64  94 120 164 224 256 314 366
#
# _framework density 23.246006999999999
#
# number of rings (size 3 to 8) (size 9 to 14) (size 15 to 20)
#    0.000    1.429    4.286    1.286    4.000    0.000 
#    0.000    0.000    0.000   15.429    0.000    0.000 
#    0.000    0.000    0.000    0.000    0.000    0.000 
#
# Total GULP energy -155997.834122 kJ/mol
# GULP energy per Si atom -5571.351219 kJ/mol
# Density = 2.319310 g / cm^3
# Si number density = 23.246007 Si / 1000 Ang^3
#
#
#
# Elastic Constant Matrix: (Units=GPa)
#
#
# Indices 1 2 3 4 5 6 
#
# 1 97.0155 28.9907 -2.6500 -0.0005 -4.6476 0.0003
# 2 28.9907 113.0040 -8.5181 0.0009 6.3224 0.0007
# 3 -2.6500 -8.5181 28.3604 0.0008 5.8011 -0.0002
# 4 -0.0005 0.0009 0.0008 24.7907 -0.0010 15.7266
# 5 -4.6476 6.3224 5.8011 -0.0010 24.2079 0.0002
# 6 0.0003 0.0007 -0.0002 15.7266 0.0002 56.9451
#
#
#
# Elastic Compliance Matrix: (Units=1/GPa)
#
#
# Indices 1 2 3 4 5 6 
#
# 1 0.011380 -0.003133 -0.000517 0.000001 0.003127 0.000000
# 2 -0.003133 0.010155 0.003599 -0.000001 -0.004116 0.000000
# 3 -0.000517 0.003599 0.038387 -0.000002 -0.010238 0.000001
# 4 0.000001 -0.000001 -0.000002 0.048906 0.000003 -0.013506
# 5 0.003127 -0.004116 -0.010238 0.000003 0.045438 -0.000001
# 6 0.000000 0.000000 0.000001 -0.013506 -0.000001 0.021291
#
#
# Mechanical properties :
#
#
# Convention : Reuss Voigt Hill
#
# Bulk Modulus (GPa) = 16.71727 30.44722 23.58225
# Shear Modulus (GPa) = 25.56254 35.89256 30.72755
#
# Velocity S-wave (km/s) = 3.31970 3.93368 3.63966
# Velocity P-wave (km/s) = 4.67984 5.81017 5.27537
#
# Compressibility (1/GPa) = 0.05981837
#
# Stress axis : x y z
#
# Youngs Moduli (GPa) = 87.87630 98.47669 26.05028
#
# Poissons Ratio (x) = 0.30856 0.01348
# Poissons Ratio (y) = 0.27535 -0.09376
# Poissons Ratio (z) = 0.04547 -0.35443
#
# Static dielectric constant tensor:
#      x y z
#    x 1.985920 0.000000 0.072900 
#    y 0.000000 1.965300 0.000000 
#    z 0.072900 0.000000 1.954100 
# 
# From -- ./inp_files/281483.got.cif
#   From: 2010.05.17/outbox.cif.g08.bks.cpg/sg15_141_cif.got.tgz:281483.got - 2010.06.03 18:47:42.
