data_PCOD9260418
_publ_section_title
;
Structure prediction by ZEFSAII (Michael W. Deem and Ramdas Pophale) SiO2 
 PCOD9260418
Probable space group: C 2/C
;
_chemical_formula_sum "Si O2"
_cell_formula_units_Z 64
_cell_length_a 11.336108
_cell_length_b 21.374195
_cell_length_c 20.812991
_cell_angle_alpha 90.000000
_cell_angle_beta 35.610366
_cell_angle_gamma 90.000000
_cell_volume 2936.383017
_symmetry_space_group_name_H-M "C 2/C"
_symmetry_group_IT_number 15
_symmetry_cell_setting 'monoclinic'
loop_
_space_group_symop_operation_xyz
x,y,z
-x,y,1/2-z
-x,-y,-z
x,-y,1/2+z
1/2+x,1/2+y,z
1/2-x,1/2+y,1/2-z
1/2-x,1/2-y,-z
1/2+x,1/2-y,1/2+z
loop_
_atom_site_type_symbol
_atom_site_label
_atom_site_fract_x
_atom_site_fract_y
_atom_site_fract_z
Si Si1 0.156806 0.858303 0.059885
Si Si2 0.793359 0.405857 0.376816
Si Si3 0.780173 0.206306 0.691674
Si Si4 0.876447 0.952473 0.251761
Si Si5 0.503516 0.866207 0.085334
Si Si6 0.770793 0.956796 0.580122
Si Si7 0.191608 0.444205 0.755736
Si Si8 0.123698 0.340343 0.889698
O O1 0.011678 0.800028 0.112348
O O2 0.040258 0.898683 0.165015
O O3 0.138817 0.905873 0.007959
O O4 0.384235 0.840269 0.976008
O O5 0.741254 0.344973 0.356377
O O6 0.667787 0.470172 0.437091
O O7 0.000000 0.426853 0.250000
O O8 0.840805 0.386929 0.428612
O O9 0.633172 0.185137 0.815235
O O10 0.757899 0.276686 0.678454
O O11 0.658980 0.920642 0.360933
O O12 0.000000 0.991392 0.250000
O O13 0.827165 0.996478 0.213972
O O14 0.614945 0.848904 0.970351
O O15 0.753570 0.923630 0.657167
O O16 0.544014 0.962694 0.648422
O O17 0.208914 0.395247 0.806258
#
# Coordination Sequence:
#
# PCOD9260418 Si02
#       8
#     8   8   8   8   8   8   8   8
#     4  10  22  36  60  87 120 157 204 253 311 370
#     4  10  18  37  62  85 113 158 204 251 306 361
#     4  10  23  38  58  86 117 163 211 248 293 372
#     4  11  20  37  57  89 116 153 196 251 315 374
#     4  10  21  39  63  81 116 161 200 252 305 368
#     4  10  18  37  61  89 118 154 202 266 310 360
#     4  10  21  35  59  87 122 152 201 255 313 362
#     4  11  23  40  57  89 124 163 205 249 310 372
#
# _framework density 21.795521000000001
#
# number of rings (size 3 to 8) (size 9 to 14) (size 15 to 20)
#    0.000    1.750    3.750    1.875    0.000    5.000 
#    0.000    4.375    0.000    0.000    0.000    0.000 
#    0.000    0.000    0.000    0.000    0.000    0.000 
#
# Total GULP energy -178383.885921 kJ/mol
# GULP energy per Si atom -5574.496435 kJ/mol
# Density = 2.174591 g / cm^3
# Si number density = 21.795521 Si / 1000 Ang^3
#
#
#
# Elastic Constant Matrix: (Units=GPa)
#
#
# Indices 1 2 3 4 5 6 
#
# 1 80.7591 31.3380 22.9443 0.0195 31.3698 -0.0061
# 2 31.3380 96.9364 39.9362 0.0421 19.4186 -0.0160
# 3 22.9443 39.9362 60.3973 0.0644 28.6335 -0.0259
# 4 0.0195 0.0421 0.0644 20.6030 -0.0170 4.0879
# 5 31.3698 19.4186 28.6335 -0.0170 41.6756 0.0057
# 6 -0.0061 -0.0160 -0.0259 4.0879 0.0057 13.7740
#
#
#
# Elastic Compliance Matrix: (Units=1/GPa)
#
#
# Indices 1 2 3 4 5 6 
#
# 1 0.018673 -0.004187 0.002096 -0.000031 -0.013545 0.000022
# 2 -0.004187 0.015119 -0.009730 0.000007 0.002792 -0.000006
# 3 0.002096 -0.009730 0.030838 -0.000111 -0.018232 0.000088
# 4 -0.000031 0.000007 -0.000111 0.051574 0.000120 -0.015306
# 5 -0.013545 0.002792 -0.018232 0.000120 0.045416 -0.000091
# 6 0.000022 -0.000006 0.000088 -0.015306 -0.000091 0.077143
#
#
# Mechanical properties :
#
#
# Convention : Reuss Voigt Hill
#
# Bulk Modulus (GPa) = 24.39717 47.39219 35.89468
# Shear Modulus (GPa) = 18.11153 24.80214 21.45683
#
# Velocity S-wave (km/s) = 2.88579 3.37701 3.14102
# Velocity P-wave (km/s) = 4.72458 6.08250 5.44603
#
# Compressibility (1/GPa) = 0.04098836
#
# Stress axis : x y z
#
# Youngs Moduli (GPa) = 53.55339 66.14214 32.42746
#
# Poissons Ratio (x) = 0.27693 -0.06798
# Poissons Ratio (y) = 0.22423 0.31552
# Poissons Ratio (z) = -0.11227 0.64357
#
# Static dielectric constant tensor:
#      x y z
#    x 1.872160 0.000000 -0.012300 
#    y 0.000000 1.780800 0.000020 
#    z -0.012300 0.000020 1.809580 
# 
# From -- ./inp_files/240419.got.cif
#   From: 2010.05.17/outbox.cif.g08.bks.cpg/sg15_121_cif.got.tgz:240419.got - 2010.06.03 18:47:42.
