data_PCOD9260055
_publ_section_title
;
Structure prediction by ZEFSAII (Michael W. Deem and Ramdas Pophale) SiO2 
 PCOD9260055
Probable space group: C 2/C
;
_chemical_formula_sum "Si O2"
_cell_formula_units_Z 52
_cell_length_a 7.531804
_cell_length_b 29.093210
_cell_length_c 11.424163
_cell_angle_alpha 90.000000
_cell_angle_beta 57.844960
_cell_angle_gamma 90.000000
_cell_volume 2119.331909
_symmetry_space_group_name_H-M "C 2/C"
_symmetry_group_IT_number 15
_symmetry_cell_setting 'monoclinic'
loop_
_space_group_symop_operation_xyz
x,y,z
-x,y,1/2-z
-x,-y,-z
x,-y,1/2+z
1/2+x,1/2+y,z
1/2-x,1/2+y,1/2-z
1/2-x,1/2-y,-z
1/2+x,1/2-y,1/2+z
loop_
_atom_site_type_symbol
_atom_site_label
_atom_site_fract_x
_atom_site_fract_y
_atom_site_fract_z
Si Si1 0.143781 0.722868 0.431310
Si Si2 0.784056 0.373275 0.680212
Si Si3 0.765271 0.523692 0.093812
Si Si4 0.188218 0.700538 0.780014
Si Si5 0.732830 0.002418 0.655541
Si Si6 0.500000 0.623242 0.750000
Si Si7 0.245036 0.898806 0.937274
O O1 0.250000 0.750000 0.500000
O O2 0.255075 0.674121 0.371326
O O3 0.173274 0.756735 0.312574
O O4 0.913170 0.712989 0.559949
O O5 0.754178 0.422263 0.628420
O O6 0.665866 0.374061 0.847015
O O7 0.035829 0.374175 0.611472
O O8 0.685275 0.498857 0.240771
O O9 0.668002 0.522666 0.997329
O O10 0.000000 0.500000 0.000000
O O11 0.325990 0.655492 0.750042
O O12 0.000000 0.693350 0.750000
O O13 0.500000 0.024371 0.750000
O O14 0.703948 0.949669 0.625965
O O15 0.607527 0.597870 0.602385
#
# Coordination Sequence:
#
# PCOD9260055 Si02
#       7
#     8   8   8   8   8   4   8
#     4  10  22  42  61  87 131 174 209 281 334 389
#     4  10  18  36  61  90 129 169 229 267 333 415
#     4   9  15  28  55  92 124 170 219 273 332 406
#     4  10  24  43  62  91 128 165 221 275 334 395
#     4   9  15  30  53  91 132 166 220 272 333 404
#     4  12  24  38  68  98 124 174 226 274 346 402
#     4  10  19  34  59  96 127 164 219 284 321 405
#
# _framework density 24.536034999999998
#
# number of rings (size 3 to 8) (size 9 to 14) (size 15 to 20)
#    0.000    2.154    6.154    0.000    2.154    1.846 
#    0.000   10.000    0.000    3.692    6.000    0.000 
#    0.000    0.000    0.000    0.000    0.000    0.615 
#
# Total GULP energy -145147.173863 kJ/mol
# GULP energy per Si atom -5582.583610 kJ/mol
# Density = 2.448019 g / cm^3
# Si number density = 24.536035 Si / 1000 Ang^3
#
#
#
# Elastic Constant Matrix: (Units=GPa)
#
#
# Indices 1 2 3 4 5 6 
#
# 1 90.5624 24.3045 43.9550 0.0000 16.9837 0.0000
# 2 24.3045 81.2392 52.1142 0.0000 30.5380 0.0000
# 3 43.9550 52.1142 251.3944 0.0000 19.0676 0.0000
# 4 0.0000 0.0000 0.0000 -9.4630 0.0000 1.9569
# 5 16.9837 30.5380 19.0676 0.0000 43.0125 0.0000
# 6 0.0000 0.0000 0.0000 1.9569 0.0000 20.9803
#
#
#
# Elastic Compliance Matrix: (Units=1/GPa)
#
#
# Indices 1 2 3 4 5 6 
#
# 1 0.012884 -0.001558 -0.001684 0.000000 -0.003234 0.000000
# 2 -0.001558 0.018904 -0.002768 0.000000 -0.011579 0.000000
# 3 -0.001684 -0.002768 0.004808 0.000000 0.000499 0.000000
# 4 0.000000 0.000000 0.000000 -0.103675 0.000000 0.009670
# 5 -0.003234 -0.011579 0.000499 0.000000 0.032526 0.000000
# 6 0.000000 0.000000 0.000000 0.009670 0.000000 0.046762
#
#
# Mechanical properties :
#
#
# Convention : Reuss Voigt Hill
#
# Bulk Modulus (GPa) = 40.69194 73.77151 57.23173
# Shear Modulus (GPa) = 154.21421 31.09411 92.65416
#
# Velocity S-wave (km/s) = 7.93653 3.56375 6.15179
# Velocity P-wave (km/s) = 10.03022 6.86044 8.59276
#
# Compressibility (1/GPa) = 0.02457489
#
# Stress axis : x y z
#
# Youngs Moduli (GPa) = 77.61306 52.89955 207.97319
#
# Poissons Ratio (x) = 0.08243 0.35031
# Poissons Ratio (y) = 0.12095 0.57568
# Poissons Ratio (z) = 0.13073 0.14643
#
# Static dielectric constant tensor:
#      x y z
#    x 2.128410 0.000000 0.014810 
#    y 0.000000 1.917500 0.000000 
#    z 0.014810 0.000000 2.005430 
# 
# From -- ./inp_files/81190.got.cif
#   From: 2010.05.17/outbox.cif.g08.bks.cpg/sg15_41_cif.got.tgz:81190.got - 2010.06.03 18:47:42.
