data_PCOD9260958
_publ_section_title
;
Structure prediction by ZEFSAII (Michael W. Deem and Ramdas Pophale) SiO2 
 PCOD9260958
Probable space group: C 2/C
;
_chemical_formula_sum "Si O2"
_cell_formula_units_Z 36
_cell_length_a 12.320628
_cell_length_b 13.506125
_cell_length_c 14.666255
_cell_angle_alpha 90.000000
_cell_angle_beta 146.529811
_cell_angle_gamma 90.000000
_cell_volume 1345.955657
_symmetry_space_group_name_H-M "C 2/C"
_symmetry_group_IT_number 15
_symmetry_cell_setting 'monoclinic'
loop_
_space_group_symop_operation_xyz
x,y,z
-x,y,1/2-z
-x,-y,-z
x,-y,1/2+z
1/2+x,1/2+y,z
1/2-x,1/2+y,1/2-z
1/2-x,1/2-y,-z
1/2+x,1/2-y,1/2+z
loop_
_atom_site_type_symbol
_atom_site_label
_atom_site_fract_x
_atom_site_fract_y
_atom_site_fract_z
Si Si1 0.164699 0.598639 0.303753
Si Si2 0.000000 0.063546 0.750000
Si Si3 0.139709 0.300405 0.043721
Si Si4 0.307505 0.232834 0.435021
Si Si5 0.976939 0.911681 0.883879
O O1 0.295611 0.688685 0.436412
O O2 0.315095 0.546310 0.340582
O O3 0.000000 0.545300 0.250000
O O4 0.022495 0.664383 0.140489
O O5 0.823593 0.128322 0.664248
O O6 0.067725 0.992828 0.880665
O O7 0.021773 0.311208 0.056710
O O8 0.250000 0.250000 0.500000
O O9 0.150222 0.164411 0.271644
O O10 0.360232 0.347071 0.449169
#
# Coordination Sequence:
#
# PCOD9260958 Si02
#       5
#     8   4   8   8   8
#     4  10  20  40  63  89 112 167 214 245 290 389
#     4  12  22  40  58  98 128 158 194 266 320 360
#     4  10  23  35  69  86 124 159 211 247 313 355
#     4  10  18  39  62  92 112 168 206 248 284 389
#     4  10  22  37  67  88 125 156 211 251 315 355
#
# _framework density 26.746793
#
# number of rings (size 3 to 8) (size 9 to 14) (size 15 to 20)
#    0.000    1.778    3.333    0.667    0.000    3.556 
#    0.000    1.111    4.889    0.000    0.000    0.000 
#    0.000    0.000    0.000    0.000    0.000    0.000 
#
# Total GULP energy -100516.549511 kJ/mol
# GULP energy per Si atom -5584.252751 kJ/mol
# Density = 2.668592 g / cm^3
# Si number density = 26.746793 Si / 1000 Ang^3
#
#
#
# Elastic Constant Matrix: (Units=GPa)
#
#
# Indices 1 2 3 4 5 6 
#
# 1 230.3950 39.6157 26.3682 0.0016 31.7725 0.0008
# 2 39.6157 110.5730 37.2073 0.0014 19.8090 0.0008
# 3 26.3682 37.2073 78.5232 0.0037 15.2845 0.0016
# 4 0.0016 0.0014 0.0037 31.8912 0.0020 6.6215
# 5 31.7725 19.8090 15.2845 0.0020 41.6118 0.0008
# 6 0.0008 0.0008 0.0016 6.6215 0.0008 44.8568
#
#
#
# Elastic Compliance Matrix: (Units=1/GPa)
#
#
# Indices 1 2 3 4 5 6 
#
# 1 0.005017 -0.001042 -0.000584 0.000000 -0.003120 0.000000
# 2 -0.001042 0.011471 -0.004499 0.000000 -0.003012 0.000000
# 3 -0.000584 -0.004499 0.015680 -0.000001 -0.003172 0.000000
# 4 0.000000 0.000000 -0.000001 0.032348 -0.000001 -0.004775
# 5 -0.003120 -0.003012 -0.003172 -0.000001 0.029013 0.000000
# 6 0.000000 0.000000 0.000000 -0.004775 0.000000 0.022998
#
#
# Mechanical properties :
#
#
# Convention : Reuss Voigt Hill
#
# Bulk Modulus (GPa) = 50.20444 69.54148 59.87296
# Shear Modulus (GPa) = 36.92344 44.75863 40.84103
#
# Velocity S-wave (km/s) = 3.71951 4.09518 3.91186
# Velocity P-wave (km/s) = 6.10388 6.95824 6.54502
#
# Compressibility (1/GPa) = 0.01991856
#
# Stress axis : x y z
#
# Youngs Moduli (GPa) = 199.33858 87.17875 63.77422
#
# Poissons Ratio (x) = 0.09084 0.03721
# Poissons Ratio (y) = 0.20772 0.28692
# Poissons Ratio (z) = 0.11632 0.39221
#
# Static dielectric constant tensor:
#      x y z
#    x 2.210830 0.000000 -0.063120 
#    y 0.000000 2.107400 0.000000 
#    z -0.063120 0.000000 2.213670 
# 
# From -- ./inp_files/144020.got.cif
#   From: 2010.05.17/outbox.cif.g08.bks.cpg/sg15_73_cif.got.tgz:144020.got - 2010.06.03 18:47:42.
