data_PCOD9260439
_publ_section_title
;
Structure prediction by ZEFSAII (Michael W. Deem and Ramdas Pophale) SiO2 
 PCOD9260439
Probable space group: C 2/C
;
_chemical_formula_sum "Si O2"
_cell_formula_units_Z 48
_cell_length_a 6.146076
_cell_length_b 23.738461
_cell_length_c 16.860421
_cell_angle_alpha 90.000000
_cell_angle_beta 58.785318
_cell_angle_gamma 90.000000
_cell_volume 2103.790952
_symmetry_space_group_name_H-M "C 2/C"
_symmetry_group_IT_number 15
_symmetry_cell_setting 'monoclinic'
loop_
_space_group_symop_operation_xyz
x,y,z
-x,y,1/2-z
-x,-y,-z
x,-y,1/2+z
1/2+x,1/2+y,z
1/2-x,1/2+y,1/2-z
1/2-x,1/2-y,-z
1/2+x,1/2-y,1/2+z
loop_
_atom_site_type_symbol
_atom_site_label
_atom_site_fract_x
_atom_site_fract_y
_atom_site_fract_z
Si Si1 0.463035 0.813610 0.526202
Si Si2 0.683115 0.872854 0.640431
Si Si3 0.437214 0.101580 0.890841
Si Si4 0.000000 0.314727 0.250000
Si Si5 0.000000 0.944328 0.250000
Si Si6 0.063540 0.759856 0.870969
Si Si7 0.737271 0.503295 0.350427
O O1 0.558437 0.844981 0.586266
O O2 0.393219 0.864847 0.479638
O O3 0.639158 0.775310 0.434899
O O4 0.240075 0.768022 0.584188
O O5 0.500000 0.880151 0.750000
O O6 0.863886 0.823975 0.636281
O O7 0.798760 0.934769 0.607117
O O8 0.350224 0.143965 0.837282
O O9 0.739004 0.090194 0.816249
O O10 0.288475 0.043523 0.907535
O O11 0.160775 0.274451 0.277172
O O12 0.038186 0.982518 0.321732
O O13 0.000000 0.502628 0.250000
#
# Coordination Sequence:
#
# PCOD9260439 Si02
#       7
#     8   8   8   4   4   8   8
#     4  10  23  41  58  86 125 159 197 254 296 354
#     4  11  23  40  61  89 121 160 204 242 297 366
#     4  10  20  39  61  91 118 153 202 252 299 350
#     4  10  18  39  62  86 117 154 204 248 294 354
#     4  10  18  37  62  88 115 156 200 242 306 350
#     4  10  22  40  60  86 122 162 195 247 307 349
#     4   9  20  37  60  89 121 153 199 250 296 360
#
# _framework density 22.815957000000001
#
# number of rings (size 3 to 8) (size 9 to 14) (size 15 to 20)
#    0.000    2.000    2.500    1.500    0.000    6.667 
#   15.000    1.667    0.000    0.000    0.000    0.000 
#    0.000    0.000    0.000    0.000    0.000    0.000 
#
# Total GULP energy -133813.557266 kJ/mol
# GULP energy per Si atom -5575.564886 kJ/mol
# Density = 2.276403 g / cm^3
# Si number density = 22.815957 Si / 1000 Ang^3
#
#
#
# Elastic Constant Matrix: (Units=GPa)
#
#
# Indices 1 2 3 4 5 6 
#
# 1 50.1225 33.7452 28.3725 0.0000 5.4416 0.0000
# 2 33.7452 185.9207 33.7645 0.0000 1.6091 0.0000
# 3 28.3725 33.7645 81.4413 0.0000 11.4305 0.0000
# 4 0.0000 0.0000 0.0000 40.9806 0.0000 31.9817
# 5 5.4416 1.6091 11.4305 0.0000 13.7393 0.0000
# 6 0.0000 0.0000 0.0000 31.9817 0.0000 78.8894
#
#
#
# Elastic Compliance Matrix: (Units=1/GPa)
#
#
# Indices 1 2 3 4 5 6 
#
# 1 0.026924 -0.003518 -0.007340 0.000000 -0.004145 0.000000
# 2 -0.003518 0.006304 -0.001675 0.000000 0.002049 0.000000
# 3 -0.007340 -0.001675 0.017090 0.000000 -0.011115 0.000000
# 4 0.000000 0.000000 0.000000 0.035695 0.000000 -0.014471
# 5 -0.004145 0.002049 -0.011115 0.000000 0.083433 0.000000
# 6 0.000000 0.000000 0.000000 -0.014471 0.000000 0.018542
#
#
# Mechanical properties :
#
#
# Convention : Reuss Voigt Hill
#
# Bulk Modulus (GPa) = 39.60009 56.58322 48.09165
# Shear Modulus (GPa) = 22.57616 41.49536 32.03576
#
# Velocity S-wave (km/s) = 3.14903 4.26925 3.75119
# Velocity P-wave (km/s) = 5.53316 7.01111 6.31552
#
# Compressibility (1/GPa) = 0.02525247
#
# Stress axis : x y z
#
# Youngs Moduli (GPa) = 37.14112 158.63683 58.51247
#
# Poissons Ratio (x) = 0.55810 0.42945
# Poissons Ratio (y) = 0.13067 0.09803
# Poissons Ratio (z) = 0.27260 0.26578
#
# Static dielectric constant tensor:
#      x y z
#    x 1.935600 0.000000 -0.079050 
#    y 0.000000 1.867160 0.000000 
#    z -0.079050 0.000000 2.004890 
# 
# From -- ./inp_files/185279.got.cif
#   From: 2010.05.17/outbox.cif.g08.bks.cpg/sg15_93_cif.got.tgz:185279.got - 2010.06.03 18:47:42.
