data_PCOD9260116
_publ_section_title
;
Structure prediction by ZEFSAII (Michael W. Deem and Ramdas Pophale) SiO2 
 PCOD9260116
Probable space group: C 2/C
;
_chemical_formula_sum "Si O2"
_cell_formula_units_Z 64
_cell_length_a 20.582039
_cell_length_b 12.431584
_cell_length_c 14.321537
_cell_angle_alpha 90.000000
_cell_angle_beta 109.686417
_cell_angle_gamma 90.000000
_cell_volume 3450.230280
_symmetry_space_group_name_H-M "C 2/C"
_symmetry_group_IT_number 15
_symmetry_cell_setting 'monoclinic'
loop_
_space_group_symop_operation_xyz
x,y,z
-x,y,1/2-z
-x,-y,-z
x,-y,1/2+z
1/2+x,1/2+y,z
1/2-x,1/2+y,1/2-z
1/2-x,1/2-y,-z
1/2+x,1/2-y,1/2+z
loop_
_atom_site_type_symbol
_atom_site_label
_atom_site_fract_x
_atom_site_fract_y
_atom_site_fract_z
Si Si1 0.013937 0.324381 0.887712
Si Si2 0.286716 0.729380 0.917915
Si Si3 0.962743 0.281115 0.388303
Si Si4 0.840049 0.374888 0.236437
Si Si5 0.070972 0.101600 0.495673
Si Si6 0.985435 0.918774 0.139532
Si Si7 0.929136 0.455029 0.111145
Si Si8 0.630322 0.081429 0.122614
O O1 0.049574 0.424070 0.855086
O O2 0.030456 0.207342 0.856430
O O3 0.932554 0.352879 0.858521
O O4 0.042428 0.317593 0.007117
O O5 0.235943 0.664045 0.825463
O O6 0.308442 0.838369 0.875435
O O7 0.250000 0.750000 0.000000
O O8 0.358146 0.666154 0.970992
O O9 0.888480 0.280960 0.303893
O O10 0.010799 0.175296 0.418353
O O11 0.005242 0.376044 0.358414
O O12 0.873893 0.409122 0.154976
O O13 0.846691 0.478272 0.307135
O O14 0.046520 0.080315 0.590746
O O15 0.072229 0.990818 0.439169
O O16 0.000000 0.962268 0.250000
O O17 0.901372 0.453522 0.992176
#
# Coordination Sequence:
#
# PCOD9260116 Si02
#       8
#     8   8   8   8   8   8   8   8
#     4  10  19  36  64  89 129 152 198 275 322 349
#     4  12  24  45  62  87 135 179 203 257 320 385
#     4  10  18  36  62  92 117 154 210 267 300 358
#     4  12  24  35  64  99 119 165 216 253 325 374
#     4  10  22  44  62  88 132 164 217 262 311 373
#     4  10  22  38  64  94 119 166 209 262 318 375
#     4  11  19  35  65  93 123 149 204 270 315 365
#     4  11  21  42  58  90 126 162 206 260 314 372
#
# _framework density 18.549486999999999
#
# number of rings (size 3 to 8) (size 9 to 14) (size 15 to 20)
#    0.000    1.250    7.500    1.125    1.750    2.000 
#    9.000    0.000    0.000    1.500    0.000    0.000 
#    0.000    0.000    0.000    0.000    0.000    0.000 
#
# Total GULP energy -178544.994427 kJ/mol
# GULP energy per Si atom -5579.531076 kJ/mol
# Density = 1.850727 g / cm^3
# Si number density = 18.549487 Si / 1000 Ang^3
#
#
#
# Elastic Constant Matrix: (Units=GPa)
#
#
# Indices 1 2 3 4 5 6 
#
# 1 57.7847 30.0612 15.4946 0.0000 12.4843 0.0000
# 2 30.0612 83.6370 39.1737 0.0000 14.2746 0.0000
# 3 15.4946 39.1737 79.5783 0.0000 5.8976 0.0000
# 4 0.0000 0.0000 0.0000 21.2947 0.0000 3.7594
# 5 12.4843 14.2746 5.8976 0.0000 24.4517 0.0000
# 6 0.0000 0.0000 0.0000 3.7594 0.0000 30.3080
#
#
#
# Elastic Compliance Matrix: (Units=1/GPa)
#
#
# Indices 1 2 3 4 5 6 
#
# 1 0.022483 -0.006507 -0.000616 0.000000 -0.007532 0.000000
# 2 -0.006507 0.018841 -0.007574 0.000000 -0.005850 0.000000
# 3 -0.000616 -0.007574 0.016356 0.000000 0.000792 0.000000
# 4 0.000000 0.000000 0.000000 0.048011 0.000000 -0.005955
# 5 -0.007532 -0.005850 0.000792 0.000000 0.047967 0.000000
# 6 0.000000 0.000000 0.000000 -0.005955 0.000000 0.033733
#
#
# Mechanical properties :
#
#
# Convention : Reuss Voigt Hill
#
# Bulk Modulus (GPa) = 35.35385 43.38433 39.36909
# Shear Modulus (GPa) = 22.10274 24.29556 23.19915
#
# Velocity S-wave (km/s) = 3.45564 3.62300 3.54031
# Velocity P-wave (km/s) = 5.91798 6.39849 6.16292
#
# Compressibility (1/GPa) = 0.02828546
#
# Stress axis : x y z
#
# Youngs Moduli (GPa) = 44.47769 53.07483 61.13874
#
# Poissons Ratio (x) = 0.34535 0.03769
# Poissons Ratio (y) = 0.28941 0.46309
# Poissons Ratio (z) = 0.02742 0.40201
#
# Static dielectric constant tensor:
#      x y z
#    x 1.586150 0.000000 0.027140 
#    y 0.000000 1.675720 0.000000 
#    z 0.027140 0.000000 1.660090 
# 
# From -- ./inp_files/167649.got.cif
#   From: 2010.05.17/outbox.cif.g08.bks.cpg/sg15_84_cif.got.tgz:167649.got - 2010.06.03 18:47:42.
