data_PCOD9260387
_publ_section_title
;
Structure prediction by ZEFSAII (Michael W. Deem and Ramdas Pophale) SiO2 
 PCOD9260387
Probable space group: C 2/C
;
_chemical_formula_sum "Si O2"
_cell_formula_units_Z 48
_cell_length_a 8.958174
_cell_length_b 24.346305
_cell_length_c 20.409098
_cell_angle_alpha 90.000000
_cell_angle_beta 30.491793
_cell_angle_gamma 90.000000
_cell_volume 2258.601500
_symmetry_space_group_name_H-M "C 2/C"
_symmetry_group_IT_number 15
_symmetry_cell_setting 'monoclinic'
loop_
_space_group_symop_operation_xyz
x,y,z
-x,y,1/2-z
-x,-y,-z
x,-y,1/2+z
1/2+x,1/2+y,z
1/2-x,1/2+y,1/2-z
1/2-x,1/2-y,-z
1/2+x,1/2-y,1/2+z
loop_
_atom_site_type_symbol
_atom_site_label
_atom_site_fract_x
_atom_site_fract_y
_atom_site_fract_z
Si Si1 0.733852 0.627050 0.400864
Si Si2 0.223036 0.958095 0.225290
Si Si3 0.582287 0.269205 0.647136
Si Si4 0.804401 0.756964 0.620511
Si Si5 0.667391 0.477425 0.001591
Si Si6 0.439254 0.136606 0.848127
O O1 0.747701 0.692499 0.409577
O O2 0.754596 0.585724 0.453274
O O3 0.393486 0.620208 0.506519
O O4 0.000000 0.614496 0.250000
O O5 0.324582 0.895116 0.198185
O O6 0.000000 0.964024 0.250000
O O7 0.055568 0.979183 0.353570
O O8 0.530209 0.990295 0.100819
O O9 0.500000 0.289074 0.750000
O O10 0.402328 0.286823 0.651519
O O11 0.541970 0.202652 0.659421
O O12 0.925650 0.279153 0.504427
O O13 0.500000 0.727870 0.750000
O O14 0.500000 0.500000 0.000000
O O15 0.500000 0.118780 0.750000
#
# Coordination Sequence:
#
# PCOD9260387 Si02
#       6
#     8   8   8   8   8   8
#     4  10  19  34  62  83 111 150 210 244 277 355
#     4  12  25  39  58  93 128 152 194 260 312 343
#     4   9  19  34  60  86 117 153 198 248 295 348
#     4   9  19  35  56  85 115 152 195 245 297 351
#     4  12  22  40  65  88 113 164 208 239 290 376
#     4  10  18  37  60  85 114 160 208 240 285 373
#
# _framework density 21.252089000000002
#
# number of rings (size 3 to 8) (size 9 to 14) (size 15 to 20)
#    0.000    1.667    3.333    2.000    0.000    1.333 
#    0.000    0.000   22.000    1.000    0.000    0.000 
#    0.000    0.000    0.000    0.000    0.000    0.000 
#
# Total GULP energy -133890.546899 kJ/mol
# GULP energy per Si atom -5578.772787 kJ/mol
# Density = 2.120372 g / cm^3
# Si number density = 21.252089 Si / 1000 Ang^3
#
#
#
# Elastic Constant Matrix: (Units=GPa)
#
#
# Indices 1 2 3 4 5 6 
#
# 1 80.5985 12.7833 44.9140 0.0021 -9.8112 0.0004
# 2 12.7833 41.5520 1.5071 0.0043 -10.0378 -0.0020
# 3 44.9140 1.5071 171.8923 0.0191 -13.9098 -0.0071
# 4 0.0021 0.0043 0.0191 5.4248 0.0098 3.3894
# 5 -9.8112 -10.0378 -13.9098 0.0098 38.1455 -0.0032
# 6 0.0004 -0.0020 -0.0071 3.3894 -0.0032 18.3158
#
#
#
# Elastic Compliance Matrix: (Units=1/GPa)
#
#
# Indices 1 2 3 4 5 6 
#
# 1 0.015416 -0.004256 -0.003875 0.000011 0.001432 -0.000004
# 2 -0.004256 0.026893 0.001402 -0.000045 0.006493 0.000013
# 3 -0.003875 0.001402 0.006973 -0.000034 0.001915 0.000009
# 4 0.000011 -0.000045 -0.000034 0.208438 -0.000078 -0.038572
# 5 0.001432 0.006493 0.001915 -0.000078 0.028991 0.000021
# 6 -0.000004 0.000013 0.000009 -0.038572 0.000021 0.061735
#
#
# Mechanical properties :
#
#
# Convention : Reuss Voigt Hill
#
# Bulk Modulus (GPa) = 27.91463 45.82797 36.87130
# Shear Modulus (GPa) = 13.37449 28.03312 20.70380
#
# Velocity S-wave (km/s) = 2.51136 3.63585 3.12461
# Velocity P-wave (km/s) = 4.64465 6.26392 5.51405
#
# Compressibility (1/GPa) = 0.03582351
#
# Stress axis : x y z
#
# Youngs Moduli (GPa) = 64.86841 37.18387 143.41596
#
# Poissons Ratio (x) = 0.15826 0.55571
# Poissons Ratio (y) = 0.27609 -0.20103
# Poissons Ratio (z) = 0.25135 -0.05212
#
# Static dielectric constant tensor:
#      x y z
#    x 1.781940 0.000000 -0.002280 
#    y 0.000000 1.810070 0.000000 
#    z -0.002280 0.000000 1.778850 
# 
# From -- ./inp_files/234834.got.cif
#   From: 2010.05.17/outbox.cif.g08.bks.cpg/sg15_118_cif.got.tgz:234834.got - 2010.06.03 18:47:42.
