data_PCOD9260729
_publ_section_title
;
Structure prediction by ZEFSAII (Michael W. Deem and Ramdas Pophale) SiO2 
 PCOD9260729
Probable space group: C 2/C
;
_chemical_formula_sum "Si O2"
_cell_formula_units_Z 60
_cell_length_a 14.254634
_cell_length_b 14.160125
_cell_length_c 18.720055
_cell_angle_alpha 90.000000
_cell_angle_beta 41.442458
_cell_angle_gamma 90.000000
_cell_volume 2500.928990
_symmetry_space_group_name_H-M "C 2/C"
_symmetry_group_IT_number 15
_symmetry_cell_setting 'monoclinic'
loop_
_space_group_symop_operation_xyz
x,y,z
-x,y,1/2-z
-x,-y,-z
x,-y,1/2+z
1/2+x,1/2+y,z
1/2-x,1/2+y,1/2-z
1/2-x,1/2-y,-z
1/2+x,1/2-y,1/2+z
loop_
_atom_site_type_symbol
_atom_site_label
_atom_site_fract_x
_atom_site_fract_y
_atom_site_fract_z
Si Si1 0.053343 0.785968 0.886079
Si Si2 0.600191 0.898146 0.016037
Si Si3 0.348372 0.229433 0.515933
Si Si4 0.010196 0.001671 0.908164
Si Si5 0.216093 0.560733 0.022977
Si Si6 0.808836 0.513503 0.182104
Si Si7 0.839977 0.286168 0.720733
Si Si8 0.000000 0.331554 0.750000
O O1 0.006740 0.889886 0.890805
O O2 0.197188 0.753293 0.763140
O O3 0.928348 0.711637 0.957855
O O4 0.133608 0.781761 0.918003
O O5 0.680393 0.951502 0.032956
O O6 0.442777 0.944663 0.105565
O O7 0.681184 0.927819 0.897579
O O8 0.250000 0.250000 0.500000
O O9 0.514925 0.235534 0.402028
O O10 0.314024 0.116517 0.534532
O O11 0.159941 0.034145 0.788514
O O12 0.878489 0.062381 0.954642
O O13 0.000000 0.000000 0.000000
O O14 0.104264 0.604613 0.142709
O O15 0.827880 0.598543 0.228616
O O16 0.894153 0.261410 0.769264
#
# Coordination Sequence:
#
# PCOD9260729 Si02
#       8
#     8   8   8   8   8   8   8   4
#     4  11  23  38  62  93 127 166 220 267 321 384
#     4  11  21  40  66  89 127 178 223 254 324 413
#     4  11  20  36  61  92 124 162 215 272 325 388
#     4  11  25  43  64  97 135 169 215 280 334 385
#     4  11  23  40  64  91 130 173 218 268 335 396
#     4  10  20  42  63  89 129 178 212 262 330 395
#     4  10  19  37  59  86 128 164 207 268 325 375
#     4  10  18  38  62  90 122 170 212 258 332 394
#
# _framework density 23.991085999999999
#
# number of rings (size 3 to 8) (size 9 to 14) (size 15 to 20)
#    0.000    1.333    4.000    4.800    0.000    3.200 
#    0.000    1.333    0.000    0.000    0.000    0.000 
#    0.000    0.000    0.000    0.000    0.000    0.000 
#
# Total GULP energy -167066.912912 kJ/mol
# GULP energy per Si atom -5568.897097 kJ/mol
# Density = 2.393648 g / cm^3
# Si number density = 23.991086 Si / 1000 Ang^3
#
#
#
# Elastic Constant Matrix: (Units=GPa)
#
#
# Indices 1 2 3 4 5 6 
#
# 1 41.1374 0.7171 32.6690 0.0000 -17.9475 0.0000
# 2 0.7171 61.9963 2.7259 0.0000 -0.3732 0.0000
# 3 32.6690 2.7259 91.9773 -0.0001 -28.8233 0.0000
# 4 0.0000 0.0000 -0.0001 27.6876 0.0000 -7.5022
# 5 -17.9475 -0.3732 -28.8233 0.0000 32.9177 0.0000
# 6 0.0000 0.0000 0.0000 -7.5022 0.0000 36.7757
#
#
#
# Elastic Compliance Matrix: (Units=1/GPa)
#
#
# Indices 1 2 3 4 5 6 
#
# 1 0.036975 0.000057 -0.009395 0.000000 0.011934 0.000000
# 2 0.000057 0.016154 -0.000595 0.000000 -0.000307 0.000000
# 3 -0.009395 -0.000595 0.017392 0.000000 0.010099 0.000000
# 4 0.000000 0.000000 0.000000 0.038230 0.000000 0.007799
# 5 0.011934 -0.000307 0.010099 0.000000 0.045725 0.000000
# 6 0.000000 0.000000 0.000000 0.007799 0.000000 0.028783
#
#
# Mechanical properties :
#
#
# Convention : Reuss Voigt Hill
#
# Bulk Modulus (GPa) = 19.74142 29.70389 24.72266
# Shear Modulus (GPa) = 22.72621 30.07613 26.40117
#
# Velocity S-wave (km/s) = 3.08113 3.54452 3.32091
# Velocity P-wave (km/s) = 4.57212 5.39996 5.00319
#
# Compressibility (1/GPa) = 0.05065491
#
# Stress axis : x y z
#
# Youngs Moduli (GPa) = 27.04500 61.90552 57.49856
#
# Poissons Ratio (x) = -0.00355 0.54020
# Poissons Ratio (y) = -0.00155 0.03423
# Poissons Ratio (z) = 0.25409 0.03685
#
# Static dielectric constant tensor:
#      x y z
#    x 1.981590 0.000000 0.090490 
#    y 0.000000 2.054950 0.000000 
#    z 0.090490 0.000000 2.598030 
# 
# From -- ./inp_files/244673.got.cif
#   From: 2010.05.17/outbox.cif.g08.bks.cpg/sg15_123_cif.got.tgz:244673.got - 2010.06.03 18:47:42.
