data_PCOD9260885
_publ_section_title
;
Structure prediction by ZEFSAII (Michael W. Deem and Ramdas Pophale) SiO2 
 PCOD9260885
Probable space group: C 2/C
;
_chemical_formula_sum "Si O2"
_cell_formula_units_Z 64
_cell_length_a 17.849493
_cell_length_b 10.567105
_cell_length_c 14.043420
_cell_angle_alpha 90.000000
_cell_angle_beta 108.768384
_cell_angle_gamma 90.000000
_cell_volume 2507.987688
_symmetry_space_group_name_H-M "C 2/C"
_symmetry_group_IT_number 15
_symmetry_cell_setting 'monoclinic'
loop_
_space_group_symop_operation_xyz
x,y,z
-x,y,1/2-z
-x,-y,-z
x,-y,1/2+z
1/2+x,1/2+y,z
1/2-x,1/2+y,1/2-z
1/2-x,1/2-y,-z
1/2+x,1/2-y,1/2+z
loop_
_atom_site_type_symbol
_atom_site_label
_atom_site_fract_x
_atom_site_fract_y
_atom_site_fract_z
Si Si1 0.516660 0.271145 0.041064
Si Si2 0.572682 0.440903 0.204035
Si Si3 0.877983 0.305238 0.360662
Si Si4 0.627273 0.725573 0.877931
Si Si5 0.245876 0.397018 0.844140
Si Si6 0.662680 0.919727 0.605609
Si Si7 0.406618 0.691086 0.199698
Si Si8 0.306411 0.453362 0.521858
O O1 0.545782 0.409369 0.087525
O O2 0.454324 0.242255 0.102221
O O3 0.460287 0.258638 0.927416
O O4 0.409223 0.821951 0.934052
O O5 0.500000 0.452172 0.250000
O O6 0.616854 0.319549 0.264197
O O7 0.617160 0.570647 0.242162
O O8 0.806898 0.219852 0.368762
O O9 0.874531 0.440927 0.406332
O O10 0.871438 0.308686 0.242995
O O11 0.681085 0.848502 0.894406
O O12 0.662352 0.594534 0.935807
O O13 0.207264 0.409488 0.725242
O O14 0.284673 0.524611 0.902902
O O15 0.729156 0.913445 0.550649
O O16 0.500000 0.707168 0.250000
O O17 0.372994 0.646638 0.084720
#
# Coordination Sequence:
#
# PCOD9260885 Si02
#       8
#     8   8   8   8   8   8   8   8
#     4  11  22  41  67 105 135 177 241 294 351 424
#     4   8  17  34  63  93 122 162 222 289 327 393
#     4  12  25  44  66  98 142 187 227 293 362 425
#     4  10  18  38  67  97 132 171 230 288 342 411
#     4  12  23  42  71  97 134 191 232 282 363 421
#     4  12  26  44  68 106 147 177 235 301 355 431
#     4  10  23  45  65  94 140 178 232 289 348 421
#     4  11  22  43  72 101 134 179 235 297 346 415
#
# _framework density 25.518467000000001
#
# number of rings (size 3 to 8) (size 9 to 14) (size 15 to 20)
#    0.000    1.250    5.000    2.250    0.000    0.500 
#    4.500    0.625    0.000    0.000    0.000    0.000 
#    0.000    0.000    0.000    0.000    0.000    0.000 
#
# Total GULP energy -178925.014059 kJ/mol
# GULP energy per Si atom -5591.406689 kJ/mol
# Density = 2.546039 g / cm^3
# Si number density = 25.518467 Si / 1000 Ang^3
#
#
#
# Elastic Constant Matrix: (Units=GPa)
#
#
# Indices 1 2 3 4 5 6 
#
# 1 132.3056 33.2714 22.3224 0.0000 10.1018 0.0000
# 2 33.2714 48.7060 27.2418 0.0000 -3.7296 0.0000
# 3 22.3224 27.2418 126.1688 0.0000 13.2949 0.0000
# 4 0.0000 0.0000 0.0000 36.1199 0.0000 8.8512
# 5 10.1018 -3.7296 13.2949 0.0000 33.6038 0.0000
# 6 0.0000 0.0000 0.0000 8.8512 0.0000 38.9653
#
#
#
# Elastic Compliance Matrix: (Units=1/GPa)
#
#
# Indices 1 2 3 4 5 6 
#
# 1 0.009548 -0.006916 0.000196 0.000000 -0.003715 0.000000
# 2 -0.006916 0.029123 -0.005869 0.000000 0.007633 0.000000
# 3 0.000196 -0.005869 0.009635 0.000000 -0.004522 0.000000
# 4 0.000000 0.000000 0.000000 0.029318 0.000000 -0.006660
# 5 -0.003715 0.007633 -0.004522 0.000000 0.033512 0.000000
# 6 0.000000 0.000000 0.000000 -0.006660 0.000000 0.027177
#
#
# Mechanical properties :
#
#
# Convention : Reuss Voigt Hill
#
# Bulk Modulus (GPa) = 43.23953 52.53905 47.88929
# Shear Modulus (GPa) = 29.20561 36.69413 32.94987
#
# Velocity S-wave (km/s) = 3.38670 3.79614 3.59725
# Velocity P-wave (km/s) = 5.68104 6.31249 6.00507
#
# Compressibility (1/GPa) = 0.02312699
#
# Stress axis : x y z
#
# Youngs Moduli (GPa) = 104.73171 34.33724 103.78866
#
# Poissons Ratio (x) = 0.23749 -0.02029
# Poissons Ratio (y) = 0.72435 0.60911
# Poissons Ratio (z) = -0.02048 0.20152
#
# Static dielectric constant tensor:
#      x y z
#    x 2.084870 0.000000 0.024950 
#    y 0.000000 1.996430 0.000000 
#    z 0.024950 0.000000 2.087310 
# 
# From -- ./inp_files/167646.got.cif
#   From: 2010.05.17/outbox.cif.g08.bks.cpg/sg15_84_cif.got.tgz:167646.got - 2010.06.03 18:47:42.
