data_PCOD9260631
_publ_section_title
;
Structure prediction by ZEFSAII (Michael W. Deem and Ramdas Pophale) SiO2 
 PCOD9260631
Probable space group: C 2/C
;
_chemical_formula_sum "Si O2"
_cell_formula_units_Z 48
_cell_length_a 11.106467
_cell_length_b 7.359896
_cell_length_c 24.718021
_cell_angle_alpha 90.000000
_cell_angle_beta 108.468109
_cell_angle_gamma 90.000000
_cell_volume 1916.455307
_symmetry_space_group_name_H-M "C 2/C"
_symmetry_group_IT_number 15
_symmetry_cell_setting 'monoclinic'
loop_
_space_group_symop_operation_xyz
x,y,z
-x,y,1/2-z
-x,-y,-z
x,-y,1/2+z
1/2+x,1/2+y,z
1/2-x,1/2+y,1/2-z
1/2-x,1/2-y,-z
1/2+x,1/2-y,1/2+z
loop_
_atom_site_type_symbol
_atom_site_label
_atom_site_fract_x
_atom_site_fract_y
_atom_site_fract_z
Si Si1 0.119122 0.589203 0.121157
Si Si2 0.407644 0.437805 0.691414
Si Si3 0.435774 0.846253 0.688780
Si Si4 0.267893 0.960175 0.967707
Si Si5 0.998544 0.812086 0.590879
Si Si6 0.249324 0.869539 0.576445
O O1 0.262818 0.622456 0.162192
O O2 0.129548 0.628450 0.058233
O O3 0.059814 0.384734 0.112683
O O4 0.031873 0.685723 0.152664
O O5 0.500000 0.358246 0.750000
O O6 0.390267 0.650545 0.702491
O O7 0.481783 0.406296 0.646275
O O8 0.500000 0.937379 0.750000
O O9 0.318071 0.934957 0.640840
O O10 0.231599 0.152606 0.931799
O O11 0.303816 0.032573 0.031640
O O12 0.142518 0.837078 0.953143
O O13 0.100681 0.898609 0.564818
#
# Coordination Sequence:
#
# PCOD9260631 Si02
#       6
#     8   8   8   8   8   8
#     4  10  22  39  57  87 125 148 197 253 290 352
#     4  10  22  39  60  83 116 164 200 237 296 354
#     4  11  23  41  59  87 122 157 195 243 299 351
#     4   9  19  38  62  87 118 157 198 243 300 347
#     4  10  18  38  59  89 117 151 200 246 295 345
#     4  10  19  37  62  88 119 157 197 245 295 354
#
# _framework density 25.046240000000001
#
# number of rings (size 3 to 8) (size 9 to 14) (size 15 to 20)
#    0.000    2.000    5.000    0.500    2.333    1.333 
#    6.000    0.833    0.000    0.000    0.000    0.000 
#    0.000    0.000    0.000    0.000    0.000    0.000 
#
# Total GULP energy -133996.169268 kJ/mol
# GULP energy per Si atom -5583.173720 kJ/mol
# Density = 2.498923 g / cm^3
# Si number density = 25.046240 Si / 1000 Ang^3
#
#
#
# Elastic Constant Matrix: (Units=GPa)
#
#
# Indices 1 2 3 4 5 6 
#
# 1 114.6754 19.9547 0.3417 0.0000 -10.2772 0.0000
# 2 19.9547 81.1269 11.2378 0.0000 4.9138 0.0000
# 3 0.3417 11.2378 109.8277 0.0000 13.1529 0.0000
# 4 0.0000 0.0000 0.0000 5.7768 0.0000 -13.1024
# 5 -10.2772 4.9138 13.1529 0.0000 33.2126 0.0000
# 6 0.0000 0.0000 0.0000 -13.1024 0.0000 26.2957
#
#
#
# Elastic Compliance Matrix: (Units=1/GPa)
#
#
# Indices 1 2 3 4 5 6 
#
# 1 0.009459 -0.002506 -0.000176 0.000000 0.003367 0.000000
# 2 -0.002506 0.013231 -0.001069 0.000000 -0.002309 0.000000
# 3 -0.000176 -0.001069 0.009661 0.000000 -0.003722 0.000000
# 4 0.000000 0.000000 0.000000 -1.330122 0.000000 -0.662764
# 5 0.003367 -0.002309 -0.003722 0.000000 0.032967 0.000000
# 6 0.000000 0.000000 0.000000 -0.662764 0.000000 -0.292209
#
#
# Mechanical properties :
#
#
# Convention : Reuss Voigt Hill
#
# Bulk Modulus (GPa) = 40.24661 40.96647 40.60654
# Shear Modulus (GPa) = -3.24417 31.33007 14.04295
#
# Velocity S-wave (km/s) = -1.13933 3.54063 2.37044
# Velocity P-wave (km/s) = 3.79118 5.75383 4.87235
#
# Compressibility (1/GPa) = 0.02484682
#
# Stress axis : x y z
#
# Youngs Moduli (GPa) = 105.72313 75.58115 103.50983
#
# Poissons Ratio (x) = 0.18941 0.01825
# Poissons Ratio (y) = 0.26495 0.11070
# Poissons Ratio (z) = 0.01864 0.08083
#
# Static dielectric constant tensor:
#      x y z
#    x 1.975180 0.000000 0.034600 
#    y 0.000000 2.046670 0.000000 
#    z 0.034600 0.000000 2.008000 
# 
# From -- ./inp_files/267817.got.cif
#   From: 2010.05.17/outbox.cif.g08.bks.cpg/sg15_134_cif.got.tgz:267817.got - 2010.06.03 18:47:42.
