data_PCOD9260244
_publ_section_title
;
Structure prediction by ZEFSAII (Michael W. Deem and Ramdas Pophale) SiO2 
 PCOD9260244
Probable space group: C 2/C
;
_chemical_formula_sum "Si O2"
_cell_formula_units_Z 56
_cell_length_a 19.065682
_cell_length_b 8.540117
_cell_length_c 19.360616
_cell_angle_alpha 90.000000
_cell_angle_beta 118.000658
_cell_angle_gamma 90.000000
_cell_volume 2783.348657
_symmetry_space_group_name_H-M "C 2/C"
_symmetry_group_IT_number 15
_symmetry_cell_setting 'monoclinic'
loop_
_space_group_symop_operation_xyz
x,y,z
-x,y,1/2-z
-x,-y,-z
x,-y,1/2+z
1/2+x,1/2+y,z
1/2-x,1/2+y,1/2-z
1/2-x,1/2-y,-z
1/2+x,1/2-y,1/2+z
loop_
_atom_site_type_symbol
_atom_site_label
_atom_site_fract_x
_atom_site_fract_y
_atom_site_fract_z
Si Si1 0.752166 0.678837 0.194870
Si Si2 0.500000 0.228536 0.250000
Si Si3 0.758616 0.049902 0.166963
Si Si4 0.601189 0.508134 0.865776
Si Si5 0.000000 0.228548 0.250000
Si Si6 0.591319 0.038083 0.558225
Si Si7 0.589325 0.978624 0.214103
Si Si8 0.677100 0.694101 0.016866
O O1 0.762764 0.865300 0.190205
O O2 0.716597 0.647528 0.254275
O O3 0.830428 0.572245 0.234726
O O4 0.708342 0.629378 0.104405
O O5 0.429310 0.341215 0.192158
O O6 0.523907 0.114290 0.198273
O O7 0.821095 0.063109 0.134507
O O8 0.667345 0.081698 0.100353
O O9 0.531188 0.382668 0.825447
O O10 0.625317 0.570126 0.951182
O O11 0.069746 0.341666 0.257806
O O12 0.587446 0.090658 0.636561
O O13 0.623422 0.159912 0.516487
O O14 0.500000 0.000000 0.500000
O O15 0.750000 0.750000 0.000000
#
# Coordination Sequence:
#
# PCOD9260244 Si02
#       8
#     8   4   8   8   4   8   8   8
#     4  10  21  37  65  91 118 163 208 264 307 382
#     4  10  18  36  66  86 114 170 220 252 314 388
#     4  10  21  38  63  90 125 164 213 252 315 378
#     4  11  21  39  61  90 124 165 211 259 316 370
#     4  10  26  38  62  86 132 164 206 268 308 378
#     4  10  21  36  62  94 125 158 208 264 317 375
#     4  10  20  41  60  89 121 168 211 257 316 378
#     4  11  20  39  62  95 125 167 211 263 317 386
#
# _framework density 20.11965
#
# number of rings (size 3 to 8) (size 9 to 14) (size 15 to 20)
#    0.000    1.714    4.286    0.857    6.000    1.143 
#    0.000    4.286    0.000    0.000    0.000    0.000 
#    0.000    0.000    0.000    0.000    0.000    0.000 
#
# Total GULP energy -155959.255748 kJ/mol
# GULP energy per Si atom -5569.973420 kJ/mol
# Density = 2.007386 g / cm^3
# Si number density = 20.119650 Si / 1000 Ang^3
#
#
#
# Elastic Constant Matrix: (Units=GPa)
#
#
# Indices 1 2 3 4 5 6 
#
# 1 95.2480 13.1649 26.3647 0.0000 8.4448 0.0000
# 2 13.1649 46.9226 7.5216 0.0000 14.5855 0.0000
# 3 26.3647 7.5216 104.0621 0.0000 19.5236 0.0000
# 4 0.0000 0.0000 0.0000 23.2290 0.0000 -6.3808
# 5 8.4448 14.5855 19.5236 0.0000 25.4151 0.0000
# 6 0.0000 0.0000 0.0000 -6.3808 0.0000 37.0923
#
#
#
# Elastic Compliance Matrix: (Units=1/GPa)
#
#
# Indices 1 2 3 4 5 6 
#
# 1 0.011651 -0.002773 -0.002715 0.000000 -0.000194 0.000000
# 2 -0.002773 0.026702 0.001723 0.000000 -0.015726 0.000000
# 3 -0.002715 0.001723 0.011905 0.000000 -0.009232 0.000000
# 4 0.000000 0.000000 0.000000 0.045185 0.000000 0.007773
# 5 -0.000194 -0.015726 -0.009232 0.000000 0.055528 0.000000
# 6 0.000000 0.000000 0.000000 0.007773 0.000000 0.028297
#
#
# Mechanical properties :
#
#
# Convention : Reuss Voigt Hill
#
# Bulk Modulus (GPa) = 23.40415 37.81502 30.60958
# Shear Modulus (GPa) = 24.87059 30.42604 27.64832
#
# Velocity S-wave (km/s) = 3.51968 3.89299 3.71103
# Velocity P-wave (km/s) = 5.30804 6.24844 5.79734
#
# Compressibility (1/GPa) = 0.04272747
#
# Stress axis : x y z
#
# Youngs Moduli (GPa) = 85.82995 37.45054 83.99822
#
# Poissons Ratio (x) = 0.10386 0.22805
# Poissons Ratio (y) = 0.23803 -0.14473
# Poissons Ratio (z) = 0.23302 -0.06453
#
# Static dielectric constant tensor:
#      x y z
#    x 1.791830 0.000000 0.026910 
#    y 0.000000 1.721280 0.000000 
#    z 0.026910 0.000000 1.716310 
# 
# From -- ./inp_files/251982.got.cif
#   From: 2010.05.17/outbox.cif.g08.bks.cpg/sg15_126_cif.got.tgz:251982.got - 2010.06.03 18:47:42.
