data_PCOD9260210
_publ_section_title
;
Structure prediction by ZEFSAII (Michael W. Deem and Ramdas Pophale) SiO2 
 PCOD9260210
Probable space group: C 2/C
;
_chemical_formula_sum "Si O2"
_cell_formula_units_Z 60
_cell_length_a 13.394849
_cell_length_b 14.197290
_cell_length_c 16.899228
_cell_angle_alpha 90.000000
_cell_angle_beta 95.580353
_cell_angle_gamma 90.000000
_cell_volume 3198.505055
_symmetry_space_group_name_H-M "C 2/C"
_symmetry_group_IT_number 15
_symmetry_cell_setting 'monoclinic'
loop_
_space_group_symop_operation_xyz
x,y,z
-x,y,1/2-z
-x,-y,-z
x,-y,1/2+z
1/2+x,1/2+y,z
1/2-x,1/2+y,1/2-z
1/2-x,1/2-y,-z
1/2+x,1/2-y,1/2+z
loop_
_atom_site_type_symbol
_atom_site_label
_atom_site_fract_x
_atom_site_fract_y
_atom_site_fract_z
Si Si1 0.206860 0.479215 0.493650
Si Si2 0.966404 0.239249 0.920943
Si Si3 0.890895 0.293970 0.085774
Si Si4 0.685870 0.184299 0.436756
Si Si5 0.000000 0.730529 0.750000
Si Si6 0.163740 0.870206 0.691602
Si Si7 0.920680 0.973476 0.425805
Si Si8 0.274043 0.856649 0.861605
O O1 0.148806 0.392747 0.449526
O O2 0.164450 0.582546 0.474833
O O3 0.315499 0.474822 0.462858
O O4 0.216214 0.449711 0.584918
O O5 0.946554 0.130814 0.898681
O O6 0.881082 0.303345 0.872943
O O7 0.079073 0.269429 0.909326
O O8 0.951116 0.250125 0.015680
O O9 0.804164 0.217971 0.102963
O O10 0.949653 0.317996 0.170750
O O11 0.750000 0.250000 0.500000
O O12 0.758367 0.165908 0.368105
O O13 0.915037 0.793440 0.784770
O O14 0.230804 0.888229 0.774265
O O15 0.097510 0.953480 0.647215
O O16 0.000000 0.000000 0.500000
#
# Coordination Sequence:
#
# PCOD9260210 Si02
#       8
#     8   8   8   8   4   8   8   8
#     4  10  20  39  63  88 118 161 210 255 301 377
#     4  11  20  38  65  86 123 170 205 253 321 379
#     4  10  18  36  64  95 114 158 214 263 300 360
#     4  11  24  42  57  89 133 165 203 252 316 381
#     4  10  20  38  64  90 124 152 208 268 304 348
#     4  10  24  40  60  92 126 160 209 263 309 373
#     4  11  20  36  63  89 118 166 208 250 313 377
#     4  10  20  39  64  90 121 156 213 273 300 362
#
# _framework density 18.758763999999999
#
# number of rings (size 3 to 8) (size 9 to 14) (size 15 to 20)
#    0.000    1.600    2.667    4.000    1.867    2.667 
#    2.400    5.333    0.000    0.000    0.000    0.000 
#    0.000    0.000    0.000    0.000    0.000    0.000 
#
# Total GULP energy -167351.093289 kJ/mol
# GULP energy per Si atom -5578.369776 kJ/mol
# Density = 1.871607 g / cm^3
# Si number density = 18.758764 Si / 1000 Ang^3
#
#
#
# Elastic Constant Matrix: (Units=GPa)
#
#
# Indices 1 2 3 4 5 6 
#
# 1 62.1588 10.6198 19.8973 0.0000 3.3962 0.0000
# 2 10.6198 53.7019 31.5240 0.0000 3.1022 0.0000
# 3 19.8973 31.5240 130.7674 0.0000 21.6300 0.0000
# 4 0.0000 0.0000 0.0000 29.3143 0.0000 13.2590
# 5 3.3962 3.1022 21.6300 0.0000 26.8055 0.0000
# 6 0.0000 0.0000 0.0000 13.2590 0.0000 30.1281
#
#
#
# Elastic Compliance Matrix: (Units=1/GPa)
#
#
# Indices 1 2 3 4 5 6 
#
# 1 0.017126 -0.002176 -0.002036 0.000000 -0.000275 0.000000
# 2 -0.002176 0.022058 -0.005320 0.000000 0.002016 0.000000
# 3 -0.002036 -0.005320 0.010496 0.000000 -0.007596 0.000000
# 4 0.000000 0.000000 0.000000 0.042591 0.000000 -0.018744
# 5 -0.000275 0.002016 -0.007596 0.000000 0.043237 0.000000
# 6 0.000000 0.000000 0.000000 -0.018744 0.000000 0.041441
#
#
# Mechanical properties :
#
#
# Convention : Reuss Voigt Hill
#
# Bulk Modulus (GPa) = 32.66152 41.19004 36.92578
# Shear Modulus (GPa) = 24.24633 29.55538 26.90085
#
# Velocity S-wave (km/s) = 3.59908 3.97363 3.79098
# Velocity P-wave (km/s) = 5.89240 6.56189 6.23613
#
# Compressibility (1/GPa) = 0.03061706
#
# Stress axis : x y z
#
# Youngs Moduli (GPa) = 58.38972 45.33500 95.27644
#
# Poissons Ratio (x) = 0.09864 0.19397
# Poissons Ratio (y) = 0.12705 0.50685
# Poissons Ratio (z) = 0.11887 0.24117
#
# Static dielectric constant tensor:
#      x y z
#    x 1.634490 0.000000 0.007860 
#    y 0.000000 1.645720 0.000000 
#    z 0.007860 0.000000 1.691810 
# 
# From -- ./inp_files/197890.got.cif
#   From: 2010.05.17/outbox.cif.g08.bks.cpg/sg15_99_cif.got.tgz:197890.got - 2010.06.03 18:47:42.
