data_PCOD9260601
_publ_section_title
;
Structure prediction by ZEFSAII (Michael W. Deem and Ramdas Pophale) SiO2 
 PCOD9260601
Probable space group: C 2/C
;
_chemical_formula_sum "Si O2"
_cell_formula_units_Z 52
_cell_length_a 12.200224
_cell_length_b 20.690147
_cell_length_c 11.297824
_cell_angle_alpha 90.000000
_cell_angle_beta 105.925203
_cell_angle_gamma 90.000000
_cell_volume 2742.394903
_symmetry_space_group_name_H-M "C 2/C"
_symmetry_group_IT_number 15
_symmetry_cell_setting 'monoclinic'
loop_
_space_group_symop_operation_xyz
x,y,z
-x,y,1/2-z
-x,-y,-z
x,-y,1/2+z
1/2+x,1/2+y,z
1/2-x,1/2+y,1/2-z
1/2-x,1/2-y,-z
1/2+x,1/2-y,1/2+z
loop_
_atom_site_type_symbol
_atom_site_label
_atom_site_fract_x
_atom_site_fract_y
_atom_site_fract_z
Si Si1 0.000000 0.445780 0.750000
Si Si2 0.218988 0.181387 0.329268
Si Si3 0.336065 0.299404 0.958892
Si Si4 0.492075 0.123592 0.881546
Si Si5 0.187981 0.411138 0.995755
Si Si6 0.664452 0.954387 0.596113
Si Si7 0.579231 0.742003 0.493089
O O1 0.911984 0.408709 0.635135
O O2 0.910270 0.478097 0.813602
O O3 0.174700 0.201550 0.187279
O O4 0.257282 0.105993 0.342002
O O5 0.325624 0.228512 0.391358
O O6 0.133475 0.193247 0.413762
O O7 0.294295 0.370100 0.985323
O O8 0.467583 0.284508 0.025137
O O9 0.250000 0.250000 0.000000
O O10 0.500000 0.104105 0.750000
O O11 0.539136 0.195623 0.907721
O O12 0.369295 0.121010 0.905922
O O13 0.573779 0.077315 0.980570
O O14 0.214979 0.484431 0.042327
#
# Coordination Sequence:
#
# PCOD9260601 Si02
#       7
#     4   8   8   8   8   8   8
#     4  10  18  38  56  84 122 156 196 254 306 350
#     4  10  22  42  64  85 127 154 203 252 297 360
#     4  12  23  38  62  93 124 160 197 249 304 366
#     4  10  19  32  55  84 119 150 200 249 292 353
#     4  11  23  33  57  90 119 160 199 246 311 359
#     4  10  22  34  56  87 115 164 195 247 313 348
#     4  10  22  40  62  91 113 164 203 242 306 353
#
# _framework density 18.96153
#
# number of rings (size 3 to 8) (size 9 to 14) (size 15 to 20)
#    0.000    1.538    3.077    3.231    4.308    0.615 
#    0.000    0.769    0.000    0.000    0.000    0.000 
#    0.000    0.000    0.000    0.000    0.000    0.000 
#
# Total GULP energy -145027.242202 kJ/mol
# GULP energy per Si atom -5577.970854 kJ/mol
# Density = 1.891837 g / cm^3
# Si number density = 18.961530 Si / 1000 Ang^3
#
#
#
# Elastic Constant Matrix: (Units=GPa)
#
#
# Indices 1 2 3 4 5 6 
#
# 1 101.2737 34.9461 9.0197 0.0000 -5.0404 0.0000
# 2 34.9461 92.1067 7.8384 0.0000 -7.2118 0.0000
# 3 9.0197 7.8384 58.9306 0.0000 -13.7154 0.0000
# 4 0.0000 0.0000 0.0000 16.0806 0.0000 -3.8977
# 5 -5.0404 -7.2118 -13.7154 0.0000 17.7610 0.0000
# 6 0.0000 0.0000 0.0000 -3.8977 0.0000 31.9297
#
#
#
# Elastic Compliance Matrix: (Units=1/GPa)
#
#
# Indices 1 2 3 4 5 6 
#
# 1 0.011451 -0.004199 -0.001018 0.000000 0.000759 0.000000
# 2 -0.004199 0.012766 -0.000154 0.000000 0.003873 0.000000
# 3 -0.001018 -0.000154 0.020802 0.000000 0.015713 0.000000
# 4 0.000000 0.000000 0.000000 0.064083 0.000000 0.007823
# 5 0.000759 0.003873 0.015713 0.000000 0.070225 0.000000
# 6 0.000000 0.000000 0.000000 0.007823 0.000000 0.032274
#
#
# Mechanical properties :
#
#
# Convention : Reuss Voigt Hill
#
# Bulk Modulus (GPa) = 29.17185 39.54660 34.35923
# Shear Modulus (GPa) = 21.38868 26.52140 23.95504
#
# Velocity S-wave (km/s) = 3.36222 3.74397 3.55822
# Velocity P-wave (km/s) = 5.52185 6.29216 5.91955
#
# Compressibility (1/GPa) = 0.03427962
#
# Stress axis : x y z
#
# Youngs Moduli (GPa) = 87.32496 78.33066 48.07168
#
# Poissons Ratio (x) = 0.32889 0.04892
# Poissons Ratio (y) = 0.36666 0.00740
# Poissons Ratio (z) = 0.08886 0.01206
#
# Static dielectric constant tensor:
#      x y z
#    x 1.674270 0.000000 -0.009010 
#    y 0.000000 1.709190 0.000000 
#    z -0.009010 0.000000 1.670580 
# 
# From -- ./inp_files/89099.got.cif
#   From: 2010.05.17/outbox.cif.g08.bks.cpg/sg15_45_cif.got.tgz:89099.got - 2010.06.03 18:47:42.
