data_PCOD9260488
_publ_section_title
;
Structure prediction by ZEFSAII (Michael W. Deem and Ramdas Pophale) SiO2 
 PCOD9260488
Probable space group: C 2/C
;
_chemical_formula_sum "Si O2"
_cell_formula_units_Z 48
_cell_length_a 15.301626
_cell_length_b 9.426189
_cell_length_c 23.522133
_cell_angle_alpha 90.000000
_cell_angle_beta 33.547486
_cell_angle_gamma 90.000000
_cell_volume 1874.922159
_symmetry_space_group_name_H-M "C 2/C"
_symmetry_group_IT_number 15
_symmetry_cell_setting 'monoclinic'
loop_
_space_group_symop_operation_xyz
x,y,z
-x,y,1/2-z
-x,-y,-z
x,-y,1/2+z
1/2+x,1/2+y,z
1/2-x,1/2+y,1/2-z
1/2-x,1/2-y,-z
1/2+x,1/2-y,1/2+z
loop_
_atom_site_type_symbol
_atom_site_label
_atom_site_fract_x
_atom_site_fract_y
_atom_site_fract_z
Si Si1 0.611960 0.538535 0.057945
Si Si2 0.676049 0.871931 0.160049
Si Si3 0.985425 0.793396 0.045296
Si Si4 0.613052 0.254713 0.854740
Si Si5 0.071673 0.675210 0.265855
Si Si6 0.405161 0.973850 0.955560
O O1 0.556365 0.399193 0.053646
O O2 0.457695 0.633627 0.151616
O O3 0.735959 0.621074 0.948548
O O4 0.720665 0.510120 0.053520
O O5 0.500000 0.811574 0.250000
O O6 0.797199 0.802744 0.138820
O O7 0.649515 0.032417 0.197331
O O8 0.045003 0.635146 0.023446
O O9 0.052855 0.827195 0.946451
O O10 0.798996 0.245938 0.765834
O O11 0.521497 0.108173 0.894415
O O12 0.000000 0.753681 0.250000
O O13 0.938465 0.615446 0.379904
#
# Coordination Sequence:
#
# PCOD9260488 Si02
#       6
#     8   8   8   8   8   8
#     4  11  20  39  64  85 112 167 199 232 281 370
#     4  10  18  37  64  82 110 155 208 231 276 349
#     4  11  22  40  62  90 119 159 195 242 300 354
#     4  11  23  41  61  88 123 156 197 245 296 352
#     4  11  21  40  62  84 116 160 205 235 287 357
#     4  12  25  36  61  94 124 148 192 260 302 336
#
# _framework density 25.601063
#
# number of rings (size 3 to 8) (size 9 to 14) (size 15 to 20)
#    0.000    1.000    6.667    2.500    2.333    0.000 
#    0.000    0.833    0.000    0.000    0.000    0.000 
#    0.000    0.000    0.000    0.000    0.000    0.000 
#
# Total GULP energy -134315.045038 kJ/mol
# GULP energy per Si atom -5596.460210 kJ/mol
# Density = 2.554279 g / cm^3
# Si number density = 25.601063 Si / 1000 Ang^3
#
#
#
# Elastic Constant Matrix: (Units=GPa)
#
#
# Indices 1 2 3 4 5 6 
#
# 1 156.4122 52.2981 43.5526 0.0000 -72.3507 0.0000
# 2 52.2981 89.6889 7.7669 0.0000 -35.9029 0.0000
# 3 43.5526 7.7669 78.8535 -0.0002 -37.2620 0.0000
# 4 0.0000 0.0000 -0.0002 16.9221 0.0000 0.8308
# 5 -72.3507 -35.9029 -37.2620 0.0000 62.1455 0.0000
# 6 0.0000 0.0000 0.0000 0.8308 0.0000 25.6261
#
#
#
# Elastic Compliance Matrix: (Units=1/GPa)
#
#
# Indices 1 2 3 4 5 6 
#
# 1 0.014187 -0.002280 -0.000598 0.000000 0.014841 0.000000
# 2 -0.002280 0.015611 0.003808 0.000000 0.008648 0.000000
# 3 -0.000598 0.003808 0.018625 0.000000 0.012671 0.000000
# 4 0.000000 0.000000 0.000000 0.059188 0.000000 -0.001919
# 5 0.014841 0.008648 0.012671 0.000000 0.045963 0.000000
# 6 0.000000 0.000000 0.000000 -0.001919 0.000000 0.039085
#
#
# Mechanical properties :
#
#
# Convention : Reuss Voigt Hill
#
# Bulk Modulus (GPa) = 19.88745 59.13222 39.50983
# Shear Modulus (GPa) = 24.08941 35.69455 29.89198
#
# Velocity S-wave (km/s) = 3.07082 3.73803 3.42073
# Velocity P-wave (km/s) = 4.51202 6.46361 5.57389
#
# Compressibility (1/GPa) = 0.05028298
#
# Stress axis : x y z
#
# Youngs Moduli (GPa) = 70.48608 64.05690 53.69250
#
# Poissons Ratio (x) = 0.14604 0.03212
# Poissons Ratio (y) = 0.16070 -0.20447
# Poissons Ratio (z) = 0.04217 -0.24394
#
# Static dielectric constant tensor:
#      x y z
#    x 2.090290 0.000000 -0.008130 
#    y 0.000000 2.014860 0.000000 
#    z -0.008130 0.000000 2.090330 
# 
# From -- ./inp_files/209275.got.cif
#   From: 2010.05.17/outbox.cif.g08.bks.cpg/sg15_105_cif.got.tgz:209275.got - 2010.06.03 18:47:42.
