data_PCOD9260730
_publ_section_title
;
Structure prediction by ZEFSAII (Michael W. Deem and Ramdas Pophale) SiO2 
 PCOD9260730
Probable space group: C 2/C
;
_chemical_formula_sum "Si O2"
_cell_formula_units_Z 48
_cell_length_a 21.955708
_cell_length_b 13.979276
_cell_length_c 17.836779
_cell_angle_alpha 90.000000
_cell_angle_beta 20.112729
_cell_angle_gamma 90.000000
_cell_volume 1882.524866
_symmetry_space_group_name_H-M "C 2/C"
_symmetry_group_IT_number 15
_symmetry_cell_setting 'monoclinic'
loop_
_space_group_symop_operation_xyz
x,y,z
-x,y,1/2-z
-x,-y,-z
x,-y,1/2+z
1/2+x,1/2+y,z
1/2-x,1/2+y,1/2-z
1/2-x,1/2-y,-z
1/2+x,1/2-y,1/2+z
loop_
_atom_site_type_symbol
_atom_site_label
_atom_site_fract_x
_atom_site_fract_y
_atom_site_fract_z
Si Si1 0.779395 0.608756 0.114347
Si Si2 0.216002 0.383332 0.423950
Si Si3 0.147249 0.939841 0.515370
Si Si4 0.104675 0.117742 0.471359
Si Si5 0.172143 0.626033 0.149257
Si Si6 0.867950 0.272481 0.291320
O O1 0.792423 0.499526 0.073342
O O2 0.743198 0.615955 0.244606
O O3 0.620049 0.669613 0.261132
O O4 0.955788 0.669706 0.893501
O O5 0.211898 0.353696 0.516580
O O6 0.032234 0.351732 0.598408
O O7 0.409030 0.350786 0.173325
O O8 0.251730 0.844717 0.375132
O O9 0.081258 0.007366 0.525161
O O10 0.293077 0.011866 0.383766
O O11 0.000000 0.925163 0.750000
O O12 0.189886 0.164143 0.448055
O O13 0.750000 0.250000 0.500000
#
# Coordination Sequence:
#
# PCOD9260730 Si02
#       6
#     8   8   8   8   8   8
#     4  12  26  41  60  94 133 176 224 272 335 397
#     4  11  19  37  64  97 125 166 216 264 331 395
#     4  10  18  38  62  90 129 172 211 270 328 386
#     4  10  22  40  61  95 134 169 218 285 328 384
#     4   9  19  34  64  93 126 160 209 269 321 389
#     4  12  26  41  61  91 137 184 223 261 327 417
#
# _framework density 25.497672000000001
#
# number of rings (size 3 to 8) (size 9 to 14) (size 15 to 20)
#    1.000    0.333    3.333    3.500    4.667    2.667 
#    3.000    0.000    0.000    0.000    0.000   10.500 
#    0.000    0.000    0.000    0.000    0.000    0.000 
#
# Total GULP energy -134166.818517 kJ/mol
# GULP energy per Si atom -5590.284105 kJ/mol
# Density = 2.543964 g / cm^3
# Si number density = 25.497672 Si / 1000 Ang^3
#
#
#
# Elastic Constant Matrix: (Units=GPa)
#
#
# Indices 1 2 3 4 5 6 
#
# 1 68.9357 10.3413 48.7225 -0.0019 -13.3829 -0.0022
# 2 10.3413 112.1042 21.5515 -0.0074 -16.4090 0.0021
# 3 48.7225 21.5515 142.6359 -0.0004 -24.2563 -0.0014
# 4 -0.0019 -0.0074 -0.0004 21.2119 0.0012 -32.5876
# 5 -13.3829 -16.4090 -24.2563 0.0012 55.0539 0.0032
# 6 -0.0022 0.0021 -0.0014 -32.5876 0.0032 18.9811
#
#
#
# Elastic Compliance Matrix: (Units=1/GPa)
#
#
# Indices 1 2 3 4 5 6 
#
# 1 0.019322 -0.000312 -0.006237 -0.000002 0.001856 -0.000002
# 2 -0.000312 0.009469 -0.000927 0.000000 0.002338 -0.000002
# 3 -0.006237 -0.000927 0.009704 0.000001 0.002483 0.000001
# 4 -0.000002 0.000000 0.000001 -0.028789 0.000003 -0.049426
# 5 0.001856 0.002338 0.002483 0.000003 0.020406 0.000002
# 6 -0.000002 -0.000002 0.000001 -0.049426 0.000002 -0.032172
#
#
# Mechanical properties :
#
#
# Convention : Reuss Voigt Hill
#
# Bulk Modulus (GPa) = 42.47442 53.87849 48.17646
# Shear Modulus (GPa) = 241.08724 35.25342 138.17033
#
# Velocity S-wave (km/s) = 9.73437 3.72238 7.36933
# Velocity P-wave (km/s) = 11.95986 6.29694 9.55745
#
# Compressibility (1/GPa) = 0.02354358
#
# Stress axis : x y z
#
# Youngs Moduli (GPa) = 51.75512 105.60287 103.05328
#
# Poissons Ratio (x) = 0.03291 0.64278
# Poissons Ratio (y) = 0.01613 0.09550
# Poissons Ratio (z) = 0.32282 0.09786
#
# Static dielectric constant tensor:
#      x y z
#    x 2.057320 -0.000010 -0.032150 
#    y -0.000010 2.068720 -0.000020 
#    z -0.032150 -0.000020 2.089430 
# 
# From -- ./inp_files/219955.got.cif
#   From: 2010.05.17/outbox.cif.g08.bks.cpg/sg15_110_cif.got.tgz:219955.got - 2010.06.03 18:47:42.
