data_PCOD9260546
_publ_section_title
;
Structure prediction by ZEFSAII (Michael W. Deem and Ramdas Pophale) SiO2 
 PCOD9260546
Probable space group: C 2/C
;
_chemical_formula_sum "Si O2"
_cell_formula_units_Z 52
_cell_length_a 14.399088
_cell_length_b 10.129597
_cell_length_c 19.382677
_cell_angle_alpha 90.000000
_cell_angle_beta 124.570709
_cell_angle_gamma 90.000000
_cell_volume 2327.907832
_symmetry_space_group_name_H-M "C 2/C"
_symmetry_group_IT_number 15
_symmetry_cell_setting 'monoclinic'
loop_
_space_group_symop_operation_xyz
x,y,z
-x,y,1/2-z
-x,-y,-z
x,-y,1/2+z
1/2+x,1/2+y,z
1/2-x,1/2+y,1/2-z
1/2-x,1/2-y,-z
1/2+x,1/2-y,1/2+z
loop_
_atom_site_type_symbol
_atom_site_label
_atom_site_fract_x
_atom_site_fract_y
_atom_site_fract_z
Si Si1 0.227714 0.176593 0.644050
Si Si2 0.852043 0.330849 0.342471
Si Si3 0.000000 0.910022 0.250000
Si Si4 0.878691 0.922411 0.953865
Si Si5 0.505460 0.735470 0.888249
Si Si6 0.275756 0.453738 0.614426
Si Si7 0.559094 0.018148 0.948617
O O1 0.290002 0.172104 0.743538
O O2 0.100072 0.226752 0.604782
O O3 0.282972 0.297785 0.628570
O O4 0.212626 0.036293 0.600276
O O5 0.854809 0.195328 0.388333
O O6 0.789331 0.450678 0.357279
O O7 0.983441 0.366230 0.386243
O O8 0.962498 0.820196 0.297908
O O9 0.901526 0.994130 0.174232
O O10 0.893332 0.847099 0.033125
O O11 0.000000 0.000000 0.000000
O O12 0.540481 0.885861 0.898106
O O13 0.191352 0.464652 0.514637
O O14 0.500000 0.000000 0.000000
#
# Coordination Sequence:
#
# PCOD9260546 Si02
#       7
#     8   8   4   8   8   8   8
#     4  11  21  36  67  99 125 169 234 281 314 392
#     4  11  19  36  69 100 126 162 223 286 328 376
#     4  12  28  40  64 100 146 186 210 278 358 412
#     4  10  21  35  61 100 128 164 221 283 326 386
#     4  11  21  40  62  97 136 171 226 271 335 404
#     4  11  22  42  61  95 132 175 219 275 343 393
#     4  10  18  37  66  94 125 166 224 281 327 383
#
# _framework density 22.337654000000001
#
# number of rings (size 3 to 8) (size 9 to 14) (size 15 to 20)
#    0.000    1.231    7.692    1.846    2.154    0.615 
#    0.000    0.769    0.000    0.923    0.000    0.000 
#    0.000    0.000    0.000    0.000    0.000    0.000 
#
# Total GULP energy -144968.988362 kJ/mol
# GULP energy per Si atom -5575.730322 kJ/mol
# Density = 2.228681 g / cm^3
# Si number density = 22.337654 Si / 1000 Ang^3
#
#
#
# Elastic Constant Matrix: (Units=GPa)
#
#
# Indices 1 2 3 4 5 6 
#
# 1 27.4101 11.0779 17.4257 0.0000 15.4310 0.0000
# 2 11.0779 142.4233 48.7448 0.0000 2.2553 0.0000
# 3 17.4257 48.7448 127.8011 0.0000 25.4107 0.0000
# 4 0.0000 0.0000 0.0000 21.3537 0.0000 13.2125
# 5 15.4310 2.2553 25.4107 0.0000 30.0133 0.0000
# 6 0.0000 0.0000 0.0000 13.2125 0.0000 3.7169
#
#
#
# Elastic Compliance Matrix: (Units=1/GPa)
#
#
# Indices 1 2 3 4 5 6 
#
# 1 0.053272 -0.003503 -0.000642 0.000000 -0.026582 0.000000
# 2 -0.003503 0.008453 -0.003581 0.000000 0.004198 0.000000
# 3 -0.000642 -0.003581 0.011013 0.000000 -0.008725 0.000000
# 4 0.000000 0.000000 0.000000 -0.039043 0.000000 0.138787
# 5 -0.026582 0.004198 -0.008725 0.000000 0.054057 0.000000
# 6 0.000000 0.000000 0.000000 0.138787 0.000000 -0.224305
#
#
# Mechanical properties :
#
#
# Convention : Reuss Voigt Hill
#
# Bulk Modulus (GPa) = 17.45652 50.23680 33.84666
# Shear Modulus (GPa) = -49.01650 25.70918 -11.65366
#
# Velocity S-wave (km/s) = -4.68946 3.39622 -2.28656
# Velocity P-wave (km/s) = 4.63569 6.15773 2.86601
#
# Compressibility (1/GPa) = 0.05728517
#
# Stress axis : x y z
#
# Youngs Moduli (GPa) = 18.77170 118.30214 90.80334
#
# Poissons Ratio (x) = 0.41439 0.05832
# Poissons Ratio (y) = 0.06575 0.32517
# Poissons Ratio (z) = 0.01206 0.42365
#
# Static dielectric constant tensor:
#      x y z
#    x 1.908250 0.000000 0.041760 
#    y 0.000000 1.808600 0.000000 
#    z 0.041760 0.000000 1.651940 
# 
# From -- ./inp_files/247894.got.cif
#   From: 2010.05.17/outbox.cif.g08.bks.cpg/sg15_124_cif.got.tgz:247894.got - 2010.06.03 18:47:42.
