data_PCOD9260834
_publ_section_title
;
Structure prediction by ZEFSAII (Michael W. Deem and Ramdas Pophale) SiO2 
 PCOD9260834
Probable space group: C 2/C
;
_chemical_formula_sum "Si O2"
_cell_formula_units_Z 32
_cell_length_a 21.812953
_cell_length_b 11.114936
_cell_length_c 12.141871
_cell_angle_alpha 90.000000
_cell_angle_beta 154.478501
_cell_angle_gamma 90.000000
_cell_volume 1268.331801
_symmetry_space_group_name_H-M "C 2/C"
_symmetry_group_IT_number 15
_symmetry_cell_setting 'monoclinic'
loop_
_space_group_symop_operation_xyz
x,y,z
-x,y,1/2-z
-x,-y,-z
x,-y,1/2+z
1/2+x,1/2+y,z
1/2-x,1/2+y,1/2-z
1/2-x,1/2-y,-z
1/2+x,1/2-y,1/2+z
loop_
_atom_site_type_symbol
_atom_site_label
_atom_site_fract_x
_atom_site_fract_y
_atom_site_fract_z
Si Si1 0.740925 0.130686 0.912239
Si Si2 0.805434 0.185050 0.332648
Si Si3 0.885337 0.095165 0.696388
Si Si4 0.144237 0.484431 0.939820
O O1 0.719368 0.182172 0.756204
O O2 0.624186 0.049270 0.786734
O O3 0.750000 0.250000 0.000000
O O4 0.877764 0.044908 0.146234
O O5 0.820950 0.164946 0.487420
O O6 0.957791 0.142308 0.530317
O O7 0.690577 0.091087 0.097857
O O8 0.780817 0.095782 0.630733
O O9 0.000000 0.427410 0.750000
#
# Coordination Sequence:
#
# PCOD9260834 Si02
#       4
#     8   8   8   8
#     4   8  18  35  58  96 128 171 218 260 329 380
#     4  10  18  38  65  95 137 166 225 273 319 394
#     4   9  20  35  63  98 125 175 219 267 328 384
#     4   9  19  36  58  95 132 173 214 266 330 392
#
# _framework density 25.229991999999999
#
# number of rings (size 3 to 8) (size 9 to 14) (size 15 to 20)
#    1.500    1.500    0.000    0.750    0.000    1.000 
#   18.000    0.000    5.500    7.500    0.000    0.000 
#    0.000    0.000    0.000    0.000    0.000    0.000 
#
# Total GULP energy -89287.585419 kJ/mol
# GULP energy per Si atom -5580.474089 kJ/mol
# Density = 2.517257 g / cm^3
# Si number density = 25.229992 Si / 1000 Ang^3
#
#
#
# Elastic Constant Matrix: (Units=GPa)
#
#
# Indices 1 2 3 4 5 6 
#
# 1 103.5004 -3.9601 21.6913 0.0000 14.0004 0.0000
# 2 -3.9601 95.3457 9.5827 0.0000 -1.8396 0.0000
# 3 21.6913 9.5827 62.9177 0.0000 -6.5249 0.0000
# 4 0.0000 0.0000 0.0000 18.3665 0.0000 -19.3127
# 5 14.0004 -1.8396 -6.5249 0.0000 49.2900 0.0000
# 6 0.0000 0.0000 0.0000 -19.3127 0.0000 34.1912
#
#
#
# Elastic Compliance Matrix: (Units=1/GPa)
#
#
# Indices 1 2 3 4 5 6 
#
# 1 0.011102 0.000826 -0.004337 0.000000 -0.003697 0.000000
# 2 0.000826 0.010714 -0.001926 0.000000 -0.000090 0.000000
# 3 -0.004337 -0.001926 0.018050 0.000000 0.003549 0.000000
# 4 0.000000 0.000000 0.000000 0.134088 0.000000 0.075739
# 5 -0.003697 -0.000090 0.003549 0.000000 0.021805 0.000000
# 6 0.000000 0.000000 0.000000 0.075739 0.000000 0.072028
#
#
# Mechanical properties :
#
#
# Convention : Reuss Voigt Hill
#
# Bulk Modulus (GPa) = 34.49087 35.15463 34.82275
# Shear Modulus (GPa) = 17.34149 35.99950 26.67050
#
# Velocity S-wave (km/s) = 2.62455 3.78147 3.25483
# Velocity P-wave (km/s) = 4.78379 5.74717 5.28746
#
# Compressibility (1/GPa) = 0.02899318
#
# Stress axis : x y z
#
# Youngs Moduli (GPa) = 90.07118 93.33350 55.40078
#
# Poissons Ratio (x) = -0.07706 0.24026
# Poissons Ratio (y) = -0.07437 0.10669
# Poissons Ratio (z) = 0.39061 0.17974
#
# Static dielectric constant tensor:
#      x y z
#    x 2.022290 0.000000 -0.035290 
#    y 0.000000 2.063800 0.000000 
#    z -0.035290 0.000000 1.956030 
# 
# From -- ./inp_files/178071.got.cif
#   From: 2010.05.17/outbox.cif.g08.bks.cpg/sg15_90_cif.got.tgz:178071.got - 2010.06.03 18:47:42.
