data_PCOD9260930
_publ_section_title
;
Structure prediction by ZEFSAII (Michael W. Deem and Ramdas Pophale) SiO2 
 PCOD9260930
Probable space group: C 2/C
;
_chemical_formula_sum "Si O2"
_cell_formula_units_Z 60
_cell_length_a 22.410330
_cell_length_b 11.188947
_cell_length_c 25.411459
_cell_angle_alpha 90.000000
_cell_angle_beta 158.952541
_cell_angle_gamma 90.000000
_cell_volume 2288.401423
_symmetry_space_group_name_H-M "C 2/C"
_symmetry_group_IT_number 15
_symmetry_cell_setting 'monoclinic'
loop_
_space_group_symop_operation_xyz
x,y,z
-x,y,1/2-z
-x,-y,-z
x,-y,1/2+z
1/2+x,1/2+y,z
1/2-x,1/2+y,1/2-z
1/2-x,1/2-y,-z
1/2+x,1/2-y,1/2+z
loop_
_atom_site_type_symbol
_atom_site_label
_atom_site_fract_x
_atom_site_fract_y
_atom_site_fract_z
Si Si1 0.155840 0.123598 0.916355
Si Si2 0.828370 0.858901 0.722492
Si Si3 0.332107 0.528316 0.974628
Si Si4 0.000000 0.641365 0.750000
Si Si5 0.131620 0.486731 0.711401
Si Si6 0.430547 0.229199 0.401514
Si Si7 0.325841 0.118109 0.508545
Si Si8 0.265218 0.906960 0.310379
O O1 0.246426 0.005933 0.965316
O O2 0.000000 0.144628 0.750000
O O3 0.250000 0.250000 0.000000
O O4 0.117850 0.077260 0.944039
O O5 0.793058 0.821636 0.633053
O O6 0.767598 0.997762 0.671868
O O7 0.712457 0.792677 0.670635
O O8 0.019446 0.873881 0.898096
O O9 0.148287 0.564532 0.845021
O O10 0.288394 0.500571 0.878269
O O11 0.898191 0.694262 0.617016
O O12 0.081153 0.349801 0.661874
O O13 0.151145 0.517640 0.666636
O O14 0.991644 0.576719 0.615362
O O15 0.608762 0.197831 0.571558
O O16 0.397000 0.359326 0.351938
#
# Coordination Sequence:
#
# PCOD9260930 Si02
#       8
#     8   8   8   4   8   8   8   8
#     4  11  24  35  52  85 121 149 196 249 293 360
#     4  11  21  40  63  85 124 166 207 242 300 364
#     4  10  22  37  59  85 112 163 198 240 293 361
#     4   8  20  34  58  86 112 140 200 248 294 350
#     4  10  21  41  61  80 123 162 203 238 305 362
#     4  11  24  39  59  89 125 157 203 257 302 348
#     4  10  18  39  57  79 113 162 196 236 291 356
#     4  11  24  39  59  90 123 161 200 258 298 356
#
# _framework density 26.219177999999999
#
# number of rings (size 3 to 8) (size 9 to 14) (size 15 to 20)
#    0.000    1.600    4.000    0.800    9.333    3.200 
#    0.000    0.000    0.000    0.000    0.000   39.200 
#    0.000    0.000    0.000    0.000    0.000    0.000 
#
# Total GULP energy -167604.199116 kJ/mol
# GULP energy per Si atom -5586.806637 kJ/mol
# Density = 2.615950 g / cm^3
# Si number density = 26.219178 Si / 1000 Ang^3
#
#
#
# Elastic Constant Matrix: (Units=GPa)
#
#
# Indices 1 2 3 4 5 6 
#
# 1 101.0988 10.7628 53.7824 0.0019 -31.6218 0.0004
# 2 10.7628 59.5579 34.0455 0.0040 -5.9224 -0.0006
# 3 53.7824 34.0455 213.7218 -0.0027 -28.6154 -0.0007
# 4 0.0019 0.0040 -0.0027 47.1324 -0.0062 -3.5949
# 5 -31.6218 -5.9224 -28.6154 -0.0062 57.8578 -0.0010
# 6 0.0004 -0.0006 -0.0007 -3.5949 -0.0010 23.6564
#
#
#
# Elastic Compliance Matrix: (Units=1/GPa)
#
#
# Indices 1 2 3 4 5 6 
#
# 1 0.013075 -0.000382 -0.002440 0.000000 0.005901 0.000000
# 2 -0.000382 0.018495 -0.002811 -0.000002 0.000294 0.000000
# 3 -0.002440 -0.002811 0.005915 0.000001 0.001305 0.000000
# 4 0.000000 -0.000002 0.000001 0.021466 0.000003 0.003262
# 5 0.005901 0.000294 0.001305 0.000003 0.021184 0.000001
# 6 0.000000 0.000000 0.000000 0.003262 0.000001 0.042768
#
#
# Mechanical properties :
#
#
# Convention : Reuss Voigt Hill
#
# Bulk Modulus (GPa) = 38.13571 63.50664 50.82117
# Shear Modulus (GPa) = 34.98756 44.11516 39.55136
#
# Velocity S-wave (km/s) = 3.65694 4.10634 3.88814
# Velocity P-wave (km/s) = 5.69276 6.83789 6.29143
#
# Compressibility (1/GPa) = 0.02622215
#
# Stress axis : x y z
#
# Youngs Moduli (GPa) = 76.48002 54.06752 169.05273
#
# Poissons Ratio (x) = 0.02063 0.41241
# Poissons Ratio (y) = 0.02918 0.47518
# Poissons Ratio (z) = 0.18658 0.15197
#
# Static dielectric constant tensor:
#      x y z
#    x 2.141660 0.000010 0.061560 
#    y 0.000010 2.105510 0.000000 
#    z 0.061560 0.000000 2.074250 
# 
# From -- ./inp_files/61569.got.cif
#   From: 2010.05.17/outbox.cif.g08.bks.cpg/sg15_31_cif.got.tgz:61569.got - 2010.06.03 18:47:42.
