data_PCOD9260819
_publ_section_title
;
Structure prediction by ZEFSAII (Michael W. Deem and Ramdas Pophale) SiO2 
 PCOD9260819
Probable space group: C 2/C
;
_chemical_formula_sum "Si O2"
_cell_formula_units_Z 52
_cell_length_a 13.183697
_cell_length_b 13.561161
_cell_length_c 13.216340
_cell_angle_alpha 90.000000
_cell_angle_beta 106.370533
_cell_angle_gamma 90.000000
_cell_volume 2267.105516
_symmetry_space_group_name_H-M "C 2/C"
_symmetry_group_IT_number 15
_symmetry_cell_setting 'monoclinic'
loop_
_space_group_symop_operation_xyz
x,y,z
-x,y,1/2-z
-x,-y,-z
x,-y,1/2+z
1/2+x,1/2+y,z
1/2-x,1/2+y,1/2-z
1/2-x,1/2-y,-z
1/2+x,1/2-y,1/2+z
loop_
_atom_site_type_symbol
_atom_site_label
_atom_site_fract_x
_atom_site_fract_y
_atom_site_fract_z
Si Si1 0.442067 0.070105 0.357248
Si Si2 0.777986 0.829899 0.380648
Si Si3 0.665202 0.395561 0.326522
Si Si4 0.174840 0.502486 0.486939
Si Si5 0.000000 0.935203 0.750000
Si Si6 0.419192 0.271213 0.592936
Si Si7 0.500000 0.246129 0.250000
Si Si8 0.500000 0.100138 0.750000
O O1 0.370539 0.063689 0.434454
O O2 0.430702 0.171441 0.296173
O O3 0.567064 0.054946 0.418081
O O4 0.418269 0.976948 0.277547
O O5 0.789939 0.853509 0.266371
O O6 0.735808 0.928522 0.428261
O O7 0.691014 0.744670 0.376667
O O8 0.883004 0.794771 0.469508
O O9 0.747142 0.420275 0.437617
O O10 0.602113 0.495248 0.280077
O O11 0.576230 0.316973 0.334759
O O12 0.987650 0.861880 0.652229
O O13 0.475481 0.171405 0.648270
#
# Coordination Sequence:
#
# PCOD9260819 Si02
#       8
#     8   8   8   8   4   8   4   4
#     4  10  23  42  67  92 135 168 223 269 329 386
#     4  11  23  40  65  96 129 173 219 271 323 390
#     4  11  25  44  65  94 139 172 220 268 330 394
#     4  11  23  43  67  98 127 177 219 275 328 393
#     4  10  22  44  62  96 132 172 208 268 328 396
#     4  10  21  37  65  96 124 161 221 261 324 388
#     4  10  26  44  64  96 134 180 212 268 328 398
#     4  10  18  38  64  96 122 164 208 270 326 378
#
# _framework density 22.936736
#
# number of rings (size 3 to 8) (size 9 to 14) (size 15 to 20)
#    0.000    1.538    3.077    0.923    6.462    1.231 
#    0.000    0.000    0.000    0.000    0.000    0.000 
#    0.000    0.000    0.000    0.000    0.000    0.000 
#
# Total GULP energy -145154.203225 kJ/mol
# GULP energy per Si atom -5582.853970 kJ/mol
# Density = 2.288453 g / cm^3
# Si number density = 22.936736 Si / 1000 Ang^3
#
#
#
# Elastic Constant Matrix: (Units=GPa)
#
#
# Indices 1 2 3 4 5 6 
#
# 1 37.3516 19.6580 12.3750 0.0000 6.9389 0.0000
# 2 19.6580 128.8259 26.8431 0.0000 16.0825 0.0000
# 3 12.3750 26.8431 59.8900 0.0000 11.8248 0.0000
# 4 0.0000 0.0000 0.0000 23.3603 0.0000 -0.8143
# 5 6.9389 16.0825 11.8248 0.0000 44.1706 0.0000
# 6 0.0000 0.0000 0.0000 -0.8143 0.0000 25.6753
#
#
#
# Elastic Compliance Matrix: (Units=1/GPa)
#
#
# Indices 1 2 3 4 5 6 
#
# 1 0.030451 -0.003459 -0.004271 0.000000 -0.002381 0.000000
# 2 -0.003459 0.009164 -0.003000 0.000000 -0.001990 0.000000
# 3 -0.004271 -0.003000 0.019613 0.000000 -0.003487 0.000000
# 4 0.000000 0.000000 0.000000 0.042855 0.000000 0.001359
# 5 -0.002381 -0.001990 -0.003487 0.000000 0.024672 0.000000
# 6 0.000000 0.000000 0.000000 0.001359 0.000000 0.038991
#
#
# Mechanical properties :
#
#
# Convention : Reuss Voigt Hill
#
# Bulk Modulus (GPa) = 26.47842 38.20217 32.34030
# Shear Modulus (GPa) = 25.02569 29.78732 27.40651
#
# Velocity S-wave (km/s) = 3.30673 3.60762 3.46044
# Velocity P-wave (km/s) = 5.11355 5.83480 5.48604
#
# Compressibility (1/GPa) = 0.03776661
#
# Stress axis : x y z
#
# Youngs Moduli (GPa) = 32.83995 109.12588 50.98698
#
# Poissons Ratio (x) = 0.37751 0.21779
# Poissons Ratio (y) = 0.11361 0.15294
# Poissons Ratio (z) = 0.14027 0.32732
#
# Static dielectric constant tensor:
#      x y z
#    x 1.909590 0.000000 0.020150 
#    y 0.000000 1.862480 0.000000 
#    z 0.020150 0.000000 1.929010 
# 
# From -- ./inp_files/153579.got.cif
#   From: 2010.05.17/outbox.cif.g08.bks.cpg/sg15_77_cif.got.tgz:153579.got - 2010.06.03 18:47:42.
