data_PCOD9260479
_publ_section_title
;
Structure prediction by ZEFSAII (Michael W. Deem and Ramdas Pophale) SiO2 
 PCOD9260479
Probable space group: C 2/C
;
_chemical_formula_sum "Si O2"
_cell_formula_units_Z 40
_cell_length_a 10.314465
_cell_length_b 14.142001
_cell_length_c 17.051409
_cell_angle_alpha 90.000000
_cell_angle_beta 128.455138
_cell_angle_gamma 90.000000
_cell_volume 1947.746717
_symmetry_space_group_name_H-M "C 2/C"
_symmetry_group_IT_number 15
_symmetry_cell_setting 'monoclinic'
loop_
_space_group_symop_operation_xyz
x,y,z
-x,y,1/2-z
-x,-y,-z
x,-y,1/2+z
1/2+x,1/2+y,z
1/2-x,1/2+y,1/2-z
1/2-x,1/2-y,-z
1/2+x,1/2-y,1/2+z
loop_
_atom_site_type_symbol
_atom_site_label
_atom_site_fract_x
_atom_site_fract_y
_atom_site_fract_z
Si Si1 0.500000 0.578117 0.250000
Si Si2 0.677306 0.255195 0.341139
Si Si3 0.231822 0.236814 0.402112
Si Si4 0.500000 0.900698 0.250000
Si Si5 0.453534 0.680104 0.541413
Si Si6 0.299106 0.570722 0.773419
O O1 0.622479 0.645995 0.343344
O O2 0.615353 0.510888 0.242592
O O3 0.500000 0.211695 0.250000
O O4 0.641675 0.305832 0.411712
O O5 0.715119 0.334247 0.288012
O O6 0.825680 0.184324 0.420555
O O7 0.250000 0.250000 0.500000
O O8 0.129150 0.328317 0.336786
O O9 0.410124 0.238463 0.426274
O O10 0.383644 0.955727 0.266122
O O11 0.573370 0.592721 0.607061
#
# Coordination Sequence:
#
# PCOD9260479 Si02
#       6
#     4   8   8   4   8   8
#     4  11  22  40  66  89 122 158 202 253 312 354
#     4   9  16  30  59  87 120 158 201 248 293 360
#     4  10  21  38  60  87 118 167 207 242 297 378
#     4   9  20  36  64  85 126 160 204 247 300 368
#     4   9  17  32  58  88 114 160 207 238 295 367
#     4  10  18  37  63  91 123 160 201 263 302 346
#
# _framework density 20.536549999999998
#
# number of rings (size 3 to 8) (size 9 to 14) (size 15 to 20)
#    0.000    2.400    3.000    1.200    0.000    1.600 
#    0.000    8.000   24.200    0.000    2.600    0.000 
#    0.000    0.000    0.000    0.000    0.000    0.000 
#
# Total GULP energy -111355.605804 kJ/mol
# GULP energy per Si atom -5567.780290 kJ/mol
# Density = 2.048981 g / cm^3
# Si number density = 20.536550 Si / 1000 Ang^3
#
#
#
# Elastic Constant Matrix: (Units=GPa)
#
#
# Indices 1 2 3 4 5 6 
#
# 1 151.1353 36.3236 26.3988 0.0000 12.1066 0.0000
# 2 36.3236 53.8859 32.5048 0.0000 0.7248 0.0000
# 3 26.3988 32.5048 128.9631 0.0000 16.8600 0.0000
# 4 0.0000 0.0000 0.0000 -63.0058 0.0000 50.2178
# 5 12.1066 0.7248 16.8600 0.0000 25.5835 0.0000
# 6 0.0000 0.0000 0.0000 50.2178 0.0000 -19.9479
#
#
#
# Elastic Compliance Matrix: (Units=1/GPa)
#
#
# Indices 1 2 3 4 5 6 
#
# 1 0.008245 -0.005655 0.000248 0.000000 -0.003905 0.000000
# 2 -0.005655 0.026021 -0.006188 0.000000 0.006017 0.000000
# 3 0.000248 -0.006188 0.010128 0.000000 -0.006617 0.000000
# 4 0.000000 0.000000 0.000000 0.015769 0.000000 0.039698
# 5 -0.003905 0.006017 -0.006617 0.000000 0.045126 0.000000
# 6 0.000000 0.000000 0.000000 0.039698 0.000000 0.049807
#
#
# Mechanical properties :
#
#
# Convention : Reuss Voigt Hill
#
# Bulk Modulus (GPa) = 47.15811 58.27097 52.71454
# Shear Modulus (GPa) = 26.97541 4.44309 15.70925
#
# Velocity S-wave (km/s) = 3.62820 1.47248 2.76876
# Velocity P-wave (km/s) = 6.36904 5.59704 5.99548
#
# Compressibility (1/GPa) = 0.02120526
#
# Stress axis : x y z
#
# Youngs Moduli (GPa) = 121.28260 38.43008 98.73652
#
# Poissons Ratio (x) = 0.21733 -0.02450
# Poissons Ratio (y) = 0.68586 0.61094
# Poissons Ratio (z) = -0.03009 0.23779
#
# Static dielectric constant tensor:
#      x y z
#    x 1.850050 0.000000 0.007650 
#    y 0.000000 1.726070 0.000000 
#    z 0.007650 0.000000 1.745980 
# 
# From -- ./inp_files/197477.got.cif
#   From: 2010.05.17/outbox.cif.g08.bks.cpg/sg15_99_cif.got.tgz:197477.got - 2010.06.03 18:47:42.
