data_PCOD9260351
_publ_section_title
;
Structure prediction by ZEFSAII (Michael W. Deem and Ramdas Pophale) SiO2 
 PCOD9260351
Probable space group: C 2/C
;
_chemical_formula_sum "Si O2"
_cell_formula_units_Z 48
_cell_length_a 8.195994
_cell_length_b 16.588618
_cell_length_c 20.103338
_cell_angle_alpha 90.000000
_cell_angle_beta 117.377261
_cell_angle_gamma 90.000000
_cell_volume 2427.124076
_symmetry_space_group_name_H-M "C 2/C"
_symmetry_group_IT_number 15
_symmetry_cell_setting 'monoclinic'
loop_
_space_group_symop_operation_xyz
x,y,z
-x,y,1/2-z
-x,-y,-z
x,-y,1/2+z
1/2+x,1/2+y,z
1/2-x,1/2+y,1/2-z
1/2-x,1/2-y,-z
1/2+x,1/2-y,1/2+z
loop_
_atom_site_type_symbol
_atom_site_label
_atom_site_fract_x
_atom_site_fract_y
_atom_site_fract_z
Si Si1 0.510404 0.791570 0.882111
Si Si2 0.718260 0.184935 0.787493
Si Si3 0.167168 0.898872 0.574866
Si Si4 0.266148 0.644742 0.645461
Si Si5 0.963599 0.264598 0.029915
Si Si6 0.517489 0.559162 0.601087
O O1 0.306979 0.772954 0.817248
O O2 0.618982 0.873231 0.886162
O O3 0.627332 0.719329 0.870082
O O4 0.510117 0.778427 0.961149
O O5 0.500000 0.185277 0.750000
O O6 0.777727 0.153668 0.726076
O O7 0.819398 0.124426 0.857764
O O8 0.058718 0.817506 0.572721
O O9 0.096104 0.921055 0.487358
O O10 0.110212 0.972541 0.610422
O O11 0.370607 0.569078 0.633230
O O12 0.054970 0.660032 0.585140
O O13 0.750000 0.250000 0.000000
#
# Coordination Sequence:
#
# PCOD9260351 Si02
#       6
#     8   8   8   8   8   8
#     4  10  18  37  58  85 118 155 205 252 299 354
#     4  11  22  36  59  90 120 164 208 249 304 377
#     4  10  19  35  60  86 116 152 200 252 305 351
#     4  10  19  35  59  85 114 164 201 241 306 363
#     4  11  19  33  57  90 120 147 201 263 292 353
#     4  10  19  36  58  85 117 156 200 242 306 378
#
# _framework density 19.776492000000001
#
# number of rings (size 3 to 8) (size 9 to 14) (size 15 to 20)
#    0.000    1.667    5.000    4.000    0.000    0.000 
#    0.000    5.833    0.000   14.000    0.000    0.000 
#    0.000    0.000    0.000    0.000    0.000    0.000 
#
# Total GULP energy -133836.964253 kJ/mol
# GULP energy per Si atom -5576.540177 kJ/mol
# Density = 1.973148 g / cm^3
# Si number density = 19.776492 Si / 1000 Ang^3
#
#
#
# Elastic Constant Matrix: (Units=GPa)
#
#
# Indices 1 2 3 4 5 6 
#
# 1 101.5877 55.7383 42.5753 0.0000 22.0683 0.0000
# 2 55.7383 93.5771 29.8854 0.0000 8.8042 0.0000
# 3 42.5753 29.8854 78.0708 0.0000 5.1323 0.0000
# 4 0.0000 0.0000 0.0000 10.0744 0.0000 0.8465
# 5 22.0683 8.8042 5.1323 0.0000 39.3235 0.0000
# 6 0.0000 0.0000 0.0000 0.8465 0.0000 34.7480
#
#
#
# Elastic Compliance Matrix: (Units=1/GPa)
#
#
# Indices 1 2 3 4 5 6 
#
# 1 0.018947 -0.008441 -0.006583 0.000000 -0.007884 0.000000
# 2 -0.008441 0.016116 -0.001654 0.000000 0.001345 0.000000
# 3 -0.006583 -0.001654 0.016910 0.000000 0.001858 0.000000
# 4 0.000000 0.000000 0.000000 0.099465 0.000000 -0.002423
# 5 -0.007884 0.001345 0.001858 0.000000 0.029311 0.000000
# 6 0.000000 0.000000 0.000000 -0.002423 0.000000 0.028838
#
#
# Mechanical properties :
#
#
# Convention : Reuss Voigt Hill
#
# Bulk Modulus (GPa) = 53.71738 58.84818 56.28278
# Shear Modulus (GPa) = 20.06836 26.49829 23.28332
#
# Velocity S-wave (km/s) = 3.18898 3.66442 3.43494
# Velocity P-wave (km/s) = 6.38598 6.90834 6.65229
#
# Compressibility (1/GPa) = 0.01861595
#
# Stress axis : x y z
#
# Youngs Moduli (GPa) = 52.77951 62.04945 59.13696
#
# Poissons Ratio (x) = 0.52378 0.38929
# Poissons Ratio (y) = 0.44553 0.09783
# Poissons Ratio (z) = 0.34744 0.10264
#
# Static dielectric constant tensor:
#      x y z
#    x 1.751190 0.000000 0.039460 
#    y 0.000000 1.711870 0.000000 
#    z 0.039460 0.000000 1.739210 
# 
# From -- ./inp_files/232862.got.cif
#   From: 2010.05.17/outbox.cif.g08.bks.cpg/sg15_117_cif.got.tgz:232862.got - 2010.06.03 18:47:42.
