data_PCOD9260326
_publ_section_title
;
Structure prediction by ZEFSAII (Michael W. Deem and Ramdas Pophale) SiO2 
 PCOD9260326
Probable space group: C 2/C
;
_chemical_formula_sum "Si O2"
_cell_formula_units_Z 40
_cell_length_a 17.924308
_cell_length_b 13.279949
_cell_length_c 18.318197
_cell_angle_alpha 90.000000
_cell_angle_beta 148.147284
_cell_angle_gamma 90.000000
_cell_volume 2301.121295
_symmetry_space_group_name_H-M "C 2/C"
_symmetry_group_IT_number 15
_symmetry_cell_setting 'monoclinic'
loop_
_space_group_symop_operation_xyz
x,y,z
-x,y,1/2-z
-x,-y,-z
x,-y,1/2+z
1/2+x,1/2+y,z
1/2-x,1/2+y,1/2-z
1/2-x,1/2-y,-z
1/2+x,1/2-y,1/2+z
loop_
_atom_site_type_symbol
_atom_site_label
_atom_site_fract_x
_atom_site_fract_y
_atom_site_fract_z
Si Si1 0.885489 0.133236 0.397846
Si Si2 0.683443 0.433263 0.094159
Si Si3 0.201193 0.438392 0.612195
Si Si4 0.340074 0.648505 0.087293
Si Si5 0.608132 0.137495 0.614670
O O1 0.820200 0.102518 0.265721
O O2 0.860905 0.250893 0.387777
O O3 0.051405 0.109056 0.531246
O O4 0.816029 0.053956 0.395584
O O5 0.818380 0.385154 0.246213
O O6 0.659601 0.403572 0.991337
O O7 0.257383 0.419010 0.578064
O O8 0.058518 0.376608 0.510705
O O9 0.164227 0.552336 0.605497
O O10 0.500000 0.666688 0.250000
O O11 0.250000 0.750000 0.000000
#
# Coordination Sequence:
#
# PCOD9260326 Si02
#       5
#     8   8   8   8   8
#     4  10  18  37  56  81 108 147 186 225 274 319
#     4  10  22  33  57  84 111 142 186 228 268 335
#     4  10  22  35  55  85 112 142 185 228 272 333
#     4  12  24  38  56  83 116 148 180 231 285 328
#     4  10  20  37  58  81 112 145 184 228 273 324
#
# _framework density 17.382830999999999
#
# number of rings (size 3 to 8) (size 9 to 14) (size 15 to 20)
#    0.000    1.600    2.000    3.600    2.800    0.000 
#    0.000    1.000    0.000    0.000    0.000    0.000 
#    0.000    0.000    0.000    0.000    0.000    0.000 
#
# Total GULP energy -111601.813613 kJ/mol
# GULP energy per Si atom -5580.090681 kJ/mol
# Density = 1.734327 g / cm^3
# Si number density = 17.382831 Si / 1000 Ang^3
#
#
#
# Elastic Constant Matrix: (Units=GPa)
#
#
# Indices 1 2 3 4 5 6 
#
# 1 56.2445 30.2817 20.6525 0.0000 -11.2431 0.0000
# 2 30.2817 141.3237 30.7335 0.0000 -9.6264 0.0000
# 3 20.6525 30.7335 77.8118 0.0000 -7.2456 0.0000
# 4 0.0000 0.0000 0.0000 12.6360 0.0000 6.6664
# 5 -11.2431 -9.6264 -7.2456 0.0000 31.3624 0.0000
# 6 0.0000 0.0000 0.0000 6.6664 0.0000 8.5894
#
#
#
# Elastic Compliance Matrix: (Units=1/GPa)
#
#
# Indices 1 2 3 4 5 6 
#
# 1 0.022332 -0.003510 -0.003982 0.000000 0.006009 0.000000
# 2 -0.003510 0.008383 -0.002307 0.000000 0.000782 0.000000
# 3 -0.003982 -0.002307 0.014942 0.000000 0.001317 0.000000
# 4 0.000000 0.000000 0.000000 0.134009 0.000000 -0.104006
# 5 0.006009 0.000782 0.001317 0.000000 0.034584 0.000000
# 6 0.000000 0.000000 0.000000 -0.104006 0.000000 0.197142
#
#
# Mechanical properties :
#
#
# Convention : Reuss Voigt Hill
#
# Bulk Modulus (GPa) = 38.37156 48.74615 43.55885
# Shear Modulus (GPa) = 11.37204 23.43173 17.40188
#
# Velocity S-wave (km/s) = 2.56053 3.67547 3.16744
# Velocity P-wave (km/s) = 5.55554 6.79085 6.20402
#
# Compressibility (1/GPa) = 0.02606097
#
# Stress axis : x y z
#
# Youngs Moduli (GPa) = 44.77792 119.29006 66.92580
#
# Poissons Ratio (x) = 0.41872 0.26647
# Poissons Ratio (y) = 0.15717 0.15437
# Poissons Ratio (z) = 0.17828 0.27515
#
# Static dielectric constant tensor:
#      x y z
#    x 1.578630 0.000000 0.013430 
#    y 0.000000 1.608230 0.000000 
#    z 0.013430 0.000000 1.588370 
# 
# From -- ./inp_files/214672.got.cif
#   From: 2010.05.17/outbox.cif.g08.bks.cpg/sg15_108_cif.got.tgz:214672.got - 2010.06.03 18:47:42.
