data_PCOD9260073
_publ_section_title
;
Structure prediction by ZEFSAII (Michael W. Deem and Ramdas Pophale) SiO2 
 PCOD9260073
Probable space group: C 2/C
;
_chemical_formula_sum "Si O2"
_cell_formula_units_Z 48
_cell_length_a 11.948089
_cell_length_b 10.567588
_cell_length_c 18.969086
_cell_angle_alpha 90.000000
_cell_angle_beta 62.166817
_cell_angle_gamma 90.000000
_cell_volume 2117.998344
_symmetry_space_group_name_H-M "C 2/C"
_symmetry_group_IT_number 15
_symmetry_cell_setting 'monoclinic'
loop_
_space_group_symop_operation_xyz
x,y,z
-x,y,1/2-z
-x,-y,-z
x,-y,1/2+z
1/2+x,1/2+y,z
1/2-x,1/2+y,1/2-z
1/2-x,1/2-y,-z
1/2+x,1/2-y,1/2+z
loop_
_atom_site_type_symbol
_atom_site_label
_atom_site_fract_x
_atom_site_fract_y
_atom_site_fract_z
Si Si1 0.061783 0.254068 0.062323
Si Si2 0.954011 0.259031 0.845396
Si Si3 0.248175 0.859526 0.399287
Si Si4 0.696362 0.635854 0.378488
Si Si5 0.596979 0.520303 0.156901
Si Si6 0.284610 0.148367 0.190843
O O1 0.122303 0.365372 0.092643
O O2 0.917097 0.236549 0.081944
O O3 0.080578 0.131124 0.106358
O O4 0.154291 0.232515 0.969701
O O5 0.817816 0.321039 0.886673
O O6 0.934210 0.112423 0.869848
O O7 0.000000 0.256846 0.750000
O O8 0.065185 0.331138 0.852455
O O9 0.273132 0.782165 0.320185
O O10 0.177402 0.991091 0.407846
O O11 0.736349 0.628347 0.284399
O O12 0.500000 0.538599 0.250000
O O13 0.732112 0.538338 0.155565
#
# Coordination Sequence:
#
# PCOD9260073 Si02
#       6
#     8   8   8   8   8   8
#     4  10  21  40  61  88 117 159 201 246 310 354
#     4   9  21  35  52  88 123 149 195 256 301 345
#     4  10  23  39  60  89 124 150 201 261 291 363
#     4  11  21  37  61  89 115 162 203 241 309 365
#     4  10  18  36  62  82 114 157 203 246 294 367
#     4  10  21  37  58  88 118 154 200 250 298 351
#
# _framework density 22.662907000000001
#
# number of rings (size 3 to 8) (size 9 to 14) (size 15 to 20)
#    0.000    2.000    1.667    1.500    4.667    1.333 
#    6.000    3.333    0.000    6.000    0.000    0.000 
#    0.000    0.000    0.000    0.000    0.000    0.000 
#
# Total GULP energy -133974.412467 kJ/mol
# GULP energy per Si atom -5582.267186 kJ/mol
# Density = 2.261133 g / cm^3
# Si number density = 22.662907 Si / 1000 Ang^3
#
#
#
# Elastic Constant Matrix: (Units=GPa)
#
#
# Indices 1 2 3 4 5 6 
#
# 1 168.0770 24.8910 12.7794 0.0000 -29.3556 0.0000
# 2 24.8910 27.8830 13.6130 0.0000 -2.5005 0.0000
# 3 12.7794 13.6130 28.5634 0.0000 2.9094 0.0000
# 4 0.0000 0.0000 0.0000 -0.7022 0.0000 -22.1993
# 5 -29.3556 -2.5005 2.9094 0.0000 22.4827 0.0000
# 6 0.0000 0.0000 0.0000 -22.1993 0.0000 -3.6998
#
#
#
# Elastic Compliance Matrix: (Units=1/GPa)
#
#
# Indices 1 2 3 4 5 6 
#
# 1 0.008985 -0.005825 -0.002405 0.000000 0.011396 0.000000
# 2 -0.005825 0.052053 -0.022311 0.000000 0.001070 0.000000
# 3 -0.002405 -0.022311 0.047923 0.000000 -0.011822 0.000000
# 4 0.000000 0.000000 0.000000 0.007547 0.000000 -0.045285
# 5 0.011396 0.001070 -0.011822 0.000000 0.061007 0.000000
# 6 0.000000 0.000000 0.000000 -0.045285 0.000000 0.001433
#
#
# Mechanical properties :
#
#
# Convention : Reuss Voigt Hill
#
# Bulk Modulus (GPa) = 20.88547 36.34338 28.61442
# Shear Modulus (GPa) = 19.53208 15.16545 17.34877
#
# Velocity S-wave (km/s) = 2.93892 2.58965 2.76979
# Velocity P-wave (km/s) = 4.55544 5.00130 4.78357
#
# Compressibility (1/GPa) = 0.04788019
#
# Stress axis : x y z
#
# Youngs Moduli (GPa) = 111.29051 19.21122 20.86685
#
# Poissons Ratio (x) = 0.11191 0.05018
# Poissons Ratio (y) = 0.64832 0.46555
# Poissons Ratio (z) = 0.26760 0.42861
#
# Static dielectric constant tensor:
#      x y z
#    x 1.934900 0.000000 -0.007570 
#    y 0.000000 1.853310 0.000000 
#    z -0.007570 0.000000 1.839610 
# 
# From -- ./inp_files/236654.got.cif
#   From: 2010.05.17/outbox.cif.g08.bks.cpg/sg15_119_cif.got.tgz:236654.got - 2010.06.03 18:47:42.
