data_PCOD9260087
_publ_section_title
;
Structure prediction by ZEFSAII (Michael W. Deem and Ramdas Pophale) SiO2 
 PCOD9260087
Probable space group: C 2/C
;
_chemical_formula_sum "Si O2"
_cell_formula_units_Z 52
_cell_length_a 14.505316
_cell_length_b 12.127191
_cell_length_c 25.832184
_cell_angle_alpha 90.000000
_cell_angle_beta 37.969534
_cell_angle_gamma 90.000000
_cell_volume 2795.727121
_symmetry_space_group_name_H-M "C 2/C"
_symmetry_group_IT_number 15
_symmetry_cell_setting 'monoclinic'
loop_
_space_group_symop_operation_xyz
x,y,z
-x,y,1/2-z
-x,-y,-z
x,-y,1/2+z
1/2+x,1/2+y,z
1/2-x,1/2+y,1/2-z
1/2-x,1/2-y,-z
1/2+x,1/2-y,1/2+z
loop_
_atom_site_type_symbol
_atom_site_label
_atom_site_fract_x
_atom_site_fract_y
_atom_site_fract_z
Si Si1 0.957387 0.469703 0.139816
Si Si2 0.879689 0.354495 0.998181
Si Si3 0.308409 0.973553 0.884431
Si Si4 0.691909 0.527387 0.326896
Si Si5 0.915766 0.122541 0.934373
Si Si6 0.684667 0.777823 0.358416
Si Si7 0.000000 0.718431 0.250000
O O1 0.825360 0.535779 0.226853
O O2 0.886413 0.356729 0.152333
O O3 0.088597 0.453697 0.123996
O O4 0.025411 0.540554 0.062436
O O5 0.707856 0.376435 0.056292
O O6 0.876644 0.319416 0.059061
O O7 0.939688 0.249663 0.938995
O O8 0.259405 0.021223 0.850904
O O9 0.407382 0.864153 0.828311
O O10 0.167223 0.933503 0.979713
O O11 0.562916 0.449656 0.361847
O O12 0.644029 0.650717 0.364579
O O13 0.866932 0.783315 0.280636
#
# Coordination Sequence:
#
# PCOD9260087 Si02
#       7
#     8   8   8   8   8   8   4
#     4  11  23  36  60  86 126 157 191 245 311 354
#     4  10  22  39  60  91 122 157 197 248 302 348
#     4  10  18  38  58  88 118 150 198 251 292 338
#     4  11  22  37  63  92 114 155 208 248 291 351
#     4  10  21  35  66  90 116 152 207 247 289 355
#     4  11  23  38  61  88 125 153 200 246 301 356
#     4  10  18  36  62  86 114 148 204 252 282 338
#
# _framework density 18.599810999999999
#
# number of rings (size 3 to 8) (size 9 to 14) (size 15 to 20)
#    0.000    1.538    6.154    0.923    4.308    0.000 
#    0.000    3.077    3.385    0.000    0.000    0.000 
#    0.000    0.000    0.000    0.000    0.000    0.000 
#
# Total GULP energy -145070.579630 kJ/mol
# GULP energy per Si atom -5579.637678 kJ/mol
# Density = 1.855748 g / cm^3
# Si number density = 18.599811 Si / 1000 Ang^3
#
#
#
# Elastic Constant Matrix: (Units=GPa)
#
#
# Indices 1 2 3 4 5 6 
#
# 1 77.5374 56.8323 5.2488 0.0000 -2.5844 0.0000
# 2 56.8323 66.4160 1.2083 0.0000 -11.3229 0.0000
# 3 5.2488 1.2083 40.3949 0.0000 -3.4251 0.0000
# 4 0.0000 0.0000 0.0000 25.1488 0.0000 -9.6746
# 5 -2.5844 -11.3229 -3.4251 0.0000 31.8886 0.0000
# 6 0.0000 0.0000 0.0000 -9.6746 0.0000 40.1682
#
#
#
# Elastic Compliance Matrix: (Units=1/GPa)
#
#
# Indices 1 2 3 4 5 6 
#
# 1 0.037592 -0.033688 -0.004675 0.000000 -0.009417 0.000000
# 2 -0.033688 0.046216 0.004193 0.000000 0.014130 0.000000
# 3 -0.004675 0.004193 0.025565 0.000000 0.003856 0.000000
# 4 0.000000 0.000000 0.000000 0.043824 0.000000 0.010555
# 5 -0.009417 0.014130 0.003856 0.000000 0.036027 0.000000
# 6 0.000000 0.000000 0.000000 0.010555 0.000000 0.027438
#
#
# Mechanical properties :
#
#
# Convention : Reuss Voigt Hill
#
# Bulk Modulus (GPa) = 24.37117 34.54746 29.45932
# Shear Modulus (GPa) = 16.74041 27.51170 22.12606
#
# Velocity S-wave (km/s) = 3.00331 3.85013 3.45278
# Velocity P-wave (km/s) = 5.01576 6.19508 5.63635
#
# Compressibility (1/GPa) = 0.04103209
#
# Stress axis : x y z
#
# Youngs Moduli (GPa) = 26.60173 21.63756 39.11652
#
# Poissons Ratio (x) = 0.72892 0.18288
# Poissons Ratio (y) = 0.89615 -0.16402
# Poissons Ratio (z) = 0.12437 -0.09073
#
# Static dielectric constant tensor:
#      x y z
#    x 1.669280 0.000000 0.006620 
#    y 0.000000 1.621540 0.000000 
#    z 0.006620 0.000000 1.668490 
# 
# From -- ./inp_files/273793.got.cif
#   From: 2010.05.17/outbox.cif.g08.bks.cpg/sg15_137_cif.got.tgz:273793.got - 2010.06.03 18:47:42.
