data_PCOD9260004
_publ_section_title
;
Structure prediction by ZEFSAII (Michael W. Deem and Ramdas Pophale) SiO2 
 PCOD9260004
Probable space group: C 2/C
;
_chemical_formula_sum "Si O2"
_cell_formula_units_Z 56
_cell_length_a 19.566605
_cell_length_b 13.443983
_cell_length_c 9.476077
_cell_angle_alpha 90.000000
_cell_angle_beta 98.133759
_cell_angle_gamma 90.000000
_cell_volume 2467.635962
_symmetry_space_group_name_H-M "C 2/C"
_symmetry_group_IT_number 15
_symmetry_cell_setting 'monoclinic'
loop_
_space_group_symop_operation_xyz
x,y,z
-x,y,1/2-z
-x,-y,-z
x,-y,1/2+z
1/2+x,1/2+y,z
1/2-x,1/2+y,1/2-z
1/2-x,1/2-y,-z
1/2+x,1/2-y,1/2+z
loop_
_atom_site_type_symbol
_atom_site_label
_atom_site_fract_x
_atom_site_fract_y
_atom_site_fract_z
Si Si1 0.211362 0.577108 0.041545
Si Si2 0.397828 0.081730 0.111649
Si Si3 0.582170 0.430530 0.746924
Si Si4 0.059388 0.577366 0.665208
Si Si5 0.228095 0.671421 0.336417
Si Si6 0.837553 0.047148 0.512455
Si Si7 0.833722 0.727594 0.685747
O O1 0.223184 0.584671 0.212678
O O2 0.154988 0.496240 0.978406
O O3 0.283172 0.544702 0.991238
O O4 0.184236 0.680352 0.969986
O O5 0.349794 0.175974 0.130567
O O6 0.424948 0.030527 0.261692
O O7 0.454307 0.089951 0.004797
O O8 0.500000 0.426499 0.750000
O O9 0.605926 0.442827 0.592929
O O10 0.620357 0.327715 0.806273
O O11 0.618559 0.523336 0.836366
O O12 0.124656 0.645356 0.716222
O O13 0.000000 0.617888 0.750000
O O14 0.283352 0.637812 0.471381
O O15 0.264531 0.754932 0.255489
#
# Coordination Sequence:
#
# PCOD9260004 Si02
#       7
#     8   8   8   8   8   8   8
#     4  10  18  36  60  89 115 147 192 249 301 355
#     4  10  21  36  60  86 115 148 198 245 297 343
#     4  11  22  39  58  86 120 161 200 239 286 364
#     4  11  22  39  58  83 116 159 196 237 287 365
#     4  10  19  35  59  88 119 143 194 250 300 345
#     4  10  20  34  59  86 114 152 196 244 293 348
#     4  10  22  35  62  87 116 156 195 240 309 352
#
# _framework density 22.693785999999999
#
# number of rings (size 3 to 8) (size 9 to 14) (size 15 to 20)
#    0.000    1.714    4.286    1.714    0.000    0.571 
#    0.000    1.429    0.000    0.000    0.000    0.000 
#    0.000    0.000    0.000    0.000    0.000    0.000 
#
# Total GULP energy -156162.958206 kJ/mol
# GULP energy per Si atom -5577.248507 kJ/mol
# Density = 2.264213 g / cm^3
# Si number density = 22.693786 Si / 1000 Ang^3
#
#
#
# Elastic Constant Matrix: (Units=GPa)
#
#
# Indices 1 2 3 4 5 6 
#
# 1 87.7266 2.7548 22.8699 0.0000 -21.6542 0.0000
# 2 2.7548 24.6113 5.4887 0.0000 8.7003 0.0000
# 3 22.8699 5.4887 70.6128 0.0000 -8.0414 0.0000
# 4 0.0000 0.0000 0.0000 27.0141 0.0000 3.8088
# 5 -21.6542 8.7003 -8.0414 0.0000 42.1623 0.0000
# 6 0.0000 0.0000 0.0000 3.8088 0.0000 27.5132
#
#
#
# Elastic Compliance Matrix: (Units=1/GPa)
#
#
# Indices 1 2 3 4 5 6 
#
# 1 0.014234 -0.003407 -0.003509 0.000000 0.007344 0.000000
# 2 -0.003407 0.046113 -0.003847 0.000000 -0.011999 0.000000
# 3 -0.003509 -0.003847 0.015826 0.000000 0.002010 0.000000
# 4 0.000000 0.000000 0.000000 0.037755 0.000000 -0.005227
# 5 0.007344 -0.011999 0.002010 0.000000 0.030349 0.000000
# 6 0.000000 0.000000 0.000000 -0.005227 0.000000 0.037070
#
#
# Mechanical properties :
#
#
# Convention : Reuss Voigt Hill
#
# Bulk Modulus (GPa) = 18.29945 27.24195 22.77070
# Shear Modulus (GPa) = 22.61549 29.46041 26.03795
#
# Velocity S-wave (km/s) = 3.16024 3.60692 3.39095
# Velocity P-wave (km/s) = 4.62572 5.42003 5.03855
#
# Compressibility (1/GPa) = 0.05464645
#
# Stress axis : x y z
#
# Youngs Moduli (GPa) = 70.25672 21.68595 63.18662
#
# Poissons Ratio (x) = 0.07388 0.22171
# Poissons Ratio (y) = 0.23935 0.24310
# Poissons Ratio (z) = 0.24651 0.08343
#
# Static dielectric constant tensor:
#      x y z
#    x 1.900290 0.000000 -0.026260 
#    y 0.000000 1.892520 0.000000 
#    z -0.026260 0.000000 1.881580 
# 
# From -- ./inp_files/55619.got.cif
#   From: 2010.05.17/outbox.cif.g08.bks.cpg/sg15_28_cif.got.tgz:55619.got - 2010.06.03 18:47:42.
