data_PCOD9260379
_publ_section_title
;
Structure prediction by ZEFSAII (Michael W. Deem and Ramdas Pophale) SiO2 
 PCOD9260379
Probable space group: C 2/C
;
_chemical_formula_sum "Si O2"
_cell_formula_units_Z 48
_cell_length_a 17.764934
_cell_length_b 17.516482
_cell_length_c 9.864944
_cell_angle_alpha 90.000000
_cell_angle_beta 44.267199
_cell_angle_gamma 90.000000
_cell_volume 2142.712591
_symmetry_space_group_name_H-M "C 2/C"
_symmetry_group_IT_number 15
_symmetry_cell_setting 'monoclinic'
loop_
_space_group_symop_operation_xyz
x,y,z
-x,y,1/2-z
-x,-y,-z
x,-y,1/2+z
1/2+x,1/2+y,z
1/2-x,1/2+y,1/2-z
1/2-x,1/2-y,-z
1/2+x,1/2-y,1/2+z
loop_
_atom_site_type_symbol
_atom_site_label
_atom_site_fract_x
_atom_site_fract_y
_atom_site_fract_z
Si Si1 0.560740 0.179037 0.955568
Si Si2 0.872203 0.276915 0.829663
Si Si3 0.628085 0.348940 0.814949
Si Si4 0.629990 0.552811 0.571693
Si Si5 0.747357 0.604528 0.901800
Si Si6 0.897486 0.130750 0.639108
O O1 0.601066 0.259089 0.837875
O O2 0.628042 0.113598 0.795490
O O3 0.599118 0.188522 0.062216
O O4 0.430971 0.171081 0.139283
O O5 0.925828 0.197035 0.711559
O O6 0.750000 0.250000 0.000000
O O7 0.717077 0.370640 0.591391
O O8 0.654832 0.380633 0.930359
O O9 0.513738 0.391622 0.930068
O O10 0.500000 0.543361 0.750000
O O11 0.693201 0.477575 0.447128
O O12 0.661307 0.571581 0.686454
O O13 0.680440 0.656594 0.879975
#
# Coordination Sequence:
#
# PCOD9260379 Si02
#       6
#     8   8   8   8   8   8
#     4  10  21  34  56  85 112 143 188 235 287 339
#     4  10  18  37  60  81 102 143 195 234 275 336
#     4  10  20  35  52  80 119 147 183 237 286 326
#     4  10  20  35  54  80 116 155 195 233 275 333
#     4  12  21  31  51  85 118 144 177 235 293 333
#     4  10  19  33  56  80 107 151 194 227 273 338
#
# _framework density 22.401509999999998
#
# number of rings (size 3 to 8) (size 9 to 14) (size 15 to 20)
#    0.000    1.667    3.333    3.000    0.000    2.667 
#    0.000    0.000    0.000    1.000    0.000    0.000 
#    0.000    0.000    0.000    0.000    0.000    0.000 
#
# Total GULP energy -133688.238796 kJ/mol
# GULP energy per Si atom -5570.343283 kJ/mol
# Density = 2.235052 g / cm^3
# Si number density = 22.401510 Si / 1000 Ang^3
#
#
#
# Elastic Constant Matrix: (Units=GPa)
#
#
# Indices 1 2 3 4 5 6 
#
# 1 38.2292 -3.7467 41.7076 0.0000 -8.5264 0.0000
# 2 -3.7467 41.8427 20.7619 0.0000 -1.2367 0.0000
# 3 41.7076 20.7619 167.3972 0.0000 -15.6436 0.0000
# 4 0.0000 0.0000 0.0000 36.2085 0.0000 -5.5415
# 5 -8.5264 -1.2367 -15.6436 0.0000 40.4846 0.0000
# 6 0.0000 0.0000 0.0000 -5.5415 0.0000 13.5970
#
#
#
# Elastic Compliance Matrix: (Units=1/GPa)
#
#
# Indices 1 2 3 4 5 6 
#
# 1 0.039526 0.008897 -0.010528 0.000000 0.004528 0.000000
# 2 0.008897 0.027477 -0.005572 0.000000 0.000560 0.000000
# 3 -0.010528 -0.005572 0.009405 0.000000 0.001246 0.000000
# 4 0.000000 0.000000 0.000000 0.029455 0.000000 0.012004
# 5 0.004528 0.000560 0.001246 0.000000 0.026153 0.000000
# 6 0.000000 0.000000 0.000000 0.012004 0.000000 0.078438
#
#
# Mechanical properties :
#
#
# Convention : Reuss Voigt Hill
#
# Bulk Modulus (GPa) = 16.12880 40.54611 28.33745
# Shear Modulus (GPa) = 20.36421 30.64110 25.50265
#
# Velocity S-wave (km/s) = 3.01833 3.70241 3.37773
# Velocity P-wave (km/s) = 4.40029 6.03458 5.28104
#
# Compressibility (1/GPa) = 0.06200089
#
# Stress axis : x y z
#
# Youngs Moduli (GPa) = 25.29957 36.39382 106.33047
#
# Poissons Ratio (x) = -0.32380 1.11950
# Poissons Ratio (y) = -0.22510 0.59251
# Poissons Ratio (z) = 0.26637 0.20280
#
# Static dielectric constant tensor:
#      x y z
#    x 1.937550 0.000000 -0.028650 
#    y 0.000000 1.915510 0.000000 
#    z -0.028650 0.000000 1.882930 
# 
# From -- ./inp_files/57729.got.cif
#   From: 2010.05.17/outbox.cif.g08.bks.cpg/sg15_29_cif.got.tgz:57729.got - 2010.06.03 18:47:42.
