data_PCOD9260886
_publ_section_title
;
Structure prediction by ZEFSAII (Michael W. Deem and Ramdas Pophale) SiO2 
 PCOD9260886
Probable space group: C 2/C
;
_chemical_formula_sum "Si O2"
_cell_formula_units_Z 52
_cell_length_a 15.368815
_cell_length_b 18.591274
_cell_length_c 9.205964
_cell_angle_alpha 90.000000
_cell_angle_beta 67.460525
_cell_angle_gamma 90.000000
_cell_volume 2429.461901
_symmetry_space_group_name_H-M "C 2/C"
_symmetry_group_IT_number 15
_symmetry_cell_setting 'monoclinic'
loop_
_space_group_symop_operation_xyz
x,y,z
-x,y,1/2-z
-x,-y,-z
x,-y,1/2+z
1/2+x,1/2+y,z
1/2-x,1/2+y,1/2-z
1/2-x,1/2-y,-z
1/2+x,1/2-y,1/2+z
loop_
_atom_site_type_symbol
_atom_site_label
_atom_site_fract_x
_atom_site_fract_y
_atom_site_fract_z
Si Si1 0.252493 0.219553 0.659128
Si Si2 0.540287 0.929300 0.889258
Si Si3 0.161861 0.784503 0.642685
Si Si4 0.054670 0.735739 0.445620
Si Si5 0.500000 0.661243 0.750000
Si Si6 0.732819 0.430129 0.739291
Si Si7 0.187897 0.924000 0.108463
O O1 0.250000 0.250000 0.500000
O O2 0.338065 0.242891 0.705641
O O3 0.155697 0.251420 0.793917
O O4 0.257005 0.134166 0.636710
O O5 0.500000 0.930895 0.750000
O O6 0.524204 0.847763 0.961667
O O7 0.653949 0.932282 0.822730
O O8 0.500000 0.000000 0.000000
O O9 0.250000 0.750000 0.500000
O O10 0.076326 0.769555 0.588992
O O11 0.190580 0.864576 0.671591
O O12 0.987294 0.786566 0.394982
O O13 0.411755 0.610274 0.789118
O O14 0.701015 0.500830 0.676182
O O15 0.698660 0.426606 0.927935
#
# Coordination Sequence:
#
# PCOD9260886 Si02
#       7
#     8   8   8   8   4   8   8
#     4  10  18  38  67  98 127 176 241 279 337 414
#     4  12  25  44  69 101 144 187 227 294 356 416
#     4  10  20  38  72  98 137 182 240 285 335 419
#     4  10  21  42  71  94 140 182 233 292 351 408
#     4  10  24  48  72 102 138 186 240 290 364 410
#     4  12  25  46  68 108 140 183 241 284 362 423
#     4  11  26  42  72  99 142 186 225 299 354 424
#
# _framework density 21.403917
#
# number of rings (size 3 to 8) (size 9 to 14) (size 15 to 20)
#    0.000    1.231    5.385    0.923    6.462    1.846 
#    0.000    1.538    0.000    0.000    0.000    0.000 
#    0.000    0.000    0.000    0.000    0.000    0.000 
#
# Total GULP energy -145187.889909 kJ/mol
# GULP energy per Si atom -5584.149612 kJ/mol
# Density = 2.135520 g / cm^3
# Si number density = 21.403917 Si / 1000 Ang^3
#
#
#
# Elastic Constant Matrix: (Units=GPa)
#
#
# Indices 1 2 3 4 5 6 
#
# 1 74.3876 62.3419 52.8296 0.0000 41.3644 0.0000
# 2 62.3419 250.8356 84.6640 0.0000 37.0112 0.0000
# 3 52.8296 84.6640 127.8447 0.0000 26.3023 0.0000
# 4 0.0000 0.0000 0.0000 40.8743 0.0000 13.2911
# 5 41.3644 37.0112 26.3023 0.0000 51.0897 0.0000
# 6 0.0000 0.0000 0.0000 13.2911 0.0000 37.9749
#
#
#
# Elastic Compliance Matrix: (Units=1/GPa)
#
#
# Indices 1 2 3 4 5 6 
#
# 1 0.032150 -0.002463 -0.007456 0.000000 -0.020408 0.000000
# 2 -0.002463 0.005554 -0.002509 0.000000 -0.000738 0.000000
# 3 -0.007456 -0.002509 0.012246 0.000000 0.001550 0.000000
# 4 0.000000 0.000000 0.000000 0.027607 0.000000 -0.009662
# 5 -0.020408 -0.000738 0.001550 0.000000 0.035833 0.000000
# 6 0.000000 0.000000 0.000000 -0.009662 0.000000 0.029715
#
#
# Mechanical properties :
#
#
# Convention : Reuss Voigt Hill
#
# Bulk Modulus (GPa) = 39.84829 94.74878 67.29853
# Shear Modulus (GPa) = 28.35657 42.86994 35.61326
#
# Velocity S-wave (km/s) = 3.64377 4.48023 4.08348
# Velocity P-wave (km/s) = 6.02996 8.43365 7.33099
#
# Compressibility (1/GPa) = 0.02509518
#
# Stress axis : x y z
#
# Youngs Moduli (GPa) = 31.10401 180.03425 81.66162
#
# Poissons Ratio (x) = 0.44338 0.60887
# Poissons Ratio (y) = 0.07660 0.20488
# Poissons Ratio (z) = 0.23191 0.45168
#
# Static dielectric constant tensor:
#      x y z
#    x 1.864430 0.000000 -0.031540 
#    y 0.000000 1.700170 0.000000 
#    z -0.031540 0.000000 1.796890 
# 
# From -- ./inp_files/48535.got.cif
#   From: 2010.05.17/outbox.cif.g08.bks.cpg/sg15_25_cif.got.tgz:48535.got - 2010.06.03 18:47:42.
