data_PCOD9260794
_publ_section_title
;
Structure prediction by ZEFSAII (Michael W. Deem and Ramdas Pophale) SiO2 
 PCOD9260794
Probable space group: C 2/C
;
_chemical_formula_sum "Si O2"
_cell_formula_units_Z 60
_cell_length_a 8.216167
_cell_length_b 19.391627
_cell_length_c 16.819719
_cell_angle_alpha 90.000000
_cell_angle_beta 98.862226
_cell_angle_gamma 90.000000
_cell_volume 2647.806753
_symmetry_space_group_name_H-M "C 2/C"
_symmetry_group_IT_number 15
_symmetry_cell_setting 'monoclinic'
loop_
_space_group_symop_operation_xyz
x,y,z
-x,y,1/2-z
-x,-y,-z
x,-y,1/2+z
1/2+x,1/2+y,z
1/2-x,1/2+y,1/2-z
1/2-x,1/2-y,-z
1/2+x,1/2-y,1/2+z
loop_
_atom_site_type_symbol
_atom_site_label
_atom_site_fract_x
_atom_site_fract_y
_atom_site_fract_z
Si Si1 0.310997 0.150878 0.443683
Si Si2 0.101441 0.018540 0.431884
Si Si3 0.500000 0.867546 0.250000
Si Si4 0.762014 0.697064 0.613743
Si Si5 0.580073 0.308609 0.342664
Si Si6 0.696441 0.056471 0.652974
Si Si7 0.357275 0.550717 0.289119
Si Si8 0.903285 0.652044 0.158181
O O1 0.164295 0.096072 0.431193
O O2 0.247648 0.221141 0.398926
O O3 0.342343 0.166894 0.539215
O O4 0.469781 0.130022 0.402338
O O5 0.969978 0.002315 0.352610
O O6 0.269674 0.976883 0.429255
O O7 0.000000 0.000000 0.500000
O O8 0.644252 0.821328 0.297768
O O9 0.470992 0.918455 0.322022
O O10 0.570533 0.675224 0.608641
O O11 0.500000 0.303503 0.250000
O O12 0.704252 0.371726 0.346488
O O13 0.648173 0.231408 0.364957
O O14 0.756762 0.998428 0.721518
O O15 0.500000 0.590465 0.250000
O O16 0.245563 0.599830 0.334673
O O17 0.000000 0.652700 0.250000
#
# Coordination Sequence:
#
# PCOD9260794 Si02
#       8
#     8   8   4   8   8   8   8   8
#     4  10  23  44  68  93 136 175 215 280 340 394
#     4  11  24  41  64  92 127 182 217 265 331 399
#     4  12  26  38  70  98 130 172 222 284 316 408
#     4  10  23  44  67  99 130 170 222 277 337 391
#     4  10  18  38  64  88 123 170 214 259 327 390
#     4  11  24  40  59  97 127 172 217 275 320 382
#     4  10  23  40  61  89 131 168 217 270 316 383
#     4  10  21  38  65  96 125 175 213 266 332 396
#
# _framework density 22.660264999999999
#
# number of rings (size 3 to 8) (size 9 to 14) (size 15 to 20)
#    0.000    1.600    1.333    3.600    4.667    2.133 
#    4.800    1.333    0.000    6.400    0.000    0.000 
#    0.000    0.000    0.000    0.000    0.000    0.000 
#
# Total GULP energy -167241.968554 kJ/mol
# GULP energy per Si atom -5574.732285 kJ/mol
# Density = 2.260869 g / cm^3
# Si number density = 22.660265 Si / 1000 Ang^3
#
#
#
# Elastic Constant Matrix: (Units=GPa)
#
#
# Indices 1 2 3 4 5 6 
#
# 1 61.6232 29.4524 29.7982 0.0000 -40.7183 0.0000
# 2 29.4524 67.2698 13.1797 0.0000 -18.3252 0.0000
# 3 29.7982 13.1797 77.9941 0.0000 -44.5572 0.0000
# 4 0.0000 0.0000 0.0000 17.3998 0.0000 -10.3859
# 5 -40.7183 -18.3252 -44.5572 0.0000 48.7480 0.0000
# 6 0.0000 0.0000 0.0000 -10.3859 0.0000 30.8497
#
#
#
# Elastic Compliance Matrix: (Units=1/GPa)
#
#
# Indices 1 2 3 4 5 6 
#
# 1 0.043237 -0.009675 0.007681 0.000000 0.039499 0.000000
# 2 -0.009675 0.018821 -0.000123 0.000000 -0.001119 0.000000
# 3 0.007681 -0.000123 0.028350 0.000000 0.032283 0.000000
# 4 0.000000 0.000000 0.000000 0.071925 0.000000 0.024214
# 5 0.039499 -0.001119 0.032283 0.000000 0.082593 0.000000
# 6 0.000000 0.000000 0.000000 0.024214 0.000000 0.040567
#
#
# Mechanical properties :
#
#
# Convention : Reuss Voigt Hill
#
# Bulk Modulus (GPa) = 11.60442 39.08307 25.34374
# Shear Modulus (GPa) = 15.70089 28.36329 22.03209
#
# Velocity S-wave (km/s) = 2.63512 3.54174 3.12152
# Velocity P-wave (km/s) = 3.79350 5.83182 4.91939
#
# Compressibility (1/GPa) = 0.08617407
#
# Stress axis : x y z
#
# Youngs Moduli (GPa) = 23.12836 53.13268 35.27275
#
# Poissons Ratio (x) = 0.51406 -0.27094
# Poissons Ratio (y) = 0.22377 0.00435
# Poissons Ratio (z) = -0.17765 0.00655
#
# Static dielectric constant tensor:
#      x y z
#    x 1.903090 0.000000 -0.058040 
#    y 0.000000 1.855860 0.000000 
#    z -0.058040 0.000000 1.919470 
# 
# From -- ./inp_files/190995.got.cif
#   From: 2010.05.17/outbox.cif.g08.bks.cpg/sg15_96_cif.got.tgz:190995.got - 2010.06.03 18:47:42.
