data_PCOD9260670
_publ_section_title
;
Structure prediction by ZEFSAII (Michael W. Deem and Ramdas Pophale) SiO2 
 PCOD9260670
Probable space group: C 2/C
;
_chemical_formula_sum "Si O2"
_cell_formula_units_Z 52
_cell_length_a 8.542374
_cell_length_b 20.035106
_cell_length_c 14.482054
_cell_angle_alpha 90.000000
_cell_angle_beta 76.872473
_cell_angle_gamma 90.000000
_cell_volume 2413.792992
_symmetry_space_group_name_H-M "C 2/C"
_symmetry_group_IT_number 15
_symmetry_cell_setting 'monoclinic'
loop_
_space_group_symop_operation_xyz
x,y,z
-x,y,1/2-z
-x,-y,-z
x,-y,1/2+z
1/2+x,1/2+y,z
1/2-x,1/2+y,1/2-z
1/2-x,1/2-y,-z
1/2+x,1/2-y,1/2+z
loop_
_atom_site_type_symbol
_atom_site_label
_atom_site_fract_x
_atom_site_fract_y
_atom_site_fract_z
Si Si1 0.888550 0.428363 0.130548
Si Si2 0.577987 0.834077 0.546280
Si Si3 0.500000 0.235270 0.750000
Si Si4 0.695677 0.878188 0.157836
Si Si5 0.096837 0.795683 0.493952
Si Si6 0.140301 0.428360 0.809559
Si Si7 0.149573 0.156636 0.336882
O O1 0.804005 0.398806 0.234921
O O2 0.834673 0.504841 0.135030
O O3 0.083275 0.431650 0.121676
O O4 0.865629 0.380745 0.046276
O O5 0.531104 0.759249 0.523793
O O6 0.425226 0.870188 0.614925
O O7 0.715432 0.834510 0.604532
O O8 0.422890 0.185975 0.833619
O O9 0.358867 0.279755 0.728973
O O10 0.853799 0.851129 0.088615
O O11 0.250000 0.750000 0.500000
O O12 0.021222 0.836956 0.589230
O O13 0.297941 0.405452 0.732415
O O14 0.000000 0.439123 0.750000
#
# Coordination Sequence:
#
# PCOD9260670 Si02
#       7
#     8   8   4   8   8   8   8
#     4  10  19  40  64  87 128 174 224 252 310 394
#     4  11  23  38  64  99 127 167 215 276 319 382
#     4  10  18  38  60  92 124 168 204 264 326 382
#     4  10  20  34  66  92 120 177 216 251 308 394
#     4  12  21  39  63  99 132 165 212 263 332 383
#     4  10  21  39  64  93 123 170 223 262 316 380
#     4  11  24  38  64  96 132 161 213 273 328 381
#
# _framework density 21.542857999999999
#
# number of rings (size 3 to 8) (size 9 to 14) (size 15 to 20)
#    0.000    1.538    4.615    2.769    0.000    0.000 
#    0.000    3.077    3.385    0.000    0.000    0.000 
#    0.000    0.000    0.000    0.000    0.000    0.000 
#
# Total GULP energy -145011.555708 kJ/mol
# GULP energy per Si atom -5577.367527 kJ/mol
# Density = 2.149383 g / cm^3
# Si number density = 21.542858 Si / 1000 Ang^3
#
#
#
# Elastic Constant Matrix: (Units=GPa)
#
#
# Indices 1 2 3 4 5 6 
#
# 1 51.4336 24.8194 33.8134 0.0000 -8.3505 0.0000
# 2 24.8194 94.2147 42.4731 0.0000 -18.3363 0.0000
# 3 33.8134 42.4731 91.0761 0.0000 -15.4675 0.0000
# 4 0.0000 0.0000 0.0000 30.0401 0.0000 -9.5952
# 5 -8.3505 -18.3363 -15.4675 0.0000 41.2512 0.0000
# 6 0.0000 0.0000 0.0000 -9.5952 0.0000 16.8828
#
#
#
# Elastic Compliance Matrix: (Units=1/GPa)
#
#
# Indices 1 2 3 4 5 6 
#
# 1 0.026500 -0.003089 -0.008245 0.000000 0.000900 0.000000
# 2 -0.003089 0.014404 -0.004902 0.000000 0.003940 0.000000
# 3 -0.008245 -0.004902 0.016739 0.000000 0.002429 0.000000
# 4 0.000000 0.000000 0.000000 0.040672 0.000000 0.023116
# 5 0.000900 0.003940 0.002429 0.000000 0.027086 0.000000
# 6 0.000000 0.000000 0.000000 0.023116 0.000000 0.072369
#
#
# Mechanical properties :
#
#
# Convention : Reuss Voigt Hill
#
# Bulk Modulus (GPa) = 39.72650 48.77071 44.24860
# Shear Modulus (GPa) = 20.95275 26.67605 23.81440
#
# Velocity S-wave (km/s) = 3.12205 3.52274 3.32843
# Velocity P-wave (km/s) = 5.61043 6.26373 5.94606
#
# Compressibility (1/GPa) = 0.02517211
#
# Stress axis : x y z
#
# Youngs Moduli (GPa) = 37.73635 69.42449 59.73989
#
# Poissons Ratio (x) = 0.21444 0.49256
# Poissons Ratio (y) = 0.11656 0.29282
# Poissons Ratio (z) = 0.31114 0.34028
#
# Static dielectric constant tensor:
#      x y z
#    x 1.805960 0.000000 -0.026590 
#    y 0.000000 1.841150 0.000000 
#    z -0.026590 0.000000 1.844940 
# 
# From -- ./inp_files/135973.got.cif
#   From: 2010.05.17/outbox.cif.g08.bks.cpg/sg15_68_cif.got.tgz:135973.got - 2010.06.03 18:47:42.
