data_PCOD9260416
_publ_section_title
;
Structure prediction by ZEFSAII (Michael W. Deem and Ramdas Pophale) SiO2 
 PCOD9260416
Probable space group: C 2/C
;
_chemical_formula_sum "Si O2"
_cell_formula_units_Z 48
_cell_length_a 10.009516
_cell_length_b 27.231672
_cell_length_c 9.404554
_cell_angle_alpha 90.000000
_cell_angle_beta 82.522193
_cell_angle_gamma 90.000000
_cell_volume 2541.653068
_symmetry_space_group_name_H-M "C 2/C"
_symmetry_group_IT_number 15
_symmetry_cell_setting 'monoclinic'
loop_
_space_group_symop_operation_xyz
x,y,z
-x,y,1/2-z
-x,-y,-z
x,-y,1/2+z
1/2+x,1/2+y,z
1/2-x,1/2+y,1/2-z
1/2-x,1/2-y,-z
1/2+x,1/2-y,1/2+z
loop_
_atom_site_type_symbol
_atom_site_label
_atom_site_fract_x
_atom_site_fract_y
_atom_site_fract_z
Si Si1 0.715118 0.637424 0.875366
Si Si2 0.458103 0.204792 0.921235
Si Si3 0.270340 0.155146 0.537457
Si Si4 0.492156 0.315292 0.581024
Si Si5 0.419999 0.065950 0.392407
Si Si6 0.885376 0.544875 0.877050
O O1 0.719052 0.652869 0.708416
O O2 0.761494 0.581098 0.877369
O O3 0.827674 0.670212 0.943144
O O4 0.576612 0.646560 0.975428
O O5 0.500000 0.204507 0.750000
O O6 0.585944 0.182582 0.984431
O O7 0.444175 0.261756 0.961619
O O8 0.308591 0.100983 0.475558
O O9 0.160771 0.181124 0.453139
O O10 0.500000 0.323408 0.750000
O O11 0.500000 0.089422 0.250000
O O12 0.539762 0.053436 0.485106
O O13 0.359510 0.012787 0.358454
O O14 0.000000 0.561240 0.750000
#
# Coordination Sequence:
#
# PCOD9260416 Si02
#       6
#     8   8   8   8   8   8
#     4  11  20  39  62  83 114 156 193 227 286 349
#     4   9  19  38  62  84 110 149 198 239 280 335
#     4  11  21  39  60  86 115 155 191 230 285 349
#     4  11  25  38  54  85 122 152 189 242 287 333
#     4  10  21  33  60  93 117 139 189 242 288 327
#     4  10  18  37  61  89 114 146 187 239 283 342
#
# _framework density 18.885345999999998
#
# number of rings (size 3 to 8) (size 9 to 14) (size 15 to 20)
#    0.000    1.667    3.333    2.000    2.333    0.000 
#    0.000    4.167    0.000    0.000    0.000    0.000 
#    0.000    0.000    0.000    0.000    0.000    0.000 
#
# Total GULP energy -133891.244555 kJ/mol
# GULP energy per Si atom -5578.801856 kJ/mol
# Density = 1.884236 g / cm^3
# Si number density = 18.885346 Si / 1000 Ang^3
#
#
#
# Elastic Constant Matrix: (Units=GPa)
#
#
# Indices 1 2 3 4 5 6 
#
# 1 62.5349 11.4496 26.9685 0.0000 12.6819 0.0000
# 2 11.4496 69.3185 10.4270 0.0000 -1.7174 0.0000
# 3 26.9685 10.4270 86.3065 0.0000 5.4806 0.0000
# 4 0.0000 0.0000 0.0000 28.8938 0.0000 -8.1381
# 5 12.6819 -1.7174 5.4806 0.0000 31.2028 0.0000
# 6 0.0000 0.0000 0.0000 -8.1381 0.0000 12.8730
#
#
#
# Elastic Compliance Matrix: (Units=1/GPa)
#
#
# Indices 1 2 3 4 5 6 
#
# 1 0.020406 -0.002717 -0.005574 0.000000 -0.007464 0.000000
# 2 -0.002717 0.015095 -0.001110 0.000000 0.002130 0.000000
# 3 -0.005574 -0.001110 0.013473 0.000000 -0.000162 0.000000
# 4 0.000000 0.000000 0.000000 0.042107 0.000000 0.026620
# 5 -0.007464 0.002130 -0.000162 0.000000 0.035228 0.000000
# 6 0.000000 0.000000 0.000000 0.026620 0.000000 0.094511
#
#
# Mechanical properties :
#
#
# Convention : Reuss Voigt Hill
#
# Bulk Modulus (GPa) = 33.14393 35.09447 34.11920
# Shear Modulus (GPa) = 20.02574 25.88156 22.95365
#
# Velocity S-wave (km/s) = 3.25989 3.70598 3.49007
# Velocity P-wave (km/s) = 5.63536 6.07747 5.86059
#
# Compressibility (1/GPa) = 0.03017144
#
# Stress axis : x y z
#
# Youngs Moduli (GPa) = 49.00484 66.24851 74.22377
#
# Poissons Ratio (x) = 0.18000 0.41373
# Poissons Ratio (y) = 0.13315 0.08238
# Poissons Ratio (z) = 0.27316 0.07353
#
# Static dielectric constant tensor:
#      x y z
#    x 1.637820 0.000000 0.037960 
#    y 0.000000 1.701640 0.000000 
#    z 0.037960 0.000000 1.769660 
# 
# From -- ./inp_files/26109.got.cif
#   From: 2010.05.17/outbox.cif.g08.bks.cpg/sg15_14_cif.got.tgz:26109.got - 2010.06.03 18:47:42.
