data_PCOD9260848
_publ_section_title
;
Structure prediction by ZEFSAII (Michael W. Deem and Ramdas Pophale) SiO2 
 PCOD9260848
Probable space group: C 2/C
;
_chemical_formula_sum "Si O2"
_cell_formula_units_Z 44
_cell_length_a 9.451857
_cell_length_b 16.982377
_cell_length_c 14.535385
_cell_angle_alpha 90.000000
_cell_angle_beta 71.489481
_cell_angle_gamma 90.000000
_cell_volume 2212.442830
_symmetry_space_group_name_H-M "C 2/C"
_symmetry_group_IT_number 15
_symmetry_cell_setting 'monoclinic'
loop_
_space_group_symop_operation_xyz
x,y,z
-x,y,1/2-z
-x,-y,-z
x,-y,1/2+z
1/2+x,1/2+y,z
1/2-x,1/2+y,1/2-z
1/2-x,1/2-y,-z
1/2+x,1/2-y,1/2+z
loop_
_atom_site_type_symbol
_atom_site_label
_atom_site_fract_x
_atom_site_fract_y
_atom_site_fract_z
Si Si1 0.649699 0.898097 0.161411
Si Si2 0.595619 0.205307 0.509409
Si Si3 0.500000 0.381569 0.750000
Si Si4 0.383389 0.463574 0.594812
Si Si5 0.283920 0.232491 0.200022
Si Si6 0.791621 0.209200 0.086257
O O1 0.500000 0.910700 0.250000
O O2 0.734160 0.821271 0.185357
O O3 0.758253 0.972070 0.142185
O O4 0.606256 0.874597 0.065418
O O5 0.750000 0.250000 0.500000
O O6 0.592706 0.204089 0.399064
O O7 0.455552 0.254711 0.575161
O O8 0.470464 0.435342 0.667708
O O9 0.355861 0.325868 0.789111
O O10 0.500000 0.500000 0.500000
O O11 0.309327 0.383999 0.571046
O O12 0.310234 0.226700 0.303727
O O13 0.750000 0.250000 0.000000
#
# Coordination Sequence:
#
# PCOD9260848 Si02
#       6
#     8   8   4   8   8   8
#     4  11  19  37  64  95 127 161 212 267 321 371
#     4  10  19  37  67  88 116 170 212 251 310 391
#     4  10  20  40  62  92 122 166 218 252 306 398
#     4  11  23  40  63  93 129 165 213 263 320 380
#     4  10  18  38  66  88 117 166 218 253 307 390
#     4  11  24  42  60  91 129 162 216 265 311 384
#
# _framework density 19.887519999999999
#
# number of rings (size 3 to 8) (size 9 to 14) (size 15 to 20)
#    0.000    1.455    2.727    6.545    0.000    2.182 
#    6.545    0.909    0.000    0.000    0.000    0.000 
#    0.000    0.000    0.000    0.000    0.000    0.000 
#
# Total GULP energy -122868.848547 kJ/mol
# GULP energy per Si atom -5584.947661 kJ/mol
# Density = 1.984225 g / cm^3
# Si number density = 19.887520 Si / 1000 Ang^3
#
#
#
# Elastic Constant Matrix: (Units=GPa)
#
#
# Indices 1 2 3 4 5 6 
#
# 1 45.9165 34.3059 30.8000 0.0000 13.0627 0.0000
# 2 34.3059 144.5984 59.7272 0.0000 20.7764 0.0000
# 3 30.8000 59.7272 171.6828 0.0000 19.0093 0.0000
# 4 0.0000 0.0000 0.0000 31.1014 0.0000 4.2749
# 5 13.0627 20.7764 19.0093 0.0000 30.4673 0.0000
# 6 0.0000 0.0000 0.0000 4.2749 0.0000 21.4088
#
#
#
# Elastic Compliance Matrix: (Units=1/GPa)
#
#
# Indices 1 2 3 4 5 6 
#
# 1 0.029336 -0.004717 -0.002777 0.000000 -0.007628 0.000000
# 2 -0.004717 0.009324 -0.002060 0.000000 -0.003051 0.000000
# 3 -0.002777 -0.002060 0.007253 0.000000 -0.001930 0.000000
# 4 0.000000 0.000000 0.000000 0.033060 0.000000 -0.006601
# 5 -0.007628 -0.003051 -0.001930 0.000000 0.039377 0.000000
# 6 0.000000 0.000000 0.000000 -0.006601 0.000000 0.048028
#
#
# Mechanical properties :
#
#
# Convention : Reuss Voigt Hill
#
# Bulk Modulus (GPa) = 37.30584 67.98488 52.64536
# Shear Modulus (GPa) = 25.71737 32.41981 29.06859
#
# Velocity S-wave (km/s) = 3.59993 4.04190 3.82730
# Velocity P-wave (km/s) = 6.00653 7.48609 6.78675
#
# Compressibility (1/GPa) = 0.02680546
#
# Stress axis : x y z
#
# Youngs Moduli (GPa) = 34.08801 107.25164 137.86969
#
# Poissons Ratio (x) = 0.50587 0.38291
# Poissons Ratio (y) = 0.16078 0.28398
# Poissons Ratio (z) = 0.09467 0.22091
#
# Static dielectric constant tensor:
#      x y z
#    x 1.729230 0.000000 0.027580 
#    y 0.000000 1.657950 0.000000 
#    z 0.027580 0.000000 1.781050 
# 
# From -- ./inp_files/134311.got.cif
#   From: 2010.05.17/outbox.cif.g08.bks.cpg/sg15_68_cif.got.tgz:134311.got - 2010.06.03 18:47:42.
