data_PCOD9260297
_publ_section_title
;
Structure prediction by ZEFSAII (Michael W. Deem and Ramdas Pophale) SiO2 
 PCOD9260297
Probable space group: C 2/C
;
_chemical_formula_sum "Si O2"
_cell_formula_units_Z 40
_cell_length_a 7.678140
_cell_length_b 23.240298
_cell_length_c 11.613780
_cell_angle_alpha 90.000000
_cell_angle_beta 44.223820
_cell_angle_gamma 90.000000
_cell_volume 1445.414952
_symmetry_space_group_name_H-M "C 2/C"
_symmetry_group_IT_number 15
_symmetry_cell_setting 'monoclinic'
loop_
_space_group_symop_operation_xyz
x,y,z
-x,y,1/2-z
-x,-y,-z
x,-y,1/2+z
1/2+x,1/2+y,z
1/2-x,1/2+y,1/2-z
1/2-x,1/2-y,-z
1/2+x,1/2-y,1/2+z
loop_
_atom_site_type_symbol
_atom_site_label
_atom_site_fract_x
_atom_site_fract_y
_atom_site_fract_z
Si Si1 0.898795 0.773603 0.671972
Si Si2 0.373802 0.191328 0.492822
Si Si3 0.652570 0.086172 0.858895
Si Si4 0.731690 0.477063 0.810576
Si Si5 0.364193 0.383372 0.008205
O O1 0.887731 0.712493 0.617795
O O2 0.000000 0.769083 0.750000
O O3 0.083024 0.815828 0.518408
O O4 0.634392 0.805198 0.805149
O O5 0.250000 0.250000 0.500000
O O6 0.283764 0.125582 0.559100
O O7 0.360995 0.096561 0.967609
O O8 0.786001 0.103789 0.675932
O O9 0.725154 0.018458 0.820470
O O10 0.000000 0.476679 0.750000
O O11 0.500000 0.500000 0.000000
O O12 0.616316 0.414511 0.844835
#
# Coordination Sequence:
#
# PCOD9260297 Si02
#       5
#     8   8   8   8   8
#     4  12  25  44  74 102 142 193 256 317 392 482
#     4  12  27  45  70 106 149 199 258 324 391 463
#     4  10  20  41  72 106 151 199 250 311 391 470
#     4  10  18  36  69 113 153 195 251 321 388 466
#     4  10  21  39  72 113 144 198 253 310 394 472
#
# _framework density 27.673715000000001
#
# number of rings (size 3 to 8) (size 9 to 14) (size 15 to 20)
#    0.000    1.200    6.000    2.400    2.800    1.600 
#    0.000    3.000    0.000    0.000    0.000    0.000 
#    0.000    0.000    0.000    0.000    0.000    0.000 
#
# Total GULP energy -111847.730187 kJ/mol
# GULP energy per Si atom -5592.386509 kJ/mol
# Density = 2.761073 g / cm^3
# Si number density = 27.673715 Si / 1000 Ang^3
#
#
#
# Elastic Constant Matrix: (Units=GPa)
#
#
# Indices 1 2 3 4 5 6 
#
# 1 109.8342 27.3541 33.4695 0.0000 -35.2884 0.0000
# 2 27.3541 144.8385 51.4139 0.0000 -21.9340 0.0000
# 3 33.4695 51.4139 150.8293 0.0000 -25.6564 0.0000
# 4 0.0000 0.0000 0.0000 79.9565 0.0000 1.3314
# 5 -35.2884 -21.9340 -25.6564 0.0000 41.8634 0.0000
# 6 0.0000 0.0000 0.0000 1.3314 0.0000 -40.2638
#
#
#
# Elastic Compliance Matrix: (Units=1/GPa)
#
#
# Indices 1 2 3 4 5 6 
#
# 1 0.012690 -0.000573 -0.000951 0.000000 0.009814 0.000000
# 2 -0.000573 0.008178 -0.002248 0.000000 0.002424 0.000000
# 3 -0.000951 -0.002248 0.008117 0.000000 0.002995 0.000000
# 4 0.000000 0.000000 0.000000 0.012500 0.000000 0.000413
# 5 0.009814 0.002424 0.002995 0.000000 0.035265 0.000000
# 6 0.000000 0.000000 0.000000 0.000413 0.000000 -0.024823
#
#
# Mechanical properties :
#
#
# Convention : Reuss Voigt Hill
#
# Bulk Modulus (GPa) = 46.64136 69.99746 58.31941
# Shear Modulus (GPa) = 75.05430 35.86219 55.45824
#
# Velocity S-wave (km/s) = 5.21345 3.60376 4.48147
# Velocity P-wave (km/s) = 7.28908 6.53183 6.92082
#
# Compressibility (1/GPa) = 0.02144020
#
# Stress axis : x y z
#
# Youngs Moduli (GPa) = 78.80016 122.28674 123.20065
#
# Poissons Ratio (x) = 0.07004 0.11721
# Poissons Ratio (y) = 0.04513 0.27697
# Poissons Ratio (z) = 0.07497 0.27491
#
# Static dielectric constant tensor:
#      x y z
#    x 3.895550 0.000000 0.730460 
#    y 0.000000 2.237730 0.000000 
#    z 0.730460 0.000000 2.421000 
# 
# From -- ./inp_files/137098.got.cif
#   From: 2010.05.17/outbox.cif.g08.bks.cpg/sg15_69_cif.got.tgz:137098.got - 2010.06.03 18:47:42.
