data_PCOD9260827
_publ_section_title
;
Structure prediction by ZEFSAII (Michael W. Deem and Ramdas Pophale) SiO2 
 PCOD9260827
Probable space group: C 2/C
;
_chemical_formula_sum "Si O2"
_cell_formula_units_Z 36
_cell_length_a 8.854554
_cell_length_b 19.569955
_cell_length_c 10.233378
_cell_angle_alpha 90.000000
_cell_angle_beta 62.459502
_cell_angle_gamma 90.000000
_cell_volume 1572.332973
_symmetry_space_group_name_H-M "C 2/C"
_symmetry_group_IT_number 15
_symmetry_cell_setting 'monoclinic'
loop_
_space_group_symop_operation_xyz
x,y,z
-x,y,1/2-z
-x,-y,-z
x,-y,1/2+z
1/2+x,1/2+y,z
1/2-x,1/2+y,1/2-z
1/2-x,1/2-y,-z
1/2+x,1/2-y,1/2+z
loop_
_atom_site_type_symbol
_atom_site_label
_atom_site_fract_x
_atom_site_fract_y
_atom_site_fract_z
Si Si1 0.843323 0.523876 0.409626
Si Si2 0.795104 0.864826 0.677440
Si Si3 0.500000 0.768349 0.750000
Si Si4 0.052572 0.607215 0.519910
Si Si5 0.938705 0.243088 0.480218
O O1 0.687908 0.564144 0.407011
O O2 0.847820 0.442556 0.421306
O O3 0.000000 0.539732 0.250000
O O4 0.899883 0.560603 0.522002
O O5 0.660969 0.816793 0.652190
O O6 0.694096 0.877816 0.851777
O O7 0.961319 0.819691 0.621304
O O8 0.450642 0.732927 0.633305
O O9 0.985158 0.681767 0.584876
O O10 0.750000 0.250000 0.500000
#
# Coordination Sequence:
#
# PCOD9260827 Si02
#       5
#     8   8   4   8   8
#     4   9  16  35  61  92 125 170 220 264 329 407
#     4  10  18  38  65  90 132 174 219 278 330 401
#     4  10  20  38  60  92 128 172 218 270 346 388
#     4   9  19  35  59  95 127 168 221 264 336 393
#     4  11  23  39  61  96 131 172 222 279 337 393
#
# _framework density 22.895913
#
# number of rings (size 3 to 8) (size 9 to 14) (size 15 to 20)
#    0.000    2.222    5.556    0.667    0.000    3.556 
#    8.000    3.333    0.000    0.000    0.000    0.000 
#    0.000    0.000    0.000    0.000    0.000    0.000 
#
# Total GULP energy -100353.117518 kJ/mol
# GULP energy per Si atom -5575.173195 kJ/mol
# Density = 2.284380 g / cm^3
# Si number density = 22.895913 Si / 1000 Ang^3
#
#
#
# Elastic Constant Matrix: (Units=GPa)
#
#
# Indices 1 2 3 4 5 6 
#
# 1 96.5916 21.4779 31.0000 0.0000 5.0802 0.0000
# 2 21.4779 120.7108 22.7706 0.0000 3.5868 0.0000
# 3 31.0000 22.7706 43.5972 0.0000 12.1735 0.0000
# 4 0.0000 0.0000 0.0000 34.6467 0.0000 2.1730
# 5 5.0802 3.5868 12.1735 0.0000 27.0997 0.0000
# 6 0.0000 0.0000 0.0000 2.1730 0.0000 41.1905
#
#
#
# Elastic Compliance Matrix: (Units=1/GPa)
#
#
# Indices 1 2 3 4 5 6 
#
# 1 0.013552 -0.000608 -0.009870 0.000000 0.001974 0.000000
# 2 -0.000608 0.009244 -0.004672 0.000000 0.000989 0.000000
# 3 -0.009870 -0.004672 0.036253 0.000000 -0.013817 0.000000
# 4 0.000000 0.000000 0.000000 0.028959 0.000000 -0.001528
# 5 0.001974 0.000989 -0.013817 0.000000 0.042607 0.000000
# 6 0.000000 0.000000 0.000000 -0.001528 0.000000 0.024358
#
#
# Mechanical properties :
#
#
# Convention : Reuss Voigt Hill
#
# Bulk Modulus (GPa) = 34.78270 45.71076 40.24673
# Shear Modulus (GPa) = 25.66004 32.96410 29.31207
#
# Velocity S-wave (km/s) = 3.35136 3.79850 3.58191
# Velocity P-wave (km/s) = 5.49546 6.26467 5.89263
#
# Compressibility (1/GPa) = 0.02874992
#
# Stress axis : x y z
#
# Youngs Moduli (GPa) = 73.79088 108.17345 27.58376
#
# Poissons Ratio (x) = 0.06578 0.27224
# Poissons Ratio (y) = 0.04487 0.12887
# Poissons Ratio (z) = 0.72828 0.50540
#
# Static dielectric constant tensor:
#      x y z
#    x 1.928100 0.000000 0.056330 
#    y 0.000000 1.947740 0.000000 
#    z 0.056330 0.000000 1.892920 
# 
# From -- ./inp_files/76391.got.cif
#   From: 2010.05.17/outbox.cif.g08.bks.cpg/sg15_39_cif.got.tgz:76391.got - 2010.06.03 18:47:42.
