data_PCOD9260435
_publ_section_title
;
Structure prediction by ZEFSAII (Michael W. Deem and Ramdas Pophale) SiO2 
 PCOD9260435
Probable space group: C 2/C
;
_chemical_formula_sum "Si O2"
_cell_formula_units_Z 48
_cell_length_a 13.399092
_cell_length_b 19.937290
_cell_length_c 15.445050
_cell_angle_alpha 90.000000
_cell_angle_beta 150.386776
_cell_angle_gamma 90.000000
_cell_volume 2038.839563
_symmetry_space_group_name_H-M "C 2/C"
_symmetry_group_IT_number 15
_symmetry_cell_setting 'monoclinic'
loop_
_space_group_symop_operation_xyz
x,y,z
-x,y,1/2-z
-x,-y,-z
x,-y,1/2+z
1/2+x,1/2+y,z
1/2-x,1/2+y,1/2-z
1/2-x,1/2-y,-z
1/2+x,1/2-y,1/2+z
loop_
_atom_site_type_symbol
_atom_site_label
_atom_site_fract_x
_atom_site_fract_y
_atom_site_fract_z
Si Si1 0.212121 0.841656 0.887838
Si Si2 0.000000 0.713913 0.750000
Si Si3 0.082095 0.417748 0.129649
Si Si4 0.617389 0.178925 0.250176
Si Si5 0.393519 0.958392 0.540832
Si Si6 0.000000 0.099420 0.750000
Si Si7 0.079627 0.819277 0.141953
O O1 0.134000 0.768677 0.797384
O O2 0.000000 0.877522 0.750000
O O3 0.346866 0.826576 0.074919
O O4 0.369021 0.881179 0.948125
O O5 0.246705 0.361105 0.276856
O O6 0.019936 0.474446 0.151845
O O7 0.155768 0.456684 0.099559
O O8 0.500000 0.200699 0.250000
O O9 0.517255 0.108249 0.153249
O O10 0.594589 0.239576 0.165279
O O11 0.854840 0.167741 0.440193
O O12 0.177435 0.946949 0.421925
O O13 0.909168 0.148824 0.753361
#
# Coordination Sequence:
#
# PCOD9260435 Si02
#       7
#     8   4   8   8   8   4   8
#     4   9  18  38  60  84 119 162 203 261 308 368
#     4   8  18  35  60  89 116 148 218 258 300 371
#     4  10  23  41  58  91 124 163 205 252 311 379
#     4  12  22  40  64  97 121 167 206 259 311 384
#     4  10  23  40  61  88 127 162 210 245 313 378
#     4  10  18  37  62  85 120 166 196 260 300 373
#     4  11  22  37  63  93 127 154 209 260 314 366
#
# _framework density 23.542804
#
# number of rings (size 3 to 8) (size 9 to 14) (size 15 to 20)
#    0.500    1.333    2.500    2.500    1.167    3.333 
#    4.500    0.000    0.000    0.000    0.000    0.000 
#    0.000    0.000    0.000    0.000    0.000    0.000 
#
# Total GULP energy -133873.560997 kJ/mol
# GULP energy per Si atom -5578.065042 kJ/mol
# Density = 2.348922 g / cm^3
# Si number density = 23.542804 Si / 1000 Ang^3
#
#
#
# Elastic Constant Matrix: (Units=GPa)
#
#
# Indices 1 2 3 4 5 6 
#
# 1 48.4049 26.5748 10.7869 0.0010 22.6629 0.0002
# 2 26.5748 161.9041 55.3632 0.0013 27.2469 0.0004
# 3 10.7869 55.3632 150.9718 0.0075 42.3392 0.0019
# 4 0.0010 0.0013 0.0075 15.5133 0.0016 12.1226
# 5 22.6629 27.2469 42.3392 0.0016 35.5662 -0.0001
# 6 0.0002 0.0004 0.0019 12.1226 -0.0001 27.8853
#
#
#
# Elastic Compliance Matrix: (Units=1/GPa)
#
#
# Indices 1 2 3 4 5 6 
#
# 1 0.033188 -0.003154 0.006062 -0.000003 -0.025949 0.000000
# 2 -0.003154 0.007663 -0.002255 0.000001 -0.001177 0.000000
# 3 0.006062 -0.002255 0.011433 -0.000005 -0.015746 0.000001
# 4 -0.000003 0.000001 -0.000005 0.097626 0.000003 -0.042441
# 5 -0.025949 -0.001177 -0.015746 0.000003 0.064298 0.000000
# 6 0.000000 0.000000 0.000001 -0.042441 0.000000 0.054311
#
#
# Mechanical properties :
#
#
# Convention : Reuss Voigt Hill
#
# Bulk Modulus (GPa) = 18.65920 60.74784 39.70352
# Shear Modulus (GPa) = 17.53916 33.69669 25.61793
#
# Velocity S-wave (km/s) = 2.73241 3.78735 3.30228
# Velocity P-wave (km/s) = 4.23056 6.70705 5.60723
#
# Compressibility (1/GPa) = 0.05359287
#
# Stress axis : x y z
#
# Youngs Moduli (GPa) = 30.13100 130.49309 87.46296
#
# Poissons Ratio (x) = 0.41153 -0.53023
# Poissons Ratio (y) = 0.09502 0.19721
# Poissons Ratio (z) = -0.18266 0.29423
#
# Static dielectric constant tensor:
#      x y z
#    x 2.048830 0.000000 -0.111960 
#    y 0.000000 1.956380 0.000000 
#    z -0.111960 0.000000 2.245090 
# 
# From -- ./inp_files/249772.got.cif
#   From: 2010.05.17/outbox.cif.g08.bks.cpg/sg15_125_cif.got.tgz:249772.got - 2010.06.03 18:47:42.
