data_PCOD9260991
_publ_section_title
;
Structure prediction by ZEFSAII (Michael W. Deem and Ramdas Pophale) SiO2 
 PCOD9260991
Probable space group: C 2/C
;
_chemical_formula_sum "Si O2"
_cell_formula_units_Z 56
_cell_length_a 7.713402
_cell_length_b 21.230742
_cell_length_c 17.239605
_cell_angle_alpha 90.000000
_cell_angle_beta 115.970362
_cell_angle_gamma 90.000000
_cell_volume 2538.096528
_symmetry_space_group_name_H-M "C 2/C"
_symmetry_group_IT_number 15
_symmetry_cell_setting 'monoclinic'
loop_
_space_group_symop_operation_xyz
x,y,z
-x,y,1/2-z
-x,-y,-z
x,-y,1/2+z
1/2+x,1/2+y,z
1/2-x,1/2+y,1/2-z
1/2-x,1/2-y,-z
1/2+x,1/2-y,1/2+z
loop_
_atom_site_type_symbol
_atom_site_label
_atom_site_fract_x
_atom_site_fract_y
_atom_site_fract_z
Si Si1 0.330675 0.608295 0.777808
Si Si2 0.945846 0.287725 0.324818
Si Si3 0.034489 0.971822 0.672482
Si Si4 0.682626 0.653646 0.552548
Si Si5 0.862892 0.414492 0.648728
Si Si6 0.715038 0.514314 0.507542
Si Si7 0.217765 0.211248 0.073115
O O1 0.500000 0.619263 0.750000
O O2 0.141791 0.642857 0.709584
O O3 0.329963 0.533521 0.792037
O O4 0.372717 0.639020 0.868989
O O5 0.795881 0.251447 0.350216
O O6 0.000000 0.260572 0.250000
O O7 0.142351 0.297838 0.410098
O O8 0.150645 0.922436 0.644791
O O9 0.000000 0.945388 0.750000
O O10 0.165217 0.993573 0.907054
O O11 0.754027 0.587237 0.531608
O O12 0.492623 0.679998 0.476622
O O13 0.859943 0.467364 0.579940
O O14 0.871552 0.345183 0.613619
O O15 0.000000 0.423121 0.750000
O O16 0.500000 0.500000 0.500000
O O17 0.250000 0.250000 0.000000
#
# Coordination Sequence:
#
# PCOD9260991 Si02
#       7
#     8   8   8   8   8   8   8
#     4  10  19  35  63  93 126 163 214 266 328 400
#     4  10  25  40  64  98 121 172 228 274 319 400
#     4  10  20  38  64  95 129 170 216 268 339 401
#     4  11  20  40  66  90 125 171 219 273 325 399
#     4  11  24  41  67  97 133 172 215 278 341 403
#     4  10  18  39  65  93 127 169 211 266 347 390
#     4  12  25  45  64  90 134 183 222 272 341 402
#
# _framework density 22.063777000000002
#
# number of rings (size 3 to 8) (size 9 to 14) (size 15 to 20)
#    0.000    1.429    5.714    1.286    2.000    4.571 
#    2.571    0.714    0.000    0.000    0.000    0.000 
#    0.000    0.000    0.000    0.000    0.000    0.000 
#
# Total GULP energy -156216.068153 kJ/mol
# GULP energy per Si atom -5579.145291 kJ/mol
# Density = 2.201356 g / cm^3
# Si number density = 22.063777 Si / 1000 Ang^3
#
#
#
# Elastic Constant Matrix: (Units=GPa)
#
#
# Indices 1 2 3 4 5 6 
#
# 1 34.0773 19.4600 17.2387 0.0000 -8.0123 0.0000
# 2 19.4600 91.1644 48.0455 0.0000 -1.5710 0.0000
# 3 17.2387 48.0455 136.2622 0.0000 9.1561 0.0000
# 4 0.0000 0.0000 0.0000 16.8782 0.0000 -13.3401
# 5 -8.0123 -1.5710 9.1561 0.0000 42.3332 0.0000
# 6 0.0000 0.0000 0.0000 -13.3401 0.0000 13.0080
#
#
#
# Elastic Compliance Matrix: (Units=1/GPa)
#
#
# Indices 1 2 3 4 5 6 
#
# 1 0.035948 -0.006015 -0.002912 0.000000 0.007210 0.000000
# 2 -0.006015 0.014580 -0.004404 0.000000 0.000355 0.000000
# 3 -0.002912 -0.004404 0.009445 0.000000 -0.002757 0.000000
# 4 0.000000 0.000000 0.000000 0.312744 0.000000 0.320728
# 5 0.007210 0.000355 -0.002757 0.000000 0.025596 0.000000
# 6 0.000000 0.000000 0.000000 0.320728 0.000000 0.405792
#
#
# Mechanical properties :
#
#
# Convention : Reuss Voigt Hill
#
# Bulk Modulus (GPa) = 30.01829 47.88803 38.95316
# Shear Modulus (GPa) = 5.93916 26.22787 16.08351
#
# Velocity S-wave (km/s) = 1.64245 3.45154 2.70285
# Velocity P-wave (km/s) = 4.15110 6.13479 5.23771
#
# Compressibility (1/GPa) = 0.03331302
#
# Stress axis : x y z
#
# Youngs Moduli (GPa) = 27.81797 68.58646 105.87410
#
# Poissons Ratio (x) = 0.41253 0.30825
# Poissons Ratio (y) = 0.16732 0.46625
# Poissons Ratio (z) = 0.08099 0.30204
#
# Static dielectric constant tensor:
#      x y z
#    x 1.820200 0.000000 0.000730 
#    y 0.000000 1.840490 0.000000 
#    z 0.000730 0.000000 1.896170 
# 
# From -- ./inp_files/137955.got.cif
#   From: 2010.05.17/outbox.cif.g08.bks.cpg/sg15_69_cif.got.tgz:137955.got - 2010.06.03 18:47:42.
