data_PCOD9260263
_publ_section_title
;
Structure prediction by ZEFSAII (Michael W. Deem and Ramdas Pophale) SiO2 
 PCOD9260263
Probable space group: C 2/C
;
_chemical_formula_sum "Si O2"
_cell_formula_units_Z 56
_cell_length_a 13.417636
_cell_length_b 14.422752
_cell_length_c 25.610636
_cell_angle_alpha 90.000000
_cell_angle_beta 31.932132
_cell_angle_gamma 90.000000
_cell_volume 2621.379302
_symmetry_space_group_name_H-M "C 2/C"
_symmetry_group_IT_number 15
_symmetry_cell_setting 'monoclinic'
loop_
_space_group_symop_operation_xyz
x,y,z
-x,y,1/2-z
-x,-y,-z
x,-y,1/2+z
1/2+x,1/2+y,z
1/2-x,1/2+y,1/2-z
1/2-x,1/2-y,-z
1/2+x,1/2-y,1/2+z
loop_
_atom_site_type_symbol
_atom_site_label
_atom_site_fract_x
_atom_site_fract_y
_atom_site_fract_z
Si Si1 0.377133 0.541904 0.694760
Si Si2 0.694573 0.472028 0.616693
Si Si3 0.198235 0.170317 0.297870
Si Si4 0.454183 0.049540 0.590378
Si Si5 0.028875 0.764419 0.087608
Si Si6 0.000051 0.247713 0.476874
Si Si7 0.088544 0.243114 0.156552
O O1 0.513644 0.533776 0.684890
O O2 0.367373 0.436482 0.678392
O O3 0.160353 0.559344 0.806109
O O4 0.458893 0.629791 0.628154
O O5 0.821040 0.491484 0.610795
O O6 0.634932 0.365468 0.646493
O O7 0.835678 0.489631 0.504876
O O8 0.398464 0.197215 0.182246
O O9 0.165348 0.193940 0.373189
O O10 0.054393 0.234468 0.327888
O O11 0.474309 0.148958 0.555339
O O12 0.250000 0.750000 0.000000
O O13 0.000668 0.747194 0.038773
O O14 0.790765 0.212105 0.553833
O O15 0.000000 0.280388 0.250000
#
# Coordination Sequence:
#
# PCOD9260263 Si02
#       7
#     8   8   8   8   8   8   8
#     4  11  23  40  62  90 131 172 217 266 327 392
#     4   9  19  30  57  94 122 159 213 272 333 382
#     4  11  24  44  65  97 132 171 220 276 328 396
#     4  10  19  34  61  91 126 162 208 276 335 382
#     4  12  27  44  68  98 136 180 222 268 327 400
#     4  11  23  41  64  95 133 170 219 272 332 391
#     4  10  18  36  66  94 123 160 215 279 333 379
#
# _framework density 21.3628
#
# number of rings (size 3 to 8) (size 9 to 14) (size 15 to 20)
#    0.000    1.429    2.857    3.429    6.000    1.143 
#    0.000    0.000    0.000    0.000    0.000    0.000 
#    0.000    0.000    0.000    0.000    0.000    0.000 
#
# Total GULP energy -156158.456864 kJ/mol
# GULP energy per Si atom -5577.087745 kJ/mol
# Density = 2.131418 g / cm^3
# Si number density = 21.362800 Si / 1000 Ang^3
#
#
#
# Elastic Constant Matrix: (Units=GPa)
#
#
# Indices 1 2 3 4 5 6 
#
# 1 15.7712 1.5996 19.9476 0.0004 -5.6109 0.0001
# 2 1.5996 66.4378 12.3947 0.0006 8.3163 -0.0001
# 3 19.9476 12.3947 157.6298 0.0027 -2.6041 -0.0002
# 4 0.0004 0.0006 0.0027 27.5068 -0.0002 0.4813
# 5 -5.6109 8.3163 -2.6041 -0.0002 34.5499 0.0000
# 6 0.0001 -0.0001 -0.0002 0.4813 0.0000 20.3679
#
#
#
# Elastic Compliance Matrix: (Units=1/GPa)
#
#
# Indices 1 2 3 4 5 6 
#
# 1 0.080578 -0.001698 -0.009853 0.000000 0.012752 0.000000
# 2 -0.001698 0.015819 -0.001098 0.000000 -0.004166 0.000000
# 3 -0.009853 -0.001098 0.007665 -0.000001 -0.000758 0.000000
# 4 0.000000 0.000000 -0.000001 0.036370 0.000000 -0.000859
# 5 0.012752 -0.004166 -0.000758 0.000000 0.031960 0.000000
# 6 0.000000 0.000000 0.000000 -0.000859 0.000000 0.049117
#
#
# Mechanical properties :
#
#
# Convention : Reuss Voigt Hill
#
# Bulk Modulus (GPa) = 12.69617 34.19139 23.44378
# Shear Modulus (GPa) = 18.31099 30.21137 24.26118
#
# Velocity S-wave (km/s) = 2.93088 3.76467 3.37363
# Velocity P-wave (km/s) = 4.17246 5.91074 5.11597
#
# Compressibility (1/GPa) = 0.07876392
#
# Stress axis : x y z
#
# Youngs Moduli (GPa) = 12.41039 63.21566 130.46988
#
# Poissons Ratio (x) = 0.10735 1.28548
# Poissons Ratio (y) = 0.02107 0.14323
# Poissons Ratio (z) = 0.12228 0.06940
#
# Static dielectric constant tensor:
#      x y z
#    x 1.802680 0.000000 0.015640 
#    y 0.000000 1.783640 0.000000 
#    z 0.015640 0.000000 1.922570 
# 
# From -- ./inp_files/178328.got.cif
#   From: 2010.05.17/outbox.cif.g08.bks.cpg/sg15_90_cif.got.tgz:178328.got - 2010.06.03 18:47:42.
