data_PCOD9260329
_publ_section_title
;
Structure prediction by ZEFSAII (Michael W. Deem and Ramdas Pophale) SiO2 
 PCOD9260329
Probable space group: C 2/C
;
_chemical_formula_sum "Si O2"
_cell_formula_units_Z 44
_cell_length_a 10.231578
_cell_length_b 10.913412
_cell_length_c 17.544963
_cell_angle_alpha 90.000000
_cell_angle_beta 125.294415
_cell_angle_gamma 90.000000
_cell_volume 1599.001897
_symmetry_space_group_name_H-M "C 2/C"
_symmetry_group_IT_number 15
_symmetry_cell_setting 'monoclinic'
loop_
_space_group_symop_operation_xyz
x,y,z
-x,y,1/2-z
-x,-y,-z
x,-y,1/2+z
1/2+x,1/2+y,z
1/2-x,1/2+y,1/2-z
1/2-x,1/2-y,-z
1/2+x,1/2-y,1/2+z
loop_
_atom_site_type_symbol
_atom_site_label
_atom_site_fract_x
_atom_site_fract_y
_atom_site_fract_z
Si Si1 0.824153 0.100815 0.933519
Si Si2 0.612603 0.009296 0.464617
Si Si3 0.482218 0.740537 0.617441
Si Si4 0.966906 0.281369 0.150254
Si Si5 0.220628 0.095456 0.213788
Si Si6 0.000000 0.939222 0.250000
O O1 0.790605 0.042537 0.005095
O O2 0.972705 0.153770 0.938350
O O3 0.724252 0.226983 0.911129
O O4 0.755109 0.000281 0.848076
O O5 0.514071 0.919921 0.373250
O O6 0.500000 0.000000 0.500000
O O7 0.624012 0.149166 0.445736
O O8 0.420980 0.651963 0.662485
O O9 0.635673 0.817753 0.706377
O O10 0.000000 0.272054 0.250000
O O11 0.079861 0.190928 0.143295
O O12 0.135639 0.017986 0.253108
#
# Coordination Sequence:
#
# PCOD9260329 Si02
#       6
#     8   8   8   8   8   4
#     4   9  21  32  55  79 108 145 186 226 278 327
#     4  10  23  40  55  80 119 155 188 225 273 339
#     4  11  20  33  58  80 111 149 181 232 281 330
#     4  10  18  37  56  84 112 142 183 239 277 327
#     4  11  18  34  57  86 112 138 183 235 290 323
#     4  10  22  30  56  92 114 128 186 240 280 330
#
# _framework density 27.517164000000001
#
# number of rings (size 3 to 8) (size 9 to 14) (size 15 to 20)
#    1.091    0.727    2.727    2.182    3.818    0.727 
#    0.000    0.909    0.000    2.182    0.000    0.000 
#    0.000    0.000    0.000    0.000    0.000    0.000 
#
# Total GULP energy -122702.486046 kJ/mol
# GULP energy per Si atom -5577.385729 kJ/mol
# Density = 2.745453 g / cm^3
# Si number density = 27.517164 Si / 1000 Ang^3
#
#
#
# Elastic Constant Matrix: (Units=GPa)
#
#
# Indices 1 2 3 4 5 6 
#
# 1 95.7011 63.5326 43.1499 0.0000 -27.6793 0.0000
# 2 63.5326 166.1460 51.9370 0.0000 -28.3069 0.0000
# 3 43.1499 51.9370 106.6997 0.0000 -47.5829 0.0000
# 4 0.0000 0.0000 0.0000 47.0775 0.0000 -9.2765
# 5 -27.6793 -28.3069 -47.5829 0.0000 56.8155 0.0000
# 6 0.0000 0.0000 0.0000 -9.2765 0.0000 47.9706
#
#
#
# Elastic Compliance Matrix: (Units=1/GPa)
#
#
# Indices 1 2 3 4 5 6 
#
# 1 0.015607 -0.004601 -0.002719 0.000000 0.003034 0.000000
# 2 -0.004601 0.008493 -0.002212 0.000000 0.000137 0.000000
# 3 -0.002719 -0.002212 0.016705 0.000000 0.011564 0.000000
# 4 0.000000 0.000000 0.000000 0.022083 0.000000 0.004270
# 5 0.003034 0.000137 0.011564 0.000000 0.028832 0.000000
# 6 0.000000 0.000000 0.000000 0.004270 0.000000 0.021672
#
#
# Mechanical properties :
#
#
# Convention : Reuss Voigt Hill
#
# Bulk Modulus (GPa) = 45.99583 76.19841 61.09712
# Shear Modulus (GPa) = 35.78980 44.36786 40.07883
#
# Velocity S-wave (km/s) = 3.61035 4.01979 3.82056
# Velocity P-wave (km/s) = 5.84218 7.02113 6.45861
#
# Compressibility (1/GPa) = 0.02174110
#
# Stress axis : x y z
#
# Youngs Moduli (GPa) = 64.07291 117.74184 59.86078
#
# Poissons Ratio (x) = 0.54175 0.16276
# Poissons Ratio (y) = 0.29481 0.13242
# Poissons Ratio (z) = 0.17421 0.26047
#
# Static dielectric constant tensor:
#      x y z
#    x 2.299770 0.000000 0.180980 
#    y 0.000000 2.088880 0.000000 
#    z 0.180980 0.000000 2.255540 
# 
# From -- ./inp_files/236325.got.cif
#   From: 2010.05.17/outbox.cif.g08.bks.cpg/sg15_119_cif.got.tgz:236325.got - 2010.06.03 18:47:42.
