data_PCOD9260360
_publ_section_title
;
Structure prediction by ZEFSAII (Michael W. Deem and Ramdas Pophale) SiO2 
 PCOD9260360
Probable space group: C 2/C
;
_chemical_formula_sum "Si O2"
_cell_formula_units_Z 44
_cell_length_a 16.456614
_cell_length_b 8.986939
_cell_length_c 31.463473
_cell_angle_alpha 90.000000
_cell_angle_beta 153.815763
_cell_angle_gamma 90.000000
_cell_volume 2053.300430
_symmetry_space_group_name_H-M "C 2/C"
_symmetry_group_IT_number 15
_symmetry_cell_setting 'monoclinic'
loop_
_space_group_symop_operation_xyz
x,y,z
-x,y,1/2-z
-x,-y,-z
x,-y,1/2+z
1/2+x,1/2+y,z
1/2-x,1/2+y,1/2-z
1/2-x,1/2-y,-z
1/2+x,1/2-y,1/2+z
loop_
_atom_site_type_symbol
_atom_site_label
_atom_site_fract_x
_atom_site_fract_y
_atom_site_fract_z
Si Si1 0.354907 0.785191 0.851958
Si Si2 0.949288 0.797013 0.639209
Si Si3 0.661180 0.714381 0.566002
Si Si4 0.537208 0.508214 0.437629
Si Si5 0.000000 0.495267 0.750000
Si Si6 0.943652 0.441394 0.631720
O O1 0.142687 0.834152 0.751906
O O2 0.422458 0.795490 0.932504
O O3 0.376206 0.608035 0.853742
O O4 0.458462 0.865526 0.862086
O O5 0.773123 0.820447 0.586514
O O6 0.954809 0.620487 0.632515
O O7 0.939055 0.885859 0.591187
O O8 0.526988 0.611862 0.474631
O O9 0.823628 0.602857 0.659260
O O10 0.724595 0.411752 0.529360
O O11 0.019317 0.406839 0.714700
#
# Coordination Sequence:
#
# PCOD9260360 Si02
#       6
#     8   8   8   8   4   8
#     4  12  20  34  60  90 108 142 193 241 273 318
#     4  10  20  38  58  81 114 152 188 223 280 337
#     4  10  18  37  59  82 111 151 191 218 271 347
#     4  10  22  37  58  82 114 151 185 231 280 331
#     4   8  16  36  56  76 108 156 184 214 270 342
#     4  10  20  36  60  80 118 146 189 227 282 329
#
# _framework density 21.428913000000001
#
# number of rings (size 3 to 8) (size 9 to 14) (size 15 to 20)
#    0.000    2.182    3.636    4.364    0.000    0.000 
#    0.000    3.636    8.000    0.000    0.000    0.000 
#    0.000    0.000    0.000    0.000    0.000    0.000 
#
# Total GULP energy -122734.234698 kJ/mol
# GULP energy per Si atom -5578.828850 kJ/mol
# Density = 2.138014 g / cm^3
# Si number density = 21.428913 Si / 1000 Ang^3
#
#
#
# Elastic Constant Matrix: (Units=GPa)
#
#
# Indices 1 2 3 4 5 6 
#
# 1 143.9804 39.0124 20.5216 -0.0006 -53.3312 0.0003
# 2 39.0124 23.2369 12.4299 -0.0002 -23.4410 0.0002
# 3 20.5216 12.4299 53.1566 -0.0003 -20.3064 -0.0005
# 4 -0.0006 -0.0002 -0.0003 12.8896 -0.0003 -7.7088
# 5 -53.3312 -23.4410 -20.3064 -0.0003 43.1224 0.0001
# 6 0.0003 0.0002 -0.0005 -7.7088 0.0001 46.0613
#
#
#
# Elastic Compliance Matrix: (Units=1/GPa)
#
#
# Indices 1 2 3 4 5 6 
#
# 1 0.014783 -0.014385 0.002016 0.000001 0.011413 0.000000
# 2 -0.014385 0.109690 -0.005016 0.000002 0.039474 0.000000
# 3 0.002016 -0.005016 0.023311 0.000001 0.010744 0.000000
# 4 0.000001 0.000002 0.000001 0.086211 0.000003 0.014428
# 5 0.011413 0.039474 0.010744 0.000003 0.063822 0.000000
# 6 0.000000 0.000000 0.000000 0.014428 0.000000 0.024125
#
#
# Mechanical properties :
#
#
# Convention : Reuss Voigt Hill
#
# Bulk Modulus (GPa) = 8.84844 40.47797 24.66320
# Shear Modulus (GPa) = 12.67806 30.30867 21.49336
#
# Velocity S-wave (km/s) = 2.43499 3.76491 3.17047
# Velocity P-wave (km/s) = 3.47041 6.15059 4.99367
#
# Compressibility (1/GPa) = 0.11301431
#
# Stress axis : x y z
#
# Youngs Moduli (GPa) = 67.64517 9.11663 42.89770
#
# Poissons Ratio (x) = 0.13114 -0.08650
# Poissons Ratio (y) = 0.97306 0.21519
# Poissons Ratio (z) = -0.13640 0.04573
#
# Static dielectric constant tensor:
#      x y z
#    x 1.859660 0.000000 0.014280 
#    y 0.000000 1.764250 0.000000 
#    z 0.014280 0.000000 1.843740 
# 
# From -- ./inp_files/315579.got.cif
#   From: 2010.05.17/outbox.cif.g08.bks.cpg/sg15_158_cif.got.tgz:315579.got - 2010.06.03 18:47:42.
