data_PCOD9260483
_publ_section_title
;
Structure prediction by ZEFSAII (Michael W. Deem and Ramdas Pophale) SiO2 
 PCOD9260483
Probable space group: C 2/C
;
_chemical_formula_sum "Si O2"
_cell_formula_units_Z 64
_cell_length_a 8.742646
_cell_length_b 18.074020
_cell_length_c 26.958786
_cell_angle_alpha 90.000000
_cell_angle_beta 40.720514
_cell_angle_gamma 90.000000
_cell_volume 2779.021028
_symmetry_space_group_name_H-M "C 2/C"
_symmetry_group_IT_number 15
_symmetry_cell_setting 'monoclinic'
loop_
_space_group_symop_operation_xyz
x,y,z
-x,y,1/2-z
-x,-y,-z
x,-y,1/2+z
1/2+x,1/2+y,z
1/2-x,1/2+y,1/2-z
1/2-x,1/2-y,-z
1/2+x,1/2-y,1/2+z
loop_
_atom_site_type_symbol
_atom_site_label
_atom_site_fract_x
_atom_site_fract_y
_atom_site_fract_z
Si Si1 0.443363 0.355888 0.103498
Si Si2 0.744935 0.814164 0.334046
Si Si3 0.838993 0.434066 0.958002
Si Si4 0.918212 0.220752 0.216855
Si Si5 0.710299 0.031788 0.730936
Si Si6 0.076868 0.709066 0.124308
Si Si7 0.612364 0.430327 0.667074
Si Si8 0.613644 0.081369 0.600473
O O1 0.293298 0.392106 0.184761
O O2 0.511658 0.271561 0.099055
O O3 0.293738 0.371585 0.090268
O O4 0.678339 0.404682 0.041596
O O5 0.625048 0.777614 0.315623
O O6 0.786712 0.754426 0.366842
O O7 0.550553 0.873678 0.397278
O O8 0.000000 0.840782 0.250000
O O9 0.819733 0.365046 0.924200
O O10 0.758282 0.512344 0.956029
O O11 0.113310 0.446615 0.902080
O O12 0.665840 0.185065 0.290363
O O13 0.000000 0.251280 0.250000
O O14 0.088396 0.155691 0.158812
O O15 0.500000 0.997898 0.750000
O O16 0.584019 0.048630 0.813613
O O17 0.937107 0.980711 0.678873
O O18 0.500000 0.435669 0.750000
#
# Coordination Sequence:
#
# PCOD9260483 Si02
#       8
#     8   8   8   8   8   8   8   8
#     4  11  26  43  68  95 134 182 227 271 346 408
#     4  10  23  36  67 100 130 163 222 286 332 387
#     4  12  25  43  69  94 136 182 223 280 339 409
#     4  10  18  37  64 101 127 168 219 275 333 393
#     4  10  22  40  65 100 128 170 220 281 332 403
#     4  11  22  42  65  93 134 172 224 275 335 399
#     4  11  21  38  69  97 133 169 226 275 339 395
#     4  11  23  43  68  94 133 172 223 278 337 401
#
# _framework density 23.029692000000001
#
# number of rings (size 3 to 8) (size 9 to 14) (size 15 to 20)
#    0.000    1.250    3.750    3.000    3.500    5.000 
#    0.000    0.625    0.000    0.000    0.000    0.000 
#    0.000    0.000    0.000    0.000    0.000    0.000 
#
# Total GULP energy -178832.741418 kJ/mol
# GULP energy per Si atom -5588.523169 kJ/mol
# Density = 2.297728 g / cm^3
# Si number density = 23.029692 Si / 1000 Ang^3
#
#
#
# Elastic Constant Matrix: (Units=GPa)
#
#
# Indices 1 2 3 4 5 6 
#
# 1 118.1126 54.4331 3.7204 0.0002 -29.2440 0.0030
# 2 54.4331 87.1056 -11.1732 -0.0017 -2.1525 0.0014
# 3 3.7204 -11.1732 45.1150 -0.0030 -18.2500 0.0131
# 4 0.0002 -0.0017 -0.0030 27.3215 0.0017 -1.4294
# 5 -29.2440 -2.1525 -18.2500 0.0017 26.3397 -0.0057
# 6 0.0030 0.0014 0.0131 -1.4294 -0.0057 19.1533
#
#
#
# Elastic Compliance Matrix: (Units=1/GPa)
#
#
# Indices 1 2 3 4 5 6 
#
# 1 0.019281 -0.010721 0.005641 -0.000002 0.024439 0.000001
# 2 -0.010721 0.018158 0.001620 0.000002 -0.009297 -0.000003
# 3 0.005641 0.001620 0.034303 0.000001 0.030163 -0.000015
# 4 -0.000002 0.000002 0.000001 0.036745 -0.000003 0.002742
# 5 0.024439 -0.009297 0.030163 -0.000003 0.085239 0.000001
# 6 0.000001 -0.000003 -0.000015 0.002742 0.000001 0.052415
#
#
# Mechanical properties :
#
#
# Convention : Reuss Voigt Hill
#
# Bulk Modulus (GPa) = 15.42667 38.25485 26.84076
# Shear Modulus (GPa) = 18.20379 28.11976 23.16178
#
# Velocity S-wave (km/s) = 2.81454 3.49810 3.17477
# Velocity P-wave (km/s) = 4.15636 5.74132 5.01189
#
# Compressibility (1/GPa) = 0.06482282
#
# Stress axis : x y z
#
# Youngs Moduli (GPa) = 51.86526 55.07140 29.15157
#
# Poissons Ratio (x) = 0.59043 -0.16444
# Poissons Ratio (y) = 0.55606 -0.04724
# Poissons Ratio (z) = -0.29257 -0.08924
#
# Static dielectric constant tensor:
#      x y z
#    x 1.911390 0.000000 -0.009860 
#    y 0.000000 1.933070 0.000000 
#    z -0.009860 0.000000 1.857390 
# 
# From -- ./inp_files/308744.got.cif
#   From: 2010.05.17/outbox.cif.g08.bks.cpg/sg15_155_cif.got.tgz:308744.got - 2010.06.03 18:47:42.
