data_PCOD9260874
_publ_section_title
;
Structure prediction by ZEFSAII (Michael W. Deem and Ramdas Pophale) SiO2 
 PCOD9260874
Probable space group: C 2/C
;
_chemical_formula_sum "Si O2"
_cell_formula_units_Z 48
_cell_length_a 9.042564
_cell_length_b 24.289309
_cell_length_c 11.414298
_cell_angle_alpha 90.000000
_cell_angle_beta 102.097649
_cell_angle_gamma 90.000000
_cell_volume 2451.333301
_symmetry_space_group_name_H-M "C 2/C"
_symmetry_group_IT_number 15
_symmetry_cell_setting 'monoclinic'
loop_
_space_group_symop_operation_xyz
x,y,z
-x,y,1/2-z
-x,-y,-z
x,-y,1/2+z
1/2+x,1/2+y,z
1/2-x,1/2+y,1/2-z
1/2-x,1/2-y,-z
1/2+x,1/2-y,1/2+z
loop_
_atom_site_type_symbol
_atom_site_label
_atom_site_fract_x
_atom_site_fract_y
_atom_site_fract_z
Si Si1 0.500000 0.222087 0.750000
Si Si2 0.702591 0.460834 0.069982
Si Si3 0.941253 0.631097 0.545379
Si Si4 0.982398 0.887469 0.884837
Si Si5 0.000000 0.058617 0.750000
Si Si6 0.291158 0.703772 0.099574
Si Si7 0.254864 0.418825 0.017660
O O1 0.486236 0.180967 0.638750
O O2 0.645418 0.262867 0.778589
O O3 0.833320 0.414032 0.092069
O O4 0.619946 0.470362 0.181431
O O5 0.573985 0.435548 0.964891
O O6 0.756191 0.517090 0.020203
O O7 0.843174 0.659092 0.424131
O O8 0.093581 0.602486 0.530054
O O9 0.067322 0.830776 0.926100
O O10 0.000000 0.895079 0.750000
O O11 0.817260 0.888668 0.912096
O O12 0.883660 0.088795 0.640654
O O13 0.250000 0.750000 0.000000
#
# Coordination Sequence:
#
# PCOD9260874 Si02
#       7
#     4   8   8   8   4   8   8
#     4  10  18  38  67  82 112 168 197 252 308 364
#     4  10  22  36  61  89 127 162 198 245 296 363
#     4  10  21  39  59  94 124 152 202 252 314 357
#     4  10  20  37  62  88 117 164 208 238 299 368
#     4  10  20  36  57  88 114 170 211 226 284 360
#     4   9  19  37  65  84 113 158 204 254 306 352
#     4  11  23  36  62  89 130 160 199 253 296 370
#
# _framework density 19.581178999999999
#
# number of rings (size 3 to 8) (size 9 to 14) (size 15 to 20)
#    0.000    2.000    0.833    3.500    4.667    1.333 
#    0.000    6.667    3.667    2.000    0.000    0.000 
#    0.000    0.000    0.000    0.000    0.000    0.000 
#
# Total GULP energy -133665.197131 kJ/mol
# GULP energy per Si atom -5569.383214 kJ/mol
# Density = 1.953661 g / cm^3
# Si number density = 19.581179 Si / 1000 Ang^3
#
#
#
# Elastic Constant Matrix: (Units=GPa)
#
#
# Indices 1 2 3 4 5 6 
#
# 1 142.5225 57.8411 46.6055 0.0000 -6.0132 0.0000
# 2 57.8411 113.8067 33.1986 0.0000 0.4383 0.0000
# 3 46.6055 33.1986 90.1803 0.0000 -0.8717 0.0000
# 4 0.0000 0.0000 0.0000 20.4129 0.0000 10.8787
# 5 -6.0132 0.4383 -0.8717 0.0000 26.2378 0.0000
# 6 0.0000 0.0000 0.0000 10.8787 0.0000 5.9212
#
#
#
# Elastic Compliance Matrix: (Units=1/GPa)
#
#
# Indices 1 2 3 4 5 6 
#
# 1 0.009918 -0.003988 -0.003636 0.000000 0.002219 0.000000
# 2 -0.003988 0.011450 -0.002165 0.000000 -0.001177 0.000000
# 3 -0.003636 -0.002165 0.013762 0.000000 -0.000340 0.000000
# 4 0.000000 0.000000 0.000000 2.346406 0.000000 -4.310915
# 5 0.002219 -0.001177 -0.000340 0.000000 0.038630 0.000000
# 6 0.000000 0.000000 0.000000 -4.310915 0.000000 8.089080
#
#
# Mechanical properties :
#
#
# Convention : Reuss Voigt Hill
#
# Bulk Modulus (GPa) = 64.30703 69.08887 66.69795
# Shear Modulus (GPa) = 0.47465 24.43868 12.45667
#
# Velocity S-wave (km/s) = 0.49288 3.53664 2.52495
# Velocity P-wave (km/s) = 5.76511 7.21366 6.52968
#
# Compressibility (1/GPa) = 0.01555040
#
# Stress axis : x y z
#
# Youngs Moduli (GPa) = 100.83057 87.33541 72.66554
#
# Poissons Ratio (x) = 0.34834 0.26419
# Poissons Ratio (y) = 0.40216 0.15734
# Poissons Ratio (z) = 0.36659 0.18911
#
# Static dielectric constant tensor:
#      x y z
#    x 1.703140 0.000000 0.031250 
#    y 0.000000 1.728550 0.000000 
#    z 0.031250 0.000000 1.738280 
# 
# From -- ./inp_files/79407.got.cif
#   From: 2010.05.17/outbox.cif.g08.bks.cpg/sg15_40_cif.got.tgz:79407.got - 2010.06.03 18:47:42.
