data_PCOD9260899
_publ_section_title
;
Structure prediction by ZEFSAII (Michael W. Deem and Ramdas Pophale) SiO2 
 PCOD9260899
Probable space group: C 2/C
;
_chemical_formula_sum "Si O2"
_cell_formula_units_Z 52
_cell_length_a 12.136559
_cell_length_b 28.386928
_cell_length_c 7.439820
_cell_angle_alpha 90.000000
_cell_angle_beta 62.197309
_cell_angle_gamma 90.000000
_cell_volume 2267.269970
_symmetry_space_group_name_H-M "C 2/C"
_symmetry_group_IT_number 15
_symmetry_cell_setting 'monoclinic'
loop_
_space_group_symop_operation_xyz
x,y,z
-x,y,1/2-z
-x,-y,-z
x,-y,1/2+z
1/2+x,1/2+y,z
1/2-x,1/2+y,1/2-z
1/2-x,1/2-y,-z
1/2+x,1/2-y,1/2+z
loop_
_atom_site_type_symbol
_atom_site_label
_atom_site_fract_x
_atom_site_fract_y
_atom_site_fract_z
Si Si1 0.387918 0.644637 0.072557
Si Si2 0.763813 0.437574 0.725047
Si Si3 0.387953 0.748993 0.983995
Si Si4 0.140918 0.989010 0.132771
Si Si5 0.093654 0.348779 0.343372
Si Si6 0.350984 0.609732 0.689764
Si Si7 0.000000 0.410536 0.750000
O O1 0.393151 0.700295 0.089945
O O2 0.361643 0.634774 0.879260
O O3 0.522639 0.622484 0.007905
O O4 0.279647 0.616229 0.255585
O O5 0.745692 0.470829 0.569540
O O6 0.892302 0.439762 0.733726
O O7 0.660686 0.461904 0.931263
O O8 0.500000 0.748751 0.750000
O O9 0.250000 0.750000 0.000000
O O10 0.402482 0.794620 0.097675
O O11 0.156541 0.945652 0.261163
O O12 0.000000 0.006986 0.250000
O O13 0.229535 0.368596 0.193979
O O14 0.055057 0.378215 0.550136
O O15 0.000000 0.356127 0.250000
#
# Coordination Sequence:
#
# PCOD9260899 Si02
#       7
#     8   8   8   8   8   8   4
#     4  10  18  38  68  96 125 183 223 272 348 405
#     4  11  24  40  66  96 135 176 228 279 345 415
#     4  12  21  39  74 101 134 189 232 280 353 415
#     4  11  21  39  66  95 125 169 226 287 336 397
#     4  12  26  45  71 104 140 181 231 283 337 417
#     4  10  18  40  67  93 130 177 228 276 340 401
#     4  12  24  48  66  96 140 192 222 268 358 420
#
# _framework density 22.935072000000002
#
# number of rings (size 3 to 8) (size 9 to 14) (size 15 to 20)
#    0.000    0.923   10.000    0.462    0.000    1.846 
#    1.385    3.846    0.000    0.000    0.000    0.000 
#    0.000    0.000    0.000    0.000    0.000    0.000 
#
# Total GULP energy -145440.938654 kJ/mol
# GULP energy per Si atom -5593.882256 kJ/mol
# Density = 2.288287 g / cm^3
# Si number density = 22.935072 Si / 1000 Ang^3
#
#
#
# Elastic Constant Matrix: (Units=GPa)
#
#
# Indices 1 2 3 4 5 6 
#
# 1 187.7340 48.6854 30.9963 0.0000 -4.0749 0.0000
# 2 48.6854 124.9714 3.6288 0.0000 4.8512 0.0000
# 3 30.9963 3.6288 55.0208 0.0000 6.9433 0.0000
# 4 0.0000 0.0000 0.0000 11.0703 0.0000 1.3501
# 5 -4.0749 4.8512 6.9433 0.0000 31.3940 0.0000
# 6 0.0000 0.0000 0.0000 1.3501 0.0000 36.8398
#
#
#
# Elastic Compliance Matrix: (Units=1/GPa)
#
#
# Indices 1 2 3 4 5 6 
#
# 1 0.006677 -0.002571 -0.003859 0.000000 0.002117 0.000000
# 2 -0.002571 0.009048 0.001101 0.000000 -0.001975 0.000000
# 3 -0.003859 0.001101 0.020946 0.000000 -0.005303 0.000000
# 4 0.000000 0.000000 0.000000 0.090737 0.000000 -0.003325
# 5 0.002117 -0.001975 -0.005303 0.000000 0.033606 0.000000
# 6 0.000000 0.000000 0.000000 -0.003325 0.000000 0.027266
#
#
# Mechanical properties :
#
#
# Convention : Reuss Voigt Hill
#
# Bulk Modulus (GPa) = 38.44355 59.37192 48.90774
# Shear Modulus (GPa) = 24.08373 34.82186 29.45280
#
# Velocity S-wave (km/s) = 3.24401 3.90074 3.58744
# Velocity P-wave (km/s) = 5.55246 6.79933 6.20728
#
# Compressibility (1/GPa) = 0.02601217
#
# Stress axis : x y z
#
# Youngs Moduli (GPa) = 149.77769 110.51934 47.74289
#
# Poissons Ratio (x) = 0.28416 0.18424
# Poissons Ratio (y) = 0.38510 -0.05256
# Poissons Ratio (z) = 0.57798 -0.12168
#
# Static dielectric constant tensor:
#      x y z
#    x 1.910800 0.000000 0.058440 
#    y 0.000000 1.887220 0.000000 
#    z 0.058440 0.000000 1.954870 
# 
# From -- ./inp_files/33489.got.cif
#   From: 2010.05.17/outbox.cif.g08.bks.cpg/sg15_17_cif.got.tgz:33489.got - 2010.06.03 18:47:42.
