data_PCOD9260388
_publ_section_title
;
Structure prediction by ZEFSAII (Michael W. Deem and Ramdas Pophale) SiO2 
 PCOD9260388
Probable space group: C 2/C
;
_chemical_formula_sum "Si O2"
_cell_formula_units_Z 44
_cell_length_a 8.495368
_cell_length_b 18.998369
_cell_length_c 12.056956
_cell_angle_alpha 90.000000
_cell_angle_beta 80.210553
_cell_angle_gamma 90.000000
_cell_volume 1917.635403
_symmetry_space_group_name_H-M "C 2/C"
_symmetry_group_IT_number 15
_symmetry_cell_setting 'monoclinic'
loop_
_space_group_symop_operation_xyz
x,y,z
-x,y,1/2-z
-x,-y,-z
x,-y,1/2+z
1/2+x,1/2+y,z
1/2-x,1/2+y,1/2-z
1/2-x,1/2-y,-z
1/2+x,1/2-y,1/2+z
loop_
_atom_site_type_symbol
_atom_site_label
_atom_site_fract_x
_atom_site_fract_y
_atom_site_fract_z
Si Si1 0.500000 0.797176 0.250000
Si Si2 0.204663 0.498512 0.908004
Si Si3 0.310753 0.856552 0.462898
Si Si4 0.042062 0.178591 0.417651
Si Si5 0.500000 0.446302 0.750000
Si Si6 0.641433 0.144620 0.034562
Si Si7 0.500000 0.922643 0.750000
O O1 0.368144 0.842460 0.330855
O O2 0.571702 0.743633 0.331604
O O3 0.367933 0.494832 0.821065
O O4 0.079477 0.470716 0.833050
O O5 0.209586 0.438737 0.003074
O O6 0.163398 0.573359 0.961457
O O7 0.464361 0.829971 0.517718
O O8 0.140997 0.821801 0.515315
O O9 0.183354 0.179505 0.490794
O O10 0.050293 0.107074 0.342677
O O11 0.618227 0.126725 0.167077
#
# Coordination Sequence:
#
# PCOD9260388 Si02
#       7
#     4   8   8   8   4   8   4
#     4  11  24  45  68  94 132 171 223 272 316 367
#     4  10  21  38  63  96 131 167 210 260 325 394
#     4  10  23  42  66  97 126 169 215 271 318 380
#     4  10  22  44  66  88 129 175 215 261 319 381
#     4   9  18  38  60  89 123 172 207 252 322 381
#     4  11  23  40  65  97 128 168 217 260 324 395
#     4  10  18  37  60  87 133 167 202 260 322 382
#
# _framework density 22.944925000000001
#
# number of rings (size 3 to 8) (size 9 to 14) (size 15 to 20)
#    0.000    1.818    1.818    2.727    2.545    6.545 
#    6.545    1.818    0.000    0.000    0.000    0.000 
#    0.000    0.000    0.000    0.000    0.000    0.000 
#
# Total GULP energy -122804.251909 kJ/mol
# GULP energy per Si atom -5582.011450 kJ/mol
# Density = 2.289270 g / cm^3
# Si number density = 22.944925 Si / 1000 Ang^3
#
#
#
# Elastic Constant Matrix: (Units=GPa)
#
#
# Indices 1 2 3 4 5 6 
#
# 1 192.9066 35.2404 53.2118 0.0000 -32.2785 0.0000
# 2 35.2404 49.1501 28.1879 0.0000 -1.8417 0.0000
# 3 53.2118 28.1879 106.9652 0.0000 -41.9433 0.0000
# 4 0.0000 0.0000 0.0000 23.0213 0.0000 -6.7578
# 5 -32.2785 -1.8417 -41.9433 0.0000 35.5610 0.0000
# 6 0.0000 0.0000 0.0000 -6.7578 0.0000 1.5073
#
#
#
# Elastic Compliance Matrix: (Units=1/GPa)
#
#
# Indices 1 2 3 4 5 6 
#
# 1 0.007119 -0.005102 0.000434 0.000000 0.006709 0.000000
# 2 -0.005102 0.030478 -0.012448 0.000000 -0.017734 0.000000
# 3 0.000434 -0.012448 0.022911 0.000000 0.026773 0.000000
# 4 0.000000 0.000000 0.000000 -0.137438 0.000000 -0.616176
# 5 0.006709 -0.017734 0.026773 0.000000 0.064870 0.000000
# 6 0.000000 0.000000 0.000000 -0.616176 0.000000 -2.099079
#
#
# Mechanical properties :
#
#
# Convention : Reuss Voigt Hill
#
# Bulk Modulus (GPa) = 38.05569 64.70024 51.37796
# Shear Modulus (GPa) = -2.41762 27.51004 12.54621
#
# Velocity S-wave (km/s) = -1.02759 3.46636 2.34091
# Velocity P-wave (km/s) = 3.90048 6.65433 5.45407
#
# Compressibility (1/GPa) = 0.02627728
#
# Stress axis : x y z
#
# Youngs Moduli (GPa) = 140.47386 32.81062 43.64640
#
# Poissons Ratio (x) = 0.16738 -0.01893
# Poissons Ratio (y) = 0.71663 0.54330
# Poissons Ratio (z) = -0.06094 0.40842
#
# Static dielectric constant tensor:
#      x y z
#    x 1.960950 0.000000 0.026310 
#    y 0.000000 1.884170 0.000000 
#    z 0.026310 0.000000 1.862750 
# 
# From -- ./inp_files/78235.got.cif
#   From: 2010.05.17/outbox.cif.g08.bks.cpg/sg15_40_cif.got.tgz:78235.got - 2010.06.03 18:47:42.
