data_PCOD9260634
_publ_section_title
;
Structure prediction by ZEFSAII (Michael W. Deem and Ramdas Pophale) SiO2 
 PCOD9260634
Probable space group: C 2/C
;
_chemical_formula_sum "Si O2"
_cell_formula_units_Z 60
_cell_length_a 20.355851
_cell_length_b 8.877433
_cell_length_c 22.461551
_cell_angle_alpha 90.000000
_cell_angle_beta 43.349611
_cell_angle_gamma 90.000000
_cell_volume 2786.276514
_symmetry_space_group_name_H-M "C 2/C"
_symmetry_group_IT_number 15
_symmetry_cell_setting 'monoclinic'
loop_
_space_group_symop_operation_xyz
x,y,z
-x,y,1/2-z
-x,-y,-z
x,-y,1/2+z
1/2+x,1/2+y,z
1/2-x,1/2+y,1/2-z
1/2-x,1/2-y,-z
1/2+x,1/2-y,1/2+z
loop_
_atom_site_type_symbol
_atom_site_label
_atom_site_fract_x
_atom_site_fract_y
_atom_site_fract_z
Si Si1 0.928700 0.315678 0.388167
Si Si2 0.317493 0.074218 0.309635
Si Si3 0.826104 0.795947 0.501218
Si Si4 0.306973 0.019306 0.055714
Si Si5 0.216236 0.448252 0.800276
Si Si6 0.500000 0.936338 0.750000
Si Si7 0.094494 0.991151 0.151396
Si Si8 0.138412 0.287261 0.285562
O O1 0.838265 0.358754 0.487075
O O2 0.951375 0.456734 0.331049
O O3 0.914398 0.166181 0.360226
O O4 0.024822 0.295382 0.364033
O O5 0.227866 0.114859 0.410028
O O6 0.316637 0.121895 0.241010
O O7 0.410799 0.144234 0.278835
O O8 0.332125 0.891542 0.291424
O O9 0.750000 0.750000 0.500000
O O10 0.861160 0.637586 0.505206
O O11 0.897681 0.897161 0.415397
O O12 0.331154 0.080584 0.105035
O O13 0.194484 0.979755 0.122042
O O14 0.192958 0.621777 0.801708
O O15 0.321981 0.381049 0.740242
O O16 0.000000 0.951327 0.250000
#
# Coordination Sequence:
#
# PCOD9260634 Si02
#       8
#     8   8   8   8   8   4   8   8
#     4  11  22  39  66 100 132 170 231 280 337 398
#     4   9  21  38  68  92 131 177 218 272 337 400
#     4  10  22  43  60  95 136 176 222 271 334 404
#     4  11  24  40  66  98 138 178 220 282 335 405
#     4  10  21  40  65  96 130 182 220 275 332 404
#     4  10  18  38  60 100 124 166 220 284 328 398
#     4  11  23  41  65 100 136 174 226 280 341 400
#     4   9  22  40  65  95 131 179 226 271 333 402
#
# _framework density 21.534116000000001
#
# number of rings (size 3 to 8) (size 9 to 14) (size 15 to 20)
#    0.800    1.067    0.667    3.600    3.733    0.533 
#   15.600    1.333    0.000    4.800    0.000    0.000 
#    0.000    0.000    0.000    0.000    0.000    0.000 
#
# Total GULP energy -167117.053001 kJ/mol
# GULP energy per Si atom -5570.568433 kJ/mol
# Density = 2.148510 g / cm^3
# Si number density = 21.534116 Si / 1000 Ang^3
#
#
#
# Elastic Constant Matrix: (Units=GPa)
#
#
# Indices 1 2 3 4 5 6 
#
# 1 67.6877 21.4400 35.4904 0.0001 10.6193 -0.0001
# 2 21.4400 40.1294 24.9198 0.0002 -5.6009 -0.0002
# 3 35.4904 24.9198 145.7690 0.0000 19.7031 -0.0001
# 4 0.0001 0.0002 0.0000 3.0369 0.0000 -9.8847
# 5 10.6193 -5.6009 19.7031 0.0000 25.0127 0.0001
# 6 -0.0001 -0.0002 -0.0001 -9.8847 0.0001 19.8363
#
#
#
# Elastic Compliance Matrix: (Units=1/GPa)
#
#
# Indices 1 2 3 4 5 6 
#
# 1 0.020916 -0.011478 -0.001771 0.000000 -0.010055 0.000000
# 2 -0.011478 0.037288 -0.006007 0.000002 0.017954 0.000001
# 3 -0.001771 -0.006007 0.009399 0.000000 -0.007997 0.000000
# 4 0.000000 0.000002 0.000000 -0.529450 0.000001 -0.263831
# 5 -0.010055 0.017954 -0.007997 0.000001 0.054569 0.000000
# 6 0.000000 0.000001 0.000000 -0.263831 0.000000 -0.081058
#
#
# Mechanical properties :
#
#
# Convention : Reuss Voigt Hill
#
# Bulk Modulus (GPa) = 34.37525 46.36518 40.37022
# Shear Modulus (GPa) = -11.36033 21.02624 4.83295
#
# Velocity S-wave (km/s) = -2.29934 3.12815 1.49973
# Velocity P-wave (km/s) = 2.99141 5.88429 4.66762
#
# Compressibility (1/GPa) = 0.02909070
#
# Stress axis : x y z
#
# Youngs Moduli (GPa) = 47.81138 26.81836 106.39251
#
# Poissons Ratio (x) = 0.30783 0.18842
# Poissons Ratio (y) = 0.54879 0.63907
# Poissons Ratio (z) = 0.08467 0.16109
#
# Static dielectric constant tensor:
#      x y z
#    x 1.811600 0.000000 0.016740 
#    y 0.000000 1.855500 0.000000 
#    z 0.016740 0.000000 1.789450 
# 
# From -- ./inp_files/255159.got.cif
#   From: 2010.05.17/outbox.cif.g08.bks.cpg/sg15_128_cif.got.tgz:255159.got - 2010.06.03 18:47:42.
