data_PCOD9260520
_publ_section_title
;
Structure prediction by ZEFSAII (Michael W. Deem and Ramdas Pophale) SiO2 
 PCOD9260520
Probable space group: C 2/C
;
_chemical_formula_sum "Si O2"
_cell_formula_units_Z 56
_cell_length_a 23.252535
_cell_length_b 14.574333
_cell_length_c 8.417166
_cell_angle_alpha 90.000000
_cell_angle_beta 67.224906
_cell_angle_gamma 90.000000
_cell_volume 2630.090256
_symmetry_space_group_name_H-M "C 2/C"
_symmetry_group_IT_number 15
_symmetry_cell_setting 'monoclinic'
loop_
_space_group_symop_operation_xyz
x,y,z
-x,y,1/2-z
-x,-y,-z
x,-y,1/2+z
1/2+x,1/2+y,z
1/2-x,1/2+y,1/2-z
1/2-x,1/2-y,-z
1/2+x,1/2-y,1/2+z
loop_
_atom_site_type_symbol
_atom_site_label
_atom_site_fract_x
_atom_site_fract_y
_atom_site_fract_z
Si Si1 0.096730 0.382078 0.470830
Si Si2 0.527921 0.158515 0.543229
Si Si3 0.861733 0.188758 0.129761
Si Si4 0.637222 0.055767 0.574183
Si Si5 0.392353 0.678254 0.470819
Si Si6 0.274932 0.205107 0.134271
Si Si7 0.448412 0.525089 0.928384
O O1 0.114770 0.278214 0.484901
O O2 0.127633 0.448137 0.566178
O O3 0.123796 0.411185 0.267779
O O4 0.021961 0.379194 0.527601
O O5 0.500000 0.152458 0.750000
O O6 0.587120 0.094055 0.499952
O O7 0.551469 0.263420 0.509795
O O8 0.882445 0.202468 0.293816
O O9 0.786777 0.188946 0.196429
O O10 0.897405 0.099841 0.029794
O O11 0.698609 0.105898 0.445615
O O12 0.330384 0.722726 0.620673
O O13 0.410405 0.571001 0.444469
O O14 0.250000 0.250000 0.000000
O O15 0.500000 0.562477 0.750000
O O16 0.500000 0.500000 0.000000
#
# Coordination Sequence:
#
# PCOD9260520 Si02
#       7
#     8   8   8   8   8   8   8
#     4  11  20  35  59  86 120 158 197 251 315 369
#     4   9  15  31  55  83 111 154 196 238 300 371
#     4  11  21  39  63  87 125 166 212 263 308 382
#     4  10  20  34  58  89 116 155 206 249 300 378
#     4  10  18  37  65  88 119 168 214 254 316 398
#     4   9  18  38  63  90 113 168 218 243 311 388
#     4  12  24  39  64  99 128 165 218 269 329 378
#
# _framework density 21.292045000000002
#
# number of rings (size 3 to 8) (size 9 to 14) (size 15 to 20)
#    0.000    1.714    7.143    1.714    0.000    1.143 
#    0.000    6.429    0.000    1.714    0.000    0.000 
#    0.000    0.000    0.000    0.000    0.000    0.000 
#
# Total GULP energy -155892.190034 kJ/mol
# GULP energy per Si atom -5567.578216 kJ/mol
# Density = 2.124358 g / cm^3
# Si number density = 21.292045 Si / 1000 Ang^3
#
#
#
# Elastic Constant Matrix: (Units=GPa)
#
#
# Indices 1 2 3 4 5 6 
#
# 1 53.8946 14.4027 8.9805 0.0000 -17.1374 0.0000
# 2 14.4027 137.3792 6.9572 0.0000 -5.3197 0.0000
# 3 8.9805 6.9572 35.9037 0.0000 -11.9384 0.0000
# 4 0.0000 0.0000 0.0000 23.0203 0.0000 -0.4083
# 5 -17.1374 -5.3197 -11.9384 0.0000 17.4044 0.0000
# 6 0.0000 0.0000 0.0000 -0.4083 0.0000 39.0741
#
#
#
# Elastic Compliance Matrix: (Units=1/GPa)
#
#
# Indices 1 2 3 4 5 6 
#
# 1 0.027719 -0.001945 0.003007 0.000000 0.028762 0.000000
# 2 -0.001945 0.007524 -0.001093 0.000000 -0.000365 0.000000
# 3 0.003007 -0.001093 0.036513 0.000000 0.027673 0.000000
# 4 0.000000 0.000000 0.000000 0.043448 0.000000 0.000454
# 5 0.028762 -0.000365 0.027673 0.000000 0.104649 0.000000
# 6 0.000000 0.000000 0.000000 0.000454 0.000000 0.025597
#
#
# Mechanical properties :
#
#
# Convention : Reuss Voigt Hill
#
# Bulk Modulus (GPa) = 13.94766 31.98425 22.96596
# Shear Modulus (GPa) = 18.55911 29.02224 23.79067
#
# Velocity S-wave (km/s) = 2.95557 3.69596 3.34631
# Velocity P-wave (km/s) = 4.26756 5.76783 5.07345
#
# Compressibility (1/GPa) = 0.07169659
#
# Stress axis : x y z
#
# Youngs Moduli (GPa) = 36.07619 132.90422 27.38714
#
# Poissons Ratio (x) = 0.25844 -0.08236
# Poissons Ratio (y) = 0.07015 0.02993
# Poissons Ratio (z) = -0.10849 0.14524
#
# Static dielectric constant tensor:
#      x y z
#    x 1.843800 0.000000 -0.045780 
#    y 0.000000 1.841210 0.000000 
#    z -0.045780 0.000000 1.792980 
# 
# From -- ./inp_files/61799.got.cif
#   From: 2010.05.17/outbox.cif.g08.bks.cpg/sg15_31_cif.got.tgz:61799.got - 2010.06.03 18:47:42.
