data_PCOD9260709
_publ_section_title
;
Structure prediction by ZEFSAII (Michael W. Deem and Ramdas Pophale) SiO2 
 PCOD9260709
Probable space group: C 2/C
;
_chemical_formula_sum "Si O2"
_cell_formula_units_Z 48
_cell_length_a 15.843006
_cell_length_b 8.745114
_cell_length_c 22.335183
_cell_angle_alpha 90.000000
_cell_angle_beta 52.109815
_cell_angle_gamma 90.000000
_cell_volume 2442.158050
_symmetry_space_group_name_H-M "C 2/C"
_symmetry_group_IT_number 15
_symmetry_cell_setting 'monoclinic'
loop_
_space_group_symop_operation_xyz
x,y,z
-x,y,1/2-z
-x,-y,-z
x,-y,1/2+z
1/2+x,1/2+y,z
1/2-x,1/2+y,1/2-z
1/2-x,1/2-y,-z
1/2+x,1/2-y,1/2+z
loop_
_atom_site_type_symbol
_atom_site_label
_atom_site_fract_x
_atom_site_fract_y
_atom_site_fract_z
Si Si1 0.000000 0.933150 0.250000
Si Si2 0.034170 0.167894 0.007065
Si Si3 0.987322 0.182682 0.340595
Si Si4 0.000000 0.557979 0.750000
Si Si5 0.354925 0.815008 0.873979
Si Si6 0.758581 0.320235 0.562793
Si Si7 0.137446 0.342385 0.490219
O O1 0.090802 0.827857 0.182132
O O2 0.957962 0.037386 0.213785
O O3 0.962506 0.297130 0.006614
O O4 0.016549 0.177635 0.086509
O O5 0.158333 0.208473 0.940477
O O6 0.000000 0.000000 0.000000
O O7 0.032654 0.336344 0.291879
O O8 0.865761 0.173335 0.366799
O O9 0.098806 0.457306 0.682999
O O10 0.229081 0.782500 0.934120
O O11 0.391493 0.826882 0.927145
O O12 0.750000 0.250000 0.500000
O O13 0.811640 0.488846 0.539524
#
# Coordination Sequence:
#
# PCOD9260709 Si02
#       7
#     4   8   8   4   8   8   8
#     4  10  18  38  62  84 122 166 212 252 302 388
#     4  11  24  37  63  98 130 158 210 271 316 359
#     4  10  21  40  63  88 125 170 210 246 317 378
#     4  10  22  38  66  86 130 168 212 244 312 392
#     4  10  21  36  65  96 118 164 212 258 310 374
#     4  10  21  38  63  90 124 161 207 255 311 368
#     4  11  22  39  65  95 128 156 215 265 317 364
#
# _framework density 19.654748000000001
#
# number of rings (size 3 to 8) (size 9 to 14) (size 15 to 20)
#    0.000    1.667    1.667    3.500    9.333    0.000 
#    0.000    1.667   14.667    0.000    0.000    0.000 
#    0.000    0.000    0.000    0.000    0.000    0.000 
#
# Total GULP energy -133856.757782 kJ/mol
# GULP energy per Si atom -5577.364908 kJ/mol
# Density = 1.961001 g / cm^3
# Si number density = 19.654748 Si / 1000 Ang^3
#
#
#
# Elastic Constant Matrix: (Units=GPa)
#
#
# Indices 1 2 3 4 5 6 
#
# 1 107.4578 37.4934 34.2156 0.0000 1.9632 0.0000
# 2 37.4934 121.1055 39.9827 0.0000 3.9684 0.0001
# 3 34.2156 39.9827 115.7167 0.0000 7.5679 0.0000
# 4 0.0000 0.0000 0.0000 31.1398 0.0000 -7.5466
# 5 1.9632 3.9684 7.5679 0.0000 15.0815 0.0000
# 6 0.0000 0.0001 0.0000 -7.5466 0.0000 17.1793
#
#
#
# Elastic Compliance Matrix: (Units=1/GPa)
#
#
# Indices 1 2 3 4 5 6 
#
# 1 0.010968 -0.002630 -0.002364 0.000000 0.000450 0.000000
# 2 -0.002630 0.009962 -0.002601 0.000000 -0.000974 0.000000
# 3 -0.002364 -0.002601 0.010520 0.000000 -0.004287 0.000000
# 4 0.000000 0.000000 0.000000 0.035939 0.000000 0.015787
# 5 0.000450 -0.000974 -0.004287 0.000000 0.068655 0.000000
# 6 0.000000 0.000000 0.000000 0.015787 0.000000 0.065145
#
#
# Mechanical properties :
#
#
# Convention : Reuss Voigt Hill
#
# Bulk Modulus (GPa) = 61.49810 63.07370 62.28590
# Shear Modulus (GPa) = 22.54301 28.18601 25.36451
#
# Velocity S-wave (km/s) = 3.39034 3.79100 3.59625
# Velocity P-wave (km/s) = 6.83249 7.16399 7.00020
#
# Compressibility (1/GPa) = 0.01626066
#
# Stress axis : x y z
#
# Youngs Moduli (GPa) = 91.17391 100.38114 95.05957
#
# Poissons Ratio (x) = 0.26400 0.22470
# Poissons Ratio (y) = 0.23979 0.24723
# Poissons Ratio (z) = 0.21552 0.26107
#
# Static dielectric constant tensor:
#      x y z
#    x 1.680430 0.000000 -0.023380 
#    y 0.000000 1.771980 0.000000 
#    z -0.023380 0.000000 1.713820 
# 
# From -- ./inp_files/276213.got.cif
#   From: 2010.05.17/outbox.cif.g08.bks.cpg/sg15_139_cif.got.tgz:276213.got - 2010.06.03 18:47:42.
