data_PCOD9260521
_publ_section_title
;
Structure prediction by ZEFSAII (Michael W. Deem and Ramdas Pophale) SiO2 
 PCOD9260521
Probable space group: C 2/C
;
_chemical_formula_sum "Si O2"
_cell_formula_units_Z 64
_cell_length_a 7.986458
_cell_length_b 27.565653
_cell_length_c 18.628775
_cell_angle_alpha 90.000000
_cell_angle_beta 137.106483
_cell_angle_gamma 90.000000
_cell_volume 2791.405771
_symmetry_space_group_name_H-M "C 2/C"
_symmetry_group_IT_number 15
_symmetry_cell_setting 'monoclinic'
loop_
_space_group_symop_operation_xyz
x,y,z
-x,y,1/2-z
-x,-y,-z
x,-y,1/2+z
1/2+x,1/2+y,z
1/2-x,1/2+y,1/2-z
1/2-x,1/2-y,-z
1/2+x,1/2-y,1/2+z
loop_
_atom_site_type_symbol
_atom_site_label
_atom_site_fract_x
_atom_site_fract_y
_atom_site_fract_z
Si Si1 0.286879 0.485361 0.245424
Si Si2 0.518983 0.183751 0.928556
Si Si3 0.751599 0.864683 0.873311
Si Si4 0.981826 0.430105 0.038877
Si Si5 0.475427 0.416777 0.822300
Si Si6 0.992789 0.224997 0.990710
Si Si7 0.920420 0.919143 0.067728
Si Si8 0.267599 0.324958 0.296522
O O1 0.500000 0.480725 0.250000
O O2 0.263943 0.542385 0.253336
O O3 0.377833 0.459838 0.347396
O O4 0.060544 0.459107 0.134869
O O5 0.530704 0.127023 0.947769
O O6 0.472445 0.219238 0.979979
O O7 0.295807 0.189505 0.803199
O O8 0.763416 0.203445 0.965499
O O9 0.500000 0.869399 0.750000
O O10 0.938067 0.874836 0.867046
O O11 0.789056 0.811908 0.920207
O O12 0.828837 0.903720 0.959512
O O13 0.183804 0.433701 0.039917
O O14 0.720844 0.444828 0.924265
O O15 0.500000 0.397207 0.750000
O O16 0.902251 0.217176 0.881950
O O17 0.055652 0.871178 0.141297
O O18 0.000000 0.335954 0.250000
#
# Coordination Sequence:
#
# PCOD9260521 Si02
#       8
#     8   8   8   8   8   8   8   8
#     4   9  21  38  63  93 120 155 205 260 305 362
#     4  10  18  37  65  88 120 163 209 250 297 371
#     4  11  23  42  58  85 131 167 195 251 319 368
#     4  11  21  40  66  93 120 163 209 256 303 362
#     4  11  24  42  63  89 121 162 208 253 313 370
#     4   9  20  38  57  92 122 157 210 253 302 361
#     4  10  21  38  62  90 124 157 208 255 304 365
#     4   9  18  35  60  87 123 162 196 253 305 351
#
# _framework density 22.927515
#
# number of rings (size 3 to 8) (size 9 to 14) (size 15 to 20)
#    0.000    2.000    2.500    0.750    0.000    6.000 
#    6.750    1.875    0.000    0.000    0.000    0.000 
#    0.000    0.000    0.000    0.000    0.000    0.000 
#
# Total GULP energy -178663.458465 kJ/mol
# GULP energy per Si atom -5583.233077 kJ/mol
# Density = 2.287533 g / cm^3
# Si number density = 22.927515 Si / 1000 Ang^3
#
#
#
# Elastic Constant Matrix: (Units=GPa)
#
#
# Indices 1 2 3 4 5 6 
#
# 1 20.2645 -5.0356 23.5240 0.0000 7.3693 0.0000
# 2 -5.0356 81.3597 35.1608 0.0000 -16.5071 0.0000
# 3 23.5240 35.1608 158.5409 0.0000 -5.4013 0.0000
# 4 0.0000 0.0000 0.0000 2.7696 0.0000 -6.4001
# 5 7.3693 -16.5071 -5.4013 0.0000 23.7347 0.0000
# 6 0.0000 0.0000 0.0000 -6.4001 0.0000 19.6667
#
#
#
# Elastic Compliance Matrix: (Units=1/GPa)
#
#
# Indices 1 2 3 4 5 6 
#
# 1 0.073771 0.005731 -0.012962 0.000000 -0.021869 0.000000
# 2 0.005731 0.016166 -0.004145 0.000000 0.008521 0.000000
# 3 -0.012962 -0.004145 0.009261 0.000000 0.003249 0.000000
# 4 0.000000 0.000000 0.000000 1.456024 0.000002 0.473834
# 5 -0.021869 0.008521 0.003249 0.000002 0.055588 0.000001
# 6 0.000000 0.000000 0.000000 0.473834 0.000001 0.205047
#
#
# Mechanical properties :
#
#
# Convention : Reuss Voigt Hill
#
# Bulk Modulus (GPa) = 13.08132 40.82927 26.95529
# Shear Modulus (GPa) = 2.68227 23.00192 12.84209
#
# Velocity S-wave (km/s) = 1.08279 3.17084 2.36925
# Velocity P-wave (km/s) = 2.69836 5.59037 4.38939
#
# Compressibility (1/GPa) = 0.07644491
#
# Stress axis : x y z
#
# Youngs Moduli (GPa) = 13.55538 61.85835 107.98170
#
# Poissons Ratio (x) = -0.35449 1.39967
# Poissons Ratio (y) = -0.07768 0.44761
# Poissons Ratio (z) = 0.17571 0.25642
#
# Static dielectric constant tensor:
#      x y z
#    x 1.936020 0.000000 0.061580 
#    y 0.000000 1.828330 0.000000 
#    z 0.061580 0.000000 1.861530 
# 
# From -- ./inp_files/194264.got.cif
#   From: 2010.05.17/outbox.cif.g08.bks.cpg/sg15_98_cif.got.tgz:194264.got - 2010.06.03 18:47:42.
