data_PCOD9260321
_publ_section_title
;
Structure prediction by ZEFSAII (Michael W. Deem and Ramdas Pophale) SiO2 
 PCOD9260321
Probable space group: C 2/C
;
_chemical_formula_sum "Si O2"
_cell_formula_units_Z 48
_cell_length_a 9.943450
_cell_length_b 20.178861
_cell_length_c 12.089099
_cell_angle_alpha 90.000000
_cell_angle_beta 99.200820
_cell_angle_gamma 90.000000
_cell_volume 2394.439000
_symmetry_space_group_name_H-M "C 2/C"
_symmetry_group_IT_number 15
_symmetry_cell_setting 'monoclinic'
loop_
_space_group_symop_operation_xyz
x,y,z
-x,y,1/2-z
-x,-y,-z
x,-y,1/2+z
1/2+x,1/2+y,z
1/2-x,1/2+y,1/2-z
1/2-x,1/2-y,-z
1/2+x,1/2-y,1/2+z
loop_
_atom_site_type_symbol
_atom_site_label
_atom_site_fract_x
_atom_site_fract_y
_atom_site_fract_z
Si Si1 0.722037 0.440746 0.812114
Si Si2 0.629288 0.426260 0.348929
Si Si3 0.967107 0.760789 0.569475
Si Si4 0.951697 0.911002 0.917465
Si Si5 0.686284 0.202281 0.155144
Si Si6 0.752724 0.720065 0.875945
O O1 0.744288 0.518858 0.834044
O O2 0.591882 0.429036 0.875075
O O3 0.668881 0.430998 0.680523
O O4 0.819291 0.378013 0.847948
O O5 0.500000 0.433013 0.250000
O O6 0.572605 0.438139 0.464498
O O7 0.685775 0.351829 0.355119
O O8 0.833746 0.773822 0.626166
O O9 0.919402 0.734556 0.443858
O O10 0.039025 0.831946 0.571427
O O11 0.086081 0.714465 0.630945
O O12 0.681726 0.231093 0.277994
O O13 0.750000 0.750000 0.000000
#
# Coordination Sequence:
#
# PCOD9260321 Si02
#       6
#     8   8   8   8   8   8
#     4  10  20  35  60  81 114 157 189 246 287 349
#     4  12  23  34  56  92 118 149 192 249 299 348
#     4  10  20  38  62  85 112 158 198 241 283 354
#     4  10  18  37  55  82 119 143 190 241 293 340
#     4  10  21  39  62  84 113 160 206 230 293 356
#     4  12  23  36  58  88 126 150 189 251 296 351
#
# _framework density 20.046448999999999
#
# number of rings (size 3 to 8) (size 9 to 14) (size 15 to 20)
#    0.000    1.333    5.000    2.000    0.000    0.000 
#    0.000    0.833    0.000    0.000    4.333    0.000 
#    0.000    0.000    0.000    0.000    0.000    0.000 
#
# Total GULP energy -133893.295523 kJ/mol
# GULP energy per Si atom -5578.887313 kJ/mol
# Density = 2.000082 g / cm^3
# Si number density = 20.046449 Si / 1000 Ang^3
#
#
#
# Elastic Constant Matrix: (Units=GPa)
#
#
# Indices 1 2 3 4 5 6 
#
# 1 26.4713 8.4459 5.3254 0.0000 2.4677 0.0000
# 2 8.4459 139.0020 47.9322 0.0000 -2.4499 0.0000
# 3 5.3254 47.9322 142.5670 0.0000 -4.3983 0.0000
# 4 0.0000 0.0000 0.0000 -18.2045 0.0000 14.3225
# 5 2.4677 -2.4499 -4.3983 0.0000 13.9021 0.0000
# 6 0.0000 0.0000 0.0000 14.3225 0.0000 21.5321
#
#
#
# Elastic Compliance Matrix: (Units=1/GPa)
#
#
# Indices 1 2 3 4 5 6 
#
# 1 0.039388 -0.002194 -0.000971 0.000000 -0.007686 0.000000
# 2 -0.002194 0.008264 -0.002666 0.000000 0.001002 0.000000
# 3 -0.000971 -0.002666 0.008016 0.000000 0.002239 0.000000
# 4 0.000000 0.000000 0.000000 -0.036060 0.000000 0.023986
# 5 -0.007686 0.001002 0.002239 0.000000 0.074181 0.000000
# 6 0.000000 0.000000 0.000000 0.023986 0.000000 0.030487
#
#
# Mechanical properties :
#
#
# Convention : Reuss Voigt Hill
#
# Bulk Modulus (GPa) = 22.72326 47.93857 35.33092
# Shear Modulus (GPa) = 33.19905 19.86839 26.53372
#
# Velocity S-wave (km/s) = 4.07394 3.15162 3.64209
# Velocity P-wave (km/s) = 5.78699 6.09994 5.94552
#
# Compressibility (1/GPa) = 0.04400777
#
# Stress axis : x y z
#
# Youngs Moduli (GPa) = 25.38814 121.00213 124.75382
#
# Poissons Ratio (x) = 0.26548 0.12111
# Poissons Ratio (y) = 0.05570 0.33255
# Poissons Ratio (z) = 0.02465 0.32255
#
# Static dielectric constant tensor:
#      x y z
#    x 1.741180 0.000000 -0.029300 
#    y 0.000000 1.785990 0.000000 
#    z -0.029300 0.000000 1.707220 
# 
# From -- ./inp_files/87472.got.cif
#   From: 2010.05.17/outbox.cif.g08.bks.cpg/sg15_44_cif.got.tgz:87472.got - 2010.06.03 18:47:42.
