data_PCOD9260051
_publ_section_title
;
Structure prediction by ZEFSAII (Michael W. Deem and Ramdas Pophale) SiO2 
 PCOD9260051
Probable space group: C 2/C
;
_chemical_formula_sum "Si O2"
_cell_formula_units_Z 64
_cell_length_a 7.813760
_cell_length_b 13.619099
_cell_length_c 26.420753
_cell_angle_alpha 90.000000
_cell_angle_beta 106.713186
_cell_angle_gamma 90.000000
_cell_volume 2692.828342
_symmetry_space_group_name_H-M "C 2/C"
_symmetry_group_IT_number 15
_symmetry_cell_setting 'monoclinic'
loop_
_space_group_symop_operation_xyz
x,y,z
-x,y,1/2-z
-x,-y,-z
x,-y,1/2+z
1/2+x,1/2+y,z
1/2-x,1/2+y,1/2-z
1/2-x,1/2-y,-z
1/2+x,1/2-y,1/2+z
loop_
_atom_site_type_symbol
_atom_site_label
_atom_site_fract_x
_atom_site_fract_y
_atom_site_fract_z
Si Si1 0.147882 0.108965 0.092062
Si Si2 0.859846 0.633763 0.829259
Si Si3 0.672749 0.458903 0.228751
Si Si4 0.677231 0.156597 0.298434
Si Si5 0.452844 0.574968 0.622350
Si Si6 0.737730 0.584441 0.986605
Si Si7 0.373993 0.219610 0.579831
Si Si8 0.629240 0.870995 0.526541
O O1 0.324052 0.123703 0.142025
O O2 0.046435 0.212952 0.080762
O O3 0.168513 0.069579 0.037240
O O4 0.021208 0.032069 0.110498
O O5 0.841198 0.574454 0.776030
O O6 0.778050 0.739936 0.808491
O O7 0.727728 0.584934 0.859724
O O8 0.053634 0.649238 0.870310
O O9 0.500000 0.451828 0.250000
O O10 0.707172 0.571058 0.217299
O O11 0.612069 0.395745 0.174525
O O12 0.500000 0.166228 0.250000
O O13 0.405038 0.626854 0.565233
O O14 0.811250 0.484148 0.966518
O O15 0.918387 0.644501 0.009749
O O16 0.314532 0.159805 0.525605
O O17 0.223817 0.301495 0.575264
#
# Coordination Sequence:
#
# PCOD9260051 Si02
#       8
#     8   8   8   8   8   8   8   8
#     4  10  22  37  61  88 123 164 209 266 307 376
#     4  10  20  39  66  87 118 169 206 262 320 384
#     4   9  20  38  66  87 113 162 212 253 320 381
#     4  10  21  40  59  91 122 151 206 265 316 378
#     4  10  18  36  61  90 116 165 213 252 310 385
#     4  11  21  38  60  89 127 169 211 253 318 380
#     4  10  20  38  56  87 125 159 207 264 310 373
#     4  10  22  36  56  87 127 163 209 254 314 377
#
# _framework density 23.766832000000001
#
# number of rings (size 3 to 8) (size 9 to 14) (size 15 to 20)
#    0.000    2.000    2.500    1.500    0.000    1.500 
#    2.250    0.625    0.000    7.500    0.000    0.000 
#    0.000    0.000    0.000    0.000    0.000    0.000 
#
# Total GULP energy -178524.060762 kJ/mol
# GULP energy per Si atom -5578.876899 kJ/mol
# Density = 2.371274 g / cm^3
# Si number density = 23.766832 Si / 1000 Ang^3
#
#
#
# Elastic Constant Matrix: (Units=GPa)
#
#
# Indices 1 2 3 4 5 6 
#
# 1 36.6084 20.0256 34.8204 0.0000 -0.3262 0.0000
# 2 20.0256 47.3841 31.7056 0.0000 -14.6847 0.0000
# 3 34.8204 31.7056 172.3985 0.0000 15.3690 0.0000
# 4 0.0000 0.0000 0.0000 26.3027 0.0000 7.1120
# 5 -0.3262 -14.6847 15.3690 0.0000 23.8860 0.0000
# 6 0.0000 0.0000 0.0000 7.1120 0.0000 22.7662
#
#
#
# Elastic Compliance Matrix: (Units=1/GPa)
#
#
# Indices 1 2 3 4 5 6 
#
# 1 0.040392 -0.015839 -0.004696 0.000000 -0.006164 0.000000
# 2 -0.015839 0.042009 -0.007224 0.000000 0.030259 0.000000
# 3 -0.004696 -0.007224 0.008995 0.000000 -0.010293 0.000000
# 4 0.000000 0.000000 0.000000 0.041527 0.000000 -0.012973
# 5 -0.006164 0.030259 -0.010293 0.000000 0.067007 0.000000
# 6 0.000000 0.000000 0.000000 -0.012973 0.000000 0.047977
#
#
# Mechanical properties :
#
#
# Convention : Reuss Voigt Hill
#
# Bulk Modulus (GPa) = 27.87188 47.72159 37.79673
# Shear Modulus (GPa) = 15.85367 25.91361 20.88364
#
# Velocity S-wave (km/s) = 2.58553 3.30559 2.96748
# Velocity P-wave (km/s) = 4.54599 5.88998 5.26108
#
# Compressibility (1/GPa) = 0.03587846
#
# Stress axis : x y z
#
# Youngs Moduli (GPa) = 24.75751 23.80423 111.17060
#
# Poissons Ratio (x) = 0.37703 0.52203
# Poissons Ratio (y) = 0.39213 0.80313
# Poissons Ratio (z) = 0.11625 0.17197
#
# Static dielectric constant tensor:
#      x y z
#    x 1.901610 0.000000 0.044270 
#    y 0.000000 1.919680 0.000000 
#    z 0.044270 0.000000 1.991710 
# 
# From -- ./inp_files/288842.got.cif
#   From: 2010.05.17/outbox.cif.g08.bks.cpg/sg15_145_cif.got.tgz:288842.got - 2010.06.03 18:47:42.
