data_PCOD9260593
_publ_section_title
;
Structure prediction by ZEFSAII (Michael W. Deem and Ramdas Pophale) SiO2 
 PCOD9260593
Probable space group: C 2/C
;
_chemical_formula_sum "Si O2"
_cell_formula_units_Z 56
_cell_length_a 17.471777
_cell_length_b 13.605779
_cell_length_c 9.772726
_cell_angle_alpha 90.000000
_cell_angle_beta 75.994509
_cell_angle_gamma 90.000000
_cell_volume 2254.083251
_symmetry_space_group_name_H-M "C 2/C"
_symmetry_group_IT_number 15
_symmetry_cell_setting 'monoclinic'
loop_
_space_group_symop_operation_xyz
x,y,z
-x,y,1/2-z
-x,-y,-z
x,-y,1/2+z
1/2+x,1/2+y,z
1/2-x,1/2+y,1/2-z
1/2-x,1/2-y,-z
1/2+x,1/2-y,1/2+z
loop_
_atom_site_type_symbol
_atom_site_label
_atom_site_fract_x
_atom_site_fract_y
_atom_site_fract_z
Si Si1 0.143594 0.131954 0.360190
Si Si2 0.428107 0.943073 0.936120
Si Si3 0.184305 0.624829 0.237769
Si Si4 0.842597 0.831389 0.340170
Si Si5 0.819367 0.640382 0.710364
Si Si6 0.908461 0.656585 0.946488
Si Si7 0.000000 0.173610 0.250000
Si Si8 0.000000 0.734819 0.250000
O O1 0.227333 0.090998 0.271946
O O2 0.142656 0.113896 0.523329
O O3 0.152935 0.249808 0.343177
O O4 0.066188 0.111465 0.303346
O O5 0.372563 0.943932 0.824048
O O6 0.477203 0.843109 0.880298
O O7 0.460849 0.055207 0.926054
O O8 0.369568 0.928636 0.088281
O O9 0.189211 0.718504 0.132646
O O10 0.141507 0.659990 0.393183
O O11 0.773125 0.874732 0.278573
O O12 0.928557 0.806478 0.244041
O O13 0.843158 0.640493 0.857316
O O14 0.957668 0.751548 0.876620
#
# Coordination Sequence:
#
# PCOD9260593 Si02
#       8
#     8   8   8   8   8   8   4   4
#     4  10  18  38  55  76 111 148 188 237 278 326
#     4  11  20  37  56  81 117 156 186 216 274 349
#     4  10  20  36  59  77 103 158 199 226 265 325
#     4  10  19  35  58  78 107 147 195 233 273 331
#     4  10  19  37  55  74 112 153 190 234 266 315
#     4  11  24  35  52  87 121 149 186 222 279 346
#     4  10  25  34  52  84 129 142 164 244 304 324
#     4  10  21  30  60  88 107 146 186 226 282 336
#
# _framework density 24.843802
#
# number of rings (size 3 to 8) (size 9 to 14) (size 15 to 20)
#    0.000    1.714    4.286    2.143    4.000    5.143 
#    0.000    5.714    0.000    0.000    0.000    6.000 
#    0.000    0.000    0.000    0.000    0.000    0.000 
#
# Total GULP energy -156316.265604 kJ/mol
# GULP energy per Si atom -5582.723772 kJ/mol
# Density = 2.478726 g / cm^3
# Si number density = 24.843802 Si / 1000 Ang^3
#
#
#
# Elastic Constant Matrix: (Units=GPa)
#
#
# Indices 1 2 3 4 5 6 
#
# 1 181.6890 -13.1576 38.6743 0.0000 -15.5701 0.0000
# 2 -13.1576 23.3893 -1.7420 0.0000 -11.8693 0.0000
# 3 38.6743 -1.7420 147.4964 0.0000 -1.0402 0.0000
# 4 0.0000 0.0000 0.0000 15.4355 0.0000 11.2181
# 5 -15.5701 -11.8693 -1.0402 0.0000 33.5786 0.0000
# 6 0.0000 0.0000 0.0000 11.2181 0.0000 -2.6575
#
#
#
# Elastic Compliance Matrix: (Units=1/GPa)
#
#
# Indices 1 2 3 4 5 6 
#
# 1 0.006782 0.006411 -0.001665 0.000000 0.005359 0.000000
# 2 0.006411 0.058242 -0.000827 0.000000 0.023534 0.000000
# 3 -0.001665 -0.000827 0.007201 0.000000 -0.000841 0.000000
# 4 0.000000 0.000000 0.000000 0.015926 0.000000 0.067229
# 5 0.005359 0.023534 -0.000841 0.000000 0.040559 0.000000
# 6 0.000000 0.000000 0.000000 0.067229 0.000000 -0.092503
#
#
# Mechanical properties :
#
#
# Convention : Reuss Voigt Hill
#
# Bulk Modulus (GPa) = 12.49030 44.45823 28.47426
# Shear Modulus (GPa) = 90.81743 31.19133 61.00438
#
# Velocity S-wave (km/s) = 6.05266 3.54714 4.96069
# Velocity P-wave (km/s) = 7.34062 5.89154 6.65564
#
# Compressibility (1/GPa) = 0.08006213
#
# Stress axis : x y z
#
# Youngs Moduli (GPa) = 147.45435 17.16974 138.87699
#
# Poissons Ratio (x) = -0.11007 0.23119
# Poissons Ratio (y) = -0.94527 0.11486
# Poissons Ratio (z) = 0.24547 0.01420
#
# Static dielectric constant tensor:
#      x y z
#    x 2.145690 0.000000 0.056510 
#    y 0.000000 2.034150 0.000000 
#    z 0.056510 0.000000 1.985030 
# 
# From -- ./inp_files/49060.got.cif
#   From: 2010.05.17/outbox.cif.g08.bks.cpg/sg15_25_cif.got.tgz:49060.got - 2010.06.03 18:47:42.
