data_PCOD9260807
_publ_section_title
;
Structure prediction by ZEFSAII (Michael W. Deem and Ramdas Pophale) SiO2 
 PCOD9260807
Probable space group: C 2/C
;
_chemical_formula_sum "Si O2"
_cell_formula_units_Z 36
_cell_length_a 9.932943
_cell_length_b 14.996103
_cell_length_c 11.905039
_cell_angle_alpha 90.000000
_cell_angle_beta 69.796639
_cell_angle_gamma 90.000000
_cell_volume 1664.212787
_symmetry_space_group_name_H-M "C 2/C"
_symmetry_group_IT_number 15
_symmetry_cell_setting 'monoclinic'
loop_
_space_group_symop_operation_xyz
x,y,z
-x,y,1/2-z
-x,-y,-z
x,-y,1/2+z
1/2+x,1/2+y,z
1/2-x,1/2+y,1/2-z
1/2-x,1/2-y,-z
1/2+x,1/2-y,1/2+z
loop_
_atom_site_type_symbol
_atom_site_label
_atom_site_fract_x
_atom_site_fract_y
_atom_site_fract_z
Si Si1 0.000000 0.687185 0.750000
Si Si2 0.717180 0.094067 0.548171
Si Si3 0.547181 0.680823 0.857633
Si Si4 0.239433 0.169941 0.208382
Si Si5 0.136959 0.068263 0.447409
O O1 0.936946 0.627225 0.867765
O O2 0.878204 0.753313 0.740839
O O3 0.821459 0.130137 0.617947
O O4 0.766893 0.138327 0.418406
O O5 0.736802 0.988605 0.532676
O O6 0.500000 0.644772 0.750000
O O7 0.606945 0.780914 0.823432
O O8 0.413538 0.658455 0.976940
O O9 0.192590 0.093008 0.307722
O O10 0.000000 0.000000 0.500000
#
# Coordination Sequence:
#
# PCOD9260807 Si02
#       5
#     4   8   8   8   8
#     4  10  18  38  64  92 118 154 214 250 294 370
#     4  10  22  38  66  93 121 165 207 252 310 362
#     4  10  22  38  63  91 126 157 205 252 309 363
#     4  11  21  40  67  91 121 166 210 251 302 365
#     4  10  22  37  62  93 123 160 204 253 306 361
#
# _framework density 21.631848000000002
#
# number of rings (size 3 to 8) (size 9 to 14) (size 15 to 20)
#    0.000    1.778    0.000    6.667    6.222    0.889 
#    2.000    1.111    0.000    0.000    0.000    0.000 
#    0.000    0.000    0.000    0.000    0.000    0.000 
#
# Total GULP energy -100264.276194 kJ/mol
# GULP energy per Si atom -5570.237566 kJ/mol
# Density = 2.158261 g / cm^3
# Si number density = 21.631848 Si / 1000 Ang^3
#
#
#
# Elastic Constant Matrix: (Units=GPa)
#
#
# Indices 1 2 3 4 5 6 
#
# 1 46.6824 36.7068 50.9355 0.0000 7.0070 0.0000
# 2 36.7068 84.9832 54.1061 0.0000 -25.6082 0.0000
# 3 50.9355 54.1061 171.8378 0.0000 -7.4976 0.0000
# 4 0.0000 0.0000 0.0000 -98.4080 0.0000 -34.8944
# 5 7.0070 -25.6082 -7.4976 0.0000 25.8912 0.0000
# 6 0.0000 0.0000 0.0000 -34.8944 0.0000 6.1310
#
#
#
# Elastic Compliance Matrix: (Units=1/GPa)
#
#
# Indices 1 2 3 4 5 6 
#
# 1 0.097966 -0.060827 -0.013843 0.000000 -0.090684 0.000000
# 2 -0.060827 0.059132 0.002716 0.000000 0.075734 0.000000
# 3 -0.013843 0.002716 0.009468 0.000000 0.009174 0.000000
# 4 0.000000 0.000000 0.000000 -0.003367 0.000000 -0.019163
# 5 -0.090684 0.075734 0.009174 0.000000 0.140729 0.000000
# 6 0.000000 0.000000 0.000000 -0.019163 0.000000 0.054042
#
#
# Mechanical properties :
#
#
# Convention : Reuss Voigt Hill
#
# Bulk Modulus (GPa) = 44.13536 65.22225 54.67880
# Shear Modulus (GPa) = 9.81486 -2.49350 3.66068
#
# Velocity S-wave (km/s) = 2.13239 -1.07480 1.30228
# Velocity P-wave (km/s) = 5.14879 5.35502 5.25291
#
# Compressibility (1/GPa) = 0.02265757
#
# Stress axis : x y z
#
# Youngs Moduli (GPa) = 10.20761 16.91119 105.62010
#
# Poissons Ratio (x) = 1.02866 1.46209
# Poissons Ratio (y) = 0.62090 -0.28684
# Poissons Ratio (z) = 0.14130 -0.04593
#
# Static dielectric constant tensor:
#      x y z
#    x 1.870190 0.000000 -0.031690 
#    y 0.000000 1.929400 0.000000 
#    z -0.031690 0.000000 1.806960 
# 
# From -- ./inp_files/77014.got.cif
#   From: 2010.05.17/outbox.cif.g08.bks.cpg/sg15_39_cif.got.tgz:77014.got - 2010.06.03 18:47:42.
