data_PCOD9260496
_publ_section_title
;
Structure prediction by ZEFSAII (Michael W. Deem and Ramdas Pophale) SiO2 
 PCOD9260496
Probable space group: C 2/C
;
_chemical_formula_sum "Si O2"
_cell_formula_units_Z 60
_cell_length_a 16.629290
_cell_length_b 9.611765
_cell_length_c 19.349412
_cell_angle_alpha 90.000000
_cell_angle_beta 118.894036
_cell_angle_gamma 90.000000
_cell_volume 2707.747284
_symmetry_space_group_name_H-M "C 2/C"
_symmetry_group_IT_number 15
_symmetry_cell_setting 'monoclinic'
loop_
_space_group_symop_operation_xyz
x,y,z
-x,y,1/2-z
-x,-y,-z
x,-y,1/2+z
1/2+x,1/2+y,z
1/2-x,1/2+y,1/2-z
1/2-x,1/2-y,-z
1/2+x,1/2-y,1/2+z
loop_
_atom_site_type_symbol
_atom_site_label
_atom_site_fract_x
_atom_site_fract_y
_atom_site_fract_z
Si Si1 0.500000 0.767227 0.750000
Si Si2 0.958571 0.529042 0.355918
Si Si3 0.379860 0.850147 0.057808
Si Si4 0.329330 0.408659 0.145752
Si Si5 0.146799 0.613265 0.802906
Si Si6 0.764322 0.649198 0.305395
Si Si7 0.766604 0.138778 0.368436
Si Si8 0.169068 0.948905 0.992322
O O1 0.588627 0.669740 0.782059
O O2 0.499247 0.863030 0.681570
O O3 0.912180 0.406384 0.290051
O O4 0.871141 0.606274 0.353146
O O5 0.041176 0.457295 0.432119
O O6 0.396933 0.821985 0.147077
O O7 0.377355 0.701622 0.019640
O O8 0.276349 0.913464 0.015551
O O9 0.290241 0.534826 0.173850
O O10 0.251202 0.289616 0.106779
O O11 0.364797 0.465249 0.087651
O O12 0.237972 0.700780 0.824319
O O13 0.175304 0.457106 0.835041
O O14 0.725413 0.649511 0.210789
O O15 0.835534 0.047714 0.442849
#
# Coordination Sequence:
#
# PCOD9260496 Si02
#       8
#     4   8   8   8   8   8   8   8
#     4  12  22  38  62 100 134 162 222 272 324 382
#     4  11  21  38  66  97 130 170 218 276 324 385
#     4  10  19  39  63  95 125 172 224 261 313 395
#     4  12  23  41  65 102 128 170 218 277 325 393
#     4  10  18  37  64  90 125 165 215 269 317 383
#     4  11  23  39  67 100 127 165 221 277 331 375
#     4  10  20  37  62  90 125 174 204 263 324 389
#     4  10  22  38  65  91 134 176 219 255 329 400
#
# _framework density 22.158640999999999
#
# number of rings (size 3 to 8) (size 9 to 14) (size 15 to 20)
#    0.000    1.333    5.333    2.800    0.000    1.067 
#    0.000    0.667    0.000    8.800    0.000    0.000 
#    0.000    0.000    0.000    0.000    0.000    0.000 
#
# Total GULP energy -167428.677811 kJ/mol
# GULP energy per Si atom -5580.955927 kJ/mol
# Density = 2.210821 g / cm^3
# Si number density = 22.158641 Si / 1000 Ang^3
#
#
#
# Elastic Constant Matrix: (Units=GPa)
#
#
# Indices 1 2 3 4 5 6 
#
# 1 71.9559 15.2665 4.1534 0.0000 6.1460 0.0000
# 2 15.2665 82.9210 16.6616 0.0000 3.0566 0.0000
# 3 4.1534 16.6616 31.3557 0.0000 -2.8301 0.0000
# 4 0.0000 0.0000 0.0000 13.8506 0.0000 -10.1640
# 5 6.1460 3.0566 -2.8301 0.0000 26.4682 0.0000
# 6 0.0000 0.0000 0.0000 -10.1640 0.0000 27.6573
#
#
#
# Elastic Compliance Matrix: (Units=1/GPa)
#
#
# Indices 1 2 3 4 5 6 
#
# 1 0.014740 -0.002399 -0.000971 0.000000 -0.003249 0.000000
# 2 -0.002399 0.014038 -0.007308 0.000000 -0.001845 0.000000
# 3 -0.000971 -0.007308 0.036351 0.000000 0.004956 0.000000
# 4 0.000000 0.000000 0.000000 0.098859 0.000000 0.036331
# 5 -0.003249 -0.001845 0.004956 0.000000 0.039279 0.000000
# 6 0.000000 0.000000 0.000000 0.036331 0.000000 0.049508
#
#
# Mechanical properties :
#
#
# Convention : Reuss Voigt Hill
#
# Bulk Modulus (GPa) = 22.84511 28.71064 25.77787
# Shear Modulus (GPa) = 17.31766 23.60531 20.46148
#
# Velocity S-wave (km/s) = 2.79862 3.26741 3.04206
# Velocity P-wave (km/s) = 4.55798 5.21725 4.89872
#
# Compressibility (1/GPa) = 0.04377304
#
# Stress axis : x y z
#
# Youngs Moduli (GPa) = 67.84279 71.23622 27.50921
#
# Poissons Ratio (x) = 0.17089 0.02671
# Poissons Ratio (y) = 0.16275 0.20104
# Poissons Ratio (z) = 0.06588 0.52061
#
# Static dielectric constant tensor:
#      x y z
#    x 1.834820 0.000000 0.030400 
#    y 0.000000 1.794540 0.000000 
#    z 0.030400 0.000000 1.923070 
# 
# From -- ./inp_files/247853.got.cif
#   From: 2010.05.17/outbox.cif.g08.bks.cpg/sg15_124_cif.got.tgz:247853.got - 2010.06.03 18:47:42.
