data_PCOD9260241
_publ_section_title
;
Structure prediction by ZEFSAII (Michael W. Deem and Ramdas Pophale) SiO2 
 PCOD9260241
Probable space group: C 2/C
;
_chemical_formula_sum "Si O2"
_cell_formula_units_Z 44
_cell_length_a 18.365848
_cell_length_b 9.072037
_cell_length_c 19.715387
_cell_angle_alpha 90.000000
_cell_angle_beta 45.310493
_cell_angle_gamma 90.000000
_cell_volume 2335.322670
_symmetry_space_group_name_H-M "C 2/C"
_symmetry_group_IT_number 15
_symmetry_cell_setting 'monoclinic'
loop_
_space_group_symop_operation_xyz
x,y,z
-x,y,1/2-z
-x,-y,-z
x,-y,1/2+z
1/2+x,1/2+y,z
1/2-x,1/2+y,1/2-z
1/2-x,1/2-y,-z
1/2+x,1/2-y,1/2+z
loop_
_atom_site_type_symbol
_atom_site_label
_atom_site_fract_x
_atom_site_fract_y
_atom_site_fract_z
Si Si1 0.396336 0.410650 0.582257
Si Si2 0.602402 0.072458 0.963485
Si Si3 0.393213 0.866554 0.422313
Si Si4 0.000000 0.831540 0.750000
Si Si5 0.684712 0.409866 0.712642
Si Si6 0.729723 0.640428 0.910368
O O1 0.500000 0.500000 0.500000
O O2 0.403175 0.242765 0.553229
O O3 0.365306 0.428783 0.681274
O O4 0.311252 0.491378 0.592899
O O5 0.712795 0.007743 0.865812
O O6 0.500000 0.000000 0.000000
O O7 0.593154 0.020288 0.048128
O O8 0.481066 0.779678 0.325013
O O9 0.357049 0.747956 0.502096
O O10 0.306460 0.884211 0.422168
O O11 0.099345 0.925489 0.708094
O O12 0.719724 0.240344 0.680732
#
# Coordination Sequence:
#
# PCOD9260241 Si02
#       6
#     8   8   8   4   8   8
#     4  12  23  36  59  90 123 158 198 246 300 355
#     4  11  23  38  59  88 124 158 198 248 295 350
#     4   9  19  37  59  83 111 153 198 238 288 347
#     4  10  18  36  66  86 112 158 204 240 294 358
#     4  10  21  39  62  87 117 158 201 242 292 357
#     4   9  19  37  59  82 114 153 195 238 287 349
#
# _framework density 18.841079000000001
#
# number of rings (size 3 to 8) (size 9 to 14) (size 15 to 20)
#    0.000    1.818    0.000    6.545    0.000    2.182 
#    0.000    0.000    0.000    2.182    0.000    0.000 
#    0.000    0.000    0.000    0.000    0.000    0.000 
#
# Total GULP energy -122602.432521 kJ/mol
# GULP energy per Si atom -5572.837842 kJ/mol
# Density = 1.879820 g / cm^3
# Si number density = 18.841079 Si / 1000 Ang^3
#
#
#
# Elastic Constant Matrix: (Units=GPa)
#
#
# Indices 1 2 3 4 5 6 
#
# 1 89.6410 70.4616 40.2711 0.0000 -13.5441 0.0000
# 2 70.4616 132.6875 41.8689 0.0000 -8.5674 0.0000
# 3 40.2711 41.8689 128.5131 0.0000 -1.3392 0.0000
# 4 0.0000 0.0000 0.0000 19.7062 0.0000 4.6049
# 5 -13.5441 -8.5674 -1.3392 0.0000 31.0387 0.0000
# 6 0.0000 0.0000 0.0000 4.6049 0.0000 37.3800
#
#
#
# Elastic Compliance Matrix: (Units=1/GPa)
#
#
# Indices 1 2 3 4 5 6 
#
# 1 0.021450 -0.009889 -0.003432 0.000000 0.006482 0.000000
# 2 -0.009889 0.013112 -0.001181 0.000000 -0.000747 0.000000
# 3 -0.003432 -0.001181 0.009227 0.000000 -0.001426 0.000000
# 4 0.000000 0.000000 0.000000 0.052249 0.000000 -0.006437
# 5 0.006482 -0.000747 -0.001426 0.000000 0.034779 0.000000
# 6 0.000000 0.000000 0.000000 -0.006437 0.000000 0.027545
#
#
# Mechanical properties :
#
#
# Convention : Reuss Voigt Hill
#
# Bulk Modulus (GPa) = 67.63746 72.89388 70.26567
# Shear Modulus (GPa) = 26.00154 30.84097 28.42125
#
# Velocity S-wave (km/s) = 3.71893 4.05025 3.88812
# Velocity P-wave (km/s) = 7.37682 7.78752 7.58495
#
# Compressibility (1/GPa) = 0.01478471
#
# Stress axis : x y z
#
# Youngs Moduli (GPa) = 46.61908 76.26346 108.38099
#
# Poissons Ratio (x) = 0.75419 0.37200
# Poissons Ratio (y) = 0.46103 0.12798
# Poissons Ratio (z) = 0.16001 0.09005
#
# Static dielectric constant tensor:
#      x y z
#    x 1.707860 0.000000 -0.025110 
#    y 0.000000 1.625600 0.000000 
#    z -0.025110 0.000000 1.711840 
# 
# From -- ./inp_files/159213.got.cif
#   From: 2010.05.17/outbox.cif.g08.bks.cpg/sg15_80_cif.got.tgz:159213.got - 2010.06.03 18:47:42.
