data_PCOD9260556
_publ_section_title
;
Structure prediction by ZEFSAII (Michael W. Deem and Ramdas Pophale) SiO2 
 PCOD9260556
Probable space group: C 2/C
;
_chemical_formula_sum "Si O2"
_cell_formula_units_Z 40
_cell_length_a 9.687435
_cell_length_b 23.852240
_cell_length_c 13.535995
_cell_angle_alpha 90.000000
_cell_angle_beta 154.297915
_cell_angle_gamma 90.000000
_cell_volume 1356.467656
_symmetry_space_group_name_H-M "C 2/C"
_symmetry_group_IT_number 15
_symmetry_cell_setting 'monoclinic'
loop_
_space_group_symop_operation_xyz
x,y,z
-x,y,1/2-z
-x,-y,-z
x,-y,1/2+z
1/2+x,1/2+y,z
1/2-x,1/2+y,1/2-z
1/2-x,1/2-y,-z
1/2+x,1/2-y,1/2+z
loop_
_atom_site_type_symbol
_atom_site_label
_atom_site_fract_x
_atom_site_fract_y
_atom_site_fract_z
Si Si1 0.175548 0.572099 0.709094
Si Si2 0.682542 0.968607 0.972806
Si Si3 0.058893 0.768868 0.689406
Si Si4 0.158157 0.882252 0.650750
Si Si5 0.072645 0.179886 0.681059
O O1 0.890649 0.529026 0.528469
O O2 0.136009 0.637462 0.658186
O O3 0.453590 0.547373 0.816182
O O4 0.364684 0.576093 0.936536
O O5 0.500000 0.970831 0.750000
O O6 0.464712 0.918315 0.877351
O O7 0.056263 0.834605 0.660886
O O8 0.339888 0.740476 0.802351
O O9 0.752566 0.742075 0.422951
O O10 0.174857 0.849008 0.555250
O O11 0.000000 0.178465 0.750000
#
# Coordination Sequence:
#
# PCOD9260556 Si02
#       5
#     8   8   8   8   8
#     4   9  21  39  66  97 130 174 223 274 334 407
#     4  10  18  37  67  95 128 174 222 269 343 397
#     4  12  24  45  66  99 134 179 229 282 341 403
#     4   9  21  39  63  95 132 171 222 272 331 402
#     4  10  24  42  64  94 135 180 221 275 335 404
#
# _framework density 29.488353
#
# number of rings (size 3 to 8) (size 9 to 14) (size 15 to 20)
#    1.200    0.800    2.000    2.400    0.000    8.800 
#    0.000    2.000    0.000    0.000    0.000    0.000 
#    0.000    0.000    0.000    0.000    0.000    0.000 
#
# Total GULP energy -111905.224882 kJ/mol
# GULP energy per Si atom -5595.261244 kJ/mol
# Density = 2.942124 g / cm^3
# Si number density = 29.488353 Si / 1000 Ang^3
#
#
#
# Elastic Constant Matrix: (Units=GPa)
#
#
# Indices 1 2 3 4 5 6 
#
# 1 146.1494 68.8948 52.7559 0.0000 -23.6518 -0.0005
# 2 68.8948 165.7669 35.3296 0.0000 17.2825 -0.0002
# 3 52.7559 35.3296 160.9609 0.0012 4.4447 -0.0014
# 4 0.0000 0.0000 0.0012 50.9592 0.0002 -13.1036
# 5 -23.6518 17.2825 4.4447 0.0002 61.6229 -0.0011
# 6 -0.0005 -0.0002 -0.0014 -13.1036 -0.0011 47.9071
#
#
#
# Elastic Compliance Matrix: (Units=1/GPa)
#
#
# Indices 1 2 3 4 5 6 
#
# 1 0.010872 -0.004526 -0.002726 0.000000 0.005639 0.000000
# 2 -0.004526 0.008390 -0.000246 0.000000 -0.004072 0.000000
# 3 -0.002726 -0.000246 0.007201 0.000000 -0.001497 0.000000
# 4 0.000000 0.000000 0.000000 0.021108 0.000000 0.005774
# 5 0.005639 -0.004072 -0.001497 0.000000 0.019642 0.000000
# 6 0.000000 0.000000 0.000000 0.005774 0.000000 0.022453
#
#
# Mechanical properties :
#
#
# Convention : Reuss Voigt Hill
#
# Bulk Modulus (GPa) = 87.18796 87.42644 87.30720
# Shear Modulus (GPa) = 46.08950 53.15763 49.62357
#
# Velocity S-wave (km/s) = 3.95773 4.25039 4.10667
# Velocity P-wave (km/s) = 7.10746 7.33484 7.22204
#
# Compressibility (1/GPa) = 0.01146947
#
# Stress axis : x y z
#
# Youngs Moduli (GPa) = 91.97855 119.18361 138.86214
#
# Poissons Ratio (x) = 0.53937 0.37851
# Poissons Ratio (y) = 0.41625 0.03415
# Poissons Ratio (z) = 0.25071 0.02931
#
# Static dielectric constant tensor:
#      x y z
#    x 2.340000 0.000000 -0.131030 
#    y 0.000000 2.113260 0.000000 
#    z -0.131030 0.000000 2.448590 
# 
# From -- ./inp_files/148178.got.cif
#   From: 2010.05.17/outbox.cif.g08.bks.cpg/sg15_75_cif.got.tgz:148178.got - 2010.06.03 18:47:42.
