data_PCOD9260588
_publ_section_title
;
Structure prediction by ZEFSAII (Michael W. Deem and Ramdas Pophale) SiO2 
 PCOD9260588
Probable space group: C 2/C
;
_chemical_formula_sum "Si O2"
_cell_formula_units_Z 44
_cell_length_a 6.441717
_cell_length_b 18.427967
_cell_length_c 17.105107
_cell_angle_alpha 90.000000
_cell_angle_beta 54.429543
_cell_angle_gamma 90.000000
_cell_volume 1651.617448
_symmetry_space_group_name_H-M "C 2/C"
_symmetry_group_IT_number 15
_symmetry_cell_setting 'monoclinic'
loop_
_space_group_symop_operation_xyz
x,y,z
-x,y,1/2-z
-x,-y,-z
x,-y,1/2+z
1/2+x,1/2+y,z
1/2-x,1/2+y,1/2-z
1/2-x,1/2-y,-z
1/2+x,1/2-y,1/2+z
loop_
_atom_site_type_symbol
_atom_site_label
_atom_site_fract_x
_atom_site_fract_y
_atom_site_fract_z
Si Si1 0.500000 0.328951 0.250000
Si Si2 0.089550 0.333612 0.940791
Si Si3 0.482142 0.685199 0.583405
Si Si4 0.015362 0.023695 0.907128
Si Si5 0.161850 0.570604 0.281867
Si Si6 0.055819 0.566142 0.901610
O O1 0.512922 0.286983 0.327997
O O2 0.747880 0.380324 0.186269
O O3 0.157043 0.248906 0.932157
O O4 0.214678 0.374548 0.840260
O O5 0.778943 0.328084 0.993964
O O6 0.134234 0.381460 0.008603
O O7 0.363960 0.604876 0.615332
O O8 0.733575 0.035448 0.933223
O O9 0.130676 0.970995 0.816093
O O10 0.000000 0.000000 0.000000
O O11 0.010912 0.502471 0.355020
O O12 0.000000 0.609318 0.250000
#
# Coordination Sequence:
#
# PCOD9260588 Si02
#       6
#     4   8   8   8   8   8
#     4   8  14  30  58  70 102 146 174 208 274 326
#     4   9  20  31  55  84 109 135 187 236 268 317
#     4   9  17  35  52  80 112 143 176 227 285 311
#     4  10  20  37  57  80 108 149 181 218 276 336
#     4  12  21  33  54  87 108 141 188 234 268 318
#     4  10  18  38  54  78 111 149 175 221 282 327
#
# _framework density 26.640550999999999
#
# number of rings (size 3 to 8) (size 9 to 14) (size 15 to 20)
#    0.000    2.545    3.636    2.727    1.273    0.000 
#    3.273    0.000    0.000    6.545    0.000    0.000 
#    0.000    0.000    0.000    0.000    0.000    0.000 
#
# Total GULP energy -122922.144057 kJ/mol
# GULP energy per Si atom -5587.370184 kJ/mol
# Density = 2.657992 g / cm^3
# Si number density = 26.640551 Si / 1000 Ang^3
#
#
#
# Elastic Constant Matrix: (Units=GPa)
#
#
# Indices 1 2 3 4 5 6 
#
# 1 38.6655 24.3392 49.9651 0.0000 21.5094 0.0000
# 2 24.3392 154.8359 66.5963 0.0000 9.4476 0.0000
# 3 49.9651 66.5963 211.5765 0.0000 23.8233 0.0000
# 4 0.0000 0.0000 0.0000 36.5910 0.0000 11.9139
# 5 21.5094 9.4476 23.8233 0.0000 44.4041 0.0000
# 6 0.0000 0.0000 0.0000 11.9139 0.0000 35.8825
#
#
#
# Elastic Compliance Matrix: (Units=1/GPa)
#
#
# Indices 1 2 3 4 5 6 
#
# 1 0.049125 -0.002890 -0.008601 0.000000 -0.018567 0.000000
# 2 -0.002890 0.007645 -0.001807 0.000000 0.000743 0.000000
# 3 -0.008601 -0.001807 0.007252 0.000000 0.000660 0.000000
# 4 0.000000 0.000000 0.000000 0.030642 0.000000 -0.010174
# 5 -0.018567 0.000743 0.000660 0.000000 0.031002 0.000000
# 6 0.000000 0.000000 0.000000 -0.010174 0.000000 0.031247
#
#
# Mechanical properties :
#
#
# Convention : Reuss Voigt Hill
#
# Bulk Modulus (GPa) = 26.71987 76.31991 51.51989
# Shear Modulus (GPa) = 25.51225 40.98735 33.24980
#
# Velocity S-wave (km/s) = 3.09794 3.92667 3.53666
# Velocity P-wave (km/s) = 4.77995 7.01915 6.00485
#
# Compressibility (1/GPa) = 0.03742533
#
# Stress axis : x y z
#
# Youngs Moduli (GPa) = 20.35622 130.80780 137.88911
#
# Poissons Ratio (x) = 0.37802 1.18598
# Poissons Ratio (y) = 0.05883 0.24923
# Poissons Ratio (z) = 0.17508 0.23643
#
# Static dielectric constant tensor:
#      x y z
#    x 2.241090 0.000000 -0.087840 
#    y 0.000000 2.124650 0.000000 
#    z -0.087840 0.000000 2.077220 
# 
# From -- ./inp_files/191452.got.cif
#   From: 2010.05.17/outbox.cif.g08.bks.cpg/sg15_96_cif.got.tgz:191452.got - 2010.06.03 18:47:42.
