data_PCOD9260189
_publ_section_title
;
Structure prediction by ZEFSAII (Michael W. Deem and Ramdas Pophale) SiO2 
 PCOD9260189
Probable space group: C 2/C
;
_chemical_formula_sum "Si O2"
_cell_formula_units_Z 52
_cell_length_a 12.643134
_cell_length_b 28.230980
_cell_length_c 11.286173
_cell_angle_alpha 90.000000
_cell_angle_beta 140.398596
_cell_angle_gamma 90.000000
_cell_volume 2567.844179
_symmetry_space_group_name_H-M "C 2/C"
_symmetry_group_IT_number 15
_symmetry_cell_setting 'monoclinic'
loop_
_space_group_symop_operation_xyz
x,y,z
-x,y,1/2-z
-x,-y,-z
x,-y,1/2+z
1/2+x,1/2+y,z
1/2-x,1/2+y,1/2-z
1/2-x,1/2-y,-z
1/2+x,1/2-y,1/2+z
loop_
_atom_site_type_symbol
_atom_site_label
_atom_site_fract_x
_atom_site_fract_y
_atom_site_fract_z
Si Si1 0.500000 0.080744 0.750000
Si Si2 0.105475 0.362519 0.120484
Si Si3 0.171517 0.485472 0.584323
Si Si4 0.942817 0.726409 0.563781
Si Si5 0.690964 0.414986 0.383867
Si Si6 0.913401 0.822344 0.795801
Si Si7 0.765308 0.598991 0.213335
O O1 0.398143 0.113881 0.752469
O O2 0.377941 0.047410 0.569593
O O3 0.258700 0.378059 0.174135
O O4 0.066746 0.307373 0.098667
O O5 0.944462 0.385779 0.918421
O O6 0.258838 0.533124 0.618622
O O7 0.270777 0.452612 0.762153
O O8 0.000000 0.500000 0.500000
O O9 0.759403 0.704686 0.388477
O O10 0.000000 0.723374 0.750000
O O11 0.965945 0.781262 0.550599
O O12 0.500000 0.413618 0.250000
O O13 0.777441 0.403448 0.583289
O O14 0.863525 0.863123 0.844094
O O15 0.000000 0.840751 0.750000
#
# Coordination Sequence:
#
# PCOD9260189 Si02
#       7
#     4   8   8   8   8   8   8
#     4  10  18  36  64  88 110 154 220 244 294 358
#     4  10  21  39  64  89 118 164 210 248 300 370
#     4  11  21  39  65  87 117 166 208 250 303 372
#     4  10  19  35  61  92 123 160 208 254 306 361
#     4  12  26  40  59  92 125 163 201 260 314 368
#     4  10  21  37  61  93 126 164 204 259 310 360
#     4  10  23  42  62  87 125 164 208 247 310 372
#
# _framework density 20.250450000000001
#
# number of rings (size 3 to 8) (size 9 to 14) (size 15 to 20)
#    0.000    1.538    3.846    3.231    0.000    3.692 
#    0.000    0.769    0.000    0.000    0.000    0.000 
#    0.000    0.000    0.000    0.000    0.000    0.000 
#
# Total GULP energy -145306.920065 kJ/mol
# GULP energy per Si atom -5588.727695 kJ/mol
# Density = 2.020436 g / cm^3
# Si number density = 20.250450 Si / 1000 Ang^3
#
#
#
# Elastic Constant Matrix: (Units=GPa)
#
#
# Indices 1 2 3 4 5 6 
#
# 1 156.5250 59.7929 22.9136 0.0000 6.3994 0.0000
# 2 59.7929 90.6103 -0.6053 0.0000 1.1297 0.0000
# 3 22.9136 -0.6053 39.7758 0.0000 -0.8273 0.0000
# 4 0.0000 0.0000 0.0000 11.5058 0.0000 9.7508
# 5 6.3994 1.1297 -0.8273 0.0000 30.7324 0.0000
# 6 0.0000 0.0000 0.0000 9.7508 0.0000 32.9949
#
#
#
# Elastic Compliance Matrix: (Units=1/GPa)
#
#
# Indices 1 2 3 4 5 6 
#
# 1 0.009787 -0.006473 -0.005777 0.000000 -0.001956 0.000000
# 2 -0.006473 0.015323 0.003980 0.000000 0.000892 0.000000
# 3 -0.005777 0.003980 0.028567 0.000000 0.001826 0.000000
# 4 0.000000 0.000000 0.000000 0.115952 0.000000 -0.034267
# 5 -0.001956 0.000892 0.001826 0.000000 0.032963 0.000000
# 6 0.000000 0.000000 0.000000 -0.034267 0.000000 0.040434
#
#
# Mechanical properties :
#
#
# Convention : Reuss Voigt Hill
#
# Bulk Modulus (GPa) = 26.92607 50.12373 38.52490
# Shear Modulus (GPa) = 18.38611 28.70060 23.54335
#
# Velocity S-wave (km/s) = 3.01647 3.76876 3.41340
# Velocity P-wave (km/s) = 5.04554 6.61391 5.88223
#
# Compressibility (1/GPa) = 0.03713872
#
# Stress axis : x y z
#
# Youngs Moduli (GPa) = 102.17700 65.26175 35.00483
#
# Poissons Ratio (x) = 0.42241 0.20223
# Poissons Ratio (y) = 0.66134 -0.13933
# Poissons Ratio (z) = 0.59029 -0.25976
#
# Static dielectric constant tensor:
#      x y z
#    x 1.717440 0.000000 -0.006280 
#    y 0.000000 1.751790 0.000000 
#    z -0.006280 0.000000 1.795320 
# 
# From -- ./inp_files/92650.got.cif
#   From: 2010.05.17/outbox.cif.g08.bks.cpg/sg15_47_cif.got.tgz:92650.got - 2010.06.03 18:47:42.
