data_PCOD9260153
_publ_section_title
;
Structure prediction by ZEFSAII (Michael W. Deem and Ramdas Pophale) SiO2 
 PCOD9260153
Probable space group: C 2/C
;
_chemical_formula_sum "Si O2"
_cell_formula_units_Z 44
_cell_length_a 12.427660
_cell_length_b 21.154217
_cell_length_c 8.161212
_cell_angle_alpha 90.000000
_cell_angle_beta 61.135828
_cell_angle_gamma 90.000000
_cell_volume 1879.011058
_symmetry_space_group_name_H-M "C 2/C"
_symmetry_group_IT_number 15
_symmetry_cell_setting 'monoclinic'
loop_
_space_group_symop_operation_xyz
x,y,z
-x,y,1/2-z
-x,-y,-z
x,-y,1/2+z
1/2+x,1/2+y,z
1/2-x,1/2+y,1/2-z
1/2-x,1/2-y,-z
1/2+x,1/2-y,1/2+z
loop_
_atom_site_type_symbol
_atom_site_label
_atom_site_fract_x
_atom_site_fract_y
_atom_site_fract_z
Si Si1 0.139177 0.857787 0.682383
Si Si2 0.131165 0.473699 0.713083
Si Si3 0.797990 0.665587 0.373966
Si Si4 0.189417 0.997524 0.182645
Si Si5 0.144253 0.134425 0.814732
Si Si6 0.500000 0.270949 0.250000
O O1 0.213861 0.824453 0.773520
O O2 0.199592 0.855883 0.455115
O O3 0.000000 0.836703 0.750000
O O4 0.136216 0.932437 0.732059
O O5 0.126417 0.397872 0.726664
O O6 0.268498 0.485504 0.535165
O O7 0.168063 0.505309 0.857374
O O8 0.000000 0.498117 0.750000
O O9 0.729363 0.650525 0.595545
O O10 0.884839 0.724646 0.344188
O O11 0.112588 0.939100 0.307905
O O12 0.029190 0.180808 0.875512
#
# Coordination Sequence:
#
# PCOD9260153 Si02
#       6
#     8   8   8   8   8   4
#     4  11  24  43  69 100 140 175 223 285 344 406
#     4  10  18  36  63  89 134 170 209 277 338 391
#     4  10  24  45  66 100 135 180 232 277 331 403
#     4  10  21  37  59 100 135 166 223 269 338 416
#     4  11  24  43  67 101 134 183 223 279 345 396
#     4  12  24  46  74  92 142 186 230 282 328 404
#
# _framework density 23.416574000000001
#
# number of rings (size 3 to 8) (size 9 to 14) (size 15 to 20)
#    0.000    1.455    2.727    2.182    1.273    1.455 
#    0.000    2.727    0.000    1.091    0.000    0.000 
#    0.000    0.000    0.000    0.000    0.000    0.000 
#
# Total GULP energy -122571.619303 kJ/mol
# GULP energy per Si atom -5571.437241 kJ/mol
# Density = 2.336328 g / cm^3
# Si number density = 23.416574 Si / 1000 Ang^3
#
#
#
# Elastic Constant Matrix: (Units=GPa)
#
#
# Indices 1 2 3 4 5 6 
#
# 1 149.8396 36.0014 46.9449 0.0000 18.3410 0.0000
# 2 36.0014 110.9456 10.2139 0.0000 2.6547 0.0000
# 3 46.9449 10.2139 98.1300 0.0000 20.3983 0.0000
# 4 0.0000 0.0000 0.0000 -1.1468 0.0000 8.0369
# 5 18.3410 2.6547 20.3983 0.0000 27.2530 0.0000
# 6 0.0000 0.0000 0.0000 8.0369 0.0000 36.3263
#
#
#
# Elastic Compliance Matrix: (Units=1/GPa)
#
#
# Indices 1 2 3 4 5 6 
#
# 1 0.008659 -0.002437 -0.003229 0.000000 -0.003173 0.000000
# 2 -0.002437 0.009787 0.000005 0.000000 0.000683 0.000000
# 3 -0.003229 0.000005 0.013362 0.000000 -0.007829 0.000000
# 4 0.000000 0.000000 0.000000 -0.341895 0.000000 0.075642
# 5 -0.003173 0.000683 -0.007829 0.000000 0.044622 0.000000
# 6 0.000000 0.000000 0.000000 0.075642 0.000000 0.010793
#
#
# Mechanical properties :
#
#
# Convention : Reuss Voigt Hill
#
# Bulk Modulus (GPa) = 48.81145 60.58173 54.69659
# Shear Modulus (GPa) = -21.13988 30.20350 4.53181
#
# Velocity S-wave (km/s) = -3.00788 3.59532 1.39266
# Velocity P-wave (km/s) = 2.97102 6.56982 5.09851
#
# Compressibility (1/GPa) = 0.02048700
#
# Stress axis : x y z
#
# Youngs Moduli (GPa) = 115.48066 102.17289 74.83753
#
# Poissons Ratio (x) = 0.24897 0.24168
# Poissons Ratio (y) = 0.28139 -0.00038
# Poissons Ratio (z) = 0.37293 -0.00052
#
# Static dielectric constant tensor:
#      x y z
#    x 1.942300 0.000000 0.025330 
#    y 0.000000 1.871240 0.000000 
#    z 0.025330 0.000000 1.980920 
# 
# From -- ./inp_files/32421.got.cif
#   From: 2010.05.17/outbox.cif.g08.bks.cpg/sg15_17_cif.got.tgz:32421.got - 2010.06.03 18:47:42.
