data_PCOD9260230
_publ_section_title
;
Structure prediction by ZEFSAII (Michael W. Deem and Ramdas Pophale) SiO2 
 PCOD9260230
Probable space group: C 2/C
;
_chemical_formula_sum "Si O2"
_cell_formula_units_Z 48
_cell_length_a 10.705734
_cell_length_b 27.396395
_cell_length_c 14.658784
_cell_angle_alpha 90.000000
_cell_angle_beta 149.826556
_cell_angle_gamma 90.000000
_cell_volume 2160.961269
_symmetry_space_group_name_H-M "C 2/C"
_symmetry_group_IT_number 15
_symmetry_cell_setting 'monoclinic'
loop_
_space_group_symop_operation_xyz
x,y,z
-x,y,1/2-z
-x,-y,-z
x,-y,1/2+z
1/2+x,1/2+y,z
1/2-x,1/2+y,1/2-z
1/2-x,1/2-y,-z
1/2+x,1/2-y,1/2+z
loop_
_atom_site_type_symbol
_atom_site_label
_atom_site_fract_x
_atom_site_fract_y
_atom_site_fract_z
Si Si1 0.126755 0.008063 0.677767
Si Si2 0.072091 0.274072 0.964554
Si Si3 0.349125 0.320626 0.310641
Si Si4 0.009314 0.411248 0.148864
Si Si5 0.500000 0.421820 0.250000
Si Si6 0.000000 0.929505 0.750000
Si Si7 0.128179 0.367888 0.918260
O O1 0.107316 0.961322 0.731757
O O2 0.383503 0.037569 0.824603
O O3 0.000000 0.000000 0.500000
O O4 0.979444 0.046900 0.646044
O O5 0.232981 0.297513 0.145886
O O6 0.250000 0.250000 0.000000
O O7 0.959736 0.321702 0.842829
O O8 0.908539 0.229922 0.900725
O O9 0.178935 0.363343 0.242421
O O10 0.608756 0.346725 0.450819
O O11 0.000000 0.420803 0.250000
O O12 0.736769 0.401311 0.937463
O O13 0.769438 0.395650 0.427480
O O14 0.000000 0.392958 0.750000
#
# Coordination Sequence:
#
# PCOD9260230 Si02
#       7
#     8   8   8   8   4   4   8
#     4  11  23  48  74 103 141 181 236 296 355 421
#     4  10  18  36  65  95 141 173 223 290 348 398
#     4  11  22  41  64 103 143 181 232 292 348 427
#     4  12  25  50  73 100 149 184 242 288 352 434
#     4  11  22  44  66 108 146 174 234 298 352 423
#     4  11  26  48  80 102 136 196 232 302 360 409
#     4  11  19  37  65 103 141 179 225 290 361 411
#
# _framework density 22.212337000000002
#
# number of rings (size 3 to 8) (size 9 to 14) (size 15 to 20)
#    0.000    1.000    5.000    4.000    0.000    0.000 
#   21.000    0.833    0.000    0.000    0.000    0.000 
#    0.000    0.000    0.000    0.000    0.000    0.000 
#
# Total GULP energy -133719.387106 kJ/mol
# GULP energy per Si atom -5571.641129 kJ/mol
# Density = 2.216178 g / cm^3
# Si number density = 22.212337 Si / 1000 Ang^3
#
#
#
# Elastic Constant Matrix: (Units=GPa)
#
#
# Indices 1 2 3 4 5 6 
#
# 1 73.5120 25.4788 25.5586 0.0000 -7.1202 0.0000
# 2 25.4788 68.2781 24.2968 0.0000 2.5977 0.0000
# 3 25.5586 24.2968 126.5590 0.0001 -11.4722 0.0000
# 4 0.0000 0.0000 0.0001 24.5353 0.0000 2.7219
# 5 -7.1202 2.5977 -11.4722 0.0000 38.8063 0.0000
# 6 0.0000 0.0000 0.0000 2.7219 0.0000 19.8997
#
#
#
# Elastic Compliance Matrix: (Units=1/GPa)
#
#
# Indices 1 2 3 4 5 6 
#
# 1 0.016497 -0.005546 -0.002013 0.000000 0.002803 0.000000
# 2 -0.005546 0.017737 -0.002553 0.000000 -0.002960 0.000000
# 3 -0.002013 -0.002553 0.009022 0.000000 0.002469 0.000000
# 4 0.000000 0.000000 0.000000 0.041386 0.000000 -0.005661
# 5 0.002803 -0.002960 0.002469 0.000000 0.027211 0.000000
# 6 0.000000 0.000000 0.000000 -0.005661 0.000000 0.051026
#
#
# Mechanical properties :
#
#
# Convention : Reuss Voigt Hill
#
# Bulk Modulus (GPa) = 43.42006 46.55749 44.98877
# Shear Modulus (GPa) = 26.20808 29.51589 27.86198
#
# Velocity S-wave (km/s) = 3.43868 3.64923 3.54552
# Velocity P-wave (km/s) = 5.94610 6.22588 6.08760
#
# Compressibility (1/GPa) = 0.02303083
#
# Stress axis : x y z
#
# Youngs Moduli (GPa) = 60.61762 56.37952 110.84163
#
# Poissons Ratio (x) = 0.31271 0.22308
# Poissons Ratio (y) = 0.33621 0.28302
# Poissons Ratio (z) = 0.12200 0.14396
#
# Static dielectric constant tensor:
#      x y z
#    x 1.878440 0.000000 -0.094710 
#    y 0.000000 1.977540 0.000000 
#    z -0.094710 0.000000 2.002790 
# 
# From -- ./inp_files/148872.got.cif
#   From: 2010.05.17/outbox.cif.g08.bks.cpg/sg15_75_cif.got.tgz:148872.got - 2010.06.03 18:47:42.
