data_PCOD9260662
_publ_section_title
;
Structure prediction by ZEFSAII (Michael W. Deem and Ramdas Pophale) SiO2 
 PCOD9260662
Probable space group: C 2/C
;
_chemical_formula_sum "Si O2"
_cell_formula_units_Z 44
_cell_length_a 8.733446
_cell_length_b 26.093556
_cell_length_c 15.308801
_cell_angle_alpha 90.000000
_cell_angle_beta 139.916354
_cell_angle_gamma 90.000000
_cell_volume 2246.374009
_symmetry_space_group_name_H-M "C 2/C"
_symmetry_group_IT_number 15
_symmetry_cell_setting 'monoclinic'
loop_
_space_group_symop_operation_xyz
x,y,z
-x,y,1/2-z
-x,-y,-z
x,-y,1/2+z
1/2+x,1/2+y,z
1/2-x,1/2+y,1/2-z
1/2-x,1/2-y,-z
1/2+x,1/2-y,1/2+z
loop_
_atom_site_type_symbol
_atom_site_label
_atom_site_fract_x
_atom_site_fract_y
_atom_site_fract_z
Si Si1 0.922813 0.256635 0.992663
Si Si2 0.749805 0.660083 0.094703
Si Si3 0.500000 0.312417 0.750000
Si Si4 0.880936 0.554963 0.454617
Si Si5 0.061131 0.093227 0.155467
Si Si6 0.770478 0.646940 0.896640
O O1 0.734163 0.278589 0.839668
O O2 0.750000 0.250000 0.000000
O O3 0.061387 0.205992 0.025416
O O4 0.111376 0.301780 0.090288
O O5 0.657474 0.608678 0.103370
O O6 0.000000 0.673548 0.250000
O O7 0.784400 0.651710 0.007526
O O8 0.520970 0.351925 0.839231
O O9 0.758923 0.571503 0.308852
O O10 0.667663 0.557434 0.432303
O O11 0.000000 0.500000 0.500000
O O12 0.073738 0.598009 0.561650
O O13 0.500000 0.641830 0.750000
#
# Coordination Sequence:
#
# PCOD9260662 Si02
#       6
#     8   8   4   8   8   8
#     4  12  23  38  62  92 130 182 221 257 323 387
#     4  12  23  42  65  92 135 175 214 266 322 392
#     4  10  18  38  60  88 124 168 226 252 302 388
#     4  10  21  42  71  93 120 167 214 269 330 393
#     4  10  20  43  69  91 124 176 220 255 326 402
#     4  12  26  40  59  99 134 160 219 280 324 372
#
# _framework density 19.587121
#
# number of rings (size 3 to 8) (size 9 to 14) (size 15 to 20)
#    0.000    1.091    7.273    1.091    5.091    0.000 
#    0.000    0.909    4.000    0.000    0.000    0.000 
#    0.000    0.000    0.000    0.000    0.000    0.000 
#
# Total GULP energy -122866.129667 kJ/mol
# GULP energy per Si atom -5584.824076 kJ/mol
# Density = 1.954254 g / cm^3
# Si number density = 19.587121 Si / 1000 Ang^3
#
#
#
# Elastic Constant Matrix: (Units=GPa)
#
#
# Indices 1 2 3 4 5 6 
#
# 1 90.9023 29.0546 24.9958 0.0000 9.8486 0.0000
# 2 29.0546 97.4776 26.2301 0.0000 19.3853 0.0000
# 3 24.9958 26.2301 96.0071 0.0000 32.9889 0.0000
# 4 0.0000 0.0000 0.0000 29.0040 0.0000 13.7573
# 5 9.8486 19.3853 32.9889 0.0000 42.7413 0.0000
# 6 0.0000 0.0000 0.0000 13.7573 0.0000 28.1388
#
#
#
# Elastic Compliance Matrix: (Units=1/GPa)
#
#
# Indices 1 2 3 4 5 6 
#
# 1 0.012679 -0.003183 -0.002618 0.000000 0.000542 0.000000
# 2 -0.003183 0.012308 -0.001181 0.000000 -0.003937 0.000000
# 3 -0.002618 -0.001181 0.015009 0.000000 -0.010446 0.000000
# 4 0.000000 0.000000 0.000000 0.044887 0.000000 -0.021946
# 5 0.000542 -0.003937 -0.010446 0.000000 0.033120 0.000000
# 6 0.000000 0.000000 0.000000 -0.021946 0.000000 0.046268
#
#
# Mechanical properties :
#
#
# Convention : Reuss Voigt Hill
#
# Bulk Modulus (GPa) = 38.41235 49.43866 43.92550
# Shear Modulus (GPa) = 26.75046 33.58393 30.16719
#
# Velocity S-wave (km/s) = 3.69957 4.14526 3.92874
# Velocity P-wave (km/s) = 6.15652 6.94306 6.56158
#
# Compressibility (1/GPa) = 0.02603330
#
# Stress axis : x y z
#
# Youngs Moduli (GPa) = 78.86959 81.24619 66.62468
#
# Poissons Ratio (x) = 0.25858 0.17442
# Poissons Ratio (y) = 0.25101 0.07870
# Poissons Ratio (z) = 0.20648 0.09597
#
# Static dielectric constant tensor:
#      x y z
#    x 1.741850 0.000000 -0.024160 
#    y 0.000000 1.677460 0.000000 
#    z -0.024160 0.000000 1.732150 
# 
# From -- ./inp_files/138824.got.cif
#   From: 2010.05.17/outbox.cif.g08.bks.cpg/sg15_70_cif.got.tgz:138824.got - 2010.06.03 18:47:42.
