data_PCOD9260693
_publ_section_title
;
Structure prediction by ZEFSAII (Michael W. Deem and Ramdas Pophale) SiO2 
 PCOD9260693
Probable space group: C 2/C
;
_chemical_formula_sum "Si O2"
_cell_formula_units_Z 56
_cell_length_a 8.711308
_cell_length_b 23.851809
_cell_length_c 14.819727
_cell_angle_alpha 90.000000
_cell_angle_beta 120.666353
_cell_angle_gamma 90.000000
_cell_volume 2648.622528
_symmetry_space_group_name_H-M "C 2/C"
_symmetry_group_IT_number 15
_symmetry_cell_setting 'monoclinic'
loop_
_space_group_symop_operation_xyz
x,y,z
-x,y,1/2-z
-x,-y,-z
x,-y,1/2+z
1/2+x,1/2+y,z
1/2-x,1/2+y,1/2-z
1/2-x,1/2-y,-z
1/2+x,1/2-y,1/2+z
loop_
_atom_site_type_symbol
_atom_site_label
_atom_site_fract_x
_atom_site_fract_y
_atom_site_fract_z
Si Si1 0.761077 0.603875 0.321807
Si Si2 0.692881 0.774895 0.579899
Si Si3 0.500000 0.354960 0.250000
Si Si4 0.000000 0.703731 0.750000
Si Si5 0.090058 0.554803 0.483438
Si Si6 0.617756 0.829153 0.094796
Si Si7 0.490171 0.439759 0.410356
Si Si8 0.000478 0.063547 0.113073
O O1 0.756836 0.662279 0.374023
O O2 0.647567 0.605627 0.196734
O O3 0.655471 0.563456 0.359627
O O4 0.956174 0.578246 0.367015
O O5 0.750000 0.750000 0.500000
O O6 0.813921 0.738296 0.683761
O O7 0.480062 0.784429 0.500405
O O8 0.328010 0.319909 0.169594
O O9 0.453378 0.395482 0.320815
O O10 0.975941 0.671828 0.836078
O O11 0.094516 0.607665 0.552475
O O12 0.295870 0.548843 0.518037
O O13 0.000000 0.500000 0.500000
O O14 0.415880 0.501247 0.365759
O O15 0.433754 0.421069 0.493420
#
# Coordination Sequence:
#
# PCOD9260693 Si02
#       8
#     8   8   4   4   8   8   8   8
#     4  10  19  34  59  80 109 151 192 240 299 356
#     4   9  19  36  60  86 114 144 196 255 309 346
#     4  10  20  38  57  76 124 157 192 234 304 356
#     4  10  18  38  61  88 116 141 196 264 296 342
#     4  10  19  35  53  76 114 155 193 238 287 353
#     4   9  21  35  57  86 110 156 193 235 305 356
#     4  10  21  34  51  78 115 160 189 240 280 348
#     4  10  20  33  51  82 109 146 205 227 290 349
#
# _framework density 21.143066999999999
#
# number of rings (size 3 to 8) (size 9 to 14) (size 15 to 20)
#    0.000    2.286    1.429    1.714    2.000    4.000 
#    0.000    0.714    0.000    8.571    0.000    0.000 
#    0.000    0.000    0.000    0.000    0.000    0.000 
#
# Total GULP energy -155888.035015 kJ/mol
# GULP energy per Si atom -5567.429822 kJ/mol
# Density = 2.109494 g / cm^3
# Si number density = 21.143067 Si / 1000 Ang^3
#
#
#
# Elastic Constant Matrix: (Units=GPa)
#
#
# Indices 1 2 3 4 5 6 
#
# 1 46.7816 15.8771 21.0136 0.0000 24.3740 0.0000
# 2 15.8771 39.7053 14.4588 0.0000 7.1523 0.0000
# 3 21.0136 14.4588 91.9843 0.0000 9.3392 0.0000
# 4 0.0000 0.0000 0.0000 17.1526 0.0000 0.2705
# 5 24.3740 7.1523 9.3392 0.0000 43.3533 0.0000
# 6 0.0000 0.0000 0.0000 0.2705 0.0000 18.3192
#
#
#
# Elastic Compliance Matrix: (Units=1/GPa)
#
#
# Indices 1 2 3 4 5 6 
#
# 1 0.035962 -0.009407 -0.004950 0.000000 -0.017600 0.000000
# 2 -0.009407 0.029731 -0.002621 0.000000 0.000949 0.000000
# 3 -0.004950 -0.002621 0.012358 0.000000 0.000553 0.000000
# 4 0.000000 0.000000 0.000000 0.058314 0.000000 -0.000861
# 5 -0.017600 0.000949 0.000553 0.000000 0.032686 0.000000
# 6 0.000000 0.000000 0.000000 -0.000861 0.000000 0.054600
#
#
# Mechanical properties :
#
#
# Convention : Reuss Voigt Hill
#
# Bulk Modulus (GPa) = 22.67812 31.24113 26.95963
# Shear Modulus (GPa) = 18.36180 24.23980 21.30080
#
# Velocity S-wave (km/s) = 2.95015 3.38962 3.17749
# Velocity P-wave (km/s) = 4.72799 5.48886 5.12257
#
# Compressibility (1/GPa) = 0.04409536
#
# Stress axis : x y z
#
# Youngs Moduli (GPa) = 27.80703 33.63527 80.91957
#
# Poissons Ratio (x) = 0.31642 0.40054
# Poissons Ratio (y) = 0.26159 0.21205
# Poissons Ratio (z) = 0.13764 0.08814
#
# Static dielectric constant tensor:
#      x y z
#    x 1.873780 0.000000 0.080280 
#    y 0.000000 1.760550 0.000000 
#    z 0.080280 0.000000 1.823240 
# 
# From -- ./inp_files/137495.got.cif
#   From: 2010.05.17/outbox.cif.g08.bks.cpg/sg15_69_cif.got.tgz:137495.got - 2010.06.03 18:47:42.
