data_PCOD9260002
_publ_section_title
;
Structure prediction by ZEFSAII (Michael W. Deem and Ramdas Pophale) SiO2 
 PCOD9260002
Probable space group: C 2/C
;
_chemical_formula_sum "Si O2"
_cell_formula_units_Z 48
_cell_length_a 7.724421
_cell_length_b 27.360031
_cell_length_c 9.921485
_cell_angle_alpha 90.000000
_cell_angle_beta 82.186924
_cell_angle_gamma 90.000000
_cell_volume 2077.345564
_symmetry_space_group_name_H-M "C 2/C"
_symmetry_group_IT_number 15
_symmetry_cell_setting 'monoclinic'
loop_
_space_group_symop_operation_xyz
x,y,z
-x,y,1/2-z
-x,-y,-z
x,-y,1/2+z
1/2+x,1/2+y,z
1/2-x,1/2+y,1/2-z
1/2-x,1/2-y,-z
1/2+x,1/2-y,1/2+z
loop_
_atom_site_type_symbol
_atom_site_label
_atom_site_fract_x
_atom_site_fract_y
_atom_site_fract_z
Si Si1 0.828004 0.380147 0.520498
Si Si2 0.887188 0.972809 0.897284
Si Si3 0.388462 0.050521 0.625560
Si Si4 0.611845 0.771806 0.905652
Si Si5 0.350314 0.763764 0.151966
Si Si6 0.300238 0.639944 0.762972
O O1 0.668303 0.415951 0.579936
O O2 0.874457 0.331055 0.595859
O O3 0.771992 0.360284 0.380075
O O4 0.992655 0.416342 0.483875
O O5 0.000000 0.977577 0.750000
O O6 0.702954 0.001893 0.914894
O O7 0.000000 0.000000 0.000000
O O8 0.500000 0.041747 0.750000
O O9 0.227407 0.085708 0.680647
O O10 0.682615 0.756786 0.750921
O O11 0.750000 0.750000 0.000000
O O12 0.434471 0.751337 0.997552
O O13 0.500000 0.754978 0.250000
O O14 0.315958 0.821606 0.145281
O O15 0.500000 0.653893 0.750000
#
# Coordination Sequence:
#
# PCOD9260002 Si02
#       6
#     8   8   8   8   8   8
#     4  11  21  38  63  91 124 174 223 272 340 409
#     4  12  26  44  65 103 141 174 227 292 354 414
#     4  10  20  40  69  94 127 174 232 273 334 418
#     4  10  19  35  64  91 123 164 228 274 333 404
#     4  10  18  36  60  88 122 163 221 274 326 411
#     4  11  19  34  61  90 121 168 218 274 335 405
#
# _framework density 23.10641
#
# number of rings (size 3 to 8) (size 9 to 14) (size 15 to 20)
#    0.000    1.333    5.000    4.500    0.000    2.000 
#    0.000    0.833    0.000    1.000    0.000    0.000 
#    0.000    0.000    0.000    0.000    0.000    0.000 
#
# Total GULP energy -133971.183809 kJ/mol
# GULP energy per Si atom -5582.132659 kJ/mol
# Density = 2.305382 g / cm^3
# Si number density = 23.106410 Si / 1000 Ang^3
#
#
#
# Elastic Constant Matrix: (Units=GPa)
#
#
# Indices 1 2 3 4 5 6 
#
# 1 115.8450 29.8586 44.9720 0.0000 -35.2342 0.0000
# 2 29.8586 126.2908 41.0977 0.0000 -9.0511 0.0000
# 3 44.9720 41.0977 138.8045 0.0000 -24.9502 0.0000
# 4 0.0000 0.0000 0.0000 2.8193 0.0000 29.0322
# 5 -35.2342 -9.0511 -24.9502 0.0000 24.7731 0.0000
# 6 0.0000 0.0000 0.0000 29.0322 0.0000 -34.6117
#
#
#
# Elastic Compliance Matrix: (Units=1/GPa)
#
#
# Indices 1 2 3 4 5 6 
#
# 1 0.015837 -0.001989 -0.000762 0.000000 0.021031 0.000000
# 2 -0.001989 0.009023 -0.002373 0.000000 -0.001922 0.000000
# 3 -0.000762 -0.002373 0.009528 0.000000 0.007646 0.000000
# 4 0.000000 0.000000 0.000000 0.036803 0.000000 0.030871
# 5 0.021031 -0.001922 0.007646 0.000000 0.077276 0.000000
# 6 0.000000 0.000000 0.000000 0.030871 0.000000 -0.002998
#
#
# Mechanical properties :
#
#
# Convention : Reuss Voigt Hill
#
# Bulk Modulus (GPa) = 41.42361 68.08856 54.75608
# Shear Modulus (GPa) = 30.53184 16.26363 23.39774
#
# Velocity S-wave (km/s) = 3.63899 2.65591 3.18560
# Velocity P-wave (km/s) = 5.96847 6.23991 6.10570
#
# Compressibility (1/GPa) = 0.02414082
#
# Stress axis : x y z
#
# Youngs Moduli (GPa) = 63.14255 110.82980 104.95372
#
# Poissons Ratio (x) = 0.22046 0.07997
# Poissons Ratio (y) = 0.12560 0.24901
# Poissons Ratio (z) = 0.04811 0.26295
#
# Static dielectric constant tensor:
#      x y z
#    x 1.935590 0.000000 -0.027950 
#    y 0.000000 1.874430 0.000000 
#    z -0.027950 0.000000 1.863210 
# 
# From -- ./inp_files/79162.got.cif
#   From: 2010.05.17/outbox.cif.g08.bks.cpg/sg15_40_cif.got.tgz:79162.got - 2010.06.03 18:47:42.
