data_PCOD9260008
_publ_section_title
;
Structure prediction by ZEFSAII (Michael W. Deem and Ramdas Pophale) SiO2 
 PCOD9260008
Probable space group: C 2/C
;
_chemical_formula_sum "Si O2"
_cell_formula_units_Z 64
_cell_length_a 17.461307
_cell_length_b 19.782246
_cell_length_c 15.176575
_cell_angle_alpha 90.000000
_cell_angle_beta 148.924359
_cell_angle_gamma 90.000000
_cell_volume 2705.940500
_symmetry_space_group_name_H-M "C 2/C"
_symmetry_group_IT_number 15
_symmetry_cell_setting 'monoclinic'
loop_
_space_group_symop_operation_xyz
x,y,z
-x,y,1/2-z
-x,-y,-z
x,-y,1/2+z
1/2+x,1/2+y,z
1/2-x,1/2+y,1/2-z
1/2-x,1/2-y,-z
1/2+x,1/2-y,1/2+z
loop_
_atom_site_type_symbol
_atom_site_label
_atom_site_fract_x
_atom_site_fract_y
_atom_site_fract_z
Si Si1 0.481089 0.412933 0.419028
Si Si2 0.891097 0.159650 0.008018
Si Si3 0.149387 0.687688 0.202971
Si Si4 0.886472 0.258486 0.326322
Si Si5 0.840167 0.020832 0.007309
Si Si6 0.763453 0.426701 0.445692
Si Si7 0.056405 0.465783 0.644851
Si Si8 0.141506 0.189906 0.941447
O O1 0.467652 0.377305 0.499098
O O2 0.563177 0.482292 0.472753
O O3 0.312283 0.421910 0.223239
O O4 0.556617 0.360456 0.425168
O O5 0.724721 0.184661 0.820382
O O6 0.879962 0.097895 0.063476
O O7 0.999213 0.223396 0.128816
O O8 0.267025 0.704162 0.243083
O O9 0.129075 0.607923 0.198269
O O10 0.231326 0.721174 0.369258
O O11 0.992636 0.716645 0.012295
O O12 0.675858 0.014470 0.806115
O O13 0.831031 0.978616 0.088212
O O14 0.739637 0.356105 0.472107
O O15 0.927140 0.450618 0.587186
O O16 0.000000 0.500000 0.500000
O O17 0.000000 0.221979 0.750000
#
# Coordination Sequence:
#
# PCOD9260008 Si02
#       8
#     8   8   8   8   8   8   8   8
#     4  10  18  36  60  89 122 155 197 253 307 375
#     4  11  21  39  60  91 124 161 217 252 298 363
#     4  11  20  40  58  85 120 161 209 247 299 355
#     4  10  23  37  60  84 121 174 212 256 282 345
#     4  11  21  35  59  93 121 158 192 251 322 370
#     4  10  21  36  58  89 125 156 187 241 332 365
#     4  12  23  37  60  93 120 153 197 261 319 371
#     4   9  18  34  59  79 118 163 192 240 301 360
#
# _framework density 23.651665000000001
#
# number of rings (size 3 to 8) (size 9 to 14) (size 15 to 20)
#    0.000    1.500    3.750    4.125    0.000    1.000 
#    0.000    0.625    0.000    0.000    0.000   29.750 
#    0.000    0.000    0.000    0.000    0.000    0.000 
#
# Total GULP energy -178610.235059 kJ/mol
# GULP energy per Si atom -5581.569846 kJ/mol
# Density = 2.359783 g / cm^3
# Si number density = 23.651665 Si / 1000 Ang^3
#
#
#
# Elastic Constant Matrix: (Units=GPa)
#
#
# Indices 1 2 3 4 5 6 
#
# 1 26.2885 11.1198 16.2507 0.0000 -2.0239 0.0000
# 2 11.1198 98.1996 25.7321 0.0000 5.0491 0.0000
# 3 16.2507 25.7321 116.4433 0.0000 14.7797 0.0000
# 4 0.0000 0.0000 0.0000 15.0652 0.0000 -1.8860
# 5 -2.0239 5.0491 14.7797 0.0000 16.3393 0.0000
# 6 0.0000 0.0000 0.0000 -1.8860 0.0000 20.1261
#
#
#
# Elastic Compliance Matrix: (Units=1/GPa)
#
#
# Indices 1 2 3 4 5 6 
#
# 1 0.045112 -0.003926 -0.007108 0.000000 0.013230 0.000000
# 2 -0.003926 0.011177 -0.001606 0.000000 -0.002487 0.000000
# 3 -0.007108 -0.001606 0.011278 0.000000 -0.010586 0.000000
# 4 0.000000 0.000000 0.000000 0.067166 0.000000 0.006294
# 5 0.013230 -0.002487 -0.010586 0.000000 0.073185 0.000000
# 6 0.000000 0.000000 0.000000 0.006294 0.000000 0.050276
#
#
# Mechanical properties :
#
#
# Convention : Reuss Voigt Hill
#
# Bulk Modulus (GPa) = 23.64759 38.57074 31.10916
# Shear Modulus (GPa) = 16.80273 22.82805 19.81539
#
# Velocity S-wave (km/s) = 2.66827 3.11010 2.89762
# Velocity P-wave (km/s) = 4.41734 5.40742 4.93726
#
# Compressibility (1/GPa) = 0.04228760
#
# Stress axis : x y z
#
# Youngs Moduli (GPa) = 22.16681 89.47169 88.66532
#
# Poissons Ratio (x) = 0.35129 0.63019
# Poissons Ratio (y) = 0.08703 0.14242
# Poissons Ratio (z) = 0.15755 0.14371
#
# Static dielectric constant tensor:
#      x y z
#    x 1.905210 0.000000 -0.054780 
#    y 0.000000 1.938490 0.000000 
#    z -0.054780 0.000000 2.005460 
# 
# From -- ./inp_files/211997.got.cif
#   From: 2010.05.17/outbox.cif.g08.bks.cpg/sg15_106_cif.got.tgz:211997.got - 2010.06.03 18:47:42.
