data_PCOD9260145
_publ_section_title
;
Structure prediction by ZEFSAII (Michael W. Deem and Ramdas Pophale) SiO2 
 PCOD9260145
Probable space group: C 2/C
;
_chemical_formula_sum "Si O2"
_cell_formula_units_Z 64
_cell_length_a 14.071830
_cell_length_b 9.637648
_cell_length_c 29.233269
_cell_angle_alpha 90.000000
_cell_angle_beta 132.718913
_cell_angle_gamma 90.000000
_cell_volume 2912.752372
_symmetry_space_group_name_H-M "C 2/C"
_symmetry_group_IT_number 15
_symmetry_cell_setting 'monoclinic'
loop_
_space_group_symop_operation_xyz
x,y,z
-x,y,1/2-z
-x,-y,-z
x,-y,1/2+z
1/2+x,1/2+y,z
1/2-x,1/2+y,1/2-z
1/2-x,1/2-y,-z
1/2+x,1/2-y,1/2+z
loop_
_atom_site_type_symbol
_atom_site_label
_atom_site_fract_x
_atom_site_fract_y
_atom_site_fract_z
Si Si1 0.516173 0.370445 0.868926
Si Si2 0.905899 0.890268 0.279365
Si Si3 0.187192 0.620110 0.046455
Si Si4 0.439581 0.593310 0.019037
Si Si5 0.357044 0.166116 0.753652
Si Si6 0.244059 0.909812 0.828706
Si Si7 0.200407 0.593923 0.473126
Si Si8 0.470290 0.903520 0.825632
O O1 0.508827 0.512473 0.838239
O O2 0.666272 0.326906 0.917729
O O3 0.474412 0.391975 0.907355
O O4 0.420489 0.267168 0.812214
O O5 0.783172 0.882029 0.274078
O O6 0.958268 0.736610 0.293067
O O7 0.851748 0.965901 0.216746
O O8 0.194306 0.578128 0.101701
O O9 0.096815 0.752660 0.009048
O O10 0.152413 0.489768 0.002662
O O11 0.500000 0.500000 0.000000
O O12 0.316457 0.504077 0.994634
O O13 0.334016 0.263975 0.702252
O O14 0.448700 0.033385 0.785347
O O15 0.353588 0.906751 0.825115
O O16 0.250000 0.750000 0.500000
O O17 0.096287 0.595636 0.398505
#
# Coordination Sequence:
#
# PCOD9260145 Si02
#       8
#     8   8   8   8   8   8   8   8
#     4  10  20  40  63  82 124 170 205 262 315 385
#     4   9  19  35  60  89 122 164 203 255 319 376
#     4  11  23  41  65  91 129 168 221 263 320 393
#     4  11  25  42  66  95 125 168 219 265 320 389
#     4   9  18  34  59  89 115 163 211 254 314 374
#     4   9  21  36  60  94 118 166 217 253 311 391
#     4  11  24  43  65  94 129 172 210 266 337 380
#     4  10  18  36  63  86 127 162 207 263 320 375
#
# _framework density 21.972346000000002
#
# number of rings (size 3 to 8) (size 9 to 14) (size 15 to 20)
#    0.000    2.000    0.000    5.250    5.250    2.500 
#    4.500    0.000    0.000    3.000    0.000    0.000 
#    0.000    0.000    0.000    0.000    0.000    0.000 
#
# Total GULP energy -178843.967493 kJ/mol
# GULP energy per Si atom -5588.873984 kJ/mol
# Density = 2.192234 g / cm^3
# Si number density = 21.972346 Si / 1000 Ang^3
#
#
#
# Elastic Constant Matrix: (Units=GPa)
#
#
# Indices 1 2 3 4 5 6 
#
# 1 42.8352 16.7673 18.1435 0.0000 -17.3359 0.0000
# 2 16.7673 175.4743 64.4823 0.0000 -16.5331 0.0000
# 3 18.1435 64.4823 97.7969 0.0000 -13.5116 0.0000
# 4 0.0000 0.0000 0.0000 19.7634 0.0000 5.8770
# 5 -17.3359 -16.5331 -13.5116 0.0000 37.0409 0.0000
# 6 0.0000 0.0000 0.0000 5.8770 0.0000 24.9105
#
#
#
# Elastic Compliance Matrix: (Units=1/GPa)
#
#
# Indices 1 2 3 4 5 6 
#
# 1 0.030122 -0.000365 -0.003604 0.000000 0.012620 0.000000
# 2 -0.000365 0.007620 -0.004750 0.000000 0.001498 0.000000
# 3 -0.003604 -0.004750 0.014216 0.000000 0.001379 0.000000
# 4 0.000000 0.000000 0.000000 0.054416 0.000000 -0.012838
# 5 0.012620 0.001498 0.001379 0.000000 0.034075 0.000000
# 6 0.000000 0.000000 0.000000 -0.012838 0.000000 0.043172
#
#
# Mechanical properties :
#
#
# Convention : Reuss Voigt Hill
#
# Bulk Modulus (GPa) = 28.96772 57.21029 43.08900
# Shear Modulus (GPa) = 23.52197 30.79053 27.15625
#
# Velocity S-wave (km/s) = 3.27544 3.74750 3.51939
# Velocity P-wave (km/s) = 5.24567 6.69469 6.01398
#
# Compressibility (1/GPa) = 0.03452118
#
# Stress axis : x y z
#
# Youngs Moduli (GPa) = 33.19806 131.22920 70.34231
#
# Poissons Ratio (x) = 0.04787 0.25353
# Poissons Ratio (y) = 0.01211 0.33411
# Poissons Ratio (z) = 0.11965 0.62331
#
# Static dielectric constant tensor:
#      x y z
#    x 1.889900 0.000000 0.006150 
#    y 0.000000 1.811670 0.000000 
#    z 0.006150 0.000000 1.789440 
# 
# From -- ./inp_files/313160.got.cif
#   From: 2010.05.17/outbox.cif.g08.bks.cpg/sg15_157_cif.got.tgz:313160.got - 2010.06.03 18:47:42.
