data_PCOD9260543
_publ_section_title
;
Structure prediction by ZEFSAII (Michael W. Deem and Ramdas Pophale) SiO2 
 PCOD9260543
Probable space group: C 2/C
;
_chemical_formula_sum "Si O2"
_cell_formula_units_Z 52
_cell_length_a 26.815413
_cell_length_b 10.829994
_cell_length_c 15.755395
_cell_angle_alpha 90.000000
_cell_angle_beta 151.315035
_cell_angle_gamma 90.000000
_cell_volume 2196.226792
_symmetry_space_group_name_H-M "C 2/C"
_symmetry_group_IT_number 15
_symmetry_cell_setting 'monoclinic'
loop_
_space_group_symop_operation_xyz
x,y,z
-x,y,1/2-z
-x,-y,-z
x,-y,1/2+z
1/2+x,1/2+y,z
1/2-x,1/2+y,1/2-z
1/2-x,1/2-y,-z
1/2+x,1/2-y,1/2+z
loop_
_atom_site_type_symbol
_atom_site_label
_atom_site_fract_x
_atom_site_fract_y
_atom_site_fract_z
Si Si1 0.323550 0.996397 0.204197
Si Si2 0.203220 0.223398 0.022610
Si Si3 0.799139 0.090934 0.248961
Si Si4 0.699520 0.135051 0.670265
Si Si5 0.094869 0.611993 0.829869
Si Si6 0.891207 0.106923 0.208455
Si Si7 0.500000 0.440369 0.250000
O O1 0.362476 0.924306 0.344603
O O2 0.399257 0.984641 0.238043
O O3 0.215299 0.935133 0.002627
O O4 0.295376 0.133186 0.191617
O O5 0.097434 0.147405 0.876060
O O6 0.250000 0.250000 0.000000
O O7 0.180626 0.345100 0.042435
O O8 0.802499 0.220886 0.303905
O O9 0.880441 0.080707 0.292588
O O10 0.790797 0.969725 0.296483
O O11 0.693831 0.105695 0.038111
O O12 0.095456 0.747998 0.788202
O O13 0.000000 0.594607 0.750000
O O14 0.986681 0.033168 0.309442
#
# Coordination Sequence:
#
# PCOD9260543 Si02
#       7
#     8   8   8   8   8   8   4
#     4  10  20  38  64  93 122 166 218 259 328 391
#     4  11  24  45  68  93 133 177 216 276 334 396
#     4  11  23  40  66  93 126 172 214 265 339 385
#     4  12  21  40  68  94 127 171 216 273 331 398
#     4  11  20  37  63  93 128 170 213 265 329 396
#     4  10  18  37  66  92 123 162 217 272 312 386
#     4  10  22  40  68 100 120 172 236 260 316 404
#
# _framework density 23.676971999999999
#
# number of rings (size 3 to 8) (size 9 to 14) (size 15 to 20)
#    0.000    1.231    5.385    3.692    0.000    0.000 
#    5.538    4.615    3.385    0.000    0.000    0.000 
#    0.000    0.000    0.000    0.000    0.000    0.000 
#
# Total GULP energy -144775.062779 kJ/mol
# GULP energy per Si atom -5568.271645 kJ/mol
# Density = 2.362308 g / cm^3
# Si number density = 23.676972 Si / 1000 Ang^3
#
#
#
# Elastic Constant Matrix: (Units=GPa)
#
#
# Indices 1 2 3 4 5 6 
#
# 1 195.3193 10.9161 20.6999 0.0000 -3.9205 0.0000
# 2 10.9161 65.1310 -2.2333 0.0000 -0.2565 0.0000
# 3 20.6999 -2.2333 30.2352 0.0000 0.9990 0.0000
# 4 0.0000 0.0000 0.0000 19.8335 0.0000 -24.2862
# 5 -3.9205 -0.2565 0.9990 0.0000 31.8207 0.0000
# 6 0.0000 0.0000 0.0000 -24.2862 0.0000 148.8029
#
#
#
# Elastic Compliance Matrix: (Units=1/GPa)
#
#
# Indices 1 2 3 4 5 6 
#
# 1 0.005615 -0.001073 -0.003950 0.000000 0.000807 0.000000
# 2 -0.001073 0.015598 0.001889 0.000000 -0.000066 0.000000
# 3 -0.003950 0.001889 0.035971 0.000000 -0.001601 0.000000
# 4 0.000000 0.000000 0.000000 0.063013 0.000000 0.010284
# 5 0.000807 -0.000066 -0.001601 0.000000 0.031575 0.000000
# 6 0.000000 0.000000 0.000000 0.010284 0.000000 0.008399
#
#
# Mechanical properties :
#
#
# Convention : Reuss Voigt Hill
#
# Bulk Modulus (GPa) = 19.64050 38.82789 29.23419
# Shear Modulus (GPa) = 27.26130 57.51161 42.38646
#
# Velocity S-wave (km/s) = 3.39689 4.93385 4.23566
# Velocity P-wave (km/s) = 4.86809 6.99226 6.02454
#
# Compressibility (1/GPa) = 0.05091521
#
# Stress axis : x y z
#
# Youngs Moduli (GPa) = 178.10663 64.11050 27.80048
#
# Poissons Ratio (x) = 0.06881 0.10981
# Poissons Ratio (y) = 0.19116 -0.05252
# Poissons Ratio (z) = 0.70350 -0.12111
#
# Static dielectric constant tensor:
#      x y z
#    x 2.070390 0.000000 0.024780 
#    y 0.000000 1.962960 0.000000 
#    z 0.024780 0.000000 2.036750 
# 
# From -- ./inp_files/173191.got.cif
#   From: 2010.05.17/outbox.cif.g08.bks.cpg/sg15_87_cif.got.tgz:173191.got - 2010.06.03 18:47:42.
