data_PCOD9260934
_publ_section_title
;
Structure prediction by ZEFSAII (Michael W. Deem and Ramdas Pophale) SiO2 
 PCOD9260934
Probable space group: C 2/C
;
_chemical_formula_sum "Si O2"
_cell_formula_units_Z 44
_cell_length_a 10.855926
_cell_length_b 17.355113
_cell_length_c 12.457805
_cell_angle_alpha 90.000000
_cell_angle_beta 126.185461
_cell_angle_gamma 90.000000
_cell_volume 1894.386804
_symmetry_space_group_name_H-M "C 2/C"
_symmetry_group_IT_number 15
_symmetry_cell_setting 'monoclinic'
loop_
_space_group_symop_operation_xyz
x,y,z
-x,y,1/2-z
-x,-y,-z
x,-y,1/2+z
1/2+x,1/2+y,z
1/2-x,1/2+y,1/2-z
1/2-x,1/2-y,-z
1/2+x,1/2-y,1/2+z
loop_
_atom_site_type_symbol
_atom_site_label
_atom_site_fract_x
_atom_site_fract_y
_atom_site_fract_z
Si Si1 0.364971 0.115092 0.955335
Si Si2 0.500000 0.545823 0.250000
Si Si3 0.829744 0.512959 0.144408
Si Si4 0.609124 0.417675 0.148464
Si Si5 0.992988 0.242819 0.875141
Si Si6 0.303616 0.121826 0.341016
O O1 0.241695 0.107171 0.800390
O O2 0.378413 0.200900 0.010816
O O3 0.323524 0.058065 0.030335
O O4 0.541625 0.097319 0.015867
O O5 0.521083 0.486739 0.161548
O O6 0.649955 0.598960 0.321112
O O7 0.702095 0.449165 0.096106
O O8 0.809093 0.574508 0.231720
O O9 0.000000 0.481420 0.250000
O O10 0.506309 0.343017 0.078715
O O11 0.838875 0.289165 0.831024
O O12 0.000000 0.240140 0.750000
#
# Coordination Sequence:
#
# PCOD9260934 Si02
#       6
#     8   4   8   8   8   8
#     4   9  19  39  64  82 118 168 195 227 314 360
#     4  10  20  34  56  88 120 148 202 252 288 332
#     4   9  17  36  57  85 116 151 200 242 280 360
#     4  11  22  35  63  92 117 153 203 252 289 345
#     4  10  18  39  57  85 120 155 198 248 289 354
#     4   8  17  36  56  77 118 162 184 244 294 348
#
# _framework density 23.226512
#
# number of rings (size 3 to 8) (size 9 to 14) (size 15 to 20)
#    1.091    1.455    2.727    0.000    0.000    7.273 
#    1.636    5.455    0.000    2.182    0.000    0.000 
#    0.000    0.000    0.000    0.000    0.000    0.000 
#
# Total GULP energy -123012.998725 kJ/mol
# GULP energy per Si atom -5591.499942 kJ/mol
# Density = 2.317365 g / cm^3
# Si number density = 23.226512 Si / 1000 Ang^3
#
#
#
# Elastic Constant Matrix: (Units=GPa)
#
#
# Indices 1 2 3 4 5 6 
#
# 1 151.9843 55.7620 25.9500 0.0000 27.0466 0.0000
# 2 55.7620 111.3477 24.3827 0.0000 6.8384 0.0000
# 3 25.9500 24.3827 86.6506 0.0000 14.2553 0.0000
# 4 0.0000 0.0000 0.0000 17.8530 0.0000 2.0734
# 5 27.0466 6.8384 14.2553 0.0000 24.6055 0.0000
# 6 0.0000 0.0000 0.0000 2.0734 0.0000 43.2672
#
#
#
# Elastic Compliance Matrix: (Units=1/GPa)
#
#
# Indices 1 2 3 4 5 6 
#
# 1 0.009904 -0.004334 -0.000170 0.000000 -0.009584 0.000000
# 2 -0.004334 0.011500 -0.002427 0.000000 0.002974 0.000000
# 3 -0.000170 -0.002427 0.013411 0.000000 -0.006908 0.000000
# 4 0.000000 0.000000 0.000000 0.056327 0.000000 -0.002699
# 5 -0.009584 0.002974 -0.006908 0.000000 0.054352 0.000000
# 6 0.000000 0.000000 0.000000 -0.002699 0.000000 0.023242
#
#
# Mechanical properties :
#
#
# Convention : Reuss Voigt Hill
#
# Bulk Modulus (GPa) = 47.72632 62.46357 55.09494
# Shear Modulus (GPa) = 26.37366 33.40431 29.88899
#
# Velocity S-wave (km/s) = 3.37337 3.79647 3.59116
# Velocity P-wave (km/s) = 5.98044 6.79479 6.40058
#
# Compressibility (1/GPa) = 0.02095280
#
# Stress axis : x y z
#
# Youngs Moduli (GPa) = 100.96550 86.95415 74.56535
#
# Poissons Ratio (x) = 0.37688 0.01266
# Poissons Ratio (y) = 0.43761 0.18100
# Poissons Ratio (z) = 0.01715 0.21107
#
# Static dielectric constant tensor:
#      x y z
#    x 1.893060 0.000000 0.031180 
#    y 0.000000 1.877920 0.000000 
#    z 0.031180 0.000000 1.876350 
# 
# From -- ./inp_files/145841.got.cif
#   From: 2010.05.17/outbox.cif.g08.bks.cpg/sg15_73_cif.got.tgz:145841.got - 2010.06.03 18:47:42.
