data_PCOD9260785
_publ_section_title
;
Structure prediction by ZEFSAII (Michael W. Deem and Ramdas Pophale) SiO2 
 PCOD9260785
Probable space group: C 2/C
;
_chemical_formula_sum "Si O2"
_cell_formula_units_Z 48
_cell_length_a 7.009145
_cell_length_b 13.653434
_cell_length_c 21.063196
_cell_angle_alpha 90.000000
_cell_angle_beta 64.986734
_cell_angle_gamma 90.000000
_cell_volume 1826.669665
_symmetry_space_group_name_H-M "C 2/C"
_symmetry_group_IT_number 15
_symmetry_cell_setting 'monoclinic'
loop_
_space_group_symop_operation_xyz
x,y,z
-x,y,1/2-z
-x,-y,-z
x,-y,1/2+z
1/2+x,1/2+y,z
1/2-x,1/2+y,1/2-z
1/2-x,1/2-y,-z
1/2+x,1/2-y,1/2+z
loop_
_atom_site_type_symbol
_atom_site_label
_atom_site_fract_x
_atom_site_fract_y
_atom_site_fract_z
Si Si1 0.084965 0.569965 0.362720
Si Si2 0.191350 0.152590 0.275721
Si Si3 0.541552 0.532629 0.097101
Si Si4 0.712274 0.856342 0.030495
Si Si5 0.789315 0.635474 0.510622
Si Si6 0.458374 0.140562 0.681923
O O1 0.110097 0.640994 0.298947
O O2 0.270252 0.582624 0.387847
O O3 0.131970 0.462974 0.327319
O O4 0.873285 0.584277 0.433474
O O5 0.169559 0.258958 0.311048
O O6 0.000000 0.145317 0.250000
O O7 0.156888 0.067237 0.333369
O O8 0.590253 0.583656 0.023026
O O9 0.604650 0.420830 0.074473
O O10 0.670467 0.853233 0.110800
O O11 0.750000 0.750000 0.000000
O O12 0.486896 0.882400 0.030676
O O13 0.750000 0.750000 0.500000
O O14 0.500000 0.136079 0.750000
#
# Coordination Sequence:
#
# PCOD9260785 Si02
#       6
#     8   8   8   8   8   8
#     4  10  20  40  59  84 125 168 200 249 324 380
#     4   9  20  34  59  89 116 156 211 247 303 380
#     4  10  18  38  64  86 115 164 210 251 304 385
#     4  11  20  40  68  90 115 167 218 254 304 381
#     4  11  23  39  65  92 129 163 207 265 323 368
#     4  11  21  37  59  89 120 155 206 260 311 361
#
# _framework density 26.277329000000002
#
# number of rings (size 3 to 8) (size 9 to 14) (size 15 to 20)
#    0.000    1.667    5.000    1.000    2.333    1.333 
#    3.000    0.833    0.000    0.000    0.000    0.000 
#    0.000    0.000    0.000    0.000    0.000    0.000 
#
# Total GULP energy -134166.036473 kJ/mol
# GULP energy per Si atom -5590.251520 kJ/mol
# Density = 2.621752 g / cm^3
# Si number density = 26.277329 Si / 1000 Ang^3
#
#
#
# Elastic Constant Matrix: (Units=GPa)
#
#
# Indices 1 2 3 4 5 6 
#
# 1 79.9497 3.2149 38.8817 0.0000 -5.1869 0.0000
# 2 3.2149 146.5219 59.8274 0.0000 -4.4427 0.0000
# 3 38.8817 59.8274 211.2022 0.0000 0.1674 0.0000
# 4 0.0000 0.0000 0.0000 59.8453 0.0000 0.3569
# 5 -5.1869 -4.4427 0.1674 0.0000 38.1963 0.0000
# 6 0.0000 0.0000 0.0000 0.3569 0.0000 21.2666
#
#
#
# Elastic Compliance Matrix: (Units=1/GPa)
#
#
# Indices 1 2 3 4 5 6 
#
# 1 0.013980 0.000911 -0.002833 0.000000 0.002017 0.000000
# 2 0.000911 0.007809 -0.002381 0.000000 0.001042 0.000000
# 3 -0.002833 -0.002381 0.005931 0.000000 -0.000688 0.000000
# 4 0.000000 0.000000 0.000000 0.016711 0.000000 -0.000280
# 5 0.002017 0.001042 -0.000688 0.000000 0.026579 0.000000
# 6 0.000000 0.000000 0.000000 -0.000280 0.000000 0.047027
#
#
# Mechanical properties :
#
#
# Convention : Reuss Voigt Hill
#
# Bulk Modulus (GPa) = 52.31591 71.28021 61.79806
# Shear Modulus (GPa) = 37.59012 46.24495 41.91753
#
# Velocity S-wave (km/s) = 3.78632 4.19964 3.99833
# Velocity P-wave (km/s) = 6.25038 7.12046 6.69956
#
# Compressibility (1/GPa) = 0.01911464
#
# Stress axis : x y z
#
# Youngs Moduli (GPa) = 71.53055 128.06479 168.59676
#
# Poissons Ratio (x) = -0.11671 0.47771
# Poissons Ratio (y) = -0.06519 0.40135
# Poissons Ratio (z) = 0.20268 0.30486
#
# Static dielectric constant tensor:
#      x y z
#    x 2.181090 0.000000 -0.028680 
#    y 0.000000 2.094700 0.000000 
#    z -0.028680 0.000000 2.034480 
# 
# From -- ./inp_files/237720.got.cif
#   From: 2010.05.17/outbox.cif.g08.bks.cpg/sg15_119_cif.got.tgz:237720.got - 2010.06.03 18:47:42.
