data_PCOD9260372
_publ_section_title
;
Structure prediction by ZEFSAII (Michael W. Deem and Ramdas Pophale) SiO2 
 PCOD9260372
Probable space group: C 2/C
;
_chemical_formula_sum "Si O2"
_cell_formula_units_Z 60
_cell_length_a 24.988800
_cell_length_b 7.547600
_cell_length_c 18.123392
_cell_angle_alpha 90.000000
_cell_angle_beta 124.991452
_cell_angle_gamma 90.000000
_cell_volume 2800.294076
_symmetry_space_group_name_H-M "C 2/C"
_symmetry_group_IT_number 15
_symmetry_cell_setting 'monoclinic'
loop_
_space_group_symop_operation_xyz
x,y,z
-x,y,1/2-z
-x,-y,-z
x,-y,1/2+z
1/2+x,1/2+y,z
1/2-x,1/2+y,1/2-z
1/2-x,1/2-y,-z
1/2+x,1/2-y,1/2+z
loop_
_atom_site_type_symbol
_atom_site_label
_atom_site_fract_x
_atom_site_fract_y
_atom_site_fract_z
Si Si1 0.314489 0.255186 0.916148
Si Si2 0.805872 0.831797 0.366942
Si Si3 0.327142 0.250745 0.539695
Si Si4 0.500000 0.811383 0.750000
Si Si5 0.119739 0.856197 0.389045
Si Si6 0.842109 0.342590 0.281737
Si Si7 0.831772 0.244795 0.730213
Si Si8 0.934565 0.654169 0.732472
O O1 0.307256 0.466329 0.895875
O O2 0.354227 0.177235 0.878314
O O3 0.241502 0.184732 0.849855
O O4 0.341472 0.239246 0.019988
O O5 0.831616 0.717518 0.455806
O O6 0.731282 0.769136 0.291369
O O7 0.844943 0.832372 0.321524
O O8 0.250000 0.250000 0.500000
O O9 0.356871 0.444752 0.579838
O O10 0.375587 0.132665 0.626874
O O11 0.455958 0.690985 0.662844
O O12 0.461925 0.957467 0.769768
O O13 0.130133 0.812644 0.311611
O O14 0.835395 0.545397 0.249427
O O15 0.898998 0.263198 0.275319
O O16 0.000000 0.745341 0.750000
#
# Coordination Sequence:
#
# PCOD9260372 Si02
#       8
#     8   8   8   4   8   8   8   8
#     4   9  21  35  58  88 127 160 207 272 326 379
#     4   9  20  35  56  95 127 156 209 265 331 385
#     4  11  23  39  67  98 127 165 218 274 330 378
#     4  10  24  42  62  86 130 178 224 256 320 398
#     4  11  23  40  61  91 125 173 218 262 322 394
#     4  10  18  37  59  88 126 165 209 265 327 380
#     4  10  19  35  59  89 124 162 208 268 328 379
#     4  10  22  40  62  90 127 173 214 264 322 394
#
# _framework density 21.426321999999999
#
# number of rings (size 3 to 8) (size 9 to 14) (size 15 to 20)
#    0.400    1.600    2.667    0.400    2.800    4.267 
#    0.000    2.000    0.000    3.200    0.000    0.000 
#    0.000    0.000    0.000    0.000    0.000    0.000 
#
# Total GULP energy -167129.423261 kJ/mol
# GULP energy per Si atom -5570.980775 kJ/mol
# Density = 2.137755 g / cm^3
# Si number density = 21.426322 Si / 1000 Ang^3
#
#
#
# Elastic Constant Matrix: (Units=GPa)
#
#
# Indices 1 2 3 4 5 6 
#
# 1 95.9468 8.8622 33.7387 0.0000 -10.6522 0.0000
# 2 8.8622 40.0503 16.2182 0.0000 0.0191 0.0000
# 3 33.7387 16.2182 72.6182 0.0000 -5.2713 0.0000
# 4 0.0000 0.0000 0.0000 26.2600 0.0000 10.2941
# 5 -10.6522 0.0191 -5.2713 0.0000 35.0353 0.0000
# 6 0.0000 0.0000 0.0000 10.2941 0.0000 13.8490
#
#
#
# Elastic Compliance Matrix: (Units=1/GPa)
#
#
# Indices 1 2 3 4 5 6 
#
# 1 0.012778 -0.000566 -0.005589 0.000000 0.003044 0.000000
# 2 -0.000566 0.027507 -0.005959 0.000000 -0.001084 0.000000
# 3 -0.005589 -0.005959 0.017769 0.000000 0.000977 0.000000
# 4 0.000000 0.000000 0.000000 0.053740 0.000000 -0.039945
# 5 0.003044 -0.001084 0.000977 0.000000 0.029616 0.000000
# 6 0.000000 0.000000 0.000000 -0.039945 0.000000 0.101899
#
#
# Mechanical properties :
#
#
# Convention : Reuss Voigt Hill
#
# Bulk Modulus (GPa) = 29.56267 36.25038 32.90652
# Shear Modulus (GPa) = 17.93310 25.01527 21.47419
#
# Velocity S-wave (km/s) = 2.89618 3.42058 3.16924
# Velocity P-wave (km/s) = 5.00111 5.70577 5.36502
#
# Compressibility (1/GPa) = 0.03382645
#
# Stress axis : x y z
#
# Youngs Moduli (GPa) = 78.25846 36.35374 56.27645
#
# Poissons Ratio (x) = 0.02056 0.31456
# Poissons Ratio (y) = 0.04426 0.33537
# Poissons Ratio (z) = 0.43743 0.21664
#
# Static dielectric constant tensor:
#      x y z
#    x 1.900710 0.000000 -0.002770 
#    y 0.000000 1.867700 0.000000 
#    z -0.002770 0.000000 1.791850 
# 
# From -- ./inp_files/221905.got.cif
#   From: 2010.05.17/outbox.cif.g08.bks.cpg/sg15_111_cif.got.tgz:221905.got - 2010.06.03 18:47:42.
