data_PCOD9260301
_publ_section_title
;
Structure prediction by ZEFSAII (Michael W. Deem and Ramdas Pophale) SiO2 
 PCOD9260301
Probable space group: C 2/C
;
_chemical_formula_sum "Si O2"
_cell_formula_units_Z 52
_cell_length_a 22.350098
_cell_length_b 11.546469
_cell_length_c 13.315163
_cell_angle_alpha 90.000000
_cell_angle_beta 138.863214
_cell_angle_gamma 90.000000
_cell_volume 2260.517557
_symmetry_space_group_name_H-M "C 2/C"
_symmetry_group_IT_number 15
_symmetry_cell_setting 'monoclinic'
loop_
_space_group_symop_operation_xyz
x,y,z
-x,y,1/2-z
-x,-y,-z
x,-y,1/2+z
1/2+x,1/2+y,z
1/2-x,1/2+y,1/2-z
1/2-x,1/2-y,-z
1/2+x,1/2-y,1/2+z
loop_
_atom_site_type_symbol
_atom_site_label
_atom_site_fract_x
_atom_site_fract_y
_atom_site_fract_z
Si Si1 0.586663 0.500336 0.467538
Si Si2 0.733145 0.373738 0.032343
Si Si3 0.905975 0.496671 0.821391
Si Si4 0.884203 0.999461 0.775609
Si Si5 0.135737 0.753677 0.462811
Si Si6 0.000000 0.577665 0.250000
Si Si7 0.333076 0.755196 0.732173
O O1 0.648559 0.604056 0.502457
O O2 0.618976 0.450114 0.616345
O O3 0.480697 0.532377 0.346596
O O4 0.602095 0.385377 0.420190
O O5 0.822073 0.414091 0.207050
O O6 0.750000 0.250000 0.000000
O O7 0.700389 0.460357 0.899822
O O8 0.936952 0.493542 0.743511
O O9 0.865968 0.376528 0.814679
O O10 0.000000 0.500000 0.000000
O O11 0.886673 0.135979 0.806664
O O12 0.057644 0.664998 0.393715
O O13 0.230346 0.737138 0.637889
O O14 0.159901 0.721503 0.378733
#
# Coordination Sequence:
#
# PCOD9260301 Si02
#       7
#     8   8   8   8   8   4   8
#     4  11  23  42  71 106 141 185 235 298 357 446
#     4  12  27  48  70 102 151 198 236 301 376 440
#     4  11  25  45  68  98 140 184 234 293 362 430
#     4  11  24  42  73 108 138 184 247 294 366 431
#     4  10  18  36  69  98 130 167 224 285 348 408
#     4  10  22  38  70 102 128 174 228 298 350 416
#     4  10  19  39  70  98 127 172 232 288 348 409
#
# _framework density 23.003581000000001
#
# number of rings (size 3 to 8) (size 9 to 14) (size 15 to 20)
#    0.000    1.231    3.077    4.154    0.000    7.385 
#    5.538    0.000    0.000    0.000    0.000    0.000 
#    0.000    0.000    0.000    0.000    0.000    0.000 
#
# Total GULP energy -144920.805239 kJ/mol
# GULP energy per Si atom -5573.877125 kJ/mol
# Density = 2.295122 g / cm^3
# Si number density = 23.003581 Si / 1000 Ang^3
#
#
#
# Elastic Constant Matrix: (Units=GPa)
#
#
# Indices 1 2 3 4 5 6 
#
# 1 91.0036 33.7330 27.7147 0.0000 24.6014 0.0000
# 2 33.7330 91.8367 38.7813 0.0000 21.6299 0.0000
# 3 27.7147 38.7813 135.0851 0.0000 20.3677 0.0000
# 4 0.0000 0.0000 0.0000 16.3098 0.0000 7.3383
# 5 24.6014 21.6299 20.3677 0.0000 35.4499 0.0000
# 6 0.0000 0.0000 0.0000 7.3383 0.0000 25.8734
#
#
#
# Elastic Compliance Matrix: (Units=1/GPa)
#
#
# Indices 1 2 3 4 5 6 
#
# 1 0.014491 -0.003140 -0.000924 0.000000 -0.007609 0.000000
# 2 -0.003140 0.014377 -0.002725 0.000000 -0.005027 0.000000
# 3 -0.000924 -0.002725 0.008789 0.000000 -0.002745 0.000000
# 4 0.000000 0.000000 0.000000 0.070281 0.000000 -0.019933
# 5 -0.007609 -0.005027 -0.002745 0.000000 0.038134 0.000000
# 6 0.000000 0.000000 0.000000 -0.019933 0.000000 0.044303
#
#
# Mechanical properties :
#
#
# Convention : Reuss Voigt Hill
#
# Bulk Modulus (GPa) = 41.53246 57.59818 49.56532
# Shear Modulus (GPa) = 23.58696 30.03971 26.81334
#
# Velocity S-wave (km/s) = 3.20560 3.61760 3.41782
# Velocity P-wave (km/s) = 5.63872 6.52247 6.09663
#
# Compressibility (1/GPa) = 0.02407755
#
# Stress axis : x y z
#
# Youngs Moduli (GPa) = 69.00744 69.55419 113.78278
#
# Poissons Ratio (x) = 0.21842 0.10516
# Poissons Ratio (y) = 0.21671 0.31009
# Poissons Ratio (z) = 0.06378 0.18955
#
# Static dielectric constant tensor:
#      x y z
#    x 1.911080 0.000000 -0.292880 
#    y 0.000000 1.904880 0.000000 
#    z -0.292880 0.000000 0.737470 
# 
# From -- ./inp_files/173181.got.cif
#   From: 2010.05.17/outbox.cif.g08.bks.cpg/sg15_87_cif.got.tgz:173181.got - 2010.06.03 18:47:42.
