data_PCOD9260430
_publ_section_title
;
Structure prediction by ZEFSAII (Michael W. Deem and Ramdas Pophale) SiO2 
 PCOD9260430
Probable space group: C 2/C
;
_chemical_formula_sum "Si O2"
_cell_formula_units_Z 44
_cell_length_a 8.660654
_cell_length_b 18.372834
_cell_length_c 14.304835
_cell_angle_alpha 90.000000
_cell_angle_beta 68.574584
_cell_angle_gamma 90.000000
_cell_volume 2118.897077
_symmetry_space_group_name_H-M "C 2/C"
_symmetry_group_IT_number 15
_symmetry_cell_setting 'monoclinic'
loop_
_space_group_symop_operation_xyz
x,y,z
-x,y,1/2-z
-x,-y,-z
x,-y,1/2+z
1/2+x,1/2+y,z
1/2-x,1/2+y,1/2-z
1/2-x,1/2-y,-z
1/2+x,1/2-y,1/2+z
loop_
_atom_site_type_symbol
_atom_site_label
_atom_site_fract_x
_atom_site_fract_y
_atom_site_fract_z
Si Si1 0.420121 0.704217 0.460276
Si Si2 0.000000 0.728026 0.750000
Si Si3 0.243483 0.405397 0.200730
Si Si4 0.550401 0.686382 0.637593
Si Si5 0.779088 0.440658 0.495325
Si Si6 0.652647 0.914211 0.421858
O O1 0.250000 0.750000 0.500000
O O2 0.512736 0.728093 0.344316
O O3 0.506989 0.715873 0.542857
O O4 0.362650 0.619962 0.460797
O O5 0.845144 0.673103 0.794492
O O6 0.435067 0.385844 0.168464
O O7 0.212206 0.451892 0.117366
O O8 0.165900 0.436314 0.310718
O O9 0.500000 0.723715 0.750000
O O10 0.739843 0.659105 0.594951
O O11 0.763849 0.519633 0.542314
O O12 0.958220 0.408621 0.488682
#
# Coordination Sequence:
#
# PCOD9260430 Si02
#       6
#     8   4   8   8   8   8
#     4  11  21  39  62  85 119 161 208 236 295 373
#     4  12  20  38  66  80 112 166 208 230 294 366
#     4  10  18  37  62  79 108 162 196 231 300 371
#     4   9  20  37  61  87 116 149 200 252 291 351
#     4  10  20  36  61  83 118 155 193 245 296 365
#     4  10  19  36  60  89 114 148 197 247 308 347
#
# _framework density 20.765521
#
# number of rings (size 3 to 8) (size 9 to 14) (size 15 to 20)
#    0.000    1.818    5.455    0.000    0.000    2.909 
#    8.182    8.182    0.000    0.000    0.000    0.000 
#    0.000    0.000    0.000    0.000    0.000    0.000 
#
# Total GULP energy -122537.678484 kJ/mol
# GULP energy per Si atom -5569.894477 kJ/mol
# Density = 2.071826 g / cm^3
# Si number density = 20.765521 Si / 1000 Ang^3
#
#
#
# Elastic Constant Matrix: (Units=GPa)
#
#
# Indices 1 2 3 4 5 6 
#
# 1 59.8233 11.9333 22.3186 0.0000 13.1247 0.0000
# 2 11.9333 47.3575 55.3857 0.0000 17.9054 0.0000
# 3 22.3186 55.3857 152.3131 0.0000 39.1827 0.0000
# 4 0.0000 0.0000 0.0000 39.4828 0.0000 7.9183
# 5 13.1247 17.9054 39.1827 0.0000 43.5138 0.0000
# 6 0.0000 0.0000 0.0000 7.9183 0.0000 22.3899
#
#
#
# Elastic Compliance Matrix: (Units=1/GPa)
#
#
# Indices 1 2 3 4 5 6 
#
# 1 0.018320 -0.002056 -0.000954 0.000000 -0.003821 0.000000
# 2 -0.002056 0.037520 -0.012403 0.000000 -0.003650 0.000000
# 3 -0.000954 -0.012403 0.012791 0.000000 -0.006127 0.000000
# 4 0.000000 0.000000 0.000000 0.027261 0.000000 -0.009641
# 5 -0.003821 -0.003650 -0.006127 0.000000 0.031153 0.000000
# 6 0.000000 0.000000 0.000000 -0.009641 0.000000 0.048073
#
#
# Mechanical properties :
#
#
# Convention : Reuss Voigt Hill
#
# Bulk Modulus (GPa) = 26.45135 48.75212 37.60174
# Shear Modulus (GPa) = 22.87848 32.40105 27.63976
#
# Velocity S-wave (km/s) = 3.32287 3.95439 3.65230
# Velocity P-wave (km/s) = 5.24287 6.66168 5.99440
#
# Compressibility (1/GPa) = 0.03780525
#
# Stress axis : x y z
#
# Youngs Moduli (GPa) = 54.58464 26.65247 78.17719
#
# Poissons Ratio (x) = 0.05480 0.07457
# Poissons Ratio (y) = 0.11224 0.96964
# Poissons Ratio (z) = 0.05207 0.33057
#
# Static dielectric constant tensor:
#      x y z
#    x 1.857990 0.000000 -0.030480 
#    y 0.000000 1.727080 0.000000 
#    z -0.030480 0.000000 2.000750 
# 
# From -- ./inp_files/134325.got.cif
#   From: 2010.05.17/outbox.cif.g08.bks.cpg/sg15_68_cif.got.tgz:134325.got - 2010.06.03 18:47:42.
