data_PCOD9260724
_publ_section_title
;
Structure prediction by ZEFSAII (Michael W. Deem and Ramdas Pophale) SiO2 
 PCOD9260724
Probable space group: C 2/C
;
_chemical_formula_sum "Si O2"
_cell_formula_units_Z 40
_cell_length_a 16.099435
_cell_length_b 14.471402
_cell_length_c 7.593697
_cell_angle_alpha 90.000000
_cell_angle_beta 65.395483
_cell_angle_gamma 90.000000
_cell_volume 1608.553481
_symmetry_space_group_name_H-M "C 2/C"
_symmetry_group_IT_number 15
_symmetry_cell_setting 'monoclinic'
loop_
_space_group_symop_operation_xyz
x,y,z
-x,y,1/2-z
-x,-y,-z
x,-y,1/2+z
1/2+x,1/2+y,z
1/2-x,1/2+y,1/2-z
1/2-x,1/2-y,-z
1/2+x,1/2-y,1/2+z
loop_
_atom_site_type_symbol
_atom_site_label
_atom_site_fract_x
_atom_site_fract_y
_atom_site_fract_z
Si Si1 0.451162 0.088840 0.975647
Si Si2 0.477976 0.708859 0.483271
Si Si3 0.266515 0.306042 0.169814
Si Si4 0.245979 0.469987 0.971879
Si Si5 0.333747 0.636279 0.091154
O O1 0.500000 0.108197 0.750000
O O2 0.470155 0.184559 0.055359
O O3 0.347126 0.057795 0.045480
O O4 0.500000 0.000000 0.000000
O O5 0.500000 0.702876 0.250000
O O6 0.373783 0.679267 0.604371
O O7 0.558493 0.656599 0.514252
O O8 0.214962 0.236414 0.345679
O O9 0.250000 0.250000 0.000000
O O10 0.230785 0.408639 0.163627
O O11 0.321999 0.421085 0.784120
O O12 0.281031 0.570884 0.998168
#
# Coordination Sequence:
#
# PCOD9260724 Si02
#       5
#     8   8   8   8   8
#     4  11  22  37  63  92 121 163 214 260 311 376
#     4  11  19  38  65  88 125 171 214 253 312 394
#     4  10  18  38  62  88 123 170 214 250 311 396
#     4  11  22  41  66  93 127 167 215 268 318 380
#     4  11  23  40  66  97 126 166 219 267 319 381
#
# _framework density 24.867063000000002
#
# number of rings (size 3 to 8) (size 9 to 14) (size 15 to 20)
#    0.000    1.200    8.000    2.400    0.000    0.800 
#    0.000    4.000    0.000    0.000    0.000    0.000 
#    0.000    0.000    0.000    0.000    0.000    0.000 
#
# Total GULP energy -111686.117282 kJ/mol
# GULP energy per Si atom -5584.305864 kJ/mol
# Density = 2.481046 g / cm^3
# Si number density = 24.867063 Si / 1000 Ang^3
#
#
#
# Elastic Constant Matrix: (Units=GPa)
#
#
# Indices 1 2 3 4 5 6 
#
# 1 156.3826 55.2900 23.8549 0.0000 -34.4431 0.0000
# 2 55.2900 123.7814 9.1083 0.0000 -13.5463 0.0000
# 3 23.8549 9.1083 51.5325 0.0000 -6.0760 0.0000
# 4 0.0000 0.0000 0.0000 33.2863 0.0000 1.4397
# 5 -34.4431 -13.5463 -6.0760 0.0000 43.3952 0.0000
# 6 0.0000 0.0000 0.0000 1.4397 0.0000 34.1437
#
#
#
# Elastic Compliance Matrix: (Units=1/GPa)
#
#
# Indices 1 2 3 4 5 6 
#
# 1 0.009334 -0.003294 -0.003036 0.000000 0.005955 0.000000
# 2 -0.003294 0.009599 -0.000129 0.000000 0.000364 0.000000
# 3 -0.003036 -0.000129 0.020890 0.000000 0.000475 0.000000
# 4 0.000000 0.000000 0.000000 0.030097 0.000000 -0.001269
# 5 0.005955 0.000364 0.000475 0.000000 0.027951 0.000000
# 6 0.000000 0.000000 0.000000 -0.001269 0.000000 0.029341
#
#
# Mechanical properties :
#
#
# Convention : Reuss Voigt Hill
#
# Bulk Modulus (GPa) = 37.16903 56.46699 46.81801
# Shear Modulus (GPa) = 33.53469 38.39461 35.96465
#
# Velocity S-wave (km/s) = 3.67626 3.93363 3.80712
# Velocity P-wave (km/s) = 5.74451 6.58697 6.18011
#
# Compressibility (1/GPa) = 0.02690412
#
# Stress axis : x y z
#
# Youngs Moduli (GPa) = 107.13524 104.17230 47.87083
#
# Poissons Ratio (x) = 0.34316 0.14536
# Poissons Ratio (y) = 0.35292 0.00617
# Poissons Ratio (z) = 0.32531 0.01343
#
# Static dielectric constant tensor:
#      x y z
#    x 2.020020 0.000000 0.075870 
#    y 0.000000 44.363300 0.000000 
#    z 0.075870 0.000000 2.128090 
# 
# From -- ./inp_files/37846.got.cif
#   From: 2010.05.17/outbox.cif.g08.bks.cpg/sg15_19_cif.got.tgz:37846.got - 2010.06.03 18:47:42.
