data_PCOD9260603
_publ_section_title
;
Structure prediction by ZEFSAII (Michael W. Deem and Ramdas Pophale) SiO2 
 PCOD9260603
Probable space group: C 2/C
;
_chemical_formula_sum "Si O2"
_cell_formula_units_Z 64
_cell_length_a 17.076788
_cell_length_b 19.436941
_cell_length_c 16.551499
_cell_angle_alpha 90.000000
_cell_angle_beta 146.486568
_cell_angle_gamma 90.000000
_cell_volume 3033.295464
_symmetry_space_group_name_H-M "C 2/C"
_symmetry_group_IT_number 15
_symmetry_cell_setting 'monoclinic'
loop_
_space_group_symop_operation_xyz
x,y,z
-x,y,1/2-z
-x,-y,-z
x,-y,1/2+z
1/2+x,1/2+y,z
1/2-x,1/2+y,1/2-z
1/2-x,1/2-y,-z
1/2+x,1/2-y,1/2+z
loop_
_atom_site_type_symbol
_atom_site_label
_atom_site_fract_x
_atom_site_fract_y
_atom_site_fract_z
Si Si1 0.176955 0.827995 0.574933
Si Si2 0.698959 0.926360 0.696837
Si Si3 0.579494 0.447791 0.404759
Si Si4 0.392140 0.057474 0.560844
Si Si5 0.314435 0.580766 0.789980
Si Si6 0.597320 0.097487 0.465929
Si Si7 0.024778 0.262049 0.685437
Si Si8 0.725869 0.076730 0.879618
O O1 0.196008 0.871461 0.672962
O O2 0.182753 0.882637 0.505706
O O3 0.312291 0.779042 0.685799
O O4 0.038029 0.783039 0.440736
O O5 0.664796 0.918002 0.573795
O O6 0.551349 0.919522 0.617499
O O7 0.757743 0.003072 0.756403
O O8 0.500000 0.453754 0.250000
O O9 0.462916 0.430403 0.373381
O O10 0.665741 0.514772 0.505910
O O11 0.562834 0.061576 0.711740
O O12 0.314068 0.100486 0.563780
O O13 0.360621 0.974659 0.540787
O O14 0.211822 0.612440 0.633970
O O15 0.298052 0.614129 0.864693
O O16 0.562753 0.166240 0.387510
O O17 0.000000 0.225969 0.750000
#
# Coordination Sequence:
#
# PCOD9260603 Si02
#       8
#     8   8   8   8   8   8   8   8
#     4  11  25  41  59  81 119 159 209 249 301 346
#     4  10  18  38  56  86 118 154 199 249 303 361
#     4  12  25  37  54  83 126 168 202 242 300 361
#     4  10  19  33  61  86 121 152 198 245 301 374
#     4  11  20  35  58  83 121 155 198 242 306 363
#     4  10  19  33  58  84 117 157 200 240 300 357
#     4  11  25  39  60  83 118 159 214 256 290 352
#     4  11  20  34  54  89 118 155 197 238 304 361
#
# _framework density 21.099163999999998
#
# number of rings (size 3 to 8) (size 9 to 14) (size 15 to 20)
#    0.000    1.250    3.750    4.125    7.000    0.000 
#    0.000    0.000    0.000    0.000    0.000    0.875 
#    7.500    0.125    0.000    0.000    0.000    0.000 
#
# Total GULP energy -178562.468082 kJ/mol
# GULP energy per Si atom -5580.077128 kJ/mol
# Density = 2.105114 g / cm^3
# Si number density = 21.099164 Si / 1000 Ang^3
#
#
#
# Elastic Constant Matrix: (Units=GPa)
#
#
# Indices 1 2 3 4 5 6 
#
# 1 107.6842 -7.1313 33.8858 -0.0009 -10.0929 -0.0004
# 2 -7.1313 26.5784 23.9134 -0.0005 -2.5426 -0.0001
# 3 33.8858 23.9134 136.1049 -0.0022 -17.9972 -0.0012
# 4 -0.0009 -0.0005 -0.0022 43.3330 -0.0012 -6.6542
# 5 -10.0929 -2.5426 -17.9972 -0.0012 43.0410 -0.0006
# 6 -0.0004 -0.0001 -0.0012 -6.6542 -0.0006 8.1499
#
#
#
# Elastic Compliance Matrix: (Units=1/GPa)
#
#
# Indices 1 2 3 4 5 6 
#
# 1 0.010999 0.006392 -0.003674 0.000000 0.001421 0.000000
# 2 0.006392 0.048423 -0.010080 0.000000 0.000145 0.000000
# 3 -0.003674 -0.010080 0.010416 0.000001 0.002899 0.000002
# 4 0.000000 0.000000 0.000001 0.026385 0.000001 0.021543
# 5 0.001421 0.000145 0.002899 0.000001 0.024787 0.000003
# 6 0.000000 0.000000 0.000002 0.021543 0.000003 0.140290
#
#
# Mechanical properties :
#
#
# Convention : Reuss Voigt Hill
#
# Bulk Modulus (GPa) = 18.14385 41.30036 29.72210
# Shear Modulus (GPa) = 16.98395 33.55141 25.26768
#
# Velocity S-wave (km/s) = 2.84026 3.99203 3.46434
# Velocity P-wave (km/s) = 4.40160 6.39260 5.48814
#
# Compressibility (1/GPa) = 0.05511510
#
# Stress axis : x y z
#
# Youngs Moduli (GPa) = 90.91803 20.65137 96.00388
#
# Poissons Ratio (x) = -0.13201 0.35268
# Poissons Ratio (y) = -0.58118 0.96774
# Poissons Ratio (z) = 0.33400 0.20817
#
# Static dielectric constant tensor:
#      x y z
#    x 1.837380 0.000000 0.019560 
#    y 0.000000 1.767700 0.000000 
#    z 0.019560 0.000000 1.797540 
# 
# From -- ./inp_files/211990.got.cif
#   From: 2010.05.17/outbox.cif.g08.bks.cpg/sg15_106_cif.got.tgz:211990.got - 2010.06.03 18:47:42.
