data_PCOD9260307
_publ_section_title
;
Structure prediction by ZEFSAII (Michael W. Deem and Ramdas Pophale) SiO2 
 PCOD9260307
Probable space group: C 2/C
;
_chemical_formula_sum "Si O2"
_cell_formula_units_Z 48
_cell_length_a 13.218667
_cell_length_b 10.770523
_cell_length_c 14.833289
_cell_angle_alpha 90.000000
_cell_angle_beta 71.672716
_cell_angle_gamma 90.000000
_cell_volume 2004.722868
_symmetry_space_group_name_H-M "C 2/C"
_symmetry_group_IT_number 15
_symmetry_cell_setting 'monoclinic'
loop_
_space_group_symop_operation_xyz
x,y,z
-x,y,1/2-z
-x,-y,-z
x,-y,1/2+z
1/2+x,1/2+y,z
1/2-x,1/2+y,1/2-z
1/2-x,1/2-y,-z
1/2+x,1/2-y,1/2+z
loop_
_atom_site_type_symbol
_atom_site_label
_atom_site_fract_x
_atom_site_fract_y
_atom_site_fract_z
Si Si1 0.301574 0.384937 0.547671
Si Si2 0.407986 0.778589 0.351034
Si Si3 0.086623 0.441882 0.650815
Si Si4 0.912494 0.068595 0.653587
Si Si5 0.002629 0.293543 0.525067
Si Si6 0.152844 0.989119 0.640087
O O1 0.189910 0.355208 0.625599
O O2 0.363673 0.487241 0.588111
O O3 0.382694 0.272902 0.516735
O O4 0.279101 0.445834 0.456344
O O5 0.500000 0.757971 0.250000
O O6 0.452245 0.786341 0.440456
O O7 0.331705 0.659606 0.363015
O O8 0.369389 0.918883 0.346517
O O9 0.026437 0.418948 0.573135
O O10 0.000000 0.414711 0.750000
O O11 0.933294 0.206161 0.611390
O O12 0.842246 0.049590 0.762793
O O13 0.029859 0.012797 0.643324
#
# Coordination Sequence:
#
# PCOD9260307 Si02
#       6
#     8   8   8   8   8   8
#     4  11  21  42  66  99 122 164 224 267 312 378
#     4  11  20  42  66  90 132 174 206 255 326 387
#     4  11  28  43  59  91 141 174 203 260 335 389
#     4  10  19  37  71 100 122 155 217 277 312 363
#     4  11  21  43  70  93 126 169 217 270 318 374
#     4  10  18  36  71  99 122 157 217 267 318 361
#
# _framework density 23.943458
#
# number of rings (size 3 to 8) (size 9 to 14) (size 15 to 20)
#    0.000    1.333    5.000    2.000    4.667    0.667 
#    9.000    0.000    0.000    0.000    0.000    0.000 
#    0.000    0.000    0.000    0.000    0.000    0.000 
#
# Total GULP energy -134226.930078 kJ/mol
# GULP energy per Si atom -5592.788753 kJ/mol
# Density = 2.388896 g / cm^3
# Si number density = 23.943458 Si / 1000 Ang^3
#
#
#
# Elastic Constant Matrix: (Units=GPa)
#
#
# Indices 1 2 3 4 5 6 
#
# 1 28.4341 14.2472 35.8618 0.0000 -2.2037 0.0000
# 2 14.2472 54.8649 35.3217 0.0000 3.2873 0.0000
# 3 35.8618 35.3217 149.0810 0.0000 7.2460 0.0000
# 4 0.0000 0.0000 0.0000 11.0795 0.0000 9.6054
# 5 -2.2037 3.2873 7.2460 0.0000 27.5667 0.0000
# 6 0.0000 0.0000 0.0000 9.6054 0.0000 24.2442
#
#
#
# Elastic Compliance Matrix: (Units=1/GPa)
#
#
# Indices 1 2 3 4 5 6 
#
# 1 0.054157 -0.006977 -0.011776 0.000000 0.008257 0.000000
# 2 -0.006977 0.022448 -0.003528 0.000000 -0.002307 0.000000
# 3 -0.011776 -0.003528 0.010536 0.000000 -0.003290 0.000000
# 4 0.000000 0.000000 0.000000 0.137479 0.000000 -0.054468
# 5 0.008257 -0.002307 -0.003290 0.000000 0.038076 0.000000
# 6 0.000000 0.000000 0.000000 -0.054468 0.000000 0.062827
#
#
# Mechanical properties :
#
#
# Convention : Reuss Voigt Hill
#
# Bulk Modulus (GPa) = 23.48553 44.80459 34.14506
# Shear Modulus (GPa) = 13.01145 22.37470 17.69308
#
# Velocity S-wave (km/s) = 2.33367 3.06024 2.72132
# Velocity P-wave (km/s) = 4.13418 5.58928 4.91587
#
# Compressibility (1/GPa) = 0.04257940
#
# Stress axis : x y z
#
# Youngs Moduli (GPa) = 18.46497 44.54755 94.90993
#
# Poissons Ratio (x) = 0.31080 1.11764
# Poissons Ratio (y) = 0.12883 0.33486
# Poissons Ratio (z) = 0.21744 0.15717
#
# Static dielectric constant tensor:
#      x y z
#    x 1.882200 0.000000 -0.004620 
#    y 0.000000 1.952440 0.000000 
#    z -0.004620 0.000000 1.910080 
# 
# From -- ./inp_files/152463.got.cif
#   From: 2010.05.17/outbox.cif.g08.bks.cpg/sg15_77_cif.got.tgz:152463.got - 2010.06.03 18:47:42.
