data_PCOD9260086
_publ_section_title
;
Structure prediction by ZEFSAII (Michael W. Deem and Ramdas Pophale) SiO2 
 PCOD9260086
Probable space group: C 2/C
;
_chemical_formula_sum "Si O2"
_cell_formula_units_Z 64
_cell_length_a 9.918397
_cell_length_b 13.197076
_cell_length_c 28.204498
_cell_angle_alpha 90.000000
_cell_angle_beta 42.860765
_cell_angle_gamma 90.000000
_cell_volume 2511.229408
_symmetry_space_group_name_H-M "C 2/C"
_symmetry_group_IT_number 15
_symmetry_cell_setting 'monoclinic'
loop_
_space_group_symop_operation_xyz
x,y,z
-x,y,1/2-z
-x,-y,-z
x,-y,1/2+z
1/2+x,1/2+y,z
1/2-x,1/2+y,1/2-z
1/2-x,1/2-y,-z
1/2+x,1/2-y,1/2+z
loop_
_atom_site_type_symbol
_atom_site_label
_atom_site_fract_x
_atom_site_fract_y
_atom_site_fract_z
Si Si1 0.192860 0.615955 0.251771
Si Si2 0.193062 0.368652 0.855437
Si Si3 0.030556 0.859429 0.394617
Si Si4 0.420971 0.740828 0.069094
Si Si5 0.242955 0.458025 0.635872
Si Si6 0.359259 0.974380 0.991096
Si Si7 0.792452 0.168963 0.432012
Si Si8 0.004568 0.837630 0.198265
O O1 0.992699 0.548583 0.307233
O O2 0.115773 0.732115 0.264716
O O3 0.285823 0.613273 0.280080
O O4 0.289077 0.584028 0.177441
O O5 0.321905 0.365614 0.870477
O O6 0.090251 0.257482 0.880353
O O7 0.017045 0.449325 0.910183
O O8 0.801220 0.884884 0.463595
O O9 0.072955 0.891125 0.328664
O O10 0.166257 0.931334 0.391946
O O11 0.337444 0.629322 0.079091
O O12 0.548640 0.741517 0.084887
O O13 0.229933 0.809236 0.127006
O O14 0.575865 0.779068 0.990465
O O15 0.225202 0.074890 0.026688
O O16 0.500000 0.000000 0.000000
O O17 0.000000 0.891507 0.250000
#
# Coordination Sequence:
#
# PCOD9260086 Si02
#       8
#     8   8   8   8   8   8   8   8
#     4   9  19  40  65  82 119 163 202 254 308 363
#     4  10  22  40  61  91 122 160 202 250 309 364
#     4  11  22  37  61  87 122 156 199 254 300 362
#     4  10  19  38  65  83 122 162 201 249 305 365
#     4  10  19  40  62  90 120 159 206 252 303 370
#     4  10  20  38  58  84 121 151 194 252 302 353
#     4  10  21  39  62  93 121 159 204 258 310 360
#     4  10  18  36  62  86 110 164 212 242 298 367
#
# _framework density 25.485523000000001
#
# number of rings (size 3 to 8) (size 9 to 14) (size 15 to 20)
#    0.000    2.000    3.750    1.875    0.000    2.000 
#   11.250    3.125    0.000    0.000    0.000    0.000 
#    0.000    0.000    0.000    0.000    0.000    0.000 
#
# Total GULP energy -178887.394488 kJ/mol
# GULP energy per Si atom -5590.231078 kJ/mol
# Density = 2.542752 g / cm^3
# Si number density = 25.485523 Si / 1000 Ang^3
#
#
#
# Elastic Constant Matrix: (Units=GPa)
#
#
# Indices 1 2 3 4 5 6 
#
# 1 64.6768 11.6641 9.4035 0.0000 17.1478 0.0001
# 2 11.6641 73.1734 18.4351 0.0000 -11.2950 0.0001
# 3 9.4035 18.4351 106.4550 -0.0001 16.1104 0.0003
# 4 0.0000 0.0000 -0.0001 17.8246 0.0000 1.1902
# 5 17.1478 -11.2950 16.1104 0.0000 48.3188 -0.0001
# 6 0.0001 0.0001 0.0003 1.1902 -0.0001 23.5948
#
#
#
# Elastic Compliance Matrix: (Units=1/GPa)
#
#
# Indices 1 2 3 4 5 6 
#
# 1 0.018151 -0.004109 0.000241 0.000000 -0.007482 0.000000
# 2 -0.004109 0.016161 -0.003400 0.000000 0.006369 0.000000
# 3 0.000241 -0.003400 0.010631 0.000000 -0.004425 0.000000
# 4 0.000000 0.000000 0.000000 0.056292 0.000000 -0.002840
# 5 -0.007482 0.006369 -0.004425 0.000000 0.026315 0.000000
# 6 0.000000 0.000000 0.000000 -0.002840 0.000000 0.042525
#
#
# Mechanical properties :
#
#
# Convention : Reuss Voigt Hill
#
# Bulk Modulus (GPa) = 32.88731 35.92341 34.40536
# Shear Modulus (GPa) = 25.67431 31.60115 28.63773
#
# Velocity S-wave (km/s) = 3.17741 3.52513 3.35578
# Velocity P-wave (km/s) = 5.13747 5.54030 5.34268
#
# Compressibility (1/GPa) = 0.03040687
#
# Stress axis : x y z
#
# Youngs Moduli (GPa) = 55.09225 61.87796 94.06721
#
# Poissons Ratio (x) = 0.25426 -0.02263
# Poissons Ratio (y) = 0.22637 0.31979
# Poissons Ratio (z) = -0.01325 0.21036
#
# Static dielectric constant tensor:
#      x y z
#    x 2.069500 0.000000 0.033610 
#    y 0.000000 2.027840 0.000000 
#    z 0.033610 0.000000 1.997920 
# 
# From -- ./inp_files/311169.got.cif
#   From: 2010.05.17/outbox.cif.g08.bks.cpg/sg15_156_cif.got.tgz:311169.got - 2010.06.03 18:47:42.
