data_PCOD9260028
_publ_section_title
;
Structure prediction by ZEFSAII (Michael W. Deem and Ramdas Pophale) SiO2 
 PCOD9260028
Probable space group: C 2/C
;
_chemical_formula_sum "Si O2"
_cell_formula_units_Z 60
_cell_length_a 27.353138
_cell_length_b 20.375280
_cell_length_c 13.752785
_cell_angle_alpha 90.000000
_cell_angle_beta 158.680254
_cell_angle_gamma 90.000000
_cell_volume 2786.712615
_symmetry_space_group_name_H-M "C 2/C"
_symmetry_group_IT_number 15
_symmetry_cell_setting 'monoclinic'
loop_
_space_group_symop_operation_xyz
x,y,z
-x,y,1/2-z
-x,-y,-z
x,-y,1/2+z
1/2+x,1/2+y,z
1/2-x,1/2+y,1/2-z
1/2-x,1/2-y,-z
1/2+x,1/2-y,1/2+z
loop_
_atom_site_type_symbol
_atom_site_label
_atom_site_fract_x
_atom_site_fract_y
_atom_site_fract_z
Si Si1 0.617447 0.778043 0.586240
Si Si2 0.619617 0.493371 0.637305
Si Si3 0.775524 0.853370 0.480176
Si Si4 0.802950 0.289078 0.974726
Si Si5 0.500000 0.399974 0.250000
Si Si6 0.839899 0.489149 0.206096
Si Si7 0.291179 0.629229 0.508316
Si Si8 0.089491 0.133120 0.557059
O O1 0.456963 0.781960 0.296985
O O2 0.672470 0.811141 0.589709
O O3 0.679476 0.814916 0.792448
O O4 0.648507 0.701220 0.629525
O O5 0.500000 0.500000 0.500000
O O6 0.571267 0.443123 0.466093
O O7 0.638589 0.562247 0.615938
O O8 0.757937 0.481620 0.952017
O O9 0.736694 0.783246 0.361342
O O10 0.768917 0.837337 0.583740
O O11 0.692658 0.919110 0.303967
O O12 0.930775 0.866305 0.743645
O O13 0.605403 0.358053 0.385987
O O14 0.773012 0.556372 0.123501
O O15 0.000000 0.500000 0.500000
O O16 0.371317 0.632934 0.756771
#
# Coordination Sequence:
#
# PCOD9260028 Si02
#       8
#     8   8   8   8   4   8   8   8
#     4  10  21  36  55  84 121 154 202 253 310 365
#     4  11  21  41  62  95 122 158 218 258 312 385
#     4  10  18  36  61  83 117 157 204 250 309 367
#     4   9  21  35  56  87 114 156 205 249 303 381
#     4  12  22  38  68  94 122 168 218 272 310 394
#     4  11  22  39  64  90 129 164 201 267 327 378
#     4  11  23  37  57  91 120 160 212 252 324 376
#     4  10  20  38  61  82 118 161 206 256 305 370
#
# _framework density 21.530746000000001
#
# number of rings (size 3 to 8) (size 9 to 14) (size 15 to 20)
#    0.000    1.600    4.000    1.200    3.733    3.200 
#    0.000    0.000    0.000    0.000    0.000    0.000 
#    0.000    0.000    0.000    0.000    0.000    0.000 
#
# Total GULP energy -167299.061189 kJ/mol
# GULP energy per Si atom -5576.635373 kJ/mol
# Density = 2.148174 g / cm^3
# Si number density = 21.530746 Si / 1000 Ang^3
#
#
#
# Elastic Constant Matrix: (Units=GPa)
#
#
# Indices 1 2 3 4 5 6 
#
# 1 51.4376 -17.4930 0.4260 0.0000 5.6057 0.0000
# 2 -17.4930 76.7854 12.6727 0.0000 2.5358 0.0000
# 3 0.4260 12.6727 96.4466 0.0000 -6.3321 0.0000
# 4 0.0000 0.0000 0.0000 35.2314 0.0000 1.4156
# 5 5.6057 2.5358 -6.3321 0.0000 14.3805 0.0000
# 6 0.0000 0.0000 0.0000 1.4156 0.0000 19.4610
#
#
#
# Elastic Compliance Matrix: (Units=1/GPa)
#
#
# Indices 1 2 3 4 5 6 
#
# 1 0.022547 0.005737 -0.001541 0.000000 -0.010479 0.000000
# 2 0.005737 0.014917 -0.002374 0.000000 -0.005912 0.000000
# 3 -0.001541 -0.002374 0.011074 0.000000 0.005896 0.000000
# 4 0.000000 0.000000 0.000000 0.028467 0.000000 -0.002071
# 5 -0.010479 -0.005912 0.005896 0.000000 0.077262 0.000000
# 6 0.000000 0.000000 0.000000 -0.002071 0.000000 0.051535
#
#
# Mechanical properties :
#
#
# Convention : Reuss Voigt Hill
#
# Bulk Modulus (GPa) = 19.16350 23.98678 21.57514
# Shear Modulus (GPa) = 22.77353 29.08549 25.92951
#
# Velocity S-wave (km/s) = 3.25579 3.67942 3.47407
# Velocity P-wave (km/s) = 4.80140 5.40516 5.11220
#
# Compressibility (1/GPa) = 0.05218253
#
# Stress axis : x y z
#
# Youngs Moduli (GPa) = 44.35191 67.03639 90.30010
#
# Poissons Ratio (x) = -0.38459 0.13919
# Poissons Ratio (y) = -0.25445 0.21433
# Poissons Ratio (z) = 0.06837 0.15911
#
# Static dielectric constant tensor:
#      x y z
#    x 1.810080 0.000000 -0.003330 
#    y 0.000000 1.855090 0.000000 
#    z -0.003330 0.000000 1.770490 
# 
# From -- ./inp_files/183097.got.cif
#   From: 2010.05.17/outbox.cif.g08.bks.cpg/sg15_92_cif.got.tgz:183097.got - 2010.06.03 18:47:42.
