data_PCOD9260163
_publ_section_title
;
Structure prediction by ZEFSAII (Michael W. Deem and Ramdas Pophale) SiO2 
 PCOD9260163
Probable space group: C 2/C
;
_chemical_formula_sum "Si O2"
_cell_formula_units_Z 56
_cell_length_a 15.089828
_cell_length_b 12.297174
_cell_length_c 17.929683
_cell_angle_alpha 90.000000
_cell_angle_beta 131.796581
_cell_angle_gamma 90.000000
_cell_volume 2480.384763
_symmetry_space_group_name_H-M "C 2/C"
_symmetry_group_IT_number 15
_symmetry_cell_setting 'monoclinic'
loop_
_space_group_symop_operation_xyz
x,y,z
-x,y,1/2-z
-x,-y,-z
x,-y,1/2+z
1/2+x,1/2+y,z
1/2-x,1/2+y,1/2-z
1/2-x,1/2-y,-z
1/2+x,1/2-y,1/2+z
loop_
_atom_site_type_symbol
_atom_site_label
_atom_site_fract_x
_atom_site_fract_y
_atom_site_fract_z
Si Si1 0.115989 0.735018 0.207243
Si Si2 0.771585 0.327180 0.582848
Si Si3 0.862364 0.561979 0.647003
Si Si4 0.492064 0.626450 0.513892
Si Si5 0.095086 0.703600 0.959761
Si Si6 0.880724 0.551245 0.400346
Si Si7 0.677703 0.865025 0.218806
O O1 0.133160 0.723718 0.305247
O O2 0.080989 0.620565 0.150701
O O3 0.248400 0.758002 0.251559
O O4 0.044140 0.829030 0.122852
O O5 0.750000 0.250000 0.500000
O O6 0.817464 0.448387 0.587601
O O7 0.646168 0.340272 0.555408
O O8 0.845119 0.668024 0.584680
O O9 0.795187 0.583431 0.686435
O O10 0.000000 0.550480 0.750000
O O11 0.500000 0.500000 0.500000
O O12 0.562130 0.687036 0.485699
O O13 0.961198 0.658938 0.868080
O O14 0.161453 0.631411 0.059176
O O15 0.793827 0.455422 0.327536
O O16 0.000000 0.500000 0.500000
#
# Coordination Sequence:
#
# PCOD9260163 Si02
#       7
#     8   8   8   8   8   8   8
#     4  11  23  40  69  95 137 186 231 279 357 419
#     4  12  27  42  68 103 144 178 232 289 349 416
#     4  10  22  39  68 101 136 175 229 290 340 403
#     4  11  25  47  70  98 141 186 226 290 357 423
#     4   9  20  38  67  95 127 175 232 283 332 420
#     4   9  19  35  61  92 123 171 232 275 328 416
#     4  10  18  36  63  94 131 171 226 280 341 403
#
# _framework density 22.577141999999998
#
# number of rings (size 3 to 8) (size 9 to 14) (size 15 to 20)
#    0.000    1.714    2.857    0.857    4.000    1.143 
#    0.000    6.429    9.429    0.000    0.000    0.000 
#    0.000    0.000    0.000    0.000    0.000    0.000 
#
# Total GULP energy -156138.532128 kJ/mol
# GULP energy per Si atom -5576.376147 kJ/mol
# Density = 2.252576 g / cm^3
# Si number density = 22.577142 Si / 1000 Ang^3
#
#
#
# Elastic Constant Matrix: (Units=GPa)
#
#
# Indices 1 2 3 4 5 6 
#
# 1 55.7624 22.6833 29.4980 0.0000 -3.1631 0.0000
# 2 22.6833 132.8744 80.0601 0.0000 -24.7165 0.0000
# 3 29.4980 80.0601 154.1239 0.0000 -15.7228 0.0000
# 4 0.0000 0.0000 0.0000 47.1985 0.0000 -2.3583
# 5 -3.1631 -24.7165 -15.7228 0.0000 25.4842 0.0000
# 6 0.0000 0.0000 0.0000 -2.3583 0.0000 24.5631
#
#
#
# Elastic Compliance Matrix: (Units=1/GPa)
#
#
# Indices 1 2 3 4 5 6 
#
# 1 0.020220 -0.001838 -0.003032 0.000000 -0.001143 0.000000
# 2 -0.001838 0.012695 -0.005347 0.000000 0.008786 0.000000
# 3 -0.003032 -0.005347 0.009902 0.000000 0.000547 0.000000
# 4 0.000000 0.000000 0.000000 0.021289 0.000000 0.002044
# 5 -0.001143 0.008786 0.000547 0.000000 0.047957 0.000000
# 6 0.000000 0.000000 0.000000 0.002044 0.000000 0.040908
#
#
# Mechanical properties :
#
#
# Convention : Reuss Voigt Hill
#
# Bulk Modulus (GPa) = 44.67369 67.47148 56.07259
# Shear Modulus (GPa) = 27.64490 33.48379 30.56435
#
# Velocity S-wave (km/s) = 3.50303 3.85526 3.68336
# Velocity P-wave (km/s) = 6.01596 7.05458 6.55587
#
# Compressibility (1/GPa) = 0.02238454
#
# Stress axis : x y z
#
# Youngs Moduli (GPa) = 49.45648 78.76821 100.99240
#
# Poissons Ratio (x) = 0.14474 0.30621
# Poissons Ratio (y) = 0.09088 0.53997
# Poissons Ratio (z) = 0.14995 0.42115
#
# Static dielectric constant tensor:
#      x y z
#    x 1.924490 0.000000 0.008610 
#    y 0.000000 1.864660 0.000000 
#    z 0.008610 0.000000 1.887610 
# 
# From -- ./inp_files/210681.got.cif
#   From: 2010.05.17/outbox.cif.g08.bks.cpg/sg15_106_cif.got.tgz:210681.got - 2010.06.03 18:47:42.
