data_PCOD9260663
_publ_section_title
;
Structure prediction by ZEFSAII (Michael W. Deem and Ramdas Pophale) SiO2 
 PCOD9260663
Probable space group: C 2/C
;
_chemical_formula_sum "Si O2"
_cell_formula_units_Z 44
_cell_length_a 16.189374
_cell_length_b 9.634897
_cell_length_c 27.790261
_cell_angle_alpha 90.000000
_cell_angle_beta 150.834311
_cell_angle_gamma 90.000000
_cell_volume 2112.511068
_symmetry_space_group_name_H-M "C 2/C"
_symmetry_group_IT_number 15
_symmetry_cell_setting 'monoclinic'
loop_
_space_group_symop_operation_xyz
x,y,z
-x,y,1/2-z
-x,-y,-z
x,-y,1/2+z
1/2+x,1/2+y,z
1/2-x,1/2+y,1/2-z
1/2-x,1/2-y,-z
1/2+x,1/2-y,1/2+z
loop_
_atom_site_type_symbol
_atom_site_label
_atom_site_fract_x
_atom_site_fract_y
_atom_site_fract_z
Si Si1 0.665981 0.212093 0.198460
Si Si2 0.284610 0.633451 0.977248
Si Si3 0.048069 0.996672 0.170784
Si Si4 0.808199 0.215174 0.888799
Si Si5 0.551631 0.981310 0.725559
Si Si6 0.000000 0.925090 0.750000
O O1 0.666276 0.367414 0.218744
O O2 0.591592 0.223175 0.106114
O O3 0.576237 0.119521 0.193176
O O4 0.847992 0.139568 0.283934
O O5 0.387955 0.509517 0.054510
O O6 0.250000 0.750000 0.000000
O O7 0.385630 0.681279 0.980386
O O8 0.102548 0.583210 0.866119
O O9 0.989830 0.989321 0.196017
O O10 0.663510 0.326980 0.828369
O O11 0.715114 0.077028 0.820704
O O12 0.500000 0.911015 0.750000
#
# Coordination Sequence:
#
# PCOD9260663 Si02
#       6
#     8   8   8   8   8   4
#     4  11  23  41  58  93 123 160 202 254 310 345
#     4  11  20  38  66  91 115 164 211 238 306 366
#     4  11  24  38  67  88 123 164 203 256 295 372
#     4  10  18  39  63  88 120 163 199 248 304 370
#     4  10  21  40  64  86 123 163 201 247 303 371
#     4  10  18  38  60  90 114 162 208 238 306 360
#
# _framework density 20.828292000000001
#
# number of rings (size 3 to 8) (size 9 to 14) (size 15 to 20)
#    0.000    1.455    6.364    1.091    1.273    1.455 
#    0.000    2.727    0.000    0.000    0.000    0.000 
#    0.000    0.000    0.000    0.000    0.000    0.000 
#
# Total GULP energy -122673.697383 kJ/mol
# GULP energy per Si atom -5576.077154 kJ/mol
# Density = 2.078089 g / cm^3
# Si number density = 20.828292 Si / 1000 Ang^3
#
#
#
# Elastic Constant Matrix: (Units=GPa)
#
#
# Indices 1 2 3 4 5 6 
#
# 1 205.6186 46.7040 22.3066 0.0000 -46.3570 0.0000
# 2 46.7040 68.6851 8.9732 0.0000 -8.5444 0.0000
# 3 22.3066 8.9732 30.9945 0.0003 -23.8827 0.0000
# 4 0.0000 0.0000 0.0003 10.1752 0.0000 -4.2370
# 5 -46.3570 -8.5444 -23.8827 0.0000 34.7835 0.0000
# 6 0.0000 0.0000 0.0000 -4.2370 0.0000 32.6687
#
#
#
# Elastic Compliance Matrix: (Units=1/GPa)
#
#
# Indices 1 2 3 4 5 6 
#
# 1 0.008586 -0.004863 0.006636 0.000000 0.014804 0.000000
# 2 -0.004863 0.017924 -0.006987 0.000000 -0.006876 0.000000
# 3 0.006636 -0.006987 0.074326 -0.000002 0.058161 0.000000
# 4 0.000000 0.000000 -0.000002 0.103889 -0.000002 0.013474
# 5 0.014804 -0.006876 0.058161 -0.000002 0.086724 0.000000
# 6 0.000000 0.000000 0.000000 0.013474 0.000000 0.032358
#
#
# Mechanical properties :
#
#
# Convention : Reuss Voigt Hill
#
# Bulk Modulus (GPa) = 11.06117 51.25175 31.15646
# Shear Modulus (GPa) = 13.72229 30.67978 22.20103
#
# Velocity S-wave (km/s) = 2.56955 3.84211 3.26837
# Velocity P-wave (km/s) = 3.75841 6.65903 5.40686
#
# Compressibility (1/GPa) = 0.09040631
#
# Stress axis : x y z
#
# Youngs Moduli (GPa) = 116.47188 55.79227 13.45423
#
# Poissons Ratio (x) = 0.27134 -0.08929
# Poissons Ratio (y) = 0.56645 0.09401
# Poissons Ratio (z) = -0.77294 0.38984
#
# Static dielectric constant tensor:
#      x y z
#    x 1.827580 0.000000 -0.022070 
#    y 0.000000 1.751580 0.000000 
#    z -0.022070 0.000000 1.740850 
# 
# From -- ./inp_files/295988.got.cif
#   From: 2010.05.17/outbox.cif.g08.bks.cpg/sg15_148_cif.got.tgz:295988.got - 2010.06.03 18:47:42.
