data_PCOD9260235
_publ_section_title
;
Structure prediction by ZEFSAII (Michael W. Deem and Ramdas Pophale) SiO2 
 PCOD9260235
Probable space group: C 2/C
;
_chemical_formula_sum "Si O2"
_cell_formula_units_Z 60
_cell_length_a 17.058261
_cell_length_b 11.481425
_cell_length_c 17.231327
_cell_angle_alpha 90.000000
_cell_angle_beta 47.939651
_cell_angle_gamma 90.000000
_cell_volume 2505.592356
_symmetry_space_group_name_H-M "C 2/C"
_symmetry_group_IT_number 15
_symmetry_cell_setting 'monoclinic'
loop_
_space_group_symop_operation_xyz
x,y,z
-x,y,1/2-z
-x,-y,-z
x,-y,1/2+z
1/2+x,1/2+y,z
1/2-x,1/2+y,1/2-z
1/2-x,1/2-y,-z
1/2+x,1/2-y,1/2+z
loop_
_atom_site_type_symbol
_atom_site_label
_atom_site_fract_x
_atom_site_fract_y
_atom_site_fract_z
Si Si1 0.523840 0.755833 0.349202
Si Si2 0.617607 0.636363 0.640675
Si Si3 0.833907 0.177158 0.539451
Si Si4 0.606288 0.070337 0.912653
Si Si5 0.206704 0.522661 0.210297
Si Si6 0.320471 0.381381 0.864204
Si Si7 0.500000 0.051583 0.750000
Si Si8 0.190173 0.218581 0.439928
O O1 0.458851 0.693999 0.460630
O O2 0.600384 0.839262 0.345096
O O3 0.584988 0.670875 0.251004
O O4 0.458353 0.854744 0.342498
O O5 0.500000 0.648424 0.750000
O O6 0.668924 0.520430 0.643325
O O7 0.692938 0.744865 0.608681
O O8 0.625048 0.638492 0.542585
O O9 0.779777 0.301845 0.589598
O O10 0.829053 0.144309 0.451170
O O11 0.777019 0.082170 0.628981
O O12 0.634463 0.157213 0.963246
O O13 0.685168 0.983967 0.816494
O O14 0.500000 0.000000 0.000000
O O15 0.096562 0.516168 0.229722
O O16 0.277196 0.637415 0.152462
#
# Coordination Sequence:
#
# PCOD9260235 Si02
#       8
#     8   8   8   8   8   8   4   8
#     4  11  21  37  69 103 143 172 239 285 349 416
#     4  11  26  44  73 102 143 181 223 309 365 424
#     4  11  19  36  67 104 138 177 221 296 344 408
#     4  11  28  48  67  96 142 200 243 284 347 430
#     4  11  24  43  72 101 143 181 240 295 351 419
#     4  11  20  37  66 108 139 168 227 288 359 406
#     4  10  18  36  66 108 134 176 220 296 348 404
#     4  11  28  48  68 105 138 186 243 282 363 439
#
# _framework density 23.946432999999999
#
# number of rings (size 3 to 8) (size 9 to 14) (size 15 to 20)
#    0.000    1.067    5.333    1.600    4.667    4.267 
#    0.000    0.667    0.000    0.000    0.000    0.000 
#    0.000    0.000    0.000    0.000    0.000    0.000 
#
# Total GULP energy -167192.825223 kJ/mol
# GULP energy per Si atom -5573.094174 kJ/mol
# Density = 2.389193 g / cm^3
# Si number density = 23.946433 Si / 1000 Ang^3
#
#
#
# Elastic Constant Matrix: (Units=GPa)
#
#
# Indices 1 2 3 4 5 6 
#
# 1 32.6917 22.0164 17.4212 0.0000 -0.2441 0.0000
# 2 22.0164 105.9428 74.2544 0.0000 -13.0812 0.0000
# 3 17.4212 74.2544 176.3794 0.0000 -28.2755 0.0000
# 4 0.0000 0.0000 0.0000 38.9521 0.0000 -3.4106
# 5 -0.2441 -13.0812 -28.2755 0.0000 22.8185 0.0000
# 6 0.0000 0.0000 0.0000 -3.4106 0.0000 26.9634
#
#
#
# Elastic Compliance Matrix: (Units=1/GPa)
#
#
# Indices 1 2 3 4 5 6 
#
# 1 0.036152 -0.007194 -0.001424 0.000000 -0.005502 0.000000
# 2 -0.007194 0.014835 -0.005221 0.000000 0.001958 0.000000
# 3 -0.001424 -0.005221 0.009392 0.000000 0.008629 0.000000
# 4 0.000000 0.000000 0.000000 0.025960 0.000000 0.003284
# 5 -0.005502 0.001958 0.008629 0.000000 0.055581 0.000000
# 6 0.000000 0.000000 0.000000 0.003284 0.000000 0.037503
#
#
# Mechanical properties :
#
#
# Convention : Reuss Voigt Hill
#
# Bulk Modulus (GPa) = 30.58109 60.26644 45.42376
# Shear Modulus (GPa) = 22.93575 31.16827 27.05201
#
# Velocity S-wave (km/s) = 3.09818 3.61166 3.36473
# Velocity P-wave (km/s) = 5.05931 6.52793 5.83997
#
# Compressibility (1/GPa) = 0.03269995
#
# Stress axis : x y z
#
# Youngs Moduli (GPa) = 27.66136 67.40699 106.47720
#
# Poissons Ratio (x) = 0.48493 0.15164
# Poissons Ratio (y) = 0.19900 0.55593
# Poissons Ratio (z) = 0.03939 0.35194
#
# Static dielectric constant tensor:
#      x y z
#    x 2.132440 0.000000 0.045440 
#    y 0.000000 2.025800 0.000000 
#    z 0.045440 0.000000 1.989170 
# 
# From -- ./inp_files/215202.got.cif
#   From: 2010.05.17/outbox.cif.g08.bks.cpg/sg15_108_cif.got.tgz:215202.got - 2010.06.03 18:47:42.
