data_PCOD9260883
_publ_section_title
;
Structure prediction by ZEFSAII (Michael W. Deem and Ramdas Pophale) SiO2 
 PCOD9260883
Probable space group: C 2/C
;
_chemical_formula_sum "Si O2"
_cell_formula_units_Z 64
_cell_length_a 9.349652
_cell_length_b 19.467760
_cell_length_c 19.777881
_cell_angle_alpha 90.000000
_cell_angle_beta 119.928851
_cell_angle_gamma 90.000000
_cell_volume 3119.843003
_symmetry_space_group_name_H-M "C 2/C"
_symmetry_group_IT_number 15
_symmetry_cell_setting 'monoclinic'
loop_
_space_group_symop_operation_xyz
x,y,z
-x,y,1/2-z
-x,-y,-z
x,-y,1/2+z
1/2+x,1/2+y,z
1/2-x,1/2+y,1/2-z
1/2-x,1/2-y,-z
1/2+x,1/2-y,1/2+z
loop_
_atom_site_type_symbol
_atom_site_label
_atom_site_fract_x
_atom_site_fract_y
_atom_site_fract_z
Si Si1 0.638684 0.314285 0.451488
Si Si2 0.558532 0.658037 0.072502
Si Si3 0.173519 0.359317 0.752538
Si Si4 0.681382 0.628975 0.815537
Si Si5 0.192523 0.033658 0.313650
Si Si6 0.789506 0.382535 0.963719
Si Si7 0.495295 0.192110 0.618774
Si Si8 0.213366 0.255739 0.641347
O O1 0.750000 0.250000 0.500000
O O2 0.634312 0.358679 0.517986
O O3 0.699100 0.350716 0.398425
O O4 0.451777 0.288937 0.396442
O O5 0.685000 0.635281 0.158778
O O6 0.383018 0.623419 0.038417
O O7 0.525187 0.739308 0.080063
O O8 0.187701 0.427374 0.710304
O O9 0.222068 0.296950 0.713742
O O10 0.000000 0.348930 0.750000
O O11 0.500000 0.652094 0.750000
O O12 0.694268 0.547902 0.807959
O O13 0.829237 0.667067 0.812640
O O14 0.260316 0.055661 0.403822
O O15 0.000000 0.055815 0.250000
O O16 0.807472 0.316731 0.918634
O O17 0.925251 0.368664 0.053626
O O18 0.367475 0.213384 0.647430
#
# Coordination Sequence:
#
# PCOD9260883 Si02
#       8
#     8   8   8   8   8   8   8   8
#     4  12  21  38  64  97 137 169 206 273 343 393
#     4  11  20  36  64  98 133 161 209 270 336 391
#     4  11  24  39  68 100 128 169 222 273 322 397
#     4  11  27  45  65  94 135 179 223 278 333 392
#     4  10  22  46  69  89 129 186 231 266 322 390
#     4  10  18  38  67  95 124 174 219 263 320 393
#     4  11  21  39  63  99 135 169 212 273 330 409
#     4  10  21  36  62  99 129 164 212 264 333 395
#
# _framework density 20.513852
#
# number of rings (size 3 to 8) (size 9 to 14) (size 15 to 20)
#    0.000    1.250    5.000    1.500    1.750    1.500 
#    0.000    3.125    0.000    0.000    0.000    0.000 
#    0.000    0.000    0.000    0.000    0.000    0.000 
#
# Total GULP energy -178631.306728 kJ/mol
# GULP energy per Si atom -5582.228335 kJ/mol
# Density = 2.046716 g / cm^3
# Si number density = 20.513852 Si / 1000 Ang^3
#
#
#
# Elastic Constant Matrix: (Units=GPa)
#
#
# Indices 1 2 3 4 5 6 
#
# 1 137.1798 41.8301 37.4326 0.0000 1.2561 0.0000
# 2 41.8301 47.4916 30.5116 0.0000 -1.4269 0.0000
# 3 37.4326 30.5116 80.8617 0.0000 -0.9090 0.0000
# 4 0.0000 0.0000 0.0000 34.2977 0.0000 2.3115
# 5 1.2561 -1.4269 -0.9090 0.0000 39.6574 0.0000
# 6 0.0000 0.0000 0.0000 2.3115 0.0000 19.8970
#
#
#
# Elastic Compliance Matrix: (Units=1/GPa)
#
#
# Indices 1 2 3 4 5 6 
#
# 1 0.010167 -0.007849 -0.001752 0.000000 -0.000645 0.000000
# 2 -0.007849 0.033876 -0.009135 0.000000 0.001258 0.000000
# 3 -0.001752 -0.009135 0.016626 0.000000 0.000108 0.000000
# 4 0.000000 0.000000 0.000000 0.029387 0.000000 -0.003414
# 5 -0.000645 0.001258 0.000108 0.000000 0.025284 0.000000
# 6 0.000000 0.000000 0.000000 -0.003414 0.000000 0.050655
#
#
# Mechanical properties :
#
#
# Convention : Reuss Voigt Hill
#
# Bulk Modulus (GPa) = 43.10837 53.89797 48.50317
# Shear Modulus (GPa) = 23.67428 29.15433 26.41431
#
# Velocity S-wave (km/s) = 3.40084 3.77397 3.59225
# Velocity P-wave (km/s) = 6.03993 6.73212 6.39540
#
# Compressibility (1/GPa) = 0.02319735
#
# Stress axis : x y z
#
# Youngs Moduli (GPa) = 98.35723 29.51933 60.14636
#
# Poissons Ratio (x) = 0.23169 0.10539
# Poissons Ratio (y) = 0.77197 0.54944
# Poissons Ratio (z) = 0.17235 0.26966
#
# Static dielectric constant tensor:
#      x y z
#    x 1.786470 0.000000 -0.005150 
#    y 0.000000 1.736810 0.000000 
#    z -0.005150 0.000000 1.802170 
# 
# From -- ./inp_files/233905.got.cif
#   From: 2010.05.17/outbox.cif.g08.bks.cpg/sg15_117_cif.got.tgz:233905.got - 2010.06.03 18:47:42.
