data_PCOD9260708
_publ_section_title
;
Structure prediction by ZEFSAII (Michael W. Deem and Ramdas Pophale) SiO2 
 PCOD9260708
Probable space group: C 2/C
;
_chemical_formula_sum "Si O2"
_cell_formula_units_Z 44
_cell_length_a 11.562320
_cell_length_b 11.240714
_cell_length_c 16.148325
_cell_angle_alpha 90.000000
_cell_angle_beta 63.526797
_cell_angle_gamma 90.000000
_cell_volume 1878.705727
_symmetry_space_group_name_H-M "C 2/C"
_symmetry_group_IT_number 15
_symmetry_cell_setting 'monoclinic'
loop_
_space_group_symop_operation_xyz
x,y,z
-x,y,1/2-z
-x,-y,-z
x,-y,1/2+z
1/2+x,1/2+y,z
1/2-x,1/2+y,1/2-z
1/2-x,1/2-y,-z
1/2+x,1/2-y,1/2+z
loop_
_atom_site_type_symbol
_atom_site_label
_atom_site_fract_x
_atom_site_fract_y
_atom_site_fract_z
Si Si1 0.167492 0.144710 0.438264
Si Si2 0.750953 0.606812 0.599278
Si Si3 0.432728 0.738185 0.609373
Si Si4 0.032708 0.513956 0.868272
Si Si5 0.792911 0.583675 0.844937
Si Si6 0.000000 0.914804 0.250000
O O1 0.245827 0.254302 0.372826
O O2 0.225905 0.118028 0.510311
O O3 0.024793 0.192118 0.505242
O O4 0.186854 0.022728 0.383913
O O5 0.890604 0.557871 0.576055
O O6 0.637688 0.530728 0.678922
O O7 0.464047 0.871835 0.626486
O O8 0.285779 0.706043 0.633044
O O9 0.467430 0.661122 0.679122
O O10 0.124488 0.558770 0.763586
O O11 0.893753 0.567644 0.888384
#
# Coordination Sequence:
#
# PCOD9260708 Si02
#       6
#     8   8   8   8   8   4
#     4  10  22  38  65  93 126 166 216 264 322 384
#     4  10  20  39  64  93 122 172 214 263 319 388
#     4  11  22  40  65  95 125 171 216 265 329 390
#     4  11  23  40  66  92 130 171 215 265 327 389
#     4  11  23  41  64  96 130 168 213 273 324 385
#     4  10  18  38  62  84 120 162 224 250 306 388
#
# _framework density 23.420377999999999
#
# number of rings (size 3 to 8) (size 9 to 14) (size 15 to 20)
#    0.000    1.455    1.818    6.000    0.000    2.909 
#    0.000    9.091    0.000    0.000    0.000    0.000 
#    0.000    0.000    0.000    0.000    0.000    0.000 
#
# Total GULP energy -122878.767752 kJ/mol
# GULP energy per Si atom -5585.398534 kJ/mol
# Density = 2.336707 g / cm^3
# Si number density = 23.420378 Si / 1000 Ang^3
#
#
#
# Elastic Constant Matrix: (Units=GPa)
#
#
# Indices 1 2 3 4 5 6 
#
# 1 147.3969 40.5540 20.6177 0.0000 -22.5554 0.0000
# 2 40.5540 23.8610 -1.7540 0.0000 -1.8328 0.0000
# 3 20.6177 -1.7540 66.4376 0.0000 -32.4790 0.0000
# 4 0.0000 0.0000 0.0000 22.7315 0.0000 -8.2090
# 5 -22.5554 -1.8328 -32.4790 0.0000 31.7145 0.0000
# 6 0.0000 0.0000 0.0000 -8.2090 0.0000 23.6200
#
#
#
# Elastic Compliance Matrix: (Units=1/GPa)
#
#
# Indices 1 2 3 4 5 6 
#
# 1 0.015123 -0.025238 -0.001631 0.000000 0.007627 0.000000
# 2 -0.025238 0.084928 0.007407 0.000000 -0.005455 0.000000
# 3 -0.001631 0.007407 0.030831 0.000000 0.030843 0.000000
# 4 0.000000 0.000000 0.000000 0.050306 0.000000 0.017484
# 5 0.007627 -0.005455 0.030843 0.000000 0.068226 0.000000
# 6 0.000000 0.000000 0.000000 0.017484 0.000000 0.048413
#
#
# Mechanical properties :
#
#
# Convention : Reuss Voigt Hill
#
# Bulk Modulus (GPa) = 10.87419 39.61454 25.24436
# Shear Modulus (GPa) = 13.60897 27.49839 20.55368
#
# Velocity S-wave (km/s) = 2.41316 3.43026 2.96564
# Velocity P-wave (km/s) = 3.52386 5.71316 4.74646
#
# Compressibility (1/GPa) = 0.09196084
#
# Stress axis : x y z
#
# Youngs Moduli (GPa) = 66.12267 11.77461 32.43455
#
# Poissons Ratio (x) = 0.29716 0.05290
# Poissons Ratio (y) = 1.66878 -0.24026
# Poissons Ratio (z) = 0.10785 -0.08722
#
# Static dielectric constant tensor:
#      x y z
#    x 1.976520 0.000000 -0.058780 
#    y 0.000000 1.905170 0.000000 
#    z -0.058780 0.000000 1.929330 
# 
# From -- ./inp_files/196320.got.cif
#   From: 2010.05.17/outbox.cif.g08.bks.cpg/sg15_99_cif.got.tgz:196320.got - 2010.06.03 18:47:42.
