data_PCOD9260172
_publ_section_title
;
Structure prediction by ZEFSAII (Michael W. Deem and Ramdas Pophale) SiO2 
 PCOD9260172
Probable space group: C 2/C
;
_chemical_formula_sum "Si O2"
_cell_formula_units_Z 44
_cell_length_a 16.476259
_cell_length_b 10.287883
_cell_length_c 10.826217
_cell_angle_alpha 90.000000
_cell_angle_beta 61.793488
_cell_angle_gamma 90.000000
_cell_volume 1617.187425
_symmetry_space_group_name_H-M "C 2/C"
_symmetry_group_IT_number 15
_symmetry_cell_setting 'monoclinic'
loop_
_space_group_symop_operation_xyz
x,y,z
-x,y,1/2-z
-x,-y,-z
x,-y,1/2+z
1/2+x,1/2+y,z
1/2-x,1/2+y,1/2-z
1/2-x,1/2-y,-z
1/2+x,1/2-y,1/2+z
loop_
_atom_site_type_symbol
_atom_site_label
_atom_site_fract_x
_atom_site_fract_y
_atom_site_fract_z
Si Si1 0.768921 0.724018 0.305192
Si Si2 0.367467 0.607963 0.400298
Si Si3 0.053314 0.281691 0.968368
Si Si4 0.681372 0.120870 0.677925
Si Si5 0.891699 0.830827 0.427006
Si Si6 0.000000 0.442555 0.250000
O O1 0.843388 0.681422 0.149291
O O2 0.725035 0.857538 0.280710
O O3 0.831262 0.745937 0.378787
O O4 0.679018 0.641844 0.407612
O O5 0.431684 0.647536 0.468915
O O6 0.366553 0.736766 0.315194
O O7 0.262824 0.601804 0.522899
O O8 0.401295 0.465010 0.344041
O O9 0.979623 0.247889 0.914914
O O10 0.019903 0.379661 0.098365
O O11 0.603312 0.014866 0.709260
#
# Coordination Sequence:
#
# PCOD9260172 Si02
#       6
#     8   8   8   8   8   4
#     4  10  22  37  58  86 125 157 190 243 299 354
#     4   9  20  35  62  88 119 149 199 244 293 346
#     4  10  20  38  59  92 116 154 196 242 294 354
#     4   9  18  37  55  86 115 158 194 240 290 348
#     4  11  21  38  60  90 123 156 189 246 301 351
#     4  10  18  36  64  76 118 160 200 240 288 334
#
# _framework density 27.207732
#
# number of rings (size 3 to 8) (size 9 to 14) (size 15 to 20)
#    0.000    2.182    1.818    2.182    0.000    2.909 
#   13.091    0.000    8.000    2.182    0.000    0.000 
#    0.000    0.000    0.000    0.000    0.000    0.000 
#
# Total GULP energy -122680.142265 kJ/mol
# GULP energy per Si atom -5576.370103 kJ/mol
# Density = 2.714581 g / cm^3
# Si number density = 27.207732 Si / 1000 Ang^3
#
#
#
# Elastic Constant Matrix: (Units=GPa)
#
#
# Indices 1 2 3 4 5 6 
#
# 1 185.8596 14.3979 23.8409 0.0000 12.6431 0.0000
# 2 14.3979 93.4490 13.2401 0.0000 2.5468 0.0000
# 3 23.8409 13.2401 80.5005 0.0000 -28.3111 0.0000
# 4 0.0000 0.0000 0.0000 14.6246 0.0000 14.9383
# 5 12.6431 2.5468 -28.3111 0.0000 55.9244 0.0000
# 6 0.0000 0.0000 0.0000 14.9383 0.0000 12.0592
#
#
#
# Elastic Compliance Matrix: (Units=1/GPa)
#
#
# Indices 1 2 3 4 5 6 
#
# 1 0.005931 -0.000473 -0.002607 0.000000 -0.002639 0.000000
# 2 -0.000473 0.011131 -0.002228 0.000000 -0.001528 0.000000
# 3 -0.002607 -0.002228 0.016794 0.000000 0.009192 0.000000
# 4 0.000000 0.000000 0.000000 -0.257723 0.000000 0.319254
# 5 -0.002639 -0.001528 0.009192 0.000000 0.023201 0.000000
# 6 0.000000 0.000000 0.000000 0.319254 0.000000 -0.312550
#
#
# Mechanical properties :
#
#
# Convention : Reuss Voigt Hill
#
# Bulk Modulus (GPa) = 43.02840 51.41857 47.22349
# Shear Modulus (GPa) = -10.10398 37.07701 13.48651
#
# Velocity S-wave (km/s) = -1.92917 3.69553 2.22882
# Velocity P-wave (km/s) = 3.29952 6.09498 4.90080
#
# Compressibility (1/GPa) = 0.02324046
#
# Stress axis : x y z
#
# Youngs Moduli (GPa) = 168.60778 89.83775 59.54618
#
# Poissons Ratio (x) = 0.04245 0.15523
# Poissons Ratio (y) = 0.07967 0.13268
# Poissons Ratio (z) = 0.43954 0.20018
#
# Static dielectric constant tensor:
#      x y z
#    x 2.110780 0.000000 -0.017910 
#    y 0.000000 2.214780 0.000000 
#    z -0.017910 0.000000 2.265970 
# 
# From -- ./inp_files/104076.got.cif
#   From: 2010.05.17/outbox.cif.g08.bks.cpg/sg15_53_cif.got.tgz:104076.got - 2010.06.03 18:47:42.
