data_PCOD9260136
_publ_section_title
;
Structure prediction by ZEFSAII (Michael W. Deem and Ramdas Pophale) SiO2 
 PCOD9260136
Probable space group: C 2/C
;
_chemical_formula_sum "Si O2"
_cell_formula_units_Z 60
_cell_length_a 11.426815
_cell_length_b 29.618528
_cell_length_c 8.297236
_cell_angle_alpha 90.000000
_cell_angle_beta 72.989828
_cell_angle_gamma 90.000000
_cell_volume 2685.312575
_symmetry_space_group_name_H-M "C 2/C"
_symmetry_group_IT_number 15
_symmetry_cell_setting 'monoclinic'
loop_
_space_group_symop_operation_xyz
x,y,z
-x,y,1/2-z
-x,-y,-z
x,-y,1/2+z
1/2+x,1/2+y,z
1/2-x,1/2+y,1/2-z
1/2-x,1/2-y,-z
1/2+x,1/2-y,1/2+z
loop_
_atom_site_type_symbol
_atom_site_label
_atom_site_fract_x
_atom_site_fract_y
_atom_site_fract_z
Si Si1 0.627177 0.937218 0.758537
Si Si2 0.435139 0.755802 0.950763
Si Si3 0.154824 0.211701 0.006955
Si Si4 0.754152 0.623514 0.032826
Si Si5 0.500000 0.101158 0.750000
Si Si6 0.656036 0.969565 0.397351
Si Si7 0.266908 0.679805 0.880216
Si Si8 0.637168 0.412656 0.262911
O O1 0.500000 0.914968 0.750000
O O2 0.714577 0.904629 0.821300
O O3 0.671902 0.960164 0.578143
O O4 0.607712 0.980705 0.880504
O O5 0.500000 0.763479 0.750000
O O6 0.526811 0.736465 0.046355
O O7 0.344228 0.713176 0.962936
O O8 0.369026 0.801475 0.035606
O O9 0.184024 0.192607 0.816749
O O10 0.250000 0.250000 0.000000
O O11 0.189127 0.170133 0.106036
O O12 0.662125 0.601157 0.939243
O O13 0.887996 0.627113 0.886139
O O14 0.429243 0.068011 0.654584
O O15 0.792157 0.959849 0.277449
O O16 0.292900 0.626433 0.872706
O O17 0.500000 0.413215 0.250000
#
# Coordination Sequence:
#
# PCOD9260136 Si02
#       8
#     8   8   8   8   4   8   8   8
#     4  12  22  42  65  98 138 169 215 278 330 392
#     4   9  18  36  60  88 116 163 214 271 322 382
#     4  10  21  36  55  84 126 163 207 264 327 388
#     4  10  22  38  62  91 127 171 223 268 329 391
#     4  10  18  36  62  98 124 168 218 272 322 396
#     4  11  22  37  65  99 129 172 217 264 339 390
#     4   9  18  37  63  85 113 165 221 260 321 384
#     4  10  21  41  66  91 130 175 219 269 326 402
#
# _framework density 22.343765999999999
#
# number of rings (size 3 to 8) (size 9 to 14) (size 15 to 20)
#    0.000    1.867    2.000    4.000    0.000    3.733 
#    7.200    3.333    5.867    0.000    0.000    0.000 
#    0.000    0.000    0.000    0.000    0.000    0.000 
#
# Total GULP energy -167355.068612 kJ/mol
# GULP energy per Si atom -5578.502287 kJ/mol
# Density = 2.229291 g / cm^3
# Si number density = 22.343766 Si / 1000 Ang^3
#
#
#
# Elastic Constant Matrix: (Units=GPa)
#
#
# Indices 1 2 3 4 5 6 
#
# 1 151.9686 45.3607 20.0314 0.0000 31.1107 0.0000
# 2 45.3607 41.7131 9.5986 0.0000 16.0058 0.0000
# 3 20.0314 9.5986 63.4598 0.0000 19.9956 0.0000
# 4 0.0000 0.0000 0.0000 27.1044 0.0000 6.0156
# 5 31.1107 16.0058 19.9956 0.0000 35.6776 0.0000
# 6 0.0000 0.0000 0.0000 6.0156 0.0000 24.0863
#
#
#
# Elastic Compliance Matrix: (Units=1/GPa)
#
#
# Indices 1 2 3 4 5 6 
#
# 1 0.010395 -0.009446 -0.000403 0.000000 -0.004601 0.000000
# 2 -0.009446 0.037548 0.000018 0.000000 -0.008618 0.000000
# 3 -0.000403 0.000018 0.019157 0.000000 -0.010394 0.000000
# 4 0.000000 0.000000 0.000000 0.039059 0.000000 -0.009755
# 5 -0.004601 -0.008618 -0.010394 0.000000 0.041732 0.000000
# 6 0.000000 0.000000 0.000000 -0.009755 0.000000 0.043954
#
#
# Mechanical properties :
#
#
# Convention : Reuss Voigt Hill
#
# Bulk Modulus (GPa) = 21.07983 45.23589 33.15786
# Shear Modulus (GPa) = 21.99553 29.51704 25.75629
#
# Velocity S-wave (km/s) = 3.14094 3.63856 3.39887
# Velocity P-wave (km/s) = 4.75487 6.15967 5.50229
#
# Compressibility (1/GPa) = 0.04743871
#
# Stress axis : x y z
#
# Youngs Moduli (GPa) = 96.20344 26.63282 52.19928
#
# Poissons Ratio (x) = 0.25156 0.02102
# Poissons Ratio (y) = 0.90869 -0.00093
# Poissons Ratio (z) = 0.03875 -0.00047
#
# Static dielectric constant tensor:
#      x y z
#    x 1.926580 0.000000 -0.127300 
#    y 0.000000 1.841360 0.000000 
#    z -0.127300 0.000000 1.921710 
# 
# From -- ./inp_files/35200.got.cif
#   From: 2010.05.17/outbox.cif.g08.bks.cpg/sg15_18_cif.got.tgz:35200.got - 2010.06.03 18:47:42.
