data_PCOD9260835
_publ_section_title
;
Structure prediction by ZEFSAII (Michael W. Deem and Ramdas Pophale) SiO2 
 PCOD9260835
Probable space group: C 2/C
;
_chemical_formula_sum "Si O2"
_cell_formula_units_Z 52
_cell_length_a 14.513657
_cell_length_b 15.159588
_cell_length_c 16.789955
_cell_angle_alpha 90.000000
_cell_angle_beta 139.312174
_cell_angle_gamma 90.000000
_cell_volume 2408.350085
_symmetry_space_group_name_H-M "C 2/C"
_symmetry_group_IT_number 15
_symmetry_cell_setting 'monoclinic'
loop_
_space_group_symop_operation_xyz
x,y,z
-x,y,1/2-z
-x,-y,-z
x,-y,1/2+z
1/2+x,1/2+y,z
1/2-x,1/2+y,1/2-z
1/2-x,1/2-y,-z
1/2+x,1/2-y,1/2+z
loop_
_atom_site_type_symbol
_atom_site_label
_atom_site_fract_x
_atom_site_fract_y
_atom_site_fract_z
Si Si1 0.000000 0.602030 0.250000
Si Si2 0.702532 0.862434 0.747160
Si Si3 0.162664 0.178350 0.886661
Si Si4 0.154201 0.958434 0.108668
Si Si5 0.930129 0.414124 0.993233
Si Si6 0.199685 0.321733 0.193156
Si Si7 0.760654 0.498796 0.010652
O O1 0.888456 0.652078 0.232444
O O2 0.911544 0.542058 0.131959
O O3 0.609557 0.854729 0.607769
O O4 0.812134 0.783540 0.810923
O O5 0.759478 0.961472 0.792686
O O6 0.258478 0.161009 0.871297
O O7 0.000000 0.193597 0.750000
O O8 0.250000 0.250000 0.000000
O O9 0.162117 0.083896 0.931744
O O10 0.179577 0.869681 0.175173
O O11 0.210507 0.947587 0.055714
O O12 0.000000 0.000000 0.000000
O O13 0.794159 0.440276 0.955868
O O14 0.053438 0.366432 0.122276
O O15 0.000000 0.500000 0.000000
#
# Coordination Sequence:
#
# PCOD9260835 Si02
#       7
#     4   8   8   8   8   8   8
#     4  10  18  38  66 102 132 168 228 284 372 422
#     4  11  24  39  67  98 134 176 224 292 347 423
#     4  12  26  39  65 110 147 179 228 297 376 440
#     4  11  24  45  66  99 138 179 226 287 357 416
#     4  12  21  44  66  96 131 179 236 277 350 422
#     4  12  26  40  68  99 139 181 224 292 352 424
#     4  11  22  41  71  94 132 187 236 290 346 430
#
# _framework density 21.591546000000001
#
# number of rings (size 3 to 8) (size 9 to 14) (size 15 to 20)
#    0.000    0.615    4.615    3.692    8.615    0.000 
#    0.000    0.769    3.385    0.000    0.000    0.000 
#    0.000    0.000    0.000    0.000    0.000    0.000 
#
# Total GULP energy -145154.832765 kJ/mol
# GULP energy per Si atom -5582.878183 kJ/mol
# Density = 2.154240 g / cm^3
# Si number density = 21.591546 Si / 1000 Ang^3
#
#
#
# Elastic Constant Matrix: (Units=GPa)
#
#
# Indices 1 2 3 4 5 6 
#
# 1 88.1908 24.5953 17.6395 0.0000 -14.2460 0.0000
# 2 24.5953 63.5658 2.7325 0.0000 -8.9492 0.0000
# 3 17.6395 2.7325 90.4702 0.0001 -0.2857 0.0001
# 4 0.0000 0.0000 0.0001 33.8748 0.0001 -2.3502
# 5 -14.2460 -8.9492 -0.2857 0.0001 37.1084 0.0000
# 6 0.0000 0.0000 0.0001 -2.3502 0.0000 27.1207
#
#
#
# Elastic Compliance Matrix: (Units=1/GPa)
#
#
# Indices 1 2 3 4 5 6 
#
# 1 0.013817 -0.004651 -0.002540 0.000000 0.004163 0.000000
# 2 -0.004651 0.017871 0.000375 0.000000 0.002527 0.000000
# 3 -0.002540 0.000375 0.011535 0.000000 -0.000796 0.000000
# 4 0.000000 0.000000 0.000000 0.029699 0.000000 0.002574
# 5 0.004163 0.002527 -0.000796 0.000000 0.029150 0.000000
# 6 0.000000 0.000000 0.000000 0.002574 0.000000 0.037095
#
#
# Mechanical properties :
#
#
# Convention : Reuss Voigt Hill
#
# Bulk Modulus (GPa) = 33.79484 36.90685 35.35085
# Shear Modulus (GPa) = 30.73862 32.77142 31.75502
#
# Velocity S-wave (km/s) = 3.77721 3.90011 3.83915
# Velocity P-wave (km/s) = 5.89143 6.11649 6.00501
#
# Compressibility (1/GPa) = 0.02959032
#
# Stress axis : x y z
#
# Youngs Moduli (GPa) = 72.37633 55.95688 86.69404
#
# Poissons Ratio (x) = 0.26024 0.22023
# Poissons Ratio (y) = 0.33660 -0.03251
# Poissons Ratio (z) = 0.18386 -0.02098
#
# Static dielectric constant tensor:
#      x y z
#    x 1.756490 0.000000 0.020040 
#    y 0.000000 1.842600 0.000000 
#    z 0.020040 0.000000 1.854020 
# 
# From -- ./inp_files/205786.got.cif
#   From: 2010.05.17/outbox.cif.g08.bks.cpg/sg15_103_cif.got.tgz:205786.got - 2010.06.03 18:47:42.
