data_PCOD9260498
_publ_section_title
;
Structure prediction by ZEFSAII (Michael W. Deem and Ramdas Pophale) SiO2 
 PCOD9260498
Probable space group: C 2/C
;
_chemical_formula_sum "Si O2"
_cell_formula_units_Z 48
_cell_length_a 24.847654
_cell_length_b 9.827119
_cell_length_c 14.069329
_cell_angle_alpha 90.000000
_cell_angle_beta 130.893717
_cell_angle_gamma 90.000000
_cell_volume 2596.951572
_symmetry_space_group_name_H-M "C 2/C"
_symmetry_group_IT_number 15
_symmetry_cell_setting 'monoclinic'
loop_
_space_group_symop_operation_xyz
x,y,z
-x,y,1/2-z
-x,-y,-z
x,-y,1/2+z
1/2+x,1/2+y,z
1/2-x,1/2+y,1/2-z
1/2-x,1/2-y,-z
1/2+x,1/2-y,1/2+z
loop_
_atom_site_type_symbol
_atom_site_label
_atom_site_fract_x
_atom_site_fract_y
_atom_site_fract_z
Si Si1 0.315815 0.225497 0.855940
Si Si2 0.877414 0.620138 0.126776
Si Si3 0.464126 0.864090 0.000689
Si Si4 0.500000 0.336608 0.250000
Si Si5 0.188071 0.434718 0.743266
Si Si6 0.500000 0.898563 0.250000
Si Si7 0.537521 0.378384 0.490145
O O1 0.252153 0.333304 0.791998
O O2 0.384115 0.315686 0.901561
O O3 0.300908 0.094571 0.770858
O O4 0.334478 0.160762 0.981675
O O5 0.832088 0.589207 0.168860
O O6 0.934004 0.742196 0.205385
O O7 0.929486 0.492286 0.170389
O O8 0.493093 0.828782 0.139253
O O9 0.487739 0.748505 0.956683
O O10 0.380432 0.888644 0.897303
O O11 0.500000 0.000000 0.000000
O O12 0.531331 0.418406 0.373210
O O13 0.500000 0.500000 0.500000
#
# Coordination Sequence:
#
# PCOD9260498 Si02
#       7
#     8   8   8   4   8   4   8
#     4  11  25  40  61  96 126 168 207 255 314 381
#     4  10  18  37  64  91 116 161 215 250 298 380
#     4  12  20  39  67  90 117 164 209 263 311 369
#     4   9  18  35  64  90 114 156 210 252 300 370
#     4  12  23  40  63  90 128 165 207 256 319 370
#     4  11  18  33  68  96 116 148 220 270 304 358
#     4  11  23  40  63  93 123 157 210 261 311 364
#
# _framework density 18.483208999999999
#
# number of rings (size 3 to 8) (size 9 to 14) (size 15 to 20)
#    0.000    1.000    6.667    1.500    2.333    0.667 
#    0.000    0.833    0.000    0.000    0.000    0.000 
#    0.000    0.000    0.000    0.000    0.000    0.000 
#
# Total GULP energy -133702.977092 kJ/mol
# GULP energy per Si atom -5570.957379 kJ/mol
# Density = 1.844114 g / cm^3
# Si number density = 18.483209 Si / 1000 Ang^3
#
#
#
# Elastic Constant Matrix: (Units=GPa)
#
#
# Indices 1 2 3 4 5 6 
#
# 1 120.8416 66.3722 47.4539 0.0000 1.9115 0.0000
# 2 66.3722 98.0983 39.3650 0.0000 15.1439 0.0000
# 3 47.4539 39.3650 89.1636 0.0000 -6.4410 0.0000
# 4 0.0000 0.0000 0.0000 5.4887 0.0000 -8.6747
# 5 1.9115 15.1439 -6.4410 0.0000 37.5174 0.0000
# 6 0.0000 0.0000 0.0000 -8.6747 0.0000 16.4216
#
#
#
# Elastic Compliance Matrix: (Units=1/GPa)
#
#
# Indices 1 2 3 4 5 6 
#
# 1 0.014423 -0.008581 -0.003737 0.000000 0.002087 0.000000
# 2 -0.008581 0.018997 -0.004397 0.000000 -0.007986 0.000000
# 3 -0.003737 -0.004397 0.015479 0.000000 0.004623 0.000000
# 4 0.000000 0.000000 0.000000 1.103483 0.000000 0.582917
# 5 0.002087 -0.007986 0.004623 0.000000 0.030565 0.000000
# 6 0.000000 0.000000 0.000000 0.582917 0.000000 0.368823
#
#
# Mechanical properties :
#
#
# Convention : Reuss Voigt Hill
#
# Bulk Modulus (GPa) = 64.64332 68.27620 66.45976
# Shear Modulus (GPa) = 3.14395 22.21302 12.67848
#
# Velocity S-wave (km/s) = 1.30563 3.47045 2.62190
# Velocity P-wave (km/s) = 6.10925 7.28550 6.72315
#
# Compressibility (1/GPa) = 0.01546950
#
# Stress axis : x y z
#
# Youngs Moduli (GPa) = 69.33450 52.64011 64.60283
#
# Poissons Ratio (x) = 0.45171 0.24140
# Poissons Ratio (y) = 0.59497 0.28405
# Poissons Ratio (z) = 0.25908 0.23145
#
# Static dielectric constant tensor:
#      x y z
#    x 1.657940 0.000000 -0.029980 
#    y 0.000000 1.630060 0.000000 
#    z -0.029980 0.000000 1.683500 
# 
# From -- ./inp_files/166198.got.cif
#   From: 2010.05.17/outbox.cif.g08.bks.cpg/sg15_84_cif.got.tgz:166198.got - 2010.06.03 18:47:42.
