data_PCOD9260667
_publ_section_title
;
Structure prediction by ZEFSAII (Michael W. Deem and Ramdas Pophale) SiO2 
 PCOD9260667
Probable space group: C 2/C
;
_chemical_formula_sum "Si O2"
_cell_formula_units_Z 36
_cell_length_a 24.405198
_cell_length_b 5.168352
_cell_length_c 14.799570
_cell_angle_alpha 90.000000
_cell_angle_beta 127.816817
_cell_angle_gamma 90.000000
_cell_volume 1474.677011
_symmetry_space_group_name_H-M "C 2/C"
_symmetry_group_IT_number 15
_symmetry_cell_setting 'monoclinic'
loop_
_space_group_symop_operation_xyz
x,y,z
-x,y,1/2-z
-x,-y,-z
x,-y,1/2+z
1/2+x,1/2+y,z
1/2-x,1/2+y,1/2-z
1/2-x,1/2-y,-z
1/2+x,1/2-y,1/2+z
loop_
_atom_site_type_symbol
_atom_site_label
_atom_site_fract_x
_atom_site_fract_y
_atom_site_fract_z
Si Si1 0.000000 0.937357 0.250000
Si Si2 0.257864 0.554593 0.132610
Si Si3 0.472106 0.751033 0.920127
Si Si4 0.857620 0.748944 0.589921
Si Si5 0.327697 0.940263 0.728237
O O1 0.006740 0.777165 0.163805
O O2 0.068387 0.115885 0.333328
O O3 0.300228 0.564941 0.079468
O O4 0.301225 0.775478 0.229784
O O5 0.265245 0.260086 0.166484
O O6 0.179895 0.651691 0.038285
O O7 0.610335 0.208698 0.161160
O O8 0.500000 0.500000 0.000000
O O9 0.500000 0.000000 0.000000
O O10 0.857075 0.506496 0.657976
#
# Coordination Sequence:
#
# PCOD9260667 Si02
#       5
#     4   8   8   8   8
#     4  12  24  46  68 108 140 190 242 292 350 428
#     4   9  18  34  61  97 131 171 233 275 348 418
#     4  12  26  44  66 100 142 184 233 297 356 415
#     4   9  20  34  63 100 132 173 233 280 340 425
#     4  10  18  38  60  91 129 181 221 277 344 412
#
# _framework density 24.412127000000002
#
# number of rings (size 3 to 8) (size 9 to 14) (size 15 to 20)
#    1.333    0.444    2.222    3.333    0.000    3.556 
#    0.000    0.000    0.000    5.333    0.000    0.000 
#    0.000    0.000    0.000    0.000    0.000    0.000 
#
# Total GULP energy -100447.528009 kJ/mol
# GULP energy per Si atom -5580.418223 kJ/mol
# Density = 2.435656 g / cm^3
# Si number density = 24.412127 Si / 1000 Ang^3
#
#
#
# Elastic Constant Matrix: (Units=GPa)
#
#
# Indices 1 2 3 4 5 6 
#
# 1 128.6489 39.0278 68.2016 0.0000 -14.1203 0.0003
# 2 39.0278 177.6213 63.3727 0.0016 -4.8993 0.0050
# 3 68.2016 63.3727 129.7548 0.0002 18.1314 0.0013
# 4 0.0000 0.0016 0.0002 42.4232 0.0000 25.4391
# 5 -14.1203 -4.8993 18.1314 0.0000 37.5368 0.0005
# 6 0.0003 0.0050 0.0013 25.4391 0.0005 -43.7934
#
#
#
# Elastic Compliance Matrix: (Units=1/GPa)
#
#
# Indices 1 2 3 4 5 6 
#
# 1 0.013033 0.000330 -0.008260 0.000000 0.008935 0.000000
# 2 0.000330 0.007087 -0.004055 0.000000 0.003008 0.000000
# 3 -0.008260 -0.004055 0.015589 0.000000 -0.011167 0.000000
# 4 0.000000 0.000000 0.000000 0.017482 0.000000 0.010155
# 5 0.008935 0.003008 -0.011167 0.000000 0.035788 0.000000
# 6 0.000000 0.000000 0.000000 0.010155 0.000000 -0.016935
#
#
# Mechanical properties :
#
#
# Convention : Reuss Voigt Hill
#
# Bulk Modulus (GPa) = 85.18702 86.35880 85.77291
# Shear Modulus (GPa) = 50.03624 24.92818 37.48221
#
# Velocity S-wave (km/s) = 4.53221 3.19899 3.92266
# Velocity P-wave (km/s) = 7.89678 7.00692 7.46512
#
# Compressibility (1/GPa) = 0.01173888
#
# Stress axis : x y z
#
# Youngs Moduli (GPa) = 76.73053 141.09841 64.14649
#
# Poissons Ratio (x) = -0.04655 0.52984
# Poissons Ratio (y) = -0.02531 0.26012
# Poissons Ratio (z) = 0.63379 0.57217
#
# Static dielectric constant tensor:
#      x y z
#    x 1.864250 0.000000 -0.128700 
#    y 0.000000 1.913340 0.000000 
#    z -0.128700 0.000000 2.067020 
# 
# From -- ./inp_files/223466.got.cif
#   From: 2010.05.17/outbox.cif.g08.bks.cpg/sg15_112_cif.got.tgz:223466.got - 2010.06.03 18:47:42.
