data_PCOD9260518
_publ_section_title
;
Structure prediction by ZEFSAII (Michael W. Deem and Ramdas Pophale) SiO2 
 PCOD9260518
Probable space group: C 2/C
;
_chemical_formula_sum "Si O2"
_cell_formula_units_Z 56
_cell_length_a 8.716987
_cell_length_b 15.569515
_cell_length_c 23.257814
_cell_angle_alpha 90.000000
_cell_angle_beta 58.853220
_cell_angle_gamma 90.000000
_cell_volume 2701.503458
_symmetry_space_group_name_H-M "C 2/C"
_symmetry_group_IT_number 15
_symmetry_cell_setting 'monoclinic'
loop_
_space_group_symop_operation_xyz
x,y,z
-x,y,1/2-z
-x,-y,-z
x,-y,1/2+z
1/2+x,1/2+y,z
1/2-x,1/2+y,1/2-z
1/2-x,1/2-y,-z
1/2+x,1/2-y,1/2+z
loop_
_atom_site_type_symbol
_atom_site_label
_atom_site_fract_x
_atom_site_fract_y
_atom_site_fract_z
Si Si1 0.487585 0.163373 0.854527
Si Si2 0.898466 0.897284 0.417470
Si Si3 0.621555 0.373920 0.477251
Si Si4 0.352720 0.326370 0.228161
Si Si5 0.677957 0.685569 0.190932
Si Si6 0.059619 0.304690 0.468779
Si Si7 0.771255 0.574566 0.067073
O O1 0.315926 0.109256 0.910100
O O2 0.665964 0.131567 0.787065
O O3 0.399898 0.234343 0.830540
O O4 0.558978 0.203533 0.900079
O O5 0.764374 0.816234 0.447364
O O6 0.974379 0.918524 0.465800
O O7 0.058722 0.874590 0.343096
O O8 0.785579 0.976626 0.415022
O O9 0.562216 0.273318 0.484451
O O10 0.638456 0.392513 0.541584
O O11 0.500000 0.324097 0.250000
O O12 0.299995 0.230764 0.215486
O O13 0.500000 0.641517 0.250000
O O14 0.763610 0.621293 0.129567
O O15 0.960221 0.392723 0.506018
#
# Coordination Sequence:
#
# PCOD9260518 Si02
#       7
#     8   8   8   8   8   8   8
#     4  10  18  37  65  87 112 160 215 248 294 361
#     4  12  24  36  59  99 128 160 198 263 317 351
#     4  11  21  39  66  93 117 168 215 249 294 374
#     4  11  22  38  62  94 121 155 213 268 297 365
#     4  10  20  38  64  88 114 164 209 249 300 376
#     4  11  20  38  63  86 126 162 211 248 302 362
#     4  11  22  40  60  90 129 161 199 250 317 370
#
# _framework density 20.729198
#
# number of rings (size 3 to 8) (size 9 to 14) (size 15 to 20)
#    0.000    1.143    5.714    2.143    0.000    0.571 
#    0.000    0.000    0.000    0.000    7.429    0.000 
#    0.000    0.000    0.000    0.000    0.000    0.000 
#
# Total GULP energy -156019.013606 kJ/mol
# GULP energy per Si atom -5572.107629 kJ/mol
# Density = 2.068202 g / cm^3
# Si number density = 20.729198 Si / 1000 Ang^3
#
#
#
# Elastic Constant Matrix: (Units=GPa)
#
#
# Indices 1 2 3 4 5 6 
#
# 1 56.4342 -12.2905 6.4528 0.0000 7.0139 0.0000
# 2 -12.2905 37.6238 9.3843 0.0000 -14.5073 0.0000
# 3 6.4528 9.3843 87.2417 0.0000 -10.7476 0.0000
# 4 0.0000 0.0000 0.0000 10.4357 0.0000 4.6197
# 5 7.0139 -14.5073 -10.7476 0.0000 37.3824 0.0000
# 6 0.0000 0.0000 0.0000 4.6197 0.0000 18.3160
#
#
#
# Elastic Compliance Matrix: (Units=1/GPa)
#
#
# Indices 1 2 3 4 5 6 
#
# 1 0.019589 0.006243 -0.002358 0.000000 -0.001931 0.000000
# 2 0.006243 0.033564 -0.002708 0.000000 0.011076 0.000000
# 3 -0.002358 -0.002708 0.012288 0.000000 0.002925 0.000000
# 4 0.000000 0.000000 0.000000 0.107869 0.000000 -0.027207
# 5 -0.001931 0.011076 0.002925 0.000000 0.032252 0.000000
# 6 0.000000 0.000000 0.000000 -0.027207 0.000000 0.061459
#
#
# Mechanical properties :
#
#
# Convention : Reuss Voigt Hill
#
# Bulk Modulus (GPa) = 14.75024 20.93253 17.84139
# Shear Modulus (GPa) = 17.40546 25.07704 21.24125
#
# Velocity S-wave (km/s) = 2.90083 3.48191 3.20457
# Velocity P-wave (km/s) = 4.28379 5.12689 4.72418
#
# Compressibility (1/GPa) = 0.06779552
#
# Stress axis : x y z
#
# Youngs Moduli (GPa) = 51.04918 29.79353 81.37766
#
# Poissons Ratio (x) = -0.18600 0.19191
# Poissons Ratio (y) = -0.31869 0.22034
# Poissons Ratio (z) = 0.12039 0.08067
#
# Static dielectric constant tensor:
#      x y z
#    x 1.765650 0.000000 -0.015710 
#    y 0.000000 1.753820 0.000000 
#    z -0.015710 0.000000 1.791410 
# 
# From -- ./inp_files/264579.got.cif
#   From: 2010.05.17/outbox.cif.g08.bks.cpg/sg15_133_cif.got.tgz:264579.got - 2010.06.03 18:47:42.
