data_PCOD9260599
_publ_section_title
;
Structure prediction by ZEFSAII (Michael W. Deem and Ramdas Pophale) SiO2 
 PCOD9260599
Probable space group: C 2/C
;
_chemical_formula_sum "Si O2"
_cell_formula_units_Z 36
_cell_length_a 17.113201
_cell_length_b 16.067416
_cell_length_c 15.480497
_cell_angle_alpha 90.000000
_cell_angle_beta 152.966515
_cell_angle_gamma 90.000000
_cell_volume 1934.669246
_symmetry_space_group_name_H-M "C 2/C"
_symmetry_group_IT_number 15
_symmetry_cell_setting 'monoclinic'
loop_
_space_group_symop_operation_xyz
x,y,z
-x,y,1/2-z
-x,-y,-z
x,-y,1/2+z
1/2+x,1/2+y,z
1/2-x,1/2+y,1/2-z
1/2-x,1/2-y,-z
1/2+x,1/2-y,1/2+z
loop_
_atom_site_type_symbol
_atom_site_label
_atom_site_fract_x
_atom_site_fract_y
_atom_site_fract_z
Si Si1 0.213247 0.848574 0.305576
Si Si2 0.500000 0.514372 0.250000
Si Si3 0.854275 0.031188 0.289175
Si Si4 0.312321 0.890314 0.585149
Si Si5 0.314131 0.321606 0.868336
O O1 0.265238 0.834256 0.456116
O O2 0.296683 0.775988 0.330937
O O3 0.255547 0.945992 0.330053
O O4 0.008763 0.838349 0.091871
O O5 0.433719 0.554927 0.273835
O O6 0.661006 0.458020 0.438397
O O7 0.774196 0.112761 0.253584
O O8 0.000000 0.000000 0.500000
O O9 0.500000 0.926020 0.750000
O O10 0.309022 0.842952 0.672440
#
# Coordination Sequence:
#
# PCOD9260599 Si02
#       5
#     8   4   8   8   8
#     4  10  20  33  51  84 109 143 187 224 277 334
#     4  10  18  38  56  84 114 144 192 226 284 328
#     4   9  18  35  60  76 112 156 178 229 286 330
#     4  11  19  32  55  85 115 143 179 232 286 341
#     4  11  19  35  55  79 116 151 179 230 288 330
#
# _framework density 18.607832999999999
#
# number of rings (size 3 to 8) (size 9 to 14) (size 15 to 20)
#    0.000    1.778    6.667    2.000    0.000    0.000 
#    0.000   10.000    0.000    5.333    2.889    0.000 
#    0.000    0.000    0.000    0.000    0.000    0.000 
#
# Total GULP energy -100214.399868 kJ/mol
# GULP energy per Si atom -5567.466659 kJ/mol
# Density = 1.856548 g / cm^3
# Si number density = 18.607833 Si / 1000 Ang^3
#
#
#
# Elastic Constant Matrix: (Units=GPa)
#
#
# Indices 1 2 3 4 5 6 
#
# 1 100.5484 72.5660 16.5578 0.0002 -16.4041 0.0001
# 2 72.5660 122.3806 13.0177 0.0002 -3.7758 0.0002
# 3 16.5578 13.0177 50.0793 0.0007 12.1509 0.0004
# 4 0.0002 0.0002 0.0007 4.6317 0.0004 2.5419
# 5 -16.4041 -3.7758 12.1509 0.0004 26.5083 0.0002
# 6 0.0001 0.0002 0.0004 2.5419 0.0002 32.4161
#
#
#
# Elastic Compliance Matrix: (Units=1/GPa)
#
#
# Indices 1 2 3 4 5 6 
#
# 1 0.022605 -0.012032 -0.008241 -0.000001 0.016052 0.000000
# 2 -0.012032 0.014954 0.001553 0.000000 -0.006027 0.000000
# 3 -0.008241 0.001553 0.026410 -0.000002 -0.016985 0.000000
# 4 -0.000001 0.000000 -0.000002 0.225612 -0.000003 -0.017691
# 5 0.016052 -0.006027 -0.016985 -0.000003 0.054584 0.000000
# 6 0.000000 0.000000 0.000000 -0.017691 0.000000 0.032236
#
#
# Mechanical properties :
#
#
# Convention : Reuss Voigt Hill
#
# Bulk Modulus (GPa) = 37.69268 53.03236 45.36252
# Shear Modulus (GPa) = 11.82917 24.10233 17.96575
#
# Velocity S-wave (km/s) = 2.52406 3.60290 3.11061
# Velocity P-wave (km/s) = 5.36608 6.77272 6.11002
#
# Compressibility (1/GPa) = 0.02653035
#
# Stress axis : x y z
#
# Youngs Moduli (GPa) = 44.23853 66.87048 37.86394
#
# Poissons Ratio (x) = 0.80457 0.31204
# Poissons Ratio (y) = 0.53226 -0.05881
# Poissons Ratio (z) = 0.36457 -0.10387
#
# Static dielectric constant tensor:
#      x y z
#    x 1.681020 0.000000 0.004070 
#    y 0.000000 1.701090 0.000000 
#    z 0.004070 0.000000 1.669710 
# 
# From -- ./inp_files/37661.got.cif
#   From: 2010.05.17/outbox.cif.g08.bks.cpg/sg15_19_cif.got.tgz:37661.got - 2010.06.03 18:47:42.
