data_PCOD9260376
_publ_section_title
;
Structure prediction by ZEFSAII (Michael W. Deem and Ramdas Pophale) SiO2 
 PCOD9260376
Probable space group: C 2/C
;
_chemical_formula_sum "Si O2"
_cell_formula_units_Z 52
_cell_length_a 11.670382
_cell_length_b 6.770301
_cell_length_c 29.754410
_cell_angle_alpha 90.000000
_cell_angle_beta 92.146535
_cell_angle_gamma 90.000000
_cell_volume 2349.305752
_symmetry_space_group_name_H-M "C 2/C"
_symmetry_group_IT_number 15
_symmetry_cell_setting 'monoclinic'
loop_
_space_group_symop_operation_xyz
x,y,z
-x,y,1/2-z
-x,-y,-z
x,-y,1/2+z
1/2+x,1/2+y,z
1/2-x,1/2+y,1/2-z
1/2-x,1/2-y,-z
1/2+x,1/2-y,1/2+z
loop_
_atom_site_type_symbol
_atom_site_label
_atom_site_fract_x
_atom_site_fract_y
_atom_site_fract_z
Si Si1 0.724829 0.625498 0.899551
Si Si2 0.576938 0.450477 0.791340
Si Si3 0.172784 0.425502 0.679397
Si Si4 0.977848 0.113893 0.875625
Si Si5 0.909206 0.150515 0.457864
Si Si6 0.000000 0.655523 0.250000
Si Si7 0.847434 0.151779 0.030903
O O1 0.793885 0.599309 0.854437
O O2 0.599951 0.718332 0.888681
O O3 0.804909 0.727252 0.936950
O O4 0.695418 0.411215 0.920714
O O5 0.500000 0.367407 0.750000
O O6 0.704301 0.367405 0.797579
O O7 0.513650 0.451587 0.838452
O O8 0.579930 0.686394 0.778387
O O9 0.114441 0.254882 0.648615
O O10 0.080253 0.460590 0.716940
O O11 0.932354 0.016712 0.920384
O O12 0.030884 0.263007 0.464057
O O13 0.879358 0.048454 0.504334
O O14 0.750000 0.250000 0.000000
#
# Coordination Sequence:
#
# PCOD9260376 Si02
#       7
#     8   8   8   8   8   4   8
#     4  10  21  36  58  84 113 146 186 225 277 331
#     4   8  17  36  55  78 109 147 177 229 282 325
#     4  10  18  37  60  80 110 149 187 232 278 330
#     4   9  19  37  55  77 113 148 180 227 279 324
#     4  10  21  37  56  81 114 148 180 227 277 326
#     4   8  18  36  54  76 114 144 176 232 284 320
#     4  10  21  37  58  84 112 146 184 224 274 328
#
# _framework density 22.134195999999999
#
# number of rings (size 3 to 8) (size 9 to 14) (size 15 to 20)
#    0.462    2.154    0.000    1.385    0.000    1.846 
#    8.308    4.615    0.000    0.000    0.000    0.000 
#    0.000    0.000    0.000    0.000    0.000    0.000 
#
# Total GULP energy -144965.042851 kJ/mol
# GULP energy per Si atom -5575.578571 kJ/mol
# Density = 2.208382 g / cm^3
# Si number density = 22.134196 Si / 1000 Ang^3
#
#
#
# Elastic Constant Matrix: (Units=GPa)
#
#
# Indices 1 2 3 4 5 6 
#
# 1 177.2968 31.9569 46.5377 0.0000 27.4829 0.0000
# 2 31.9569 14.3458 3.5971 0.0000 0.0159 0.0000
# 3 46.5377 3.5971 110.5429 0.0000 -2.4901 0.0000
# 4 0.0000 0.0000 0.0000 7.6667 0.0000 0.3879
# 5 27.4829 0.0159 -2.4901 0.0000 63.1793 0.0000
# 6 0.0000 0.0000 0.0000 0.3879 0.0000 22.2486
#
#
#
# Elastic Compliance Matrix: (Units=1/GPa)
#
#
# Indices 1 2 3 4 5 6 
#
# 1 0.012521 -0.026751 -0.004527 0.000000 -0.005618 0.000000
# 2 -0.026751 0.127434 0.007383 0.000000 0.011896 0.000000
# 3 -0.004527 0.007383 0.010766 0.000000 0.002392 0.000000
# 4 0.000000 0.000000 0.000000 0.130550 0.000000 -0.002276
# 5 -0.005618 0.011896 0.002392 0.000000 0.018363 0.000000
# 6 0.000000 0.000000 0.000000 -0.002276 0.000000 0.044986
#
#
# Mechanical properties :
#
#
# Convention : Reuss Voigt Hill
#
# Bulk Modulus (GPa) = 9.71535 51.81877 30.76706
# Shear Modulus (GPa) = 11.71726 33.29184 22.50455
#
# Velocity S-wave (km/s) = 2.30331 3.88247 3.19208
# Velocity P-wave (km/s) = 3.38710 6.60001 5.24560
#
# Compressibility (1/GPa) = 0.10292995
#
# Stress axis : x y z
#
# Youngs Moduli (GPa) = 79.86362 7.84723 92.88580
#
# Poissons Ratio (x) = 0.20992 0.42054
# Poissons Ratio (y) = 2.13645 -0.68580
# Poissons Ratio (z) = 0.36158 -0.05794
#
# Static dielectric constant tensor:
#      x y z
#    x 1.852440 0.000000 0.010030 
#    y 0.000000 1.840770 0.000000 
#    z 0.010030 0.000000 1.822560 
# 
# From -- ./inp_files/291199.got.cif
#   From: 2010.05.17/outbox.cif.g08.bks.cpg/sg15_146_cif.got.tgz:291199.got - 2010.06.03 18:47:42.
