data_PCOD9260687
_publ_section_title
;
Structure prediction by ZEFSAII (Michael W. Deem and Ramdas Pophale) SiO2 
 PCOD9260687
Probable space group: C 2/C
;
_chemical_formula_sum "Si O2"
_cell_formula_units_Z 60
_cell_length_a 12.718836
_cell_length_b 18.444620
_cell_length_c 21.046895
_cell_angle_alpha 90.000000
_cell_angle_beta 37.569038
_cell_angle_gamma 90.000000
_cell_volume 3010.463518
_symmetry_space_group_name_H-M "C 2/C"
_symmetry_group_IT_number 15
_symmetry_cell_setting 'monoclinic'
loop_
_space_group_symop_operation_xyz
x,y,z
-x,y,1/2-z
-x,-y,-z
x,-y,1/2+z
1/2+x,1/2+y,z
1/2-x,1/2+y,1/2-z
1/2-x,1/2-y,-z
1/2+x,1/2-y,1/2+z
loop_
_atom_site_type_symbol
_atom_site_label
_atom_site_fract_x
_atom_site_fract_y
_atom_site_fract_z
Si Si1 0.494982 0.654623 0.829828
Si Si2 0.615197 0.201992 0.337705
Si Si3 0.828646 0.295818 0.552110
Si Si4 0.908174 0.454946 0.489822
Si Si5 0.000000 0.520245 0.250000
Si Si6 0.665619 0.911838 0.552190
Si Si7 0.318749 0.092025 0.744286
Si Si8 0.975093 0.255057 0.170344
O O1 0.500000 0.642989 0.750000
O O2 0.552329 0.737408 0.817955
O O3 0.630564 0.603803 0.803767
O O4 0.313246 0.639747 0.952268
O O5 0.582588 0.228405 0.425393
O O6 0.513987 0.127415 0.379441
O O7 0.822362 0.197019 0.235667
O O8 0.814570 0.383132 0.558428
O O9 0.636769 0.266146 0.635468
O O10 0.941398 0.270205 0.438661
O O11 0.802112 0.511922 0.498863
O O12 0.000000 0.500000 0.500000
O O13 0.059886 0.426678 0.372671
O O14 0.125834 0.567622 0.144415
O O15 0.128429 0.468334 0.229439
O O16 0.382900 0.170894 0.736400
#
# Coordination Sequence:
#
# PCOD9260687 Si02
#       8
#     8   8   8   8   4   8   8   8
#     4  11  25  42  66  95 125 175 226 264 321 387
#     4  11  23  37  64  91 127 169 212 271 320 380
#     4  10  20  38  63  92 125 165 218 268 324 373
#     4  10  18  38  61  84 125 167 211 255 318 383
#     4  10  24  42  66  94 132 170 212 262 340 388
#     4  11  24  42  62  91 130 176 209 267 319 394
#     4   9  21  40  65  89 124 169 206 268 318 384
#     4   9  21  38  63  95 123 164 216 274 317 375
#
# _framework density 19.930485999999998
#
# number of rings (size 3 to 8) (size 9 to 14) (size 15 to 20)
#    0.000    1.867    1.333    1.600    8.400    1.600 
#    4.800    0.000    0.000    0.000    0.000    0.000 
#    0.000    0.000    0.000    0.000    0.000    0.000 
#
# Total GULP energy -167148.236087 kJ/mol
# GULP energy per Si atom -5571.607870 kJ/mol
# Density = 1.988512 g / cm^3
# Si number density = 19.930486 Si / 1000 Ang^3
#
#
#
# Elastic Constant Matrix: (Units=GPa)
#
#
# Indices 1 2 3 4 5 6 
#
# 1 100.7662 32.9685 46.7444 -0.0004 13.6746 0.0003
# 2 32.9685 51.6171 27.3037 -0.0044 3.7476 0.0007
# 3 46.7444 27.3037 74.1391 -0.0110 8.9259 0.0018
# 4 -0.0004 -0.0044 -0.0110 27.1876 0.0021 2.6399
# 5 13.6746 3.7476 8.9259 0.0021 32.6144 -0.0003
# 6 0.0003 0.0007 0.0018 2.6399 -0.0003 23.1961
#
#
#
# Elastic Compliance Matrix: (Units=1/GPa)
#
#
# Indices 1 2 3 4 5 6 
#
# 1 0.015783 -0.005939 -0.007290 -0.000003 -0.003940 0.000001
# 2 -0.005939 0.026299 -0.006077 0.000002 0.001131 0.000000
# 3 -0.007290 -0.006077 0.020547 0.000008 -0.001869 -0.000002
# 4 -0.000003 0.000002 0.000008 0.037193 -0.000003 -0.004233
# 5 -0.003940 0.001131 -0.001869 -0.000003 0.032695 0.000001
# 6 0.000001 0.000000 -0.000002 -0.004233 0.000001 0.043592
#
#
# Mechanical properties :
#
#
# Convention : Reuss Voigt Hill
#
# Bulk Modulus (GPa) = 41.63503 48.95061 45.29282
# Shear Modulus (GPa) = 22.44896 24.56667 23.50782
#
# Velocity S-wave (km/s) = 3.35977 3.51467 3.43810
# Velocity P-wave (km/s) = 5.99885 6.40972 6.20769
#
# Compressibility (1/GPa) = 0.02401823
#
# Stress axis : x y z
#
# Youngs Moduli (GPa) = 63.35755 38.02405 48.66801
#
# Poissons Ratio (x) = 0.22582 0.35478
# Poissons Ratio (y) = 0.37628 0.29576
# Poissons Ratio (z) = 0.46187 0.23108
#
# Static dielectric constant tensor:
#      x y z
#    x 1.731050 -0.000010 0.026170 
#    y -0.000010 1.768980 0.000010 
#    z 0.026170 0.000010 1.705130 
# 
# From -- ./inp_files/239937.got.cif
#   From: 2010.05.17/outbox.cif.g08.bks.cpg/sg15_120_cif.got.tgz:239937.got - 2010.06.03 18:47:42.
