data_PCOD9260597
_publ_section_title
;
Structure prediction by ZEFSAII (Michael W. Deem and Ramdas Pophale) SiO2 
 PCOD9260597
Probable space group: C 2/C
;
_chemical_formula_sum "Si O2"
_cell_formula_units_Z 60
_cell_length_a 11.189684
_cell_length_b 26.116427
_cell_length_c 14.080365
_cell_angle_alpha 90.000000
_cell_angle_beta 131.104911
_cell_angle_gamma 90.000000
_cell_volume 3100.507686
_symmetry_space_group_name_H-M "C 2/C"
_symmetry_group_IT_number 15
_symmetry_cell_setting 'monoclinic'
loop_
_space_group_symop_operation_xyz
x,y,z
-x,y,1/2-z
-x,-y,-z
x,-y,1/2+z
1/2+x,1/2+y,z
1/2-x,1/2+y,1/2-z
1/2-x,1/2-y,-z
1/2+x,1/2-y,1/2+z
loop_
_atom_site_type_symbol
_atom_site_label
_atom_site_fract_x
_atom_site_fract_y
_atom_site_fract_z
Si Si1 0.975074 0.921255 0.545513
Si Si2 0.341561 0.350681 0.727927
Si Si3 0.500000 0.043804 0.250000
Si Si4 0.318217 0.130176 0.693020
Si Si5 0.869131 0.560240 0.373037
Si Si6 0.701006 0.947813 0.145317
Si Si7 0.667750 0.476514 0.480824
Si Si8 0.809085 0.744616 0.641505
O O1 0.806100 0.895764 0.441449
O O2 0.093697 0.877071 0.642854
O O3 0.058427 0.944718 0.495785
O O4 0.926277 0.970416 0.583658
O O5 0.500000 0.347699 0.750000
O O6 0.230324 0.395293 0.632133
O O7 0.260614 0.295396 0.675260
O O8 0.431707 0.075865 0.301780
O O9 0.654975 0.015292 0.378144
O O10 0.500000 0.125799 0.750000
O O11 0.288300 0.097820 0.773913
O O12 0.267498 0.189957 0.665723
O O13 0.780483 0.506315 0.307895
O O14 0.019167 0.552641 0.517295
O O15 0.803670 0.946944 0.102832
O O16 0.750000 0.750000 0.500000
O O17 0.000000 0.743952 0.750000
#
# Coordination Sequence:
#
# PCOD9260597 Si02
#       8
#     8   8   4   8   8   8   8   8
#     4  11  23  39  60  92 123 171 201 266 304 385
#     4  11  22  37  64  89 121 153 206 262 315 366
#     4  10  18  38  56  82 126 168 202 250 290 382
#     4  11  25  38  62  89 127 164 208 253 331 374
#     4  10  21  35  58  86 119 160 204 242 312 362
#     4  10  23  35  57  88 121 164 198 260 294 390
#     4  10  22  38  59  89 131 163 217 245 322 367
#     4  10  23  42  65  92 124 165 212 272 320 380
#
# _framework density 19.351671
#
# number of rings (size 3 to 8) (size 9 to 14) (size 15 to 20)
#    0.000    1.600    1.333    3.200   14.933    0.533 
#    0.000    0.000    0.000    2.400    0.000    0.000 
#    0.000    0.000    0.000    0.000    0.000    0.000 
#
# Total GULP energy -167040.123141 kJ/mol
# GULP energy per Si atom -5568.004105 kJ/mol
# Density = 1.930763 g / cm^3
# Si number density = 19.351671 Si / 1000 Ang^3
#
#
#
# Elastic Constant Matrix: (Units=GPa)
#
#
# Indices 1 2 3 4 5 6 
#
# 1 75.2399 54.6172 22.0585 0.0000 -1.1114 0.0000
# 2 54.6172 175.7439 49.6268 0.0000 -17.1390 0.0000
# 3 22.0585 49.6268 92.5358 0.0000 6.6788 0.0000
# 4 0.0000 0.0000 0.0000 21.5790 0.0000 -4.6727
# 5 -1.1114 -17.1390 6.6788 0.0000 36.2269 0.0000
# 6 0.0000 0.0000 0.0000 -4.6727 0.0000 30.4503
#
#
#
# Elastic Compliance Matrix: (Units=1/GPa)
#
#
# Indices 1 2 3 4 5 6 
#
# 1 0.017426 -0.005239 -0.001220 0.000000 -0.001719 0.000000
# 2 -0.005239 0.008868 -0.003849 0.000000 0.004744 0.000000
# 3 -0.001220 -0.003849 0.013475 0.000000 -0.004343 0.000000
# 4 0.000000 0.000000 0.000000 0.047934 0.000000 0.007356
# 5 -0.001719 0.004744 -0.004343 0.000000 0.030596 0.000000
# 6 0.000000 0.000000 0.000000 0.007356 0.000000 0.033969
#
#
# Mechanical properties :
#
#
# Convention : Reuss Voigt Hill
#
# Bulk Modulus (GPa) = 52.21324 66.23605 59.22464
# Shear Modulus (GPa) = 27.89092 32.13240 30.01166
#
# Velocity S-wave (km/s) = 3.80052 4.07928 3.94236
# Velocity P-wave (km/s) = 6.80430 7.51593 7.16895
#
# Compressibility (1/GPa) = 0.01915223
#
# Stress axis : x y z
#
# Youngs Moduli (GPa) = 57.38569 112.76725 74.20886
#
# Poissons Ratio (x) = 0.59074 0.09057
# Poissons Ratio (y) = 0.30062 0.28566
# Poissons Ratio (z) = 0.07004 0.43409
#
# Static dielectric constant tensor:
#      x y z
#    x 1.647750 0.000000 -0.087530 
#    y 0.000000 1.717500 0.000000 
#    z -0.087530 0.000000 1.559670 
# 
# From -- ./inp_files/148112.got.cif
#   From: 2010.05.17/outbox.cif.g08.bks.cpg/sg15_75_cif.got.tgz:148112.got - 2010.06.03 18:47:42.
