data_PCOD9260514
_publ_section_title
;
Structure prediction by ZEFSAII (Michael W. Deem and Ramdas Pophale) SiO2 
 PCOD9260514
Probable space group: C 2/C
;
_chemical_formula_sum "Si O2"
_cell_formula_units_Z 48
_cell_length_a 8.390529
_cell_length_b 29.569655
_cell_length_c 14.360546
_cell_angle_alpha 90.000000
_cell_angle_beta 135.358864
_cell_angle_gamma 90.000000
_cell_volume 2503.538671
_symmetry_space_group_name_H-M "C 2/C"
_symmetry_group_IT_number 15
_symmetry_cell_setting 'monoclinic'
loop_
_space_group_symop_operation_xyz
x,y,z
-x,y,1/2-z
-x,-y,-z
x,-y,1/2+z
1/2+x,1/2+y,z
1/2-x,1/2+y,1/2-z
1/2-x,1/2-y,-z
1/2+x,1/2-y,1/2+z
loop_
_atom_site_type_symbol
_atom_site_label
_atom_site_fract_x
_atom_site_fract_y
_atom_site_fract_z
Si Si1 0.989122 0.066175 0.976852
Si Si2 0.013351 0.569572 0.367447
Si Si3 0.254411 0.252502 0.392257
Si Si4 0.869371 0.997417 0.792934
Si Si5 0.605168 0.331284 0.542714
Si Si6 0.092656 0.665581 0.148785
O O1 0.222645 0.060359 0.014030
O O2 0.012681 0.038359 0.083868
O O3 0.981925 0.119836 0.988410
O O4 0.820095 0.041251 0.836547
O O5 0.000000 0.581230 0.250000
O O6 0.867568 0.526275 0.328120
O O7 0.908081 0.612493 0.376627
O O8 0.250000 0.250000 0.500000
O O9 0.430856 0.292383 0.441544
O O10 0.347307 0.204096 0.398057
O O11 0.000000 0.260505 0.250000
O O12 0.000000 0.004152 0.750000
O O13 0.720220 0.326978 0.692320
O O14 0.831834 0.329069 0.573829
#
# Coordination Sequence:
#
# PCOD9260514 Si02
#       6
#     8   8   8   8   8   8
#     4   9  19  37  56  80 117 150 194 244 283 347
#     4   9  16  34  59  84 106 149 200 236 275 342
#     4  12  25  39  58  91 126 151 190 254 310 355
#     4  10  19  31  55  85 112 148 189 238 294 345
#     4  10  19  40  62  84 113 159 204 243 288 359
#     4  10  18  37  65  83 108 158 209 237 282 357
#
# _framework density 19.17286
#
# number of rings (size 3 to 8) (size 9 to 14) (size 15 to 20)
#    0.000    2.000    6.667    0.500    0.000    2.667 
#    0.000    7.500    0.000    0.000    0.000    0.000 
#    0.000    0.000    0.000    0.000    0.000    0.000 
#
# Total GULP energy -133646.711790 kJ/mol
# GULP energy per Si atom -5568.612991 kJ/mol
# Density = 1.912922 g / cm^3
# Si number density = 19.172860 Si / 1000 Ang^3
#
#
#
# Elastic Constant Matrix: (Units=GPa)
#
#
# Indices 1 2 3 4 5 6 
#
# 1 40.3784 36.0668 21.5670 0.0000 -16.0966 0.0000
# 2 36.0668 98.4981 36.2189 0.0000 -3.7360 0.0000
# 3 21.5670 36.2189 61.0039 0.0000 0.2531 0.0000
# 4 0.0000 0.0000 0.0000 26.8208 0.0000 0.5139
# 5 -16.0966 -3.7360 0.2531 0.0000 25.1723 0.0000
# 6 0.0000 0.0000 0.0000 0.5139 0.0000 23.7003
#
#
#
# Elastic Compliance Matrix: (Units=1/GPa)
#
#
# Indices 1 2 3 4 5 6 
#
# 1 0.059872 -0.016273 -0.011655 0.000000 0.035988 0.000000
# 2 -0.016273 0.017513 -0.004612 0.000000 -0.007760 0.000000
# 3 -0.011655 -0.004612 0.023286 0.000000 -0.008372 0.000000
# 4 0.000000 0.000000 0.000000 0.037300 0.000000 -0.000809
# 5 0.035988 -0.007760 -0.008372 0.000000 0.061671 0.000000
# 6 0.000000 0.000000 0.000000 -0.000809 0.000000 0.042211
#
#
# Mechanical properties :
#
#
# Convention : Reuss Voigt Hill
#
# Bulk Modulus (GPa) = 28.09705 43.06512 35.58109
# Shear Modulus (GPa) = 15.68398 22.20718 18.94558
#
# Velocity S-wave (km/s) = 2.86323 3.40702 3.14689
# Velocity P-wave (km/s) = 5.06134 6.16338 5.63934
#
# Compressibility (1/GPa) = 0.03559092
#
# Stress axis : x y z
#
# Youngs Moduli (GPa) = 16.70228 57.10158 42.94415
#
# Poissons Ratio (x) = 0.92919 0.50051
# Poissons Ratio (y) = 0.27179 0.19808
# Poissons Ratio (z) = 0.19466 0.26338
#
# Static dielectric constant tensor:
#      x y z
#    x 1.669100 0.000000 0.018230 
#    y 0.000000 1.724710 0.000000 
#    z 0.018230 0.000000 1.718180 
# 
# From -- ./inp_files/139631.got.cif
#   From: 2010.05.17/outbox.cif.g08.bks.cpg/sg15_70_cif.got.tgz:139631.got - 2010.06.03 18:47:42.
