data_PCOD9260422
_publ_section_title
;
Structure prediction by ZEFSAII (Michael W. Deem and Ramdas Pophale) SiO2 
 PCOD9260422
Probable space group: C 2/C
;
_chemical_formula_sum "Si O2"
_cell_formula_units_Z 52
_cell_length_a 16.433486
_cell_length_b 9.166552
_cell_length_c 19.057531
_cell_angle_alpha 90.000000
_cell_angle_beta 127.776397
_cell_angle_gamma 90.000000
_cell_volume 2269.098537
_symmetry_space_group_name_H-M "C 2/C"
_symmetry_group_IT_number 15
_symmetry_cell_setting 'monoclinic'
loop_
_space_group_symop_operation_xyz
x,y,z
-x,y,1/2-z
-x,-y,-z
x,-y,1/2+z
1/2+x,1/2+y,z
1/2-x,1/2+y,1/2-z
1/2-x,1/2-y,-z
1/2+x,1/2-y,1/2+z
loop_
_atom_site_type_symbol
_atom_site_label
_atom_site_fract_x
_atom_site_fract_y
_atom_site_fract_z
Si Si1 0.892459 0.293887 0.034281
Si Si2 0.670814 0.592533 0.772053
Si Si3 0.878110 0.642801 0.823141
Si Si4 0.000000 0.295716 0.750000
Si Si5 0.623916 0.293663 0.817886
Si Si6 0.529891 0.904950 0.912770
Si Si7 0.437680 0.628061 0.930889
O O1 0.850685 0.246523 0.088228
O O2 0.017470 0.268813 0.105930
O O3 0.675395 0.440660 0.815897
O O4 0.864715 0.203315 0.951022
O O5 0.779947 0.670142 0.818405
O O6 0.590364 0.695529 0.768278
O O7 0.583235 0.978807 0.641598
O O8 0.891548 0.469162 0.021581
O O9 0.856617 0.669485 0.729939
O O10 0.624942 0.571673 0.669514
O O11 0.955088 0.386796 0.662038
O O12 0.500000 0.319536 0.750000
O O13 0.517781 0.752474 0.945107
O O14 0.500000 0.500000 0.000000
#
# Coordination Sequence:
#
# PCOD9260422 Si02
#       7
#     8   8   8   4   8   8   8
#     4   9  20  39  65  86 123 163 207 250 306 367
#     4  11  23  36  62  93 123 154 212 258 302 358
#     4   9  21  36  63  90 114 158 212 260 285 358
#     4  10  20  34  58  94 112 156 204 262 294 352
#     4  10  18  37  61  91 120 162 206 254 302 364
#     4   9  20  37  63  87 116 157 211 246 298 357
#     4  11  22  37  59  94 129 164 193 253 319 368
#
# _framework density 22.916588999999998
#
# number of rings (size 3 to 8) (size 9 to 14) (size 15 to 20)
#    0.923    1.231    0.769    3.231    6.462    0.000 
#    0.000    0.769    0.000    3.692    0.000    0.000 
#    0.000    0.000    0.000    0.000    0.000    0.000 
#
# Total GULP energy -145174.704124 kJ/mol
# GULP energy per Si atom -5583.642466 kJ/mol
# Density = 2.286443 g / cm^3
# Si number density = 22.916589 Si / 1000 Ang^3
#
#
#
# Elastic Constant Matrix: (Units=GPa)
#
#
# Indices 1 2 3 4 5 6 
#
# 1 128.1217 23.2774 34.8672 0.0000 -16.6131 0.0000
# 2 23.2774 96.7291 27.3531 0.0000 -17.6405 0.0000
# 3 34.8672 27.3531 91.6155 0.0000 -13.3120 0.0000
# 4 0.0000 0.0000 0.0000 18.9271 0.0000 -16.8572
# 5 -16.6131 -17.6405 -13.3120 0.0000 33.6043 0.0000
# 6 0.0000 0.0000 0.0000 -16.8572 0.0000 26.9512
#
#
#
# Elastic Compliance Matrix: (Units=1/GPa)
#
#
# Indices 1 2 3 4 5 6 
#
# 1 0.009100 -0.000868 -0.002776 0.000000 0.002943 0.000000
# 2 -0.000868 0.012180 -0.002588 0.000000 0.004939 0.000000
# 3 -0.002776 -0.002588 0.013102 0.000000 0.002459 0.000000
# 4 0.000000 0.000000 0.000000 0.119285 0.000000 0.074609
# 5 0.002943 0.004939 0.002459 0.000000 0.034780 0.000000
# 6 0.000000 0.000000 0.000000 0.074609 0.000000 0.083770
#
#
# Mechanical properties :
#
#
# Convention : Reuss Voigt Hill
#
# Bulk Modulus (GPa) = 45.62878 54.16238 49.89558
# Shear Modulus (GPa) = 17.12402 31.29442 24.20922
#
# Velocity S-wave (km/s) = 2.73652 3.69938 3.25377
# Velocity P-wave (km/s) = 5.47163 6.47558 5.99466
#
# Compressibility (1/GPa) = 0.02191599
#
# Stress axis : x y z
#
# Youngs Moduli (GPa) = 109.88986 82.10348 76.32455
#
# Poissons Ratio (x) = 0.07126 0.21191
# Poissons Ratio (y) = 0.09538 0.19756
# Poissons Ratio (z) = 0.30511 0.21252
#
# Static dielectric constant tensor:
#      x y z
#    x 1.869850 0.000000 0.017660 
#    y 0.000000 1.866190 0.000000 
#    z 0.017660 0.000000 1.918130 
# 
# From -- ./inp_files/248896.got.cif
#   From: 2010.05.17/outbox.cif.g08.bks.cpg/sg15_125_cif.got.tgz:248896.got - 2010.06.03 18:47:42.
