data_PCOD9260093
_publ_section_title
;
Structure prediction by ZEFSAII (Michael W. Deem and Ramdas Pophale) SiO2 
 PCOD9260093
Probable space group: C 2/C
;
_chemical_formula_sum "Si O2"
_cell_formula_units_Z 44
_cell_length_a 17.895134
_cell_length_b 9.528377
_cell_length_c 9.846073
_cell_angle_alpha 90.000000
_cell_angle_beta 108.497215
_cell_angle_gamma 90.000000
_cell_volume 1592.137549
_symmetry_space_group_name_H-M "C 2/C"
_symmetry_group_IT_number 15
_symmetry_cell_setting 'monoclinic'
loop_
_space_group_symop_operation_xyz
x,y,z
-x,y,1/2-z
-x,-y,-z
x,-y,1/2+z
1/2+x,1/2+y,z
1/2-x,1/2+y,1/2-z
1/2-x,1/2-y,-z
1/2+x,1/2-y,1/2+z
loop_
_atom_site_type_symbol
_atom_site_label
_atom_site_fract_x
_atom_site_fract_y
_atom_site_fract_z
Si Si1 0.649576 0.083200 0.973164
Si Si2 0.000000 0.473359 0.750000
Si Si3 0.636768 0.220552 0.557864
Si Si4 0.612307 0.596455 0.804775
Si Si5 0.031835 0.242706 0.545255
Si Si6 0.197232 0.990697 0.096944
O O1 0.576566 0.060829 0.829743
O O2 0.653272 0.943779 0.070569
O O3 0.616815 0.219878 0.031018
O O4 0.729081 0.080508 0.933311
O O5 0.016896 0.381075 0.627406
O O6 0.622473 0.255456 0.388203
O O7 0.552820 0.266480 0.578103
O O8 0.702157 0.338419 0.627012
O O9 0.540839 0.614327 0.656510
O O10 0.626833 0.494323 0.941118
O O11 0.680043 0.565242 0.735736
#
# Coordination Sequence:
#
# PCOD9260093 Si02
#       6
#     8   4   8   8   8   8
#     4  11  22  38  66  96 131 176 221 287 345 416
#     4  10  18  36  62  86 122 162 212 268 338 394
#     4   9  20  41  65  94 129 180 221 284 340 408
#     4  10  22  42  64  94 137 182 223 284 339 412
#     4  11  20  40  65  94 129 174 227 279 344 398
#     4  10  24  40  66  98 136 181 228 272 345 411
#
# _framework density 27.635804
#
# number of rings (size 3 to 8) (size 9 to 14) (size 15 to 20)
#    1.091    0.727    3.636    2.727    2.545    1.455 
#    0.000    3.636    0.000    0.000    0.000    0.000 
#    0.000    0.000    0.000    0.000    0.000    0.000 
#
# Total GULP energy -122658.345713 kJ/mol
# GULP energy per Si atom -5575.379351 kJ/mol
# Density = 2.757290 g / cm^3
# Si number density = 27.635804 Si / 1000 Ang^3
#
#
#
# Elastic Constant Matrix: (Units=GPa)
#
#
# Indices 1 2 3 4 5 6 
#
# 1 99.7168 33.0461 13.6025 0.0000 -2.9575 0.0000
# 2 33.0461 110.0160 39.2186 0.0000 -21.3031 0.0000
# 3 13.6025 39.2186 62.4731 0.0000 -2.9456 0.0000
# 4 0.0000 0.0000 0.0000 36.6643 0.0000 -12.3906
# 5 -2.9575 -21.3031 -2.9456 0.0000 49.4361 0.0000
# 6 0.0000 0.0000 0.0000 -12.3906 0.0000 25.9580
#
#
#
# Elastic Compliance Matrix: (Units=1/GPa)
#
#
# Indices 1 2 3 4 5 6 
#
# 1 0.011175 -0.003392 -0.000342 0.000000 -0.000814 0.000000
# 2 -0.003392 0.013897 -0.007734 0.000000 0.005325 0.000000
# 3 -0.000342 -0.007734 0.020837 0.000000 -0.002112 0.000000
# 4 0.000000 0.000000 0.000000 0.032520 0.000000 0.015523
# 5 -0.000814 0.005325 -0.002112 0.000000 0.022348 0.000000
# 6 0.000000 0.000000 0.000000 0.015523 0.000000 0.045933
#
#
# Mechanical properties :
#
#
# Convention : Reuss Voigt Hill
#
# Bulk Modulus (GPa) = 43.53157 49.32671 46.42914
# Shear Modulus (GPa) = 28.19993 34.83426 31.51710
#
# Velocity S-wave (km/s) = 3.19786 3.55417 3.38071
# Velocity P-wave (km/s) = 5.42412 5.89325 5.66355
#
# Compressibility (1/GPa) = 0.02297184
#
# Stress axis : x y z
#
# Youngs Moduli (GPa) = 89.48425 71.95942 47.99138
#
# Poissons Ratio (x) = 0.24412 0.01641
# Poissons Ratio (y) = 0.30357 0.37118
# Poissons Ratio (z) = 0.03060 0.55655
#
# Static dielectric constant tensor:
#      x y z
#    x 2.300250 0.000000 0.051690 
#    y 0.000000 2.131100 0.000000 
#    z 0.051690 0.000000 2.134580 
# 
# From -- ./inp_files/110349.got.cif
#   From: 2010.05.17/outbox.cif.g08.bks.cpg/sg15_56_cif.got.tgz:110349.got - 2010.06.03 18:47:42.
