data_PCOD9260180
_publ_section_title
;
Structure prediction by ZEFSAII (Michael W. Deem and Ramdas Pophale) SiO2 
 PCOD9260180
Probable space group: C 2/C
;
_chemical_formula_sum "Si O2"
_cell_formula_units_Z 44
_cell_length_a 12.269411
_cell_length_b 14.470779
_cell_length_c 22.885183
_cell_angle_alpha 90.000000
_cell_angle_beta 36.193361
_cell_angle_gamma 90.000000
_cell_volume 2399.379035
_symmetry_space_group_name_H-M "C 2/C"
_symmetry_group_IT_number 15
_symmetry_cell_setting 'monoclinic'
loop_
_space_group_symop_operation_xyz
x,y,z
-x,y,1/2-z
-x,-y,-z
x,-y,1/2+z
1/2+x,1/2+y,z
1/2-x,1/2+y,1/2-z
1/2-x,1/2-y,-z
1/2+x,1/2-y,1/2+z
loop_
_atom_site_type_symbol
_atom_site_label
_atom_site_fract_x
_atom_site_fract_y
_atom_site_fract_z
Si Si1 0.678751 0.643018 0.579895
Si Si2 0.693202 0.691373 0.298560
Si Si3 0.536087 0.251531 0.419004
Si Si4 0.500000 0.784435 0.750000
Si Si5 0.410326 0.566517 0.352764
Si Si6 0.383722 0.788101 0.491920
O O1 0.586866 0.669181 0.557670
O O2 0.597604 0.717739 0.660613
O O3 0.622281 0.541253 0.622748
O O4 0.896472 0.663963 0.483226
O O5 0.798494 0.727434 0.195858
O O6 0.549991 0.613505 0.339199
O O7 0.583951 0.777140 0.375921
O O8 0.845809 0.660772 0.280064
O O9 0.605027 0.272271 0.454013
O O10 0.500000 0.581767 0.250000
O O11 0.212746 0.617554 0.445669
O O12 0.250000 0.750000 0.500000
#
# Coordination Sequence:
#
# PCOD9260180 Si02
#       6
#     8   8   8   4   8   8
#     4  10  21  36  61  89 117 155 201 254 289 359
#     4  10  21  38  61  86 122 160 198 246 297 366
#     4  10  20  39  60  86 119 163 203 234 310 358
#     4  10  18  36  64  82 116 162 198 234 306 352
#     4  11  21  38  60  95 124 151 200 256 303 345
#     4  10  21  37  61  87 122 163 195 240 305 365
#
# _framework density 18.338077999999999
#
# number of rings (size 3 to 8) (size 9 to 14) (size 15 to 20)
#    0.000    1.818    4.545    0.000    0.000    0.727 
#    6.545    3.636    0.000    0.000    0.000    0.000 
#    0.000    0.000    0.000    0.000    0.000    0.000 
#
# Total GULP energy -122561.275810 kJ/mol
# GULP energy per Si atom -5570.967082 kJ/mol
# Density = 1.829634 g / cm^3
# Si number density = 18.338078 Si / 1000 Ang^3
#
#
#
# Elastic Constant Matrix: (Units=GPa)
#
#
# Indices 1 2 3 4 5 6 
#
# 1 135.9150 17.6821 29.3941 0.0001 15.5537 0.0000
# 2 17.6821 51.4269 18.2250 0.0001 3.2497 -0.0001
# 3 29.3941 18.2250 118.1291 0.0004 4.6767 -0.0002
# 4 0.0001 0.0001 0.0004 26.0528 -0.0002 1.8160
# 5 15.5537 3.2497 4.6767 -0.0002 32.4775 0.0001
# 6 0.0000 -0.0001 -0.0002 1.8160 0.0001 11.4766
#
#
#
# Elastic Compliance Matrix: (Units=1/GPa)
#
#
# Indices 1 2 3 4 5 6 
#
# 1 0.008389 -0.002083 -0.001625 0.000000 -0.003575 0.000000
# 2 -0.002083 0.021171 -0.002719 0.000000 -0.000729 0.000000
# 3 -0.001625 -0.002719 0.009301 0.000000 -0.000289 0.000000
# 4 0.000000 0.000000 0.000000 0.038812 0.000000 -0.006141
# 5 -0.003575 -0.000729 -0.000289 0.000000 0.032617 0.000000
# 6 0.000000 0.000000 0.000000 -0.006141 0.000000 0.088105
#
#
# Mechanical properties :
#
#
# Convention : Reuss Voigt Hill
#
# Bulk Modulus (GPa) = 38.45042 48.45261 43.45151
# Shear Modulus (GPa) = 22.73587 30.01271 26.37429
#
# Velocity S-wave (km/s) = 3.52492 4.04992 3.79651
# Velocity P-wave (km/s) = 6.13024 6.95330 6.55470
#
# Compressibility (1/GPa) = 0.02600752
#
# Stress axis : x y z
#
# Youngs Moduli (GPa) = 119.20409 47.23466 107.52103
#
# Poissons Ratio (x) = 0.09838 0.17467
# Poissons Ratio (y) = 0.24827 0.29236
# Poissons Ratio (z) = 0.19365 0.12844
#
# Static dielectric constant tensor:
#      x y z
#    x 1.688150 0.000000 -0.015840 
#    y 0.000000 1.598250 0.000000 
#    z -0.015840 0.000000 1.666910 
# 
# From -- ./inp_files/143330.got.cif
#   From: 2010.05.17/outbox.cif.g08.bks.cpg/sg15_72_cif.got.tgz:143330.got - 2010.06.03 18:47:42.
