data_PCOD9260793
_publ_section_title
;
Structure prediction by ZEFSAII (Michael W. Deem and Ramdas Pophale) SiO2 
 PCOD9260793
Probable space group: C 2/C
;
_chemical_formula_sum "Si O2"
_cell_formula_units_Z 52
_cell_length_a 16.102327
_cell_length_b 14.566420
_cell_length_c 16.906033
_cell_angle_alpha 90.000000
_cell_angle_beta 38.573287
_cell_angle_gamma 90.000000
_cell_volume 2472.465271
_symmetry_space_group_name_H-M "C 2/C"
_symmetry_group_IT_number 15
_symmetry_cell_setting 'monoclinic'
loop_
_space_group_symop_operation_xyz
x,y,z
-x,y,1/2-z
-x,-y,-z
x,-y,1/2+z
1/2+x,1/2+y,z
1/2-x,1/2+y,1/2-z
1/2-x,1/2-y,-z
1/2+x,1/2-y,1/2+z
loop_
_atom_site_type_symbol
_atom_site_label
_atom_site_fract_x
_atom_site_fract_y
_atom_site_fract_z
Si Si1 0.799851 0.018518 0.461931
Si Si2 0.145394 0.517766 0.926657
Si Si3 0.586553 0.415055 0.468066
Si Si4 0.686811 0.647817 0.269645
Si Si5 0.195245 0.807158 0.234858
Si Si6 0.354727 0.286001 0.859877
Si Si7 0.500000 0.632658 0.750000
O O1 0.670618 0.002407 0.501778
O O2 0.802754 0.046171 0.552581
O O3 0.866017 0.106921 0.371950
O O4 0.897290 0.933057 0.373797
O O5 0.245282 0.448779 0.804095
O O6 0.189320 0.622284 0.878407
O O7 0.000000 0.500000 0.000000
O O8 0.500000 0.500000 0.500000
O O9 0.471466 0.360466 0.601093
O O10 0.637798 0.355372 0.356896
O O11 0.753074 0.704153 0.290896
O O12 0.707159 0.715165 0.180299
O O13 0.082916 0.810638 0.251563
O O14 0.500000 0.241419 0.750000
O O15 0.250000 0.250000 0.000000
#
# Coordination Sequence:
#
# PCOD9260793 Si02
#       7
#     8   8   8   8   8   8   4
#     4  10  18  38  64  88 122 167 213 269 316 391
#     4  10  23  42  62  90 132 170 204 267 343 386
#     4  12  20  40  68  97 123 166 231 267 317 397
#     4  11  24  39  63  95 130 164 216 273 322 390
#     4  11  24  39  67  93 125 171 218 271 333 387
#     4  11  21  36  61  94 132 168 207 268 340 394
#     4  10  18  40  62  90 118 170 226 258 316 392
#
# _framework density 21.031638999999998
#
# number of rings (size 3 to 8) (size 9 to 14) (size 15 to 20)
#    0.000    1.231    5.385    1.846    2.154    1.231 
#    0.000    3.077    0.000    0.000    0.000    0.000 
#    0.000    0.000    0.000    0.000    0.000    0.000 
#
# Total GULP energy -145015.772070 kJ/mol
# GULP energy per Si atom -5577.529695 kJ/mol
# Density = 2.098377 g / cm^3
# Si number density = 21.031639 Si / 1000 Ang^3
#
#
#
# Elastic Constant Matrix: (Units=GPa)
#
#
# Indices 1 2 3 4 5 6 
#
# 1 145.8518 13.4684 14.3691 0.0000 -3.9271 0.0000
# 2 13.4684 47.6372 -13.5504 0.0000 0.0369 0.0000
# 3 14.3691 -13.5504 58.7626 -0.0001 -1.1641 0.0000
# 4 0.0000 0.0000 -0.0001 3.7340 0.0000 -1.1804
# 5 -3.9271 0.0369 -1.1641 0.0000 29.4182 0.0000
# 6 0.0000 0.0000 0.0000 -1.1804 0.0000 37.3131
#
#
#
# Elastic Compliance Matrix: (Units=1/GPa)
#
#
# Indices 1 2 3 4 5 6 
#
# 1 0.007376 -0.002776 -0.002426 0.000000 0.000892 0.000000
# 2 -0.002776 0.023511 0.006097 0.000000 -0.000159 0.000000
# 3 -0.002426 0.006097 0.019025 0.000000 0.000421 0.000000
# 4 0.000000 0.000000 0.000000 0.270517 0.000000 0.008558
# 5 0.000892 -0.000159 0.000421 0.000000 0.034129 0.000000
# 6 0.000000 0.000000 0.000000 0.008558 0.000000 0.027071
#
#
# Mechanical properties :
#
#
# Convention : Reuss Voigt Hill
#
# Bulk Modulus (GPa) = 19.34137 31.20286 25.27212
# Shear Modulus (GPa) = 12.59216 29.95736 21.27476
#
# Velocity S-wave (km/s) = 2.44954 3.77821 3.18395
# Velocity P-wave (km/s) = 4.14929 5.82250 5.05560
#
# Compressibility (1/GPa) = 0.05170263
#
# Stress axis : x y z
#
# Youngs Moduli (GPa) = 135.58125 42.53263 52.56183
#
# Poissons Ratio (x) = 0.11807 0.12752
# Poissons Ratio (y) = 0.37638 -0.32049
# Poissons Ratio (z) = 0.32892 -0.25933
#
# Static dielectric constant tensor:
#      x y z
#    x 1.823560 0.000000 0.069320 
#    y 0.000000 1.767100 0.000000 
#    z 0.069320 0.000000 1.662920 
# 
# From -- ./inp_files/96929.got.cif
#   From: 2010.05.17/outbox.cif.g08.bks.cpg/sg15_49_cif.got.tgz:96929.got - 2010.06.03 18:47:42.
