data_PCOD9260781
_publ_section_title
;
Structure prediction by ZEFSAII (Michael W. Deem and Ramdas Pophale) SiO2 
 PCOD9260781
Probable space group: C 2/C
;
_chemical_formula_sum "Si O2"
_cell_formula_units_Z 60
_cell_length_a 22.948990
_cell_length_b 9.489240
_cell_length_c 17.677565
_cell_angle_alpha 90.000000
_cell_angle_beta 60.666197
_cell_angle_gamma 90.000000
_cell_volume 3356.020075
_symmetry_space_group_name_H-M "C 2/C"
_symmetry_group_IT_number 15
_symmetry_cell_setting 'monoclinic'
loop_
_space_group_symop_operation_xyz
x,y,z
-x,y,1/2-z
-x,-y,-z
x,-y,1/2+z
1/2+x,1/2+y,z
1/2-x,1/2+y,1/2-z
1/2-x,1/2-y,-z
1/2+x,1/2-y,1/2+z
loop_
_atom_site_type_symbol
_atom_site_label
_atom_site_fract_x
_atom_site_fract_y
_atom_site_fract_z
Si Si1 0.000000 0.384085 0.750000
Si Si2 0.856401 0.708992 0.375680
Si Si3 0.179339 0.523500 0.478423
Si Si4 0.747259 0.416157 0.840153
Si Si5 0.184396 0.992521 0.537907
Si Si6 0.441442 0.142675 0.704551
Si Si7 0.688797 0.127152 0.813074
Si Si8 0.416970 0.754224 0.388841
O O1 0.064427 0.296403 0.685590
O O2 0.024778 0.490522 0.800367
O O3 0.837425 0.612212 0.459223
O O4 0.817628 0.638905 0.330123
O O5 0.829472 0.864116 0.407814
O O6 0.251086 0.577476 0.463081
O O7 0.183384 0.470525 0.390630
O O8 0.123052 0.638056 0.532242
O O9 0.714168 0.281988 0.820410
O O10 0.761926 0.546350 0.775800
O O11 0.704533 0.466018 0.939754
O O12 0.120400 0.893167 0.581203
O O13 0.382988 0.139280 0.681569
O O14 0.504067 0.242516 0.644270
O O15 0.412555 0.190091 0.804782
#
# Coordination Sequence:
#
# PCOD9260781 Si02
#       8
#     4   8   8   8   8   8   8   8
#     4  10  18  38  64  84 108 160 204 238 274 366
#     4  11  19  42  62  87 116 157 199 244 288 352
#     4  11  20  37  63  87 116 157 202 238 294 350
#     4  11  24  39  60  89 126 152 196 247 306 349
#     4  11  22  39  60  90 119 154 199 249 291 352
#     4  10  21  40  60  86 121 154 201 243 291 350
#     4  12  24  38  61  91 124 155 192 254 301 347
#     4  10  22  39  63  84 117 164 203 234 288 364
#
# _framework density 17.878319999999999
#
# number of rings (size 3 to 8) (size 9 to 14) (size 15 to 20)
#    0.000    1.333    6.667    2.000    3.733    1.600 
#    0.000    0.667    0.000    0.000    0.000    0.000 
#    0.000    0.000    0.000    0.000    0.000    0.000 
#
# Total GULP energy -167501.785714 kJ/mol
# GULP energy per Si atom -5583.392857 kJ/mol
# Density = 1.783763 g / cm^3
# Si number density = 17.878320 Si / 1000 Ang^3
#
#
#
# Elastic Constant Matrix: (Units=GPa)
#
#
# Indices 1 2 3 4 5 6 
#
# 1 90.1682 11.0367 43.4305 0.0000 4.2954 0.0000
# 2 11.0367 35.7500 11.8733 0.0000 4.0340 0.0000
# 3 43.4305 11.8733 68.7919 0.0000 -2.6193 0.0000
# 4 0.0000 0.0000 0.0000 23.2470 0.0000 -8.1446
# 5 4.2954 4.0340 -2.6193 0.0000 30.0033 0.0000
# 6 0.0000 0.0000 0.0000 -8.1446 0.0000 8.2887
#
#
#
# Elastic Compliance Matrix: (Units=1/GPa)
#
#
# Indices 1 2 3 4 5 6 
#
# 1 0.016299 -0.001307 -0.010181 0.000000 -0.003046 0.000000
# 2 -0.001307 0.030382 -0.004582 0.000000 -0.004298 0.000000
# 3 -0.010181 -0.004582 0.021907 0.000000 0.003986 0.000000
# 4 0.000000 0.000000 0.000000 0.065599 0.000000 0.064458
# 5 -0.003046 -0.004298 0.003986 0.000000 0.034692 0.000000
# 6 0.000000 0.000000 0.000000 0.064458 0.000000 0.183983
#
#
# Mechanical properties :
#
#
# Convention : Reuss Voigt Hill
#
# Bulk Modulus (GPa) = 27.43621 36.37680 31.90650
# Shear Modulus (GPa) = 12.58966 20.86579 16.72773
#
# Velocity S-wave (km/s) = 2.65653 3.41999 3.06215
# Velocity P-wave (km/s) = 4.97885 5.99885 5.51249
#
# Compressibility (1/GPa) = 0.03644819
#
# Stress axis : x y z
#
# Youngs Moduli (GPa) = 61.35334 32.91381 45.64844
#
# Poissons Ratio (x) = 0.04302 0.46472
# Poissons Ratio (y) = 0.08018 0.20918
# Poissons Ratio (z) = 0.62461 0.15083
#
# Static dielectric constant tensor:
#      x y z
#    x 1.610960 0.000000 -0.010080 
#    y 0.000000 1.603920 0.000000 
#    z -0.010080 0.000000 1.605240 
# 
# From -- ./inp_files/218573.got.cif
#   From: 2010.05.17/outbox.cif.g08.bks.cpg/sg15_110_cif.got.tgz:218573.got - 2010.06.03 18:47:42.
