data_PCOD9260310
_publ_section_title
;
Structure prediction by ZEFSAII (Michael W. Deem and Ramdas Pophale) SiO2 
 PCOD9260310
Probable space group: C 2/C
;
_chemical_formula_sum "Si O2"
_cell_formula_units_Z 36
_cell_length_a 10.443296
_cell_length_b 15.655600
_cell_length_c 11.416235
_cell_angle_alpha 90.000000
_cell_angle_beta 124.046129
_cell_angle_gamma 90.000000
_cell_volume 1546.565685
_symmetry_space_group_name_H-M "C 2/C"
_symmetry_group_IT_number 15
_symmetry_cell_setting 'monoclinic'
loop_
_space_group_symop_operation_xyz
x,y,z
-x,y,1/2-z
-x,-y,-z
x,-y,1/2+z
1/2+x,1/2+y,z
1/2-x,1/2+y,1/2-z
1/2-x,1/2-y,-z
1/2+x,1/2-y,1/2+z
loop_
_atom_site_type_symbol
_atom_site_label
_atom_site_fract_x
_atom_site_fract_y
_atom_site_fract_z
Si Si1 0.971213 0.822813 0.510897
Si Si2 0.325624 0.112690 0.707045
Si Si3 0.347920 0.820901 0.477944
Si Si4 0.500000 0.590784 0.250000
Si Si5 0.688335 0.463626 0.511254
O O1 0.998106 0.731353 0.467749
O O2 0.050320 0.897475 0.471544
O O3 0.789765 0.833710 0.433038
O O4 0.054567 0.844556 0.675913
O O5 0.500000 0.114990 0.750000
O O6 0.298857 0.150066 0.822529
O O7 0.252922 0.018236 0.652767
O O8 0.250000 0.750000 0.500000
O O9 0.331778 0.907284 0.541108
O O10 0.620536 0.527556 0.377650
#
# Coordination Sequence:
#
# PCOD9260310 Si02
#       5
#     8   8   8   4   8
#     4  10  22  41  68  98 133 180 223 277 342 400
#     4  11  24  42  67  98 137 175 230 282 329 402
#     4  10  23  43  65  99 135 174 222 276 344 397
#     4  10  18  36  72  94 128 172 226 266 330 400
#     4  10  20  42  69  98 130 180 227 275 333 407
#
# _framework density 23.277383
#
# number of rings (size 3 to 8) (size 9 to 14) (size 15 to 20)
#    0.000    1.778    0.000    5.333    1.556    4.444 
#   12.000    0.000    0.000    0.000    0.000    0.000 
#    0.000    0.000    0.000    0.000    0.000    0.000 
#
# Total GULP energy -100254.717799 kJ/mol
# GULP energy per Si atom -5569.706544 kJ/mol
# Density = 2.322440 g / cm^3
# Si number density = 23.277383 Si / 1000 Ang^3
#
#
#
# Elastic Constant Matrix: (Units=GPa)
#
#
# Indices 1 2 3 4 5 6 
#
# 1 75.2443 50.7341 40.5689 0.0000 9.7040 0.0000
# 2 50.7341 95.7487 35.4589 0.0000 2.9984 0.0000
# 3 40.5689 35.4589 68.7334 0.0000 -9.5536 0.0000
# 4 0.0000 0.0000 0.0000 29.8118 0.0000 -24.8344
# 5 9.7040 2.9984 -9.5536 0.0000 38.6300 0.0000
# 6 0.0000 0.0000 0.0000 -24.8344 0.0000 42.1162
#
#
#
# Elastic Compliance Matrix: (Units=1/GPa)
#
#
# Indices 1 2 3 4 5 6 
#
# 1 0.028020 -0.009816 -0.012786 0.000000 -0.009439 0.000000
# 2 -0.009816 0.016636 -0.002719 0.000000 0.000502 0.000000
# 3 -0.012786 -0.002719 0.024828 0.000000 0.009563 0.000000
# 4 0.000000 0.000000 0.000000 0.065929 0.000000 0.038876
# 5 -0.009439 0.000502 0.009563 0.000000 0.030584 0.000000
# 6 0.000000 0.000000 0.000000 0.038876 0.000000 0.046668
#
#
# Mechanical properties :
#
#
# Convention : Reuss Voigt Hill
#
# Bulk Modulus (GPa) = 53.07448 54.80557 53.94003
# Shear Modulus (GPa) = 18.54688 29.64258 24.09473
#
# Velocity S-wave (km/s) = 2.82579 3.57241 3.22081
# Velocity P-wave (km/s) = 5.78767 6.37274 6.08724
#
# Compressibility (1/GPa) = 0.01884145
#
# Stress axis : x y z
#
# Youngs Moduli (GPa) = 35.68916 60.10912 40.27749
#
# Poissons Ratio (x) = 0.59003 0.51500
# Poissons Ratio (y) = 0.35033 0.10952
# Poissons Ratio (z) = 0.45633 0.16344
#
# Static dielectric constant tensor:
#      x y z
#    x 1.853520 0.000000 0.009240 
#    y 0.000000 1.937360 0.000000 
#    z 0.009240 0.000000 1.839280 
# 
# From -- ./inp_files/85847.got.cif
#   From: 2010.05.17/outbox.cif.g08.bks.cpg/sg15_43_cif.got.tgz:85847.got - 2010.06.03 18:47:42.
