data_PCOD9260728
_publ_section_title
;
Structure prediction by ZEFSAII (Michael W. Deem and Ramdas Pophale) SiO2 
 PCOD9260728
Probable space group: C 2/C
;
_chemical_formula_sum "Si O2"
_cell_formula_units_Z 44
_cell_length_a 17.616338
_cell_length_b 8.302850
_cell_length_c 14.195585
_cell_angle_alpha 90.000000
_cell_angle_beta 72.498528
_cell_angle_gamma 90.000000
_cell_volume 1980.213898
_symmetry_space_group_name_H-M "C 2/C"
_symmetry_group_IT_number 15
_symmetry_cell_setting 'monoclinic'
loop_
_space_group_symop_operation_xyz
x,y,z
-x,y,1/2-z
-x,-y,-z
x,-y,1/2+z
1/2+x,1/2+y,z
1/2-x,1/2+y,1/2-z
1/2-x,1/2-y,-z
1/2+x,1/2-y,1/2+z
loop_
_atom_site_type_symbol
_atom_site_label
_atom_site_fract_x
_atom_site_fract_y
_atom_site_fract_z
Si Si1 0.100679 0.883718 0.393950
Si Si2 0.365310 0.115403 0.676489
Si Si3 0.072272 0.783407 0.014880
Si Si4 0.875632 0.969479 0.334013
Si Si5 0.764385 0.330184 0.672833
Si Si6 0.500000 0.730021 0.250000
O O1 0.111138 0.916520 0.278747
O O2 0.180991 0.799613 0.399378
O O3 0.022773 0.775275 0.439009
O O4 0.088124 0.054999 0.447685
O O5 0.388891 0.141380 0.559054
O O6 0.297138 0.240141 0.735554
O O7 0.443194 0.161976 0.706877
O O8 0.327003 0.941690 0.704882
O O9 0.110610 0.823139 0.100921
O O10 0.789716 0.052838 0.370011
O O11 0.941982 0.108248 0.328963
#
# Coordination Sequence:
#
# PCOD9260728 Si02
#       6
#     8   8   8   8   8   4
#     4  11  21  41  64  93 127 171 205 260 306 379
#     4  11  22  41  64  93 124 169 207 265 309 375
#     4  11  21  38  68  91 125 166 215 249 314 377
#     4  11  20  39  68  92 120 170 210 253 310 381
#     4  11  23  42  63  92 133 159 211 262 321 358
#     4  10  18  38  62  90 116 166 208 246 310 368
#
# _framework density 22.219822000000001
#
# number of rings (size 3 to 8) (size 9 to 14) (size 15 to 20)
#    0.000    1.091    7.273    1.091    0.000    2.182 
#    3.273    1.818    0.000    0.000    0.000    0.000 
#    0.000    0.000    0.000    0.000    0.000    0.000 
#
# Total GULP energy -123022.646677 kJ/mol
# GULP energy per Si atom -5591.938485 kJ/mol
# Density = 2.216925 g / cm^3
# Si number density = 22.219822 Si / 1000 Ang^3
#
#
#
# Elastic Constant Matrix: (Units=GPa)
#
#
# Indices 1 2 3 4 5 6 
#
# 1 136.7113 32.1319 23.9778 0.0000 -27.1319 0.0000
# 2 32.1319 36.9666 1.9246 0.0000 -4.6047 0.0000
# 3 23.9778 1.9246 69.7977 0.0000 -6.5525 0.0000
# 4 0.0000 0.0000 0.0000 12.8296 0.0000 -2.7905
# 5 -27.1319 -4.6047 -6.5525 0.0000 23.6062 0.0000
# 6 0.0000 0.0000 0.0000 -2.7905 0.0000 40.2264
#
#
#
# Elastic Compliance Matrix: (Units=1/GPa)
#
#
# Indices 1 2 3 4 5 6 
#
# 1 0.012224 -0.009045 -0.002871 0.000000 0.011489 0.000000
# 2 -0.009045 0.034422 0.001861 0.000000 -0.003165 0.000000
# 3 -0.002871 0.001861 0.015387 0.000000 0.001334 0.000000
# 4 0.000000 0.000000 0.000000 0.079139 0.000000 0.005490
# 5 0.011489 -0.003165 0.001334 0.000000 0.055319 0.000000
# 6 0.000000 0.000000 0.000000 0.005490 0.000000 0.025240
#
#
# Mechanical properties :
#
#
# Convention : Reuss Voigt Hill
#
# Bulk Modulus (GPa) = 23.85316 39.94935 31.90126
# Shear Modulus (GPa) = 19.54516 27.69517 23.62016
#
# Velocity S-wave (km/s) = 2.96907 3.53429 3.26394
# Velocity P-wave (km/s) = 4.74470 5.88839 5.34721
#
# Compressibility (1/GPa) = 0.04192316
#
# Stress axis : x y z
#
# Youngs Moduli (GPa) = 81.80477 29.05090 64.98788
#
# Poissons Ratio (x) = 0.26276 0.18661
# Poissons Ratio (y) = 0.73992 -0.12094
# Poissons Ratio (z) = 0.23490 -0.05406
#
# Static dielectric constant tensor:
#      x y z
#    x 1.831860 0.000000 0.006830 
#    y 0.000000 1.821120 0.000000 
#    z 0.006830 0.000000 1.826000 
# 
# From -- ./inp_files/159175.got.cif
#   From: 2010.05.17/outbox.cif.g08.bks.cpg/sg15_80_cif.got.tgz:159175.got - 2010.06.03 18:47:42.
