data_PCOD9260864
_publ_section_title
;
Structure prediction by ZEFSAII (Michael W. Deem and Ramdas Pophale) SiO2 
 PCOD9260864
Probable space group: C 2/C
;
_chemical_formula_sum "Si O2"
_cell_formula_units_Z 52
_cell_length_a 14.433546
_cell_length_b 5.556444
_cell_length_c 26.861028
_cell_angle_alpha 90.000000
_cell_angle_beta 116.777638
_cell_angle_gamma 90.000000
_cell_volume 1923.216490
_symmetry_space_group_name_H-M "C 2/C"
_symmetry_group_IT_number 15
_symmetry_cell_setting 'monoclinic'
loop_
_space_group_symop_operation_xyz
x,y,z
-x,y,1/2-z
-x,-y,-z
x,-y,1/2+z
1/2+x,1/2+y,z
1/2-x,1/2+y,1/2-z
1/2-x,1/2-y,-z
1/2+x,1/2-y,1/2+z
loop_
_atom_site_type_symbol
_atom_site_label
_atom_site_fract_x
_atom_site_fract_y
_atom_site_fract_z
Si Si1 0.195413 0.380706 0.135914
Si Si2 0.506391 0.650670 0.132845
Si Si3 0.634581 0.018048 0.840563
Si Si4 0.000000 0.236110 0.750000
Si Si5 0.837729 0.118941 0.237466
Si Si6 0.881640 0.946208 0.024989
Si Si7 0.335633 0.947840 0.971952
O O1 0.078076 0.299886 0.113146
O O2 0.229203 0.486908 0.199014
O O3 0.197672 0.579805 0.093745
O O4 0.269860 0.166953 0.131335
O O5 0.404551 0.793436 0.127931
O O6 0.593442 0.596036 0.196408
O O7 0.459914 0.430034 0.090708
O O8 0.660261 0.135384 0.792507
O O9 0.520849 0.899463 0.802338
O O10 0.905423 0.059384 0.720004
O O11 0.766758 0.995616 0.019802
O O12 0.893874 0.202999 0.000430
O O13 0.891712 0.704038 0.995519
#
# Coordination Sequence:
#
# PCOD9260864 Si02
#       7
#     8   8   8   4   8   8   8
#     4  11  29  43  73 107 149 193 243 327 367 462
#     4  12  25  46  72 111 142 199 250 304 393 461
#     4  11  23  44  67  99 142 193 238 302 376 455
#     4  10  18  38  66  92 132 196 230 292 358 454
#     4  11  23  43  66 103 146 185 244 300 373 457
#     4  10  25  46  82 105 146 206 252 318 383 467
#     4  10  24  50  74 112 148 195 262 316 388 444
#
# _framework density 27.038039999999999
#
# number of rings (size 3 to 8) (size 9 to 14) (size 15 to 20)
#    0.000    1.231    3.077    0.923   12.923    1.231 
#    2.769    0.000    0.000    0.000    0.000    0.000 
#    0.000    0.000    0.000    0.000    0.000    0.000 
#
# Total GULP energy -144942.846579 kJ/mol
# GULP energy per Si atom -5574.724868 kJ/mol
# Density = 2.697650 g / cm^3
# Si number density = 27.038040 Si / 1000 Ang^3
#
#
#
# Elastic Constant Matrix: (Units=GPa)
#
#
# Indices 1 2 3 4 5 6 
#
# 1 106.7979 10.6187 19.0278 0.0000 3.2954 0.0000
# 2 10.6187 103.9908 56.3034 0.0000 10.8355 0.0001
# 3 19.0278 56.3034 134.5224 0.0000 11.9120 0.0000
# 4 0.0000 0.0000 0.0000 43.4779 0.0000 8.3253
# 5 3.2954 10.8355 11.9120 0.0000 26.3004 0.0000
# 6 0.0000 0.0001 0.0000 8.3253 0.0000 3.2409
#
#
#
# Elastic Compliance Matrix: (Units=1/GPa)
#
#
# Indices 1 2 3 4 5 6 
#
# 1 0.009621 -0.000278 -0.001196 0.000000 -0.000549 0.000000
# 2 -0.000278 0.012655 -0.004999 0.000000 -0.002915 0.000000
# 3 -0.001196 -0.004999 0.009897 0.000000 -0.002273 0.000000
# 4 0.000000 0.000000 0.000000 0.045266 0.000000 -0.116279
# 5 -0.000549 -0.002915 -0.002273 0.000000 0.040321 0.000000
# 6 0.000000 0.000000 0.000000 -0.116279 0.000000 0.607252
#
#
# Mechanical properties :
#
#
# Convention : Reuss Voigt Hill
#
# Bulk Modulus (GPa) = 52.01068 57.46785 54.73927
# Shear Modulus (GPa) = 6.71712 31.89459 19.30585
#
# Velocity S-wave (km/s) = 1.57788 3.43828 2.67502
# Velocity P-wave (km/s) = 4.75368 6.08794 5.46171
#
# Compressibility (1/GPa) = 0.01922682
#
# Stress axis : x y z
#
# Youngs Moduli (GPa) = 103.93790 79.01985 101.04513
#
# Poissons Ratio (x) = 0.02194 0.12085
# Poissons Ratio (y) = 0.02885 0.50516
# Poissons Ratio (z) = 0.12431 0.39505
#
# Static dielectric constant tensor:
#      x y z
#    x 2.377310 0.000000 0.229380 
#    y 0.000000 2.262000 0.000000 
#    z 0.229380 0.000000 2.455220 
# 
# From -- ./inp_files/297819.got.cif
#   From: 2010.05.17/outbox.cif.g08.bks.cpg/sg15_149_cif.got.tgz:297819.got - 2010.06.03 18:47:42.
