data_PCOD9260323
_publ_section_title
;
Structure prediction by ZEFSAII (Michael W. Deem and Ramdas Pophale) SiO2 
 PCOD9260323
Probable space group: C 2/C
;
_chemical_formula_sum "Si O2"
_cell_formula_units_Z 48
_cell_length_a 6.827011
_cell_length_b 12.590578
_cell_length_c 19.350028
_cell_angle_alpha 90.000000
_cell_angle_beta 77.203043
_cell_angle_gamma 90.000000
_cell_volume 1621.937987
_symmetry_space_group_name_H-M "C 2/C"
_symmetry_group_IT_number 15
_symmetry_cell_setting 'monoclinic'
loop_
_space_group_symop_operation_xyz
x,y,z
-x,y,1/2-z
-x,-y,-z
x,-y,1/2+z
1/2+x,1/2+y,z
1/2-x,1/2+y,1/2-z
1/2-x,1/2-y,-z
1/2+x,1/2-y,1/2+z
loop_
_atom_site_type_symbol
_atom_site_label
_atom_site_fract_x
_atom_site_fract_y
_atom_site_fract_z
Si Si1 0.230771 0.937574 0.835012
Si Si2 0.262187 0.167503 0.779429
Si Si3 0.800965 0.388502 0.681131
Si Si4 0.229986 0.089953 0.481410
Si Si5 0.873304 0.356410 0.480194
Si Si6 0.768245 0.111834 0.870749
O O1 0.192549 0.884652 0.764873
O O2 0.470633 0.924396 0.825590
O O3 0.148676 0.885678 0.911799
O O4 0.188924 0.060654 0.822902
O O5 0.210971 0.265065 0.833311
O O6 0.182038 0.168090 0.705359
O O7 0.000000 0.656892 0.750000
O O8 0.034070 0.376489 0.529907
O O9 0.143494 0.135801 0.559682
O O10 0.237715 0.961906 0.485111
O O11 0.750000 0.250000 0.500000
O O12 0.710284 0.484933 0.644627
O O13 0.031994 0.362527 0.404553
#
# Coordination Sequence:
#
# PCOD9260323 Si02
#       6
#     8   8   8   8   8   8
#     4  10  18  37  55  85 116 148 203 243 297 364
#     4  11  20  34  59  81 114 162 195 244 302 355
#     4  10  19  34  57  82 119 157 197 246 299 349
#     4   9  17  29  48  79 117 148 190 249 291 349
#     4   9  16  27  50  85 116 151 195 239 301 355
#     4   9  18  34  47  84 120 140 205 242 281 372
#
# _framework density 29.594228999999999
#
# number of rings (size 3 to 8) (size 9 to 14) (size 15 to 20)
#    1.000    1.333    5.000    0.000    0.000    5.333 
#    0.000    0.833   14.667    0.000    0.000    2.333 
#    0.000    0.000    0.000    0.000    0.000    0.000 
#
# Total GULP energy -134448.823309 kJ/mol
# GULP energy per Si atom -5602.034305 kJ/mol
# Density = 2.952687 g / cm^3
# Si number density = 29.594229 Si / 1000 Ang^3
#
#
#
# Elastic Constant Matrix: (Units=GPa)
#
#
# Indices 1 2 3 4 5 6 
#
# 1 103.7038 37.6858 51.9566 0.0000 -5.4182 0.0000
# 2 37.6858 192.2150 22.1372 0.0000 -13.0327 0.0000
# 3 51.9566 22.1372 226.3416 0.0000 0.9677 0.0000
# 4 0.0000 0.0000 0.0000 30.1145 0.0000 -9.2745
# 5 -5.4182 -13.0327 0.9677 0.0000 52.3455 0.0000
# 6 0.0000 0.0000 0.0000 -9.2745 0.0000 42.2788
#
#
#
# Elastic Compliance Matrix: (Units=1/GPa)
#
#
# Indices 1 2 3 4 5 6 
#
# 1 0.011633 -0.001943 -0.002484 0.000000 0.000766 0.000000
# 2 -0.001943 0.005679 -0.000115 0.000000 0.001215 0.000000
# 3 -0.002484 -0.000115 0.005001 0.000000 -0.000378 0.000000
# 4 0.000000 0.000000 0.000000 0.035612 0.000000 0.007812
# 5 0.000766 0.001215 -0.000378 0.000000 0.019493 0.000000
# 6 0.000000 0.000000 0.000000 0.007812 0.000000 0.025366
#
#
# Mechanical properties :
#
#
# Convention : Reuss Voigt Hill
#
# Bulk Modulus (GPa) = 75.57998 82.86887 79.22442
# Shear Modulus (GPa) = 43.00068 52.31317 47.65692
#
# Velocity S-wave (km/s) = 3.81597 4.20894 4.01726
# Velocity P-wave (km/s) = 6.70893 7.18907 6.95314
#
# Compressibility (1/GPa) = 0.01323102
#
# Stress axis : x y z
#
# Youngs Moduli (GPa) = 85.96054 176.08737 199.95778
#
# Poissons Ratio (x) = 0.34211 0.49663
# Poissons Ratio (y) = 0.16701 0.02293
# Poissons Ratio (z) = 0.21350 0.02019
#
# Static dielectric constant tensor:
#      x y z
#    x 2.342380 0.000000 0.005410 
#    y 0.000000 2.181990 0.000000 
#    z 0.005410 0.000000 2.316700 
# 
# From -- ./inp_files/236508.got.cif
#   From: 2010.05.17/outbox.cif.g08.bks.cpg/sg15_119_cif.got.tgz:236508.got - 2010.06.03 18:47:42.
