data_PCOD9260096
_publ_section_title
;
Structure prediction by ZEFSAII (Michael W. Deem and Ramdas Pophale) SiO2 
 PCOD9260096
Probable space group: C 2/C
;
_chemical_formula_sum "Si O2"
_cell_formula_units_Z 60
_cell_length_a 5.799600
_cell_length_b 31.966373
_cell_length_c 17.456328
_cell_angle_alpha 90.000000
_cell_angle_beta 115.440159
_cell_angle_gamma 90.000000
_cell_volume 2922.460199
_symmetry_space_group_name_H-M "C 2/C"
_symmetry_group_IT_number 15
_symmetry_cell_setting 'monoclinic'
loop_
_space_group_symop_operation_xyz
x,y,z
-x,y,1/2-z
-x,-y,-z
x,-y,1/2+z
1/2+x,1/2+y,z
1/2-x,1/2+y,1/2-z
1/2-x,1/2-y,-z
1/2+x,1/2-y,1/2+z
loop_
_atom_site_type_symbol
_atom_site_label
_atom_site_fract_x
_atom_site_fract_y
_atom_site_fract_z
Si Si1 0.382139 0.086483 0.657781
Si Si2 0.730825 0.165626 0.667346
Si Si3 0.500000 0.888014 0.750000
Si Si4 0.817793 0.760445 0.799298
Si Si5 0.720761 0.410010 0.843216
Si Si6 0.969215 0.158074 0.389550
Si Si7 0.941536 0.548103 0.502634
Si Si8 0.354290 0.620107 0.539282
O O1 0.500000 0.065986 0.750000
O O2 0.543336 0.129052 0.668407
O O3 0.402174 0.058324 0.585448
O O4 0.090169 0.100211 0.619502
O O5 0.638638 0.212199 0.672245
O O6 0.756358 0.157056 0.580356
O O7 0.000000 0.161077 0.750000
O O8 0.460120 0.914018 0.821198
O O9 0.261590 0.858945 0.696522
O O10 0.500000 0.765438 0.750000
O O11 0.932847 0.792590 0.878186
O O12 0.000000 0.768562 0.750000
O O13 0.500000 0.417382 0.750000
O O14 0.706911 0.363575 0.879346
O O15 0.707674 0.440490 0.913152
O O16 0.943438 0.138794 0.470611
O O17 0.151587 0.582343 0.505131
O O18 0.000000 0.500000 0.500000
#
# Coordination Sequence:
#
# PCOD9260096 Si02
#       8
#     8   8   4   8   8   8   8   8
#     4  11  22  44  69  94 129 183 234 278 347 420
#     4  10  22  40  67  93 133 177 231 283 342 404
#     4  10  18  36  62  86 124 168 218 252 336 412
#     4  11  24  40  66 103 141 184 233 296 346 409
#     4  10  21  39  64  93 129 180 217 271 346 429
#     4  11  21  38  64  94 131 177 226 273 342 418
#     4  11  25  45  65 101 136 168 227 296 353 417
#     4  11  23  41  69  93 130 182 225 283 352 418
#
# _framework density 20.530649
#
# number of rings (size 3 to 8) (size 9 to 14) (size 15 to 20)
#    0.000    1.333    4.667    1.600    1.867    1.067 
#    3.600    0.667    0.000    0.000    0.000    0.000 
#    0.000    0.000    0.000    0.000    0.000    0.000 
#
# Total GULP energy -167171.823871 kJ/mol
# GULP energy per Si atom -5572.394129 kJ/mol
# Density = 2.048392 g / cm^3
# Si number density = 20.530649 Si / 1000 Ang^3
#
#
#
# Elastic Constant Matrix: (Units=GPa)
#
#
# Indices 1 2 3 4 5 6 
#
# 1 53.8909 3.4093 18.2166 0.0000 -16.0099 0.0000
# 2 3.4093 95.9116 34.8117 0.0000 -7.8072 0.0000
# 3 18.2166 34.8117 132.3507 0.0000 -24.6407 0.0000
# 4 0.0000 0.0000 0.0000 8.1668 0.0000 5.1358
# 5 -16.0099 -7.8072 -24.6407 0.0000 38.5885 0.0000
# 6 0.0000 0.0000 0.0000 5.1358 0.0000 9.4991
#
#
#
# Elastic Compliance Matrix: (Units=1/GPa)
#
#
# Indices 1 2 3 4 5 6 
#
# 1 0.021432 0.000463 -0.001588 0.000000 0.007972 0.000000
# 2 0.000463 0.011544 -0.002984 0.000000 0.000622 0.000000
# 3 -0.001588 -0.002984 0.009447 0.000000 0.004770 0.000000
# 4 0.000000 0.000000 0.000000 0.185528 0.000000 -0.100309
# 5 0.007972 0.000622 0.004770 0.000000 0.032394 0.000000
# 6 0.000000 0.000000 0.000000 -0.100309 0.000000 0.159507
#
#
# Mechanical properties :
#
#
# Convention : Reuss Voigt Hill
#
# Bulk Modulus (GPa) = 29.23510 43.89208 36.56359
# Shear Modulus (GPa) = 11.37736 26.29858 18.83797
#
# Velocity S-wave (km/s) = 2.35662 3.58291 3.03240
# Velocity P-wave (km/s) = 4.65570 6.20818 5.48712
#
# Compressibility (1/GPa) = 0.03420546
#
# Stress axis : x y z
#
# Youngs Moduli (GPa) = 46.66011 86.62830 105.85149
#
# Poissons Ratio (x) = -0.04013 0.16804
# Poissons Ratio (y) = -0.02162 0.31588
# Poissons Ratio (z) = 0.07407 0.25852
#
# Static dielectric constant tensor:
#      x y z
#    x 1.882810 0.000000 0.024540 
#    y 0.000000 1.727980 0.000000 
#    z 0.024540 0.000000 1.784630 
# 
# From -- ./inp_files/186711.got.cif
#   From: 2010.05.17/outbox.cif.g08.bks.cpg/sg15_94_cif.got.tgz:186711.got - 2010.06.03 18:47:42.
