data_PCOD9260580
_publ_section_title
;
Structure prediction by ZEFSAII (Michael W. Deem and Ramdas Pophale) SiO2 
 PCOD9260580
Probable space group: C 2/C
;
_chemical_formula_sum "Si O2"
_cell_formula_units_Z 64
_cell_length_a 23.848607
_cell_length_b 20.783898
_cell_length_c 13.771551
_cell_angle_alpha 90.000000
_cell_angle_beta 148.241294
_cell_angle_gamma 90.000000
_cell_volume 3592.872705
_symmetry_space_group_name_H-M "C 2/C"
_symmetry_group_IT_number 15
_symmetry_cell_setting 'monoclinic'
loop_
_space_group_symop_operation_xyz
x,y,z
-x,y,1/2-z
-x,-y,-z
x,-y,1/2+z
1/2+x,1/2+y,z
1/2-x,1/2+y,1/2-z
1/2-x,1/2-y,-z
1/2+x,1/2-y,1/2+z
loop_
_atom_site_type_symbol
_atom_site_label
_atom_site_fract_x
_atom_site_fract_y
_atom_site_fract_z
Si Si1 0.606300 0.360995 0.184200
Si Si2 0.261527 0.292612 0.285889
Si Si3 0.083031 0.922758 0.689534
Si Si4 0.879033 0.336319 0.038560
Si Si5 0.564786 0.710191 0.944776
Si Si6 0.885274 0.044924 0.630699
Si Si7 0.267949 0.325583 0.505480
Si Si8 0.217175 0.912602 0.695803
O O1 0.689022 0.326840 0.235073
O O2 0.521224 0.309149 0.100325
O O3 0.645008 0.399891 0.336026
O O4 0.537080 0.412532 0.021549
O O5 0.334432 0.231205 0.427973
O O6 0.258279 0.336409 0.377308
O O7 0.142606 0.267917 0.088541
O O8 0.154428 0.935840 0.699165
O O9 0.099099 0.978819 0.789529
O O10 0.122413 0.855326 0.794119
O O11 0.818221 0.354954 0.048715
O O12 0.000000 0.331113 0.250000
O O13 0.835038 0.389458 0.898001
O O14 0.500000 0.719750 0.750000
O O15 0.648128 0.650564 0.062457
O O16 0.798973 0.040768 0.418215
O O17 0.000000 0.060463 0.750000
O O18 0.250000 0.250000 0.500000
#
# Coordination Sequence:
#
# PCOD9260580 Si02
#       8
#     8   8   8   8   8   8   8   8
#     4  11  21  35  53  81 120 150 190 226 286 340
#     4  10  23  30  53  84 112 150 186 240 282 335
#     4  10  22  32  56  82 108 150 181 226 286 345
#     4   9  19  34  57  79 104 150 193 229 282 339
#     4  10  18  38  52  73 114 159 186 226 278 338
#     4  12  21  35  56  79 116 154 185 228 281 345
#     4   9  19  37  51  77 119 137 179 233 290 326
#     4   9  18  38  52  76 112 145 186 229 275 332
#
# _framework density 17.813044999999999
#
# number of rings (size 3 to 8) (size 9 to 14) (size 15 to 20)
#    0.000    2.000    3.750    2.625    7.000    0.500 
#    0.000    0.000    0.000    3.000    0.000    4.375 
#    0.000    0.000    0.000    0.000    0.000    0.000 
#
# Total GULP energy -178247.879668 kJ/mol
# GULP energy per Si atom -5570.246240 kJ/mol
# Density = 1.777250 g / cm^3
# Si number density = 17.813045 Si / 1000 Ang^3
#
#
#
# Elastic Constant Matrix: (Units=GPa)
#
#
# Indices 1 2 3 4 5 6 
#
# 1 65.9755 29.2718 35.2977 0.0000 -27.6442 0.0000
# 2 29.2718 42.9811 26.3381 0.0000 -13.4756 0.0000
# 3 35.2977 26.3381 118.4567 0.0000 -18.4588 0.0000
# 4 0.0000 0.0000 0.0000 22.5250 0.0000 -10.7719
# 5 -27.6442 -13.4756 -18.4588 0.0000 27.5227 0.0000
# 6 0.0000 0.0000 0.0000 -10.7719 0.0000 21.3837
#
#
#
# Elastic Compliance Matrix: (Units=1/GPa)
#
#
# Indices 1 2 3 4 5 6 
#
# 1 0.032762 -0.012694 -0.003105 0.000000 0.024609 0.000000
# 2 -0.012694 0.034714 -0.003656 0.000000 0.001795 0.000000
# 3 -0.003105 -0.003656 0.010514 0.000000 0.002142 0.000000
# 4 0.000000 0.000000 0.000000 0.058484 0.000000 0.029461
# 5 0.024609 0.001795 0.002142 0.000000 0.063366 0.000000
# 6 0.000000 0.000000 0.000000 0.029461 0.000000 0.061605
#
#
# Mechanical properties :
#
#
# Convention : Reuss Voigt Hill
#
# Bulk Modulus (GPa) = 25.58910 45.46982 35.52946
# Shear Modulus (GPa) = 15.95496 23.38667 19.67082
#
# Velocity S-wave (km/s) = 2.99605 3.62732 3.32670
# Velocity P-wave (km/s) = 5.13469 6.56695 5.89448
#
# Compressibility (1/GPa) = 0.03907914
#
# Stress axis : x y z
#
# Youngs Moduli (GPa) = 30.52355 28.80663 95.11127
#
# Poissons Ratio (x) = 0.36566 0.29534
# Poissons Ratio (y) = 0.38746 0.34776
# Poissons Ratio (z) = 0.09478 0.10533
#
# Static dielectric constant tensor:
#      x y z
#    x 1.624830 0.000000 -0.023740 
#    y 0.000000 1.651190 0.000000 
#    z -0.023740 0.000000 1.646380 
# 
# From -- ./inp_files/114283.got.cif
#   From: 2010.05.17/outbox.cif.g08.bks.cpg/sg15_58_cif.got.tgz:114283.got - 2010.06.03 18:47:42.
