data_PCOD9260928
_publ_section_title
;
Structure prediction by ZEFSAII (Michael W. Deem and Ramdas Pophale) SiO2 
 PCOD9260928
Probable space group: C 2/C
;
_chemical_formula_sum "Si O2"
_cell_formula_units_Z 60
_cell_length_a 18.120133
_cell_length_b 17.988693
_cell_length_c 8.805963
_cell_angle_alpha 90.000000
_cell_angle_beta 73.280768
_cell_angle_gamma 90.000000
_cell_volume 2749.027715
_symmetry_space_group_name_H-M "C 2/C"
_symmetry_group_IT_number 15
_symmetry_cell_setting 'monoclinic'
loop_
_space_group_symop_operation_xyz
x,y,z
-x,y,1/2-z
-x,-y,-z
x,-y,1/2+z
1/2+x,1/2+y,z
1/2-x,1/2+y,1/2-z
1/2-x,1/2-y,-z
1/2+x,1/2-y,1/2+z
loop_
_atom_site_type_symbol
_atom_site_label
_atom_site_fract_x
_atom_site_fract_y
_atom_site_fract_z
Si Si1 0.129237 0.519623 0.385172
Si Si2 0.621516 0.256195 0.408246
Si Si3 0.242708 0.448924 0.553039
Si Si4 0.294602 0.609609 0.525980
Si Si5 0.726626 0.682307 0.298017
Si Si6 0.000000 0.467279 0.750000
Si Si7 0.504276 0.860314 0.001774
Si Si8 0.858766 0.685559 0.770687
O O1 0.181949 0.467931 0.457187
O O2 0.190434 0.554658 0.235014
O O3 0.034952 0.410473 0.606413
O O4 0.078171 0.584662 0.496791
O O5 0.641814 0.343422 0.417410
O O6 0.688588 0.218126 0.270239
O O7 0.541400 0.216017 0.415560
O O8 0.631898 0.227196 0.575039
O O9 0.298498 0.520452 0.525327
O O10 0.283063 0.369812 0.548879
O O11 0.291304 0.639565 0.353375
O O12 0.211421 0.628765 0.652870
O O13 0.671307 0.753508 0.330798
O O14 0.063878 0.509827 0.807577
O O15 0.440663 0.840533 0.161632
#
# Coordination Sequence:
#
# PCOD9260928 Si02
#       8
#     8   8   8   8   8   4   8   8
#     4  10  23  36  58  77 119 164 198 233 291 361
#     4   9  16  33  59  84 110 151 202 252 288 349
#     4  12  19  38  57  84 118 162 197 244 293 357
#     4   9  19  33  54  86 115 152 199 247 298 344
#     4   9  17  35  56  85 116 152 196 259 288 345
#     4   8  22  40  50  76 122 156 186 242 292 352
#     4  10  18  39  56  83 113 158 197 250 294 360
#     4   9  18  32  61  86 112 150 205 245 300 355
#
# _framework density 21.825897999999999
#
# number of rings (size 3 to 8) (size 9 to 14) (size 15 to 20)
#    0.800    1.600    2.667    2.800    0.000    1.600 
#    2.400    1.333    2.933    4.800    0.000    0.000 
#    0.000    0.000    0.000    0.000    0.000    0.000 
#
# Total GULP energy -167124.686798 kJ/mol
# GULP energy per Si atom -5570.822893 kJ/mol
# Density = 2.177622 g / cm^3
# Si number density = 21.825898 Si / 1000 Ang^3
#
#
#
# Elastic Constant Matrix: (Units=GPa)
#
#
# Indices 1 2 3 4 5 6 
#
# 1 65.9927 53.9727 17.0432 0.0000 10.7906 0.0000
# 2 53.9727 88.7033 4.2904 0.0000 14.6745 0.0000
# 3 17.0432 4.2904 48.0209 0.0000 3.8270 0.0000
# 4 0.0000 0.0000 0.0000 27.1765 0.0000 8.8532
# 5 10.7906 14.6745 3.8270 0.0000 31.5990 0.0000
# 6 0.0000 0.0000 0.0000 8.8532 0.0000 27.4168
#
#
#
# Elastic Compliance Matrix: (Units=1/GPa)
#
#
# Indices 1 2 3 4 5 6 
#
# 1 0.034763 -0.020465 -0.010421 0.000000 -0.001105 0.000000
# 2 -0.020465 0.024279 0.005489 0.000000 -0.004952 0.000000
# 3 -0.010421 0.005489 0.024185 0.000000 -0.001919 0.000000
# 4 0.000000 0.000000 0.000000 0.041122 0.000000 -0.013279
# 5 -0.001105 -0.004952 -0.001919 0.000000 0.034556 0.000000
# 6 0.000000 0.000000 0.000000 -0.013279 0.000000 0.040762
#
#
# Mechanical properties :
#
#
# Convention : Reuss Voigt Hill
#
# Bulk Modulus (GPa) = 30.83329 39.25883 35.04606
# Shear Modulus (GPa) = 19.13704 25.73250 22.43477
#
# Velocity S-wave (km/s) = 2.96430 3.43737 3.20956
# Velocity P-wave (km/s) = 5.08662 5.81208 5.46141
#
# Compressibility (1/GPa) = 0.03243248
#
# Stress axis : x y z
#
# Youngs Moduli (GPa) = 28.76651 41.18724 41.34716
#
# Poissons Ratio (x) = 0.84289 0.43089
# Poissons Ratio (y) = 0.58870 -0.22694
# Poissons Ratio (z) = 0.29978 -0.22606
#
# Static dielectric constant tensor:
#      x y z
#    x 1.879480 0.000000 0.028780 
#    y 0.000000 1.976470 0.000000 
#    z 0.028780 0.000000 1.873540 
# 
# From -- ./inp_files/57000.got.cif
#   From: 2010.05.17/outbox.cif.g08.bks.cpg/sg15_29_cif.got.tgz:57000.got - 2010.06.03 18:47:42.
