data_PCOD9260111
_publ_section_title
;
Structure prediction by ZEFSAII (Michael W. Deem and Ramdas Pophale) SiO2 
 PCOD9260111
Probable space group: C 2/C
;
_chemical_formula_sum "Si O2"
_cell_formula_units_Z 48
_cell_length_a 18.444395
_cell_length_b 14.574365
_cell_length_c 24.200260
_cell_angle_alpha 90.000000
_cell_angle_beta 158.594099
_cell_angle_gamma 90.000000
_cell_volume 2374.293683
_symmetry_space_group_name_H-M "C 2/C"
_symmetry_group_IT_number 15
_symmetry_cell_setting 'monoclinic'
loop_
_space_group_symop_operation_xyz
x,y,z
-x,y,1/2-z
-x,-y,-z
x,-y,1/2+z
1/2+x,1/2+y,z
1/2-x,1/2+y,1/2-z
1/2-x,1/2-y,-z
1/2+x,1/2-y,1/2+z
loop_
_atom_site_type_symbol
_atom_site_label
_atom_site_fract_x
_atom_site_fract_y
_atom_site_fract_z
Si Si1 0.103121 0.317592 0.430403
Si Si2 0.305642 0.024388 0.990420
Si Si3 0.207210 0.285438 0.632837
Si Si4 0.005603 0.139090 0.660612
Si Si5 0.381946 0.796255 0.493194
Si Si6 0.237420 0.514962 0.163848
O O1 0.250000 0.250000 0.500000
O O2 0.127348 0.427020 0.437219
O O3 0.144232 0.300737 0.524762
O O4 0.878472 0.288802 0.258167
O O5 0.159064 0.077728 0.926635
O O6 0.448140 0.107552 0.069766
O O7 0.210887 0.994924 0.864491
O O8 0.294087 0.382100 0.717948
O O9 0.018128 0.270916 0.537615
O O10 0.901761 0.215675 0.550680
O O11 0.160528 0.186439 0.812998
O O12 0.145487 0.068306 0.725364
O O13 0.000000 0.500000 0.000000
#
# Coordination Sequence:
#
# PCOD9260111 Si02
#       6
#     8   8   8   8   8   8
#     4  11  24  42  63  91 124 169 212 260 306 370
#     4  10  22  39  63  89 125 168 211 251 307 381
#     4  11  22  38  66  93 124 159 213 259 315 367
#     4  11  22  39  63  94 127 162 210 257 313 375
#     4  11  22  38  64  96 124 161 206 263 316 369
#     4  10  18  36  62  90 117 162 211 249 295 369
#
# _framework density 20.216539999999998
#
# number of rings (size 3 to 8) (size 9 to 14) (size 15 to 20)
#    0.000    1.333    3.333    5.000    2.333    4.000 
#    0.000    5.000    0.000    7.000    0.000    0.000 
#    0.000    0.000    0.000    0.000    0.000    0.000 
#
# Total GULP energy -133782.993069 kJ/mol
# GULP energy per Si atom -5574.291378 kJ/mol
# Density = 2.017053 g / cm^3
# Si number density = 20.216540 Si / 1000 Ang^3
#
#
#
# Elastic Constant Matrix: (Units=GPa)
#
#
# Indices 1 2 3 4 5 6 
#
# 1 115.7318 65.0695 41.7137 0.0089 24.5184 0.0007
# 2 65.0695 140.3119 49.5231 -0.0288 2.9200 -0.0019
# 3 41.7137 49.5231 66.4179 -0.0328 6.9497 0.0046
# 4 0.0089 -0.0288 -0.0328 41.7054 -0.0116 1.8377
# 5 24.5184 2.9200 6.9497 -0.0116 24.6190 0.0038
# 6 0.0007 -0.0019 0.0046 1.8377 0.0038 31.9178
#
#
#
# Elastic Compliance Matrix: (Units=1/GPa)
#
#
# Indices 1 2 3 4 5 6 
#
# 1 0.016650 -0.005790 -0.004613 -0.000015 -0.014593 0.000003
# 2 -0.005790 0.011706 -0.005719 0.000006 0.005992 0.000001
# 3 -0.004613 -0.005719 0.022326 0.000015 -0.001030 -0.000004
# 4 -0.000015 0.000006 0.000015 0.024039 0.000022 -0.001384
# 5 -0.014593 0.005992 -0.001030 0.000022 0.054732 -0.000007
# 6 0.000003 0.000001 -0.000004 -0.001384 -0.000007 0.031410
#
#
# Mechanical properties :
#
#
# Convention : Reuss Voigt Hill
#
# Bulk Modulus (GPa) = 54.23644 70.56377 62.40010
# Shear Modulus (GPa) = 25.09380 30.72547 27.90964
#
# Velocity S-wave (km/s) = 3.52696 3.90271 3.71959
# Velocity P-wave (km/s) = 6.59333 7.43559 7.02709
#
# Compressibility (1/GPa) = 0.01843779
#
# Stress axis : x y z
#
# Youngs Moduli (GPa) = 60.05908 85.42857 44.79181
#
# Poissons Ratio (x) = 0.49460 0.20664
# Poissons Ratio (y) = 0.34772 0.25616
# Poissons Ratio (z) = 0.27707 0.48856
#
# Static dielectric constant tensor:
#      x y z
#    x 1.770490 0.000000 0.039960 
#    y 0.000000 1.785280 -0.000020 
#    z 0.039960 -0.000020 1.730420 
# 
# From -- ./inp_files/301106.got.cif
#   From: 2010.05.17/outbox.cif.g08.bks.cpg/sg15_151_cif.got.tgz:301106.got - 2010.06.03 18:47:42.
