data_PCOD9260984
_publ_section_title
;
Structure prediction by ZEFSAII (Michael W. Deem and Ramdas Pophale) SiO2 
 PCOD9260984
Probable space group: C 2/C
;
_chemical_formula_sum "Si O2"
_cell_formula_units_Z 48
_cell_length_a 33.369131
_cell_length_b 7.627184
_cell_length_c 19.744094
_cell_angle_alpha 90.000000
_cell_angle_beta 23.031602
_cell_angle_gamma 90.000000
_cell_volume 1966.021344
_symmetry_space_group_name_H-M "C 2/C"
_symmetry_group_IT_number 15
_symmetry_cell_setting 'monoclinic'
loop_
_space_group_symop_operation_xyz
x,y,z
-x,y,1/2-z
-x,-y,-z
x,-y,1/2+z
1/2+x,1/2+y,z
1/2-x,1/2+y,1/2-z
1/2-x,1/2-y,-z
1/2+x,1/2-y,1/2+z
loop_
_atom_site_type_symbol
_atom_site_label
_atom_site_fract_x
_atom_site_fract_y
_atom_site_fract_z
Si Si1 0.953910 0.311956 0.478153
Si Si2 0.377391 0.220541 0.961751
Si Si3 0.339838 0.205632 0.284871
Si Si4 0.494721 0.590774 0.639385
Si Si5 0.179946 0.589627 0.586493
Si Si6 0.348320 0.619619 0.999326
O O1 0.879383 0.361461 0.532519
O O2 0.912252 0.374647 0.613930
O O3 0.064685 0.387797 0.291147
O O4 0.971125 0.100989 0.440950
O O5 0.500000 0.242031 0.750000
O O6 0.326424 0.103003 0.983893
O O7 0.324256 0.411386 0.046071
O O8 0.421543 0.330749 0.195317
O O9 0.243131 0.240794 0.385416
O O10 0.290250 0.083662 0.420190
O O11 0.424183 0.600894 0.816429
O O12 0.596587 0.675196 0.515878
O O13 0.250000 0.750000 0.500000
#
# Coordination Sequence:
#
# PCOD9260984 Si02
#       6
#     8   8   8   8   8   8
#     4  10  21  40  60  88 129 174 215 275 340 396
#     4   9  16  38  67  80 113 181 232 248 324 416
#     4  12  23  35  63 102 134 155 223 291 337 384
#     4  10  20  41  65  86 127 181 226 264 331 405
#     4  11  20  38  65  91 122 173 221 268 327 405
#     4  10  18  39  65  86 121 182 225 265 321 412
#
# _framework density 24.41479
#
# number of rings (size 3 to 8) (size 9 to 14) (size 15 to 20)
#    0.000    1.667    6.667    1.500    0.000    0.000 
#   12.000    1.667    3.667    0.000    0.000    0.000 
#    0.000    0.000    0.000    0.000    0.000    0.000 
#
# Total GULP energy -133742.083566 kJ/mol
# GULP energy per Si atom -5572.586815 kJ/mol
# Density = 2.435922 g / cm^3
# Si number density = 24.414790 Si / 1000 Ang^3
#
#
#
# Elastic Constant Matrix: (Units=GPa)
#
#
# Indices 1 2 3 4 5 6 
#
# 1 193.0798 57.7925 35.4297 0.0001 -25.4634 0.0003
# 2 57.7925 79.3586 17.6432 -0.0008 -14.1705 0.0011
# 3 35.4297 17.6432 25.6433 -0.0009 -9.9468 0.0002
# 4 0.0001 -0.0008 -0.0009 6.1017 0.0001 -4.2944
# 5 -25.4634 -14.1705 -9.9468 0.0001 42.9397 0.0001
# 6 0.0003 0.0011 0.0002 -4.2944 0.0001 29.3120
#
#
#
# Elastic Compliance Matrix: (Units=1/GPa)
#
#
# Indices 1 2 3 4 5 6 
#
# 1 0.007948 -0.003768 -0.007738 -0.000002 0.001677 0.000000
# 2 -0.003768 0.016974 -0.005676 0.000001 0.002052 0.000000
# 3 -0.007738 -0.005676 0.056130 0.000009 0.006540 0.000001
# 4 -0.000002 0.000001 0.000009 0.182730 0.000001 0.026771
# 5 0.001677 0.002052 0.006540 0.000001 0.026475 0.000000
# 6 0.000000 0.000000 0.000001 0.026771 0.000000 0.038038
#
#
# Mechanical properties :
#
#
# Convention : Reuss Voigt Hill
#
# Bulk Modulus (GPa) = 21.41921 57.75694 39.58807
# Shear Modulus (GPa) = 13.21972 28.15177 20.68574
#
# Velocity S-wave (km/s) = 2.32946 3.39936 2.91394
# Velocity P-wave (km/s) = 4.00341 6.25423 5.25084
#
# Compressibility (1/GPa) = 0.04668707
#
# Stress axis : x y z
#
# Youngs Moduli (GPa) = 125.81257 58.91499 17.81577
#
# Poissons Ratio (x) = 0.22202 0.13786
# Poissons Ratio (y) = 0.47412 0.10112
# Poissons Ratio (z) = 0.97358 0.33438
#
# Static dielectric constant tensor:
#      x y z
#    x 1.973810 0.000000 -0.044650 
#    y 0.000000 1.502710 -0.000010 
#    z -0.044650 -0.000010 1.920150 
# 
# From -- ./inp_files/224538.got.cif
#   From: 2010.05.17/outbox.cif.g08.bks.cpg/sg15_113_cif.got.tgz:224538.got - 2010.06.03 18:47:42.
