data_PCOD9260893
_publ_section_title
;
Structure prediction by ZEFSAII (Michael W. Deem and Ramdas Pophale) SiO2 
 PCOD9260893
Probable space group: C 2/C
;
_chemical_formula_sum "Si O2"
_cell_formula_units_Z 28
_cell_length_a 22.428713
_cell_length_b 8.359168
_cell_length_c 9.894913
_cell_angle_alpha 90.000000
_cell_angle_beta 37.082501
_cell_angle_gamma 90.000000
_cell_volume 1118.590261
_symmetry_space_group_name_H-M "C 2/C"
_symmetry_group_IT_number 15
_symmetry_cell_setting 'monoclinic'
loop_
_space_group_symop_operation_xyz
x,y,z
-x,y,1/2-z
-x,-y,-z
x,-y,1/2+z
1/2+x,1/2+y,z
1/2-x,1/2+y,1/2-z
1/2-x,1/2-y,-z
1/2+x,1/2-y,1/2+z
loop_
_atom_site_type_symbol
_atom_site_label
_atom_site_fract_x
_atom_site_fract_y
_atom_site_fract_z
Si Si1 0.332788 0.385184 0.956416
Si Si2 0.196672 0.136539 0.703464
Si Si3 0.000000 0.131131 0.750000
Si Si4 0.988209 0.687584 0.541862
O O1 0.295887 0.463836 0.883118
O O2 0.410475 0.520380 0.864753
O O3 0.397746 0.231363 0.802621
O O4 0.265215 0.364140 0.210971
O O5 0.250000 0.250000 0.500000
O O6 0.086018 0.213882 0.912793
O O7 0.032326 0.237227 0.566778
O O8 0.000000 0.500000 0.500000
#
# Coordination Sequence:
#
# PCOD9260893 Si02
#       4
#     8   8   4   8
#     4  11  20  45  66  89 126 176 214 256 318 391
#     4  11  24  42  65  93 128 170 211 262 328 378
#     4  10  18  38  68  92 116 174 212 254 314 376
#     4  11  23  38  68  96 127 162 224 262 311 386
#
# _framework density 25.031509
#
# number of rings (size 3 to 8) (size 9 to 14) (size 15 to 20)
#    0.000    1.143    5.714    1.714    4.000    2.286 
#    5.143    2.857    0.000    0.000    0.000    0.000 
#    0.000    0.000    0.000    0.000    0.000    0.000 
#
# Total GULP energy -78350.946441 kJ/mol
# GULP energy per Si atom -5596.496174 kJ/mol
# Density = 2.497454 g / cm^3
# Si number density = 25.031509 Si / 1000 Ang^3
#
#
#
# Elastic Constant Matrix: (Units=GPa)
#
#
# Indices 1 2 3 4 5 6 
#
# 1 60.1141 30.4425 38.6790 0.0000 13.7913 0.0000
# 2 30.4425 129.3372 56.6106 0.0000 15.6974 0.0000
# 3 38.6790 56.6106 175.9801 0.0000 44.6985 0.0000
# 4 0.0000 0.0000 0.0000 46.9729 0.0000 1.7343
# 5 13.7913 15.6974 44.6985 0.0000 48.2041 0.0000
# 6 0.0000 0.0000 0.0000 1.7343 0.0000 27.3000
#
#
#
# Elastic Compliance Matrix: (Units=1/GPa)
#
#
# Indices 1 2 3 4 5 6 
#
# 1 0.020698 -0.003328 -0.002943 0.000000 -0.002109 0.000000
# 2 -0.003328 0.009538 -0.002341 0.000000 0.000017 0.000000
# 3 -0.002943 -0.002341 0.008731 0.000000 -0.006492 0.000000
# 4 0.000000 0.000000 0.000000 0.021339 0.000000 -0.001356
# 5 -0.002109 0.000017 -0.006492 0.000000 0.027363 0.000000
# 6 0.000000 0.000000 0.000000 -0.001356 0.000000 0.036716
#
#
# Mechanical properties :
#
#
# Convention : Reuss Voigt Hill
#
# Bulk Modulus (GPa) = 45.99124 68.54395 57.26760
# Shear Modulus (GPa) = 33.58962 40.47536 37.03249
#
# Velocity S-wave (km/s) = 3.66716 4.02553 3.85052
# Velocity P-wave (km/s) = 6.02860 7.00350 6.53426
#
# Compressibility (1/GPa) = 0.02174327
#
# Stress axis : x y z
#
# Youngs Moduli (GPa) = 48.31469 104.84871 114.52964
#
# Poissons Ratio (x) = 0.34889 0.33707
# Poissons Ratio (y) = 0.16077 0.26812
# Poissons Ratio (z) = 0.14219 0.24546
#
# Static dielectric constant tensor:
#      x y z
#    x 2.297160 0.000000 0.157730 
#    y 0.000000 1.947230 0.000000 
#    z 0.157730 0.000000 2.087520 
# 
# From -- ./inp_files/45395.got.cif
#   From: 2010.05.17/outbox.cif.g08.bks.cpg/sg15_23_cif.got.tgz:45395.got - 2010.06.03 18:47:42.
