data_PCOD9260441
_publ_section_title
;
Structure prediction by ZEFSAII (Michael W. Deem and Ramdas Pophale) SiO2 
 PCOD9260441
Probable space group: C 2/C
;
_chemical_formula_sum "Si O2"
_cell_formula_units_Z 48
_cell_length_a 23.120433
_cell_length_b 13.050205
_cell_length_c 12.271170
_cell_angle_alpha 90.000000
_cell_angle_beta 144.935429
_cell_angle_gamma 90.000000
_cell_volume 2127.104009
_symmetry_space_group_name_H-M "C 2/C"
_symmetry_group_IT_number 15
_symmetry_cell_setting 'monoclinic'
loop_
_space_group_symop_operation_xyz
x,y,z
-x,y,1/2-z
-x,-y,-z
x,-y,1/2+z
1/2+x,1/2+y,z
1/2-x,1/2+y,1/2-z
1/2-x,1/2-y,-z
1/2+x,1/2-y,1/2+z
loop_
_atom_site_type_symbol
_atom_site_label
_atom_site_fract_x
_atom_site_fract_y
_atom_site_fract_z
Si Si1 0.093708 0.550600 0.043643
Si Si2 0.121155 0.604002 0.836467
Si Si3 0.753946 0.368601 0.258639
Si Si4 0.902153 0.829930 0.674156
Si Si5 0.829627 0.983813 0.161137
Si Si6 0.737764 0.319722 0.586959
O O1 0.152640 0.443210 0.122967
O O2 0.157720 0.624403 0.220816
O O3 0.106141 0.603235 0.943544
O O4 0.973020 0.548611 0.865716
O O5 0.120527 0.722526 0.801806
O O6 0.222495 0.540914 0.980043
O O7 0.686105 0.423338 0.249479
O O8 0.789529 0.258680 0.359481
O O9 0.685927 0.351880 0.048676
O O10 0.908078 0.924062 0.768161
O O11 0.000000 0.820709 0.750000
O O12 0.838847 0.906676 0.072709
O O13 0.750000 0.250000 0.500000
#
# Coordination Sequence:
#
# PCOD9260441 Si02
#       6
#     8   8   8   8   8   8
#     4  10  18  37  62  89 119 166 204 255 309 358
#     4  10  20  37  62  93 122 156 212 255 303 366
#     4  10  21  38  63  86 126 164 203 254 312 367
#     4  12  21  38  63  90 123 164 208 255 307 367
#     4  10  23  37  61  92 126 163 204 253 313 369
#     4  10  19  36  59  86 122 165 199 252 313 363
#
# _framework density 22.565892000000002
#
# number of rings (size 3 to 8) (size 9 to 14) (size 15 to 20)
#    0.000    1.667    5.000    0.500    0.000    1.333 
#    0.000    0.000   14.667    0.000    0.000    0.000 
#    0.000    0.000    0.000    0.000    0.000    0.000 
#
# Total GULP energy -134051.256478 kJ/mol
# GULP energy per Si atom -5585.469020 kJ/mol
# Density = 2.251453 g / cm^3
# Si number density = 22.565892 Si / 1000 Ang^3
#
#
#
# Elastic Constant Matrix: (Units=GPa)
#
#
# Indices 1 2 3 4 5 6 
#
# 1 52.9418 4.8772 10.0978 0.0000 3.1460 0.0000
# 2 4.8772 100.4226 8.4928 0.0000 15.4292 0.0000
# 3 10.0978 8.4928 66.1453 0.0000 -2.2059 0.0000
# 4 0.0000 0.0000 0.0000 40.1568 0.0000 -10.7171
# 5 3.1460 15.4292 -2.2059 0.0000 25.9923 0.0000
# 6 0.0000 0.0000 0.0000 -10.7171 0.0000 34.0324
#
#
#
# Elastic Compliance Matrix: (Units=1/GPa)
#
#
# Indices 1 2 3 4 5 6 
#
# 1 0.019643 -0.000321 -0.003039 0.000000 -0.002445 0.000000
# 2 -0.000321 0.011140 -0.001605 0.000000 -0.006710 0.000000
# 3 -0.003039 -0.001605 0.015877 0.000000 0.002668 0.000000
# 4 0.000000 0.000000 0.000000 0.027187 0.000000 0.008562
# 5 -0.002445 -0.006710 0.002668 0.000000 0.042978 0.000000
# 6 0.000000 0.000000 0.000000 0.008562 0.000000 0.032080
#
#
# Mechanical properties :
#
#
# Convention : Reuss Voigt Hill
#
# Bulk Modulus (GPa) = 27.22593 29.60504 28.41549
# Shear Modulus (GPa) = 29.22601 33.10576 31.16589
#
# Velocity S-wave (km/s) = 3.60271 3.83439 3.72036
# Velocity P-wave (km/s) = 5.42193 5.72287 5.57443
#
# Compressibility (1/GPa) = 0.03672969
#
# Stress axis : x y z
#
# Youngs Moduli (GPa) = 50.90825 89.76465 62.98329
#
# Poissons Ratio (x) = 0.02885 0.19141
# Poissons Ratio (y) = 0.01636 0.10109
# Poissons Ratio (z) = 0.15471 0.14408
#
# Static dielectric constant tensor:
#      x y z
#    x 1.956130 0.000000 -0.000420 
#    y 0.000000 1.900610 0.000000 
#    z -0.000420 0.000000 1.807150 
# 
# From -- ./inp_files/181819.got.cif
#   From: 2010.05.17/outbox.cif.g08.bks.cpg/sg15_91_cif.got.tgz:181819.got - 2010.06.03 18:47:42.
