data_PCOD9260923
_publ_section_title
;
Structure prediction by ZEFSAII (Michael W. Deem and Ramdas Pophale) SiO2 
 PCOD9260923
Probable space group: C 2/C
;
_chemical_formula_sum "Si O2"
_cell_formula_units_Z 44
_cell_length_a 19.919235
_cell_length_b 8.034619
_cell_length_c 13.499728
_cell_angle_alpha 90.000000
_cell_angle_beta 112.767854
_cell_angle_gamma 90.000000
_cell_volume 1992.194618
_symmetry_space_group_name_H-M "C 2/C"
_symmetry_group_IT_number 15
_symmetry_cell_setting 'monoclinic'
loop_
_space_group_symop_operation_xyz
x,y,z
-x,y,1/2-z
-x,-y,-z
x,-y,1/2+z
1/2+x,1/2+y,z
1/2-x,1/2+y,1/2-z
1/2-x,1/2-y,-z
1/2+x,1/2-y,1/2+z
loop_
_atom_site_type_symbol
_atom_site_label
_atom_site_fract_x
_atom_site_fract_y
_atom_site_fract_z
Si Si1 0.975192 0.813432 0.402244
Si Si2 0.000000 0.929196 0.750000
Si Si3 0.123008 0.061747 0.033188
Si Si4 0.711860 0.771724 0.236955
Si Si5 0.855841 0.784720 0.587390
Si Si6 0.649251 0.886011 0.622494
O O1 0.931560 0.641356 0.379213
O O2 0.062088 0.802190 0.466926
O O3 0.964466 0.940589 0.305855
O O4 0.931475 0.914641 0.461903
O O5 0.060955 0.813791 0.832074
O O6 0.174278 0.130583 0.147540
O O7 0.165519 0.967588 0.969639
O O8 0.686138 0.759135 0.336391
O O9 0.798252 0.747125 0.292326
O O10 0.684275 0.940173 0.171603
O O11 0.848029 0.652926 0.493577
#
# Coordination Sequence:
#
# PCOD9260923 Si02
#       6
#     8   4   8   8   8   8
#     4   9  18  38  63  94 123 167 213 263 309 394
#     4  10  18  38  74  92 126 176 212 258 336 372
#     4   9  19  39  68  92 123 165 217 258 324 379
#     4  12  24  44  64  93 135 175 209 275 320 379
#     4  10  22  42  66  95 124 173 215 261 320 390
#     4  11  25  41  63  95 134 171 220 263 325 379
#
# _framework density 22.086196000000001
#
# number of rings (size 3 to 8) (size 9 to 14) (size 15 to 20)
#    0.000    1.818    1.818    3.818    0.000    0.727 
#    6.545    1.818    0.000    0.000    0.000    0.000 
#    0.000    0.000    0.000    0.000    0.000    0.000 
#
# Total GULP energy -122685.350708 kJ/mol
# GULP energy per Si atom -5576.606850 kJ/mol
# Density = 2.203593 g / cm^3
# Si number density = 22.086196 Si / 1000 Ang^3
#
#
#
# Elastic Constant Matrix: (Units=GPa)
#
#
# Indices 1 2 3 4 5 6 
#
# 1 50.8068 7.5445 42.3189 0.0000 -4.4014 0.0000
# 2 7.5445 37.2264 24.2953 0.0000 -4.8869 0.0000
# 3 42.3189 24.2953 132.4545 0.0000 -1.1966 0.0000
# 4 0.0000 0.0000 0.0000 47.0872 0.0000 4.6207
# 5 -4.4014 -4.8869 -1.1966 0.0000 22.4115 0.0000
# 6 0.0000 0.0000 0.0000 4.6207 0.0000 26.3019
#
#
#
# Elastic Compliance Matrix: (Units=1/GPa)
#
#
# Indices 1 2 3 4 5 6 
#
# 1 0.027375 0.000908 -0.008867 0.000000 0.005101 0.000000
# 2 0.000908 0.031479 -0.006004 0.000000 0.006722 0.000000
# 3 -0.008867 -0.006004 0.011462 0.000000 -0.002438 0.000000
# 4 0.000000 0.000000 0.000000 0.021610 0.000000 -0.003796
# 5 0.005101 0.006722 -0.002438 0.000000 0.046957 0.000000
# 6 0.000000 0.000000 0.000000 -0.003796 0.000000 0.038687
#
#
# Mechanical properties :
#
#
# Convention : Reuss Voigt Hill
#
# Bulk Modulus (GPa) = 23.58931 40.97835 32.28383
# Shear Modulus (GPa) = 22.76617 28.91540 25.84079
#
# Velocity S-wave (km/s) = 3.21407 3.62222 3.42423
# Velocity P-wave (km/s) = 4.94747 6.00734 5.50298
#
# Compressibility (1/GPa) = 0.04239208
#
# Stress axis : x y z
#
# Youngs Moduli (GPa) = 36.52990 31.76709 87.24614
#
# Poissons Ratio (x) = -0.02886 0.77359
# Poissons Ratio (y) = -0.03318 0.52378
# Poissons Ratio (z) = 0.32390 0.19071
#
# Static dielectric constant tensor:
#      x y z
#    x 1.912040 0.000000 -0.015150 
#    y 0.000000 1.909280 0.000000 
#    z -0.015150 0.000000 1.867440 
# 
# From -- ./inp_files/166457.got.cif
#   From: 2010.05.17/outbox.cif.g08.bks.cpg/sg15_84_cif.got.tgz:166457.got - 2010.06.03 18:47:42.
