data_PCOD9260413
_publ_section_title
;
Structure prediction by ZEFSAII (Michael W. Deem and Ramdas Pophale) SiO2 
 PCOD9260413
Probable space group: C 2/C
;
_chemical_formula_sum "Si O2"
_cell_formula_units_Z 56
_cell_length_a 9.160688
_cell_length_b 20.011614
_cell_length_c 18.059039
_cell_angle_alpha 90.000000
_cell_angle_beta 63.487192
_cell_angle_gamma 90.000000
_cell_volume 2962.426686
_symmetry_space_group_name_H-M "C 2/C"
_symmetry_group_IT_number 15
_symmetry_cell_setting 'monoclinic'
loop_
_space_group_symop_operation_xyz
x,y,z
-x,y,1/2-z
-x,-y,-z
x,-y,1/2+z
1/2+x,1/2+y,z
1/2-x,1/2+y,1/2-z
1/2-x,1/2-y,-z
1/2+x,1/2-y,1/2+z
loop_
_atom_site_type_symbol
_atom_site_label
_atom_site_fract_x
_atom_site_fract_y
_atom_site_fract_z
Si Si1 0.768470 0.029347 0.511234
Si Si2 0.001104 0.797668 0.163787
Si Si3 0.278435 0.830805 0.861170
Si Si4 0.466852 0.391974 0.475372
Si Si5 0.495013 0.966758 0.832016
Si Si6 0.318116 0.719161 0.280840
Si Si7 0.826410 0.075821 0.330410
O O1 0.797109 0.048082 0.419266
O O2 0.852491 0.087081 0.541193
O O3 0.867152 0.960650 0.499484
O O4 0.592763 0.010840 0.584959
O O5 0.823661 0.772612 0.178040
O O6 0.000000 0.817891 0.250000
O O7 0.118811 0.732844 0.133975
O O8 0.050511 0.857208 0.099466
O O9 0.392933 0.896929 0.842914
O O10 0.220898 0.813833 0.790983
O O11 0.118956 0.844248 0.945614
O O12 0.500000 0.000000 0.750000
O O13 0.677776 0.950630 0.814837
O O14 0.500000 0.746939 0.250000
O O15 0.310392 0.656103 0.337366
O O16 0.000000 0.061500 0.250000
#
# Coordination Sequence:
#
# PCOD9260413 Si02
#       7
#     8   8   8   8   8   8   8
#     4  10  24  38  58  88 126 158 199 245 286 355
#     4  10  20  37  61  86 115 149 195 243 299 358
#     4  10  18  37  61  88 109 152 203 246 293 352
#     4  10  21  38  59  82 120 158 194 239 298 350
#     4  11  20  38  62  87 117 160 201 248 297 348
#     4  10  19  34  61  87 116 146 196 250 296 351
#     4  11  21  36  63  92 115 152 205 249 296 346
#
# _framework density 18.903421000000002
#
# number of rings (size 3 to 8) (size 9 to 14) (size 15 to 20)
#    0.000    1.714    2.857    3.000    4.000    0.571 
#    0.000    3.571    9.429    0.000    0.000    0.000 
#    0.000    0.000    0.000    0.000    0.000    0.000 
#
# Total GULP energy -156149.766001 kJ/mol
# GULP energy per Si atom -5576.777357 kJ/mol
# Density = 1.886040 g / cm^3
# Si number density = 18.903421 Si / 1000 Ang^3
#
#
#
# Elastic Constant Matrix: (Units=GPa)
#
#
# Indices 1 2 3 4 5 6 
#
# 1 92.7578 16.0644 11.4483 0.0000 -19.7878 0.0000
# 2 16.0644 34.0148 37.0846 0.0000 0.5420 0.0000
# 3 11.4483 37.0846 82.4934 0.0000 -8.4519 0.0000
# 4 0.0000 0.0000 0.0000 15.1799 0.0000 13.8867
# 5 -19.7878 0.5420 -8.4519 0.0000 28.6020 0.0000
# 6 0.0000 0.0000 0.0000 13.8867 0.0000 7.5704
#
#
#
# Elastic Compliance Matrix: (Units=1/GPa)
#
#
# Indices 1 2 3 4 5 6 
#
# 1 0.014882 -0.012353 0.004709 0.000000 0.011922 0.000000
# 2 -0.012353 0.070263 -0.031848 0.000000 -0.019289 0.000000
# 3 0.004709 -0.031848 0.026999 0.000000 0.011840 0.000000
# 4 0.000000 0.000000 0.000000 -0.097152 0.000000 0.178211
# 5 0.011922 -0.019289 0.011840 0.000000 0.047074 0.000000
# 6 0.000000 0.000000 0.000000 0.178211 0.000000 -0.194808
#
#
# Mechanical properties :
#
#
# Convention : Reuss Voigt Hill
#
# Bulk Modulus (GPa) = 30.15651 37.60674 33.88162
# Shear Modulus (GPa) = -117.08547 19.91504 -48.58522
#
# Velocity S-wave (km/s) = -7.87866 3.24931 -5.07520
# Velocity P-wave (km/s) = 8.17170 5.83221 4.04735
#
# Compressibility (1/GPa) = 0.03316034
#
# Stress axis : x y z
#
# Youngs Moduli (GPa) = 67.19491 14.23222 37.03832
#
# Poissons Ratio (x) = 0.17581 -0.17442
# Poissons Ratio (y) = 0.83004 1.17961
# Poissons Ratio (z) = -0.31644 0.45327
#
# Static dielectric constant tensor:
#      x y z
#    x 1.676140 0.000000 -0.010320 
#    y 0.000000 1.644560 0.000000 
#    z -0.010320 0.000000 1.678570 
# 
# From -- ./inp_files/192010.got.cif
#   From: 2010.05.17/outbox.cif.g08.bks.cpg/sg15_97_cif.got.tgz:192010.got - 2010.06.03 18:47:42.
