data_PCOD9260470
_publ_section_title
;
Structure prediction by ZEFSAII (Michael W. Deem and Ramdas Pophale) SiO2 
 PCOD9260470
Probable space group: C 2/C
;
_chemical_formula_sum "Si O2"
_cell_formula_units_Z 60
_cell_length_a 18.657070
_cell_length_b 9.606572
_cell_length_c 20.245170
_cell_angle_alpha 90.000000
_cell_angle_beta 125.225197
_cell_angle_gamma 90.000000
_cell_volume 2964.132363
_symmetry_space_group_name_H-M "C 2/C"
_symmetry_group_IT_number 15
_symmetry_cell_setting 'monoclinic'
loop_
_space_group_symop_operation_xyz
x,y,z
-x,y,1/2-z
-x,-y,-z
x,-y,1/2+z
1/2+x,1/2+y,z
1/2-x,1/2+y,1/2-z
1/2-x,1/2-y,-z
1/2+x,1/2-y,1/2+z
loop_
_atom_site_type_symbol
_atom_site_label
_atom_site_fract_x
_atom_site_fract_y
_atom_site_fract_z
Si Si1 0.742505 0.418142 0.892145
Si Si2 0.181039 0.007804 0.995845
Si Si3 0.184642 0.581215 0.682809
Si Si4 0.914112 0.754813 0.972101
Si Si5 0.680341 0.872252 0.330478
Si Si6 0.079321 0.257762 0.473742
Si Si7 0.998414 0.536253 0.109566
Si Si8 0.500000 0.033083 0.250000
O O1 0.746045 0.505520 0.827040
O O2 0.677698 0.287764 0.850806
O O3 0.722251 0.515234 0.944561
O O4 0.835546 0.338020 0.952370
O O5 0.256674 0.956935 0.086600
O O6 0.131366 0.137555 0.002484
O O7 0.114162 0.878382 0.956686
O O8 0.149744 0.713111 0.622163
O O9 0.212916 0.618034 0.771841
O O10 0.100080 0.478157 0.644215
O O11 0.007909 0.793129 0.989521
O O12 0.940194 0.614571 0.025082
O O13 0.585568 0.941104 0.283073
O O14 0.033742 0.376021 0.404937
O O15 0.987234 0.610432 0.173991
#
# Coordination Sequence:
#
# PCOD9260470 Si02
#       8
#     8   8   8   8   8   8   8   4
#     4  11  20  39  61  88 120 160 195 256 305 359
#     4  11  24  36  62  94 123 153 201 259 310 346
#     4  10  21  37  61  86 120 165 203 245 295 371
#     4  11  21  37  61  93 116 159 204 253 300 366
#     4  10  23  38  62  86 118 161 207 242 299 365
#     4  10  18  39  62  82 117 159 204 240 293 370
#     4  10  18  37  63  86 114 162 207 241 295 365
#     4  10  20  38  60  84 110 158 208 248 282 366
#
# _framework density 20.242013
#
# number of rings (size 3 to 8) (size 9 to 14) (size 15 to 20)
#    0.000    1.600    2.667    4.400    1.867    0.533 
#    0.000    0.000    0.000    0.800    0.000    0.000 
#    0.000    0.000    0.000    0.000    0.000    0.000 
#
# Total GULP energy -167354.337350 kJ/mol
# GULP energy per Si atom -5578.477912 kJ/mol
# Density = 2.019594 g / cm^3
# Si number density = 20.242013 Si / 1000 Ang^3
#
#
#
# Elastic Constant Matrix: (Units=GPa)
#
#
# Indices 1 2 3 4 5 6 
#
# 1 85.8706 26.1473 23.3834 0.0000 -22.7093 0.0000
# 2 26.1473 44.5355 7.8021 0.0000 -9.4028 0.0000
# 3 23.3834 7.8021 74.5596 0.0000 -31.3556 0.0000
# 4 0.0000 0.0000 0.0000 13.8276 0.0000 -6.9628
# 5 -22.7093 -9.4028 -31.3556 0.0000 39.7081 0.0000
# 6 0.0000 0.0000 0.0000 -6.9628 0.0000 19.1581
#
#
#
# Elastic Compliance Matrix: (Units=1/GPa)
#
#
# Indices 1 2 3 4 5 6 
#
# 1 0.016095 -0.007886 -0.001702 0.000000 0.005994 0.000000
# 2 -0.007886 0.027501 0.000655 0.000000 0.002519 0.000000
# 3 -0.001702 0.000655 0.020262 0.000000 0.015182 0.000000
# 4 0.000000 0.000000 0.000000 0.088519 0.000000 0.032171
# 5 0.005994 0.002519 0.015182 0.000000 0.041196 0.000000
# 6 0.000000 0.000000 0.000000 0.032171 0.000000 0.063890
#
#
# Mechanical properties :
#
#
# Convention : Reuss Voigt Hill
#
# Bulk Modulus (GPa) = 21.74297 35.51457 28.62877
# Shear Modulus (GPa) = 17.20221 24.38094 20.79157
#
# Velocity S-wave (km/s) = 2.91834 3.47432 3.20839
# Velocity P-wave (km/s) = 4.70324 5.80324 5.28195
#
# Compressibility (1/GPa) = 0.04599188
#
# Stress axis : x y z
#
# Youngs Moduli (GPa) = 62.13010 36.36207 49.35376
#
# Poissons Ratio (x) = 0.28676 0.08400
# Poissons Ratio (y) = 0.48997 -0.03232
# Poissons Ratio (z) = 0.10575 -0.02381
#
# Static dielectric constant tensor:
#      x y z
#    x 1.775840 0.000000 -0.023480 
#    y 0.000000 1.705070 0.000000 
#    z -0.023480 0.000000 1.735560 
# 
# From -- ./inp_files/247860.got.cif
#   From: 2010.05.17/outbox.cif.g08.bks.cpg/sg15_124_cif.got.tgz:247860.got - 2010.06.03 18:47:42.
