data_PCOD9260720
_publ_section_title
;
Structure prediction by ZEFSAII (Michael W. Deem and Ramdas Pophale) SiO2 
 PCOD9260720
Probable space group: C 2/C
;
_chemical_formula_sum "Si O2"
_cell_formula_units_Z 48
_cell_length_a 9.025884
_cell_length_b 16.481849
_cell_length_c 16.422619
_cell_angle_alpha 90.000000
_cell_angle_beta 125.137862
_cell_angle_gamma 90.000000
_cell_volume 1997.878347
_symmetry_space_group_name_H-M "C 2/C"
_symmetry_group_IT_number 15
_symmetry_cell_setting 'monoclinic'
loop_
_space_group_symop_operation_xyz
x,y,z
-x,y,1/2-z
-x,-y,-z
x,-y,1/2+z
1/2+x,1/2+y,z
1/2-x,1/2+y,1/2-z
1/2-x,1/2-y,-z
1/2+x,1/2-y,1/2+z
loop_
_atom_site_type_symbol
_atom_site_label
_atom_site_fract_x
_atom_site_fract_y
_atom_site_fract_z
Si Si1 0.124859 0.681786 0.858560
Si Si2 0.446239 0.591722 0.056354
Si Si3 0.104745 0.362195 0.082404
Si Si4 0.318927 0.583786 0.510928
Si Si5 0.057597 0.520514 0.174527
Si Si6 0.253319 0.852258 0.857689
O O1 0.272176 0.624418 0.948077
O O2 0.226535 0.755997 0.847235
O O3 0.000000 0.643733 0.750000
O O4 0.977266 0.705189 0.881821
O O5 0.449804 0.493531 0.067395
O O6 0.607456 0.621847 0.049188
O O7 0.412006 0.621694 0.136649
O O8 0.128925 0.441307 0.147994
O O9 0.276674 0.359816 0.075748
O O10 0.931245 0.369582 0.968669
O O11 0.129486 0.542010 0.429920
O O12 0.202023 0.592904 0.205610
O O13 0.000000 0.517093 0.250000
#
# Coordination Sequence:
#
# PCOD9260720 Si02
#       6
#     8   8   8   8   8   8
#     4  11  23  38  61  84 122 162 205 247 301 361
#     4  10  19  36  60  88 115 157 199 244 297 362
#     4  10  18  38  62  88 113 162 204 239 297 375
#     4  10  19  34  61  89 120 147 198 254 295 354
#     4  11  20  35  61  90 120 156 203 253 304 349
#     4  10  20  39  58  83 117 162 199 238 296 376
#
# _framework density 24.025486000000001
#
# number of rings (size 3 to 8) (size 9 to 14) (size 15 to 20)
#    0.000    1.667    5.000    3.500    0.000    1.333 
#    0.000   10.000    0.000    0.000    0.000    0.000 
#    0.000    0.000    0.000    0.000    0.000    0.000 
#
# Total GULP energy -133623.760758 kJ/mol
# GULP energy per Si atom -5567.656698 kJ/mol
# Density = 2.397080 g / cm^3
# Si number density = 24.025486 Si / 1000 Ang^3
#
#
#
# Elastic Constant Matrix: (Units=GPa)
#
#
# Indices 1 2 3 4 5 6 
#
# 1 143.6823 40.4084 20.1832 0.0000 -46.9940 0.0000
# 2 40.4084 90.8740 12.4504 0.0000 -14.1086 0.0000
# 3 20.1832 12.4504 62.0311 0.0000 -24.0279 0.0000
# 4 0.0000 0.0000 0.0000 17.2000 0.0000 -1.8274
# 5 -46.9940 -14.1086 -24.0279 0.0000 39.2524 0.0000
# 6 0.0000 0.0000 0.0000 -1.8274 0.0000 43.1832
#
#
#
# Elastic Compliance Matrix: (Units=1/GPa)
#
#
# Indices 1 2 3 4 5 6 
#
# 1 0.012657 -0.003584 0.002585 0.000000 0.015447 0.000000
# 2 -0.003584 0.012711 -0.001675 0.000000 -0.000747 0.000000
# 3 0.002585 -0.001675 0.021735 0.000000 0.015797 0.000000
# 4 0.000000 0.000000 0.000000 0.058402 0.000000 0.002471
# 5 0.015447 -0.000747 0.015797 0.000000 0.053372 0.000000
# 6 0.000000 0.000000 0.000000 0.002471 0.000000 0.023262
#
#
# Mechanical properties :
#
#
# Convention : Reuss Voigt Hill
#
# Bulk Modulus (GPa) = 23.94875 49.18572 36.56723
# Shear Modulus (GPa) = 24.82556 34.83016 29.82786
#
# Velocity S-wave (km/s) = 3.21799 3.81165 3.52733
# Velocity P-wave (km/s) = 4.87821 6.31572 5.64293
#
# Compressibility (1/GPa) = 0.04175583
#
# Stress axis : x y z
#
# Youngs Moduli (GPa) = 79.00789 78.66979 46.00816
#
# Poissons Ratio (x) = 0.28195 -0.11891
# Poissons Ratio (y) = 0.28316 0.07704
# Poissons Ratio (z) = -0.20421 0.13174
#
# Static dielectric constant tensor:
#      x y z
#    x 1.993430 0.000000 -0.049380 
#    y 0.000000 1.990660 0.000000 
#    z -0.049380 0.000000 2.053650 
# 
# From -- ./inp_files/136200.got.cif
#   From: 2010.05.17/outbox.cif.g08.bks.cpg/sg15_69_cif.got.tgz:136200.got - 2010.06.03 18:47:42.
