data_PCOD9260922
_publ_section_title
;
Structure prediction by ZEFSAII (Michael W. Deem and Ramdas Pophale) SiO2 
 PCOD9260922
Probable space group: C 2/C
;
_chemical_formula_sum "Si O2"
_cell_formula_units_Z 60
_cell_length_a 11.460528
_cell_length_b 14.877388
_cell_length_c 24.332529
_cell_angle_alpha 90.000000
_cell_angle_beta 46.936435
_cell_angle_gamma 90.000000
_cell_volume 3031.071844
_symmetry_space_group_name_H-M "C 2/C"
_symmetry_group_IT_number 15
_symmetry_cell_setting 'monoclinic'
loop_
_space_group_symop_operation_xyz
x,y,z
-x,y,1/2-z
-x,-y,-z
x,-y,1/2+z
1/2+x,1/2+y,z
1/2-x,1/2+y,1/2-z
1/2-x,1/2-y,-z
1/2+x,1/2-y,1/2+z
loop_
_atom_site_type_symbol
_atom_site_label
_atom_site_fract_x
_atom_site_fract_y
_atom_site_fract_z
Si Si1 0.000000 0.949479 0.750000
Si Si2 0.255417 0.290957 0.937604
Si Si3 0.607608 0.517604 0.412181
Si Si4 0.316699 0.811459 0.826168
Si Si5 0.882707 0.789325 0.719624
Si Si6 0.326905 0.323267 0.134730
Si Si7 0.177477 0.812371 0.070660
Si Si8 0.830538 0.989911 0.911581
O O1 0.116745 0.883254 0.746842
O O2 0.099301 0.001960 0.672448
O O3 0.435272 0.277486 0.857279
O O4 0.150011 0.236111 0.927844
O O5 0.227118 0.398544 0.946446
O O6 0.250000 0.250000 0.000000
O O7 0.500000 0.500000 0.500000
O O8 0.726157 0.600891 0.378803
O O9 0.702907 0.426026 0.371086
O O10 0.480972 0.531096 0.403328
O O11 0.500000 0.827774 0.750000
O O12 0.224068 0.788844 0.800046
O O13 0.303540 0.734465 0.876464
O O14 0.813786 0.716728 0.783469
O O15 0.489452 0.320399 0.117363
O O16 0.242693 0.914700 0.047762
O O17 0.250000 0.750000 0.000000
#
# Coordination Sequence:
#
# PCOD9260922 Si02
#       8
#     4   8   8   8   8   8   8   8
#     4  10  18  38  72  88 120 162 228 256 314 392
#     4  11  22  38  71  96 126 166 229 270 320 392
#     4  11  23  41  67  93 130 174 220 262 330 397
#     4  12  24  41  65  99 132 171 221 269 326 402
#     4  11  21  41  63  97 129 164 206 279 330 372
#     4  11  22  41  67  94 127 171 215 272 330 381
#     4  11  26  42  64  92 139 175 216 268 333 399
#     4  10  21  40  67  92 121 177 218 256 330 389
#
# _framework density 19.794978
#
# number of rings (size 3 to 8) (size 9 to 14) (size 15 to 20)
#    0.000    1.067    6.667    2.400    2.800    1.067 
#    0.000    0.667    2.933    0.000    0.000    0.000 
#    0.000    0.000    0.000    0.000    0.000    0.000 
#
# Total GULP energy -167562.520851 kJ/mol
# GULP energy per Si atom -5585.417362 kJ/mol
# Density = 1.974992 g / cm^3
# Si number density = 19.794978 Si / 1000 Ang^3
#
#
#
# Elastic Constant Matrix: (Units=GPa)
#
#
# Indices 1 2 3 4 5 6 
#
# 1 90.7617 20.8146 4.9170 0.0000 28.0820 0.0000
# 2 20.8146 134.0376 14.6086 0.0000 13.7398 0.0000
# 3 4.9170 14.6086 80.0415 0.0000 21.8624 0.0000
# 4 0.0000 0.0000 0.0000 37.0788 0.0000 6.7992
# 5 28.0820 13.7398 21.8624 0.0000 36.0731 0.0000
# 6 0.0000 0.0000 0.0000 6.7992 0.0000 23.9701
#
#
#
# Elastic Compliance Matrix: (Units=1/GPa)
#
#
# Indices 1 2 3 4 5 6 
#
# 1 0.015216 -0.001336 0.002883 0.000000 -0.013084 0.000000
# 2 -0.001336 0.007917 -0.000987 0.000000 -0.001377 0.000000
# 3 0.002883 -0.000987 0.015587 0.000000 -0.011315 0.000000
# 4 0.000000 0.000000 0.000000 0.028449 0.000000 -0.008070
# 5 -0.013084 -0.001377 -0.011315 0.000000 0.045289 0.000000
# 6 0.000000 0.000000 0.000000 -0.008070 0.000000 0.044008
#
#
# Mechanical properties :
#
#
# Convention : Reuss Voigt Hill
#
# Bulk Modulus (GPa) = 25.10011 42.83567 33.96789
# Shear Modulus (GPa) = 29.65146 37.05777 33.35461
#
# Velocity S-wave (km/s) = 3.87451 4.33145 4.10933
# Velocity P-wave (km/s) = 5.72043 6.83388 6.30179
#
# Compressibility (1/GPa) = 0.03984046
#
# Stress axis : x y z
#
# Youngs Moduli (GPa) = 65.71948 126.31402 64.15579
#
# Poissons Ratio (x) = 0.16875 -0.18494
# Poissons Ratio (y) = 0.08780 0.06330
# Poissons Ratio (z) = -0.18945 0.12462
#
# Static dielectric constant tensor:
#      x y z
#    x 1.738520 0.000000 -0.027810 
#    y 0.000000 1.719730 0.000000 
#    z -0.027810 0.000000 1.752730 
# 
# From -- ./inp_files/269930.got.cif
#   From: 2010.05.17/outbox.cif.g08.bks.cpg/sg15_135_cif.got.tgz:269930.got - 2010.06.03 18:47:42.
