data_PCOD9260398
_publ_section_title
;
Structure prediction by ZEFSAII (Michael W. Deem and Ramdas Pophale) SiO2 
 PCOD9260398
Probable space group: C 2/C
;
_chemical_formula_sum "Si O2"
_cell_formula_units_Z 64
_cell_length_a 22.386000
_cell_length_b 16.501477
_cell_length_c 19.460293
_cell_angle_alpha 90.000000
_cell_angle_beta 152.922409
_cell_angle_gamma 90.000000
_cell_volume 3272.259959
_symmetry_space_group_name_H-M "C 2/C"
_symmetry_group_IT_number 15
_symmetry_cell_setting 'monoclinic'
loop_
_space_group_symop_operation_xyz
x,y,z
-x,y,1/2-z
-x,-y,-z
x,-y,1/2+z
1/2+x,1/2+y,z
1/2-x,1/2+y,1/2-z
1/2-x,1/2-y,-z
1/2+x,1/2-y,1/2+z
loop_
_atom_site_type_symbol
_atom_site_label
_atom_site_fract_x
_atom_site_fract_y
_atom_site_fract_z
Si Si1 0.134448 0.201878 0.918990
Si Si2 0.304881 0.211766 0.661740
Si Si3 0.754835 0.130398 0.044583
Si Si4 0.154952 0.248163 0.635424
Si Si5 0.052727 0.390390 0.457063
Si Si6 0.989019 0.565271 0.125468
Si Si7 0.579644 0.764790 0.010855
Si Si8 0.224975 0.546015 0.475459
O O1 0.119871 0.214541 0.984819
O O2 0.000000 0.233473 0.750000
O O3 0.250000 0.250000 0.000000
O O4 0.164645 0.110383 0.929477
O O5 0.273024 0.170591 0.557043
O O6 0.338128 0.305364 0.675152
O O7 0.180640 0.212464 0.585760
O O8 0.420345 0.161813 0.815792
O O9 0.623148 0.120150 0.955177
O O10 0.791727 0.038949 0.063864
O O11 0.139427 0.344474 0.602797
O O12 0.028093 0.224430 0.549542
O O13 0.284988 0.225539 0.809900
O O14 0.031274 0.485954 0.442698
O O15 0.983226 0.650192 0.079562
O O16 0.867172 0.570026 0.054274
O O17 0.120599 0.547194 0.304920
#
# Coordination Sequence:
#
# PCOD9260398 Si02
#       8
#     8   8   8   8   8   8   8   8
#     4  12  24  42  67  92 126 166 213 267 324 376
#     4  10  18  37  60  96 123 171 206 259 314 379
#     4   9  19  33  66  95 128 160 206 269 322 372
#     4  11  24  40  60  87 129 167 215 254 306 390
#     4  10  19  38  64  95 125 163 219 264 316 381
#     4  10  20  35  68  93 125 155 216 272 319 374
#     4  12  24  41  62  93 122 173 211 262 319 381
#     4  10  19  37  61 102 126 151 206 278 325 374
#
# _framework density 19.558349
#
# number of rings (size 3 to 8) (size 9 to 14) (size 15 to 20)
#    0.000    1.500    3.750    2.625    0.000    0.500 
#    0.000    3.750    0.000    1.500    0.000    0.000 
#    0.000    0.000    0.000    0.000    0.000    0.000 
#
# Total GULP energy -178392.715706 kJ/mol
# GULP energy per Si atom -5574.772366 kJ/mol
# Density = 1.951383 g / cm^3
# Si number density = 19.558349 Si / 1000 Ang^3
#
#
#
# Elastic Constant Matrix: (Units=GPa)
#
#
# Indices 1 2 3 4 5 6 
#
# 1 111.6279 40.0747 17.5581 -0.0002 3.7382 -0.0001
# 2 40.0747 103.9128 3.9752 0.0000 10.6903 0.0000
# 3 17.5581 3.9752 42.3137 -0.0003 8.7196 -0.0002
# 4 -0.0002 0.0000 -0.0003 25.6370 -0.0001 2.9576
# 5 3.7382 10.6903 8.7196 -0.0001 24.2673 -0.0001
# 6 -0.0001 0.0000 -0.0002 2.9576 -0.0001 16.4607
#
#
#
# Elastic Compliance Matrix: (Units=1/GPa)
#
#
# Indices 1 2 3 4 5 6 
#
# 1 0.011173 -0.004322 -0.004609 0.000000 0.001839 0.000000
# 2 -0.004322 0.011752 0.001748 0.000000 -0.005140 0.000000
# 3 -0.004609 0.001748 0.027424 0.000000 -0.009914 0.000000
# 4 0.000000 0.000000 0.000000 0.039832 0.000000 -0.007157
# 5 0.001839 -0.005140 -0.009914 0.000000 0.046751 0.000000
# 6 0.000000 0.000000 0.000000 -0.007157 0.000000 0.062037
#
#
# Mechanical properties :
#
#
# Convention : Reuss Voigt Hill
#
# Bulk Modulus (GPa) = 27.78995 42.34115 35.06555
# Shear Modulus (GPa) = 22.18973 26.35610 24.27292
#
# Velocity S-wave (km/s) = 3.37195 3.67490 3.52668
# Velocity P-wave (km/s) = 5.42214 6.30096 5.87800
#
# Compressibility (1/GPa) = 0.03598424
#
# Stress axis : x y z
#
# Youngs Moduli (GPa) = 89.49872 85.09123 36.46387
#
# Poissons Ratio (x) = 0.36776 0.16807
# Poissons Ratio (y) = 0.38681 -0.06375
# Poissons Ratio (z) = 0.41253 -0.14878
#
# Static dielectric constant tensor:
#      x y z
#    x 1.685120 0.000000 0.000300 
#    y 0.000000 1.736180 0.000000 
#    z 0.000300 0.000000 1.664140 
# 
# From -- ./inp_files/216181.got.cif
#   From: 2010.05.17/outbox.cif.g08.bks.cpg/sg15_109_cif.got.tgz:216181.got - 2010.06.03 18:47:42.
