data_PCOD9260904
_publ_section_title
;
Structure prediction by ZEFSAII (Michael W. Deem and Ramdas Pophale) SiO2 
 PCOD9260904
Probable space group: C 2/C
;
_chemical_formula_sum "Si O2"
_cell_formula_units_Z 48
_cell_length_a 14.809343
_cell_length_b 16.250883
_cell_length_c 18.934373
_cell_angle_alpha 90.000000
_cell_angle_beta 150.498021
_cell_angle_gamma 90.000000
_cell_volume 2244.031866
_symmetry_space_group_name_H-M "C 2/C"
_symmetry_group_IT_number 15
_symmetry_cell_setting 'monoclinic'
loop_
_space_group_symop_operation_xyz
x,y,z
-x,y,1/2-z
-x,-y,-z
x,-y,1/2+z
1/2+x,1/2+y,z
1/2-x,1/2+y,1/2-z
1/2-x,1/2-y,-z
1/2+x,1/2-y,1/2+z
loop_
_atom_site_type_symbol
_atom_site_label
_atom_site_fract_x
_atom_site_fract_y
_atom_site_fract_z
Si Si1 0.246899 0.824224 0.156898
Si Si2 0.652289 0.138876 0.122385
Si Si3 0.069818 0.075871 0.406569
Si Si4 0.028773 0.072659 0.962944
Si Si5 0.077481 0.599334 0.225340
Si Si6 0.931716 0.419863 0.077343
O O1 0.187408 0.730592 0.117676
O O2 0.459859 0.844746 0.311896
O O3 0.144349 0.869020 0.152670
O O4 0.169483 0.871841 0.036257
O O5 0.552722 0.139484 0.130942
O O6 0.857802 0.100982 0.265654
O O7 0.541611 0.088115 0.988187
O O8 0.213035 0.087553 0.440641
O O9 0.071844 0.977781 0.422306
O O10 0.208395 0.115301 0.114347
O O11 0.000000 0.000000 0.000000
O O12 0.000000 0.622378 0.250000
O O13 0.016985 0.503595 0.169148
#
# Coordination Sequence:
#
# PCOD9260904 Si02
#       6
#     8   8   8   8   8   8
#     4  11  22  40  64  90 132 174 203 245 322 384
#     4  12  26  38  61  99 137 155 199 277 319 356
#     4  11  21  41  66  92 125 175 206 248 315 387
#     4  10  18  38  69  84 116 170 219 242 296 384
#     4  12  22  43  69  89 117 174 222 251 304 383
#     4  12  23  38  66 101 124 158 218 261 308 371
#
# _framework density 21.390070000000001
#
# number of rings (size 3 to 8) (size 9 to 14) (size 15 to 20)
#    0.000    0.667    8.333    2.500    0.000    4.000 
#    0.000    0.833    0.000    0.000    0.000    0.000 
#    0.000    0.000    0.000    0.000    0.000    0.000 
#
# Total GULP energy -133722.672803 kJ/mol
# GULP energy per Si atom -5571.778033 kJ/mol
# Density = 2.134139 g / cm^3
# Si number density = 21.390070 Si / 1000 Ang^3
#
#
#
# Elastic Constant Matrix: (Units=GPa)
#
#
# Indices 1 2 3 4 5 6 
#
# 1 101.1625 -3.2424 19.4526 -0.0016 -14.8549 0.0007
# 2 -3.2424 46.4706 -11.7009 0.0000 -5.4364 0.0006
# 3 19.4526 -11.7009 68.3562 -0.0032 -4.5540 0.0004
# 4 -0.0016 0.0000 -0.0032 10.4456 0.0011 1.0572
# 5 -14.8549 -5.4364 -4.5540 0.0011 28.6068 0.0006
# 6 0.0007 0.0006 0.0004 1.0572 0.0006 15.7091
#
#
#
# Elastic Compliance Matrix: (Units=1/GPa)
#
#
# Indices 1 2 3 4 5 6 
#
# 1 0.011244 0.000754 -0.002701 0.000000 0.005552 -0.000001
# 2 0.000754 0.023251 0.004130 0.000001 0.005468 -0.000001
# 3 -0.002701 0.004130 0.016236 0.000004 0.001967 -0.000001
# 4 0.000000 0.000001 0.000004 0.096391 -0.000003 -0.006487
# 5 0.005552 0.005468 0.001967 -0.000003 0.039192 -0.000002
# 6 -0.000001 -0.000001 -0.000001 -0.006487 -0.000002 0.064094
#
#
# Mechanical properties :
#
#
# Convention : Reuss Voigt Hill
#
# Bulk Modulus (GPa) = 18.14998 25.00087 21.57543
# Shear Modulus (GPa) = 18.91024 25.05096 21.98060
#
# Velocity S-wave (km/s) = 2.97655 3.42592 3.20911
# Velocity P-wave (km/s) = 4.50742 5.23093 4.88260
#
# Compressibility (1/GPa) = 0.05509647
#
# Stress axis : x y z
#
# Youngs Moduli (GPa) = 88.93746 43.00883 61.59232
#
# Poissons Ratio (x) = -0.03243 0.16635
# Poissons Ratio (y) = -0.06706 -0.25436
# Poissons Ratio (z) = 0.24020 -0.17761
#
# Static dielectric constant tensor:
#      x y z
#    x 1.875350 0.000000 -0.047200 
#    y 0.000000 1.775410 0.000000 
#    z -0.047200 0.000000 1.711290 
# 
# From -- ./inp_files/39631.got.cif
#   From: 2010.05.17/outbox.cif.g08.bks.cpg/sg15_20_cif.got.tgz:39631.got - 2010.06.03 18:47:42.
