data_PCOD9260072
_publ_section_title
;
Structure prediction by ZEFSAII (Michael W. Deem and Ramdas Pophale) SiO2 
 PCOD9260072
Probable space group: C 2/C
;
_chemical_formula_sum "Si O2"
_cell_formula_units_Z 40
_cell_length_a 22.966523
_cell_length_b 7.700654
_cell_length_c 19.353841
_cell_angle_alpha 90.000000
_cell_angle_beta 144.763531
_cell_angle_gamma 90.000000
_cell_volume 1974.831065
_symmetry_space_group_name_H-M "C 2/C"
_symmetry_group_IT_number 15
_symmetry_cell_setting 'monoclinic'
loop_
_space_group_symop_operation_xyz
x,y,z
-x,y,1/2-z
-x,-y,-z
x,-y,1/2+z
1/2+x,1/2+y,z
1/2-x,1/2+y,1/2-z
1/2-x,1/2-y,-z
1/2+x,1/2-y,1/2+z
loop_
_atom_site_type_symbol
_atom_site_label
_atom_site_fract_x
_atom_site_fract_y
_atom_site_fract_z
Si Si1 0.326177 0.623631 0.763721
Si Si2 0.678719 0.555213 0.374096
Si Si3 0.847273 0.487188 0.304855
Si Si4 0.311457 0.625994 0.963011
Si Si5 0.030409 0.821284 0.622991
O O1 0.315046 0.610933 0.669761
O O2 0.219870 0.579253 0.696145
O O3 0.404977 0.467770 0.854955
O O4 0.365349 0.808685 0.826035
O O5 0.673203 0.527098 0.449829
O O6 0.772208 0.682077 0.446464
O O7 0.582004 0.659530 0.249496
O O8 0.942196 0.364077 0.382698
O O9 0.772955 0.456559 0.167410
O O10 0.414280 0.639723 0.020350
#
# Coordination Sequence:
#
# PCOD9260072 Si02
#       5
#     8   8   8   8   8
#     4  10  20  39  55  79 120 147 180 237 283 321
#     4   8  19  36  57  80 115 146 179 237 273 332
#     4  11  20  38  58  82 115 149 185 234 286 328
#     4  10  18  36  62  82 108 153 188 224 287 332
#     4   9  20  36  59  80 113 146 185 231 278 333
#
# _framework density 20.254897
#
# number of rings (size 3 to 8) (size 9 to 14) (size 15 to 20)
#    1.200    1.200    2.000    0.600    0.000    1.600 
#    3.600    2.000   13.200    0.000    0.000    0.000 
#    0.000    0.000    0.000    0.000    0.000    0.000 
#
# Total GULP energy -111508.065629 kJ/mol
# GULP energy per Si atom -5575.403281 kJ/mol
# Density = 2.020880 g / cm^3
# Si number density = 20.254897 Si / 1000 Ang^3
#
#
#
# Elastic Constant Matrix: (Units=GPa)
#
#
# Indices 1 2 3 4 5 6 
#
# 1 83.4325 24.1549 16.2744 0.0000 -18.3554 0.0000
# 2 24.1549 89.0905 -5.6055 0.0000 -4.9969 0.0000
# 3 16.2744 -5.6055 45.5469 0.0000 -14.1803 0.0000
# 4 0.0000 0.0000 0.0000 6.4316 0.0000 -4.3409
# 5 -18.3554 -4.9969 -14.1803 0.0000 23.4157 0.0000
# 6 0.0000 0.0000 0.0000 -4.3409 0.0000 24.3459
#
#
#
# Elastic Compliance Matrix: (Units=1/GPa)
#
#
# Indices 1 2 3 4 5 6 
#
# 1 0.015879 -0.003959 -0.003141 0.000000 0.009700 0.000000
# 2 -0.003959 0.012614 0.003498 0.000000 0.001707 0.000000
# 3 -0.003141 0.003498 0.028312 0.000000 0.015430 0.000000
# 4 0.000000 0.000000 0.000000 0.176754 0.000000 0.031515
# 5 0.009700 0.001707 0.015430 0.000000 0.060019 0.000000
# 6 0.000000 0.000000 0.000000 0.031515 0.000000 0.046694
#
#
# Mechanical properties :
#
#
# Convention : Reuss Voigt Hill
#
# Bulk Modulus (GPa) = 20.16040 31.96861 26.06450
# Shear Modulus (GPa) = 13.73601 23.05506 18.39553
#
# Velocity S-wave (km/s) = 2.60697 3.37745 3.01691
# Velocity P-wave (km/s) = 4.36310 5.57019 5.00318
#
# Compressibility (1/GPa) = 0.04960220
#
# Stress axis : x y z
#
# Youngs Moduli (GPa) = 62.97801 79.27886 35.32066
#
# Poissons Ratio (x) = 0.31384 0.11093
# Poissons Ratio (y) = 0.24931 -0.12356
# Poissons Ratio (z) = 0.19780 -0.27735
#
# Static dielectric constant tensor:
#      x y z
#    x 1.698960 0.000000 -0.046890 
#    y 0.000000 1.707850 0.000000 
#    z -0.046890 0.000000 1.756000 
# 
# From -- ./inp_files/175961.got.cif
#   From: 2010.05.17/outbox.cif.g08.bks.cpg/sg15_88_cif.got.tgz:175961.got - 2010.06.03 18:47:42.
