data_PCOD9260362
_publ_section_title
;
Structure prediction by ZEFSAII (Michael W. Deem and Ramdas Pophale) SiO2 
 PCOD9260362
Probable space group: C 2/C
;
_chemical_formula_sum "Si O2"
_cell_formula_units_Z 40
_cell_length_a 8.273691
_cell_length_b 24.190515
_cell_length_c 14.392646
_cell_angle_alpha 90.000000
_cell_angle_beta 137.896863
_cell_angle_gamma 90.000000
_cell_volume 1931.357270
_symmetry_space_group_name_H-M "C 2/C"
_symmetry_group_IT_number 15
_symmetry_cell_setting 'monoclinic'
loop_
_space_group_symop_operation_xyz
x,y,z
-x,y,1/2-z
-x,-y,-z
x,-y,1/2+z
1/2+x,1/2+y,z
1/2-x,1/2+y,1/2-z
1/2-x,1/2-y,-z
1/2+x,1/2-y,1/2+z
loop_
_atom_site_type_symbol
_atom_site_label
_atom_site_fract_x
_atom_site_fract_y
_atom_site_fract_z
Si Si1 0.627146 0.656117 0.024459
Si Si2 0.970635 0.966697 0.083403
Si Si3 0.936636 0.475915 0.835972
Si Si4 0.751551 0.247374 0.890541
Si Si5 0.830049 0.353687 0.809881
O O1 0.652720 0.650424 0.146434
O O2 0.899256 0.662530 0.105468
O O3 0.534801 0.598812 0.940457
O O4 0.461454 0.709098 0.938388
O O5 0.697871 0.985289 0.995021
O O6 0.211872 0.982067 0.243298
O O7 0.000000 0.000000 0.000000
O O8 0.842070 0.418230 0.836816
O O9 0.000000 0.467456 0.750000
O O10 0.500000 0.222181 0.750000
O O11 0.765809 0.309630 0.859405
O O12 0.750000 0.250000 0.000000
#
# Coordination Sequence:
#
# PCOD9260362 Si02
#       5
#     8   8   8   8   8
#     4  10  19  36  58  88 119 163 200 249 302 370
#     4   9  15  27  51  88 118 149 202 240 294 367
#     4   9  15  28  53  88 121 153 200 241 296 370
#     4  12  25  39  57  87 124 159 208 261 311 353
#     4  10  18  37  59  82 122 161 206 241 307 371
#
# _framework density 20.710823000000001
#
# number of rings (size 3 to 8) (size 9 to 14) (size 15 to 20)
#    0.000    2.000    8.000    0.600    0.000    2.400 
#    0.000    0.000    0.000    0.000    0.000   67.200 
#    0.000    0.000    0.000    0.000    0.000    0.000 
#
# Total GULP energy -111498.021071 kJ/mol
# GULP energy per Si atom -5574.901054 kJ/mol
# Density = 2.066368 g / cm^3
# Si number density = 20.710823 Si / 1000 Ang^3
#
#
#
# Elastic Constant Matrix: (Units=GPa)
#
#
# Indices 1 2 3 4 5 6 
#
# 1 44.2422 43.5198 43.1664 0.0000 6.6662 0.0000
# 2 43.5198 107.8738 64.1525 0.0000 20.5001 0.0000
# 3 43.1664 64.1525 128.4686 0.0000 19.6899 0.0000
# 4 0.0000 0.0000 0.0000 36.5200 0.0000 3.8979
# 5 6.6662 20.5001 19.6899 0.0000 27.8831 0.0000
# 6 0.0000 0.0000 0.0000 3.8979 0.0000 28.6554
#
#
#
# Elastic Compliance Matrix: (Units=1/GPa)
#
#
# Indices 1 2 3 4 5 6 
#
# 1 0.043513 -0.013398 -0.008798 0.000000 0.005660 0.000000
# 2 -0.013398 0.018158 -0.003376 0.000000 -0.007763 0.000000
# 3 -0.008798 -0.003376 0.013146 0.000000 -0.004698 0.000000
# 4 0.000000 0.000000 0.000000 0.027786 0.000000 -0.003780
# 5 0.005660 -0.007763 -0.004698 0.000000 0.043536 0.000000
# 6 0.000000 0.000000 0.000000 -0.003780 0.000000 0.035412
#
#
# Mechanical properties :
#
#
# Convention : Reuss Voigt Hill
#
# Bulk Modulus (GPa) = 42.24084 64.69576 53.46830
# Shear Modulus (GPa) = 20.78266 27.26144 24.02205
#
# Velocity S-wave (km/s) = 3.17119 3.63201 3.40939
# Velocity P-wave (km/s) = 5.81794 6.99243 6.43205
#
# Compressibility (1/GPa) = 0.02367377
#
# Stress axis : x y z
#
# Youngs Moduli (GPa) = 22.98152 55.07122 76.06968
#
# Poissons Ratio (x) = 0.73786 0.66923
# Poissons Ratio (y) = 0.30791 0.25680
# Poissons Ratio (z) = 0.20218 0.18591
#
# Static dielectric constant tensor:
#      x y z
#    x 1.785590 0.000000 0.007430 
#    y 0.000000 1.713810 0.000000 
#    z 0.007430 0.000000 1.792720 
# 
# From -- ./inp_files/51700.got.cif
#   From: 2010.05.17/outbox.cif.g08.bks.cpg/sg15_26_cif.got.tgz:51700.got - 2010.06.03 18:47:42.
