data_PCOD9260576
_publ_section_title
;
Structure prediction by ZEFSAII (Michael W. Deem and Ramdas Pophale) SiO2 
 PCOD9260576
Probable space group: C 2/C
;
_chemical_formula_sum "Si O2"
_cell_formula_units_Z 44
_cell_length_a 8.009480
_cell_length_b 17.185335
_cell_length_c 14.111904
_cell_angle_alpha 90.000000
_cell_angle_beta 106.281343
_cell_angle_gamma 90.000000
_cell_volume 1864.543009
_symmetry_space_group_name_H-M "C 2/C"
_symmetry_group_IT_number 15
_symmetry_cell_setting 'monoclinic'
loop_
_space_group_symop_operation_xyz
x,y,z
-x,y,1/2-z
-x,-y,-z
x,-y,1/2+z
1/2+x,1/2+y,z
1/2-x,1/2+y,1/2-z
1/2-x,1/2-y,-z
1/2+x,1/2-y,1/2+z
loop_
_atom_site_type_symbol
_atom_site_label
_atom_site_fract_x
_atom_site_fract_y
_atom_site_fract_z
Si Si1 0.149099 0.459534 0.650512
Si Si2 0.517059 0.268746 0.599475
Si Si3 0.537437 0.645305 0.597126
Si Si4 0.798512 0.293724 0.804902
Si Si5 0.397284 0.093637 0.568642
Si Si6 0.000000 0.028461 0.750000
O O1 0.099863 0.374245 0.677741
O O2 0.162544 0.445974 0.539068
O O3 0.330079 0.476346 0.732052
O O4 0.021299 0.532074 0.640352
O O5 0.542678 0.325452 0.514200
O O6 0.675210 0.278938 0.696230
O O7 0.338516 0.291651 0.627092
O O8 0.491810 0.177467 0.568530
O O9 0.570987 0.723539 0.659942
O O10 0.727344 0.611569 0.602357
O O11 0.453811 0.582103 0.652220
#
# Coordination Sequence:
#
# PCOD9260576 Si02
#       6
#     8   8   8   8   8   4
#     4  11  22  41  63 100 129 162 207 277 323 383
#     4  10  18  37  71  96 122 173 215 256 312 394
#     4  11  22  44  64  95 126 176 216 259 315 387
#     4  10  19  38  69  97 124 162 220 261 313 388
#     4  10  21  41  71  91 129 168 212 264 331 381
#     4  12  28  40  62  92 140 166 216 268 318 376
#
# _framework density 23.598277
#
# number of rings (size 3 to 8) (size 9 to 14) (size 15 to 20)
#    0.000    1.455    3.636    3.273    0.000    2.909 
#    0.000    5.455    0.000    0.000    0.000    0.000 
#    0.000    0.000    0.000    0.000    0.000    0.000 
#
# Total GULP energy -123114.757941 kJ/mol
# GULP energy per Si atom -5596.125361 kJ/mol
# Density = 2.354457 g / cm^3
# Si number density = 23.598277 Si / 1000 Ang^3
#
#
#
# Elastic Constant Matrix: (Units=GPa)
#
#
# Indices 1 2 3 4 5 6 
#
# 1 11.5986 19.0046 6.6014 0.0000 -6.7399 0.0000
# 2 19.0046 122.1370 25.3697 0.0000 1.1477 0.0000
# 3 6.6014 25.3697 115.3429 0.0000 -0.5887 0.0000
# 4 0.0000 0.0000 0.0000 19.1978 0.0000 38.7929
# 5 -6.7399 1.1477 -0.5887 0.0000 34.9219 0.0000
# 6 0.0000 0.0000 0.0000 38.7929 0.0000 -21.0633
#
#
#
# Elastic Compliance Matrix: (Units=1/GPa)
#
#
# Indices 1 2 3 4 5 6 
#
# 1 0.138618 -0.021175 -0.003136 0.000000 0.027396 0.000000
# 2 -0.021175 0.011818 -0.001410 0.000000 -0.004499 0.000000
# 3 -0.003136 -0.001410 0.009157 0.000000 -0.000405 0.000000
# 4 0.000000 0.000000 0.000000 0.011032 0.000000 0.020318
# 5 0.027396 -0.004499 -0.000405 0.000000 0.034064 0.000000
# 6 0.000000 0.000000 0.000000 0.020318 0.000000 -0.010055
#
#
# Mechanical properties :
#
#
# Convention : Reuss Voigt Hill
#
# Bulk Modulus (GPa) = 9.24641 39.00334 24.12487
# Shear Modulus (GPa) = 17.72249 19.81814 18.77031
#
# Velocity S-wave (km/s) = 2.74342 2.90110 2.82336
# Velocity P-wave (km/s) = 3.73657 5.27122 4.56879
#
# Compressibility (1/GPa) = 0.10815007
#
# Stress axis : x y z
#
# Youngs Moduli (GPa) = 7.21406 84.61950 109.20093
#
# Poissons Ratio (x) = 1.79183 0.34247
# Poissons Ratio (y) = 0.15276 0.15401
# Poissons Ratio (z) = 0.02262 0.11934
#
# Static dielectric constant tensor:
#      x y z
#    x 1.863280 0.000000 -0.048870 
#    y 0.000000 1.863700 0.000000 
#    z -0.048870 0.000000 1.891520 
# 
# From -- ./inp_files/134568.got.cif
#   From: 2010.05.17/outbox.cif.g08.bks.cpg/sg15_68_cif.got.tgz:134568.got - 2010.06.03 18:47:42.
