data_PCOD9260384
_publ_section_title
;
Structure prediction by ZEFSAII (Michael W. Deem and Ramdas Pophale) SiO2 
 PCOD9260384
Probable space group: C 2/C
;
_chemical_formula_sum "Si O2"
_cell_formula_units_Z 52
_cell_length_a 20.286845
_cell_length_b 14.392901
_cell_length_c 18.425938
_cell_angle_alpha 90.000000
_cell_angle_beta 29.222053
_cell_angle_gamma 90.000000
_cell_volume 2626.553934
_symmetry_space_group_name_H-M "C 2/C"
_symmetry_group_IT_number 15
_symmetry_cell_setting 'monoclinic'
loop_
_space_group_symop_operation_xyz
x,y,z
-x,y,1/2-z
-x,-y,-z
x,-y,1/2+z
1/2+x,1/2+y,z
1/2-x,1/2+y,1/2-z
1/2-x,1/2-y,-z
1/2+x,1/2-y,1/2+z
loop_
_atom_site_type_symbol
_atom_site_label
_atom_site_fract_x
_atom_site_fract_y
_atom_site_fract_z
Si Si1 0.824491 0.553017 0.112245
Si Si2 0.373194 0.118318 0.667269
Si Si3 0.679550 0.522212 0.618309
Si Si4 0.881543 0.851890 0.008450
Si Si5 0.905206 0.067223 0.948259
Si Si6 0.000000 0.848299 0.750000
Si Si7 0.614438 0.314499 0.891121
O O1 0.822726 0.476258 0.178130
O O2 0.791630 0.497488 0.070059
O O3 0.714720 0.630920 0.239668
O O4 0.971018 0.599338 0.965416
O O5 0.278295 0.150102 0.825023
O O6 0.357797 0.205678 0.628772
O O7 0.556933 0.580099 0.772128
O O8 0.697719 0.566262 0.521138
O O9 0.618361 0.419294 0.660728
O O10 0.940331 0.801964 0.879870
O O11 0.966247 0.821745 0.997140
O O12 0.909977 0.961727 0.972585
O O13 0.875362 0.135564 0.041847
#
# Coordination Sequence:
#
# PCOD9260384 Si02
#       7
#     8   8   8   8   8   4   8
#     4  11  21  40  56  84 132 158 188 252 305 360
#     4  11  25  34  57  92 125 157 194 244 312 355
#     4   8  16  33  60  85 110 153 196 246 296 336
#     4  10  18  37  60  83 111 153 199 242 288 347
#     4   9  17  32  64  89 104 150 213 249 278 342
#     4   8  16  32  62  88 104 140 210 240 276 348
#     4  12  20  37  64  86 114 158 209 247 286 359
#
# _framework density 19.797805
#
# number of rings (size 3 to 8) (size 9 to 14) (size 15 to 20)
#    0.000    2.462    4.615    2.308    0.000    0.000 
#    0.000    4.615    3.385    0.000    0.000    0.000 
#    0.000    0.000    0.000    0.000    0.000    0.000 
#
# Total GULP energy -144808.596189 kJ/mol
# GULP energy per Si atom -5569.561392 kJ/mol
# Density = 1.975274 g / cm^3
# Si number density = 19.797805 Si / 1000 Ang^3
#
#
#
# Elastic Constant Matrix: (Units=GPa)
#
#
# Indices 1 2 3 4 5 6 
#
# 1 91.4768 14.1633 39.1976 0.0000 8.8747 0.0000
# 2 14.1633 62.8128 27.3921 0.0001 2.0058 -0.0001
# 3 39.1976 27.3921 67.7529 -0.0001 2.5785 0.0000
# 4 0.0000 0.0001 -0.0001 5.8836 0.0000 5.1655
# 5 8.8747 2.0058 2.5785 0.0000 27.9761 0.0001
# 6 0.0000 -0.0001 0.0000 5.1655 0.0001 -2.4444
#
#
#
# Elastic Compliance Matrix: (Units=1/GPa)
#
#
# Indices 1 2 3 4 5 6 
#
# 1 0.014976 0.000562 -0.008740 0.000000 -0.003986 0.000000
# 2 0.000562 0.019362 -0.008122 0.000000 -0.000818 -0.000001
# 3 -0.008740 -0.008122 0.023053 0.000000 0.001230 0.000000
# 4 0.000000 0.000000 0.000000 0.059525 0.000000 0.125791
# 5 -0.003986 -0.000818 0.001230 0.000000 0.036954 0.000001
# 6 0.000000 -0.000001 0.000000 0.125791 0.000001 -0.143277
#
#
# Mechanical properties :
#
#
# Convention : Reuss Voigt Hill
#
# Bulk Modulus (GPa) = 40.33715 42.61649 41.47682
# Shear Modulus (GPa) = 97.17042 15.70237 56.43640
#
# Velocity S-wave (km/s) = 7.01341 2.81932 5.34493
# Velocity P-wave (km/s) = 9.27377 5.67192 7.68679
#
# Compressibility (1/GPa) = 0.02479105
#
# Stress axis : x y z
#
# Youngs Moduli (GPa) = 66.77152 51.64881 43.37923
#
# Poissons Ratio (x) = -0.02901 0.37913
# Poissons Ratio (y) = -0.03750 0.35231
# Poissons Ratio (z) = 0.58357 0.41947
#
# Static dielectric constant tensor:
#      x y z
#    x 1.726150 0.000000 0.026620 
#    y 0.000000 1.689020 0.000000 
#    z 0.026620 0.000000 1.765510 
# 
# From -- ./inp_files/215571.got.cif
#   From: 2010.05.17/outbox.cif.g08.bks.cpg/sg15_108_cif.got.tgz:215571.got - 2010.06.03 18:47:42.
