data_PCOD9260820
_publ_section_title
;
Structure prediction by ZEFSAII (Michael W. Deem and Ramdas Pophale) SiO2 
 PCOD9260820
Probable space group: C 2/C
;
_chemical_formula_sum "Si O2"
_cell_formula_units_Z 52
_cell_length_a 11.548941
_cell_length_b 23.291910
_cell_length_c 12.240647
_cell_angle_alpha 90.000000
_cell_angle_beta 47.741849
_cell_angle_gamma 90.000000
_cell_volume 2436.998310
_symmetry_space_group_name_H-M "C 2/C"
_symmetry_group_IT_number 15
_symmetry_cell_setting 'monoclinic'
loop_
_space_group_symop_operation_xyz
x,y,z
-x,y,1/2-z
-x,-y,-z
x,-y,1/2+z
1/2+x,1/2+y,z
1/2-x,1/2+y,1/2-z
1/2-x,1/2-y,-z
1/2+x,1/2-y,1/2+z
loop_
_atom_site_type_symbol
_atom_site_label
_atom_site_fract_x
_atom_site_fract_y
_atom_site_fract_z
Si Si1 0.767339 0.410661 0.913234
Si Si2 0.346548 0.005567 0.022045
Si Si3 0.000000 0.885324 0.250000
Si Si4 0.866411 0.192567 0.653127
Si Si5 0.834756 0.997261 0.165728
Si Si6 0.319366 0.895502 0.371195
Si Si7 0.271383 0.283608 0.600831
O O1 0.739407 0.441436 0.816468
O O2 0.810656 0.345200 0.865762
O O3 0.868269 0.455407 0.918896
O O4 0.604847 0.410506 0.085767
O O5 0.190161 0.991148 0.190654
O O6 0.314754 0.067639 0.987192
O O7 0.500000 0.000000 0.000000
O O8 0.120679 0.847777 0.246714
O O9 0.779985 0.158959 0.609345
O O10 0.789589 0.249294 0.754887
O O11 0.043534 0.205296 0.505050
O O12 0.735232 0.945793 0.176775
O O13 0.000000 0.000000 0.000000
O O14 0.500000 0.878996 0.250000
O O15 0.250000 0.250000 0.500000
#
# Coordination Sequence:
#
# PCOD9260820 Si02
#       7
#     8   8   4   8   8   8   8
#     4  10  21  35  63  95 131 166 228 276 342 406
#     4  11  23  42  65 102 138 186 225 280 351 429
#     4  10  18  38  64  96 130 184 216 286 348 418
#     4  11  22  42  70  99 137 175 242 292 357 414
#     4  11  22  40  67 101 136 178 227 286 345 420
#     4  11  24  43  71  98 142 191 229 280 360 433
#     4  11  21  42  66 102 128 179 230 294 348 417
#
# _framework density 21.337724999999999
#
# number of rings (size 3 to 8) (size 9 to 14) (size 15 to 20)
#    0.000    1.231    4.615    3.692    0.000    1.846 
#    8.308    0.769    0.000    0.000    0.000    0.000 
#    0.000    0.000    0.000    0.000    0.000    0.000 
#
# Total GULP energy -144864.998978 kJ/mol
# GULP energy per Si atom -5571.730730 kJ/mol
# Density = 2.128916 g / cm^3
# Si number density = 21.337725 Si / 1000 Ang^3
#
#
#
# Elastic Constant Matrix: (Units=GPa)
#
#
# Indices 1 2 3 4 5 6 
#
# 1 111.4908 52.3138 37.6272 0.0000 -10.3665 0.0000
# 2 52.3138 126.0756 24.2757 0.0000 7.2293 0.0000
# 3 37.6272 24.2757 94.6453 0.0000 -5.3168 0.0000
# 4 0.0000 0.0000 0.0000 35.7321 0.0000 8.4104
# 5 -10.3665 7.2293 -5.3168 0.0000 34.1687 0.0000
# 6 0.0000 0.0000 0.0000 8.4104 0.0000 43.1909
#
#
#
# Elastic Compliance Matrix: (Units=1/GPa)
#
#
# Indices 1 2 3 4 5 6 
#
# 1 0.012904 -0.004908 -0.003625 0.000000 0.004389 0.000000
# 2 -0.004908 0.010365 -0.000922 0.000000 -0.003826 0.000000
# 3 -0.003625 -0.000922 0.012300 0.000000 0.001009 0.000000
# 4 0.000000 0.000000 0.000000 0.029330 0.000000 -0.005711
# 5 0.004389 -0.003826 0.001009 0.000000 0.031565 0.000000
# 6 0.000000 0.000000 0.000000 -0.005711 0.000000 0.024265
#
#
# Mechanical properties :
#
#
# Convention : Reuss Voigt Hill
#
# Bulk Modulus (GPa) = 60.02682 62.29391 61.16036
# Shear Modulus (GPa) = 34.43717 37.15133 35.79425
#
# Velocity S-wave (km/s) = 4.02171 4.17719 4.10019
# Velocity P-wave (km/s) = 7.05396 7.24726 7.15127
#
# Compressibility (1/GPa) = 0.01665922
#
# Stress axis : x y z
#
# Youngs Moduli (GPa) = 77.49731 96.47633 81.30082
#
# Poissons Ratio (x) = 0.47351 0.29468
# Poissons Ratio (y) = 0.38036 0.07498
# Poissons Ratio (z) = 0.28089 0.08898
#
# Static dielectric constant tensor:
#      x y z
#    x 1.824880 0.000000 -0.034520 
#    y 0.000000 1.329060 0.000000 
#    z -0.034520 0.000000 1.781130 
# 
# From -- ./inp_files/91191.got.cif
#   From: 2010.05.17/outbox.cif.g08.bks.cpg/sg15_46_cif.got.tgz:91191.got - 2010.06.03 18:47:42.
