data_PCOD9260977
_publ_section_title
;
Structure prediction by ZEFSAII (Michael W. Deem and Ramdas Pophale) SiO2 
 PCOD9260977
Probable space group: C 2/C
;
_chemical_formula_sum "Si O2"
_cell_formula_units_Z 52
_cell_length_a 15.275600
_cell_length_b 9.998166
_cell_length_c 24.558858
_cell_angle_alpha 90.000000
_cell_angle_beta 41.909395
_cell_angle_gamma 90.000000
_cell_volume 2505.380713
_symmetry_space_group_name_H-M "C 2/C"
_symmetry_group_IT_number 15
_symmetry_cell_setting 'monoclinic'
loop_
_space_group_symop_operation_xyz
x,y,z
-x,y,1/2-z
-x,-y,-z
x,-y,1/2+z
1/2+x,1/2+y,z
1/2-x,1/2+y,1/2-z
1/2-x,1/2-y,-z
1/2+x,1/2-y,1/2+z
loop_
_atom_site_type_symbol
_atom_site_label
_atom_site_fract_x
_atom_site_fract_y
_atom_site_fract_z
Si Si1 0.231301 0.524011 0.912051
Si Si2 0.856150 0.782448 0.499191
Si Si3 0.798746 0.523718 0.947157
Si Si4 0.645715 0.856069 0.181106
Si Si5 0.000000 0.134540 0.750000
Si Si6 0.423812 0.891036 0.717632
Si Si7 0.352858 0.175356 0.139986
O O1 0.182296 0.678009 0.936322
O O2 0.383272 0.542274 0.826170
O O3 0.153693 0.436172 0.904233
O O4 0.213299 0.468577 0.982158
O O5 0.750000 0.750000 0.500000
O O6 0.821532 0.936635 0.521470
O O7 0.007123 0.749646 0.419348
O O8 0.805597 0.649408 0.903801
O O9 0.937975 0.451033 0.868817
O O10 0.500000 0.798260 0.250000
O O11 0.742657 0.779459 0.174989
O O12 0.630249 0.007790 0.211625
O O13 0.947856 0.241996 0.729324
O O14 0.329393 0.888731 0.709627
#
# Coordination Sequence:
#
# PCOD9260977 Si02
#       7
#     8   8   8   8   4   8   8
#     4  11  23  37  67  97 127 164 222 269 321 375
#     4  10  18  39  64  91 122 163 219 263 306 378
#     4  10  19  44  68  86 124 175 216 257 315 392
#     4  10  24  44  63  91 136 177 207 259 335 383
#     4  12  22  42  70  92 122 180 222 260 320 392
#     4  11  20  43  66  90 125 174 219 258 315 384
#     4  12  25  37  64 101 132 162 214 280 322 375
#
# _framework density 20.755329
#
# number of rings (size 3 to 8) (size 9 to 14) (size 15 to 20)
#    0.000    1.231    6.923    1.385    3.231    1.231 
#    0.000    0.000    0.000    0.000    0.000    0.000 
#    0.000    0.000    0.000    0.000    0.000    0.000 
#
# Total GULP energy -144931.830284 kJ/mol
# GULP energy per Si atom -5574.301165 kJ/mol
# Density = 2.070809 g / cm^3
# Si number density = 20.755329 Si / 1000 Ang^3
#
#
#
# Elastic Constant Matrix: (Units=GPa)
#
#
# Indices 1 2 3 4 5 6 
#
# 1 142.1864 39.5189 45.8626 0.0000 16.1212 0.0000
# 2 39.5189 38.0327 6.9390 0.0000 5.3930 0.0000
# 3 45.8626 6.9390 85.5610 0.0000 16.2355 0.0000
# 4 0.0000 0.0000 0.0000 34.8824 0.0000 20.7354
# 5 16.1212 5.3930 16.2355 0.0000 42.4187 0.0000
# 6 0.0000 0.0000 0.0000 20.7354 0.0000 47.8980
#
#
#
# Elastic Compliance Matrix: (Units=1/GPa)
#
#
# Indices 1 2 3 4 5 6 
#
# 1 0.012037 -0.011381 -0.005322 0.000000 -0.001091 0.000000
# 2 -0.011381 0.037754 0.003374 0.000000 -0.001766 0.000000
# 3 -0.005322 0.003374 0.015058 0.000000 -0.004170 0.000000
# 4 0.000000 0.000000 0.000000 0.038601 0.000000 -0.016711
# 5 -0.001091 -0.001766 -0.004170 0.000000 0.025809 0.000000
# 6 0.000000 0.000000 0.000000 -0.016711 0.000000 0.028112
#
#
# Mechanical properties :
#
#
# Convention : Reuss Voigt Hill
#
# Bulk Modulus (GPa) = 26.18507 50.04678 38.11592
# Shear Modulus (GPa) = 25.41173 36.60381 31.00777
#
# Velocity S-wave (km/s) = 3.50286 4.20406 3.86938
# Velocity P-wave (km/s) = 5.38549 6.90873 6.19412
#
# Compressibility (1/GPa) = 0.03818970
#
# Stress axis : x y z
#
# Youngs Moduli (GPa) = 83.08027 26.48725 66.41069
#
# Poissons Ratio (x) = 0.30146 0.35343
# Poissons Ratio (y) = 0.94556 -0.22406
# Poissons Ratio (z) = 0.44214 -0.08936
#
# Static dielectric constant tensor:
#      x y z
#    x 1.753220 0.000000 0.037930 
#    y 0.000000 1.826790 0.000000 
#    z 0.037930 0.000000 1.804970 
# 
# From -- ./inp_files/273799.got.cif
#   From: 2010.05.17/outbox.cif.g08.bks.cpg/sg15_137_cif.got.tgz:273799.got - 2010.06.03 18:47:42.
