data_PCOD9260378
_publ_section_title
;
Structure prediction by ZEFSAII (Michael W. Deem and Ramdas Pophale) SiO2 
 PCOD9260378
Probable space group: C 2/C
;
_chemical_formula_sum "Si O2"
_cell_formula_units_Z 56
_cell_length_a 22.985173
_cell_length_b 9.764745
_cell_length_c 13.946754
_cell_angle_alpha 90.000000
_cell_angle_beta 44.466547
_cell_angle_gamma 90.000000
_cell_volume 2192.731419
_symmetry_space_group_name_H-M "C 2/C"
_symmetry_group_IT_number 15
_symmetry_cell_setting 'monoclinic'
loop_
_space_group_symop_operation_xyz
x,y,z
-x,y,1/2-z
-x,-y,-z
x,-y,1/2+z
1/2+x,1/2+y,z
1/2-x,1/2+y,1/2-z
1/2-x,1/2-y,-z
1/2+x,1/2-y,1/2+z
loop_
_atom_site_type_symbol
_atom_site_label
_atom_site_fract_x
_atom_site_fract_y
_atom_site_fract_z
Si Si1 0.140680 0.023332 0.626932
Si Si2 0.882943 0.788073 0.988969
Si Si3 0.775944 0.044668 0.770836
Si Si4 0.971921 0.343923 0.056511
Si Si5 0.741297 0.823893 0.658281
Si Si6 0.563075 0.214164 0.277171
Si Si7 0.409325 0.085540 0.818345
O O1 0.170416 0.995471 0.700786
O O2 0.216577 0.090246 0.476716
O O3 0.075420 0.145370 0.709303
O O4 0.105194 0.894251 0.612577
O O5 0.851105 0.653820 0.966320
O O6 0.825863 0.873010 0.128842
O O7 0.960515 0.741928 0.962634
O O8 0.719572 0.171803 0.874979
O O9 0.743017 0.915542 0.751104
O O10 0.980446 0.282668 0.940087
O O11 0.000000 0.500000 0.000000
O O12 0.898164 0.363784 0.221116
O O13 0.645795 0.795287 0.745622
O O14 0.578916 0.076815 0.198474
O O15 0.500000 0.132310 0.750000
#
# Coordination Sequence:
#
# PCOD9260378 Si02
#       7
#     8   8   8   8   8   8   8
#     4  10  21  36  56  84 123 156 192 235 304 371
#     4  10  19  36  59  83 120 155 188 251 297 348
#     4  10  20  36  56  82 123 156 198 241 294 356
#     4   9  17  35  63  83 109 149 202 253 293 344
#     4  10  21  35  56  85 116 157 197 243 290 366
#     4  10  18  37  60  80 116 154 194 248 304 346
#     4   9  20  35  58  85 108 144 203 255 293 351
#
# _framework density 25.538924000000002
#
# number of rings (size 3 to 8) (size 9 to 14) (size 15 to 20)
#    0.000    2.286    2.857    1.714    0.000    3.429 
#    0.000    5.714   12.571    0.000    0.000    0.000 
#    0.000    0.000    0.000    0.000    0.000    0.000 
#
# Total GULP energy -156143.042634 kJ/mol
# GULP energy per Si atom -5576.537237 kJ/mol
# Density = 2.548080 g / cm^3
# Si number density = 25.538924 Si / 1000 Ang^3
#
#
#
# Elastic Constant Matrix: (Units=GPa)
#
#
# Indices 1 2 3 4 5 6 
#
# 1 100.7672 57.6922 44.5360 0.0000 22.1455 0.0000
# 2 57.6922 126.1972 14.5241 -0.0003 35.1341 0.0001
# 3 44.5360 14.5241 125.1691 -0.0001 41.5719 0.0000
# 4 0.0000 -0.0003 -0.0001 46.1685 0.0000 18.4605
# 5 22.1455 35.1341 41.5719 0.0000 32.0448 0.0000
# 6 0.0000 0.0001 0.0000 18.4605 0.0000 40.8077
#
#
#
# Elastic Compliance Matrix: (Units=1/GPa)
#
#
# Indices 1 2 3 4 5 6 
#
# 1 0.016654 -0.009053 -0.007642 0.000000 0.008331 0.000000
# 2 -0.009053 0.018410 0.010034 0.000000 -0.026946 0.000000
# 3 -0.007642 0.010034 0.020108 0.000000 -0.031806 0.000000
# 4 0.000000 0.000000 0.000000 0.026443 0.000000 -0.011962
# 5 0.008331 -0.026946 -0.031806 0.000000 0.096255 0.000000
# 6 0.000000 0.000000 0.000000 -0.011962 0.000000 0.029917
#
#
# Mechanical properties :
#
#
# Convention : Reuss Voigt Hill
#
# Bulk Modulus (GPa) = 23.89491 65.07087 44.48289
# Shear Modulus (GPa) = 21.27139 39.49628 30.38384
#
# Velocity S-wave (km/s) = 2.88913 3.93684 3.45295
# Velocity P-wave (km/s) = 4.52836 6.79701 5.77518
#
# Compressibility (1/GPa) = 0.04184992
#
# Stress axis : x y z
#
# Youngs Moduli (GPa) = 60.04657 54.31839 49.73244
#
# Poissons Ratio (x) = 0.49176 0.38005
# Poissons Ratio (y) = 0.54362 -0.49904
# Poissons Ratio (z) = 0.45887 -0.54506
#
# Static dielectric constant tensor:
#      x y z
#    x 2.122540 0.000000 0.003400 
#    y 0.000000 2.026590 0.000000 
#    z 0.003400 0.000000 2.180160 
# 
# From -- ./inp_files/180751.got.cif
#   From: 2010.05.17/outbox.cif.g08.bks.cpg/sg15_91_cif.got.tgz:180751.got - 2010.06.03 18:47:42.
