data_PCOD9260373
_publ_section_title
;
Structure prediction by ZEFSAII (Michael W. Deem and Ramdas Pophale) SiO2 
 PCOD9260373
Probable space group: C 2/C
;
_chemical_formula_sum "Si O2"
_cell_formula_units_Z 48
_cell_length_a 9.118782
_cell_length_b 27.313657
_cell_length_c 14.534314
_cell_angle_alpha 90.000000
_cell_angle_beta 136.324438
_cell_angle_gamma 90.000000
_cell_volume 2499.893097
_symmetry_space_group_name_H-M "C 2/C"
_symmetry_group_IT_number 15
_symmetry_cell_setting 'monoclinic'
loop_
_space_group_symop_operation_xyz
x,y,z
-x,y,1/2-z
-x,-y,-z
x,-y,1/2+z
1/2+x,1/2+y,z
1/2-x,1/2+y,1/2-z
1/2-x,1/2-y,-z
1/2+x,1/2-y,1/2+z
loop_
_atom_site_type_symbol
_atom_site_label
_atom_site_fract_x
_atom_site_fract_y
_atom_site_fract_z
Si Si1 0.786204 0.485626 0.204084
Si Si2 0.676722 0.336831 0.635417
Si Si3 0.585601 0.856700 0.944781
Si Si4 0.556413 0.566735 0.430474
Si Si5 0.011300 0.555182 0.973351
Si Si6 0.753720 0.234259 0.608067
O O1 0.645614 0.530819 0.178863
O O2 0.000000 0.504949 0.250000
O O3 0.864051 0.446932 0.315793
O O4 0.652736 0.456091 0.067781
O O5 0.751586 0.353393 0.566804
O O6 0.505769 0.376777 0.586263
O O7 0.638719 0.278473 0.610024
O O8 0.866885 0.342765 0.794973
O O9 0.570411 0.909012 0.985218
O O10 0.644861 0.818474 0.052618
O O11 0.745537 0.565175 0.443050
O O12 0.000000 0.500000 0.000000
O O13 0.750000 0.250000 0.500000
O O14 0.000000 0.231886 0.750000
#
# Coordination Sequence:
#
# PCOD9260373 Si02
#       6
#     8   8   8   8   8   8
#     4   9  21  38  58  82 119 157 203 244 295 355
#     4  10  20  37  62  86 114 159 201 241 311 359
#     4  10  22  36  60  89 119 155 197 256 297 355
#     4  10  22  39  61  83 116 165 200 240 308 365
#     4  11  24  39  56  89 127 154 203 255 294 361
#     4  10  18  37  59  90 118 150 205 254 298 360
#
# _framework density 19.20082
#
# number of rings (size 3 to 8) (size 9 to 14) (size 15 to 20)
#    0.000    2.000    3.333    1.000    9.333    5.333 
#    0.000    0.833    0.000    0.000    0.000    0.000 
#    0.000    0.000    0.000    0.000    0.000    0.000 
#
# Total GULP energy -133822.114505 kJ/mol
# GULP energy per Si atom -5575.921438 kJ/mol
# Density = 1.915712 g / cm^3
# Si number density = 19.200820 Si / 1000 Ang^3
#
#
#
# Elastic Constant Matrix: (Units=GPa)
#
#
# Indices 1 2 3 4 5 6 
#
# 1 49.9647 43.3736 33.6151 0.0000 5.5062 0.0000
# 2 43.3736 150.1349 33.4891 0.0000 7.3874 0.0000
# 3 33.6151 33.4891 82.2573 0.0000 1.4251 0.0000
# 4 0.0000 0.0000 0.0000 25.6757 0.0000 -3.5427
# 5 5.5062 7.3874 1.4251 0.0000 23.8458 0.0000
# 6 0.0000 0.0000 0.0000 -3.5427 0.0000 35.7662
#
#
#
# Elastic Compliance Matrix: (Units=1/GPa)
#
#
# Indices 1 2 3 4 5 6 
#
# 1 0.034170 -0.007182 -0.010953 0.000000 -0.005011 0.000000
# 2 -0.007182 0.008941 -0.000687 0.000000 -0.001071 0.000000
# 3 -0.010953 -0.000687 0.016883 0.000000 0.001733 0.000000
# 4 0.000000 0.000000 0.000000 0.039487 0.000000 0.003911
# 5 -0.005011 -0.001071 0.001733 0.000000 0.043321 0.000000
# 6 0.000000 0.000000 0.000000 0.003911 0.000000 0.028347
#
#
# Mechanical properties :
#
#
# Convention : Reuss Voigt Hill
#
# Bulk Modulus (GPa) = 44.74193 55.92362 50.33277
# Shear Modulus (GPa) = 23.12225 28.51614 25.81919
#
# Velocity S-wave (km/s) = 3.47397 3.85795 3.67098
# Velocity P-wave (km/s) = 6.28044 7.00242 6.65124
#
# Compressibility (1/GPa) = 0.02235040
#
# Stress axis : x y z
#
# Youngs Moduli (GPa) = 29.26577 111.83981 59.23266
#
# Poissons Ratio (x) = 0.80321 0.64877
# Poissons Ratio (y) = 0.21018 0.04068
# Poissons Ratio (z) = 0.32055 0.07681
#
# Static dielectric constant tensor:
#      x y z
#    x 1.667490 0.000000 -0.020700 
#    y 0.000000 1.694250 0.000000 
#    z -0.020700 0.000000 1.748040 
# 
# From -- ./inp_files/139000.got.cif
#   From: 2010.05.17/outbox.cif.g08.bks.cpg/sg15_70_cif.got.tgz:139000.got - 2010.06.03 18:47:42.
