data_PCOD9260804
_publ_section_title
;
Structure prediction by ZEFSAII (Michael W. Deem and Ramdas Pophale) SiO2 
 PCOD9260804
Probable space group: C 2/C
;
_chemical_formula_sum "Si O2"
_cell_formula_units_Z 40
_cell_length_a 9.461381
_cell_length_b 14.389620
_cell_length_c 13.730134
_cell_angle_alpha 90.000000
_cell_angle_beta 76.265998
_cell_angle_gamma 90.000000
_cell_volume 1815.852157
_symmetry_space_group_name_H-M "C 2/C"
_symmetry_group_IT_number 15
_symmetry_cell_setting 'monoclinic'
loop_
_space_group_symop_operation_xyz
x,y,z
-x,y,1/2-z
-x,-y,-z
x,-y,1/2+z
1/2+x,1/2+y,z
1/2-x,1/2+y,1/2-z
1/2-x,1/2-y,-z
1/2+x,1/2-y,1/2+z
loop_
_atom_site_type_symbol
_atom_site_label
_atom_site_fract_x
_atom_site_fract_y
_atom_site_fract_z
Si Si1 0.563149 0.676068 0.088005
Si Si2 0.886974 0.832158 0.127012
Si Si3 0.267900 0.309799 0.733943
Si Si4 0.892384 0.975410 0.360466
Si Si5 0.168467 0.481030 0.240605
O O1 0.651827 0.691926 0.173134
O O2 0.398289 0.707008 0.137426
O O3 0.582679 0.563938 0.075586
O O4 0.615127 0.716602 0.977349
O O5 0.853421 0.766287 0.223913
O O6 0.043029 0.882087 0.106778
O O7 0.765705 0.913436 0.157650
O O8 0.201598 0.409972 0.719418
O O9 0.000000 0.995555 0.250000
O O10 0.733125 0.965993 0.339468
O O11 0.000000 0.461020 0.250000
#
# Coordination Sequence:
#
# PCOD9260804 Si02
#       5
#     8   8   8   8   8
#     4  10  18  38  64  91 121 163 204 243 299 365
#     4  11  21  35  70  90 116 168 204 240 307 367
#     4  10  21  38  60  91 129 152 202 257 294 356
#     4   9  17  37  61  87 118 161 199 246 296 361
#     4  10  22  39  60  88 122 163 193 256 308 344
#
# _framework density 22.028224999999999
#
# number of rings (size 3 to 8) (size 9 to 14) (size 15 to 20)
#    0.000    2.000    6.000    1.200    2.800    2.400 
#    0.000    4.000    4.400   12.000    0.000    0.000 
#    0.000    0.000    0.000    0.000    0.000    0.000 
#
# Total GULP energy -111513.523036 kJ/mol
# GULP energy per Si atom -5575.676152 kJ/mol
# Density = 2.197809 g / cm^3
# Si number density = 22.028225 Si / 1000 Ang^3
#
#
#
# Elastic Constant Matrix: (Units=GPa)
#
#
# Indices 1 2 3 4 5 6 
#
# 1 140.0444 15.8724 25.9829 0.0000 -4.5622 0.0000
# 2 15.8724 49.2865 23.3571 0.0000 -11.4556 0.0000
# 3 25.9829 23.3571 107.3854 0.0000 -16.1800 0.0000
# 4 0.0000 0.0000 0.0000 24.0689 0.0000 0.5271
# 5 -4.5622 -11.4556 -16.1800 0.0000 15.1975 0.0000
# 6 0.0000 0.0000 0.0000 0.5271 0.0000 19.6089
#
#
#
# Elastic Compliance Matrix: (Units=1/GPa)
#
#
# Indices 1 2 3 4 5 6 
#
# 1 0.007618 -0.001905 -0.001549 0.000000 -0.000798 0.000000
# 2 -0.001905 0.025941 -0.002765 0.000000 0.016038 0.000000
# 3 -0.001549 -0.002765 0.011797 0.000000 0.010010 0.000000
# 4 0.000000 0.000000 0.000000 0.041572 0.000000 -0.001117
# 5 -0.000798 0.016038 0.010010 0.000000 0.088307 0.000000
# 6 0.000000 0.000000 0.000000 -0.001117 0.000000 0.051027
#
#
# Mechanical properties :
#
#
# Convention : Reuss Voigt Hill
#
# Bulk Modulus (GPa) = 30.37846 47.46009 38.91927
# Shear Modulus (GPa) = 20.02624 27.20866 23.61745
#
# Velocity S-wave (km/s) = 3.01843 3.51831 3.27791
# Velocity P-wave (km/s) = 5.09593 6.17225 5.65973
#
# Compressibility (1/GPa) = 0.03291806
#
# Stress axis : x y z
#
# Youngs Moduli (GPa) = 131.26997 38.54895 84.76910
#
# Poissons Ratio (x) = 0.07342 0.13133
# Poissons Ratio (y) = 0.25002 0.23438
# Poissons Ratio (z) = 0.20336 0.10659
#
# Static dielectric constant tensor:
#      x y z
#    x 1.905820 0.000000 0.042550 
#    y 0.000000 1.913920 0.000000 
#    z 0.042550 0.000000 1.775870 
# 
# From -- ./inp_files/133096.got.cif
#   From: 2010.05.17/outbox.cif.g08.bks.cpg/sg15_67_cif.got.tgz:133096.got - 2010.06.03 18:47:42.
