data_PCOD9260524
_publ_section_title
;
Structure prediction by ZEFSAII (Michael W. Deem and Ramdas Pophale) SiO2 
 PCOD9260524
Probable space group: C 2/C
;
_chemical_formula_sum "Si O2"
_cell_formula_units_Z 56
_cell_length_a 17.241628
_cell_length_b 7.323249
_cell_length_c 21.134177
_cell_angle_alpha 90.000000
_cell_angle_beta 54.888052
_cell_angle_gamma 90.000000
_cell_volume 2182.913531
_symmetry_space_group_name_H-M "C 2/C"
_symmetry_group_IT_number 15
_symmetry_cell_setting 'monoclinic'
loop_
_space_group_symop_operation_xyz
x,y,z
-x,y,1/2-z
-x,-y,-z
x,-y,1/2+z
1/2+x,1/2+y,z
1/2-x,1/2+y,1/2-z
1/2-x,1/2-y,-z
1/2+x,1/2-y,1/2+z
loop_
_atom_site_type_symbol
_atom_site_label
_atom_site_fract_x
_atom_site_fract_y
_atom_site_fract_z
Si Si1 0.900907 0.693346 0.621788
Si Si2 0.768568 0.832621 0.594010
Si Si3 0.584992 0.239670 0.664309
Si Si4 0.440195 0.802557 0.839916
Si Si5 0.926000 0.102038 0.469159
Si Si6 0.566625 0.795519 0.897040
Si Si7 0.228952 0.325344 0.196452
O O1 0.960065 0.508765 0.589291
O O2 0.847931 0.685038 0.712777
O O3 0.957730 0.884103 0.590264
O O4 0.828347 0.675105 0.598310
O O5 0.845192 0.950160 0.518697
O O6 0.742101 0.968634 0.664781
O O7 0.671949 0.761092 0.609105
O O8 0.500000 0.307990 0.750000
O O9 0.595931 0.316974 0.589275
O O10 0.681829 0.268661 0.657462
O O11 0.563488 0.023959 0.664042
O O12 0.500000 0.741723 0.750000
O O13 0.492898 0.728502 0.877818
O O14 0.925980 0.217233 0.535411
O O15 0.674131 0.761041 0.824291
#
# Coordination Sequence:
#
# PCOD9260524 Si02
#       7
#     8   8   8   8   8   8   8
#     4  12  20  40  63  93 125 164 201 256 310 369
#     4  10  24  38  64  91 127 161 202 255 314 360
#     4  10  18  37  65  90 116 161 215 257 295 356
#     4  10  19  38  62  89 120 166 207 248 298 368
#     4  11  23  40  63  94 126 163 205 255 308 371
#     4  11  23  38  65  94 123 162 213 253 301 366
#     4  10  21  38  66  93 119 161 213 256 301 364
#
# _framework density 25.653787000000001
#
# number of rings (size 3 to 8) (size 9 to 14) (size 15 to 20)
#    0.000    1.429    2.857    4.286    0.000    5.143 
#    0.000    0.714    6.286    0.857    0.000    1.000 
#    0.000    0.000    0.000    0.000    0.000    0.000 
#
# Total GULP energy -156362.597293 kJ/mol
# GULP energy per Si atom -5584.378475 kJ/mol
# Density = 2.559540 g / cm^3
# Si number density = 25.653787 Si / 1000 Ang^3
#
#
#
# Elastic Constant Matrix: (Units=GPa)
#
#
# Indices 1 2 3 4 5 6 
#
# 1 219.1948 25.8926 52.2060 0.0005 8.6331 0.0012
# 2 25.8926 54.6094 22.0467 0.0008 5.4088 0.0025
# 3 52.2060 22.0467 164.6666 0.0000 10.8864 0.0001
# 4 0.0005 0.0008 0.0000 22.2015 -0.0001 12.4182
# 5 8.6331 5.4088 10.8864 -0.0001 40.5008 0.0002
# 6 0.0012 0.0025 0.0001 12.4182 0.0002 37.6963
#
#
#
# Elastic Compliance Matrix: (Units=1/GPa)
#
#
# Indices 1 2 3 4 5 6 
#
# 1 0.005118 -0.001836 -0.001345 0.000000 -0.000484 0.000000
# 2 -0.001836 0.020165 -0.002001 0.000000 -0.001764 -0.000001
# 3 -0.001345 -0.002001 0.006852 0.000000 -0.001288 0.000000
# 4 0.000000 0.000000 0.000000 0.055216 0.000000 -0.018190
# 5 -0.000484 -0.001764 -0.001288 0.000000 0.025376 0.000000
# 6 0.000000 -0.000001 0.000000 -0.018190 0.000000 0.032520
#
#
# Mechanical properties :
#
#
# Convention : Reuss Voigt Hill
#
# Bulk Modulus (GPa) = 45.93117 70.97351 58.45234
# Shear Modulus (GPa) = 30.69952 42.63475 36.66714
#
# Velocity S-wave (km/s) = 3.46307 4.08110 3.78472
# Velocity P-wave (km/s) = 5.82525 7.06634 6.47560
#
# Compressibility (1/GPa) = 0.02177171
#
# Stress axis : x y z
#
# Youngs Moduli (GPa) = 195.37274 49.59104 145.93541
#
# Poissons Ratio (x) = 0.09105 0.19627
# Poissons Ratio (y) = 0.35869 0.29204
# Poissons Ratio (z) = 0.26276 0.09924
#
# Static dielectric constant tensor:
#      x y z
#    x 2.063940 0.000000 -0.055740 
#    y 0.000000 2.079270 0.000000 
#    z -0.055740 0.000000 2.022750 
# 
# From -- ./inp_files/247370.got.cif
#   From: 2010.05.17/outbox.cif.g08.bks.cpg/sg15_124_cif.got.tgz:247370.got - 2010.06.03 18:47:42.
