data_PCOD9260011
_publ_section_title
;
Structure prediction by ZEFSAII (Michael W. Deem and Ramdas Pophale) SiO2 
 PCOD9260011
Probable space group: C 2/C
;
_chemical_formula_sum "Si O2"
_cell_formula_units_Z 40
_cell_length_a 15.073907
_cell_length_b 9.961032
_cell_length_c 13.254828
_cell_angle_alpha 90.000000
_cell_angle_beta 133.778930
_cell_angle_gamma 90.000000
_cell_volume 1436.978626
_symmetry_space_group_name_H-M "C 2/C"
_symmetry_group_IT_number 15
_symmetry_cell_setting 'monoclinic'
loop_
_space_group_symop_operation_xyz
x,y,z
-x,y,1/2-z
-x,-y,-z
x,-y,1/2+z
1/2+x,1/2+y,z
1/2-x,1/2+y,1/2-z
1/2-x,1/2-y,-z
1/2+x,1/2-y,1/2+z
loop_
_atom_site_type_symbol
_atom_site_label
_atom_site_fract_x
_atom_site_fract_y
_atom_site_fract_z
Si Si1 0.851933 0.476875 0.650239
Si Si2 0.898798 0.880936 0.045532
Si Si3 0.262852 0.726713 0.850605
Si Si4 0.153774 0.006494 0.716185
Si Si5 0.031490 0.642029 0.072361
O O1 0.730278 0.411684 0.501303
O O2 0.804635 0.629655 0.625096
O O3 0.863790 0.389963 0.762867
O O4 0.000000 0.487336 0.750000
O O5 0.880090 0.952719 0.922502
O O6 0.034150 0.937518 0.178525
O O7 0.928464 0.724572 0.050445
O O8 0.258748 0.632757 0.745488
O O9 0.408624 0.762103 0.965839
O O10 0.204543 0.873472 0.808055
O O11 0.000000 0.500000 0.000000
#
# Coordination Sequence:
#
# PCOD9260011 Si02
#       5
#     8   8   8   8   8
#     4  11  24  40  58  89 132 161 193 260 323 348
#     4   9  19  34  56  87 121 161 195 253 307 349
#     4  10  18  36  60  90 118 158 204 250 296 363
#     4   9  17  32  58  87 119 149 205 253 291 349
#     4  11  22  36  67  93 115 162 220 247 286 383
#
# _framework density 27.836182999999998
#
# number of rings (size 3 to 8) (size 9 to 14) (size 15 to 20)
#    0.000    2.000    4.000    2.400    0.000    0.800 
#    0.000    4.000    0.000    6.000    0.000    0.000 
#    0.000    0.000    0.000    0.000    0.000    0.000 
#
# Total GULP energy -111483.469481 kJ/mol
# GULP energy per Si atom -5574.173474 kJ/mol
# Density = 2.777283 g / cm^3
# Si number density = 27.836183 Si / 1000 Ang^3
#
#
#
# Elastic Constant Matrix: (Units=GPa)
#
#
# Indices 1 2 3 4 5 6 
#
# 1 135.8760 56.4871 42.7404 0.0000 67.5027 0.0000
# 2 56.4871 242.6176 54.9258 0.0000 50.3208 0.0000
# 3 42.7404 54.9258 104.6241 0.0000 51.6253 0.0000
# 4 0.0000 0.0000 0.0000 59.0964 0.0000 28.4876
# 5 67.5027 50.3208 51.6253 0.0000 68.0230 0.0000
# 6 0.0000 0.0000 0.0000 28.4876 0.0000 29.2342
#
#
#
# Elastic Compliance Matrix: (Units=1/GPa)
#
#
# Indices 1 2 3 4 5 6 
#
# 1 0.014835 -0.000643 0.002089 0.000000 -0.015831 0.000000
# 2 -0.000643 0.005000 -0.001362 0.000000 -0.002027 0.000000
# 3 0.002089 -0.001362 0.015900 0.000000 -0.013132 0.000000
# 4 0.000000 0.000000 0.000000 0.031912 0.000000 -0.031097
# 5 -0.015831 -0.002027 -0.013132 0.000000 0.041876 0.000000
# 6 0.000000 0.000000 0.000000 -0.031097 0.000000 0.064509
#
#
# Mechanical properties :
#
#
# Convention : Reuss Voigt Hill
#
# Bulk Modulus (GPa) = 27.85395 87.93603 57.89499
# Shear Modulus (GPa) = 26.90601 53.20167 40.05384
#
# Velocity S-wave (km/s) = 3.11237 4.37652 3.79742
# Velocity P-wave (km/s) = 4.78998 7.56291 6.33015
#
# Compressibility (1/GPa) = 0.03590155
#
# Stress axis : x y z
#
# Youngs Moduli (GPa) = 67.40996 199.99022 62.89435
#
# Poissons Ratio (x) = 0.12867 -0.13139
# Poissons Ratio (y) = 0.04337 0.08567
# Poissons Ratio (z) = -0.14082 0.27241
#
# Static dielectric constant tensor:
#      x y z
#    x 2.445130 0.000000 -0.041620 
#    y 0.000000 2.155910 0.000000 
#    z -0.041620 0.000000 2.246700 
# 
# From -- ./inp_files/247680.got.cif
#   From: 2010.05.17/outbox.cif.g08.bks.cpg/sg15_124_cif.got.tgz:247680.got - 2010.06.03 18:47:42.
