data_PCOD9260021
_publ_section_title
;
Structure prediction by ZEFSAII (Michael W. Deem and Ramdas Pophale) SiO2 
 PCOD9260021
Probable space group: C 2/C
;
_chemical_formula_sum "Si O2"
_cell_formula_units_Z 44
_cell_length_a 26.363566
_cell_length_b 12.043913
_cell_length_c 11.246382
_cell_angle_alpha 90.000000
_cell_angle_beta 143.881191
_cell_angle_gamma 90.000000
_cell_volume 2104.941798
_symmetry_space_group_name_H-M "C 2/C"
_symmetry_group_IT_number 15
_symmetry_cell_setting 'monoclinic'
loop_
_space_group_symop_operation_xyz
x,y,z
-x,y,1/2-z
-x,-y,-z
x,-y,1/2+z
1/2+x,1/2+y,z
1/2-x,1/2+y,1/2-z
1/2-x,1/2-y,-z
1/2+x,1/2-y,1/2+z
loop_
_atom_site_type_symbol
_atom_site_label
_atom_site_fract_x
_atom_site_fract_y
_atom_site_fract_z
Si Si1 0.973329 0.437144 0.571484
Si Si2 0.500000 0.490133 0.250000
Si Si3 0.343789 0.369860 0.712682
Si Si4 0.972168 0.196637 0.893694
Si Si5 0.709262 0.170716 0.749062
Si Si6 0.153539 0.107043 0.673325
O O1 0.871471 0.410453 0.383692
O O2 0.000000 0.489072 0.750000
O O3 0.000000 0.500000 0.500000
O O4 0.017700 0.315436 0.648157
O O5 0.529398 0.405947 0.201191
O O6 0.580501 0.564357 0.442652
O O7 0.323663 0.296120 0.792338
O O8 0.279090 0.344163 0.485036
O O9 0.332772 0.497168 0.723275
O O10 0.440909 0.332019 0.867595
O O11 0.891273 0.196116 0.826939
O O12 0.760217 0.147836 0.725413
#
# Coordination Sequence:
#
# PCOD9260021 Si02
#       6
#     8   4   8   8   8   8
#     4  11  26  48  67  88 128 180 224 271 322 384
#     4  10  18  36  60  92 136 156 202 270 328 392
#     4   9  20  38  57  88 128 161 194 264 322 374
#     4  10  20  39  64  90 128 163 211 268 331 382
#     4  10  22  39  59  88 128 160 213 268 308 383
#     4  11  20  33  64  96 118 165 207 257 329 394
#
# _framework density 20.903192000000001
#
# number of rings (size 3 to 8) (size 9 to 14) (size 15 to 20)
#    0.000    1.818    0.909    4.364    2.545    1.455 
#    8.182    0.909    0.000    0.000    0.000    0.000 
#    0.000    0.000    0.000    0.000    0.000    0.000 
#
# Total GULP energy -122845.555324 kJ/mol
# GULP energy per Si atom -5583.888878 kJ/mol
# Density = 2.085561 g / cm^3
# Si number density = 20.903192 Si / 1000 Ang^3
#
#
#
# Elastic Constant Matrix: (Units=GPa)
#
#
# Indices 1 2 3 4 5 6 
#
# 1 171.9467 39.5711 35.4442 0.0000 31.2312 0.0000
# 2 39.5711 42.8495 -8.0463 0.0000 4.0696 0.0000
# 3 35.4442 -8.0463 38.7873 0.0000 -3.3137 0.0000
# 4 0.0000 0.0000 0.0000 16.9839 0.0000 2.3838
# 5 31.2312 4.0696 -3.3137 0.0000 35.8888 0.0000
# 6 0.0000 0.0000 0.0000 2.3838 0.0000 18.0198
#
#
#
# Elastic Compliance Matrix: (Units=1/GPa)
#
#
# Indices 1 2 3 4 5 6 
#
# 1 0.016689 -0.017837 -0.020178 0.000000 -0.014363 0.000000
# 2 -0.017837 0.043538 0.026444 0.000000 0.013027 0.000000
# 3 -0.020178 0.026444 0.051355 0.000000 0.019302 0.000000
# 4 0.000000 0.000000 0.000000 0.059993 0.000000 -0.007936
# 5 -0.014363 0.013027 0.019302 0.000000 0.040668 0.000000
# 6 0.000000 0.000000 0.000000 -0.007936 0.000000 0.056544
#
#
# Mechanical properties :
#
#
# Convention : Reuss Voigt Hill
#
# Bulk Modulus (GPa) = 11.30692 43.05795 27.18244
# Shear Modulus (GPa) = 15.55648 26.61945 21.08797
#
# Velocity S-wave (km/s) = 2.73099 3.57243 3.17967
# Velocity P-wave (km/s) = 3.91987 6.13676 5.14904
#
# Compressibility (1/GPa) = 0.08844139
#
# Stress axis : x y z
#
# Youngs Moduli (GPa) = 59.92013 22.96834 19.47227
#
# Poissons Ratio (x) = 0.40968 0.39291
# Poissons Ratio (y) = 1.06879 -0.51493
# Poissons Ratio (z) = 1.20905 -0.60738
#
# Static dielectric constant tensor:
#      x y z
#    x 1.792510 0.000000 -0.020680 
#    y 0.000000 1.730580 0.000000 
#    z -0.020680 0.000000 1.780100 
# 
# From -- ./inp_files/117901.got.cif
#   From: 2010.05.17/outbox.cif.g08.bks.cpg/sg15_59_cif.got.tgz:117901.got - 2010.06.03 18:47:42.
