data_PCOD9260023
_publ_section_title
;
Structure prediction by ZEFSAII (Michael W. Deem and Ramdas Pophale) SiO2 
 PCOD9260023
Probable space group: C 2/C
;
_chemical_formula_sum "Si O2"
_cell_formula_units_Z 52
_cell_length_a 15.252048
_cell_length_b 19.251116
_cell_length_c 15.341671
_cell_angle_alpha 90.000000
_cell_angle_beta 141.590703
_cell_angle_gamma 90.000000
_cell_volume 2798.598347
_symmetry_space_group_name_H-M "C 2/C"
_symmetry_group_IT_number 15
_symmetry_cell_setting 'monoclinic'
loop_
_space_group_symop_operation_xyz
x,y,z
-x,y,1/2-z
-x,-y,-z
x,-y,1/2+z
1/2+x,1/2+y,z
1/2-x,1/2+y,1/2-z
1/2-x,1/2-y,-z
1/2+x,1/2-y,1/2+z
loop_
_atom_site_type_symbol
_atom_site_label
_atom_site_fract_x
_atom_site_fract_y
_atom_site_fract_z
Si Si1 0.149504 0.624571 0.263238
Si Si2 0.935066 0.815508 0.518851
Si Si3 0.000000 0.032189 0.750000
Si Si4 0.772525 0.922595 0.513200
Si Si5 0.000000 0.509414 0.250000
Si Si6 0.747997 0.319843 0.840532
Si Si7 0.946112 0.860353 0.072722
Si Si8 0.000000 0.746090 0.250000
O O1 0.179168 0.642391 0.185852
O O2 0.298591 0.608231 0.425377
O O3 0.095774 0.695160 0.267192
O O4 0.043244 0.562312 0.205098
O O5 0.852910 0.878237 0.501838
O O6 0.834894 0.748479 0.435233
O O7 0.085352 0.803839 0.685437
O O8 0.973782 0.834879 0.450064
O O9 0.968715 0.082323 0.806930
O O10 0.127536 0.983468 0.874816
O O11 0.750354 0.870535 0.576118
O O12 0.630448 0.959469 0.371751
O O13 0.921949 0.796752 0.120899
#
# Coordination Sequence:
#
# PCOD9260023 Si02
#       8
#     8   8   4   8   4   8   8   4
#     4  10  21  40  63  94 130 159 212 264 313 374
#     4  11  24  43  66  97 124 169 215 265 311 371
#     4  11  22  43  63  94 121 172 210 252 323 370
#     4  12  25  44  64  91 131 173 211 260 308 387
#     4  11  26  43  65  94 129 172 208 260 325 370
#     4  11  24  43  67  95 126 168 216 262 314 370
#     4  10  21  38  66  94 124 165 212 258 320 374
#     4  10  18  36  60  94 128 164 202 264 308 378
#
# _framework density 18.580731
#
# number of rings (size 3 to 8) (size 9 to 14) (size 15 to 20)
#    0.000    1.231    4.615    0.923    2.154    2.462 
#    2.769    0.000    0.000    0.000    0.000    0.000 
#    0.000    0.000    0.000    0.000    0.000    0.000 
#
# Total GULP energy -145150.962318 kJ/mol
# GULP energy per Si atom -5582.729320 kJ/mol
# Density = 1.853844 g / cm^3
# Si number density = 18.580731 Si / 1000 Ang^3
#
#
#
# Elastic Constant Matrix: (Units=GPa)
#
#
# Indices 1 2 3 4 5 6 
#
# 1 12196.650710162.700615480.4219 -0.0038-6088.8207 0.0038
# 2 10162.7006 8569.021712962.5461 -0.0032-5078.7778 0.0032
# 3 15480.421912962.546119786.2529 -0.0048-7748.9426 0.0049
# 4 -0.0038 -0.0032 -0.0048 33.3032 0.0019 19.4185
# 5 -6088.8207-5078.7778-7748.9426 0.0019 3088.2447 -0.0019
# 6 0.0038 0.0032 0.0049 19.4185 -0.0019 14.1642
#
#
#
# Elastic Compliance Matrix: (Units=1/GPa)
#
#
# Indices 1 2 3 4 5 6 
#
# 1 0.014915 -0.003873 -0.006337 0.000000 0.007138 0.000000
# 2 -0.003873 0.014028 -0.006674 0.000000 -0.001313 0.000000
# 3 -0.006337 -0.006674 0.010924 0.000000 0.003942 0.000000
# 4 0.000000 0.000000 0.000000 0.149669 0.000000 -0.205189
# 5 0.007138 -0.001313 0.003942 0.000000 0.022128 0.000000
# 6 0.000000 0.000000 0.000000 -0.205189 0.000000 0.351905
#
#
# Mechanical properties :
#
#
# Convention : Reuss Voigt Hill
#
# Bulk Modulus (GPa) = 163.93946 13084.80693 6624.37319
# Shear Modulus (GPa) = 8.34210 756.89288 382.61749
#
# Velocity S-wave (km/s) = 2.12118 20.20490 14.36554
# Velocity P-wave (km/s) = 9.71708 87.18798 62.03291
#
# Compressibility (1/GPa) = 0.00609981
#
# Stress axis : x y z
#
# Youngs Moduli (GPa) = 67.04607 71.28485 91.54008
#
# Poissons Ratio (x) = 0.27611 0.58004
# Poissons Ratio (y) = 0.25969 0.61094
# Poissons Ratio (z) = 0.42484 0.47576
#
# Static dielectric constant tensor:
#      x y z
#    x 1.596610 0.000000 0.111180 
#    y 0.000000 1.633300 0.000000 
#    z 0.111180 0.000000 1.369560 
# 
# From -- ./inp_files/40801.got.cif
#   From: 2010.05.17/outbox.cif.g08.bks.cpg/sg15_21_cif.got.tgz:40801.got - 2010.06.03 18:47:42.
