data_PCOD9260229
_publ_section_title
;
Structure prediction by ZEFSAII (Michael W. Deem and Ramdas Pophale) SiO2 
 PCOD9260229
Probable space group: C 2/C
;
_chemical_formula_sum "Si O2"
_cell_formula_units_Z 64
_cell_length_a 9.083326
_cell_length_b 32.601344
_cell_length_c 16.351082
_cell_angle_alpha 90.000000
_cell_angle_beta 44.588196
_cell_angle_gamma 90.000000
_cell_volume 3399.131304
_symmetry_space_group_name_H-M "C 2/C"
_symmetry_group_IT_number 15
_symmetry_cell_setting 'monoclinic'
loop_
_space_group_symop_operation_xyz
x,y,z
-x,y,1/2-z
-x,-y,-z
x,-y,1/2+z
1/2+x,1/2+y,z
1/2-x,1/2+y,1/2-z
1/2-x,1/2-y,-z
1/2+x,1/2-y,1/2+z
loop_
_atom_site_type_symbol
_atom_site_label
_atom_site_fract_x
_atom_site_fract_y
_atom_site_fract_z
Si Si1 0.325855 0.222845 0.246635
Si Si2 0.114055 0.925371 0.787363
Si Si3 0.791689 0.816443 0.279698
Si Si4 0.490707 0.548794 0.999560
Si Si5 0.542395 0.340957 0.600030
Si Si6 0.449269 0.834067 0.552734
Si Si7 0.949694 0.407079 0.862327
Si Si8 0.750823 0.122751 0.647877
O O1 0.500000 0.219715 0.250000
O O2 0.268439 0.270264 0.255431
O O3 0.426537 0.202940 0.125888
O O4 0.111448 0.197718 0.350629
O O5 0.356452 0.937527 0.695309
O O6 0.000000 0.935941 0.750000
O O7 0.108656 0.876593 0.805584
O O8 0.985955 0.941303 0.914114
O O9 0.606056 0.826141 0.416066
O O10 0.813904 0.849645 0.199791
O O11 0.000000 0.816817 0.250000
O O12 0.662045 0.576195 0.884898
O O13 0.500000 0.500000 0.000000
O O14 0.268540 0.568573 0.058358
O O15 0.724900 0.337887 0.595610
O O16 0.649588 0.355992 0.472907
O O17 0.535775 0.872428 0.573121
O O18 0.000000 0.390550 0.750000
O O19 0.500000 0.122484 0.750000
#
# Coordination Sequence:
#
# PCOD9260229 Si02
#       8
#     8   8   8   8   8   8   8   8
#     4  11  26  39  63  96 130 171 230 286 322 369
#     4  10  18  36  65  95 124 152 209 270 322 378
#     4  11  27  43  60  93 133 182 220 272 327 397
#     4  10  24  42  65  96 129 168 211 266 335 404
#     4  11  22  39  65  92 127 167 220 278 318 383
#     4  12  22  40  65  94 125 173 228 263 325 384
#     4  10  20  37  68  97 119 160 208 271 324 380
#     4  11  24  44  65  89 131 177 216 263 340 403
#
# _framework density 18.828341000000002
#
# number of rings (size 3 to 8) (size 9 to 14) (size 15 to 20)
#    0.000    1.250    3.750    1.500    7.000    4.000 
#    0.000    2.500    0.000    0.000    0.000    0.000 
#    0.000    0.000    0.000    0.000    0.000    0.000 
#
# Total GULP energy -178432.510657 kJ/mol
# GULP energy per Si atom -5576.015958 kJ/mol
# Density = 1.878549 g / cm^3
# Si number density = 18.828341 Si / 1000 Ang^3
#
#
#
# Elastic Constant Matrix: (Units=GPa)
#
#
# Indices 1 2 3 4 5 6 
#
# 1 104.0057 36.4631 31.3191 0.0000 4.4013 0.0000
# 2 36.4631 131.1800 40.5691 0.0000 12.1824 0.0000
# 3 31.3191 40.5691 96.8155 0.0000 13.5183 0.0000
# 4 0.0000 0.0000 0.0000 12.1615 0.0000 5.8422
# 5 4.4013 12.1824 13.5183 0.0000 34.9403 0.0000
# 6 0.0000 0.0000 0.0000 5.8422 0.0000 6.6465
#
#
#
# Elastic Compliance Matrix: (Units=1/GPa)
#
#
# Indices 1 2 3 4 5 6 
#
# 1 0.011229 -0.002321 -0.002723 0.000000 0.000448 0.000000
# 2 -0.002321 0.009338 -0.002905 0.000000 -0.001839 0.000000
# 3 -0.002723 -0.002905 0.012937 0.000000 -0.003649 0.000000
# 4 0.000000 0.000000 0.000000 0.142323 0.000000 -0.125101
# 5 0.000448 -0.001839 -0.003649 0.000000 0.030617 0.000000
# 6 0.000000 0.000000 0.000000 -0.125101 0.000000 0.260420
#
#
# Mechanical properties :
#
#
# Convention : Reuss Voigt Hill
#
# Bulk Modulus (GPa) = 56.79849 60.96707 58.88278
# Shear Modulus (GPa) = 10.23271 25.65966 17.94618
#
# Velocity S-wave (km/s) = 2.33378 3.69565 3.09066
# Velocity P-wave (km/s) = 6.12324 7.11767 6.63910
#
# Compressibility (1/GPa) = 0.01760610
#
# Stress axis : x y z
#
# Youngs Moduli (GPa) = 89.05143 107.09494 77.30024
#
# Poissons Ratio (x) = 0.24856 0.21046
# Poissons Ratio (y) = 0.20669 0.22457
# Poissons Ratio (z) = 0.24246 0.31112
#
# Static dielectric constant tensor:
#      x y z
#    x 1.676350 0.000000 -0.035250 
#    y 0.000000 1.717910 0.000000 
#    z -0.035250 0.000000 1.711660 
# 
# From -- ./inp_files/139788.got.cif
#   From: 2010.05.17/outbox.cif.g08.bks.cpg/sg15_70_cif.got.tgz:139788.got - 2010.06.03 18:47:42.
