data_PCOD9260497
_publ_section_title
;
Structure prediction by ZEFSAII (Michael W. Deem and Ramdas Pophale) SiO2 
 PCOD9260497
Probable space group: C 2/C
;
_chemical_formula_sum "Si O2"
_cell_formula_units_Z 36
_cell_length_a 8.965728
_cell_length_b 12.206975
_cell_length_c 25.627762
_cell_angle_alpha 90.000000
_cell_angle_beta 43.121319
_cell_angle_gamma 90.000000
_cell_volume 1917.218751
_symmetry_space_group_name_H-M "C 2/C"
_symmetry_group_IT_number 15
_symmetry_cell_setting 'monoclinic'
loop_
_space_group_symop_operation_xyz
x,y,z
-x,y,1/2-z
-x,-y,-z
x,-y,1/2+z
1/2+x,1/2+y,z
1/2-x,1/2+y,1/2-z
1/2-x,1/2-y,-z
1/2+x,1/2-y,1/2+z
loop_
_atom_site_type_symbol
_atom_site_label
_atom_site_fract_x
_atom_site_fract_y
_atom_site_fract_z
Si Si1 0.953976 0.363420 0.862254
Si Si2 0.903697 0.153258 0.619137
Si Si3 0.540340 0.627306 0.008959
Si Si4 0.330658 0.992637 0.996761
Si Si5 0.000000 0.498845 0.750000
O O1 0.699989 0.333277 0.914209
O O2 0.083100 0.256753 0.846846
O O3 0.046254 0.424973 0.788731
O O4 0.939826 0.441842 0.916726
O O5 0.883939 0.186783 0.563034
O O6 0.133884 0.088836 0.563296
O O7 0.707216 0.073376 0.683322
O O8 0.717893 0.607725 0.008344
O O9 0.500000 0.500000 0.000000
O O10 0.500000 0.000000 0.000000
#
# Coordination Sequence:
#
# PCOD9260497 Si02
#       5
#     8   8   8   8   4
#     4  10  20  39  63  84 115 167 201 243 309 372
#     4  10  20  39  63  84 115 167 201 243 309 372
#     4   8  14  35  62  81 109 158 198 243 301 343
#     4  10  18  37  64  91 115 151 210 263 292 351
#     4  12  20  42  62  82 136 162 202 244 320 376
#
# _framework density 18.777200000000001
#
# number of rings (size 3 to 8) (size 9 to 14) (size 15 to 20)
#    0.000    2.667    6.667    2.667    0.000    0.000 
#    8.000    4.444    0.000    0.000    0.000    0.000 
#    0.000    0.000    0.000    0.000    0.000    0.000 
#
# Total GULP energy -100328.239141 kJ/mol
# GULP energy per Si atom -5573.791063 kJ/mol
# Density = 1.873446 g / cm^3
# Si number density = 18.777200 Si / 1000 Ang^3
#
#
#
# Elastic Constant Matrix: (Units=GPa)
#
#
# Indices 1 2 3 4 5 6 
#
# 1 134.4918 15.3402 10.2089 0.0000 21.5353 0.0000
# 2 15.3402 47.3313 0.1938 0.0000 11.6869 0.0000
# 3 10.2089 0.1938 54.0961 0.0001 13.8837 0.0000
# 4 0.0000 0.0000 0.0001 8.8904 0.0000 12.8527
# 5 21.5353 11.6869 13.8837 0.0000 15.3714 0.0000
# 6 0.0000 0.0000 0.0000 12.8527 0.0000 26.9357
#
#
#
# Elastic Compliance Matrix: (Units=1/GPa)
#
#
# Indices 1 2 3 4 5 6 
#
# 1 0.009808 0.000913 0.002409 0.000000 -0.016611 0.000000
# 2 0.000913 0.027970 0.007177 0.000000 -0.029027 0.000000
# 3 0.002409 0.007177 0.026389 -0.000001 -0.032667 0.000000
# 4 0.000000 0.000000 -0.000001 0.362644 0.000002 -0.173040
# 5 -0.016611 -0.029027 -0.032667 0.000002 0.139903 -0.000001
# 6 0.000000 0.000000 0.000000 -0.173040 -0.000001 0.119694
#
#
# Mechanical properties :
#
#
# Convention : Reuss Voigt Hill
#
# Bulk Modulus (GPa) = 11.74191 31.93388 21.83790
# Shear Modulus (GPa) = 7.20671 24.25125 15.72898
#
# Velocity S-wave (km/s) = 1.96121 3.59768 2.89738
# Velocity P-wave (km/s) = 3.37569 5.85674 4.77999
#
# Compressibility (1/GPa) = 0.08516502
#
# Stress axis : x y z
#
# Youngs Moduli (GPa) = 101.95475 35.75315 37.89429
#
# Poissons Ratio (x) = -0.03264 -0.09129
# Poissons Ratio (y) = -0.09307 -0.27197
# Poissons Ratio (z) = -0.24561 -0.25661
#
# Static dielectric constant tensor:
#      x y z
#    x 1.708110 0.000000 0.012270 
#    y 0.000000 1.704860 0.000000 
#    z 0.012270 0.000000 1.641650 
# 
# From -- ./inp_files/262959.got.cif
#   From: 2010.05.17/outbox.cif.g08.bks.cpg/sg15_132_cif.got.tgz:262959.got - 2010.06.03 18:47:42.
