data_PCOD9260567
_publ_section_title
;
Structure prediction by ZEFSAII (Michael W. Deem and Ramdas Pophale) SiO2 
 PCOD9260567
Probable space group: C 2/C
;
_chemical_formula_sum "Si O2"
_cell_formula_units_Z 52
_cell_length_a 8.027244
_cell_length_b 26.582966
_cell_length_c 10.789784
_cell_angle_alpha 90.000000
_cell_angle_beta 100.025340
_cell_angle_gamma 90.000000
_cell_volume 2267.254111
_symmetry_space_group_name_H-M "C 2/C"
_symmetry_group_IT_number 15
_symmetry_cell_setting 'monoclinic'
loop_
_space_group_symop_operation_xyz
x,y,z
-x,y,1/2-z
-x,-y,-z
x,-y,1/2+z
1/2+x,1/2+y,z
1/2-x,1/2+y,1/2-z
1/2-x,1/2-y,-z
1/2+x,1/2-y,1/2+z
loop_
_atom_site_type_symbol
_atom_site_label
_atom_site_fract_x
_atom_site_fract_y
_atom_site_fract_z
Si Si1 0.070240 0.892021 0.116375
Si Si2 0.796252 0.800415 0.252574
Si Si3 0.026707 0.355503 0.045237
Si Si4 0.162885 0.004499 0.683234
Si Si5 0.828376 0.689928 0.311796
Si Si6 0.500000 0.061264 0.750000
Si Si7 0.212190 0.109573 0.114897
O O1 0.202554 0.847328 0.153215
O O2 0.000000 0.898557 0.250000
O O3 0.122009 0.948683 0.085857
O O4 0.935329 0.874776 0.998931
O O5 0.665234 0.819008 0.130073
O O6 0.746904 0.745140 0.291164
O O7 0.000000 0.797090 0.250000
O O8 0.983434 0.401094 0.131598
O O9 0.118775 0.381960 0.941326
O O10 0.884279 0.323260 0.957464
O O11 0.196349 0.949173 0.639181
O O12 0.000000 0.999597 0.750000
O O13 0.338061 0.026711 0.760229
O O14 0.719728 0.645286 0.235739
O O15 0.000000 0.692591 0.250000
#
# Coordination Sequence:
#
# PCOD9260567 Si02
#       7
#     8   8   8   8   8   4   8
#     4  10  18  38  63  96 127 180 240 279 341 426
#     4  10  18  37  68  97 136 185 240 287 347 437
#     4  11  22  43  65 104 142 182 243 294 364 427
#     4  11  25  46  71 107 140 192 242 294 368 432
#     4   9  23  36  65 107 139 184 232 299 363 426
#     4  12  26  46  76 100 146 192 238 312 352 438
#     4  11  22  42  68  99 149 180 239 302 358 428
#
# _framework density 22.935231000000002
#
# number of rings (size 3 to 8) (size 9 to 14) (size 15 to 20)
#    0.000    1.538    4.615    1.385    5.385    2.462 
#    8.308    0.769    1.692    0.000    0.000    0.000 
#    0.000    0.000    0.000    0.000    0.000    0.000 
#
# Total GULP energy -144971.702388 kJ/mol
# GULP energy per Si atom -5575.834707 kJ/mol
# Density = 2.288303 g / cm^3
# Si number density = 22.935231 Si / 1000 Ang^3
#
#
#
# Elastic Constant Matrix: (Units=GPa)
#
#
# Indices 1 2 3 4 5 6 
#
# 1 76.2187 33.9838 44.4634 0.0000 1.5001 0.0000
# 2 33.9838 207.7990 97.3251 0.0000 11.8859 0.0000
# 3 44.4634 97.3251 116.1023 0.0000 22.0205 0.0000
# 4 0.0000 0.0000 0.0000 -1.5971 0.0000 -7.8627
# 5 1.5001 11.8859 22.0205 0.0000 33.9970 0.0000
# 6 0.0000 0.0000 0.0000 -7.8627 0.0000 11.9325
#
#
#
# Elastic Compliance Matrix: (Units=1/GPa)
#
#
# Indices 1 2 3 4 5 6 
#
# 1 0.017424 0.000673 -0.008033 0.000000 0.004199 0.000000
# 2 0.000673 0.008041 -0.007364 0.000000 0.001929 0.000000
# 3 -0.008033 -0.007364 0.019731 0.000000 -0.009851 0.000000
# 4 0.000000 0.000000 0.000000 -0.147533 0.000000 -0.097214
# 5 0.004199 0.001929 -0.009851 0.000000 0.034935 0.000000
# 6 0.000000 0.000000 0.000000 -0.097214 0.000000 0.019747
#
#
# Mechanical properties :
#
#
# Convention : Reuss Voigt Hill
#
# Bulk Modulus (GPa) = 63.50438 83.51829 73.51134
# Shear Modulus (GPa) = -385.89925 23.82299 -181.03813
#
# Velocity S-wave (km/s) = -12.98543 3.22639 -8.89415
# Velocity P-wave (km/s) = 14.03851 7.09742 8.56465
#
# Compressibility (1/GPa) = 0.01574694
#
# Stress axis : x y z
#
# Youngs Moduli (GPa) = 57.39282 124.36241 50.68185
#
# Poissons Ratio (x) = -0.08366 0.40713
# Poissons Ratio (y) = -0.03861 0.37322
# Poissons Ratio (z) = 0.46104 0.91580
#
# Static dielectric constant tensor:
#      x y z
#    x 2.081970 0.000000 0.011040 
#    y 0.000000 1.858490 0.000000 
#    z 0.011040 0.000000 1.868340 
# 
# From -- ./inp_files/80852.got.cif
#   From: 2010.05.17/outbox.cif.g08.bks.cpg/sg15_41_cif.got.tgz:80852.got - 2010.06.03 18:47:42.
