data_PCOD9260510
_publ_section_title
;
Structure prediction by ZEFSAII (Michael W. Deem and Ramdas Pophale) SiO2 
 PCOD9260510
Probable space group: C 2/C
;
_chemical_formula_sum "Si O2"
_cell_formula_units_Z 56
_cell_length_a 5.633041
_cell_length_b 18.185262
_cell_length_c 29.601978
_cell_angle_alpha 90.000000
_cell_angle_beta 118.844478
_cell_angle_gamma 90.000000
_cell_volume 2656.157450
_symmetry_space_group_name_H-M "C 2/C"
_symmetry_group_IT_number 15
_symmetry_cell_setting 'monoclinic'
loop_
_space_group_symop_operation_xyz
x,y,z
-x,y,1/2-z
-x,-y,-z
x,-y,1/2+z
1/2+x,1/2+y,z
1/2-x,1/2+y,1/2-z
1/2-x,1/2-y,-z
1/2+x,1/2-y,1/2+z
loop_
_atom_site_type_symbol
_atom_site_label
_atom_site_fract_x
_atom_site_fract_y
_atom_site_fract_z
Si Si1 0.354130 0.302473 0.572835
Si Si2 0.565467 0.835129 0.035416
Si Si3 0.783507 0.632614 0.169115
Si Si4 0.942314 0.419630 0.380497
Si Si5 0.331547 0.320332 0.377111
Si Si6 0.960237 0.201048 0.695812
Si Si7 0.656472 0.447908 0.808178
O O1 0.469544 0.241452 0.549221
O O2 0.591630 0.358669 0.607423
O O3 0.282878 0.253418 0.609959
O O4 0.088121 0.338314 0.526182
O O5 0.483554 0.902437 0.060980
O O6 0.886897 0.829730 0.069509
O O7 0.861994 0.715504 0.189852
O O8 0.579944 0.597291 0.187399
O O9 0.071113 0.593871 0.184541
O O10 0.755441 0.350794 0.348674
O O11 0.778923 0.491525 0.353247
O O12 0.198003 0.400250 0.373034
O O13 0.311707 0.303605 0.321850
O O14 0.000000 0.173604 0.750000
O O15 0.500000 0.479722 0.750000
#
# Coordination Sequence:
#
# PCOD9260510 Si02
#       7
#     8   8   8   8   8   8   8
#     4  10  19  37  64 102 132 174 214 285 344 401
#     4   9  19  36  66  98 133 167 225 275 348 395
#     4  12  25  45  68  99 137 175 229 280 340 413
#     4  10  23  42  64  94 130 173 231 274 332 408
#     4  10  18  37  64  98 133 168 224 281 334 409
#     4  11  22  39  64  97 128 167 228 293 336 389
#     4  12  28  48  67  94 138 191 224 276 351 414
#
# _framework density 21.083089000000001
#
# number of rings (size 3 to 8) (size 9 to 14) (size 15 to 20)
#    0.000    1.429    4.286    3.000    4.000    0.571 
#    2.571    1.429    0.000    0.000    0.000    0.000 
#    0.000    0.000    0.000    0.000    0.000    0.000 
#
# Total GULP energy -155881.547904 kJ/mol
# GULP energy per Si atom -5567.198139 kJ/mol
# Density = 2.103510 g / cm^3
# Si number density = 21.083089 Si / 1000 Ang^3
#
#
#
# Elastic Constant Matrix: (Units=GPa)
#
#
# Indices 1 2 3 4 5 6 
#
# 1 77.3236 18.4348 -1.7568 0.0000 -0.2279 0.0000
# 2 18.4348 29.6887 -5.1185 0.0000 6.0693 0.0000
# 3 -1.7568 -5.1185 77.4675 0.0000 -4.9290 0.0000
# 4 0.0000 0.0000 0.0000 -2.6948 0.0000 6.1912
# 5 -0.2279 6.0693 -4.9290 0.0000 20.9339 0.0000
# 6 0.0000 0.0000 0.0000 6.1912 0.0000 15.8707
#
#
#
# Elastic Compliance Matrix: (Units=1/GPa)
#
#
# Indices 1 2 3 4 5 6 
#
# 1 0.015370 -0.010199 -0.000128 0.000000 0.003094 0.000000
# 2 -0.010199 0.042802 0.001828 0.000000 -0.012090 0.000000
# 3 -0.000128 0.001828 0.013190 0.000000 0.002574 0.000000
# 4 0.000000 0.000000 0.000000 -0.195693 0.000000 0.076341
# 5 0.003094 -0.012090 0.002574 0.000000 0.051915 0.000000
# 6 0.000000 0.000000 0.000000 0.076341 0.000000 0.033228
#
#
# Mechanical properties :
#
#
# Convention : Reuss Voigt Hill
#
# Bulk Modulus (GPa) = 18.39457 23.06654 20.73056
# Shear Modulus (GPa) = -1229.43275 18.34998 -605.54138
#
# Velocity S-wave (km/s) = -24.17443 2.95340 -16.96585
# Velocity P-wave (km/s) = 27.75716 4.75338 19.33734
#
# Compressibility (1/GPa) = 0.05436386
#
# Stress axis : x y z
#
# Youngs Moduli (GPa) = 65.06037 23.36318 75.81338
#
# Poissons Ratio (x) = 0.23827 0.00974
# Poissons Ratio (y) = 0.66353 -0.13855
# Poissons Ratio (z) = 0.00836 -0.04270
#
# Static dielectric constant tensor:
#      x y z
#    x 2.134040 0.000000 -0.000810 
#    y 0.000000 1.752530 0.000000 
#    z -0.000810 0.000000 1.870650 
# 
# From -- ./inp_files/286110.got.cif
#   From: 2010.05.17/outbox.cif.g08.bks.cpg/sg15_144_cif.got.tgz:286110.got - 2010.06.03 18:47:42.
