data_PCOD9260586
_publ_section_title
;
Structure prediction by ZEFSAII (Michael W. Deem and Ramdas Pophale) SiO2 
 PCOD9260586
Probable space group: C 2/C
;
_chemical_formula_sum "Si O2"
_cell_formula_units_Z 48
_cell_length_a 20.273028
_cell_length_b 11.663261
_cell_length_c 10.976106
_cell_angle_alpha 90.000000
_cell_angle_beta 43.663956
_cell_angle_gamma 90.000000
_cell_volume 1791.863680
_symmetry_space_group_name_H-M "C 2/C"
_symmetry_group_IT_number 15
_symmetry_cell_setting 'monoclinic'
loop_
_space_group_symop_operation_xyz
x,y,z
-x,y,1/2-z
-x,-y,-z
x,-y,1/2+z
1/2+x,1/2+y,z
1/2-x,1/2+y,1/2-z
1/2-x,1/2-y,-z
1/2+x,1/2-y,1/2+z
loop_
_atom_site_type_symbol
_atom_site_label
_atom_site_fract_x
_atom_site_fract_y
_atom_site_fract_z
Si Si1 0.163060 0.625940 0.247622
Si Si2 0.216493 0.118191 0.054880
Si Si3 0.075291 0.569551 0.753388
Si Si4 0.047782 0.188562 0.424985
Si Si5 0.342461 0.655327 0.629335
Si Si6 0.339887 0.758752 0.999629
O O1 0.097147 0.515404 0.338583
O O2 0.148491 0.704534 0.385937
O O3 0.276991 0.641242 0.074633
O O4 0.129173 0.696923 0.172910
O O5 0.135405 0.108768 0.263746
O O6 0.250000 0.250000 0.000000
O O7 0.315951 0.055611 0.942865
O O8 0.171159 0.099304 0.982485
O O9 0.055287 0.698284 0.827253
O O10 0.000000 0.536454 0.750000
O O11 0.076847 0.234888 0.517874
O O12 0.945537 0.128611 0.548267
O O13 0.240906 0.653821 0.836148
#
# Coordination Sequence:
#
# PCOD9260586 Si02
#       6
#     8   8   8   8   8   8
#     4   9  21  39  55  85 120 151 184 233 298 337
#     4  10  18  38  53  82 119 152 190 227 290 343
#     4  11  22  34  59  94 122 142 184 252 300 341
#     4  11  21  36  60  87 112 157 196 235 284 345
#     4  10  19  37  61  78 112 158 195 231 274 351
#     4   9  20  40  57  80 118 160 190 226 285 354
#
# _framework density 26.787751
#
# number of rings (size 3 to 8) (size 9 to 14) (size 15 to 20)
#    1.000    1.000    3.333    2.500    2.333    0.667 
#    9.000    0.000    0.000    6.000    0.000    0.000 
#    0.000    0.000    0.000    0.000    0.000    0.000 
#
# Total GULP energy -133883.010254 kJ/mol
# GULP energy per Si atom -5578.458761 kJ/mol
# Density = 2.672678 g / cm^3
# Si number density = 26.787751 Si / 1000 Ang^3
#
#
#
# Elastic Constant Matrix: (Units=GPa)
#
#
# Indices 1 2 3 4 5 6 
#
# 1 213.4049 17.2712 57.8476 0.0000 -21.0011 0.0000
# 2 17.2712 79.5286 24.4809 0.0000 -9.8361 0.0000
# 3 57.8476 24.4809 87.9560 0.0000 -25.0544 0.0000
# 4 0.0000 0.0000 0.0000 19.6180 0.0000 -4.7756
# 5 -21.0011 -9.8361 -25.0544 0.0000 55.2366 0.0000
# 6 0.0000 0.0000 0.0000 -4.7756 0.0000 16.5725
#
#
#
# Elastic Compliance Matrix: (Units=1/GPa)
#
#
# Indices 1 2 3 4 5 6 
#
# 1 0.005717 -0.000071 -0.003588 0.000000 0.000533 0.000000
# 2 -0.000071 0.013786 -0.003558 0.000000 0.000814 0.000000
# 3 -0.003588 -0.003558 0.016250 0.000000 0.005373 0.000000
# 4 0.000000 0.000000 0.000000 0.054819 0.000000 0.015797
# 5 0.000533 0.000814 0.005373 0.000000 0.020889 0.000000
# 6 0.000000 0.000000 0.000000 0.015797 0.000000 0.064893
#
#
# Mechanical properties :
#
#
# Convention : Reuss Voigt Hill
#
# Bulk Modulus (GPa) = 46.91047 64.45433 55.68240
# Shear Modulus (GPa) = 25.26601 37.03806 31.15204
#
# Velocity S-wave (km/s) = 3.07448 3.72243 3.41386
# Velocity P-wave (km/s) = 5.49119 6.52600 6.03083
#
# Compressibility (1/GPa) = 0.02131720
#
# Stress axis : x y z
#
# Youngs Moduli (GPa) = 174.92272 72.53979 61.53799
#
# Poissons Ratio (x) = 0.00515 0.22081
# Poissons Ratio (y) = 0.01242 0.21898
# Poissons Ratio (z) = 0.62765 0.25813
#
# Static dielectric constant tensor:
#      x y z
#    x 2.071460 0.000000 -0.000240 
#    y 0.000000 2.272990 0.000000 
#    z -0.000240 0.000000 2.210560 
# 
# From -- ./inp_files/112944.got.cif
#   From: 2010.05.17/outbox.cif.g08.bks.cpg/sg15_57_cif.got.tgz:112944.got - 2010.06.03 18:47:42.
