data_PCOD9260975
_publ_section_title
;
Structure prediction by ZEFSAII (Michael W. Deem and Ramdas Pophale) SiO2 
 PCOD9260975
Probable space group: C 2/C
;
_chemical_formula_sum "Si O2"
_cell_formula_units_Z 56
_cell_length_a 18.692455
_cell_length_b 7.822082
_cell_length_c 19.586508
_cell_angle_alpha 90.000000
_cell_angle_beta 110.985727
_cell_angle_gamma 90.000000
_cell_volume 2673.861906
_symmetry_space_group_name_H-M "C 2/C"
_symmetry_group_IT_number 15
_symmetry_cell_setting 'monoclinic'
loop_
_space_group_symop_operation_xyz
x,y,z
-x,y,1/2-z
-x,-y,-z
x,-y,1/2+z
1/2+x,1/2+y,z
1/2-x,1/2+y,1/2-z
1/2-x,1/2-y,-z
1/2+x,1/2-y,1/2+z
loop_
_atom_site_type_symbol
_atom_site_label
_atom_site_fract_x
_atom_site_fract_y
_atom_site_fract_z
Si Si1 0.097568 0.952393 0.858412
Si Si2 0.095390 0.466562 0.706943
Si Si3 0.152940 0.414322 0.089545
Si Si4 0.251349 0.756135 0.917494
Si Si5 0.275130 0.892323 0.652572
Si Si6 0.000000 0.208915 0.750000
Si Si7 0.657711 0.243561 0.454481
Si Si8 0.500000 0.774997 0.250000
O O1 0.170382 0.837478 0.868122
O O2 0.024556 0.830273 0.825890
O O3 0.121520 0.070222 0.930146
O O4 0.072009 0.090658 0.793387
O O5 0.098039 0.547644 0.633570
O O6 0.179627 0.407122 0.760679
O O7 0.031042 0.321962 0.697851
O O8 0.070329 0.610193 0.751864
O O9 0.189870 0.597825 0.084908
O O10 0.216040 0.267905 0.132153
O O11 0.120670 0.346331 0.006587
O O12 0.160263 0.357129 0.883964
O O13 0.250000 0.750000 0.000000
O O14 0.237777 0.071436 0.614437
O O15 0.750000 0.250000 0.500000
#
# Coordination Sequence:
#
# PCOD9260975 Si02
#       8
#     8   8   8   8   8   4   8   4
#     4  11  20  40  68  91 123 168 226 256 312 396
#     4  11  23  41  61  91 128 171 223 258 325 383
#     4  11  24  40  60 100 135 155 211 283 322 380
#     4  12  21  38  70  97 121 166 206 264 335 384
#     4  11  21  38  63  92 128 165 202 263 331 381
#     4  10  22  42  68  86 128 190 213 259 316 391
#     4  10  18  39  64  88 127 162 201 264 327 375
#     4  10  24  40  62  88 126 178 221 255 302 403
#
# _framework density 20.943491999999999
#
# number of rings (size 3 to 8) (size 9 to 14) (size 15 to 20)
#    0.000    1.143    7.143    0.857    2.000    0.000 
#    5.143    1.429    0.000    0.000    0.000    0.000 
#    0.000    0.000    0.000    0.000    0.000    0.000 
#
# Total GULP energy -155913.144886 kJ/mol
# GULP energy per Si atom -5568.326603 kJ/mol
# Density = 2.089582 g / cm^3
# Si number density = 20.943492 Si / 1000 Ang^3
#
#
#
# Elastic Constant Matrix: (Units=GPa)
#
#
# Indices 1 2 3 4 5 6 
#
# 1 38.7271 26.3930 20.0377 0.0000 -7.2451 0.0000
# 2 26.3930 111.0999 11.8590 0.0000 -6.5456 0.0000
# 3 20.0377 11.8590 53.7516 0.0000 -10.8596 0.0000
# 4 0.0000 0.0000 0.0000 36.8996 0.0000 13.8636
# 5 -7.2451 -6.5456 -10.8596 0.0000 31.6381 0.0000
# 6 0.0000 0.0000 0.0000 13.8636 0.0000 13.4139
#
#
#
# Elastic Compliance Matrix: (Units=1/GPa)
#
#
# Indices 1 2 3 4 5 6 
#
# 1 0.037569 -0.007494 -0.011741 0.000000 0.003023 0.000000
# 2 -0.007494 0.010763 0.000561 0.000000 0.000703 0.000000
# 3 -0.011741 0.000561 0.024002 0.000000 0.005666 0.000000
# 4 0.000000 0.000000 0.000000 0.044304 0.000000 -0.045789
# 5 0.003023 0.000703 0.005666 0.000000 0.034390 0.000000
# 6 0.000000 0.000000 0.000000 -0.045789 0.000000 0.121874
#
#
# Mechanical properties :
#
#
# Convention : Reuss Voigt Hill
#
# Bulk Modulus (GPa) = 28.58256 35.57309 32.07783
# Shear Modulus (GPa) = 15.53223 26.07626 20.80424
#
# Velocity S-wave (km/s) = 2.72623 3.53239 3.15517
# Velocity P-wave (km/s) = 4.85664 5.80166 5.35005
#
# Compressibility (1/GPa) = 0.03498637
#
# Stress axis : x y z
#
# Youngs Moduli (GPa) = 26.61754 92.91398 41.66333
#
# Poissons Ratio (x) = 0.69626 0.48917
# Poissons Ratio (y) = 0.19946 -0.02337
# Poissons Ratio (z) = 0.31252 -0.05213
#
# Static dielectric constant tensor:
#      x y z
#    x 1.734430 0.000000 0.033920 
#    y 0.000000 1.838380 0.000000 
#    z 0.033920 0.000000 1.806900 
# 
# From -- ./inp_files/218018.got.cif
#   From: 2010.05.17/outbox.cif.g08.bks.cpg/sg15_110_cif.got.tgz:218018.got - 2010.06.03 18:47:42.
