data_PCOD9260516
_publ_section_title
;
Structure prediction by ZEFSAII (Michael W. Deem and Ramdas Pophale) SiO2 
 PCOD9260516
Probable space group: C 2/C
;
_chemical_formula_sum "Si O2"
_cell_formula_units_Z 64
_cell_length_a 14.444048
_cell_length_b 24.018931
_cell_length_c 18.023082
_cell_angle_alpha 90.000000
_cell_angle_beta 150.728647
_cell_angle_gamma 90.000000
_cell_volume 3057.263574
_symmetry_space_group_name_H-M "C 2/C"
_symmetry_group_IT_number 15
_symmetry_cell_setting 'monoclinic'
loop_
_space_group_symop_operation_xyz
x,y,z
-x,y,1/2-z
-x,-y,-z
x,-y,1/2+z
1/2+x,1/2+y,z
1/2-x,1/2+y,1/2-z
1/2-x,1/2-y,-z
1/2+x,1/2-y,1/2+z
loop_
_atom_site_type_symbol
_atom_site_label
_atom_site_fract_x
_atom_site_fract_y
_atom_site_fract_z
Si Si1 0.932666 0.687503 0.286728
Si Si2 0.992377 0.991303 0.581091
Si Si3 0.699327 0.077415 0.645991
Si Si4 0.858574 0.807292 0.580270
Si Si5 0.204656 0.019083 0.919331
Si Si6 0.300799 0.691879 0.652149
Si Si7 0.856804 0.866872 0.810564
Si Si8 0.665750 0.100945 0.028642
O O1 0.830181 0.747936 0.210178
O O2 0.776707 0.646192 0.213152
O O3 0.000000 0.673310 0.250000
O O4 0.120452 0.692155 0.469970
O O5 0.037826 0.926073 0.620479
O O6 0.811676 0.012723 0.503104
O O7 0.160271 0.029630 0.729356
O O8 0.000000 0.000000 0.500000
O O9 0.774618 0.139798 0.688470
O O10 0.542936 0.080576 0.600009
O O11 0.647727 0.055729 0.525500
O O12 0.750000 0.750000 0.500000
O O13 0.711518 0.857079 0.494684
O O14 0.000000 0.807170 0.750000
O O15 0.984111 0.820851 0.595919
O O16 0.217597 0.955363 0.901959
O O17 0.000000 0.042539 0.750000
O O18 0.500000 0.682418 0.750000
O O19 0.721623 0.868506 0.644025
#
# Coordination Sequence:
#
# PCOD9260516 Si02
#       8
#     8   8   8   8   8   8   8   8
#     4  11  25  41  66  96 137 175 222 280 342 404
#     4  11  24  42  59 100 134 173 218 278 350 395
#     4  11  23  37  69  97 123 174 230 268 326 415
#     4  10  23  42  68  97 129 174 222 273 331 394
#     4  10  18  37  65  85 121 169 211 263 319 393
#     4  11  23  43  64  97 131 178 224 270 340 404
#     4  11  22  42  68  93 128 175 222 276 335 398
#     4  11  19  40  66  93 122 164 229 267 319 395
#
# _framework density 20.933752999999999
#
# number of rings (size 3 to 8) (size 9 to 14) (size 15 to 20)
#    0.000    1.250    5.000    3.375    1.750    3.000 
#    2.250    0.625    0.000    0.000    0.000    0.000 
#    0.000    0.000    0.000    0.000    0.000    0.000 
#
# Total GULP energy -178329.825915 kJ/mol
# GULP energy per Si atom -5572.807060 kJ/mol
# Density = 2.088611 g / cm^3
# Si number density = 20.933753 Si / 1000 Ang^3
#
#
#
# Elastic Constant Matrix: (Units=GPa)
#
#
# Indices 1 2 3 4 5 6 
#
# 1 135.6958 37.0556 20.6515 -0.0002 5.1171 -0.0006
# 2 37.0556 74.7584 13.2649 -0.0003 6.7100 -0.0005
# 3 20.6515 13.2649 34.5657 -0.0010 5.6707 -0.0026
# 4 -0.0002 -0.0003 -0.0010 17.6889 -0.0006 7.5080
# 5 5.1171 6.7100 5.6707 -0.0006 27.0172 -0.0014
# 6 -0.0006 -0.0005 -0.0026 7.5080 -0.0014 31.2042
#
#
#
# Elastic Compliance Matrix: (Units=1/GPa)
#
#
# Indices 1 2 3 4 5 6 
#
# 1 0.008995 -0.003765 -0.003939 0.000000 0.000058 0.000000
# 2 -0.003765 0.016094 -0.003509 0.000000 -0.002547 0.000000
# 3 -0.003939 -0.003509 0.033519 0.000001 -0.005418 0.000002
# 4 0.000000 0.000000 0.000001 0.062963 0.000000 -0.015149
# 5 0.000058 -0.002547 -0.005418 0.000000 0.038772 0.000001
# 6 0.000000 0.000000 0.000002 -0.015149 0.000001 0.035692
#
#
# Mechanical properties :
#
#
# Convention : Reuss Voigt Hill
#
# Bulk Modulus (GPa) = 27.63748 42.99600 35.31674
# Shear Modulus (GPa) = 21.69005 26.78527 24.23766
#
# Velocity S-wave (km/s) = 3.22239 3.58093 3.40638
# Velocity P-wave (km/s) = 5.20347 6.13849 5.69021
#
# Compressibility (1/GPa) = 0.03618274
#
# Stress axis : x y z
#
# Youngs Moduli (GPa) = 111.17596 62.13583 29.83374
#
# Poissons Ratio (x) = 0.23393 0.11751
# Poissons Ratio (y) = 0.41855 0.10468
# Poissons Ratio (z) = 0.43789 0.21803
#
# Static dielectric constant tensor:
#      x y z
#    x 15.367730 -0.000070 2.480950 
#    y -0.000070 1.742420 -0.000010 
#    z 2.480950 -0.000010 2.268770 
# 
# From -- ./inp_files/207357.got.cif
#   From: 2010.05.17/outbox.cif.g08.bks.cpg/sg15_104_cif.got.tgz:207357.got - 2010.06.03 18:47:42.
