data_PCOD9260286
_publ_section_title
;
Structure prediction by ZEFSAII (Michael W. Deem and Ramdas Pophale) SiO2 
 PCOD9260286
Probable space group: C 2/C
;
_chemical_formula_sum "Si O2"
_cell_formula_units_Z 52
_cell_length_a 20.514809
_cell_length_b 17.891263
_cell_length_c 12.251494
_cell_angle_alpha 90.000000
_cell_angle_beta 34.954265
_cell_angle_gamma 90.000000
_cell_volume 2576.281533
_symmetry_space_group_name_H-M "C 2/C"
_symmetry_group_IT_number 15
_symmetry_cell_setting 'monoclinic'
loop_
_space_group_symop_operation_xyz
x,y,z
-x,y,1/2-z
-x,-y,-z
x,-y,1/2+z
1/2+x,1/2+y,z
1/2-x,1/2+y,1/2-z
1/2-x,1/2-y,-z
1/2+x,1/2-y,1/2+z
loop_
_atom_site_type_symbol
_atom_site_label
_atom_site_fract_x
_atom_site_fract_y
_atom_site_fract_z
Si Si1 0.636568 0.622761 0.374709
Si Si2 0.763109 0.574687 0.984477
Si Si3 0.500000 0.098213 0.750000
Si Si4 0.736033 0.341668 0.306085
Si Si5 0.393465 0.478127 0.964770
Si Si6 0.129160 0.685972 0.385337
Si Si7 0.466882 0.777836 0.920190
O O1 0.576487 0.552757 0.513387
O O2 0.753667 0.640289 0.278186
O O3 0.566308 0.698782 0.478323
O O4 0.680300 0.599594 0.195342
O O5 0.766621 0.643206 0.891851
O O6 0.887727 0.556473 0.859478
O O7 0.705044 0.510778 0.991184
O O8 0.546640 0.148102 0.586748
O O9 0.660679 0.414804 0.382929
O O10 0.664074 0.267689 0.382105
O O11 0.855419 0.330320 0.081595
O O12 0.500000 0.448073 0.750000
O O13 0.068445 0.689740 0.352865
O O14 0.500000 0.765664 0.750000
#
# Coordination Sequence:
#
# PCOD9260286 Si02
#       7
#     8   8   4   8   8   8   8
#     4  10  23  39  61  96 125 169 209 261 315 386
#     4   9  21  39  61  94 127 161 220 258 323 366
#     4  10  18  36  68  90 124 162 210 280 304 370
#     4   9  22  39  60  96 122 161 220 258 316 382
#     4  10  22  42  61  93 130 165 207 258 321 382
#     4  10  21  36  65  89 127 162 212 266 316 365
#     4  11  23  42  62  92 129 171 210 262 320 378
#
# _framework density 20.184128999999999
#
# number of rings (size 3 to 8) (size 9 to 14) (size 15 to 20)
#    0.923    1.231    1.538    0.462    5.385    4.923 
#    5.538    6.923    1.692    0.000    0.000    0.000 
#    0.000    0.000    0.000    0.000    0.000    0.000 
#
# Total GULP energy -144907.342130 kJ/mol
# GULP energy per Si atom -5573.359313 kJ/mol
# Density = 2.013819 g / cm^3
# Si number density = 20.184129 Si / 1000 Ang^3
#
#
#
# Elastic Constant Matrix: (Units=GPa)
#
#
# Indices 1 2 3 4 5 6 
#
# 1 52.5039 -11.6641 1.6371 0.0000 -2.2531 0.0000
# 2 -11.6641 36.9588 1.7619 0.0000 -1.3606 0.0000
# 3 1.6371 1.7619 49.0344 0.0000 6.3243 0.0000
# 4 0.0000 0.0000 0.0000 -1.8061 0.0000 12.5681
# 5 -2.2531 -1.3606 6.3243 0.0000 20.3996 0.0000
# 6 0.0000 0.0000 0.0000 12.5681 0.0000 15.4107
#
#
#
# Elastic Compliance Matrix: (Units=1/GPa)
#
#
# Indices 1 2 3 4 5 6 
#
# 1 0.020716 0.006718 -0.001339 0.000000 0.003151 0.000000
# 2 0.006718 0.029377 -0.001696 0.000000 0.003227 0.000000
# 3 -0.001339 -0.001696 0.021388 0.000000 -0.006892 0.000000
# 4 0.000000 0.000000 0.000000 -0.082946 0.000000 0.067647
# 5 0.003151 0.003227 -0.006892 0.000000 0.051721 0.000000
# 6 0.000000 0.000000 0.000000 0.067647 0.000000 0.009721
#
#
# Mechanical properties :
#
#
# Convention : Reuss Voigt Hill
#
# Bulk Modulus (GPa) = 12.68308 13.55187 13.11748
# Shear Modulus (GPa) = 72.57606 16.58500 44.58053
#
# Velocity S-wave (km/s) = 6.00292 2.86961 4.70477
# Velocity P-wave (km/s) = 7.37184 4.20812 6.00218
#
# Compressibility (1/GPa) = 0.07884517
#
# Stress axis : x y z
#
# Youngs Moduli (GPa) = 48.27286 34.04037 46.75432
#
# Poissons Ratio (x) = -0.22867 0.06262
# Poissons Ratio (y) = -0.32428 0.07930
# Poissons Ratio (z) = 0.06466 0.05773
#
# Static dielectric constant tensor:
#      x y z
#    x 1.733420 0.000000 -0.021870 
#    y 0.000000 1.703860 0.000000 
#    z -0.021870 0.000000 1.693790 
# 
# From -- ./inp_files/113609.got.cif
#   From: 2010.05.17/outbox.cif.g08.bks.cpg/sg15_57_cif.got.tgz:113609.got - 2010.06.03 18:47:42.
