data_PCOD9260255
_publ_section_title
;
Structure prediction by ZEFSAII (Michael W. Deem and Ramdas Pophale) SiO2 
 PCOD9260255
Probable space group: C 2/C
;
_chemical_formula_sum "Si O2"
_cell_formula_units_Z 48
_cell_length_a 29.698316
_cell_length_b 6.961277
_cell_length_c 18.966014
_cell_angle_alpha 90.000000
_cell_angle_beta 30.142496
_cell_angle_gamma 90.000000
_cell_volume 1968.938917
_symmetry_space_group_name_H-M "C 2/C"
_symmetry_group_IT_number 15
_symmetry_cell_setting 'monoclinic'
loop_
_space_group_symop_operation_xyz
x,y,z
-x,y,1/2-z
-x,-y,-z
x,-y,1/2+z
1/2+x,1/2+y,z
1/2-x,1/2+y,1/2-z
1/2-x,1/2-y,-z
1/2+x,1/2-y,1/2+z
loop_
_atom_site_type_symbol
_atom_site_label
_atom_site_fract_x
_atom_site_fract_y
_atom_site_fract_z
Si Si1 0.778957 0.043498 0.428267
Si Si2 0.354886 0.550761 0.173328
Si Si3 0.595215 0.401787 0.631885
Si Si4 0.659924 0.800353 0.901257
Si Si5 0.523526 0.884610 0.538211
Si Si6 0.580570 0.973121 0.693194
O O1 0.750000 0.250000 0.500000
O O2 0.840333 0.060847 0.276601
O O3 0.837046 0.969443 0.415212
O O4 0.685132 0.948304 0.532639
O O5 0.360686 0.335895 0.136778
O O6 0.263423 0.640386 0.264807
O O7 0.436847 0.679129 0.035675
O O8 0.500000 0.499787 0.750000
O O9 0.636672 0.322185 0.503070
O O10 0.571400 0.207629 0.708479
O O11 0.599231 0.989638 0.976615
O O12 0.500000 0.000000 0.500000
O O13 0.439431 0.883742 0.703980
O O14 0.500000 0.916449 0.750000
#
# Coordination Sequence:
#
# PCOD9260255 Si02
#       6
#     8   8   8   8   8   8
#     4  10  19  37  68  95 128 185 232 269 353 425
#     4  12  25  41  71 106 133 181 237 288 347 426
#     4  10  19  38  68  91 127 186 227 273 343 420
#     4  12  24  42  71  99 139 179 232 285 355 418
#     4  12  25  43  69 100 140 179 228 297 357 406
#     4  10  18  36  66  90 126 182 226 264 346 423
#
# _framework density 24.378613999999999
#
# number of rings (size 3 to 8) (size 9 to 14) (size 15 to 20)
#    0.000    1.000    8.333    2.000    0.000    0.667 
#    0.000    0.833    0.000    5.000    0.000    0.000 
#    0.000    0.000    0.000    0.000    0.000    0.000 
#
# Total GULP energy -134317.398771 kJ/mol
# GULP energy per Si atom -5596.558282 kJ/mol
# Density = 2.432313 g / cm^3
# Si number density = 24.378614 Si / 1000 Ang^3
#
#
#
# Elastic Constant Matrix: (Units=GPa)
#
#
# Indices 1 2 3 4 5 6 
#
# 1 118.3425 -0.3356 18.3477 -0.0021 -7.5512 0.0014
# 2 -0.3356 91.4127 10.6896 -0.0120 6.3149 0.0178
# 3 18.3477 10.6896 93.9620 -0.0324 17.6701 0.0113
# 4 -0.0021 -0.0120 -0.0324 16.8128 -0.0013 10.7106
# 5 -7.5512 6.3149 17.6701 -0.0013 55.2183 0.0032
# 6 0.0014 0.0178 0.0113 10.7106 0.0032 4.5009
#
#
#
# Elastic Compliance Matrix: (Units=1/GPa)
#
#
# Indices 1 2 3 4 5 6 
#
# 1 0.008897 0.000150 -0.002107 0.000006 0.001874 -0.000013
# 2 0.000150 0.011133 -0.001128 -0.000061 -0.000892 0.000105
# 3 -0.002107 -0.001128 0.011930 -0.000069 -0.003977 0.000142
# 4 0.000006 -0.000061 -0.000069 -0.115274 0.000011 0.274315
# 5 0.001874 -0.000892 -0.003977 0.000011 0.019741 -0.000028
# 6 -0.000013 0.000105 0.000142 0.274315 -0.000028 -0.430601
#
#
# Mechanical properties :
#
#
# Convention : Reuss Voigt Hill
#
# Bulk Modulus (GPa) = 38.77486 40.12449 39.44968
# Shear Modulus (GPa) = -10.42954 33.64076 11.60561
#
# Velocity S-wave (km/s) = -2.07061 3.71877 2.18424
# Velocity P-wave (km/s) = 3.19738 5.91047 4.75168
#
# Compressibility (1/GPa) = 0.02578990
#
# Stress axis : x y z
#
# Youngs Moduli (GPa) = 112.40215 89.81948 83.82160
#
# Poissons Ratio (x) = -0.01343 0.17658
# Poissons Ratio (y) = -0.01681 0.09456
# Poissons Ratio (z) = 0.23678 0.10133
#
# Static dielectric constant tensor:
#      x y z
#    x 2.065770 0.000000 -0.107300 
#    y 0.000000 1.954650 0.000000 
#    z -0.107300 0.000000 1.980070 
# 
# From -- ./inp_files/224551.got.cif
#   From: 2010.05.17/outbox.cif.g08.bks.cpg/sg15_113_cif.got.tgz:224551.got - 2010.06.03 18:47:42.
