data_PCOD9260627
_publ_section_title
;
Structure prediction by ZEFSAII (Michael W. Deem and Ramdas Pophale) SiO2 
 PCOD9260627
Probable space group: C 2/C
;
_chemical_formula_sum "Si O2"
_cell_formula_units_Z 40
_cell_length_a 6.879226
_cell_length_b 17.123367
_cell_length_c 18.239675
_cell_angle_alpha 90.000000
_cell_angle_beta 55.807662
_cell_angle_gamma 90.000000
_cell_volume 1777.186976
_symmetry_space_group_name_H-M "C 2/C"
_symmetry_group_IT_number 15
_symmetry_cell_setting 'monoclinic'
loop_
_space_group_symop_operation_xyz
x,y,z
-x,y,1/2-z
-x,-y,-z
x,-y,1/2+z
1/2+x,1/2+y,z
1/2-x,1/2+y,1/2-z
1/2-x,1/2-y,-z
1/2+x,1/2-y,1/2+z
loop_
_atom_site_type_symbol
_atom_site_label
_atom_site_fract_x
_atom_site_fract_y
_atom_site_fract_z
Si Si1 0.018478 0.588193 0.854404
Si Si2 0.576554 0.256718 0.655801
Si Si3 0.899782 0.952403 0.174373
Si Si4 0.397129 0.402772 0.952927
Si Si5 0.419186 0.323195 0.449300
O O1 0.255099 0.542812 0.781368
O O2 0.075710 0.679989 0.830021
O O3 0.816044 0.564349 0.837766
O O4 0.866911 0.581314 0.961020
O O5 0.500000 0.289893 0.750000
O O6 0.586167 0.321251 0.592439
O O7 0.833149 0.220494 0.606461
O O8 0.077671 0.879353 0.122664
O O9 0.018313 0.030108 0.118950
O O10 0.568762 0.386027 0.986218
O O11 0.250000 0.250000 0.500000
#
# Coordination Sequence:
#
# PCOD9260627 Si02
#       5
#     8   8   8   8   8
#     4   9  15  34  57  77 103 150 188 224 263 337
#     4  10  18  38  59  77 111 154 191 223 278 348
#     4   9  17  34  55  81 112 145 187 230 274 336
#     4  10  20  34  62  84 105 149 197 224 284 339
#     4  10  19  36  59  84 113 144 184 240 281 327
#
# _framework density 22.507477000000002
#
# number of rings (size 3 to 8) (size 9 to 14) (size 15 to 20)
#    0.000    2.800    4.000    4.800    0.000    0.000 
#   10.800    1.000    4.400    0.000    0.000    0.000 
#    0.000    0.000    0.000    0.000    0.000    0.000 
#
# Total GULP energy -111479.092667 kJ/mol
# GULP energy per Si atom -5573.954633 kJ/mol
# Density = 2.245625 g / cm^3
# Si number density = 22.507477 Si / 1000 Ang^3
#
#
#
# Elastic Constant Matrix: (Units=GPa)
#
#
# Indices 1 2 3 4 5 6 
#
# 1 29.2812 6.9252 22.4831 0.0000 3.7306 0.0000
# 2 6.9252 86.0352 53.1126 0.0000 0.7079 0.0000
# 3 22.4831 53.1126 164.4199 0.0000 4.6542 0.0000
# 4 0.0000 0.0000 0.0000 40.1138 0.0000 7.1215
# 5 3.7306 0.7079 4.6542 0.0000 31.4401 0.0000
# 6 0.0000 0.0000 0.0000 7.1215 0.0000 29.6501
#
#
#
# Elastic Compliance Matrix: (Units=1/GPa)
#
#
# Indices 1 2 3 4 5 6 
#
# 1 0.038610 0.000145 -0.005219 0.000000 -0.003812 0.000000
# 2 0.000145 0.014523 -0.004721 0.000000 0.000355 0.000000
# 3 -0.005219 -0.004721 0.008335 0.000000 -0.000508 0.000000
# 4 0.000000 0.000000 0.000000 0.026039 0.000000 -0.006254
# 5 -0.003812 0.000355 -0.000508 0.000000 0.032326 0.000000
# 6 0.000000 0.000000 0.000000 -0.006254 0.000000 0.035229
#
#
# Mechanical properties :
#
#
# Convention : Reuss Voigt Hill
#
# Bulk Modulus (GPa) = 23.87843 49.41979 36.64911
# Shear Modulus (GPa) = 26.50948 33.38849 29.94899
#
# Velocity S-wave (km/s) = 3.43564 3.85572 3.65173
# Velocity P-wave (km/s) = 5.13521 6.46737 5.83940
#
# Compressibility (1/GPa) = 0.04187881
#
# Stress axis : x y z
#
# Youngs Moduli (GPa) = 25.90003 68.85540 119.97450
#
# Poissons Ratio (x) = -0.01000 0.62610
# Poissons Ratio (y) = -0.00376 0.56644
# Poissons Ratio (z) = 0.13516 0.32509
#
# Static dielectric constant tensor:
#      x y z
#    x 2.007750 0.000000 0.054750 
#    y 0.000000 1.822930 0.000000 
#    z 0.054750 0.000000 1.877340 
# 
# From -- ./inp_files/264112.got.cif
#   From: 2010.05.17/outbox.cif.g08.bks.cpg/sg15_133_cif.got.tgz:264112.got - 2010.06.03 18:47:42.
