data_PCOD9260277
_publ_section_title
;
Structure prediction by ZEFSAII (Michael W. Deem and Ramdas Pophale) SiO2 
 PCOD9260277
Probable space group: C 2/C
;
_chemical_formula_sum "Si O2"
_cell_formula_units_Z 52
_cell_length_a 27.387073
_cell_length_b 8.663863
_cell_length_c 12.134705
_cell_angle_alpha 90.000000
_cell_angle_beta 127.489329
_cell_angle_gamma 90.000000
_cell_volume 2284.626060
_symmetry_space_group_name_H-M "C 2/C"
_symmetry_group_IT_number 15
_symmetry_cell_setting 'monoclinic'
loop_
_space_group_symop_operation_xyz
x,y,z
-x,y,1/2-z
-x,-y,-z
x,-y,1/2+z
1/2+x,1/2+y,z
1/2-x,1/2+y,1/2-z
1/2-x,1/2-y,-z
1/2+x,1/2-y,1/2+z
loop_
_atom_site_type_symbol
_atom_site_label
_atom_site_fract_x
_atom_site_fract_y
_atom_site_fract_z
Si Si1 0.451314 0.671017 0.457003
Si Si2 0.921179 0.809170 0.424513
Si Si3 0.328457 0.215135 0.711588
Si Si4 0.366590 0.410718 0.558533
Si Si5 0.000000 0.067565 0.750000
Si Si6 0.332770 0.132918 0.150182
Si Si7 0.711993 0.709572 0.114756
O O1 0.425863 0.494934 0.406703
O O2 0.506929 0.722235 0.454950
O O3 0.393921 0.778862 0.363745
O O4 0.482369 0.666141 0.619233
O O5 0.880100 0.793747 0.477077
O O6 0.892772 0.708793 0.287894
O O7 0.333999 0.336397 0.619519
O O8 0.282693 0.254711 0.748552
O O9 0.322685 0.046897 0.654565
O O10 0.436108 0.472838 0.680948
O O11 0.324161 0.548708 0.454298
O O12 0.277464 0.209409 0.144581
O O13 0.327202 0.172087 0.013850
#
# Coordination Sequence:
#
# PCOD9260277 Si02
#       7
#     8   8   8   8   4   8   8
#     4  10  20  38  72  98 126 178 228 263 334 393
#     4  10  21  42  68  98 134 177 219 281 317 403
#     4  12  25  42  71 103 128 177 221 279 341 393
#     4  11  23  40  70  99 131 174 232 267 327 401
#     4  10  18  36  68 102 132 166 222 278 310 406
#     4  11  28  44  66  94 143 170 225 279 344 382
#     4  11  26  47  66  96 134 183 219 276 328 407
#
# _framework density 22.760836000000001
#
# number of rings (size 3 to 8) (size 9 to 14) (size 15 to 20)
#    0.000    1.231    3.077    4.615    4.308    2.462 
#    0.000    0.000    3.385    0.000    0.000    0.000 
#    0.000    0.000    0.000    0.000    0.000    0.000 
#
# Total GULP energy -145256.272294 kJ/mol
# GULP energy per Si atom -5586.779704 kJ/mol
# Density = 2.270903 g / cm^3
# Si number density = 22.760836 Si / 1000 Ang^3
#
#
#
# Elastic Constant Matrix: (Units=GPa)
#
#
# Indices 1 2 3 4 5 6 
#
# 1 88.3315 8.8765 3.2892 0.0000 -22.6762 0.0000
# 2 8.8765 48.6404 19.6934 0.0000 -17.3006 0.0000
# 3 3.2892 19.6934 51.4056 0.0000 -21.2462 0.0000
# 4 0.0000 0.0000 0.0000 10.5932 0.0000 -3.0714
# 5 -22.6762 -17.3006 -21.2462 0.0000 48.3255 0.0000
# 6 0.0000 0.0000 0.0000 -3.0714 0.0000 22.5777
#
#
#
# Elastic Compliance Matrix: (Units=1/GPa)
#
#
# Indices 1 2 3 4 5 6 
#
# 1 0.013081 -0.000899 0.002336 0.000000 0.006843 0.000000
# 2 -0.000899 0.025720 -0.007533 0.000000 0.005474 0.000000
# 3 0.002336 -0.007533 0.026309 0.000000 0.009965 0.000000
# 4 0.000000 0.000000 0.000000 0.098277 0.000000 0.013369
# 5 0.006843 0.005474 0.009965 0.000000 0.030245 0.000000
# 6 0.000000 0.000000 0.000000 0.013369 0.000000 0.046110
#
#
# Mechanical properties :
#
#
# Convention : Reuss Voigt Hill
#
# Bulk Modulus (GPa) = 18.89761 28.01064 23.45413
# Shear Modulus (GPa) = 18.54778 26.73385 22.64081
#
# Velocity S-wave (km/s) = 2.85774 3.43090 3.15735
# Velocity P-wave (km/s) = 4.38288 5.29414 4.85992
#
# Compressibility (1/GPa) = 0.05291674
#
# Stress axis : x y z
#
# Youngs Moduli (GPa) = 76.44611 38.87990 38.01051
#
# Poissons Ratio (x) = 0.03495 -0.08878
# Poissons Ratio (y) = 0.06871 0.28635
# Poissons Ratio (z) = -0.17855 0.29290
#
# Static dielectric constant tensor:
#      x y z
#    x 1.955830 0.000000 -0.008090 
#    y 0.000000 1.819950 0.000000 
#    z -0.008090 0.000000 1.890960 
# 
# From -- ./inp_files/122056.got.cif
#   From: 2010.05.17/outbox.cif.g08.bks.cpg/sg15_62_cif.got.tgz:122056.got - 2010.06.03 18:47:42.
