data_PCOD9260910
_publ_section_title
;
Structure prediction by ZEFSAII (Michael W. Deem and Ramdas Pophale) SiO2 
 PCOD9260910
Probable space group: C 2/C
;
_chemical_formula_sum "Si O2"
_cell_formula_units_Z 60
_cell_length_a 8.173867
_cell_length_b 27.876527
_cell_length_c 24.181761
_cell_angle_alpha 90.000000
_cell_angle_beta 28.958833
_cell_angle_gamma 90.000000
_cell_volume 2667.853475
_symmetry_space_group_name_H-M "C 2/C"
_symmetry_group_IT_number 15
_symmetry_cell_setting 'monoclinic'
loop_
_space_group_symop_operation_xyz
x,y,z
-x,y,1/2-z
-x,-y,-z
x,-y,1/2+z
1/2+x,1/2+y,z
1/2-x,1/2+y,1/2-z
1/2-x,1/2-y,-z
1/2+x,1/2-y,1/2+z
loop_
_atom_site_type_symbol
_atom_site_label
_atom_site_fract_x
_atom_site_fract_y
_atom_site_fract_z
Si Si1 0.847285 0.816433 0.181306
Si Si2 0.410119 0.573796 0.638975
Si Si3 0.183167 0.762225 0.930108
Si Si4 0.197369 0.950991 0.938217
Si Si5 0.366124 0.396080 0.935988
Si Si6 0.000000 0.328391 0.750000
Si Si7 0.460044 0.522168 0.195545
Si Si8 0.031575 0.685421 0.596242
O O1 0.500000 0.810157 0.250000
O O2 0.964950 0.871191 0.139749
O O3 0.753096 0.813510 0.273683
O O4 0.112947 0.773857 0.089897
O O5 0.636914 0.569709 0.516778
O O6 0.497870 0.529414 0.654060
O O7 0.000000 0.569105 0.750000
O O8 0.443515 0.795401 0.819960
O O9 0.031546 0.724799 0.931205
O O10 0.872351 0.799543 0.030134
O O11 0.574086 0.959726 0.805766
O O12 0.006303 0.922099 0.948355
O O13 0.000000 0.000000 0.000000
O O14 0.670779 0.359451 0.832407
O O15 0.325177 0.436304 0.900182
O O16 0.071598 0.363462 0.049272
O O17 0.500000 0.517769 0.250000
#
# Coordination Sequence:
#
# PCOD9260910 Si02
#       8
#     8   8   8   8   8   4   8   8
#     4  11  23  40  64  99 135 167 217 280 330 390
#     4  11  23  42  68  95 131 177 222 262 326 401
#     4  10  21  41  65  92 127 169 226 266 320 393
#     4  12  22  43  71  90 126 179 220 259 322 400
#     4  11  21  41  69  95 125 175 224 261 324 397
#     4  10  18  38  70  88 122 174 222 260 308 388
#     4  12  26  42  62 101 139 165 213 280 328 385
#     4  10  22  39  71  92 124 175 222 268 326 387
#
# _framework density 22.489989999999999
#
# number of rings (size 3 to 8) (size 9 to 14) (size 15 to 20)
#    0.000    1.067    5.333    1.600    0.000    3.200 
#    0.000    0.667    0.000    0.000    0.000    0.000 
#    0.000    0.000    0.000    0.000    0.000    0.000 
#
# Total GULP energy -167403.479459 kJ/mol
# GULP energy per Si atom -5580.115982 kJ/mol
# Density = 2.243880 g / cm^3
# Si number density = 22.489990 Si / 1000 Ang^3
#
#
#
# Elastic Constant Matrix: (Units=GPa)
#
#
# Indices 1 2 3 4 5 6 
#
# 1 94.3579 44.8331 13.2909 -0.0012 11.8707 -0.0002
# 2 44.8331 136.5148 30.3390 -0.0022 4.3180 -0.0001
# 3 13.2909 30.3390 78.5866 -0.0049 9.4839 0.0039
# 4 -0.0012 -0.0022 -0.0049 33.7063 0.0008 18.4858
# 5 11.8707 4.3180 9.4839 0.0008 26.5037 0.0003
# 6 -0.0002 -0.0001 0.0039 18.4858 0.0003 22.5428
#
#
#
# Elastic Compliance Matrix: (Units=1/GPa)
#
#
# Indices 1 2 3 4 5 6 
#
# 1 0.013247 -0.004186 0.000010 0.000000 -0.005255 0.000000
# 2 -0.004186 0.009337 -0.003072 -0.000001 0.001453 0.000001
# 3 0.000010 -0.003072 0.014474 0.000006 -0.004683 -0.000007
# 4 0.000000 -0.000001 0.000006 0.053916 -0.000003 -0.044213
# 5 -0.005255 0.001453 -0.004683 -0.000003 0.041523 0.000003
# 6 0.000000 0.000001 -0.000007 -0.044213 0.000003 0.080616
#
#
# Mechanical properties :
#
#
# Convention : Reuss Voigt Hill
#
# Bulk Modulus (GPa) = 44.32396 54.04281 49.18338
# Shear Modulus (GPa) = 21.26482 31.28365 26.27423
#
# Velocity S-wave (km/s) = 3.07827 3.73366 3.42170
# Velocity P-wave (km/s) = 5.69082 6.53214 6.12594
#
# Compressibility (1/GPa) = 0.02256116
#
# Stress axis : x y z
#
# Youngs Moduli (GPa) = 75.49050 107.10298 69.08812
#
# Poissons Ratio (x) = 0.44837 -0.00069
# Poissons Ratio (y) = 0.31603 0.21223
# Poissons Ratio (z) = -0.00075 0.32901
#
# Static dielectric constant tensor:
#      x y z
#    x 1.888520 0.000050 0.095510 
#    y 0.000050 1.701140 -0.000090 
#    z 0.095510 -0.000090 1.455120 
# 
# From -- ./inp_files/266685.got.cif
#   From: 2010.05.17/outbox.cif.g08.bks.cpg/sg15_134_cif.got.tgz:266685.got - 2010.06.03 18:47:42.
