data_PCOD9260859
_publ_section_title
;
Structure prediction by ZEFSAII (Michael W. Deem and Ramdas Pophale) SiO2 
 PCOD9260859
Probable space group: C 2/C
;
_chemical_formula_sum "Si O2"
_cell_formula_units_Z 56
_cell_length_a 15.634068
_cell_length_b 11.026837
_cell_length_c 14.267723
_cell_angle_alpha 90.000000
_cell_angle_beta 114.887026
_cell_angle_gamma 90.000000
_cell_volume 2231.267385
_symmetry_space_group_name_H-M "C 2/C"
_symmetry_group_IT_number 15
_symmetry_cell_setting 'monoclinic'
loop_
_space_group_symop_operation_xyz
x,y,z
-x,y,1/2-z
-x,-y,-z
x,-y,1/2+z
1/2+x,1/2+y,z
1/2-x,1/2+y,1/2-z
1/2-x,1/2-y,-z
1/2+x,1/2-y,1/2+z
loop_
_atom_site_type_symbol
_atom_site_label
_atom_site_fract_x
_atom_site_fract_y
_atom_site_fract_z
Si Si1 0.204285 0.065051 0.493490
Si Si2 0.990653 0.917961 0.904955
Si Si3 0.796362 0.414375 0.696734
Si Si4 0.500000 0.404743 0.250000
Si Si5 0.808927 0.816372 0.107538
Si Si6 0.844108 0.562579 0.426334
Si Si7 0.500000 0.978502 0.250000
Si Si8 0.032538 0.656167 0.565647
O O1 0.100325 0.115218 0.434566
O O2 0.293626 0.130684 0.490458
O O3 0.227251 0.999670 0.602665
O O4 0.213418 0.955964 0.420509
O O5 0.937804 0.794165 0.903092
O O6 0.954527 0.003608 0.805043
O O7 0.000000 0.000000 0.000000
O O8 0.783831 0.269700 0.681537
O O9 0.791525 0.438575 0.803397
O O10 0.901478 0.447341 0.705799
O O11 0.422775 0.324994 0.160687
O O12 0.750000 0.750000 0.000000
O O13 0.939015 0.645868 0.459594
O O14 0.892400 0.428433 0.452829
O O15 0.490803 0.900871 0.342227
#
# Coordination Sequence:
#
# PCOD9260859 Si02
#       8
#     8   8   8   4   8   8   4   8
#     4  10  22  43  60  95 135 171 225 277 342 409
#     4  11  26  43  67  93 135 183 228 277 345 427
#     4  10  20  36  62  96 126 173 217 276 338 399
#     4  10  22  42  64  98 136 189 231 282 352 414
#     4   9  20  37  63  94 134 176 226 281 336 400
#     4  10  22  40  66  98 129 169 225 291 339 409
#     4  10  18  38  66  90 128 171 217 268 340 398
#     4  10  22  41  65  97 131 170 231 278 342 412
#
# _framework density 25.097843999999998
#
# number of rings (size 3 to 8) (size 9 to 14) (size 15 to 20)
#    0.000    2.000    1.429    0.857    2.000    8.571 
#    0.000    1.429    0.000    0.000    0.000    0.000 
#    0.000    0.000    0.000    0.000    0.000    0.000 
#
# Total GULP energy -156244.996306 kJ/mol
# GULP energy per Si atom -5580.178439 kJ/mol
# Density = 2.504072 g / cm^3
# Si number density = 25.097844 Si / 1000 Ang^3
#
#
#
# Elastic Constant Matrix: (Units=GPa)
#
#
# Indices 1 2 3 4 5 6 
#
# 1 96.9482 15.5717 13.8809 0.0000 7.3464 0.0000
# 2 15.5717 84.2676 14.4768 0.0000 -7.8665 0.0000
# 3 13.8809 14.4768 117.8910 0.0000 -11.8948 0.0000
# 4 0.0000 0.0000 0.0000 -53.5955 0.0000 -68.3001
# 5 7.3464 -7.8665 -11.8948 0.0000 36.5795 0.0000
# 6 0.0000 0.0000 0.0000 -68.3001 0.0000 -25.1278
#
#
#
# Elastic Compliance Matrix: (Units=1/GPa)
#
#
# Indices 1 2 3 4 5 6 
#
# 1 0.011085 -0.002106 -0.001362 0.000000 -0.003122 0.000000
# 2 -0.002106 0.012696 -0.001027 0.000000 0.002819 0.000000
# 3 -0.001362 -0.001027 0.009072 0.000000 0.003003 0.000000
# 4 0.000000 0.000000 0.000000 0.007573 0.000000 -0.020584
# 5 -0.003122 0.002819 0.003003 0.000000 0.029547 0.000000
# 6 0.000000 0.000000 0.000000 -0.020584 0.000000 0.016152
#
#
# Mechanical properties :
#
#
# Convention : Reuss Voigt Hill
#
# Bulk Modulus (GPa) = 41.90403 42.99618 42.45011
# Shear Modulus (GPa) = 48.51222 8.58304 28.54763
#
# Velocity S-wave (km/s) = 4.40127 1.85128 3.37627
# Velocity P-wave (km/s) = 6.52386 4.66243 5.67006
#
# Compressibility (1/GPa) = 0.02386405
#
# Stress axis : x y z
#
# Youngs Moduli (GPa) = 90.21597 78.76722 110.23249
#
# Poissons Ratio (x) = 0.16587 0.15008
# Poissons Ratio (y) = 0.18998 0.11316
# Poissons Ratio (z) = 0.12283 0.08086
#
# Static dielectric constant tensor:
#      x y z
#    x 10.568170 0.000000 -0.532250 
#    y 0.000000 2.156540 0.000000 
#    z -0.532250 0.000000 2.013890 
# 
# From -- ./inp_files/161452.got.cif
#   From: 2010.05.17/outbox.cif.g08.bks.cpg/sg15_81_cif.got.tgz:161452.got - 2010.06.03 18:47:42.
