data_PCOD9260424
_publ_section_title
;
Structure prediction by ZEFSAII (Michael W. Deem and Ramdas Pophale) SiO2 
 PCOD9260424
Probable space group: C 2/C
;
_chemical_formula_sum "Si O2"
_cell_formula_units_Z 56
_cell_length_a 8.843112
_cell_length_b 22.575734
_cell_length_c 14.546676
_cell_angle_alpha 90.000000
_cell_angle_beta 107.560817
_cell_angle_gamma 90.000000
_cell_volume 2768.755812
_symmetry_space_group_name_H-M "C 2/C"
_symmetry_group_IT_number 15
_symmetry_cell_setting 'monoclinic'
loop_
_space_group_symop_operation_xyz
x,y,z
-x,y,1/2-z
-x,-y,-z
x,-y,1/2+z
1/2+x,1/2+y,z
1/2-x,1/2+y,1/2-z
1/2-x,1/2-y,-z
1/2+x,1/2-y,1/2+z
loop_
_atom_site_type_symbol
_atom_site_label
_atom_site_fract_x
_atom_site_fract_y
_atom_site_fract_z
Si Si1 0.862293 0.162821 0.893650
Si Si2 0.370532 0.245398 0.105728
Si Si3 0.314858 0.160859 0.819530
Si Si4 0.669414 0.999893 0.478954
Si Si5 0.368511 0.130168 0.519779
Si Si6 0.411129 0.560772 0.642477
Si Si7 0.542958 0.888941 0.861662
O O1 0.714467 0.158148 0.794771
O O2 0.789793 0.165050 0.982231
O O3 0.968584 0.220345 0.891644
O O4 0.974374 0.105690 0.892672
O O5 0.289371 0.282752 0.170965
O O6 0.388843 0.176992 0.131877
O O7 0.250000 0.250000 0.000000
O O8 0.481494 0.160589 0.902943
O O9 0.228800 0.103363 0.846515
O O10 0.824534 0.009839 0.569535
O O11 0.659637 0.058789 0.415914
O O12 0.500000 0.000000 0.500000
O O13 0.665860 0.933965 0.439056
O O14 0.412142 0.118359 0.420669
O O15 0.500000 0.538763 0.750000
O O16 0.500000 0.905824 0.750000
#
# Coordination Sequence:
#
# PCOD9260424 Si02
#       7
#     8   8   8   8   8   8   8
#     4  10  22  34  62  95 125 155 210 266 319 351
#     4  11  20  40  65  86 122 171 213 254 309 382
#     4  10  18  37  61  92 116 162 212 259 301 373
#     4  10  20  39  63  89 125 162 212 254 306 381
#     4  11  22  39  61  94 131 159 206 268 315 367
#     4   9  17  35  60  88 120 162 211 253 304 375
#     4  11  22  38  62  91 123 171 212 249 312 382
#
# _framework density 20.225691000000001
#
# number of rings (size 3 to 8) (size 9 to 14) (size 15 to 20)
#    0.000    1.714    4.286    3.429    0.000    2.286 
#    2.571    0.000    0.000    0.000    0.000    0.000 
#    0.000    0.000    0.000    0.000    0.000    0.000 
#
# Total GULP energy -155974.758574 kJ/mol
# GULP energy per Si atom -5570.527092 kJ/mol
# Density = 2.017966 g / cm^3
# Si number density = 20.225691 Si / 1000 Ang^3
#
#
#
# Elastic Constant Matrix: (Units=GPa)
#
#
# Indices 1 2 3 4 5 6 
#
# 1 59.1340 7.3233 36.0719 0.0000 -3.3076 0.0000
# 2 7.3233 97.8516 6.2571 0.0000 4.7940 0.0000
# 3 36.0719 6.2571 93.2571 0.0000 3.7609 0.0000
# 4 0.0000 0.0000 0.0000 20.3875 0.0000 9.0209
# 5 -3.3076 4.7940 3.7609 0.0000 31.0565 0.0000
# 6 0.0000 0.0000 0.0000 9.0209 0.0000 12.0223
#
#
#
# Elastic Compliance Matrix: (Units=1/GPa)
#
#
# Indices 1 2 3 4 5 6 
#
# 1 0.022664 -0.001312 -0.008827 0.000000 0.003685 0.000000
# 2 -0.001312 0.010410 -0.000121 0.000000 -0.001732 0.000000
# 3 -0.008827 -0.000121 0.014252 0.000000 -0.002647 0.000000
# 4 0.000000 0.000000 0.000000 0.073428 0.000000 -0.055097
# 5 0.003685 -0.001732 -0.002647 0.000000 0.033180 0.000000
# 6 0.000000 0.000000 0.000000 -0.055097 0.000000 0.124521
#
#
# Mechanical properties :
#
#
# Convention : Reuss Voigt Hill
#
# Bulk Modulus (GPa) = 37.30529 38.83858 38.07194
# Shear Modulus (GPa) = 16.23846 26.06595 21.15221
#
# Velocity S-wave (km/s) = 2.83656 3.59382 3.23741
# Velocity P-wave (km/s) = 5.40487 6.03862 5.73052
#
# Compressibility (1/GPa) = 0.02680585
#
# Stress axis : x y z
#
# Youngs Moduli (GPa) = 44.12311 96.05811 70.16460
#
# Poissons Ratio (x) = 0.12606 0.61934
# Poissons Ratio (y) = 0.05790 0.00849
# Poissons Ratio (z) = 0.38947 0.01163
#
# Static dielectric constant tensor:
#      x y z
#    x 1.757840 0.000000 -0.003730 
#    y 0.000000 1.701480 0.000000 
#    z -0.003730 0.000000 1.772120 
# 
# From -- ./inp_files/137470.got.cif
#   From: 2010.05.17/outbox.cif.g08.bks.cpg/sg15_69_cif.got.tgz:137470.got - 2010.06.03 18:47:42.
