data_PCOD9260405
_publ_section_title
;
Structure prediction by ZEFSAII (Michael W. Deem and Ramdas Pophale) SiO2 
 PCOD9260405
Probable space group: C 2/C
;
_chemical_formula_sum "Si O2"
_cell_formula_units_Z 60
_cell_length_a 27.493057
_cell_length_b 9.748175
_cell_length_c 24.034924
_cell_angle_alpha 90.000000
_cell_angle_beta 32.551189
_cell_angle_gamma 90.000000
_cell_volume 3465.884407
_symmetry_space_group_name_H-M "C 2/C"
_symmetry_group_IT_number 15
_symmetry_cell_setting 'monoclinic'
loop_
_space_group_symop_operation_xyz
x,y,z
-x,y,1/2-z
-x,-y,-z
x,-y,1/2+z
1/2+x,1/2+y,z
1/2-x,1/2+y,1/2-z
1/2-x,1/2-y,-z
1/2+x,1/2-y,1/2+z
loop_
_atom_site_type_symbol
_atom_site_label
_atom_site_fract_x
_atom_site_fract_y
_atom_site_fract_z
Si Si1 0.647047 0.018242 0.470102
Si Si2 0.323650 0.264225 0.975623
Si Si3 0.692797 0.751710 0.375888
Si Si4 0.946599 0.437383 0.185510
Si Si5 0.667010 0.753390 0.855494
Si Si6 0.000000 0.296528 0.250000
Si Si7 0.238079 0.971081 0.371038
Si Si8 0.974501 0.339731 0.039607
O O1 0.702494 0.880610 0.407523
O O2 0.670390 0.119259 0.497850
O O3 0.540493 0.981411 0.582583
O O4 0.666279 0.114776 0.397638
O O5 0.420203 0.288956 0.854659
O O6 0.250000 0.250000 0.000000
O O7 0.295364 0.381089 0.045305
O O8 0.777208 0.725414 0.253989
O O9 0.683669 0.611354 0.417830
O O10 0.609398 0.792491 0.416406
O O11 0.958139 0.380682 0.237435
O O12 0.845986 0.497033 0.274324
O O13 0.952661 0.331799 0.126930
O O14 0.712768 0.624985 0.842645
O O15 0.560741 0.743724 0.945256
O O16 0.000000 0.500000 0.000000
#
# Coordination Sequence:
#
# PCOD9260405 Si02
#       8
#     8   8   8   8   8   4   8   8
#     4   9  21  36  58  82 112 155 202 228 281 363
#     4  10  20  40  62  84 109 149 201 246 289 345
#     4  12  21  34  57  87 122 153 187 244 293 348
#     4  10  18  37  61  85 107 158 209 236 275 353
#     4  10  20  35  55  83 114 159 195 222 281 353
#     4  10  20  36  68  84 106 156 210 244 276 350
#     4  11  22  34  58  92 118 141 195 253 294 336
#     4  11  20  37  59  80 119 163 194 228 284 368
#
# _framework density 17.311599000000001
#
# number of rings (size 3 to 8) (size 9 to 14) (size 15 to 20)
#    0.000    1.600    5.333    2.400    0.000    0.533 
#    0.000    2.000    0.000    0.800    0.000    0.000 
#    0.000    0.000    0.000    0.000    0.000    0.000 
#
# Total GULP energy -167014.234412 kJ/mol
# GULP energy per Si atom -5567.141147 kJ/mol
# Density = 1.727220 g / cm^3
# Si number density = 17.311599 Si / 1000 Ang^3
#
#
#
# Elastic Constant Matrix: (Units=GPa)
#
#
# Indices 1 2 3 4 5 6 
#
# 1 92.8534 32.9773 39.9672 -0.0004 0.2127 0.0001
# 2 32.9773 81.7259 20.3139 -0.0021 -1.6403 0.0009
# 3 39.9672 20.3139 84.0319 -0.0006 -3.3127 0.0003
# 4 -0.0004 -0.0021 -0.0006 6.3106 0.0004 -9.3474
# 5 0.2127 -1.6403 -3.3127 0.0004 28.3889 -0.0002
# 6 0.0001 0.0009 0.0003 -9.3474 -0.0002 11.3719
#
#
#
# Elastic Compliance Matrix: (Units=1/GPa)
#
#
# Indices 1 2 3 4 5 6 
#
# 1 0.015011 -0.004568 -0.006078 0.000002 -0.001086 0.000002
# 2 -0.004568 0.014413 -0.001283 -0.000013 0.000717 -0.000012
# 3 -0.006078 -0.001283 0.015170 -0.000001 0.001742 -0.000001
# 4 0.000002 -0.000013 -0.000001 -0.728501 0.000007 -0.598805
# 5 -0.001086 0.000717 0.001742 0.000007 0.035478 0.000006
# 6 0.000002 -0.000012 -0.000001 -0.598805 0.000006 -0.404263
#
#
# Mechanical properties :
#
#
# Convention : Reuss Voigt Hill
#
# Bulk Modulus (GPa) = 48.22782 49.45868 48.84325
# Shear Modulus (GPa) = -4.89273 20.23780 7.67253
#
# Velocity S-wave (km/s) = -1.68298 3.42282 2.10752
# Velocity P-wave (km/s) = 4.91351 6.65226 5.84787
#
# Compressibility (1/GPa) = 0.02073492
#
# Stress axis : x y z
#
# Youngs Moduli (GPa) = 66.61952 69.38369 65.92022
#
# Poissons Ratio (x) = 0.31695 0.40065
# Poissons Ratio (y) = 0.30432 0.08459
# Poissons Ratio (z) = 0.40490 0.08903
#
# Static dielectric constant tensor:
#      x y z
#    x 1.623860 0.000000 0.014820 
#    y 0.000000 1.583640 0.000000 
#    z 0.014820 0.000000 1.842940 
# 
# From -- ./inp_files/304187.got.cif
#   From: 2010.05.17/outbox.cif.g08.bks.cpg/sg15_153_cif.got.tgz:304187.got - 2010.06.03 18:47:42.
