data_PCOD9260095
_publ_section_title
;
Structure prediction by ZEFSAII (Michael W. Deem and Ramdas Pophale) SiO2 
 PCOD9260095
Probable space group: C 2/C
;
_chemical_formula_sum "Si O2"
_cell_formula_units_Z 52
_cell_length_a 17.065058
_cell_length_b 14.853442
_cell_length_c 20.254810
_cell_angle_alpha 90.000000
_cell_angle_beta 31.765037
_cell_angle_gamma 90.000000
_cell_volume 2702.772650
_symmetry_space_group_name_H-M "C 2/C"
_symmetry_group_IT_number 15
_symmetry_cell_setting 'monoclinic'
loop_
_space_group_symop_operation_xyz
x,y,z
-x,y,1/2-z
-x,-y,-z
x,-y,1/2+z
1/2+x,1/2+y,z
1/2-x,1/2+y,1/2-z
1/2-x,1/2-y,-z
1/2+x,1/2-y,1/2+z
loop_
_atom_site_type_symbol
_atom_site_label
_atom_site_fract_x
_atom_site_fract_y
_atom_site_fract_z
Si Si1 0.220822 0.018125 0.797095
Si Si2 0.868620 0.507008 0.393511
Si Si3 0.500000 0.830778 0.250000
Si Si4 0.997481 0.565538 0.439010
Si Si5 0.023005 0.758045 0.993195
Si Si6 0.915771 0.058730 0.975318
Si Si7 0.672588 0.785063 0.252105
O O1 0.317352 0.108846 0.734710
O O2 0.329326 0.935427 0.706337
O O3 0.146109 0.004599 0.921714
O O4 0.086845 0.029725 0.841197
O O5 0.708116 0.547300 0.491437
O O6 0.000000 0.544675 0.250000
O O7 0.880672 0.400586 0.368046
O O8 0.911040 0.526793 0.438072
O O9 0.577571 0.777505 0.253405
O O10 0.000000 0.500000 0.500000
O O11 0.938294 0.662793 0.501404
O O12 0.072986 0.841146 0.002829
O O13 0.096373 0.763543 0.868563
O O14 0.843684 0.759443 0.117028
#
# Coordination Sequence:
#
# PCOD9260095 Si02
#       7
#     8   8   4   8   8   8   8
#     4  10  18  37  62  86 114 164 203 240 303 372
#     4  10  19  36  63  93 112 164 208 245 299 378
#     4  10  18  36  62  86 124 158 210 250 306 372
#     4  12  21  39  64  86 123 162 204 251 308 370
#     4  11  25  37  62  93 127 156 209 256 319 357
#     4  10  20  36  62  91 117 157 208 250 296 372
#     4  11  21  39  60  93 121 164 204 258 303 378
#
# _framework density 19.239502999999999
#
# number of rings (size 3 to 8) (size 9 to 14) (size 15 to 20)
#    0.462    0.923    6.154    0.923    0.000    1.231 
#    0.000    0.769    0.000    0.000    0.000    0.000 
#    0.000    0.000    0.000    0.000    0.000    0.000 
#
# Total GULP energy -144976.248154 kJ/mol
# GULP energy per Si atom -5576.009544 kJ/mol
# Density = 1.919571 g / cm^3
# Si number density = 19.239503 Si / 1000 Ang^3
#
#
#
# Elastic Constant Matrix: (Units=GPa)
#
#
# Indices 1 2 3 4 5 6 
#
# 1 157.2542 12.9674 36.3428 -0.0004 -4.7893 0.0002
# 2 12.9674 27.7113 -13.8814 -0.0011 1.9448 0.0006
# 3 36.3428 -13.8814 52.5867 -0.0016 -3.2895 0.0011
# 4 -0.0004 -0.0011 -0.0016 25.8896 0.0008 -3.9233
# 5 -4.7893 1.9448 -3.2895 0.0008 27.2517 -0.0005
# 6 0.0002 0.0006 0.0011 -3.9233 -0.0005 13.7274
#
#
#
# Elastic Compliance Matrix: (Units=1/GPa)
#
#
# Indices 1 2 3 4 5 6 
#
# 1 0.009049 -0.008543 -0.008435 -0.000001 0.001182 0.000001
# 2 -0.008543 0.049724 0.018856 0.000003 -0.002774 -0.000003
# 3 -0.008435 0.018856 0.029872 0.000002 0.000778 -0.000003
# 4 -0.000001 0.000003 0.000002 0.040374 -0.000001 0.011539
# 5 0.001182 -0.002774 0.000778 -0.000001 0.037194 0.000001
# 6 0.000001 -0.000003 -0.000003 0.011539 0.000001 0.076145
#
#
# Mechanical properties :
#
#
# Convention : Reuss Voigt Hill
#
# Bulk Modulus (GPa) = 10.82230 34.26777 22.54503
# Shear Modulus (GPa) = 18.55966 26.84864 22.70415
#
# Velocity S-wave (km/s) = 3.10927 3.73969 3.43896
# Velocity P-wave (km/s) = 4.30434 6.04126 5.24520
#
# Compressibility (1/GPa) = 0.09240183
#
# Stress axis : x y z
#
# Youngs Moduli (GPa) = 110.51042 20.11101 33.47657
#
# Poissons Ratio (x) = 0.17180 0.28237
# Poissons Ratio (y) = 0.94405 -0.63124
# Poissons Ratio (z) = 0.93213 -0.37921
#
# Static dielectric constant tensor:
#      x y z
#    x 1.692060 0.000000 -0.008430 
#    y 0.000000 1.712260 0.000000 
#    z -0.008430 0.000000 1.752490 
# 
# From -- ./inp_files/206087.got.cif
#   From: 2010.05.17/outbox.cif.g08.bks.cpg/sg15_104_cif.got.tgz:206087.got - 2010.06.03 18:47:42.
