data_PCOD9260528
_publ_section_title
;
Structure prediction by ZEFSAII (Michael W. Deem and Ramdas Pophale) SiO2 
 PCOD9260528
Probable space group: C 2/C
;
_chemical_formula_sum "Si O2"
_cell_formula_units_Z 44
_cell_length_a 16.436016
_cell_length_b 18.075277
_cell_length_c 15.245791
_cell_angle_alpha 90.000000
_cell_angle_beta 151.277808
_cell_angle_gamma 90.000000
_cell_volume 2176.616867
_symmetry_space_group_name_H-M "C 2/C"
_symmetry_group_IT_number 15
_symmetry_cell_setting 'monoclinic'
loop_
_space_group_symop_operation_xyz
x,y,z
-x,y,1/2-z
-x,-y,-z
x,-y,1/2+z
1/2+x,1/2+y,z
1/2-x,1/2+y,1/2-z
1/2-x,1/2-y,-z
1/2+x,1/2-y,1/2+z
loop_
_atom_site_type_symbol
_atom_site_label
_atom_site_fract_x
_atom_site_fract_y
_atom_site_fract_z
Si Si1 0.685249 0.937876 0.936411
Si Si2 0.500000 0.457305 0.750000
Si Si3 0.382890 0.205242 0.565277
Si Si4 0.270114 0.701876 0.608150
Si Si5 0.074038 0.153263 0.174038
Si Si6 0.877439 0.841807 0.975857
O O1 0.500000 0.971339 0.750000
O O2 0.666129 0.871945 0.990091
O O3 0.757025 0.896494 0.916830
O O4 0.833995 0.992807 0.104327
O O5 0.521082 0.404506 0.853598
O O6 0.500000 0.166994 0.750000
O O7 0.250000 0.250000 0.500000
O O8 0.267450 0.157003 0.392184
O O9 0.490063 0.266234 0.612439
O O10 0.250000 0.750000 0.500000
O O11 0.209108 0.761431 0.621059
O O12 0.456980 0.675265 0.809188
O O13 0.069342 0.130367 0.068837
#
# Coordination Sequence:
#
# PCOD9260528 Si02
#       6
#     8   4   8   8   8   8
#     4  11  23  43  64  89 129 175 219 256 325 403
#     4  12  24  44  62  90 132 188 210 250 336 402
#     4   9  17  36  58  86 119 160 219 258 309 381
#     4  10  18  37  65  94 126 161 209 267 327 378
#     4  11  22  38  66  94 130 166 213 274 328 379
#     4  11  21  37  65 101 126 160 218 282 319 375
#
# _framework density 20.214858
#
# number of rings (size 3 to 8) (size 9 to 14) (size 15 to 20)
#    0.000    1.455    4.545    4.909    0.000    1.455 
#    0.000    0.909    0.000    0.000    0.000    0.000 
#    0.000    0.000    0.000    0.000    0.000    0.000 
#
# Total GULP energy -122709.254963 kJ/mol
# GULP energy per Si atom -5577.693407 kJ/mol
# Density = 2.016885 g / cm^3
# Si number density = 20.214858 Si / 1000 Ang^3
#
#
#
# Elastic Constant Matrix: (Units=GPa)
#
#
# Indices 1 2 3 4 5 6 
#
# 1 74.8466 1.7906 10.3678 0.0000 -16.2497 0.0000
# 2 1.7906 52.9260 -0.4834 0.0000 -2.0813 0.0000
# 3 10.3678 -0.4834 105.8626 0.0000 10.1617 0.0000
# 4 0.0000 0.0000 0.0000 17.2942 0.0000 8.9946
# 5 -16.2497 -2.0813 10.1617 0.0000 33.5078 0.0000
# 6 0.0000 0.0000 0.0000 8.9946 0.0000 14.9052
#
#
#
# Elastic Compliance Matrix: (Units=1/GPa)
#
#
# Indices 1 2 3 4 5 6 
#
# 1 0.015461 -0.000222 -0.002301 0.000000 0.008182 0.000000
# 2 -0.000222 0.018944 0.000006 0.000000 0.001067 0.000000
# 3 -0.002301 0.000006 0.010072 0.000000 -0.004170 0.000000
# 4 0.000000 0.000000 0.000000 0.084272 0.000000 -0.050855
# 5 0.008182 0.001067 -0.004170 0.000000 0.035142 0.000000
# 6 0.000000 0.000000 0.000000 -0.050855 0.000000 0.097779
#
#
# Mechanical properties :
#
#
# Convention : Reuss Voigt Hill
#
# Bulk Modulus (GPa) = 25.35337 28.55390 26.95363
# Shear Modulus (GPa) = 17.86656 27.93877 22.90267
#
# Velocity S-wave (km/s) = 2.97616 3.72168 3.36960
# Velocity P-wave (km/s) = 4.93753 5.71172 5.33868
#
# Compressibility (1/GPa) = 0.03944249
#
# Stress axis : x y z
#
# Youngs Moduli (GPa) = 64.67902 52.78761 99.28721
#
# Poissons Ratio (x) = 0.01174 0.22842
# Poissons Ratio (y) = 0.01438 -0.00058
# Poissons Ratio (z) = 0.14880 -0.00031
#
# Static dielectric constant tensor:
#      x y z
#    x 1.735650 0.000000 0.004450 
#    y 0.000000 1.758230 0.000000 
#    z 0.004450 0.000000 1.756490 
# 
# From -- ./inp_files/163139.got.cif
#   From: 2010.05.17/outbox.cif.g08.bks.cpg/sg15_82_cif.got.tgz:163139.got - 2010.06.03 18:47:42.
