data_PCOD9260058
_publ_section_title
;
Structure prediction by ZEFSAII (Michael W. Deem and Ramdas Pophale) SiO2 
 PCOD9260058
Probable space group: C 2/C
;
_chemical_formula_sum "Si O2"
_cell_formula_units_Z 60
_cell_length_a 12.437588
_cell_length_b 11.272855
_cell_length_c 20.848033
_cell_angle_alpha 90.000000
_cell_angle_beta 94.865706
_cell_angle_gamma 90.000000
_cell_volume 2912.508857
_symmetry_space_group_name_H-M "C 2/C"
_symmetry_group_IT_number 15
_symmetry_cell_setting 'monoclinic'
loop_
_space_group_symop_operation_xyz
x,y,z
-x,y,1/2-z
-x,-y,-z
x,-y,1/2+z
1/2+x,1/2+y,z
1/2-x,1/2+y,1/2-z
1/2-x,1/2-y,-z
1/2+x,1/2-y,1/2+z
loop_
_atom_site_type_symbol
_atom_site_label
_atom_site_fract_x
_atom_site_fract_y
_atom_site_fract_z
Si Si1 0.500000 0.996972 0.250000
Si Si2 0.779404 0.253585 0.576580
Si Si3 0.339665 0.397768 0.514985
Si Si4 0.431685 0.433591 0.810080
Si Si5 0.703442 0.032031 0.330854
Si Si6 0.644329 0.841411 0.421433
Si Si7 0.978738 0.891755 0.077424
Si Si8 0.579318 0.166058 0.638978
O O1 0.592934 0.068156 0.291180
O O2 0.438035 0.916514 0.299919
O O3 0.750000 0.250000 0.500000
O O4 0.768486 0.383220 0.607704
O O5 0.902614 0.215240 0.593652
O O6 0.695294 0.169574 0.610809
O O7 0.340525 0.299378 0.570605
O O8 0.219915 0.397929 0.480002
O O9 0.424412 0.354110 0.464675
O O10 0.392310 0.521309 0.537823
O O11 0.500000 0.442646 0.750000
O O12 0.305904 0.458159 0.790633
O O13 0.470544 0.529687 0.863899
O O14 0.441665 0.301373 0.839375
O O15 0.685201 0.900154 0.357541
O O16 0.516655 0.866244 0.415453
#
# Coordination Sequence:
#
# PCOD9260058 Si02
#       8
#     4   8   8   8   8   8   8   8
#     4  10  22  44  66  84 128 168 220 258 310 380
#     4  11  24  41  64  95 134 167 203 262 334 385
#     4  10  20  35  64  93 125 155 202 260 304 374
#     4  11  22  40  64  89 117 163 216 254 299 371
#     4  10  23  43  64  90 127 171 204 268 318 376
#     4  10  18  36  61  91 120 161 201 249 314 370
#     4  11  22  39  61  93 125 161 205 256 310 364
#     4  10  21  40  64  90 120 168 210 255 314 377
#
# _framework density 20.600795999999999
#
# number of rings (size 3 to 8) (size 9 to 14) (size 15 to 20)
#    0.000    1.600    3.333    1.600    5.600    0.000 
#    1.200   16.000    0.000    0.000    0.000    0.000 
#    0.000    0.000    0.000    0.000    0.000    0.000 
#
# Total GULP energy -167407.036888 kJ/mol
# GULP energy per Si atom -5580.234563 kJ/mol
# Density = 2.055391 g / cm^3
# Si number density = 20.600796 Si / 1000 Ang^3
#
#
#
# Elastic Constant Matrix: (Units=GPa)
#
#
# Indices 1 2 3 4 5 6 
#
# 1 111.2156 20.8769 43.1210 0.0000 -5.3340 0.0000
# 2 20.8769 34.6401 8.2431 0.0000 -10.0575 0.0000
# 3 43.1210 8.2431 68.7621 0.0000 -6.7735 0.0000
# 4 0.0000 0.0000 0.0000 17.9582 0.0000 3.0531
# 5 -5.3340 -10.0575 -6.7735 0.0000 42.6888 0.0000
# 6 0.0000 0.0000 0.0000 3.0531 0.0000 30.8343
#
#
#
# Elastic Compliance Matrix: (Units=1/GPa)
#
#
# Indices 1 2 3 4 5 6 
#
# 1 0.013059 -0.006389 -0.007528 0.000000 -0.001068 0.000000
# 2 -0.006389 0.034753 0.000577 0.000000 0.007481 0.000000
# 3 -0.007528 0.000577 0.019419 0.000000 0.002277 0.000000
# 4 0.000000 0.000000 0.000000 0.056638 0.000000 -0.005608
# 5 -0.001068 0.007481 0.002277 0.000000 0.025416 0.000000
# 6 0.000000 0.000000 0.000000 -0.005608 0.000000 0.032987
#
#
# Mechanical properties :
#
#
# Convention : Reuss Voigt Hill
#
# Bulk Modulus (GPa) = 24.66030 39.89999 32.28015
# Shear Modulus (GPa) = 22.47508 27.78804 25.13156
#
# Velocity S-wave (km/s) = 3.30658 3.67670 3.49654
# Velocity P-wave (km/s) = 5.15505 6.11836 5.65725
#
# Compressibility (1/GPa) = 0.04055100
#
# Stress axis : x y z
#
# Youngs Moduli (GPa) = 76.57836 28.77420 51.49583
#
# Poissons Ratio (x) = 0.18383 0.38768
# Poissons Ratio (y) = 0.48924 -0.02972
# Poissons Ratio (z) = 0.57651 -0.01661
#
# Static dielectric constant tensor:
#      x y z
#    x 1.746830 0.000000 0.024590 
#    y 0.000000 1.739330 0.000000 
#    z 0.024590 0.000000 1.735420 
# 
# From -- ./inp_files/237600.got.cif
#   From: 2010.05.17/outbox.cif.g08.bks.cpg/sg15_119_cif.got.tgz:237600.got - 2010.06.03 18:47:42.
