data_PCOD9260346
_publ_section_title
;
Structure prediction by ZEFSAII (Michael W. Deem and Ramdas Pophale) SiO2 
 PCOD9260346
Probable space group: C 2/C
;
_chemical_formula_sum "Si O2"
_cell_formula_units_Z 48
_cell_length_a 10.158683
_cell_length_b 14.868866
_cell_length_c 17.086109
_cell_angle_alpha 90.000000
_cell_angle_beta 92.095381
_cell_angle_gamma 90.000000
_cell_volume 2579.098555
_symmetry_space_group_name_H-M "C 2/C"
_symmetry_group_IT_number 15
_symmetry_cell_setting 'monoclinic'
loop_
_space_group_symop_operation_xyz
x,y,z
-x,y,1/2-z
-x,-y,-z
x,-y,1/2+z
1/2+x,1/2+y,z
1/2-x,1/2+y,1/2-z
1/2-x,1/2-y,-z
1/2+x,1/2-y,1/2+z
loop_
_atom_site_type_symbol
_atom_site_label
_atom_site_fract_x
_atom_site_fract_y
_atom_site_fract_z
Si Si1 0.700063 0.246479 0.333768
Si Si2 0.475363 0.329418 0.432577
Si Si3 0.409473 0.485537 0.319679
Si Si4 0.981123 0.183237 0.382565
Si Si5 0.647000 0.061476 0.262984
Si Si6 0.229526 0.719666 0.162678
O O1 0.606858 0.301003 0.388624
O O2 0.851485 0.242289 0.363109
O O3 0.647530 0.142814 0.327134
O O4 0.694776 0.273399 0.242057
O O5 0.428985 0.423593 0.395254
O O6 0.500803 0.331216 0.524811
O O7 0.362144 0.257749 0.407031
O O8 0.500000 0.453807 0.250000
O O9 0.453573 0.587437 0.340866
O O10 0.258227 0.491990 0.289485
O O11 0.116438 0.223372 0.352025
O O12 0.500000 0.026468 0.250000
O O13 0.306175 0.117082 0.313135
#
# Coordination Sequence:
#
# PCOD9260346 Si02
#       6
#     8   8   8   8   8   8
#     4   9  18  35  58  81 106 150 193 223 268 348
#     4  12  22  34  56  91 117 138 189 253 284 313
#     4  11  21  37  58  80 112 155 190 231 282 349
#     4  11  21  36  57  85 118 150 183 235 294 337
#     4   9  17  35  61  77 100 149 202 222 269 346
#     4  10  18  37  58  81 105 155 193 226 271 349
#
# _framework density 18.611153000000002
#
# number of rings (size 3 to 8) (size 9 to 14) (size 15 to 20)
#    1.000    0.667    3.333    3.500    0.000    0.000 
#    0.000    3.333    0.000    1.000    0.000    0.000 
#    0.000    0.000    0.000    0.000    0.000    0.000 
#
# Total GULP energy -133846.290615 kJ/mol
# GULP energy per Si atom -5576.928776 kJ/mol
# Density = 1.856879 g / cm^3
# Si number density = 18.611153 Si / 1000 Ang^3
#
#
#
# Elastic Constant Matrix: (Units=GPa)
#
#
# Indices 1 2 3 4 5 6 
#
# 1 144.1607 10.9687 26.0002 0.0000 0.3497 0.0000
# 2 10.9687 27.7072 -0.4684 0.0000 -3.3062 0.0000
# 3 26.0002 -0.4684 80.0958 0.0000 7.7308 0.0000
# 4 0.0000 0.0000 0.0000 18.9559 0.0000 -1.7299
# 5 0.3497 -3.3062 7.7308 0.0000 27.8125 0.0000
# 6 0.0000 0.0000 0.0000 -1.7299 0.0000 7.4769
#
#
#
# Elastic Compliance Matrix: (Units=1/GPa)
#
#
# Indices 1 2 3 4 5 6 
#
# 1 0.007620 -0.003030 -0.002515 0.000000 0.000243 0.000000
# 2 -0.003030 0.037820 0.000788 0.000000 0.004315 0.000000
# 3 -0.002515 0.000788 0.013660 0.000000 -0.003672 0.000000
# 4 0.000000 0.000000 0.000000 0.053892 0.000000 0.012468
# 5 0.000243 0.004315 -0.003672 0.000000 0.037485 0.000000
# 6 0.000000 0.000000 0.000000 0.012468 0.000000 0.136630
#
#
# Mechanical properties :
#
#
# Convention : Reuss Voigt Hill
#
# Bulk Modulus (GPa) = 20.16662 36.10716 28.13689
# Shear Modulus (GPa) = 15.96682 25.21328 20.59005
#
# Velocity S-wave (km/s) = 2.93220 3.68467 3.32976
# Velocity P-wave (km/s) = 4.72472 6.12743 5.47121
#
# Compressibility (1/GPa) = 0.04958690
#
# Stress axis : x y z
#
# Youngs Moduli (GPa) = 131.22960 26.44134 73.20435
#
# Poissons Ratio (x) = 0.08012 0.18409
# Poissons Ratio (y) = 0.39765 -0.05771
# Poissons Ratio (z) = 0.33002 -0.02085
#
# Static dielectric constant tensor:
#      x y z
#    x 1.636670 0.000000 0.002500 
#    y 0.000000 1.660740 0.000000 
#    z 0.002500 0.000000 1.620760 
# 
# From -- ./inp_files/134804.got.cif
#   From: 2010.05.17/outbox.cif.g08.bks.cpg/sg15_68_cif.got.tgz:134804.got - 2010.06.03 18:47:42.
