data_PCOD9260324
_publ_section_title
;
Structure prediction by ZEFSAII (Michael W. Deem and Ramdas Pophale) SiO2 
 PCOD9260324
Probable space group: C 2/C
;
_chemical_formula_sum "Si O2"
_cell_formula_units_Z 64
_cell_length_a 15.981251
_cell_length_b 7.826703
_cell_length_c 24.946001
_cell_angle_alpha 90.000000
_cell_angle_beta 78.362685
_cell_angle_gamma 90.000000
_cell_volume 3056.118643
_symmetry_space_group_name_H-M "C 2/C"
_symmetry_group_IT_number 15
_symmetry_cell_setting 'monoclinic'
loop_
_space_group_symop_operation_xyz
x,y,z
-x,y,1/2-z
-x,-y,-z
x,-y,1/2+z
1/2+x,1/2+y,z
1/2-x,1/2+y,1/2-z
1/2-x,1/2-y,-z
1/2+x,1/2-y,1/2+z
loop_
_atom_site_type_symbol
_atom_site_label
_atom_site_fract_x
_atom_site_fract_y
_atom_site_fract_z
Si Si1 0.798113 0.917909 0.417289
Si Si2 0.469578 0.223270 0.421818
Si Si3 0.853556 0.239267 0.603037
Si Si4 0.128576 0.347790 0.256416
Si Si5 0.538591 0.921005 0.162690
Si Si6 0.182614 0.299932 0.069007
Si Si7 0.740645 0.564197 0.194386
Si Si8 0.371227 0.047655 0.519672
O O1 0.881081 0.810845 0.417496
O O2 0.709986 0.839871 0.451393
O O3 0.808247 0.100891 0.445786
O O4 0.787066 0.963966 0.355948
O O5 0.553301 0.343129 0.407360
O O6 0.480479 0.078583 0.374335
O O7 0.449439 0.153812 0.484879
O O8 0.775195 0.152483 0.581751
O O9 0.810000 0.296460 0.663898
O O10 0.879004 0.416329 0.568321
O O11 0.089411 0.455373 0.211620
O O12 0.208724 0.442336 0.272313
O O13 0.162487 0.166403 0.230612
O O14 0.050613 0.335846 0.308541
O O15 0.606642 0.807507 0.121813
O O16 0.154734 0.425300 0.026177
#
# Coordination Sequence:
#
# PCOD9260324 Si02
#       8
#     8   8   8   8   8   8   8   8
#     4  10  20  37  57  85 121 147 191 240 284 337
#     4  11  21  34  59  90 116 146 194 242 282 341
#     4  10  18  37  55  87 112 149 188 241 281 341
#     4  11  21  41  59  82 110 151 194 239 289 350
#     4  10  21  37  60  79 112 153 191 226 291 352
#     4   9  18  39  59  79 112 160 187 227 293 348
#     4  10  22  39  61  80 116 148 192 237 295 339
#     4   9  19  36  63  79 114 163 190 223 302 350
#
# _framework density 20.941595
#
# number of rings (size 3 to 8) (size 9 to 14) (size 15 to 20)
#    0.000    2.250    3.750    2.250    1.750    0.000 
#    2.250    2.500    0.000    0.000    0.000    0.000 
#    0.000    0.000    0.000    0.000    0.000    0.000 
#
# Total GULP energy -178294.924798 kJ/mol
# GULP energy per Si atom -5571.716400 kJ/mol
# Density = 2.089393 g / cm^3
# Si number density = 20.941595 Si / 1000 Ang^3
#
#
#
# Elastic Constant Matrix: (Units=GPa)
#
#
# Indices 1 2 3 4 5 6 
#
# 1 106.4142 15.5932 37.1494 0.0000 -32.7619 0.0000
# 2 15.5932 9.9041 15.0614 0.0000 -3.4809 0.0000
# 3 37.1494 15.0614 86.2608 0.0000 -28.5045 0.0000
# 4 0.0000 0.0000 0.0000 19.4806 0.0000 -0.9499
# 5 -32.7619 -3.4809 -28.5045 0.0000 47.0061 0.0000
# 6 0.0000 0.0000 0.0000 -0.9499 0.0000 31.5280
#
#
#
# Elastic Compliance Matrix: (Units=1/GPa)
#
#
# Indices 1 2 3 4 5 6 
#
# 1 0.015243 -0.020963 0.000117 0.000000 0.009142 0.000000
# 2 -0.020963 0.167433 -0.026184 0.000000 -0.018090 0.000000
# 3 0.000117 -0.026184 0.019385 0.000000 0.009897 0.000000
# 4 0.000000 0.000000 0.000000 0.051409 0.000000 0.001549
# 5 0.009142 -0.018090 0.009897 0.000000 0.032308 0.000000
# 6 0.000000 0.000000 0.000000 0.001549 0.000000 0.031764
#
#
# Mechanical properties :
#
#
# Convention : Reuss Voigt Hill
#
# Bulk Modulus (GPa) = 9.25925 37.57635 23.41780
# Shear Modulus (GPa) = 11.17065 28.58794 19.87929
#
# Velocity S-wave (km/s) = 2.31209 3.69877 3.08437
# Velocity P-wave (km/s) = 3.39982 6.01860 4.88786
#
# Compressibility (1/GPa) = 0.10800013
#
# Stress axis : x y z
#
# Youngs Moduli (GPa) = 65.60416 5.97255 51.58685
#
# Poissons Ratio (x) = 0.12520 -0.00601
# Poissons Ratio (y) = 1.37525 1.35074
# Poissons Ratio (z) = -0.00765 0.15638
#
# Static dielectric constant tensor:
#      x y z
#    x 1.842900 0.000000 -0.002610 
#    y 0.000000 1.776530 0.000000 
#    z -0.002610 0.000000 1.790410 
# 
# From -- ./inp_files/295139.got.cif
#   From: 2010.05.17/outbox.cif.g08.bks.cpg/sg15_148_cif.got.tgz:295139.got - 2010.06.03 18:47:42.
