data_PCOD9260713
_publ_section_title
;
Structure prediction by ZEFSAII (Michael W. Deem and Ramdas Pophale) SiO2 
 PCOD9260713
Probable space group: C 2/C
;
_chemical_formula_sum "Si O2"
_cell_formula_units_Z 56
_cell_length_a 20.871780
_cell_length_b 9.163575
_cell_length_c 17.892000
_cell_angle_alpha 90.000000
_cell_angle_beta 64.824016
_cell_angle_gamma 90.000000
_cell_volume 3096.952236
_symmetry_space_group_name_H-M "C 2/C"
_symmetry_group_IT_number 15
_symmetry_cell_setting 'monoclinic'
loop_
_space_group_symop_operation_xyz
x,y,z
-x,y,1/2-z
-x,-y,-z
x,-y,1/2+z
1/2+x,1/2+y,z
1/2-x,1/2+y,1/2-z
1/2-x,1/2-y,-z
1/2+x,1/2-y,1/2+z
loop_
_atom_site_type_symbol
_atom_site_label
_atom_site_fract_x
_atom_site_fract_y
_atom_site_fract_z
Si Si1 0.319997 0.985285 0.285822
Si Si2 0.060874 0.421591 0.058926
Si Si3 0.180755 0.245814 0.086587
Si Si4 0.289772 0.315574 0.596434
Si Si5 0.315969 0.587773 0.918945
Si Si6 0.570643 0.823117 0.672706
Si Si7 0.098266 0.388114 0.401129
O O1 0.310320 0.846275 0.344860
O O2 0.350904 0.937599 0.191419
O O3 0.248988 0.082934 0.323804
O O4 0.378544 0.087843 0.296408
O O5 0.114956 0.311925 0.072259
O O6 0.053762 0.563918 0.115057
O O7 0.982019 0.360607 0.086020
O O8 0.091955 0.483560 0.965891
O O9 0.170585 0.076763 0.111413
O O10 0.250000 0.250000 0.000000
O O11 0.290680 0.403688 0.517778
O O12 0.243066 0.171442 0.600817
O O13 0.365816 0.255053 0.581457
O O14 0.385488 0.686674 0.878629
O O15 0.500000 0.779264 0.750000
#
# Coordination Sequence:
#
# PCOD9260713 Si02
#       7
#     8   8   8   8   8   8   8
#     4  10  22  36  62  87 114 154 200 242 290 350
#     4  10  22  37  63  85 115 162 192 235 303 352
#     4  11  21  38  64  88 114 153 200 248 287 352
#     4  10  20  37  60  84 112 157 192 241 290 349
#     4  10  20  37  61  85 112 148 202 244 289 339
#     4  10  18  38  62  86 110 153 204 241 281 360
#     4  11  21  38  60  86 122 152 197 239 294 359
#
# _framework density 18.082294000000001
#
# number of rings (size 3 to 8) (size 9 to 14) (size 15 to 20)
#    0.000    1.714    4.286    0.857    0.000    2.286 
#    2.571    0.714    0.000    0.000    0.000    0.000 
#    0.000    0.000    0.000    0.000    0.000    0.000 
#
# Total GULP energy -156292.258345 kJ/mol
# GULP energy per Si atom -5581.866369 kJ/mol
# Density = 1.804114 g / cm^3
# Si number density = 18.082294 Si / 1000 Ang^3
#
#
#
# Elastic Constant Matrix: (Units=GPa)
#
#
# Indices 1 2 3 4 5 6 
#
# 1 89.8986 40.4344 11.9408 0.0000 -13.0533 0.0000
# 2 40.4344 89.2443 12.4023 0.0000 -5.9280 0.0000
# 3 11.9408 12.4023 84.1161 0.0000 -9.4890 0.0000
# 4 0.0000 0.0000 0.0000 19.8066 0.0000 -8.5366
# 5 -13.0533 -5.9280 -9.4890 0.0000 24.7711 0.0000
# 6 0.0000 0.0000 0.0000 -8.5366 0.0000 21.0443
#
#
#
# Elastic Compliance Matrix: (Units=1/GPa)
#
#
# Indices 1 2 3 4 5 6 
#
# 1 0.014907 -0.006276 -0.000496 0.000000 0.006164 0.000000
# 2 -0.006276 0.014196 -0.001246 0.000000 -0.000387 0.000000
# 3 -0.000496 -0.001246 0.012625 0.000000 0.004277 0.000000
# 4 0.000000 0.000000 0.000000 0.061186 0.000000 0.024820
# 5 0.006164 -0.000387 0.004277 0.000000 0.045163 0.000000
# 6 0.000000 0.000000 0.000000 0.024820 0.000000 0.057587
#
#
# Mechanical properties :
#
#
# Convention : Reuss Voigt Hill
#
# Bulk Modulus (GPa) = 38.92011 43.64599 41.28305
# Shear Modulus (GPa) = 21.71433 26.35651 24.03542
#
# Velocity S-wave (km/s) = 3.46910 3.82198 3.64981
# Velocity P-wave (km/s) = 6.13326 6.60806 6.37508
#
# Compressibility (1/GPa) = 0.02569366
#
# Stress axis : x y z
#
# Youngs Moduli (GPa) = 67.08193 70.44220 79.20897
#
# Poissons Ratio (x) = 0.44208 0.03925
# Poissons Ratio (y) = 0.42099 0.09868
# Poissons Ratio (z) = 0.03324 0.08776
#
# Static dielectric constant tensor:
#      x y z
#    x 1.629980 0.000000 -0.000220 
#    y 0.000000 1.592590 0.000000 
#    z -0.000220 0.000000 1.632430 
# 
# From -- ./inp_files/209540.got.cif
#   From: 2010.05.17/outbox.cif.g08.bks.cpg/sg15_105_cif.got.tgz:209540.got - 2010.06.03 18:47:42.
