data_PCOD9260512
_publ_section_title
;
Structure prediction by ZEFSAII (Michael W. Deem and Ramdas Pophale) SiO2 
 PCOD9260512
Probable space group: C 2/C
;
_chemical_formula_sum "Si O2"
_cell_formula_units_Z 56
_cell_length_a 24.032592
_cell_length_b 16.255152
_cell_length_c 16.804481
_cell_angle_alpha 90.000000
_cell_angle_beta 155.971279
_cell_angle_gamma 90.000000
_cell_volume 2673.121433
_symmetry_space_group_name_H-M "C 2/C"
_symmetry_group_IT_number 15
_symmetry_cell_setting 'monoclinic'
loop_
_space_group_symop_operation_xyz
x,y,z
-x,y,1/2-z
-x,-y,-z
x,-y,1/2+z
1/2+x,1/2+y,z
1/2-x,1/2+y,1/2-z
1/2-x,1/2-y,-z
1/2+x,1/2-y,1/2+z
loop_
_atom_site_type_symbol
_atom_site_label
_atom_site_fract_x
_atom_site_fract_y
_atom_site_fract_z
Si Si1 0.320497 0.400090 0.427968
Si Si2 0.367149 0.956765 0.022495
Si Si3 0.798206 0.182999 0.450828
Si Si4 0.067078 0.888625 0.226779
Si Si5 0.366841 0.422256 0.664707
Si Si6 0.742927 0.863478 0.159700
Si Si7 0.133719 0.554739 0.157375
O O1 0.302592 0.387544 0.498954
O O2 0.482047 0.387609 0.625109
O O3 0.248668 0.352568 0.262201
O O4 0.261267 0.491957 0.335257
O O5 0.342328 0.054856 0.974743
O O6 0.238996 0.918864 0.901918
O O7 0.377573 0.918653 0.948815
O O8 0.500000 0.946449 0.250000
O O9 0.835953 0.166988 0.591273
O O10 0.803198 0.278211 0.437211
O O11 0.660932 0.133385 0.248425
O O12 0.916719 0.140836 0.551977
O O13 0.110838 0.882268 0.192143
O O14 0.099690 0.980325 0.300241
O O15 0.000000 0.500000 0.000000
#
# Coordination Sequence:
#
# PCOD9260512 Si02
#       7
#     8   8   8   8   8   8   8
#     4  10  19  37  57  90 105 152 200 240 292 338
#     4  10  23  36  56  89 116 150 198 246 299 347
#     4  11  21  38  56  86 122 157 189 234 307 349
#     4  10  20  36  61  83 116 151 192 243 294 357
#     4  10  18  37  65  80 112 148 203 254 283 344
#     4  10  24  33  58  87 122 153 189 243 294 366
#     4  11  22  35  60  82 118 157 198 245 285 351
#
# _framework density 20.949292
#
# number of rings (size 3 to 8) (size 9 to 14) (size 15 to 20)
#    0.000    1.714    2.857    2.143    6.000    4.000 
#    0.000    0.000    3.143    0.857    0.000    0.000 
#    0.000    0.000    0.000    0.000    0.000    0.000 
#
# Total GULP energy -156162.336362 kJ/mol
# GULP energy per Si atom -5577.226299 kJ/mol
# Density = 2.090161 g / cm^3
# Si number density = 20.949292 Si / 1000 Ang^3
#
#
#
# Elastic Constant Matrix: (Units=GPa)
#
#
# Indices 1 2 3 4 5 6 
#
# 1 93.9134 -12.8189 17.9278 0.0000 -1.7080 0.0000
# 2 -12.8189 23.2511 -11.6617 0.0000 -2.0438 0.0000
# 3 17.9278 -11.6617 64.0306 0.0000 -8.9475 0.0000
# 4 0.0000 0.0000 0.0000 1.2763 0.0000 -0.4384
# 5 -1.7080 -2.0438 -8.9475 0.0000 31.7835 0.0000
# 6 0.0000 0.0000 0.0000 -0.4384 0.0000 16.9316
#
#
#
# Elastic Compliance Matrix: (Units=1/GPa)
#
#
# Indices 1 2 3 4 5 6 
#
# 1 0.011828 0.005408 -0.002279 0.000000 0.000342 0.000000
# 2 0.005408 0.050816 0.008575 0.000000 0.005972 0.000000
# 3 -0.002279 0.008575 0.018609 0.000000 0.005668 0.000000
# 4 0.000000 0.000000 0.000000 0.790573 0.000000 0.020468
# 5 0.000342 0.005972 0.005668 0.000000 0.033461 0.000000
# 6 0.000000 0.000000 0.000000 0.020468 0.000000 0.059591
#
#
# Mechanical properties :
#
#
# Convention : Reuss Voigt Hill
#
# Bulk Modulus (GPa) = 9.55456 18.67661 14.11559
# Shear Modulus (GPa) = 5.12108 22.51479 13.81794
#
# Velocity S-wave (km/s) = 1.56519 3.28186 2.57103
# Velocity P-wave (km/s) = 2.79949 4.82652 3.94541
#
# Compressibility (1/GPa) = 0.10466202
#
# Stress axis : x y z
#
# Youngs Moduli (GPa) = 84.54860 19.67875 53.73623
#
# Poissons Ratio (x) = -0.10642 0.12246
# Poissons Ratio (y) = -0.45723 -0.46081
# Poissons Ratio (z) = 0.19268 -0.16875
#
# Static dielectric constant tensor:
#      x y z
#    x 1.768020 0.000000 0.039600 
#    y 0.000000 1.749950 0.000000 
#    z 0.039600 0.000000 1.702960 
# 
# From -- ./inp_files/222994.got.cif
#   From: 2010.05.17/outbox.cif.g08.bks.cpg/sg15_112_cif.got.tgz:222994.got - 2010.06.03 18:47:42.
