data_PCOD9260012
_publ_section_title
;
Structure prediction by ZEFSAII (Michael W. Deem and Ramdas Pophale) SiO2 
 PCOD9260012
Probable space group: C 2/C
;
_chemical_formula_sum "Si O2"
_cell_formula_units_Z 56
_cell_length_a 16.376216
_cell_length_b 10.909886
_cell_length_c 16.216300
_cell_angle_alpha 90.000000
_cell_angle_beta 47.721586
_cell_angle_gamma 90.000000
_cell_volume 2143.628524
_symmetry_space_group_name_H-M "C 2/C"
_symmetry_group_IT_number 15
_symmetry_cell_setting 'monoclinic'
loop_
_space_group_symop_operation_xyz
x,y,z
-x,y,1/2-z
-x,-y,-z
x,-y,1/2+z
1/2+x,1/2+y,z
1/2-x,1/2+y,1/2-z
1/2-x,1/2-y,-z
1/2+x,1/2-y,1/2+z
loop_
_atom_site_type_symbol
_atom_site_label
_atom_site_fract_x
_atom_site_fract_y
_atom_site_fract_z
Si Si1 0.500000 0.088336 0.750000
Si Si2 0.056474 0.745502 0.871657
Si Si3 0.178163 0.570662 0.191290
Si Si4 0.343625 0.960679 0.110261
Si Si5 0.357975 0.399478 0.049749
Si Si6 0.382674 0.658495 0.725219
Si Si7 0.221720 0.827825 0.634667
Si Si8 0.000000 0.974753 0.750000
O O1 0.514447 0.171087 0.820516
O O2 0.395710 0.999362 0.825278
O O3 0.069730 0.651491 0.939903
O O4 0.174177 0.798977 0.760063
O O5 0.976784 0.859975 0.936958
O O6 0.160438 0.505112 0.292042
O O7 0.126005 0.703244 0.238569
O O8 0.304541 0.534628 0.082913
O O9 0.229835 0.898122 0.162563
O O10 0.329419 0.084901 0.067645
O O11 0.370920 0.359717 0.136146
O O12 0.267414 0.303196 0.074021
O O13 0.386937 0.393035 0.830835
O O14 0.481037 0.573286 0.689895
#
# Coordination Sequence:
#
# PCOD9260012 Si02
#       8
#     4   8   8   8   8   8   8   4
#     4  10  20  36  58  86 134 166 214 264 350 358
#     4  11  22  40  64  98 128 170 226 274 318 405
#     4  10  18  36  60  90 124 168 208 272 323 383
#     4   9  18  36  63  85 121 173 207 259 326 372
#     4  11  23  37  72  99 124 175 232 263 326 391
#     4  10  19  41  64  92 131 172 214 269 325 396
#     4  11  20  42  64  91 132 167 215 276 326 393
#     4  10  24  38  70  90 128 186 206 260 360 374
#
# _framework density 26.123927999999999
#
# number of rings (size 3 to 8) (size 9 to 14) (size 15 to 20)
#    0.000    1.714    5.714    0.857    0.000    1.143 
#    0.000   11.429    3.143    2.571    0.000    0.000 
#    0.000    0.000    0.000    0.000    0.000    0.000 
#
# Total GULP energy -156307.585913 kJ/mol
# GULP energy per Si atom -5582.413783 kJ/mol
# Density = 2.606447 g / cm^3
# Si number density = 26.123928 Si / 1000 Ang^3
#
#
#
# Elastic Constant Matrix: (Units=GPa)
#
#
# Indices 1 2 3 4 5 6 
#
# 1 121.8173 49.1362 11.0991 0.0000 -4.0598 0.0000
# 2 49.1362 147.4098 20.1822 0.0000 1.5531 0.0000
# 3 11.0991 20.1822 63.1464 0.0000 -24.2842 0.0000
# 4 0.0000 0.0000 0.0000 13.5662 0.0000 -8.1385
# 5 -4.0598 1.5531 -24.2842 0.0000 28.6266 0.0000
# 6 0.0000 0.0000 0.0000 -8.1385 0.0000 54.9560
#
#
#
# Elastic Compliance Matrix: (Units=1/GPa)
#
#
# Indices 1 2 3 4 5 6 
#
# 1 0.009551 -0.003184 -0.000110 0.000000 0.001434 0.000000
# 2 -0.003184 0.008389 -0.003667 0.000000 -0.004017 0.000000
# 3 -0.000110 -0.003667 0.025377 0.000000 0.021710 0.000000
# 4 0.000000 0.000000 0.000000 0.080900 0.000000 0.011981
# 5 0.001434 -0.004017 0.021710 0.000000 0.053771 0.000000
# 6 0.000000 0.000000 0.000000 0.011981 0.000000 0.019971
#
#
# Mechanical properties :
#
#
# Convention : Reuss Voigt Hill
#
# Bulk Modulus (GPa) = 34.01706 54.80095 44.40900
# Shear Modulus (GPa) = 22.55528 36.22682 29.39105
#
# Velocity S-wave (km/s) = 2.94155 3.72792 3.35783
# Velocity P-wave (km/s) = 4.95849 6.28909 5.66301
#
# Compressibility (1/GPa) = 0.02939702
#
# Stress axis : x y z
#
# Youngs Moduli (GPa) = 104.70112 119.19859 39.40651
#
# Poissons Ratio (x) = 0.37950 0.00432
# Poissons Ratio (y) = 0.33334 0.14449
# Poissons Ratio (z) = 0.01148 0.43705
#
# Static dielectric constant tensor:
#      x y z
#    x 2.060400 0.000000 0.017540 
#    y 0.000000 2.193730 0.000000 
#    z 0.017540 0.000000 2.155380 
# 
# From -- ./inp_files/210584.got.cif
#   From: 2010.05.17/outbox.cif.g08.bks.cpg/sg15_106_cif.got.tgz:210584.got - 2010.06.03 18:47:42.
