data_PCOD9260071
_publ_section_title
;
Structure prediction by ZEFSAII (Michael W. Deem and Ramdas Pophale) SiO2 
 PCOD9260071
Probable space group: C 2/C
;
_chemical_formula_sum "Si O2"
_cell_formula_units_Z 52
_cell_length_a 10.692923
_cell_length_b 15.159543
_cell_length_c 17.649232
_cell_angle_alpha 90.000000
_cell_angle_beta 93.127805
_cell_angle_gamma 90.000000
_cell_volume 2856.675523
_symmetry_space_group_name_H-M "C 2/C"
_symmetry_group_IT_number 15
_symmetry_cell_setting 'monoclinic'
loop_
_space_group_symop_operation_xyz
x,y,z
-x,y,1/2-z
-x,-y,-z
x,-y,1/2+z
1/2+x,1/2+y,z
1/2-x,1/2+y,1/2-z
1/2-x,1/2-y,-z
1/2+x,1/2-y,1/2+z
loop_
_atom_site_type_symbol
_atom_site_label
_atom_site_fract_x
_atom_site_fract_y
_atom_site_fract_z
Si Si1 0.797532 0.872672 0.574885
Si Si2 0.239389 0.684373 0.906494
Si Si3 0.000000 0.451123 0.250000
Si Si4 0.448662 0.362658 0.831053
Si Si5 0.143445 0.469640 0.012714
Si Si6 0.764081 0.500437 0.653912
Si Si7 0.439794 0.174203 0.886678
O O1 0.738901 0.786249 0.614237
O O2 0.805977 0.839474 0.487784
O O3 0.932202 0.891540 0.614787
O O4 0.713091 0.959282 0.568204
O O5 0.269184 0.605081 0.850237
O O6 0.088024 0.678929 0.913746
O O7 0.110251 0.506327 0.292556
O O8 0.058619 0.388080 0.187292
O O9 0.500000 0.339100 0.750000
O O10 0.346603 0.438779 0.821938
O O11 0.397504 0.272452 0.865868
O O12 0.138224 0.374548 0.051318
O O13 0.204992 0.474232 0.932028
O O14 0.000000 0.500000 0.000000
#
# Coordination Sequence:
#
# PCOD9260071 Si02
#       7
#     8   8   4   8   8   8   8
#     4   9  18  33  57  81 109 146 183 228 275 333
#     4   8  16  34  57  83 103 144 190 226 270 336
#     4  10  18  36  62  80 112 154 186 240 274 336
#     4  11  24  37  54  84 117 153 189 227 293 352
#     4  11  19  35  61  90 110 143 198 239 275 330
#     4  10  22  36  59  87 114 146 197 234 284 338
#     4  10  19  36  59  84 111 149 193 235 279 338
#
# _framework density 18.202976
#
# number of rings (size 3 to 8) (size 9 to 14) (size 15 to 20)
#    0.000    2.154    5.385    0.000    2.154    3.077 
#    0.000    0.000    3.385    0.000    2.000    0.000 
#    0.000    0.000    0.000    0.000    0.000    0.000 
#
# Total GULP energy -144927.027214 kJ/mol
# GULP energy per Si atom -5574.116431 kJ/mol
# Density = 1.816155 g / cm^3
# Si number density = 18.202976 Si / 1000 Ang^3
#
#
#
# Elastic Constant Matrix: (Units=GPa)
#
#
# Indices 1 2 3 4 5 6 
#
# 1 42.6670 49.8884 19.8780 0.0000 22.3034 0.0000
# 2 49.8884 119.6239 24.6810 0.0000 19.4651 0.0000
# 3 19.8780 24.6810 61.3468 0.0000 19.3317 0.0000
# 4 0.0000 0.0000 0.0000 20.8440 0.0000 -1.7746
# 5 22.3034 19.4651 19.3317 0.0000 28.1115 0.0000
# 6 0.0000 0.0000 0.0000 -1.7746 0.0000 26.9029
#
#
#
# Elastic Compliance Matrix: (Units=1/GPa)
#
#
# Indices 1 2 3 4 5 6 
#
# 1 0.072581 -0.023409 -0.001356 0.000000 -0.040444 0.000000
# 2 -0.023409 0.017212 -0.001834 0.000000 0.007915 0.000000
# 3 -0.001356 -0.001834 0.021370 0.000000 -0.012350 0.000000
# 4 0.000000 0.000000 0.000000 0.048246 0.000000 0.003182
# 5 -0.040444 0.007915 -0.012350 0.000000 0.070673 0.000000
# 6 0.000000 0.000000 0.000000 0.003182 0.000000 0.037381
#
#
# Mechanical properties :
#
#
# Convention : Reuss Voigt Hill
#
# Bulk Modulus (GPa) = 17.25147 45.83695 31.54421
# Shear Modulus (GPa) = 14.70671 23.78436 19.24554
#
# Velocity S-wave (km/s) = 2.84549 3.61864 3.25510
# Velocity P-wave (km/s) = 4.50484 6.53415 5.61198
#
# Compressibility (1/GPa) = 0.05796607
#
# Stress axis : x y z
#
# Youngs Moduli (GPa) = 13.77780 58.09756 46.79530
#
# Poissons Ratio (x) = 1.35998 0.06343
# Poissons Ratio (y) = 0.32252 0.08583
# Poissons Ratio (z) = 0.01868 0.10656
#
# Static dielectric constant tensor:
#      x y z
#    x 1.596370 0.000000 0.009430 
#    y 0.000000 1.670260 0.000000 
#    z 0.009430 0.000000 1.660360 
# 
# From -- ./inp_files/197334.got.cif
#   From: 2010.05.17/outbox.cif.g08.bks.cpg/sg15_99_cif.got.tgz:197334.got - 2010.06.03 18:47:42.
