data_PCOD9260081
_publ_section_title
;
Structure prediction by ZEFSAII (Michael W. Deem and Ramdas Pophale) SiO2 
 PCOD9260081
Probable space group: C 2/C
;
_chemical_formula_sum "Si O2"
_cell_formula_units_Z 52
_cell_length_a 12.322748
_cell_length_b 8.074972
_cell_length_c 20.098477
_cell_angle_alpha 90.000000
_cell_angle_beta 77.629165
_cell_angle_gamma 90.000000
_cell_volume 1953.480805
_symmetry_space_group_name_H-M "C 2/C"
_symmetry_group_IT_number 15
_symmetry_cell_setting 'monoclinic'
loop_
_space_group_symop_operation_xyz
x,y,z
-x,y,1/2-z
-x,-y,-z
x,-y,1/2+z
1/2+x,1/2+y,z
1/2-x,1/2+y,1/2-z
1/2-x,1/2-y,-z
1/2+x,1/2-y,1/2+z
loop_
_atom_site_type_symbol
_atom_site_label
_atom_site_fract_x
_atom_site_fract_y
_atom_site_fract_z
Si Si1 0.000000 0.381536 0.250000
Si Si2 0.766890 0.423804 0.783305
Si Si3 0.114563 0.404288 0.464930
Si Si4 0.475652 0.403236 0.176775
Si Si5 0.476263 0.713723 0.390857
Si Si6 0.664593 0.810249 0.864952
Si Si7 0.779733 0.483226 0.421121
O O1 0.114472 0.482700 0.235820
O O2 0.983666 0.269839 0.187309
O O3 0.649363 0.518915 0.801461
O O4 0.764710 0.323871 0.713476
O O5 0.778077 0.383065 0.860852
O O6 0.168188 0.515051 0.399618
O O7 0.200703 0.417973 0.513920
O O8 0.000000 0.500000 0.500000
O O9 0.065039 0.238092 0.437987
O O10 0.500000 0.377739 0.250000
O O11 0.549536 0.523196 0.121734
O O12 0.460076 0.227995 0.143162
O O13 0.378734 0.845438 0.412453
O O14 0.687965 0.658555 0.913617
#
# Coordination Sequence:
#
# PCOD9260081 Si02
#       7
#     4   8   8   8   8   8   8
#     4  10  18  36  62  84 118 156 214 242 280 358
#     4  10  22  37  62  92 119 161 206 248 298 362
#     4  10  21  39  64  85 114 165 215 246 292 367
#     4  11  24  36  58  96 132 153 194 257 320 355
#     4  10  19  37  61  85 117 160 204 247 298 361
#     4  11  22  37  60  91 123 156 200 255 308 359
#     4   9  21  39  62  89 117 160 210 251 297 364
#
# _framework density 26.619152
#
# number of rings (size 3 to 8) (size 9 to 14) (size 15 to 20)
#    0.000    1.846    2.308    1.385    5.385    0.000 
#    0.000    6.154    0.000    7.385    0.000    0.000 
#    0.000    0.000    0.000    0.000    0.000    0.000 
#
# Total GULP energy -144771.580820 kJ/mol
# GULP energy per Si atom -5568.137724 kJ/mol
# Density = 2.655857 g / cm^3
# Si number density = 26.619152 Si / 1000 Ang^3
#
#
#
# Elastic Constant Matrix: (Units=GPa)
#
#
# Indices 1 2 3 4 5 6 
#
# 1 88.0566 -0.7569 24.3567 0.0000 15.6805 0.0000
# 2 -0.7569 52.6612 28.5882 0.0000 -0.7537 0.0000
# 3 24.3567 28.5882 136.1747 0.0000 62.3007 0.0000
# 4 0.0000 0.0000 0.0000 8.9741 0.0000 8.1746
# 5 15.6805 -0.7537 62.3007 0.0000 49.4828 0.0000
# 6 0.0000 0.0000 0.0000 8.1746 0.0000 0.4434
#
#
#
# Elastic Compliance Matrix: (Units=1/GPa)
#
#
# Indices 1 2 3 4 5 6 
#
# 1 0.012121 0.000930 -0.001444 0.000000 -0.002009 0.000000
# 2 0.000930 0.026710 -0.013739 0.000000 0.017410 0.000000
# 3 -0.001444 -0.013739 0.024465 0.000000 -0.030553 0.000000
# 4 0.000000 0.000000 0.000000 -0.007056 0.000000 0.130076
# 5 -0.002009 0.017410 -0.030553 0.000000 0.059578 0.000000
# 6 0.000000 0.000000 0.000000 0.130076 0.000000 -0.142798
#
#
# Mechanical properties :
#
#
# Convention : Reuss Voigt Hill
#
# Bulk Modulus (GPa) = 28.74499 42.36317 35.55408
# Shear Modulus (GPa) = 380.95948 26.76036 203.85992
#
# Velocity S-wave (km/s) = 11.97604 3.17409 8.76072
# Velocity P-wave (km/s) = 14.21464 5.42054 10.75728
#
# Compressibility (1/GPa) = 0.03478867
#
# Stress axis : x y z
#
# Youngs Moduli (GPa) = 82.49806 37.43859 40.87555
#
# Poissons Ratio (x) = -0.03480 0.05904
# Poissons Ratio (y) = -0.07669 0.56159
# Poissons Ratio (z) = 0.11915 0.51437
#
# Static dielectric constant tensor:
#      x y z
#    x 2.209440 0.000000 0.222750 
#    y 0.000000 2.366580 0.000000 
#    z 0.222750 0.000000 2.981880 
# 
# From -- ./inp_files/242483.got.cif
#   From: 2010.05.17/outbox.cif.g08.bks.cpg/sg15_122_cif.got.tgz:242483.got - 2010.06.03 18:47:42.
