data_PCOD9260877
_publ_section_title
;
Structure prediction by ZEFSAII (Michael W. Deem and Ramdas Pophale) SiO2 
 PCOD9260877
Probable space group: C 2/C
;
_chemical_formula_sum "Si O2"
_cell_formula_units_Z 44
_cell_length_a 12.003683
_cell_length_b 25.257426
_cell_length_c 12.212586
_cell_angle_alpha 90.000000
_cell_angle_beta 32.135498
_cell_angle_gamma 90.000000
_cell_volume 1969.519436
_symmetry_space_group_name_H-M "C 2/C"
_symmetry_group_IT_number 15
_symmetry_cell_setting 'monoclinic'
loop_
_space_group_symop_operation_xyz
x,y,z
-x,y,1/2-z
-x,-y,-z
x,-y,1/2+z
1/2+x,1/2+y,z
1/2-x,1/2+y,1/2-z
1/2-x,1/2-y,-z
1/2+x,1/2-y,1/2+z
loop_
_atom_site_type_symbol
_atom_site_label
_atom_site_fract_x
_atom_site_fract_y
_atom_site_fract_z
Si Si1 0.000000 0.115085 0.250000
Si Si2 0.500000 0.777763 0.750000
Si Si3 0.826961 0.074186 0.810727
Si Si4 0.500000 0.041737 0.250000
Si Si5 0.248093 0.188923 0.650319
Si Si6 0.750016 0.447551 0.358019
Si Si7 0.952168 0.654909 0.910103
O O1 0.909788 0.080354 0.425451
O O2 0.798115 0.147873 0.374265
O O3 0.660012 0.812181 0.549155
O O4 0.604720 0.740619 0.756366
O O5 0.876436 0.134380 0.732565
O O6 0.825971 0.041512 0.701018
O O7 0.000000 0.055700 0.750000
O O8 0.608845 0.072194 0.058993
O O9 0.333007 0.001387 0.338482
O O10 0.426391 0.186271 0.595179
O O11 0.938689 0.403879 0.183365
O O12 0.000000 0.678347 0.750000
#
# Coordination Sequence:
#
# PCOD9260877 Si02
#       7
#     4   4   8   4   8   8   8
#     4  10  18  38  67  88 117 179 202 251 306 354
#     4  10  21  40  69  86 120 162 192 253 321 376
#     4  11  25  40  61  92 125 164 205 259 305 368
#     4  12  23  40  58  90 127 167 212 254 301 352
#     4  10  21  42  62  92 120 155 204 250 311 374
#     4  10  22  40  61  88 127 164 215 252 299 362
#     4   9  19  39  64  92 123 163 204 253 299 371
#
# _framework density 22.340475000000001
#
# number of rings (size 3 to 8) (size 9 to 14) (size 15 to 20)
#    0.000    1.818    3.636    1.091    1.273    5.091 
#    9.818    0.909    0.000    0.000    0.000    0.000 
#    0.000    0.000    0.000    0.000    0.000    0.000 
#
# Total GULP energy -122761.779996 kJ/mol
# GULP energy per Si atom -5580.080909 kJ/mol
# Density = 2.228963 g / cm^3
# Si number density = 22.340475 Si / 1000 Ang^3
#
#
#
# Elastic Constant Matrix: (Units=GPa)
#
#
# Indices 1 2 3 4 5 6 
#
# 1 187.4795 32.6687 38.6117 0.0000 3.2604 0.0000
# 2 32.6687 63.3725 10.5684 0.0000 1.8745 0.0000
# 3 38.6117 10.5684 91.6821 0.0000 -5.9806 -0.0001
# 4 0.0000 0.0000 0.0000 5.1065 0.0000 2.1808
# 5 3.2604 1.8745 -5.9806 0.0000 36.8767 0.0000
# 6 0.0000 0.0000 -0.0001 2.1808 0.0000 -1.1696
#
#
#
# Elastic Compliance Matrix: (Units=1/GPa)
#
#
# Indices 1 2 3 4 5 6 
#
# 1 0.006336 -0.002843 -0.002393 0.000000 -0.000804 0.000000
# 2 -0.002843 0.017412 -0.000860 0.000000 -0.000773 0.000000
# 3 -0.002393 -0.000860 0.012160 0.000000 0.002227 0.000000
# 4 0.000000 0.000000 0.000000 0.109018 0.000000 0.203272
# 5 -0.000804 -0.000773 0.002227 0.000000 0.027589 0.000000
# 6 0.000000 0.000000 0.000000 0.203272 0.000000 -0.475973
#
#
# Mechanical properties :
#
#
# Convention : Reuss Voigt Hill
#
# Bulk Modulus (GPa) = 42.16858 56.24796 49.20827
# Shear Modulus (GPa) = -17.64541 25.54175 3.94817
#
# Velocity S-wave (km/s) = -2.81346 3.38493 1.33083
# Velocity P-wave (km/s) = 2.89177 6.36469 4.94326
#
# Compressibility (1/GPa) = 0.02371434
#
# Stress axis : x y z
#
# Youngs Moduli (GPa) = 157.82200 57.43224 82.23987
#
# Poissons Ratio (x) = 0.16331 0.19681
# Poissons Ratio (y) = 0.44876 0.07073
# Poissons Ratio (z) = 0.37769 0.04939
#
# Static dielectric constant tensor:
#      x y z
#    x 1.914750 0.000000 -0.057530 
#    y 0.000000 1.803980 0.000000 
#    z -0.057530 0.000000 1.865530 
# 
# From -- ./inp_files/91960.got.cif
#   From: 2010.05.17/outbox.cif.g08.bks.cpg/sg15_46_cif.got.tgz:91960.got - 2010.06.03 18:47:42.
