data_PCOD9260259
_publ_section_title
;
Structure prediction by ZEFSAII (Michael W. Deem and Ramdas Pophale) SiO2 
 PCOD9260259
Probable space group: C 2/C
;
_chemical_formula_sum "Si O2"
_cell_formula_units_Z 48
_cell_length_a 9.355661
_cell_length_b 18.236159
_cell_length_c 14.959809
_cell_angle_alpha 90.000000
_cell_angle_beta 69.153843
_cell_angle_gamma 90.000000
_cell_volume 2385.236607
_symmetry_space_group_name_H-M "C 2/C"
_symmetry_group_IT_number 15
_symmetry_cell_setting 'monoclinic'
loop_
_space_group_symop_operation_xyz
x,y,z
-x,y,1/2-z
-x,-y,-z
x,-y,1/2+z
1/2+x,1/2+y,z
1/2-x,1/2+y,1/2-z
1/2-x,1/2-y,-z
1/2+x,1/2-y,1/2+z
loop_
_atom_site_type_symbol
_atom_site_label
_atom_site_fract_x
_atom_site_fract_y
_atom_site_fract_z
Si Si1 0.510762 0.742347 0.023136
Si Si2 0.830978 0.040493 0.277059
Si Si3 0.175655 0.578254 0.690348
Si Si4 0.230212 0.621211 0.481432
Si Si5 0.586489 0.707063 0.822381
Si Si6 0.143679 0.799176 0.779163
O O1 0.587235 0.822606 0.006252
O O2 0.476725 0.715702 0.931312
O O3 0.631192 0.680241 0.033531
O O4 0.372814 0.739491 0.122538
O O5 0.766231 0.070867 0.386731
O O6 0.862997 0.113826 0.212912
O O7 0.000000 0.004837 0.250000
O O8 0.720732 0.989783 0.243440
O O9 0.203490 0.572871 0.576967
O O10 0.292660 0.642236 0.691309
O O11 0.000000 0.597335 0.750000
O O12 0.500000 0.700500 0.750000
O O13 0.696606 0.777804 0.799357
O O14 0.000000 0.775749 0.750000
#
# Coordination Sequence:
#
# PCOD9260259 Si02
#       6
#     8   8   8   8   8   8
#     4  10  18  36  66  93 118 159 208 251 305 371
#     4  11  22  40  62  95 124 162 206 255 301 365
#     4  11  25  42  61  88 125 169 206 250 309 370
#     4  10  19  38  66  90 120 164 207 249 305 368
#     4  11  23  39  61  94 125 157 204 263 307 357
#     4  11  19  38  66  92 119 160 207 249 308 365
#
# _framework density 20.12379
#
# number of rings (size 3 to 8) (size 9 to 14) (size 15 to 20)
#    0.000    1.333    5.000    4.000    0.000    2.667 
#    3.000    0.000    0.000    0.000    0.000    0.000 
#    0.000    0.000    0.000    0.000    0.000    0.000 
#
# Total GULP energy -133896.556629 kJ/mol
# GULP energy per Si atom -5579.023193 kJ/mol
# Density = 2.007799 g / cm^3
# Si number density = 20.123790 Si / 1000 Ang^3
#
#
#
# Elastic Constant Matrix: (Units=GPa)
#
#
# Indices 1 2 3 4 5 6 
#
# 1 55.3335 23.5811 38.8371 0.0000 17.9525 0.0000
# 2 23.5811 59.1367 31.4949 0.0000 15.9833 0.0000
# 3 38.8371 31.4949 152.6851 0.0000 22.4567 0.0000
# 4 0.0000 0.0000 0.0000 25.7602 0.0000 0.5020
# 5 17.9525 15.9833 22.4567 0.0000 28.6945 0.0000
# 6 0.0000 0.0000 0.0000 0.5020 0.0000 15.4290
#
#
#
# Elastic Compliance Matrix: (Units=1/GPa)
#
#
# Indices 1 2 3 4 5 6 
#
# 1 0.026731 -0.005675 -0.004107 0.000000 -0.010349 0.000000
# 2 -0.005675 0.022228 -0.002083 0.000000 -0.007201 0.000000
# 3 -0.004107 -0.002083 0.008447 0.000000 -0.002882 0.000000
# 4 0.000000 0.000000 0.000000 0.038844 0.000000 -0.001264
# 5 -0.010349 -0.007201 -0.002882 0.000000 0.047591 0.000000
# 6 0.000000 0.000000 0.000000 -0.001264 0.000000 0.064854
#
#
# Mechanical properties :
#
#
# Convention : Reuss Voigt Hill
#
# Bulk Modulus (GPa) = 29.69253 50.55351 40.12302
# Shear Modulus (GPa) = 20.52128 25.52623 23.02376
#
# Velocity S-wave (km/s) = 3.19682 3.56541 3.38613
# Velocity P-wave (km/s) = 5.33040 6.49040 5.93879
#
# Compressibility (1/GPa) = 0.03367851
#
# Stress axis : x y z
#
# Youngs Moduli (GPa) = 37.41040 44.98771 118.37989
#
# Poissons Ratio (x) = 0.25530 0.48613
# Poissons Ratio (y) = 0.21230 0.24653
# Poissons Ratio (z) = 0.15363 0.09369
#
# Static dielectric constant tensor:
#      x y z
#    x 1.727390 0.000000 -0.008130 
#    y 0.000000 1.716150 0.000000 
#    z -0.008130 0.000000 1.760960 
# 
# From -- ./inp_files/135877.got.cif
#   From: 2010.05.17/outbox.cif.g08.bks.cpg/sg15_68_cif.got.tgz:135877.got - 2010.06.03 18:47:42.
