data_PCOD9260214
_publ_section_title
;
Structure prediction by ZEFSAII (Michael W. Deem and Ramdas Pophale) SiO2 
 PCOD9260214
Probable space group: C 2/C
;
_chemical_formula_sum "Si O2"
_cell_formula_units_Z 44
_cell_length_a 16.141125
_cell_length_b 8.972866
_cell_length_c 11.107543
_cell_angle_alpha 90.000000
_cell_angle_beta 85.620955
_cell_angle_gamma 90.000000
_cell_volume 1604.033061
_symmetry_space_group_name_H-M "C 2/C"
_symmetry_group_IT_number 15
_symmetry_cell_setting 'monoclinic'
loop_
_space_group_symop_operation_xyz
x,y,z
-x,y,1/2-z
-x,-y,-z
x,-y,1/2+z
1/2+x,1/2+y,z
1/2-x,1/2+y,1/2-z
1/2-x,1/2-y,-z
1/2+x,1/2-y,1/2+z
loop_
_atom_site_type_symbol
_atom_site_label
_atom_site_fract_x
_atom_site_fract_y
_atom_site_fract_z
Si Si1 0.000000 0.112487 0.750000
Si Si2 0.108272 0.985356 0.904647
Si Si3 0.921875 0.693888 0.010964
Si Si4 0.197379 0.523241 0.899722
Si Si5 0.109180 0.733336 0.071296
Si Si6 0.316478 0.269654 0.800941
O O1 0.075590 0.221943 0.705692
O O2 0.985776 0.006215 0.636930
O O3 0.138014 0.889666 0.013087
O O4 0.145468 0.896371 0.789296
O O5 0.121044 0.155951 0.934255
O O6 0.893290 0.555401 0.094912
O O7 0.883726 0.690638 0.880766
O O8 0.021517 0.704972 0.010240
O O9 0.179264 0.615274 0.026914
O O10 0.253397 0.374989 0.883159
O O11 0.214212 0.641258 0.790208
#
# Coordination Sequence:
#
# PCOD9260214 Si02
#       6
#     4   8   8   8   8   8
#     4  10  18  36  64  98 132 172 222 284 332 392
#     4  10  20  38  65  97 130 176 225 271 336 408
#     4  11  22  41  66  95 132 176 226 279 333 401
#     4  11  25  43  64  95 130 175 226 273 338 407
#     4  10  22  39  65 100 134 173 227 280 338 402
#     4  11  24  44  66  93 135 181 221 280 338 401
#
# _framework density 27.430855999999999
#
# number of rings (size 3 to 8) (size 9 to 14) (size 15 to 20)
#    0.000    1.455    0.000    6.545    0.000    5.091 
#    0.000   12.727    0.000    0.000    0.000    0.000 
#    0.000    0.000    0.000    0.000    0.000    0.000 
#
# Total GULP energy -122592.474399 kJ/mol
# GULP energy per Si atom -5572.385200 kJ/mol
# Density = 2.736842 g / cm^3
# Si number density = 27.430856 Si / 1000 Ang^3
#
#
#
# Elastic Constant Matrix: (Units=GPa)
#
#
# Indices 1 2 3 4 5 6 
#
# 1 89.2896 35.0972 21.1864 0.0000 -15.1775 0.0000
# 2 35.0972 144.5643 21.2331 0.0000 -28.1924 0.0000
# 3 21.1864 21.2331 101.5182 0.0000 -4.3562 0.0000
# 4 0.0000 0.0000 0.0000 40.5104 0.0000 -3.2966
# 5 -15.1775 -28.1924 -4.3562 0.0000 42.8878 0.0000
# 6 0.0000 0.0000 0.0000 -3.2966 0.0000 22.5082
#
#
#
# Elastic Compliance Matrix: (Units=1/GPa)
#
#
# Indices 1 2 3 4 5 6 
#
# 1 0.013104 -0.002302 -0.002128 0.000000 0.002908 0.000000
# 2 -0.002302 0.008555 -0.001107 0.000000 0.004696 0.000000
# 3 -0.002128 -0.001107 0.010509 0.000000 -0.000414 0.000000
# 4 0.000000 0.000000 0.000000 0.024983 0.000000 0.003659
# 5 0.002908 0.004696 -0.000414 0.000000 0.027391 0.000000
# 6 0.000000 0.000000 0.000000 0.003659 0.000000 0.044964
#
#
# Mechanical properties :
#
#
# Convention : Reuss Voigt Hill
#
# Bulk Modulus (GPa) = 47.41168 54.48953 50.95061
# Shear Modulus (GPa) = 33.87303 38.37165 36.12234
#
# Velocity S-wave (km/s) = 3.51786 3.74418 3.63278
# Velocity P-wave (km/s) = 5.81567 6.21283 6.01753
#
# Compressibility (1/GPa) = 0.02109185
#
# Stress axis : x y z
#
# Youngs Moduli (GPa) = 76.31534 116.89571 95.16092
#
# Poissons Ratio (x) = 0.26904 0.20255
# Poissons Ratio (y) = 0.17564 0.10538
# Poissons Ratio (z) = 0.16244 0.12945
#
# Static dielectric constant tensor:
#      x y z
#    x 2.244390 0.000000 0.020510 
#    y 0.000000 2.137420 0.000000 
#    z 0.020510 0.000000 2.181820 
# 
# From -- ./inp_files/116237.got.cif
#   From: 2010.05.17/outbox.cif.g08.bks.cpg/sg15_59_cif.got.tgz:116237.got - 2010.06.03 18:47:42.
