data_PCOD9260322
_publ_section_title
;
Structure prediction by ZEFSAII (Michael W. Deem and Ramdas Pophale) SiO2 
 PCOD9260322
Probable space group: C 2/C
;
_chemical_formula_sum "Si O2"
_cell_formula_units_Z 52
_cell_length_a 29.718323
_cell_length_b 5.296644
_cell_length_c 15.695127
_cell_angle_alpha 90.000000
_cell_angle_beta 99.297454
_cell_angle_gamma 90.000000
_cell_volume 2438.073184
_symmetry_space_group_name_H-M "C 2/C"
_symmetry_group_IT_number 15
_symmetry_cell_setting 'monoclinic'
loop_
_space_group_symop_operation_xyz
x,y,z
-x,y,1/2-z
-x,-y,-z
x,-y,1/2+z
1/2+x,1/2+y,z
1/2-x,1/2+y,1/2-z
1/2-x,1/2-y,-z
1/2+x,1/2-y,1/2+z
loop_
_atom_site_type_symbol
_atom_site_label
_atom_site_fract_x
_atom_site_fract_y
_atom_site_fract_z
Si Si1 0.825122 0.955520 0.969471
Si Si2 0.333636 0.949899 0.086173
Si Si3 0.569583 0.140533 0.355765
Si Si4 0.754485 0.517689 0.194183
Si Si5 0.924262 0.949931 0.980477
Si Si6 0.500000 0.408498 0.250000
Si Si7 0.502309 0.767414 0.414491
O O1 0.784233 0.966039 0.890281
O O2 0.825182 0.684748 0.018228
O O3 0.873378 0.997377 0.934690
O O4 0.822403 0.187545 0.035450
O O5 0.301826 0.988470 0.157871
O O6 0.386826 0.960552 0.131625
O O7 0.583894 0.359608 0.425016
O O8 0.547263 0.251148 0.264244
O O9 0.525260 0.015430 0.385255
O O10 0.753437 0.771980 0.249752
O O11 0.951759 0.738656 0.936773
O O12 0.961584 0.169430 0.003131
O O13 0.501306 0.579541 0.333978
#
# Coordination Sequence:
#
# PCOD9260322 Si02
#       7
#     8   8   8   8   8   4   8
#     4  11  22  44  68  97 123 172 224 258 325 389
#     4  11  23  43  72  92 127 174 221 266 313 397
#     4  10  20  37  57  87 121 162 213 250 315 368
#     4  12  26  45  66 100 135 163 208 276 339 386
#     4   9  20  34  61  86 111 158 209 263 289 362
#     4  10  22  34  52  86 124 170 200 246 318 380
#     4  10  18  37  55  82 123 155 207 251 306 357
#
# _framework density 21.328316999999998
#
# number of rings (size 3 to 8) (size 9 to 14) (size 15 to 20)
#    0.000    1.538    1.538    3.692    0.000    1.231 
#    5.538    0.000    0.000    0.000    0.000    0.000 
#    0.000    0.000    0.000    0.000    0.000    0.000 
#
# Total GULP energy -145067.751025 kJ/mol
# GULP energy per Si atom -5579.528886 kJ/mol
# Density = 2.127977 g / cm^3
# Si number density = 21.328317 Si / 1000 Ang^3
#
#
#
# Elastic Constant Matrix: (Units=GPa)
#
#
# Indices 1 2 3 4 5 6 
#
# 1 81.1616 -3.0371 29.0989 0.0000 -12.8535 0.0000
# 2 -3.0371 98.2735 23.1073 0.0000 -1.1544 0.0000
# 3 29.0989 23.1073 62.6833 0.0000 7.9879 0.0000
# 4 0.0000 0.0000 0.0000 45.0844 0.0000 -21.6871
# 5 -12.8535 -1.1544 7.9879 0.0000 31.2426 0.0000
# 6 0.0000 0.0000 0.0000 -21.6871 0.0000 87.9466
#
#
#
# Elastic Compliance Matrix: (Units=1/GPa)
#
#
# Indices 1 2 3 4 5 6 
#
# 1 0.017952 0.003222 -0.010831 0.000000 0.010274 0.000000
# 2 0.003222 0.011789 -0.006270 0.000000 0.003364 0.000000
# 3 -0.010831 -0.006270 0.024694 0.000000 -0.011001 0.000000
# 4 0.000000 0.000000 0.000000 0.025166 0.000000 0.006206
# 5 0.010274 0.003364 -0.011001 0.000000 0.039171 0.000000
# 6 0.000000 0.000000 0.000000 0.006206 0.000000 0.012901
#
#
# Mechanical properties :
#
#
# Convention : Reuss Voigt Hill
#
# Bulk Modulus (GPa) = 37.48464 37.82850 37.65657
# Shear Modulus (GPa) = 29.70472 45.71800 37.71136
#
# Velocity S-wave (km/s) = 3.73599 4.63486 4.20948
# Velocity P-wave (km/s) = 6.01858 6.81302 6.42809
#
# Compressibility (1/GPa) = 0.02667760
#
# Stress axis : x y z
#
# Youngs Moduli (GPa) = 55.70476 84.82363 40.49501
#
# Poissons Ratio (x) = -0.27331 0.43858
# Poissons Ratio (y) = -0.17949 0.25392
# Poissons Ratio (z) = 0.60331 0.53188
#
# Static dielectric constant tensor:
#      x y z
#    x 1.814990 0.000000 0.010630 
#    y 0.000000 1.836690 0.000000 
#    z 0.010630 0.000000 1.784010 
# 
# From -- ./inp_files/220952.got.cif
#   From: 2010.05.17/outbox.cif.g08.bks.cpg/sg15_111_cif.got.tgz:220952.got - 2010.06.03 18:47:42.
