data_PCOD9260624
_publ_section_title
;
Structure prediction by ZEFSAII (Michael W. Deem and Ramdas Pophale) SiO2 
 PCOD9260624
Probable space group: C 2/C
;
_chemical_formula_sum "Si O2"
_cell_formula_units_Z 60
_cell_length_a 5.156296
_cell_length_b 33.716853
_cell_length_c 18.168299
_cell_angle_alpha 90.000000
_cell_angle_beta 70.951206
_cell_angle_gamma 90.000000
_cell_volume 2985.669147
_symmetry_space_group_name_H-M "C 2/C"
_symmetry_group_IT_number 15
_symmetry_cell_setting 'monoclinic'
loop_
_space_group_symop_operation_xyz
x,y,z
-x,y,1/2-z
-x,-y,-z
x,-y,1/2+z
1/2+x,1/2+y,z
1/2-x,1/2+y,1/2-z
1/2-x,1/2-y,-z
1/2+x,1/2-y,1/2+z
loop_
_atom_site_type_symbol
_atom_site_label
_atom_site_fract_x
_atom_site_fract_y
_atom_site_fract_z
Si Si1 0.688523 0.419705 0.172659
Si Si2 0.500000 0.140856 0.750000
Si Si3 0.957683 0.453172 0.008191
Si Si4 0.506304 0.263520 0.836169
Si Si5 0.905514 0.768896 0.417508
Si Si6 0.499941 0.405589 0.543407
Si Si7 0.318714 0.353654 0.696160
Si Si8 0.416374 0.353138 0.098628
O O1 0.500000 0.442390 0.250000
O O2 0.882394 0.443888 0.100673
O O3 0.514864 0.391474 0.134839
O O4 0.846692 0.388238 0.208059
O O5 0.313386 0.164433 0.824575
O O6 0.717713 0.433220 0.980805
O O7 0.000000 0.500000 0.000000
O O8 0.240541 0.432194 0.959826
O O9 0.500000 0.255644 0.750000
O O10 0.754757 0.242967 0.856224
O O11 0.560951 0.310751 0.839090
O O12 0.214124 0.248246 0.892664
O O13 0.750000 0.750000 0.500000
O O14 0.883870 0.816314 0.427540
O O15 0.358238 0.384146 0.625408
O O16 0.627605 0.371530 0.477500
O O17 0.500000 0.366182 0.750000
O O18 0.000000 0.349568 0.750000
#
# Coordination Sequence:
#
# PCOD9260624 Si02
#       8
#     8   4   8   8   8   8   8   8
#     4   9  20  37  61  90 125 165 213 254 311 381
#     4  10  18  38  58  88 120 158 216 254 308 368
#     4  11  23  42  67 100 131 170 204 258 329 397
#     4  11  25  42  63  88 126 174 216 269 336 383
#     4  12  26  41  60  93 132 169 220 280 332 388
#     4  11  23  43  69  94 128 170 215 266 319 389
#     4  11  23  44  69  93 125 173 226 274 320 388
#     4  10  23  36  62  90 123 170 216 266 317 379
#
# _framework density 20.095998000000002
#
# number of rings (size 3 to 8) (size 9 to 14) (size 15 to 20)
#    0.000    1.333    1.333    4.400    2.800    4.267 
#    0.000    2.000    0.000    0.000    0.000    0.000 
#    0.000    0.000    0.000    0.000    0.000    0.000 
#
# Total GULP energy -167379.849569 kJ/mol
# GULP energy per Si atom -5579.328319 kJ/mol
# Density = 2.005026 g / cm^3
# Si number density = 20.095998 Si / 1000 Ang^3
#
#
#
# Elastic Constant Matrix: (Units=GPa)
#
#
# Indices 1 2 3 4 5 6 
#
# 1 84.6187 18.2091 3.3428 0.0000 -7.2098 0.0000
# 2 18.2091 104.1385 50.1874 0.0000 -8.9037 0.0000
# 3 3.3428 50.1874 67.7477 0.0000 -12.3973 0.0000
# 4 0.0000 0.0000 0.0000 12.3373 0.0000 -2.2211
# 5 -7.2098 -8.9037 -12.3973 0.0000 34.8723 0.0000
# 6 0.0000 0.0000 0.0000 -2.2211 0.0000 27.5646
#
#
#
# Elastic Compliance Matrix: (Units=1/GPa)
#
#
# Indices 1 2 3 4 5 6 
#
# 1 0.012595 -0.002970 0.002050 0.000000 0.002574 0.000000
# 2 -0.002970 0.015635 -0.011571 0.000000 -0.000735 0.000000
# 3 0.002050 -0.011571 0.024352 0.000000 0.006127 0.000000
# 4 0.000000 0.000000 0.000000 0.082248 0.000000 0.006627
# 5 0.002574 -0.000735 0.006127 0.000000 0.031199 0.000000
# 6 0.000000 0.000000 0.000000 0.006627 0.000000 0.036812
#
#
# Mechanical properties :
#
#
# Convention : Reuss Voigt Hill
#
# Bulk Modulus (GPa) = 36.23059 44.44261 40.33660
# Shear Modulus (GPa) = 21.09489 27.27254 24.18371
#
# Velocity S-wave (km/s) = 3.24343 3.68790 3.47278
# Velocity P-wave (km/s) = 5.66519 6.34801 6.01630
#
# Compressibility (1/GPa) = 0.02760099
#
# Stress axis : x y z
#
# Youngs Moduli (GPa) = 79.39512 63.95790 41.06408
#
# Poissons Ratio (x) = 0.18996 -0.08418
# Poissons Ratio (y) = 0.23581 0.47514
# Poissons Ratio (z) = -0.16275 0.74003
#
# Static dielectric constant tensor:
#      x y z
#    x 1.708590 0.000000 -0.021210 
#    y 0.000000 1.712840 0.000000 
#    z -0.021210 0.000000 1.785540 
# 
# From -- ./inp_files/186720.got.cif
#   From: 2010.05.17/outbox.cif.g08.bks.cpg/sg15_94_cif.got.tgz:186720.got - 2010.06.03 18:47:42.
