data_PCOD9260203
_publ_section_title
;
Structure prediction by ZEFSAII (Michael W. Deem and Ramdas Pophale) SiO2 
 PCOD9260203
Probable space group: C 2/C
;
_chemical_formula_sum "Si O2"
_cell_formula_units_Z 60
_cell_length_a 9.110577
_cell_length_b 23.564288
_cell_length_c 15.789024
_cell_angle_alpha 90.000000
_cell_angle_beta 55.884587
_cell_angle_gamma 90.000000
_cell_volume 2806.327486
_symmetry_space_group_name_H-M "C 2/C"
_symmetry_group_IT_number 15
_symmetry_cell_setting 'monoclinic'
loop_
_space_group_symop_operation_xyz
x,y,z
-x,y,1/2-z
-x,-y,-z
x,-y,1/2+z
1/2+x,1/2+y,z
1/2-x,1/2+y,1/2-z
1/2-x,1/2-y,-z
1/2+x,1/2-y,1/2+z
loop_
_atom_site_type_symbol
_atom_site_label
_atom_site_fract_x
_atom_site_fract_y
_atom_site_fract_z
Si Si1 0.630606 0.065853 0.951779
Si Si2 0.152472 0.180380 0.628538
Si Si3 0.928382 0.115179 0.441004
Si Si4 0.179447 0.794251 0.925993
Si Si5 0.103312 0.573085 0.639647
Si Si6 0.243611 0.547481 0.365168
Si Si7 0.500000 0.861773 0.750000
Si Si8 0.272372 0.462521 0.670938
O O1 0.756906 0.119310 0.910938
O O2 0.533768 0.062569 0.891858
O O3 0.734955 0.007155 0.930101
O O4 0.463197 0.067585 0.069394
O O5 0.108677 0.198243 0.545228
O O6 0.294993 0.228890 0.606551
O O7 0.000000 0.179322 0.750000
O O8 0.758702 0.112420 0.555343
O O9 0.856331 0.096956 0.372121
O O10 0.042585 0.171701 0.411534
O O11 0.058210 0.064172 0.428904
O O12 0.378722 0.821707 0.849986
O O13 0.181148 0.513736 0.651364
O O14 0.000000 0.600944 0.750000
O O15 0.315836 0.522993 0.253988
O O16 0.649252 0.907391 0.727785
#
# Coordination Sequence:
#
# PCOD9260203 Si02
#       8
#     8   8   8   8   8   8   4   8
#     4  10  22  38  59  90 129 163 210 251 314 381
#     4  11  24  42  67  93 119 165 221 275 318 371
#     4  10  24  36  61  91 127 163 211 261 312 379
#     4  10  23  43  63  92 122 159 220 273 318 370
#     4  11  21  37  56  87 128 169 197 244 311 381
#     4  10  20  38  58  95 130 169 200 248 318 385
#     4  10  18  36  64  92 122 170 204 256 312 362
#     4  11  19  35  61  90 129 167 205 244 306 379
#
# _framework density 21.380255999999999
#
# number of rings (size 3 to 8) (size 9 to 14) (size 15 to 20)
#    0.000    1.600    2.667    1.600    1.867    7.467 
#    0.000    2.667    0.000    3.200    0.000    0.000 
#    0.000    0.000    0.000    0.000    0.000    0.000 
#
# Total GULP energy -167265.517561 kJ/mol
# GULP energy per Si atom -5575.517252 kJ/mol
# Density = 2.133159 g / cm^3
# Si number density = 21.380256 Si / 1000 Ang^3
#
#
#
# Elastic Constant Matrix: (Units=GPa)
#
#
# Indices 1 2 3 4 5 6 
#
# 1 34.1671 5.3637 15.1686 0.0000 -2.4664 0.0000
# 2 5.3637 84.7415 14.6968 0.0000 -10.7513 0.0000
# 3 15.1686 14.6968 119.4395 0.0000 -10.4301 0.0000
# 4 0.0000 0.0000 0.0000 19.4878 0.0000 -3.6542
# 5 -2.4664 -10.7513 -10.4301 0.0000 30.0313 0.0000
# 6 0.0000 0.0000 0.0000 -3.6542 0.0000 30.5807
#
#
#
# Elastic Compliance Matrix: (Units=1/GPa)
#
#
# Indices 1 2 3 4 5 6 
#
# 1 0.031178 -0.001220 -0.003737 0.000000 0.000826 0.000000
# 2 -0.001220 0.012570 -0.001039 0.000000 0.004039 0.000000
# 3 -0.003737 -0.001039 0.009194 0.000000 0.002514 0.000000
# 4 0.000000 0.000000 0.000000 0.052490 0.000000 0.006272
# 5 0.000826 0.004039 0.002514 0.000000 0.035686 0.000000
# 6 0.000000 0.000000 0.000000 0.006272 0.000000 0.033450
#
#
# Mechanical properties :
#
#
# Convention : Reuss Voigt Hill
#
# Bulk Modulus (GPa) = 24.42024 34.31179 29.36602
# Shear Modulus (GPa) = 24.97342 29.56123 27.26732
#
# Velocity S-wave (km/s) = 3.42140 3.72242 3.57508
# Velocity P-wave (km/s) = 5.20140 5.87864 5.55036
#
# Compressibility (1/GPa) = 0.04094963
#
# Stress axis : x y z
#
# Youngs Moduli (GPa) = 32.07357 79.55135 108.76080
#
# Poissons Ratio (x) = 0.09709 0.40647
# Poissons Ratio (y) = 0.03915 0.11301
# Poissons Ratio (z) = 0.11987 0.08266
#
# Static dielectric constant tensor:
#      x y z
#    x 1.844230 0.000000 0.004250 
#    y 0.000000 1.778770 0.000000 
#    z 0.004250 0.000000 1.850760 
# 
# From -- ./inp_files/193259.got.cif
#   From: 2010.05.17/outbox.cif.g08.bks.cpg/sg15_97_cif.got.tgz:193259.got - 2010.06.03 18:47:42.
