data_PCOD9260330
_publ_section_title
;
Structure prediction by ZEFSAII (Michael W. Deem and Ramdas Pophale) SiO2 
 PCOD9260330
Probable space group: C 2/C
;
_chemical_formula_sum "Si O2"
_cell_formula_units_Z 56
_cell_length_a 27.514761
_cell_length_b 16.357440
_cell_length_c 18.857259
_cell_angle_alpha 90.000000
_cell_angle_beta 17.954204
_cell_angle_gamma 90.000000
_cell_volume 2616.207622
_symmetry_space_group_name_H-M "C 2/C"
_symmetry_group_IT_number 15
_symmetry_cell_setting 'monoclinic'
loop_
_space_group_symop_operation_xyz
x,y,z
-x,y,1/2-z
-x,-y,-z
x,-y,1/2+z
1/2+x,1/2+y,z
1/2-x,1/2+y,1/2-z
1/2-x,1/2-y,-z
1/2+x,1/2-y,1/2+z
loop_
_atom_site_type_symbol
_atom_site_label
_atom_site_fract_x
_atom_site_fract_y
_atom_site_fract_z
Si Si1 0.739679 0.457000 0.462939
Si Si2 0.686512 0.571402 0.268795
Si Si3 0.895480 0.941883 0.003287
Si Si4 0.398174 0.793358 0.209600
Si Si5 0.320986 0.933439 0.978027
Si Si6 0.887129 0.829266 0.138300
Si Si7 0.400401 0.789276 0.450217
O O1 0.575103 0.429425 0.728116
O O2 0.698564 0.466401 0.437081
O O3 0.866492 0.384116 0.282070
O O4 0.797315 0.533648 0.430555
O O5 0.615672 0.520380 0.430910
O O6 0.545452 0.617383 0.425923
O O7 0.764749 0.508710 0.105750
O O8 0.806747 0.642300 0.123363
O O9 0.822377 0.867645 0.153317
O O10 0.463789 0.749219 0.189954
O O11 0.234468 0.765180 0.400445
O O12 0.544110 0.762933 0.957562
O O13 0.500000 0.917111 0.750000
O O14 0.220434 0.856310 0.146648
O O15 0.500000 0.831113 0.250000
#
# Coordination Sequence:
#
# PCOD9260330 Si02
#       7
#     8   8   8   8   8   8   8
#     4  11  21  34  57  92 120 152 204 264 310 357
#     4  10  18  37  56  84 122 167 201 255 312 377
#     4  10  20  34  57  86 123 154 201 257 319 358
#     4  11  24  36  56  89 127 163 197 253 318 378
#     4  11  20  36  59  85 119 163 216 253 299 375
#     4  10  20  37  55  83 127 172 201 244 319 383
#     4  11  23  35  57  89 126 158 205 251 314 376
#
# _framework density 21.405028999999999
#
# number of rings (size 3 to 8) (size 9 to 14) (size 15 to 20)
#    0.000    1.429    2.857    4.286    6.000    0.000 
#    0.000    7.857    0.000    0.000    3.714   11.000 
#    0.000    0.000    0.000    0.143    0.000    0.000 
#
# Total GULP energy -155905.977668 kJ/mol
# GULP energy per Si atom -5568.070631 kJ/mol
# Density = 2.135631 g / cm^3
# Si number density = 21.405029 Si / 1000 Ang^3
#
#
#
# Elastic Constant Matrix: (Units=GPa)
#
#
# Indices 1 2 3 4 5 6 
#
# 1 130.1570 25.2358 25.9921 -0.0006 -11.8036 0.0002
# 2 25.2358 44.8196 21.5829 0.0003 12.2897 0.0000
# 3 25.9921 21.5829 62.0059 -0.0005 -10.3591 0.0005
# 4 -0.0006 0.0003 -0.0005 41.5398 0.0008 11.3352
# 5 -11.8036 12.2897 -10.3591 0.0008 32.4793 -0.0003
# 6 0.0002 0.0000 0.0005 11.3352 -0.0003 15.6166
#
#
#
# Elastic Compliance Matrix: (Units=1/GPa)
#
#
# Indices 1 2 3 4 5 6 
#
# 1 0.009649 -0.006649 -0.000765 0.000000 0.005778 0.000000
# 2 -0.006649 0.038958 -0.014407 0.000000 -0.021753 0.000000
# 3 -0.000765 -0.014407 0.023584 0.000000 0.012696 -0.000001
# 4 0.000000 0.000000 0.000000 0.030019 -0.000001 -0.021789
# 5 0.005778 -0.021753 0.012696 -0.000001 0.045169 0.000001
# 6 0.000000 0.000000 -0.000001 -0.021789 0.000001 0.079850
#
#
# Mechanical properties :
#
#
# Convention : Reuss Voigt Hill
#
# Bulk Modulus (GPa) = 35.02839 42.51156 38.76998
# Shear Modulus (GPa) = 17.83249 28.87193 23.35221
#
# Velocity S-wave (km/s) = 2.88948 3.67664 3.30656
# Velocity P-wave (km/s) = 5.24711 6.15851 5.72099
#
# Compressibility (1/GPa) = 0.02854827
#
# Stress axis : x y z
#
# Youngs Moduli (GPa) = 103.63793 25.66878 42.40156
#
# Poissons Ratio (x) = 0.17067 0.03244
# Poissons Ratio (y) = 0.68909 0.61089
# Poissons Ratio (z) = 0.07928 0.36982
#
# Static dielectric constant tensor:
#      x y z
#    x 1.892460 0.000000 -0.027090 
#    y 0.000000 1.848100 0.000000 
#    z -0.027090 0.000000 1.785280 
# 
# From -- ./inp_files/222925.got.cif
#   From: 2010.05.17/outbox.cif.g08.bks.cpg/sg15_112_cif.got.tgz:222925.got - 2010.06.03 18:47:42.
