data_PCOD9260581
_publ_section_title
;
Structure prediction by ZEFSAII (Michael W. Deem and Ramdas Pophale) SiO2 
 PCOD9260581
Probable space group: C 2/C
;
_chemical_formula_sum "Si O2"
_cell_formula_units_Z 52
_cell_length_a 8.513089
_cell_length_b 13.257023
_cell_length_c 22.983846
_cell_angle_alpha 90.000000
_cell_angle_beta 117.285770
_cell_angle_gamma 90.000000
_cell_volume 2305.293747
_symmetry_space_group_name_H-M "C 2/C"
_symmetry_group_IT_number 15
_symmetry_cell_setting 'monoclinic'
loop_
_space_group_symop_operation_xyz
x,y,z
-x,y,1/2-z
-x,-y,-z
x,-y,1/2+z
1/2+x,1/2+y,z
1/2-x,1/2+y,1/2-z
1/2-x,1/2-y,-z
1/2+x,1/2-y,1/2+z
loop_
_atom_site_type_symbol
_atom_site_label
_atom_site_fract_x
_atom_site_fract_y
_atom_site_fract_z
Si Si1 0.327761 0.362125 0.956488
Si Si2 0.000000 0.228343 0.750000
Si Si3 0.928815 0.081194 0.175437
Si Si4 0.623375 0.235549 0.645441
Si Si5 0.525574 0.554053 0.592243
Si Si6 0.584295 0.906386 0.322666
Si Si7 0.544284 0.881258 0.651415
O O1 0.363618 0.269791 0.918982
O O2 0.406945 0.459833 0.935825
O O3 0.116778 0.373341 0.921374
O O4 0.420420 0.367571 0.034505
O O5 0.195450 0.186392 0.798744
O O6 0.030802 0.295836 0.697863
O O7 0.733659 0.122572 0.153764
O O8 0.000000 0.046135 0.250000
O O9 0.066317 0.164188 0.172736
O O10 0.916109 0.992643 0.126271
O O11 0.466806 0.158609 0.630314
O O12 0.707178 0.594171 0.649312
O O13 0.500000 0.862162 0.250000
O O14 0.498411 0.015549 0.320341
#
# Coordination Sequence:
#
# PCOD9260581 Si02
#       7
#     8   4   8   8   8   8   8
#     4   8  18  37  58  79 106 160 186 226 269 339
#     4  10  18  38  52  78 108 154 180 240 266 350
#     4  11  19  33  57  85 108 150 186 237 272 341
#     4  10  21  35  57  82 113 145 190 225 294 325
#     4   9  19  36  57  80 115 145 195 223 274 332
#     4  11  21  35  53  85 114 147 176 240 285 332
#     4  10  19  34  59  78 113 143 193 227 280 325
#
# _framework density 22.556778999999999
#
# number of rings (size 3 to 8) (size 9 to 14) (size 15 to 20)
#    0.000    2.154    2.308    2.308    0.000    1.231 
#    4.154    0.000    0.000    1.846    0.000    0.000 
#    0.000    0.000    0.000    0.000    0.000    0.000 
#
# Total GULP energy -145261.631332 kJ/mol
# GULP energy per Si atom -5586.985820 kJ/mol
# Density = 2.250544 g / cm^3
# Si number density = 22.556779 Si / 1000 Ang^3
#
#
#
# Elastic Constant Matrix: (Units=GPa)
#
#
# Indices 1 2 3 4 5 6 
#
# 1 108.3595 -4.0233 20.1117 0.0000 -0.9079 0.0000
# 2 -4.0233 21.0412 -2.0612 0.0000 -8.4764 0.0000
# 3 20.1117 -2.0612 69.3650 0.0000 -7.0339 0.0000
# 4 0.0000 0.0000 0.0000 -7.7293 0.0000 -17.9950
# 5 -0.9079 -8.4764 -7.0339 0.0000 17.2774 0.0000
# 6 0.0000 0.0000 0.0000 -17.9950 0.0000 9.9716
#
#
#
# Elastic Compliance Matrix: (Units=1/GPa)
#
#
# Indices 1 2 3 4 5 6 
#
# 1 0.009808 0.001691 -0.002771 0.000000 0.000217 0.000000
# 2 0.001691 0.061172 0.004568 0.000000 0.031960 0.000000
# 3 -0.002771 0.004568 0.016239 0.000000 0.008707 0.000000
# 4 0.000000 0.000000 0.000000 -0.024873 0.000000 -0.044887
# 5 0.000217 0.031960 0.008707 0.000000 0.077115 0.000000
# 6 0.000000 0.000000 0.000000 -0.044887 0.000000 0.019280
#
#
# Mechanical properties :
#
#
# Convention : Reuss Voigt Hill
#
# Bulk Modulus (GPa) = 10.61638 25.20225 17.90931
# Shear Modulus (GPa) = 27.29828 16.21983 21.75906
#
# Velocity S-wave (km/s) = 3.48257 2.68445 3.10923
# Velocity P-wave (km/s) = 4.57032 4.56130 4.56581
#
# Compressibility (1/GPa) = 0.09419408
#
# Stress axis : x y z
#
# Youngs Moduli (GPa) = 101.96264 16.34742 61.58145
#
# Poissons Ratio (x) = -0.02765 0.17066
# Poissons Ratio (y) = -0.17243 -0.28132
# Poissons Ratio (z) = 0.28257 -0.07468
#
# Static dielectric constant tensor:
#      x y z
#    x 1.809890 0.000000 -0.001590 
#    y 0.000000 1.894250 0.000000 
#    z -0.001590 0.000000 1.823450 
# 
# From -- ./inp_files/231158.got.cif
#   From: 2010.05.17/outbox.cif.g08.bks.cpg/sg15_116_cif.got.tgz:231158.got - 2010.06.03 18:47:42.
