data_PCOD9260823
_publ_section_title
;
Structure prediction by ZEFSAII (Michael W. Deem and Ramdas Pophale) SiO2 
 PCOD9260823
Probable space group: C 2/C
;
_chemical_formula_sum "Si O2"
_cell_formula_units_Z 64
_cell_length_a 12.857852
_cell_length_b 29.049566
_cell_length_c 16.911716
_cell_angle_alpha 90.000000
_cell_angle_beta 26.155308
_cell_angle_gamma 90.000000
_cell_volume 2784.473469
_symmetry_space_group_name_H-M "C 2/C"
_symmetry_group_IT_number 15
_symmetry_cell_setting 'monoclinic'
loop_
_space_group_symop_operation_xyz
x,y,z
-x,y,1/2-z
-x,-y,-z
x,-y,1/2+z
1/2+x,1/2+y,z
1/2-x,1/2+y,1/2-z
1/2-x,1/2-y,-z
1/2+x,1/2-y,1/2+z
loop_
_atom_site_type_symbol
_atom_site_label
_atom_site_fract_x
_atom_site_fract_y
_atom_site_fract_z
Si Si1 0.238440 0.353556 0.540988
Si Si2 0.130619 0.222825 0.435971
Si Si3 0.945560 0.936925 0.193693
Si Si4 0.496643 0.179230 0.442282
Si Si5 0.906510 0.877548 0.726130
Si Si6 0.864909 0.963892 0.971674
Si Si7 0.283381 0.831872 0.349233
Si Si8 0.587605 0.928462 0.311116
O O1 0.305287 0.302735 0.526080
O O2 0.435818 0.391018 0.423667
O O3 0.000000 0.367250 0.750000
O O4 0.181369 0.350907 0.487647
O O5 0.319442 0.202073 0.245799
O O6 0.134998 0.277505 0.431142
O O7 0.869072 0.205415 0.592812
O O8 0.000000 0.935934 0.250000
O O9 0.685357 0.938183 0.331971
O O10 0.075780 0.983134 0.076645
O O11 0.657932 0.147482 0.386136
O O12 0.000000 0.871599 0.750000
O O13 0.912199 0.931017 0.697648
O O14 0.095319 0.854423 0.537984
O O15 0.761668 0.952737 0.128488
O O16 0.667507 0.947313 0.042016
O O17 0.500000 0.810910 0.250000
O O18 0.388613 0.874308 0.226983
#
# Coordination Sequence:
#
# PCOD9260823 Si02
#       8
#     8   8   8   8   8   8   8   8
#     4  10  23  41  63  86 126 165 207 253 308 377
#     4  10  21  40  62  89 120 160 206 256 307 375
#     4  12  26  39  62 100 128 161 211 266 311 372
#     4  10  23  39  62  90 122 162 205 256 313 371
#     4  10  21  37  59  89 123 156 199 259 317 359
#     4  10  22  40  66  90 123 170 213 254 315 372
#     4  10  18  38  65  84 115 163 209 250 305 378
#     4  10  20  41  65  88 119 171 212 250 311 379
#
# _framework density 22.984597000000001
#
# number of rings (size 3 to 8) (size 9 to 14) (size 15 to 20)
#    0.000    1.750    3.750    1.125    3.500    5.000 
#    0.000    2.500    0.000    0.000    0.000    0.000 
#    0.000    0.000    0.000    0.000    0.000    0.000 
#
# Total GULP energy -178989.998472 kJ/mol
# GULP energy per Si atom -5593.437452 kJ/mol
# Density = 2.293228 g / cm^3
# Si number density = 22.984597 Si / 1000 Ang^3
#
#
#
# Elastic Constant Matrix: (Units=GPa)
#
#
# Indices 1 2 3 4 5 6 
#
# 1 114.2772 12.9565 19.6195 -0.0160 -13.6119 0.0129
# 2 12.9565 91.7462 25.6828 -0.0062 -1.6978 0.0062
# 3 19.6195 25.6828 50.5264 -0.0006 -4.1044 -0.0026
# 4 -0.0160 -0.0062 -0.0006 28.9019 0.0143 -6.6594
# 5 -13.6119 -1.6978 -4.1044 0.0143 32.2038 -0.0030
# 6 0.0129 0.0062 -0.0026 -6.6594 -0.0030 13.8222
#
#
#
# Elastic Compliance Matrix: (Units=1/GPa)
#
#
# Indices 1 2 3 4 5 6 
#
# 1 0.009804 -0.000390 -0.003308 0.000002 0.003702 -0.000008
# 2 -0.000390 0.012724 -0.006341 0.000001 -0.000302 -0.000006
# 3 -0.003308 -0.006341 0.024411 -0.000001 0.001379 0.000010
# 4 0.000002 0.000001 -0.000001 0.038921 -0.000015 0.018752
# 5 0.003702 -0.000302 0.001379 -0.000015 0.032777 -0.000003
# 6 -0.000008 -0.000006 0.000010 0.018752 -0.000003 0.081382
#
#
# Mechanical properties :
#
#
# Convention : Reuss Voigt Hill
#
# Bulk Modulus (GPa) = 37.22789 41.45193 39.33991
# Shear Modulus (GPa) = 21.82935 28.20496 25.01716
#
# Velocity S-wave (km/s) = 3.08513 3.50683 3.30272
# Velocity P-wave (km/s) = 5.37798 5.87120 5.63000
#
# Compressibility (1/GPa) = 0.02686158
#
# Stress axis : x y z
#
# Youngs Moduli (GPa) = 102.00234 78.59079 40.96482
#
# Poissons Ratio (x) = 0.03065 0.13551
# Poissons Ratio (y) = 0.03978 0.25975
# Poissons Ratio (z) = 0.33741 0.49833
#
# Static dielectric constant tensor:
#      x y z
#    x 1.877480 -0.000010 0.034210 
#    y -0.000010 1.828170 0.000010 
#    z 0.034210 0.000010 1.863220 
# 
# From -- ./inp_files/201472.got.cif
#   From: 2010.05.17/outbox.cif.g08.bks.cpg/sg15_101_cif.got.tgz:201472.got - 2010.06.03 18:47:42.
