data_PCOD9260678
_publ_section_title
;
Structure prediction by ZEFSAII (Michael W. Deem and Ramdas Pophale) SiO2 
 PCOD9260678
Probable space group: C 2/C
;
_chemical_formula_sum "Si O2"
_cell_formula_units_Z 36
_cell_length_a 18.395774
_cell_length_b 14.966204
_cell_length_c 5.106993
_cell_angle_alpha 90.000000
_cell_angle_beta 81.610818
_cell_angle_gamma 90.000000
_cell_volume 1390.986620
_symmetry_space_group_name_H-M "C 2/C"
_symmetry_group_IT_number 15
_symmetry_cell_setting 'monoclinic'
loop_
_space_group_symop_operation_xyz
x,y,z
-x,y,1/2-z
-x,-y,-z
x,-y,1/2+z
1/2+x,1/2+y,z
1/2-x,1/2+y,1/2-z
1/2-x,1/2-y,-z
1/2+x,1/2-y,1/2+z
loop_
_atom_site_type_symbol
_atom_site_label
_atom_site_fract_x
_atom_site_fract_y
_atom_site_fract_z
Si Si1 0.500000 0.123796 0.750000
Si Si2 0.382654 0.441147 0.348534
Si Si3 0.218033 0.625716 0.839037
Si Si4 0.603429 0.249110 0.046531
Si Si5 0.634522 0.103156 0.380512
O O1 0.452728 0.186426 0.580706
O O2 0.560037 0.069148 0.551505
O O3 0.396695 0.483543 0.058349
O O4 0.298500 0.404620 0.373559
O O5 0.421136 0.350198 0.421568
O O6 0.184338 0.726422 0.880836
O O7 0.163949 0.577025 0.078633
O O8 0.200424 0.601705 0.550965
O O9 0.613174 0.207369 0.330751
#
# Coordination Sequence:
#
# PCOD9260678 Si02
#       5
#     4   8   8   8   8
#     4  10  18  38  60  98 116 148 204 266 278 344
#     4  12  26  39  58  88 130 163 196 239 298 361
#     4   9  20  38  60  88 113 157 200 250 296 348
#     4   9  22  37  64  88 121 156 203 246 296 345
#     4   9  19  33  66  84 115 145 200 251 300 329
#
# _framework density 25.880911000000001
#
# number of rings (size 3 to 8) (size 9 to 14) (size 15 to 20)
#    1.333    0.889    0.000    2.667    6.222    0.889 
#    0.000    1.111    0.000    0.000    0.000   82.444 
#    0.000    0.000    0.000    0.000    0.000    0.000 
#
# Total GULP energy -100443.363653 kJ/mol
# GULP energy per Si atom -5580.186870 kJ/mol
# Density = 2.582200 g / cm^3
# Si number density = 25.880911 Si / 1000 Ang^3
#
#
#
# Elastic Constant Matrix: (Units=GPa)
#
#
# Indices 1 2 3 4 5 6 
#
# 1 68.8444 -12.8141 21.3329 0.0000 8.5425 0.0000
# 2 -12.8141 86.3629 -1.4458 0.0000 14.7763 0.0000
# 3 21.3329 -1.4458 121.1431 0.0000 34.2980 0.0000
# 4 0.0000 0.0000 0.0000 55.8469 0.0000 35.4683
# 5 8.5425 14.7763 34.2980 0.0000 32.5167 0.0000
# 6 0.0000 0.0000 0.0000 35.4683 0.0000 40.8905
#
#
#
# Elastic Compliance Matrix: (Units=1/GPa)
#
#
# Indices 1 2 3 4 5 6 
#
# 1 0.016088 0.003002 -0.001731 0.000000 -0.003764 0.000000
# 2 0.003002 0.013678 0.002306 0.000000 -0.009437 0.000000
# 3 -0.001731 0.002306 0.012483 0.000000 -0.013760 0.000000
# 4 0.000000 0.000000 0.000000 0.039870 0.000000 -0.034583
# 5 -0.003764 -0.009437 -0.013760 0.000000 0.050544 0.000000
# 6 0.000000 0.000000 0.000000 -0.034583 0.000000 0.054452
#
#
# Mechanical properties :
#
#
# Convention : Reuss Voigt Hill
#
# Bulk Modulus (GPa) = 20.24190 32.27738 26.25964
# Shear Modulus (GPa) = 25.45462 43.80266 34.62864
#
# Velocity S-wave (km/s) = 3.13953 4.11843 3.66184
# Velocity P-wave (km/s) = 4.58043 5.92569 5.29595
#
# Compressibility (1/GPa) = 0.04940247
#
# Stress axis : x y z
#
# Youngs Moduli (GPa) = 62.15841 73.11177 80.11047
#
# Poissons Ratio (x) = -0.21949 0.13870
# Poissons Ratio (y) = -0.18661 -0.18476
# Poissons Ratio (z) = 0.10762 -0.16862
#
# Static dielectric constant tensor:
#      x y z
#    x 2.064170 0.000000 -0.070480 
#    y 0.000000 2.159180 0.000000 
#    z -0.070480 0.000000 2.020460 
# 
# From -- ./inp_files/12697.got.cif
#   From: 2010.05.17/outbox.cif.g08.bks.cpg/sg15_7_cif.got.tgz:12697.got - 2010.06.03 18:47:42.
