data_PCOD9260365
_publ_section_title
;
Structure prediction by ZEFSAII (Michael W. Deem and Ramdas Pophale) SiO2 
 PCOD9260365
Probable space group: C 2/C
;
_chemical_formula_sum "Si O2"
_cell_formula_units_Z 48
_cell_length_a 8.803186
_cell_length_b 14.733430
_cell_length_c 17.063237
_cell_angle_alpha 90.000000
_cell_angle_beta 89.098735
_cell_angle_gamma 90.000000
_cell_volume 2212.847235
_symmetry_space_group_name_H-M "C 2/C"
_symmetry_group_IT_number 15
_symmetry_cell_setting 'monoclinic'
loop_
_space_group_symop_operation_xyz
x,y,z
-x,y,1/2-z
-x,-y,-z
x,-y,1/2+z
1/2+x,1/2+y,z
1/2-x,1/2+y,1/2-z
1/2-x,1/2-y,-z
1/2+x,1/2-y,1/2+z
loop_
_atom_site_type_symbol
_atom_site_label
_atom_site_fract_x
_atom_site_fract_y
_atom_site_fract_z
Si Si1 0.267852 0.189672 0.076489
Si Si2 0.171871 0.096341 0.556510
Si Si3 0.808689 0.428782 0.794380
Si Si4 0.579619 0.985752 0.879526
Si Si5 0.469349 0.264294 0.329755
Si Si6 0.025045 0.920751 0.892396
O O1 0.372143 0.099208 0.066202
O O2 0.364255 0.244734 0.138236
O O3 0.105362 0.155188 0.107678
O O4 0.250000 0.250000 0.000000
O O5 0.122780 0.185289 0.602884
O O6 0.135381 0.101029 0.465225
O O7 0.342150 0.070465 0.579942
O O8 0.063486 0.014420 0.588871
O O9 0.842205 0.463811 0.706332
O O10 0.881526 0.328531 0.806912
O O11 0.633404 0.427477 0.817221
O O12 0.904171 0.489034 0.856498
O O13 0.500000 0.319233 0.250000
#
# Coordination Sequence:
#
# PCOD9260365 Si02
#       6
#     8   8   8   8   8   8
#     4  10  18  37  59  83 118 159 195 245 296 361
#     4  10  22  37  58  91 120 153 202 252 301 369
#     4  10  20  40  61  82 117 168 199 244 307 368
#     4   9  20  39  58  83 124 160 197 246 314 358
#     4  11  21  39  61  88 119 160 203 254 305 359
#     4  10  22  37  61  90 118 159 204 242 312 369
#
# _framework density 21.691511999999999
#
# number of rings (size 3 to 8) (size 9 to 14) (size 15 to 20)
#    0.000    2.000    5.000    0.000    2.333    3.333 
#    0.000    1.667    0.000    0.000    0.000    0.000 
#    0.000    0.000    0.000    0.000    0.000    0.000 
#
# Total GULP energy -134016.300881 kJ/mol
# GULP energy per Si atom -5584.012537 kJ/mol
# Density = 2.164214 g / cm^3
# Si number density = 21.691512 Si / 1000 Ang^3
#
#
#
# Elastic Constant Matrix: (Units=GPa)
#
#
# Indices 1 2 3 4 5 6 
#
# 1 103.6329 12.9254 29.6946 0.0000 8.1881 0.0000
# 2 12.9254 25.6080 13.1588 0.0000 12.2823 0.0000
# 3 29.6946 13.1588 64.7412 0.0000 23.8731 0.0000
# 4 0.0000 0.0000 0.0000 5.0279 0.0000 8.8098
# 5 8.1881 12.2823 23.8731 0.0000 40.2891 0.0000
# 6 0.0000 0.0000 0.0000 8.8098 0.0000 22.9936
#
#
#
# Elastic Compliance Matrix: (Units=1/GPa)
#
#
# Indices 1 2 3 4 5 6 
#
# 1 0.011483 -0.004089 -0.005163 0.000000 0.001972 0.000000
# 2 -0.004089 0.048670 -0.003650 0.000000 -0.011844 0.000000
# 3 -0.005163 -0.003650 0.022724 0.000000 -0.011303 0.000000
# 4 0.000000 0.000000 0.000000 0.605149 0.000000 -0.231858
# 5 0.001972 -0.011844 -0.011303 0.000000 0.034728 0.000000
# 6 0.000000 0.000000 0.000000 -0.231858 0.000000 0.132325
#
#
# Mechanical properties :
#
#
# Convention : Reuss Voigt Hill
#
# Bulk Modulus (GPa) = 17.52101 33.94885 25.73493
# Shear Modulus (GPa) = 5.55614 22.87567 14.21590
#
# Velocity S-wave (km/s) = 1.60218 3.25097 2.56279
# Velocity P-wave (km/s) = 3.39375 5.45678 4.54390
#
# Compressibility (1/GPa) = 0.05707433
#
# Stress axis : x y z
#
# Youngs Moduli (GPa) = 87.08539 20.54654 44.00649
#
# Poissons Ratio (x) = 0.08401 0.22721
# Poissons Ratio (y) = 0.35607 0.16060
# Poissons Ratio (z) = 0.44962 0.07499
#
# Static dielectric constant tensor:
#      x y z
#    x 1.806470 0.000000 -0.001600 
#    y 0.000000 1.818790 0.000000 
#    z -0.001600 0.000000 1.810080 
# 
# From -- ./inp_files/189949.got.cif
#   From: 2010.05.17/outbox.cif.g08.bks.cpg/sg15_95_cif.got.tgz:189949.got - 2010.06.03 18:47:42.
