data_PCOD9260745
_publ_section_title
;
Structure prediction by ZEFSAII (Michael W. Deem and Ramdas Pophale) SiO2 
 PCOD9260745
Probable space group: C 2/C
;
_chemical_formula_sum "Si O2"
_cell_formula_units_Z 40
_cell_length_a 13.247420
_cell_length_b 21.738153
_cell_length_c 5.240042
_cell_angle_alpha 90.000000
_cell_angle_beta 87.148878
_cell_angle_gamma 90.000000
_cell_volume 1507.130267
_symmetry_space_group_name_H-M "C 2/C"
_symmetry_group_IT_number 15
_symmetry_cell_setting 'monoclinic'
loop_
_space_group_symop_operation_xyz
x,y,z
-x,y,1/2-z
-x,-y,-z
x,-y,1/2+z
1/2+x,1/2+y,z
1/2-x,1/2+y,1/2-z
1/2-x,1/2-y,-z
1/2+x,1/2-y,1/2+z
loop_
_atom_site_type_symbol
_atom_site_label
_atom_site_fract_x
_atom_site_fract_y
_atom_site_fract_z
Si Si1 0.871340 0.669158 0.957098
Si Si2 0.500000 0.069173 0.250000
Si Si3 0.000000 0.774904 0.750000
Si Si4 0.684126 0.072357 0.923744
Si Si5 0.130680 0.965589 0.382594
Si Si6 0.830391 0.859495 0.782608
O O1 0.928522 0.614458 0.095618
O O2 0.761468 0.679278 0.089809
O O3 0.853392 0.638327 0.682439
O O4 0.939329 0.729203 0.941850
O O5 0.416130 0.040315 0.451498
O O6 0.086518 0.817636 0.860103
O O7 0.746722 0.038783 0.689675
O O8 0.771361 0.091720 0.113793
O O9 0.113830 0.897882 0.499390
O O10 0.095582 0.010436 0.613812
#
# Coordination Sequence:
#
# PCOD9260745 Si02
#       6
#     8   4   4   8   8   8
#     4  10  21  40  62  96 142 186 218 278 342 402
#     4  10  18  38  62  95 141 180 222 276 336 408
#     4  12  22  44  64 103 139 188 228 274 340 416
#     4  10  20  40  68  97 133 184 225 284 337 412
#     4  11  22  45  73  97 133 183 227 293 357 395
#     4  10  24  41  68 101 140 175 236 280 339 413
#
# _framework density 26.540505
#
# number of rings (size 3 to 8) (size 9 to 14) (size 15 to 20)
#    0.000    1.600    4.000    0.600    0.000    0.800 
#    7.200    2.000    0.000    0.000    0.000    0.000 
#    0.000    0.000    0.000    0.000    0.000    0.000 
#
# Total GULP energy -111794.343201 kJ/mol
# GULP energy per Si atom -5589.717160 kJ/mol
# Density = 2.648010 g / cm^3
# Si number density = 26.540505 Si / 1000 Ang^3
#
#
#
# Elastic Constant Matrix: (Units=GPa)
#
#
# Indices 1 2 3 4 5 6 
#
# 1 141.0294 55.0430 45.9686 0.0000 -26.9216 0.0000
# 2 55.0430 90.9719 33.6638 0.0000 -16.2644 0.0000
# 3 45.9686 33.6638 124.2556 0.0000 -12.3569 0.0000
# 4 0.0000 0.0000 0.0000 -14.0361 0.0000 14.5354
# 5 -26.9216 -16.2644 -12.3569 0.0000 50.8261 0.0000
# 6 0.0000 0.0000 0.0000 14.5354 0.0000 36.1297
#
#
#
# Elastic Compliance Matrix: (Units=1/GPa)
#
#
# Indices 1 2 3 4 5 6 
#
# 1 0.010338 -0.004843 -0.002175 0.000000 0.003398 0.000000
# 2 -0.004843 0.015010 -0.002103 0.000000 0.001726 0.000000
# 3 -0.002175 -0.002103 0.009470 0.000000 0.000477 0.000000
# 4 0.000000 0.000000 0.000000 -0.050292 0.000000 0.020233
# 5 0.003398 0.001726 0.000477 0.000000 0.022143 0.000000
# 6 0.000000 0.000000 0.000000 0.020233 0.000000 0.019538
#
#
# Mechanical properties :
#
#
# Convention : Reuss Voigt Hill
#
# Bulk Modulus (GPa) = 60.32828 69.51195 64.92012
# Shear Modulus (GPa) = 100.05180 29.35603 64.70392
#
# Velocity S-wave (km/s) = 6.14651 3.32939 4.94290
# Velocity P-wave (km/s) = 8.55294 6.40528 7.55580
#
# Compressibility (1/GPa) = 0.01657597
#
# Stress axis : x y z
#
# Youngs Moduli (GPa) = 96.72702 66.62378 105.59981
#
# Poissons Ratio (x) = 0.32267 0.22965
# Poissons Ratio (y) = 0.46846 0.22208
# Poissons Ratio (z) = 0.21035 0.14011
#
# Static dielectric constant tensor:
#      x y z
#    x 2.121430 0.000000 0.040910 
#    y 0.000000 2.063030 0.000000 
#    z 0.040910 0.000000 2.175430 
# 
# From -- ./inp_files/7312.got.cif
#   From: 2010.05.17/outbox.cif.g08.bks.cpg/sg15_4_cif.got.tgz:7312.got - 2010.06.03 18:47:42.
