data_PCOD9260448
_publ_section_title
;
Structure prediction by ZEFSAII (Michael W. Deem and Ramdas Pophale) SiO2 
 PCOD9260448
Probable space group: C 2/C
;
_chemical_formula_sum "Si O2"
_cell_formula_units_Z 64
_cell_length_a 14.992282
_cell_length_b 14.717668
_cell_length_c 16.857549
_cell_angle_alpha 90.000000
_cell_angle_beta 136.156986
_cell_angle_gamma 90.000000
_cell_volume 2576.539779
_symmetry_space_group_name_H-M "C 2/C"
_symmetry_group_IT_number 15
_symmetry_cell_setting 'monoclinic'
loop_
_space_group_symop_operation_xyz
x,y,z
-x,y,1/2-z
-x,-y,-z
x,-y,1/2+z
1/2+x,1/2+y,z
1/2-x,1/2+y,1/2-z
1/2-x,1/2-y,-z
1/2+x,1/2-y,1/2+z
loop_
_atom_site_type_symbol
_atom_site_label
_atom_site_fract_x
_atom_site_fract_y
_atom_site_fract_z
Si Si1 0.389042 0.735661 0.879988
Si Si2 0.108246 0.888004 0.494646
Si Si3 0.601584 0.995229 0.192766
Si Si4 0.111728 0.356100 0.478770
Si Si5 0.877496 0.014830 0.330368
Si Si6 0.779497 0.638229 0.614334
Si Si7 0.128278 0.315888 0.789119
Si Si8 0.943899 0.801905 0.789526
O O1 0.342202 0.651730 0.906264
O O2 0.325995 0.747924 0.752611
O O3 0.536039 0.707598 0.961706
O O4 0.364950 0.825086 0.916965
O O5 0.124245 0.958523 0.577420
O O6 0.257102 0.853456 0.580293
O O7 0.993760 0.947742 0.376801
O O8 0.478800 0.943558 0.079943
O O9 0.634818 0.941215 0.295496
O O10 0.730009 0.983356 0.221131
O O11 0.581013 0.097486 0.207060
O O12 0.222118 0.368739 0.481834
O O13 0.033979 0.267339 0.396018
O O14 0.894134 0.116571 0.308859
O O15 0.851045 0.730456 0.686250
O O16 0.000000 0.279714 0.750000
O O17 0.000000 0.852687 0.750000
#
# Coordination Sequence:
#
# PCOD9260448 Si02
#       8
#     8   8   8   8   8   8   8   8
#     4  12  23  39  65  94 121 164 211 256 316 363
#     4  10  22  38  64  87 116 160 210 257 302 367
#     4  10  20  38  64  91 126 166 199 246 314 373
#     4  10  21  35  61  94 134 155 200 250 312 386
#     4  10  18  37  62  91 121 160 213 243 299 377
#     4  10  19  36  61  97 130 162 195 249 315 378
#     4  11  26  45  63  86 122 168 215 260 307 364
#     4   9  18  34  58  92 130 160 194 257 310 359
#
# _framework density 24.839516
#
# number of rings (size 3 to 8) (size 9 to 14) (size 15 to 20)
#    0.000    1.750    2.500    3.750    1.750    1.000 
#    0.000    1.875    0.000    0.000    0.000    0.000 
#    0.000    0.000    0.000    0.000    0.000    0.000 
#
# Total GULP energy -178158.722788 kJ/mol
# GULP energy per Si atom -5567.460087 kJ/mol
# Density = 2.478298 g / cm^3
# Si number density = 24.839516 Si / 1000 Ang^3
#
#
#
# Elastic Constant Matrix: (Units=GPa)
#
#
# Indices 1 2 3 4 5 6 
#
# 1 87.4399 12.1302 24.7378 0.0000 9.4890 0.0000
# 2 12.1302 70.9595 3.8184 0.0000 -5.4232 0.0000
# 3 24.7378 3.8184 50.0504 0.0000 9.2204 0.0000
# 4 0.0000 0.0000 0.0000 31.0079 0.0000 21.3195
# 5 9.4890 -5.4232 9.2204 0.0000 27.8968 0.0000
# 6 0.0000 0.0000 0.0000 21.3195 0.0000 10.7465
#
#
#
# Elastic Compliance Matrix: (Units=1/GPa)
#
#
# Indices 1 2 3 4 5 6 
#
# 1 0.013810 -0.002273 -0.006076 0.000000 -0.003131 0.000000
# 2 -0.002273 0.014818 -0.000724 0.000000 0.003893 0.000000
# 3 -0.006076 -0.000724 0.024154 0.000000 -0.006058 0.000000
# 4 0.000000 0.000000 0.000000 -0.088598 0.000000 0.175765
# 5 -0.003131 0.003893 -0.006058 0.000000 0.039670 0.000000
# 6 0.000000 0.000000 0.000000 0.175765 0.000000 -0.255639
#
#
# Mechanical properties :
#
#
# Convention : Reuss Voigt Hill
#
# Bulk Modulus (GPa) = 28.87157 32.20252 30.53704
# Shear Modulus (GPa) = -22.51311 25.11449 1.30069
#
# Velocity S-wave (km/s) = -3.01382 3.18318 0.72441
# Velocity P-wave (km/s) = 0.67995 5.14806 3.60834
#
# Compressibility (1/GPa) = 0.03463615
#
# Stress axis : x y z
#
# Youngs Moduli (GPa) = 72.40890 67.48706 41.40110
#
# Poissons Ratio (x) = 0.15341 0.25154
# Poissons Ratio (y) = 0.16460 0.02998
# Poissons Ratio (z) = 0.43993 0.04887
#
# Static dielectric constant tensor:
#      x y z
#    x 2.204000 0.000000 0.034090 
#    y 0.000000 1.956870 0.000000 
#    z 0.034090 0.000000 2.093950 
# 
# From -- ./inp_files/205740.got.cif
#   From: 2010.05.17/outbox.cif.g08.bks.cpg/sg15_103_cif.got.tgz:205740.got - 2010.06.03 18:47:42.
