data_PCOD9260185
_publ_section_title
;
Structure prediction by ZEFSAII (Michael W. Deem and Ramdas Pophale) SiO2 
 PCOD9260185
Probable space group: C 2/C
;
_chemical_formula_sum "Si O2"
_cell_formula_units_Z 44
_cell_length_a 22.798793
_cell_length_b 9.692941
_cell_length_c 13.689551
_cell_angle_alpha 90.000000
_cell_angle_beta 129.044804
_cell_angle_gamma 90.000000
_cell_volume 2349.546225
_symmetry_space_group_name_H-M "C 2/C"
_symmetry_group_IT_number 15
_symmetry_cell_setting 'monoclinic'
loop_
_space_group_symop_operation_xyz
x,y,z
-x,y,1/2-z
-x,-y,-z
x,-y,1/2+z
1/2+x,1/2+y,z
1/2-x,1/2+y,1/2-z
1/2-x,1/2-y,-z
1/2+x,1/2-y,1/2+z
loop_
_atom_site_type_symbol
_atom_site_label
_atom_site_fract_x
_atom_site_fract_y
_atom_site_fract_z
Si Si1 0.926249 0.910664 0.894817
Si Si2 0.511600 0.154221 0.045983
Si Si3 0.500000 0.744925 0.750000
Si Si4 0.713278 0.515025 0.623590
Si Si5 0.183115 0.738714 0.221320
Si Si6 0.143411 0.064060 0.853437
O O1 0.860651 0.955534 0.899389
O O2 0.896794 0.951284 0.757301
O O3 0.949973 0.753749 0.932843
O O4 0.000000 0.000000 0.000000
O O5 0.503712 0.169036 0.154539
O O6 0.594702 0.212837 0.107266
O O7 0.500000 0.000000 0.000000
O O8 0.575002 0.650749 0.829717
O O9 0.778939 0.408738 0.721363
O O10 0.720941 0.668723 0.675864
O O11 0.696222 0.501967 0.490872
O O12 0.185826 0.831834 0.323048
#
# Coordination Sequence:
#
# PCOD9260185 Si02
#       6
#     8   8   4   8   8   8
#     4  11  19  39  64  89 114 157 212 259 291 366
#     4  11  23  41  60  93 126 156 208 256 307 366
#     4  10  18  36  64  86 112 168 194 248 324 346
#     4  11  21  39  61  87 124 158 202 248 311 360
#     4  10  24  38  60  90 120 166 201 247 311 368
#     4  10  19  36  65  89 113 160 214 246 302 372
#
# _framework density 18.727018999999999
#
# number of rings (size 3 to 8) (size 9 to 14) (size 15 to 20)
#    0.000    1.455    7.273    0.545    2.545    0.000 
#    3.273    3.636    0.000    0.000    0.000    0.000 
#    0.000    0.000    0.000    0.000    0.000    0.000 
#
# Total GULP energy -122813.156600 kJ/mol
# GULP energy per Si atom -5582.416209 kJ/mol
# Density = 1.868440 g / cm^3
# Si number density = 18.727019 Si / 1000 Ang^3
#
#
#
# Elastic Constant Matrix: (Units=GPa)
#
#
# Indices 1 2 3 4 5 6 
#
# 1 28.3365 -5.5487 0.6833 0.0000 -1.9656 0.0000
# 2 -5.5487 102.5883 44.0863 0.0000 -13.1279 0.0000
# 3 0.6833 44.0863 94.9994 0.0000 -12.0459 0.0000
# 4 0.0000 0.0000 0.0000 37.9987 0.0000 5.3690
# 5 -1.9656 -13.1279 -12.0459 0.0000 18.1003 0.0000
# 6 0.0000 0.0000 0.0000 5.3690 0.0000 26.5255
#
#
#
# Elastic Compliance Matrix: (Units=1/GPa)
#
#
# Indices 1 2 3 4 5 6 
#
# 1 0.036305 0.003100 -0.000999 0.000000 0.005526 0.000000
# 2 0.003100 0.012971 -0.005249 0.000000 0.006251 0.000000
# 3 -0.000999 -0.005249 0.013623 0.000000 0.005150 0.000000
# 4 0.000000 0.000000 0.000000 0.027092 0.000000 -0.005484
# 5 0.005526 0.006251 0.005150 0.000000 0.063809 0.000000
# 6 0.000000 0.000000 0.000000 -0.005484 0.000000 0.038810
#
#
# Mechanical properties :
#
#
# Convention : Reuss Voigt Hill
#
# Bulk Modulus (GPa) = 17.66722 33.81845 25.74283
# Shear Modulus (GPa) = 22.95978 28.97177 25.96578
#
# Velocity S-wave (km/s) = 3.50526 3.93753 3.72767
# Velocity P-wave (km/s) = 5.08301 6.22656 5.68362
#
# Compressibility (1/GPa) = 0.05660201
#
# Stress axis : x y z
#
# Youngs Moduli (GPa) = 27.54470 77.09467 73.40748
#
# Poissons Ratio (x) = -0.23900 0.07334
# Poissons Ratio (y) = -0.08539 0.38533
# Poissons Ratio (z) = 0.02752 0.40468
#
# Static dielectric constant tensor:
#      x y z
#    x 1.660130 0.000000 -0.011680 
#    y 0.000000 1.660180 0.000000 
#    z -0.011680 0.000000 1.656490 
# 
# From -- ./inp_files/116662.got.cif
#   From: 2010.05.17/outbox.cif.g08.bks.cpg/sg15_59_cif.got.tgz:116662.got - 2010.06.03 18:47:42.
