data_PCOD9260077
_publ_section_title
;
Structure prediction by ZEFSAII (Michael W. Deem and Ramdas Pophale) SiO2 
 PCOD9260077
Probable space group: C 2/C
;
_chemical_formula_sum "Si O2"
_cell_formula_units_Z 44
_cell_length_a 19.438943
_cell_length_b 8.887123
_cell_length_c 16.746435
_cell_angle_alpha 90.000000
_cell_angle_beta 127.749592
_cell_angle_gamma 90.000000
_cell_volume 2287.518484
_symmetry_space_group_name_H-M "C 2/C"
_symmetry_group_IT_number 15
_symmetry_cell_setting 'monoclinic'
loop_
_space_group_symop_operation_xyz
x,y,z
-x,y,1/2-z
-x,-y,-z
x,-y,1/2+z
1/2+x,1/2+y,z
1/2-x,1/2+y,1/2-z
1/2-x,1/2-y,-z
1/2+x,1/2-y,1/2+z
loop_
_atom_site_type_symbol
_atom_site_label
_atom_site_fract_x
_atom_site_fract_y
_atom_site_fract_z
Si Si1 0.681034 0.602327 0.527463
Si Si2 0.828130 0.143491 0.159005
Si Si3 0.222298 0.890827 0.700818
Si Si4 0.137449 0.429968 0.132710
Si Si5 0.000000 0.316934 0.250000
Si Si6 0.057402 0.624761 0.949213
O O1 0.762127 0.714772 0.602475
O O2 0.681748 0.558740 0.433638
O O3 0.682757 0.475359 0.596286
O O4 0.596933 0.708430 0.479625
O O5 0.810732 0.067259 0.232467
O O6 0.924912 0.211562 0.232182
O O7 0.198872 0.715492 0.676918
O O8 0.322265 0.946320 0.778316
O O9 0.039134 0.382479 0.083848
O O10 0.124439 0.515406 0.040186
O O11 0.953867 0.415346 0.150727
#
# Coordination Sequence:
#
# PCOD9260077 Si02
#       6
#     8   8   8   8   4   8
#     4  10  21  37  65  85 119 155 210 244 301 355
#     4  10  20  37  60  90 112 164 202 243 291 371
#     4  12  20  40  61  91 118 163 189 263 295 360
#     4  11  22  35  61  89 120 154 203 237 313 352
#     4  10  18  36  62  84 114 158 208 240 292 356
#     4  10  20  38  60  89 114 160 199 251 287 376
#
# _framework density 19.234819000000002
#
# number of rings (size 3 to 8) (size 9 to 14) (size 15 to 20)
#    0.000    1.455    5.455    0.000    0.000    0.727 
#    0.000    0.909    8.000    0.000    0.000    0.000 
#    0.000    0.000    0.000    0.000    0.000    0.000 
#
# Total GULP energy -122509.916306 kJ/mol
# GULP energy per Si atom -5568.632559 kJ/mol
# Density = 1.919104 g / cm^3
# Si number density = 19.234819 Si / 1000 Ang^3
#
#
#
# Elastic Constant Matrix: (Units=GPa)
#
#
# Indices 1 2 3 4 5 6 
#
# 1 49.3584 19.3900 12.8424 0.0000 -7.9364 0.0000
# 2 19.3900 70.8252 51.2119 0.0000 -6.3524 0.0000
# 3 12.8424 51.2119 140.1054 0.0000 -28.6289 0.0000
# 4 0.0000 0.0000 0.0000 38.9919 0.0000 -9.2332
# 5 -7.9364 -6.3524 -28.6289 0.0000 52.9394 0.0000
# 6 0.0000 0.0000 0.0000 -9.2332 0.0000 12.5287
#
#
#
# Elastic Compliance Matrix: (Units=1/GPa)
#
#
# Indices 1 2 3 4 5 6 
#
# 1 0.023180 -0.006791 0.001013 0.000000 0.003208 0.000000
# 2 -0.006791 0.021314 -0.007705 0.000000 -0.002627 0.000000
# 3 0.001013 -0.007705 0.010909 0.000000 0.005127 0.000000
# 4 0.000000 0.000000 0.000000 0.031068 0.000000 0.022896
# 5 0.003208 -0.002627 0.005127 0.000000 0.021828 0.000000
# 6 0.000000 0.000000 0.000000 0.022896 0.000000 0.096691
#
#
# Mechanical properties :
#
#
# Convention : Reuss Voigt Hill
#
# Bulk Modulus (GPa) = 35.16587 47.46416 41.31501
# Shear Modulus (GPa) = 20.70959 32.68164 26.69562
#
# Velocity S-wave (km/s) = 3.28483 4.12647 3.72947
# Velocity P-wave (km/s) = 5.71917 6.88719 6.33018
#
# Compressibility (1/GPa) = 0.02843666
#
# Stress axis : x y z
#
# Youngs Moduli (GPa) = 43.14087 46.91712 91.67051
#
# Poissons Ratio (x) = 0.31860 -0.09286
# Poissons Ratio (y) = 0.29296 0.70634
# Poissons Ratio (z) = -0.04370 0.36151
#
# Static dielectric constant tensor:
#      x y z
#    x 1.747160 0.000000 -0.030270 
#    y 0.000000 1.662720 0.000000 
#    z -0.030270 0.000000 1.722390 
# 
# From -- ./inp_files/213233.got.cif
#   From: 2010.05.17/outbox.cif.g08.bks.cpg/sg15_107_cif.got.tgz:213233.got - 2010.06.03 18:47:42.
