data_PCOD9260248
_publ_section_title
;
Structure prediction by ZEFSAII (Michael W. Deem and Ramdas Pophale) SiO2 
 PCOD9260248
Probable space group: C 2/C
;
_chemical_formula_sum "Si O2"
_cell_formula_units_Z 40
_cell_length_a 7.373280
_cell_length_b 11.817000
_cell_length_c 21.679738
_cell_angle_alpha 90.000000
_cell_angle_beta 56.035751
_cell_angle_gamma 90.000000
_cell_volume 1566.674828
_symmetry_space_group_name_H-M "C 2/C"
_symmetry_group_IT_number 15
_symmetry_cell_setting 'monoclinic'
loop_
_space_group_symop_operation_xyz
x,y,z
-x,y,1/2-z
-x,-y,-z
x,-y,1/2+z
1/2+x,1/2+y,z
1/2-x,1/2+y,1/2-z
1/2-x,1/2-y,-z
1/2+x,1/2-y,1/2+z
loop_
_atom_site_type_symbol
_atom_site_label
_atom_site_fract_x
_atom_site_fract_y
_atom_site_fract_z
Si Si1 0.480611 0.858723 0.939205
Si Si2 0.119866 0.878002 0.472034
Si Si3 0.281916 0.961384 0.322611
Si Si4 0.678344 0.306350 0.878271
Si Si5 0.721542 0.567442 0.611931
O O1 0.554062 0.736284 0.948892
O O2 0.327932 0.832019 0.910112
O O3 0.674256 0.947644 0.887850
O O4 0.335556 0.910084 0.023106
O O5 0.303370 0.923522 0.390239
O O6 0.070542 0.835022 0.551622
O O7 0.000000 0.000000 0.500000
O O8 0.500000 0.918073 0.250000
O O9 0.040010 0.925928 0.345757
O O10 0.259341 0.097338 0.317473
O O11 0.710245 0.175224 0.859767
#
# Coordination Sequence:
#
# PCOD9260248 Si02
#       5
#     8   8   8   8   8
#     4  10  18  36  66  89 111 150 196 248 292 331
#     4   9  17  35  62  86 114 151 191 237 287 342
#     4  11  22  39  57  83 122 158 189 239 299 352
#     4  10  19  39  61  83 117 150 195 248 287 335
#     4  10  20  38  59  90 118 142 197 248 285 348
#
# _framework density 25.531782
#
# number of rings (size 3 to 8) (size 9 to 14) (size 15 to 20)
#    0.000    2.000    4.000    1.200    0.000    0.000 
#   10.800    5.000    0.000    0.000    0.000    0.000 
#    0.000    0.000    0.000    0.000    0.000    0.000 
#
# Total GULP energy -111431.021103 kJ/mol
# GULP energy per Si atom -5571.551055 kJ/mol
# Density = 2.547367 g / cm^3
# Si number density = 25.531782 Si / 1000 Ang^3
#
#
#
# Elastic Constant Matrix: (Units=GPa)
#
#
# Indices 1 2 3 4 5 6 
#
# 1 87.7875 58.2271 12.8000 0.0001 -31.9741 0.0000
# 2 58.2271 182.4648 14.1360 0.0001 -31.2586 0.0000
# 3 12.8000 14.1360 135.0469 0.0001 -41.0704 -0.0001
# 4 0.0001 0.0001 0.0001 4.6433 -0.0001 -6.1983
# 5 -31.9741 -31.2586 -41.0704 -0.0001 26.9653 0.0001
# 6 0.0000 0.0000 -0.0001 -6.1983 0.0001 28.2497
#
#
#
# Elastic Compliance Matrix: (Units=1/GPa)
#
#
# Indices 1 2 3 4 5 6 
#
# 1 0.031312 -0.001098 0.014999 0.000000 0.058700 0.000000
# 2 -0.001098 0.007685 0.003005 0.000000 0.012184 0.000000
# 3 0.014999 0.003005 0.022609 0.000000 0.055704 0.000000
# 4 0.000000 0.000000 0.000000 0.304568 0.000002 0.066826
# 5 0.058700 0.012184 0.055704 0.000002 0.205654 0.000000
# 6 0.000000 0.000000 0.000000 0.066826 0.000000 0.050061
#
#
# Mechanical properties :
#
#
# Convention : Reuss Voigt Hill
#
# Bulk Modulus (GPa) = 10.48012 63.95838 37.21925
# Shear Modulus (GPa) = 8.06602 33.31408 20.69005
#
# Velocity S-wave (km/s) = 1.77934 3.61613 2.84978
# Velocity P-wave (km/s) = 2.88705 6.52228 5.04357
#
# Compressibility (1/GPa) = 0.09541878
#
# Stress axis : x y z
#
# Youngs Moduli (GPa) = 31.93615 130.11796 44.22938
#
# Poissons Ratio (x) = 0.14288 -0.66340
# Poissons Ratio (y) = 0.03507 -0.13290
# Poissons Ratio (z) = -0.47901 -0.39099
#
# Static dielectric constant tensor:
#      x y z
#    x 2.234330 0.000000 -0.051330 
#    y 0.000000 2.025720 0.000000 
#    z -0.051330 0.000000 2.073090 
# 
# From -- ./inp_files/306999.got.cif
#   From: 2010.05.17/outbox.cif.g08.bks.cpg/sg15_154_cif.got.tgz:306999.got - 2010.06.03 18:47:42.
