data_PCOD9260869
_publ_section_title
;
Structure prediction by ZEFSAII (Michael W. Deem and Ramdas Pophale) SiO2 
 PCOD9260869
Probable space group: C 2/C
;
_chemical_formula_sum "Si O2"
_cell_formula_units_Z 60
_cell_length_a 12.431616
_cell_length_b 14.378278
_cell_length_c 22.989765
_cell_angle_alpha 90.000000
_cell_angle_beta 50.381034
_cell_angle_gamma 90.000000
_cell_volume 3165.411194
_symmetry_space_group_name_H-M "C 2/C"
_symmetry_group_IT_number 15
_symmetry_cell_setting 'monoclinic'
loop_
_space_group_symop_operation_xyz
x,y,z
-x,y,1/2-z
-x,-y,-z
x,-y,1/2+z
1/2+x,1/2+y,z
1/2-x,1/2+y,1/2-z
1/2-x,1/2-y,-z
1/2+x,1/2-y,1/2+z
loop_
_atom_site_type_symbol
_atom_site_label
_atom_site_fract_x
_atom_site_fract_y
_atom_site_fract_z
Si Si1 0.672602 0.828372 0.368834
Si Si2 0.299171 0.455247 0.521960
Si Si3 0.635234 0.794560 0.996754
Si Si4 0.749344 0.984556 0.908642
Si Si5 0.114566 0.151833 0.802524
Si Si6 0.340504 0.223867 0.411419
Si Si7 0.000000 0.002501 0.750000
Si Si8 0.109914 0.881318 0.432067
O O1 0.757173 0.765755 0.385713
O O2 0.752995 0.816505 0.280487
O O3 0.993796 0.770622 0.355962
O O4 0.680736 0.933246 0.393508
O O5 0.298881 0.469077 0.452515
O O6 0.172379 0.387934 0.583859
O O7 0.445843 0.408033 0.489672
O O8 0.304826 0.552858 0.553521
O O9 0.750000 0.750000 0.000000
O O10 0.664593 0.896188 0.960400
O O11 0.623148 0.723755 0.947646
O O12 0.875396 0.948762 0.824175
O O13 0.486627 0.201666 0.579694
O O14 0.156174 0.109377 0.849828
O O15 0.051070 0.072069 0.783018
O O16 0.250000 0.250000 0.500000
#
# Coordination Sequence:
#
# PCOD9260869 Si02
#       8
#     8   8   8   8   8   8   4   8
#     4  11  22  40  64  93 127 163 211 261 319 374
#     4  11  21  35  67  92 125 159 213 255 309 377
#     4  12  25  43  62  90 127 171 216 258 308 384
#     4  11  21  40  66  94 124 163 212 264 320 367
#     4  11  20  39  68  92 129 160 204 265 323 367
#     4  12  17  34  67 101 118 153 207 270 307 367
#     4  10  18  38  66  96 122 158 208 262 312 382
#     4  11  22  40  60  93 125 169 207 249 313 379
#
# _framework density 18.954884
#
# number of rings (size 3 to 8) (size 9 to 14) (size 15 to 20)
#    0.000    0.800    9.333    0.400    0.000    0.000 
#    2.400    1.333    2.933    0.000    0.000    0.000 
#    0.000    0.000    0.000    0.000    0.000    0.000 
#
# Total GULP energy -167343.244689 kJ/mol
# GULP energy per Si atom -5578.108156 kJ/mol
# Density = 1.891174 g / cm^3
# Si number density = 18.954884 Si / 1000 Ang^3
#
#
#
# Elastic Constant Matrix: (Units=GPa)
#
#
# Indices 1 2 3 4 5 6 
#
# 1 59.9425 10.7330 34.9699 0.0000 -4.3250 0.0000
# 2 10.7330 64.3909 13.0666 0.0000 -1.9626 0.0000
# 3 34.9699 13.0666 126.1663 0.0000 -1.3739 0.0000
# 4 0.0000 0.0000 0.0000 20.6545 0.0000 -0.0377
# 5 -4.3250 -1.9626 -1.3739 0.0000 24.2622 0.0000
# 6 0.0000 0.0000 0.0000 -0.0377 0.0000 24.5091
#
#
#
# Elastic Compliance Matrix: (Units=1/GPa)
#
#
# Indices 1 2 3 4 5 6 
#
# 1 0.020463 -0.002217 -0.005408 0.000000 0.003162 0.000000
# 2 -0.002217 0.016138 -0.001048 0.000000 0.000851 0.000000
# 3 -0.005408 -0.001048 0.009528 0.000000 -0.000509 0.000000
# 4 0.000000 0.000000 0.000000 0.048416 0.000000 0.000074
# 5 0.003162 0.000851 -0.000509 0.000000 0.041820 0.000000
# 6 0.000000 0.000000 0.000000 0.000074 0.000000 0.040801
#
#
# Mechanical properties :
#
#
# Convention : Reuss Voigt Hill
#
# Bulk Modulus (GPa) = 34.74149 40.89319 37.81734
# Shear Modulus (GPa) = 24.49721 26.66717 25.58219
#
# Velocity S-wave (km/s) = 3.59889 3.75490 3.67772
# Velocity P-wave (km/s) = 5.96973 6.35766 6.16675
#
# Compressibility (1/GPa) = 0.02878403
#
# Stress axis : x y z
#
# Youngs Moduli (GPa) = 48.86983 61.96466 104.95559
#
# Poissons Ratio (x) = 0.13738 0.56756
# Poissons Ratio (y) = 0.10835 0.10995
# Poissons Ratio (z) = 0.26427 0.06491
#
# Static dielectric constant tensor:
#      x y z
#    x 1.688950 0.000000 -0.024260 
#    y 0.000000 1.692750 0.000000 
#    z -0.024260 0.000000 1.660510 
# 
# From -- ./inp_files/244367.got.cif
#   From: 2010.05.17/outbox.cif.g08.bks.cpg/sg15_123_cif.got.tgz:244367.got - 2010.06.03 18:47:42.
