data_PCOD9260996
_publ_section_title
;
Structure prediction by ZEFSAII (Michael W. Deem and Ramdas Pophale) SiO2 
 PCOD9260996
Probable space group: C 2/C
;
_chemical_formula_sum "Si O2"
_cell_formula_units_Z 64
_cell_length_a 14.971945
_cell_length_b 11.277840
_cell_length_c 22.002137
_cell_angle_alpha 90.000000
_cell_angle_beta 61.049537
_cell_angle_gamma 90.000000
_cell_volume 3250.844509
_symmetry_space_group_name_H-M "C 2/C"
_symmetry_group_IT_number 15
_symmetry_cell_setting 'monoclinic'
loop_
_space_group_symop_operation_xyz
x,y,z
-x,y,1/2-z
-x,-y,-z
x,-y,1/2+z
1/2+x,1/2+y,z
1/2-x,1/2+y,1/2-z
1/2-x,1/2-y,-z
1/2+x,1/2-y,1/2+z
loop_
_atom_site_type_symbol
_atom_site_label
_atom_site_fract_x
_atom_site_fract_y
_atom_site_fract_z
Si Si1 0.465200 0.159675 0.950172
Si Si2 0.931604 0.924172 0.977805
Si Si3 0.205707 0.565769 0.428867
Si Si4 0.674684 0.381520 0.040705
Si Si5 0.623490 0.972142 0.216289
Si Si6 0.818189 0.410931 0.165496
Si Si7 0.288600 0.821956 0.412386
Si Si8 0.774672 0.300115 0.883280
O O1 0.567823 0.097870 0.898627
O O2 0.374948 0.139392 0.931338
O O3 0.483419 0.300240 0.945575
O O4 0.410372 0.112557 0.028579
O O5 0.820058 0.886117 0.040818
O O6 0.909557 0.016139 0.931242
O O7 0.000000 0.000000 0.000000
O O8 0.226625 0.452137 0.465308
O O9 0.234482 0.518234 0.353360
O O10 0.270406 0.681945 0.424614
O O11 0.652561 0.277446 0.095667
O O12 0.695037 0.340023 0.964136
O O13 0.500000 0.979567 0.250000
O O14 0.665024 0.947856 0.270486
O O15 0.665485 0.858733 0.166317
O O16 0.673780 0.086961 0.166060
O O17 0.766519 0.289182 0.156102
#
# Coordination Sequence:
#
# PCOD9260996 Si02
#       8
#     8   8   8   8   8   8   8   8
#     4  11  19  37  63  94 125 153 210 254 319 370
#     4  11  20  34  60  98 126 155 200 262 323 365
#     4  10  20  38  64  94 124 159 204 265 320 366
#     4  10  18  39  66  90 126 160 199 276 325 364
#     4  12  25  44  63  84 130 176 214 251 311 390
#     4  11  25  39  63  93 124 169 213 257 306 387
#     4  11  21  40  63  89 127 166 203 255 314 374
#     4  10  23  41  63  90 124 166 213 257 322 375
#
# _framework density 19.687192
#
# number of rings (size 3 to 8) (size 9 to 14) (size 15 to 20)
#    0.000    1.250    5.000    1.875    1.750    0.000 
#    6.750    0.000    0.000    3.000    0.000    0.000 
#    0.000    0.000    0.000    0.000    0.000    0.000 
#
# Total GULP energy -178154.349134 kJ/mol
# GULP energy per Si atom -5567.323410 kJ/mol
# Density = 1.964238 g / cm^3
# Si number density = 19.687192 Si / 1000 Ang^3
#
#
#
# Elastic Constant Matrix: (Units=GPa)
#
#
# Indices 1 2 3 4 5 6 
#
# 1 59.9775 10.8377 14.7105 0.0000 11.0570 0.0000
# 2 10.8377 75.4519 25.5726 0.0000 12.1321 0.0000
# 3 14.7105 25.5726 78.9117 0.0000 22.4405 0.0000
# 4 0.0000 0.0000 0.0000 32.1442 0.0000 5.6618
# 5 11.0570 12.1321 22.4405 0.0000 27.6542 0.0000
# 6 0.0000 0.0000 0.0000 5.6618 0.0000 27.3667
#
#
#
# Elastic Compliance Matrix: (Units=1/GPa)
#
#
# Indices 1 2 3 4 5 6 
#
# 1 0.018279 -0.001245 -0.001405 0.000000 -0.005622 0.000000
# 2 -0.001245 0.015224 -0.003827 0.000000 -0.003076 0.000000
# 3 -0.001405 -0.003827 0.017598 0.000000 -0.012040 0.000000
# 4 0.000000 0.000000 0.000000 0.032286 0.000000 -0.006680
# 5 -0.005622 -0.003076 -0.012040 0.000000 0.049528 0.000000
# 6 0.000000 0.000000 0.000000 -0.006680 0.000000 0.037923
#
#
# Mechanical properties :
#
#
# Convention : Reuss Voigt Hill
#
# Bulk Modulus (GPa) = 26.21473 35.17585 30.69529
# Shear Modulus (GPa) = 25.44426 28.31439 26.87933
#
# Velocity S-wave (km/s) = 3.59893 3.79649 3.69903
# Velocity P-wave (km/s) = 5.53302 6.09295 5.81972
#
# Compressibility (1/GPa) = 0.03814649
#
# Stress axis : x y z
#
# Youngs Moduli (GPa) = 54.70757 65.68634 56.82386
#
# Poissons Ratio (x) = 0.08180 0.07985
# Poissons Ratio (y) = 0.06813 0.21745
# Poissons Ratio (z) = 0.07688 0.25137
#
# Static dielectric constant tensor:
#      x y z
#    x 1.749270 0.000000 0.042840 
#    y 0.000000 1.733290 0.000000 
#    z 0.042840 0.000000 1.739120 
# 
# From -- ./inp_files/243695.got.cif
#   From: 2010.05.17/outbox.cif.g08.bks.cpg/sg15_122_cif.got.tgz:243695.got - 2010.06.03 18:47:42.
