data_PCOD9260860
_publ_section_title
;
Structure prediction by ZEFSAII (Michael W. Deem and Ramdas Pophale) SiO2 
 PCOD9260860
Probable space group: C 2/C
;
_chemical_formula_sum "Si O2"
_cell_formula_units_Z 56
_cell_length_a 8.033801
_cell_length_b 23.090111
_cell_length_c 12.808372
_cell_angle_alpha 90.000000
_cell_angle_beta 90.298301
_cell_angle_gamma 90.000000
_cell_volume 2375.938184
_symmetry_space_group_name_H-M "C 2/C"
_symmetry_group_IT_number 15
_symmetry_cell_setting 'monoclinic'
loop_
_space_group_symop_operation_xyz
x,y,z
-x,y,1/2-z
-x,-y,-z
x,-y,1/2+z
1/2+x,1/2+y,z
1/2-x,1/2+y,1/2-z
1/2-x,1/2-y,-z
1/2+x,1/2-y,1/2+z
loop_
_atom_site_type_symbol
_atom_site_label
_atom_site_fract_x
_atom_site_fract_y
_atom_site_fract_z
Si Si1 0.665130 0.760266 0.823570
Si Si2 0.460711 0.921672 0.397063
Si Si3 0.627668 0.624745 0.844902
Si Si4 0.030791 0.922753 0.939546
Si Si5 0.361522 0.302905 0.634882
Si Si6 0.771887 0.495801 0.561249
Si Si7 0.974012 0.697911 0.505744
O O1 0.500000 0.763639 0.750000
O O2 0.675711 0.692593 0.853071
O O3 0.810722 0.782376 0.749576
O O4 0.626750 0.798366 0.925291
O O5 0.297530 0.910394 0.328425
O O6 0.605460 0.966076 0.368659
O O7 0.531295 0.858538 0.423075
O O8 0.385085 0.948209 0.504145
O O9 0.500000 0.617965 0.750000
O O10 0.541897 0.602577 0.950975
O O11 0.189243 0.961568 0.973642
O O12 0.072947 0.867789 0.870695
O O13 0.887615 0.963734 0.891454
O O14 0.192044 0.302974 0.564861
O O15 0.472025 0.255436 0.575474
#
# Coordination Sequence:
#
# PCOD9260860 Si02
#       7
#     8   8   8   8   8   8   8
#     4   9  19  34  54  93 134 169 217 274 334 415
#     4  10  20  37  63  92 130 171 223 275 328 400
#     4  10  21  37  60  91 133 171 214 274 337 401
#     4  10  18  38  66  91 127 176 225 269 329 406
#     4  10  19  34  63  97 127 178 220 269 344 403
#     4   9  20  36  63  94 119 173 230 265 324 402
#     4  10  19  34  61  92 131 173 219 269 347 400
#
# _framework density 23.569635000000002
#
# number of rings (size 3 to 8) (size 9 to 14) (size 15 to 20)
#    0.000    2.286    2.857    0.000    2.000    0.571 
#    0.000    2.857    9.429    0.000    0.000    0.000 
#    0.000    0.000    0.000    0.000    0.000    0.000 
#
# Total GULP energy -156675.881723 kJ/mol
# GULP energy per Si atom -5595.567204 kJ/mol
# Density = 2.351599 g / cm^3
# Si number density = 23.569635 Si / 1000 Ang^3
#
#
#
# Elastic Constant Matrix: (Units=GPa)
#
#
# Indices 1 2 3 4 5 6 
#
# 1 88.9622 37.3801 38.6777 0.0000 8.9851 0.0000
# 2 37.3801 120.1708 19.9285 0.0000 3.5518 0.0000
# 3 38.6777 19.9285 75.2092 0.0000 7.4109 0.0000
# 4 0.0000 0.0000 0.0000 16.4083 0.0000 2.0925
# 5 8.9851 3.5518 7.4109 0.0000 41.2856 0.0000
# 6 0.0000 0.0000 0.0000 2.0925 0.0000 48.4460
#
#
#
# Elastic Compliance Matrix: (Units=1/GPa)
#
#
# Indices 1 2 3 4 5 6 
#
# 1 0.016104 -0.003777 -0.007093 0.000000 -0.001907 0.000000
# 2 -0.003777 0.009594 -0.000611 0.000000 0.000106 0.000000
# 3 -0.007093 -0.000611 0.017254 0.000000 -0.001501 0.000000
# 4 0.000000 0.000000 0.000000 0.061282 0.000000 -0.002647
# 5 -0.001907 0.000106 -0.001501 0.000000 0.024897 0.000000
# 6 0.000000 0.000000 0.000000 -0.002647 0.000000 0.020756
#
#
# Mechanical properties :
#
#
# Convention : Reuss Voigt Hill
#
# Bulk Modulus (GPa) = 50.02150 52.92386 51.47268
# Shear Modulus (GPa) = 27.85338 33.78505 30.81921
#
# Velocity S-wave (km/s) = 3.44139 3.79015 3.61997
# Velocity P-wave (km/s) = 6.08767 6.45420 6.27361
#
# Compressibility (1/GPa) = 0.01999140
#
# Stress axis : x y z
#
# Youngs Moduli (GPa) = 62.09622 104.22797 57.95852
#
# Poissons Ratio (x) = 0.39363 0.41111
# Poissons Ratio (y) = 0.23452 0.03538
# Poissons Ratio (z) = 0.44046 0.06363
#
# Static dielectric constant tensor:
#      x y z
#    x 1.925910 0.000000 0.047380 
#    y 0.000000 1.835270 0.000000 
#    z 0.047380 0.000000 1.867480 
# 
# From -- ./inp_files/137456.got.cif
#   From: 2010.05.17/outbox.cif.g08.bks.cpg/sg15_69_cif.got.tgz:137456.got - 2010.06.03 18:47:42.
