data_PCOD9260828
_publ_section_title
;
Structure prediction by ZEFSAII (Michael W. Deem and Ramdas Pophale) SiO2 
 PCOD9260828
Probable space group: C 2/C
;
_chemical_formula_sum "Si O2"
_cell_formula_units_Z 64
_cell_length_a 25.518185
_cell_length_b 15.171498
_cell_length_c 11.324818
_cell_angle_alpha 90.000000
_cell_angle_beta 132.585470
_cell_angle_gamma 90.000000
_cell_volume 3228.091418
_symmetry_space_group_name_H-M "C 2/C"
_symmetry_group_IT_number 15
_symmetry_cell_setting 'monoclinic'
loop_
_space_group_symop_operation_xyz
x,y,z
-x,y,1/2-z
-x,-y,-z
x,-y,1/2+z
1/2+x,1/2+y,z
1/2-x,1/2+y,1/2-z
1/2-x,1/2-y,-z
1/2+x,1/2-y,1/2+z
loop_
_atom_site_type_symbol
_atom_site_label
_atom_site_fract_x
_atom_site_fract_y
_atom_site_fract_z
Si Si1 0.797047 0.755056 0.187412
Si Si2 0.723133 0.924593 0.697106
Si Si3 0.826086 0.870174 0.647468
Si Si4 0.759797 0.385963 0.212528
Si Si5 0.979694 0.055999 0.351536
Si Si6 0.602969 0.810171 0.162904
Si Si7 0.955539 0.754760 0.480898
Si Si8 0.924108 0.395145 0.126508
O O1 0.779640 0.667255 0.236970
O O2 0.775816 0.841195 0.229293
O O3 0.881945 0.759419 0.298144
O O4 0.750000 0.750000 0.000000
O O5 0.773785 0.913539 0.662000
O O6 0.642552 0.943194 0.532065
O O7 0.748783 0.009250 0.807616
O O8 0.780558 0.847065 0.462564
O O9 0.894717 0.929009 0.721946
O O10 0.858881 0.782176 0.752836
O O11 0.843068 0.361190 0.338530
O O12 0.000000 0.022729 0.250000
O O13 0.018564 0.150903 0.430148
O O14 0.000000 0.000000 0.500000
O O15 0.598658 0.863445 0.279088
O O16 0.521235 0.787657 0.008791
O O17 0.939615 0.690608 0.568049
O O18 0.000000 0.443616 0.250000
#
# Coordination Sequence:
#
# PCOD9260828 Si02
#       8
#     8   8   8   8   8   8   8   8
#     4  11  25  44  63  91 135 169 202 259 332 381
#     4  11  24  39  62 100 121 165 215 251 319 383
#     4  11  22  40  67  89 124 160 221 261 305 378
#     4  12  24  38  67  93 128 161 209 268 311 372
#     4  11  24  40  60  94 127 169 215 263 323 383
#     4  10  18  38  65  91 111 155 213 261 298 358
#     4   9  20  40  63  85 118 165 208 257 312 377
#     4   9  17  36  64  86 114 151 206 263 303 352
#
# _framework density 19.825956999999999
#
# number of rings (size 3 to 8) (size 9 to 14) (size 15 to 20)
#    0.000    1.500    2.500    4.500    5.250    0.000 
#    0.000    7.500    0.000    0.000    0.000    0.000 
#    0.000    0.000    0.000    0.000    0.000    0.000 
#
# Total GULP energy -178619.182599 kJ/mol
# GULP energy per Si atom -5581.849456 kJ/mol
# Density = 1.978083 g / cm^3
# Si number density = 19.825957 Si / 1000 Ang^3
#
#
#
# Elastic Constant Matrix: (Units=GPa)
#
#
# Indices 1 2 3 4 5 6 
#
# 1 87.5845 14.5155 56.2841 0.0000 22.8110 0.0000
# 2 14.5155 45.1841 6.1689 0.0000 7.1617 0.0000
# 3 56.2841 6.1689 112.6376 0.0000 25.8744 0.0000
# 4 0.0000 0.0000 0.0000 10.1511 0.0000 -4.9133
# 5 22.8110 7.1617 25.8744 0.0000 28.4376 0.0000
# 6 0.0000 0.0000 0.0000 -4.9133 0.0000 10.6952
#
#
#
# Elastic Compliance Matrix: (Units=1/GPa)
#
#
# Indices 1 2 3 4 5 6 
#
# 1 0.018766 -0.003854 -0.007498 0.000000 -0.007260 0.000000
# 2 -0.003854 0.023844 0.001630 0.000000 -0.004396 0.000000
# 3 -0.007498 0.001630 0.014220 0.000000 -0.007334 0.000000
# 4 0.000000 0.000000 0.000000 0.126678 0.000000 0.058194
# 5 -0.007260 -0.004396 -0.007334 0.000000 0.048768 0.000000
# 6 0.000000 0.000000 0.000000 0.058194 0.000000 0.120233
#
#
# Mechanical properties :
#
#
# Convention : Reuss Voigt Hill
#
# Bulk Modulus (GPa) = 26.74866 44.37147 35.56007
# Shear Modulus (GPa) = 13.00672 21.08598 17.04635
#
# Velocity S-wave (km/s) = 2.56412 3.26476 2.93542
# Velocity P-wave (km/s) = 4.72094 6.05315 5.42807
#
# Compressibility (1/GPa) = 0.03738505
#
# Stress axis : x y z
#
# Youngs Moduli (GPa) = 53.28878 41.93907 70.32123
#
# Poissons Ratio (x) = 0.16164 0.52729
# Poissons Ratio (y) = 0.20538 -0.11462
# Poissons Ratio (z) = 0.39958 -0.06836
#
# Static dielectric constant tensor:
#      x y z
#    x 1.681900 0.000000 0.013780 
#    y 0.000000 1.703580 0.000000 
#    z 0.013780 0.000000 1.678270 
# 
# From -- ./inp_files/123562.got.cif
#   From: 2010.05.17/outbox.cif.g08.bks.cpg/sg15_62_cif.got.tgz:123562.got - 2010.06.03 18:47:42.
