data_PCOD9260850
_publ_section_title
;
Structure prediction by ZEFSAII (Michael W. Deem and Ramdas Pophale) SiO2 
 PCOD9260850
Probable space group: C 2/C
;
_chemical_formula_sum "Si O2"
_cell_formula_units_Z 28
_cell_length_a 12.232807
_cell_length_b 13.443162
_cell_length_c 9.947222
_cell_angle_alpha 90.000000
_cell_angle_beta 45.498648
_cell_angle_gamma 90.000000
_cell_volume 1166.705780
_symmetry_space_group_name_H-M "C 2/C"
_symmetry_group_IT_number 15
_symmetry_cell_setting 'monoclinic'
loop_
_space_group_symop_operation_xyz
x,y,z
-x,y,1/2-z
-x,-y,-z
x,-y,1/2+z
1/2+x,1/2+y,z
1/2-x,1/2+y,1/2-z
1/2-x,1/2-y,-z
1/2+x,1/2-y,1/2+z
loop_
_atom_site_type_symbol
_atom_site_label
_atom_site_fract_x
_atom_site_fract_y
_atom_site_fract_z
Si Si1 0.520683 0.186781 0.934841
Si Si2 0.750455 0.483747 0.363727
Si Si3 0.328036 0.618043 0.308455
Si Si4 0.000000 0.638583 0.250000
O O1 0.633943 0.096769 0.799819
O O2 0.578352 0.285202 0.813663
O O3 0.350817 0.154786 0.037813
O O4 0.522658 0.199936 0.094346
O O5 0.664463 0.537052 0.316361
O O6 0.651182 0.430337 0.563277
O O7 0.855176 0.566970 0.346759
#
# Coordination Sequence:
#
# PCOD9260850 Si02
#       4
#     8   8   8   4
#     4  11  22  38  67  96 120 166 209 264 298 378
#     4  11  19  40  65  94 118 172 208 255 295 393
#     4  11  23  40  70  89 128 158 220 249 317 359
#     4  10  18  38  66  88 120 162 220 240 300 372
#
# _framework density 23.999193999999999
#
# number of rings (size 3 to 8) (size 9 to 14) (size 15 to 20)
#    0.000    1.143    5.714    2.571    0.000    4.571 
#    0.000    1.429    6.286    0.000    0.000    0.000 
#    0.000    0.000    0.000    0.000    0.000    0.000 
#
# Total GULP energy -78570.231572 kJ/mol
# GULP energy per Si atom -5612.159398 kJ/mol
# Density = 2.394457 g / cm^3
# Si number density = 23.999194 Si / 1000 Ang^3
#
#
#
# Elastic Constant Matrix: (Units=GPa)
#
#
# Indices 1 2 3 4 5 6 
#
# 1 142.7249 65.6149 51.6255 0.0000 29.8982 0.0000
# 2 65.6149 139.4207 72.8748 0.0000 13.0331 0.0000
# 3 51.6255 72.8748 127.7283 0.0000 24.8247 0.0000
# 4 0.0000 0.0000 0.0000 57.0817 0.0000 10.3010
# 5 29.8982 13.0331 24.8247 0.0000 39.1927 0.0000
# 6 0.0000 0.0000 0.0000 10.3010 0.0000 27.1386
#
#
#
# Elastic Compliance Matrix: (Units=1/GPa)
#
#
# Indices 1 2 3 4 5 6 
#
# 1 0.010360 -0.003900 -0.000774 0.000000 -0.006117 0.000000
# 2 -0.003900 0.011692 -0.005608 0.000000 0.002639 0.000000
# 3 -0.000774 -0.005608 0.012389 0.000000 -0.005392 0.000000
# 4 0.000000 0.000000 0.000000 0.018807 0.000000 -0.007139
# 5 -0.006117 0.002639 -0.005392 0.000000 0.032719 0.000000
# 6 0.000000 0.000000 0.000000 -0.007139 0.000000 0.039558
#
#
# Mechanical properties :
#
#
# Convention : Reuss Voigt Hill
#
# Bulk Modulus (GPa) = 72.04668 87.78939 79.91804
# Shear Modulus (GPa) = 33.17534 39.33317 36.25425
#
# Velocity S-wave (km/s) = 3.72203 4.05277 3.89092
# Velocity P-wave (km/s) = 6.96829 7.65242 7.31835
#
# Compressibility (1/GPa) = 0.01387989
#
# Stress axis : x y z
#
# Youngs Moduli (GPa) = 96.52059 85.52688 80.71484
#
# Poissons Ratio (x) = 0.33353 0.06246
# Poissons Ratio (y) = 0.37640 0.45262
# Poissons Ratio (z) = 0.07469 0.47960
#
# Static dielectric constant tensor:
#      x y z
#    x 1.911070 0.000000 -0.017880 
#    y 0.000000 1.845690 0.000000 
#    z -0.017880 0.000000 1.927490 
# 
# From -- ./inp_files/27307.got.cif
#   From: 2010.05.17/outbox.cif.g08.bks.cpg/sg15_14_cif.got.tgz:27307.got - 2010.06.03 18:47:42.
