data_PCOD9260385
_publ_section_title
;
Structure prediction by ZEFSAII (Michael W. Deem and Ramdas Pophale) SiO2 
 PCOD9260385
Probable space group: C 2/C
;
_chemical_formula_sum "Si O2"
_cell_formula_units_Z 52
_cell_length_a 9.387287
_cell_length_b 16.083397
_cell_length_c 18.696564
_cell_angle_alpha 90.000000
_cell_angle_beta 99.097175
_cell_angle_gamma 90.000000
_cell_volume 2787.290941
_symmetry_space_group_name_H-M "C 2/C"
_symmetry_group_IT_number 15
_symmetry_cell_setting 'monoclinic'
loop_
_space_group_symop_operation_xyz
x,y,z
-x,y,1/2-z
-x,-y,-z
x,-y,1/2+z
1/2+x,1/2+y,z
1/2-x,1/2+y,1/2-z
1/2-x,1/2-y,-z
1/2+x,1/2-y,1/2+z
loop_
_atom_site_type_symbol
_atom_site_label
_atom_site_fract_x
_atom_site_fract_y
_atom_site_fract_z
Si Si1 0.786864 0.774841 0.846238
Si Si2 0.502552 0.155345 0.106877
Si Si3 0.000000 0.796011 0.750000
Si Si4 0.833168 0.113386 0.748500
Si Si5 0.577818 0.018181 0.680626
Si Si6 0.506206 0.841964 0.441248
Si Si7 0.742405 0.208798 0.866914
O O1 0.650949 0.817456 0.872528
O O2 0.721341 0.697857 0.795091
O O3 0.894080 0.731625 0.911791
O O4 0.883938 0.830657 0.798970
O O5 0.625255 0.226838 0.122170
O O6 0.553121 0.075032 0.154143
O O7 0.487408 0.135115 0.021929
O O8 0.106036 0.743554 0.810182
O O9 0.744060 0.038644 0.708101
O O10 0.797089 0.128132 0.828658
O O11 0.000000 0.103884 0.750000
O O12 0.500000 0.035706 0.750000
O O13 0.524799 0.082019 0.615419
O O14 0.668976 0.812789 0.436193
#
# Coordination Sequence:
#
# PCOD9260385 Si02
#       7
#     8   8   4   8   8   8   8
#     4   9  19  34  62  89 117 150 201 246 295 343
#     4  12  23  35  62  96 117 150 206 253 293 351
#     4   8  18  32  52  86 122 144 182 252 292 326
#     4  10  18  37  60  83 112 157 201 242 292 357
#     4  11  24  39  59  85 120 162 198 243 302 356
#     4  10  21  42  60  84 127 163 187 240 313 368
#     4  10  19  36  61  88 115 155 200 248 292 350
#
# _framework density 18.656108
#
# number of rings (size 3 to 8) (size 9 to 14) (size 15 to 20)
#    0.000    1.846    3.077    2.308    6.462    0.000 
#    1.385    0.000    0.000    0.923    0.000    0.000 
#    0.000    0.000    0.000    0.000    0.000    0.000 
#
# Total GULP energy -144929.984347 kJ/mol
# GULP energy per Si atom -5574.230167 kJ/mol
# Density = 1.861365 g / cm^3
# Si number density = 18.656108 Si / 1000 Ang^3
#
#
#
# Elastic Constant Matrix: (Units=GPa)
#
#
# Indices 1 2 3 4 5 6 
#
# 1 164.1211 37.5155 43.9312 0.0000 -23.5719 0.0000
# 2 37.5155 59.6575 19.2023 0.0000 -8.7658 0.0000
# 3 43.9312 19.2023 88.7584 0.0000 -21.5779 0.0000
# 4 0.0000 0.0000 0.0000 16.1749 0.0000 -2.9406
# 5 -23.5719 -8.7658 -21.5779 0.0000 31.1040 0.0000
# 6 0.0000 0.0000 0.0000 -2.9406 0.0000 25.2543
#
#
#
# Elastic Compliance Matrix: (Units=1/GPa)
#
#
# Indices 1 2 3 4 5 6 
#
# 1 0.008087 -0.003828 -0.002342 0.000000 0.003425 0.000000
# 2 -0.003828 0.020043 -0.002133 0.000000 0.001267 0.000000
# 3 -0.002342 -0.002133 0.014807 0.000000 0.007896 0.000000
# 4 0.000000 0.000000 0.000000 0.063161 0.000000 0.007355
# 5 0.003425 0.001267 0.007896 0.000000 0.040581 0.000000
# 6 0.000000 0.000000 0.000000 0.007355 0.000000 0.040454
#
#
# Mechanical properties :
#
#
# Convention : Reuss Voigt Hill
#
# Bulk Modulus (GPa) = 37.97988 57.09280 47.53634
# Shear Modulus (GPa) = 23.52772 28.63248 26.08010
#
# Velocity S-wave (km/s) = 3.55509 3.92184 3.74296
# Velocity P-wave (km/s) = 6.10357 7.15381 6.64946
#
# Compressibility (1/GPa) = 0.02632973
#
# Stress axis : x y z
#
# Youngs Moduli (GPa) = 123.65609 49.89354 67.53712
#
# Poissons Ratio (x) = 0.19101 0.15815
# Poissons Ratio (y) = 0.47341 0.14406
# Poissons Ratio (z) = 0.28957 0.10643
#
# Static dielectric constant tensor:
#      x y z
#    x 1.663480 0.000000 -0.013920 
#    y 0.000000 1.635830 0.000000 
#    z -0.013920 0.000000 1.667770 
# 
# From -- ./inp_files/190400.got.cif
#   From: 2010.05.17/outbox.cif.g08.bks.cpg/sg15_96_cif.got.tgz:190400.got - 2010.06.03 18:47:42.
