data_PCOD9260459
_publ_section_title
;
Structure prediction by ZEFSAII (Michael W. Deem and Ramdas Pophale) SiO2 
 PCOD9260459
Probable space group: C 2/C
;
_chemical_formula_sum "Si O2"
_cell_formula_units_Z 56
_cell_length_a 11.499378
_cell_length_b 14.472075
_cell_length_c 26.499433
_cell_angle_alpha 90.000000
_cell_angle_beta 43.765127
_cell_angle_gamma 90.000000
_cell_volume 3050.435628
_symmetry_space_group_name_H-M "C 2/C"
_symmetry_group_IT_number 15
_symmetry_cell_setting 'monoclinic'
loop_
_space_group_symop_operation_xyz
x,y,z
-x,y,1/2-z
-x,-y,-z
x,-y,1/2+z
1/2+x,1/2+y,z
1/2-x,1/2+y,1/2-z
1/2-x,1/2-y,-z
1/2+x,1/2-y,1/2+z
loop_
_atom_site_type_symbol
_atom_site_label
_atom_site_fract_x
_atom_site_fract_y
_atom_site_fract_z
Si Si1 0.116808 0.334259 0.880127
Si Si2 0.126003 0.006859 0.167847
Si Si3 0.521019 0.127711 0.299900
Si Si4 0.455381 0.362469 0.081108
Si Si5 0.641435 0.545123 0.332326
Si Si6 0.281358 0.848883 0.050177
Si Si7 0.155974 0.147671 0.423500
O O1 0.256373 0.412191 0.846535
O O2 0.081739 0.321065 0.831281
O O3 0.154242 0.230415 0.887056
O O4 0.948311 0.363723 0.963955
O O5 0.000000 0.966552 0.250000
O O6 0.996486 0.047787 0.167712
O O7 0.235751 0.930160 0.103802
O O8 0.500000 0.172972 0.250000
O O9 0.667877 0.054095 0.246110
O O10 0.334354 0.095024 0.372230
O O11 0.374904 0.449229 0.133176
O O12 0.624884 0.339847 0.060498
O O13 0.519170 0.386809 0.005557
O O14 0.605289 0.628700 0.382271
O O15 0.306431 0.753484 0.072976
#
# Coordination Sequence:
#
# PCOD9260459 Si02
#       7
#     8   8   8   8   8   8   8
#     4  11  19  39  60  81 116 150 187 232 282 328
#     4  11  23  37  54  82 120 152 181 225 290 343
#     4  10  19  33  57  84 111 141 186 232 279 315
#     4  10  19  36  61  86 107 146 193 231 276 337
#     4  10  22  36  54  84 116 147 185 224 286 338
#     4  10  20  36  62  89 103 144 201 238 268 325
#     4  10  18  37  63  83 108 143 192 242 276 315
#
# _framework density 18.358032000000001
#
# number of rings (size 3 to 8) (size 9 to 14) (size 15 to 20)
#    0.000    1.714    4.286    1.714    0.000    1.714 
#    0.000    5.000    6.286    0.000    0.000    0.000 
#    0.000    0.000    0.000    0.000    0.000    0.000 
#
# Total GULP energy -155912.545917 kJ/mol
# GULP energy per Si atom -5568.305211 kJ/mol
# Density = 1.831625 g / cm^3
# Si number density = 18.358032 Si / 1000 Ang^3
#
#
#
# Elastic Constant Matrix: (Units=GPa)
#
#
# Indices 1 2 3 4 5 6 
#
# 1 69.5499 21.5597 24.0186 -0.0001 12.5465 0.0000
# 2 21.5597 54.0159 36.0300 -0.0001 -2.5919 0.0000
# 3 24.0186 36.0300 113.4068 -0.0002 4.2863 0.0000
# 4 -0.0001 -0.0001 -0.0002 12.2664 0.0001 -6.5773
# 5 12.5465 -2.5919 4.2863 0.0001 24.2844 0.0000
# 6 0.0000 0.0000 0.0000 -6.5773 0.0000 20.9214
#
#
#
# Elastic Compliance Matrix: (Units=1/GPa)
#
#
# Indices 1 2 3 4 5 6 
#
# 1 0.018916 -0.007146 -0.001347 0.000000 -0.010298 0.000000
# 2 -0.007146 0.026554 -0.007218 0.000000 0.007800 0.000000
# 3 -0.001347 -0.007218 0.011476 0.000000 -0.002100 0.000000
# 4 0.000000 0.000000 0.000000 0.098052 0.000000 0.030826
# 5 -0.010298 0.007800 -0.002100 0.000000 0.047702 0.000000
# 6 0.000000 0.000000 0.000000 0.030826 0.000000 0.057489
#
#
# Mechanical properties :
#
#
# Convention : Reuss Voigt Hill
#
# Bulk Modulus (GPa) = 39.17758 44.46548 41.82153
# Shear Modulus (GPa) = 16.66012 21.85205 19.25608
#
# Velocity S-wave (km/s) = 3.01576 3.45385 3.24221
# Velocity P-wave (km/s) = 5.78909 6.33872 6.07013
#
# Compressibility (1/GPa) = 0.02552480
#
# Stress axis : x y z
#
# Youngs Moduli (GPa) = 52.86489 37.65923 87.14201
#
# Poissons Ratio (x) = 0.26911 0.11736
# Poissons Ratio (y) = 0.37777 0.62896
# Poissons Ratio (z) = 0.07120 0.27181
#
# Static dielectric constant tensor:
#      x y z
#    x 1.655410 0.000000 0.021890 
#    y 0.000000 1.632650 0.000000 
#    z 0.021890 0.000000 1.666360 
# 
# From -- ./inp_files/238420.got.cif
#   From: 2010.05.17/outbox.cif.g08.bks.cpg/sg15_120_cif.got.tgz:238420.got - 2010.06.03 18:47:42.
