data_PCOD9260306
_publ_section_title
;
Structure prediction by ZEFSAII (Michael W. Deem and Ramdas Pophale) SiO2 
 PCOD9260306
Probable space group: C 2/C
;
_chemical_formula_sum "Si O2"
_cell_formula_units_Z 44
_cell_length_a 8.034114
_cell_length_b 16.338259
_cell_length_c 13.442596
_cell_angle_alpha 90.000000
_cell_angle_beta 102.390233
_cell_angle_gamma 90.000000
_cell_volume 1723.423634
_symmetry_space_group_name_H-M "C 2/C"
_symmetry_group_IT_number 15
_symmetry_cell_setting 'monoclinic'
loop_
_space_group_symop_operation_xyz
x,y,z
-x,y,1/2-z
-x,-y,-z
x,-y,1/2+z
1/2+x,1/2+y,z
1/2-x,1/2+y,1/2-z
1/2-x,1/2-y,-z
1/2+x,1/2-y,1/2+z
loop_
_atom_site_type_symbol
_atom_site_label
_atom_site_fract_x
_atom_site_fract_y
_atom_site_fract_z
Si Si1 0.341918 0.782274 0.885633
Si Si2 0.664840 0.613243 0.493467
Si Si3 0.000000 0.532238 0.250000
Si Si4 0.000000 0.806248 0.250000
Si Si5 0.831669 0.606744 0.860271
Si Si6 0.281836 0.432341 0.929190
Si Si7 0.000000 0.733569 0.750000
O O1 0.319206 0.868219 0.937196
O O2 0.501910 0.756179 0.841741
O O3 0.171845 0.780705 0.796020
O O4 0.336268 0.699151 0.949963
O O5 0.701067 0.531366 0.558798
O O6 0.471231 0.601063 0.429933
O O7 0.091921 0.474228 0.179885
O O8 0.145865 0.581255 0.325824
O O9 0.161074 0.865322 0.280140
O O10 0.962543 0.677520 0.842463
O O11 0.780994 0.597811 0.969438
#
# Coordination Sequence:
#
# PCOD9260306 Si02
#       7
#     8   8   4   4   8   8   4
#     4  10  20  41  66 100 137 188 228 290 353 439
#     4  10  22  39  68  99 142 179 238 295 363 415
#     4  11  24  38  65 100 143 186 239 292 365 414
#     4  10  18  36  71 104 133 190 242 280 362 438
#     4  10  20  37  67  98 136 186 234 292 349 438
#     4  11  22  42  66 105 138 190 235 302 356 424
#     4   9  20  38  68  92 136 188 233 266 359 430
#
# _framework density 25.530577000000001
#
# number of rings (size 3 to 8) (size 9 to 14) (size 15 to 20)
#    0.000    1.818    1.818    3.818    2.545    0.000 
#    3.273    2.727   12.000    0.000    0.000    0.000 
#    0.000    0.000    0.000    0.000    0.000    0.000 
#
# Total GULP energy -122980.745895 kJ/mol
# GULP energy per Si atom -5590.033904 kJ/mol
# Density = 2.547247 g / cm^3
# Si number density = 25.530577 Si / 1000 Ang^3
#
#
#
# Elastic Constant Matrix: (Units=GPa)
#
#
# Indices 1 2 3 4 5 6 
#
# 1 108.0812 40.7443 21.7692 0.0000 15.2494 0.0000
# 2 40.7443 99.9113 26.0228 0.0000 5.7045 0.0000
# 3 21.7692 26.0228 69.6408 0.0000 23.2526 0.0000
# 4 0.0000 0.0000 0.0000 11.4642 0.0000 -21.0653
# 5 15.2494 5.7045 23.2526 0.0000 56.1290 0.0000
# 6 0.0000 0.0000 0.0000 -21.0653 0.0000 14.8278
#
#
#
# Elastic Compliance Matrix: (Units=1/GPa)
#
#
# Indices 1 2 3 4 5 6 
#
# 1 0.011392 -0.004190 -0.001281 0.000000 -0.002138 0.000000
# 2 -0.004190 0.012652 -0.003909 0.000000 0.001472 0.000000
# 3 -0.001281 -0.003909 0.018536 0.000000 -0.006933 0.000000
# 4 0.000000 0.000000 0.000000 -0.054164 0.000000 -0.076949
# 5 -0.002138 0.001472 -0.006933 0.000000 0.021120 0.000000
# 6 0.000000 0.000000 0.000000 -0.076949 0.000000 -0.041877
#
#
# Mechanical properties :
#
#
# Convention : Reuss Voigt Hill
#
# Bulk Modulus (GPa) = 41.98503 50.52289 46.25396
# Shear Modulus (GPa) = -886.06392 29.09066 -428.48663
#
# Velocity S-wave (km/s) = -18.64975 3.37923 -12.96908
# Velocity P-wave (km/s) = 21.14877 5.92095 14.35640
#
# Compressibility (1/GPa) = 0.02381801
#
# Stress axis : x y z
#
# Youngs Moduli (GPa) = 87.78474 79.04109 53.94961
#
# Poissons Ratio (x) = 0.33116 0.06913
# Poissons Ratio (y) = 0.36779 0.21091
# Poissons Ratio (z) = 0.11249 0.30900
#
# Static dielectric constant tensor:
#      x y z
#    x 2.085600 0.000000 -0.153190 
#    y 0.000000 1.978210 0.000000 
#    z -0.153190 0.000000 2.170990 
# 
# From -- ./inp_files/134599.got.cif
#   From: 2010.05.17/outbox.cif.g08.bks.cpg/sg15_68_cif.got.tgz:134599.got - 2010.06.03 18:47:42.
