data_PCOD9260635
_publ_section_title
;
Structure prediction by ZEFSAII (Michael W. Deem and Ramdas Pophale) SiO2 
 PCOD9260635
Probable space group: C 2/C
;
_chemical_formula_sum "Si O2"
_cell_formula_units_Z 44
_cell_length_a 11.959499
_cell_length_b 11.289982
_cell_length_c 17.203391
_cell_angle_alpha 90.000000
_cell_angle_beta 50.601336
_cell_angle_gamma 90.000000
_cell_volume 1794.974967
_symmetry_space_group_name_H-M "C 2/C"
_symmetry_group_IT_number 15
_symmetry_cell_setting 'monoclinic'
loop_
_space_group_symop_operation_xyz
x,y,z
-x,y,1/2-z
-x,-y,-z
x,-y,1/2+z
1/2+x,1/2+y,z
1/2-x,1/2+y,1/2-z
1/2-x,1/2-y,-z
1/2+x,1/2-y,1/2+z
loop_
_atom_site_type_symbol
_atom_site_label
_atom_site_fract_x
_atom_site_fract_y
_atom_site_fract_z
Si Si1 0.351548 0.392893 0.354875
Si Si2 0.500000 0.249573 0.750000
Si Si3 0.148654 0.981100 0.481755
Si Si4 0.801674 0.604318 0.138541
Si Si5 0.717212 0.150883 0.179893
Si Si6 0.465753 0.235013 0.933903
O O1 0.500000 0.433041 0.250000
O O2 0.347700 0.434723 0.444976
O O3 0.229735 0.465768 0.361674
O O4 0.347781 0.252862 0.345094
O O5 0.353624 0.328943 0.805198
O O6 0.478221 0.184331 0.841599
O O7 0.270409 0.025910 0.368996
O O8 0.145341 0.847051 0.512912
O O9 0.000000 0.000000 0.500000
O O10 0.847787 0.635071 0.205829
O O11 0.913552 0.649893 0.025062
O O12 0.879577 0.203203 0.119383
#
# Coordination Sequence:
#
# PCOD9260635 Si02
#       6
#     8   4   8   8   8   8
#     4  12  23  41  69  93 132 179 223 273 331 404
#     4  10  18  38  60 102 118 168 222 268 324 392
#     4  10  21  40  66  94 130 166 225 267 333 393
#     4  11  22  39  67  97 128 175 223 273 333 390
#     4  10  25  39  63  99 133 170 227 267 340 400
#     4  10  21  39  67  94 133 170 218 281 329 391
#
# _framework density 24.512875999999999
#
# number of rings (size 3 to 8) (size 9 to 14) (size 15 to 20)
#    0.000    1.455    2.727    3.273    7.636    0.727 
#    0.000    0.000    2.000    0.000    0.000    0.000 
#    0.000    0.000    0.000    0.000    0.000    0.000 
#
# Total GULP energy -123054.184288 kJ/mol
# GULP energy per Si atom -5593.372013 kJ/mol
# Density = 2.445708 g / cm^3
# Si number density = 24.512876 Si / 1000 Ang^3
#
#
#
# Elastic Constant Matrix: (Units=GPa)
#
#
# Indices 1 2 3 4 5 6 
#
# 1 54.2750 21.6504 26.4251 0.0000 11.8022 0.0000
# 2 21.6504 87.7234 46.7904 0.0000 16.7036 0.0000
# 3 26.4251 46.7904 175.5506 0.0000 20.8822 0.0000
# 4 0.0000 0.0000 0.0000 5.6893 0.0000 -7.8342
# 5 11.8022 16.7036 20.8822 0.0000 37.3565 0.0000
# 6 0.0000 0.0000 0.0000 -7.8342 0.0000 25.2363
#
#
#
# Elastic Compliance Matrix: (Units=1/GPa)
#
#
# Indices 1 2 3 4 5 6 
#
# 1 0.021649 -0.003576 -0.001802 0.000000 -0.004233 0.000000
# 2 -0.003576 0.014539 -0.002890 0.000000 -0.003756 0.000000
# 3 -0.001802 -0.002890 0.006981 0.000000 -0.002041 0.000000
# 4 0.000000 0.000000 0.000000 0.307000 0.000000 0.095304
# 5 -0.004233 -0.003756 -0.002041 0.000000 0.030927 0.000000
# 6 0.000000 0.000000 0.000000 0.095304 0.000000 0.069211
#
#
# Mechanical properties :
#
#
# Convention : Reuss Voigt Hill
#
# Bulk Modulus (GPa) = 37.54819 56.36455 46.95637
# Shear Modulus (GPa) = 10.51039 28.50197 19.50618
#
# Velocity S-wave (km/s) = 2.07292 3.41359 2.82397
# Velocity P-wave (km/s) = 4.59133 6.21132 5.46173
#
# Compressibility (1/GPa) = 0.02663245
#
# Stress axis : x y z
#
# Youngs Moduli (GPa) = 46.19143 68.78244 143.25283
#
# Poissons Ratio (x) = 0.24595 0.25816
# Poissons Ratio (y) = 0.16517 0.41401
# Poissons Ratio (z) = 0.08324 0.19879
#
# Static dielectric constant tensor:
#      x y z
#    x 1.908880 0.000000 -0.059540 
#    y 0.000000 1.919380 0.000000 
#    z -0.059540 0.000000 1.895480 
# 
# From -- ./inp_files/142195.got.cif
#   From: 2010.05.17/outbox.cif.g08.bks.cpg/sg15_72_cif.got.tgz:142195.got - 2010.06.03 18:47:42.
