data_PCOD9260065
_publ_section_title
;
Structure prediction by ZEFSAII (Michael W. Deem and Ramdas Pophale) SiO2 
 PCOD9260065
Probable space group: C 2/C
;
_chemical_formula_sum "Si O2"
_cell_formula_units_Z 60
_cell_length_a 10.324101
_cell_length_b 23.007260
_cell_length_c 14.531517
_cell_angle_alpha 90.000000
_cell_angle_beta 125.588577
_cell_angle_gamma 90.000000
_cell_volume 2806.948486
_symmetry_space_group_name_H-M "C 2/C"
_symmetry_group_IT_number 15
_symmetry_cell_setting 'monoclinic'
loop_
_space_group_symop_operation_xyz
x,y,z
-x,y,1/2-z
-x,-y,-z
x,-y,1/2+z
1/2+x,1/2+y,z
1/2-x,1/2+y,1/2-z
1/2-x,1/2-y,-z
1/2+x,1/2-y,1/2+z
loop_
_atom_site_type_symbol
_atom_site_label
_atom_site_fract_x
_atom_site_fract_y
_atom_site_fract_z
Si Si1 0.310796 0.780335 0.180007
Si Si2 0.730954 0.348634 0.773456
Si Si3 0.395715 0.376831 0.114660
Si Si4 0.000000 0.390913 0.750000
Si Si5 0.393757 0.084678 0.485685
Si Si6 0.334893 0.967793 0.535571
Si Si7 0.124640 0.689111 0.598245
Si Si8 0.011835 0.181145 0.476567
O O1 0.500000 0.785296 0.250000
O O2 0.269902 0.712625 0.174331
O O3 0.277436 0.807526 0.266324
O O4 0.201261 0.808830 0.057107
O O5 0.752073 0.398290 0.857946
O O6 0.574101 0.348948 0.645188
O O7 0.887857 0.353705 0.772178
O O8 0.500000 0.375141 0.250000
O O9 0.241001 0.336085 0.069031
O O10 0.472239 0.353238 0.053011
O O11 0.329325 0.441546 0.069492
O O12 0.120114 0.433642 0.853380
O O13 0.528528 0.054175 0.478126
O O14 0.481977 0.143337 0.553057
O O15 0.342855 0.037426 0.539941
O O16 0.063595 0.753832 0.552037
#
# Coordination Sequence:
#
# PCOD9260065 Si02
#       8
#     8   8   8   4   8   8   8   8
#     4  11  24  40  58  86 123 172 212 255 312 400
#     4  10  21  36  63  91 129 160 207 263 317 380
#     4  11  20  35  61  94 128 158 198 269 336 378
#     4  10  18  36  62 100 126 158 206 272 322 368
#     4   9  18  38  58  89 121 171 207 243 306 383
#     4   9  19  34  62  87 126 162 208 252 308 383
#     4  10  21  36  60  90 125 166 207 250 322 393
#     4  11  21  37  60  94 128 160 206 267 327 387
#
# _framework density 21.375525
#
# number of rings (size 3 to 8) (size 9 to 14) (size 15 to 20)
#    0.000    1.867    4.000    0.400    0.000    4.267 
#    1.200    0.667    0.000    0.800    0.000    0.000 
#    0.000    0.000    0.000    0.000    0.000    0.000 
#
# Total GULP energy -167453.091023 kJ/mol
# GULP energy per Si atom -5581.769701 kJ/mol
# Density = 2.132687 g / cm^3
# Si number density = 21.375525 Si / 1000 Ang^3
#
#
#
# Elastic Constant Matrix: (Units=GPa)
#
#
# Indices 1 2 3 4 5 6 
#
# 1 47.9297 10.7223 9.4188 0.0000 15.4161 0.0000
# 2 10.7223 71.9687 36.1133 0.0000 9.4703 0.0000
# 3 9.4188 36.1133 140.0304 0.0000 18.9346 0.0000
# 4 0.0000 0.0000 0.0000 12.3243 0.0000 -6.6746
# 5 15.4161 9.4703 18.9346 0.0000 22.9357 0.0000
# 6 0.0000 0.0000 0.0000 -6.6746 0.0000 14.5147
#
#
#
# Elastic Compliance Matrix: (Units=1/GPa)
#
#
# Indices 1 2 3 4 5 6 
#
# 1 0.026986 -0.002237 0.001227 0.000000 -0.018227 0.000000
# 2 -0.002237 0.016413 -0.003793 0.000000 -0.002142 0.000000
# 3 0.001227 -0.003793 0.008934 0.000000 -0.006634 0.000000
# 4 0.000000 0.000000 0.000000 0.108050 0.000000 0.049687
# 5 -0.018227 -0.002142 -0.006634 0.000000 0.062213 0.000000
# 6 0.000000 0.000000 0.000000 0.049687 0.000000 0.091745
#
#
# Mechanical properties :
#
#
# Convention : Reuss Voigt Hill
#
# Bulk Modulus (GPa) = 23.40507 41.38196 32.39351
# Shear Modulus (GPa) = 14.78458 23.53322 19.15890
#
# Velocity S-wave (km/s) = 2.63279 3.32164 2.99708
# Velocity P-wave (km/s) = 4.49615 5.84060 5.21191
#
# Compressibility (1/GPa) = 0.04272579
#
# Stress axis : x y z
#
# Youngs Moduli (GPa) = 37.05625 60.92605 111.93247
#
# Poissons Ratio (x) = 0.13632 -0.13729
# Poissons Ratio (y) = 0.08291 0.42454
# Poissons Ratio (z) = -0.04545 0.23108
#
# Static dielectric constant tensor:
#      x y z
#    x 1.805260 0.000000 0.009230 
#    y 0.000000 1.765290 0.000000 
#    z 0.009230 0.000000 1.800270 
# 
# From -- ./inp_files/200955.got.cif
#   From: 2010.05.17/outbox.cif.g08.bks.cpg/sg15_101_cif.got.tgz:200955.got - 2010.06.03 18:47:42.
