data_PCOD9260159
_publ_section_title
;
Structure prediction by ZEFSAII (Michael W. Deem and Ramdas Pophale) SiO2 
 PCOD9260159
Probable space group: C 2/C
;
_chemical_formula_sum "Si O2"
_cell_formula_units_Z 40
_cell_length_a 16.271897
_cell_length_b 9.296812
_cell_length_c 17.653856
_cell_angle_alpha 90.000000
_cell_angle_beta 45.934448
_cell_angle_gamma 90.000000
_cell_volume 1918.958260
_symmetry_space_group_name_H-M "C 2/C"
_symmetry_group_IT_number 15
_symmetry_cell_setting 'monoclinic'
loop_
_space_group_symop_operation_xyz
x,y,z
-x,y,1/2-z
-x,-y,-z
x,-y,1/2+z
1/2+x,1/2+y,z
1/2-x,1/2+y,1/2-z
1/2-x,1/2-y,-z
1/2+x,1/2-y,1/2+z
loop_
_atom_site_type_symbol
_atom_site_label
_atom_site_fract_x
_atom_site_fract_y
_atom_site_fract_z
Si Si1 0.887069 0.742786 0.909768
Si Si2 0.413820 0.769720 0.715303
Si Si3 0.593639 0.128328 0.446776
Si Si4 0.353178 0.077218 0.392470
Si Si5 0.676846 0.491133 0.132227
O O1 0.937030 0.730884 0.962208
O O2 0.903615 0.584603 0.864440
O O3 0.750000 0.750000 0.000000
O O4 0.595953 0.612594 0.147623
O O5 0.393853 0.787368 0.639482
O O6 0.545009 0.819404 0.643877
O O7 0.336568 0.878178 0.816048
O O8 0.385646 0.617588 0.771256
O O9 0.500000 0.000000 0.500000
O O10 0.716304 0.060654 0.390443
O O11 0.243844 0.082578 0.517749
#
# Coordination Sequence:
#
# PCOD9260159 Si02
#       5
#     8   8   8   8   8
#     4   8  17  36  60  87 121 161 199 261 319 370
#     4  11  20  34  64  91 120 165 209 251 326 376
#     4  10  18  36  63  93 128 163 208 260 321 375
#     4   9  19  37  58  86 122 161 210 255 317 375
#     4  10  21  36  62  94 124 163 212 265 312 381
#
# _framework density 20.844642
#
# number of rings (size 3 to 8) (size 9 to 14) (size 15 to 20)
#    0.000    2.800    4.000    0.600    0.000    4.800 
#    0.000    4.000    8.800    6.000    0.000    0.000 
#    0.000    0.000    0.000    0.000    0.000    0.000 
#
# Total GULP energy -111390.091589 kJ/mol
# GULP energy per Si atom -5569.504579 kJ/mol
# Density = 2.079720 g / cm^3
# Si number density = 20.844642 Si / 1000 Ang^3
#
#
#
# Elastic Constant Matrix: (Units=GPa)
#
#
# Indices 1 2 3 4 5 6 
#
# 1 106.2090 70.9967 55.8613 0.0000 34.0210 0.0000
# 2 70.9967 156.6554 86.9189 0.0000 29.8334 0.0000
# 3 55.8613 86.9189 127.5850 0.0000 8.0802 0.0000
# 4 0.0000 0.0000 0.0000 8.2621 0.0000 12.0678
# 5 34.0210 29.8334 8.0802 0.0000 37.1848 0.0000
# 6 0.0000 0.0000 0.0000 12.0678 0.0000 32.9274
#
#
#
# Elastic Compliance Matrix: (Units=1/GPa)
#
#
# Indices 1 2 3 4 5 6 
#
# 1 0.018375 -0.002874 -0.005240 0.000000 -0.013366 0.000000
# 2 -0.002874 0.012750 -0.007043 0.000000 -0.006069 0.000000
# 3 -0.005240 -0.007043 0.014468 0.000000 0.007301 0.000000
# 4 0.000000 0.000000 0.000000 0.260468 0.000000 -0.095461
# 5 -0.013366 -0.006069 0.007301 0.000000 0.042404 0.000000
# 6 0.000000 0.000000 0.000000 -0.095461 0.000000 0.065356
#
#
# Mechanical properties :
#
#
# Convention : Reuss Voigt Hill
#
# Bulk Modulus (GPa) = 65.45861 90.88926 78.17393
# Shear Modulus (GPa) = 11.13021 27.45303 19.29162
#
# Velocity S-wave (km/s) = 2.31326 3.63303 3.04550
# Velocity P-wave (km/s) = 6.21339 7.82920 7.06762
#
# Compressibility (1/GPa) = 0.01527683
#
# Stress axis : x y z
#
# Youngs Moduli (GPa) = 54.42317 78.43408 69.11796
#
# Poissons Ratio (x) = 0.22545 0.36220
# Poissons Ratio (y) = 0.15643 0.48679
# Poissons Ratio (z) = 0.28520 0.55241
#
# Static dielectric constant tensor:
#      x y z
#    x 1.920630 0.000000 -0.190510 
#    y 0.000000 1.839100 0.000000 
#    z -0.190510 0.000000 2.077240 
# 
# From -- ./inp_files/203395.got.cif
#   From: 2010.05.17/outbox.cif.g08.bks.cpg/sg15_102_cif.got.tgz:203395.got - 2010.06.03 18:47:42.
