data_PCOD9260273
_publ_section_title
;
Structure prediction by ZEFSAII (Michael W. Deem and Ramdas Pophale) SiO2 
 PCOD9260273
Probable space group: C 2/C
;
_chemical_formula_sum "Si O2"
_cell_formula_units_Z 60
_cell_length_a 21.560501
_cell_length_b 8.216843
_cell_length_c 21.004111
_cell_angle_alpha 90.000000
_cell_angle_beta 48.922786
_cell_angle_gamma 90.000000
_cell_volume 2805.036668
_symmetry_space_group_name_H-M "C 2/C"
_symmetry_group_IT_number 15
_symmetry_cell_setting 'monoclinic'
loop_
_space_group_symop_operation_xyz
x,y,z
-x,y,1/2-z
-x,-y,-z
x,-y,1/2+z
1/2+x,1/2+y,z
1/2-x,1/2+y,1/2-z
1/2-x,1/2-y,-z
1/2+x,1/2-y,1/2+z
loop_
_atom_site_type_symbol
_atom_site_label
_atom_site_fract_x
_atom_site_fract_y
_atom_site_fract_z
Si Si1 0.289848 0.256855 0.542695
Si Si2 0.414975 0.997137 0.013571
Si Si3 0.360214 0.653465 0.766922
Si Si4 0.113838 0.998557 0.458119
Si Si5 0.477009 0.289124 0.889204
Si Si6 0.667605 0.201421 0.334010
Si Si7 0.146500 0.827348 0.811194
Si Si8 0.000000 0.021768 0.250000
O O1 0.250000 0.250000 0.500000
O O2 0.218100 0.201340 0.638833
O O3 0.316642 0.441531 0.540321
O O4 0.372744 0.149309 0.501247
O O5 0.348775 0.042756 0.113089
O O6 0.426551 0.141420 0.953578
O O7 0.500000 0.000000 0.000000
O O8 0.378913 0.793328 0.702143
O O9 0.345725 0.496680 0.732129
O O10 0.433542 0.594985 0.762228
O O11 0.115032 0.139692 0.404041
O O12 0.037163 0.943999 0.552986
O O13 0.135742 0.842282 0.401861
O O14 0.572325 0.236215 0.827007
O O15 0.460431 0.361747 0.830846
O O16 0.762100 0.238833 0.253878
#
# Coordination Sequence:
#
# PCOD9260273 Si02
#       8
#     8   8   8   8   8   8   8   4
#     4  12  24  41  61  94 135 178 213 270 339 409
#     4  11  25  43  67  97 134 167 228 290 338 389
#     4  10  21  38  65  93 124 168 215 265 324 395
#     4  10  21  37  63  93 130 164 224 265 332 395
#     4  10  22  41  63  95 124 179 215 271 328 399
#     4  10  21  40  66  97 119 172 222 279 328 388
#     4  10  18  36  67  92 124 160 223 275 323 381
#     4  10  22  42  64  94 138 174 216 262 336 420
#
# _framework density 21.390096
#
# number of rings (size 3 to 8) (size 9 to 14) (size 15 to 20)
#    0.000    1.600    2.667    2.000    0.000    5.333 
#    4.800    2.000    0.000    0.800    0.000    0.000 
#    0.000    0.000    0.000    0.000    0.000    0.000 
#
# Total GULP energy -167123.500343 kJ/mol
# GULP energy per Si atom -5570.783345 kJ/mol
# Density = 2.134141 g / cm^3
# Si number density = 21.390096 Si / 1000 Ang^3
#
#
#
# Elastic Constant Matrix: (Units=GPa)
#
#
# Indices 1 2 3 4 5 6 
#
# 1 122.0701 16.4754 47.8713 -0.0001 9.7960 0.0002
# 2 16.4754 25.4179 24.7344 -0.0002 -0.2972 0.0006
# 3 47.8713 24.7344 121.7019 -0.0001 15.2554 0.0001
# 4 -0.0001 -0.0002 -0.0001 15.7443 0.0000 -0.9441
# 5 9.7960 -0.2972 15.2554 0.0000 29.5071 0.0000
# 6 0.0002 0.0006 0.0001 -0.9441 0.0000 33.8550
#
#
#
# Elastic Compliance Matrix: (Units=1/GPa)
#
#
# Indices 1 2 3 4 5 6 
#
# 1 0.009989 -0.003608 -0.002968 0.000000 -0.001818 0.000000
# 2 -0.003608 0.051372 -0.009877 0.000001 0.006821 -0.000001
# 3 -0.002968 -0.009877 0.012062 0.000000 -0.005350 0.000000
# 4 0.000000 0.000001 0.000000 0.063622 0.000000 0.001774
# 5 -0.001818 0.006821 -0.005350 0.000000 0.037329 0.000000
# 6 0.000000 -0.000001 0.000000 0.001774 0.000000 0.029587
#
#
# Mechanical properties :
#
#
# Convention : Reuss Voigt Hill
#
# Bulk Modulus (GPa) = 24.68034 49.70581 37.19307
# Shear Modulus (GPa) = 19.97039 27.82851 23.89945
#
# Velocity S-wave (km/s) = 3.05885 3.61085 3.34625
# Velocity P-wave (km/s) = 4.90292 6.37750 5.68820
#
# Compressibility (1/GPa) = 0.04051808
#
# Stress axis : x y z
#
# Youngs Moduli (GPa) = 100.11272 19.46600 82.90332
#
# Poissons Ratio (x) = 0.07023 0.24605
# Poissons Ratio (y) = 0.36117 0.81881
# Poissons Ratio (z) = 0.29713 0.19226
#
# Static dielectric constant tensor:
#      x y z
#    x 1.814580 0.000000 0.003780 
#    y 0.000000 1.877550 0.000000 
#    z 0.003780 0.000000 1.770650 
# 
# From -- ./inp_files/252113.got.cif
#   From: 2010.05.17/outbox.cif.g08.bks.cpg/sg15_127_cif.got.tgz:252113.got - 2010.06.03 18:47:42.
