data_PCOD9260396
_publ_section_title
;
Structure prediction by ZEFSAII (Michael W. Deem and Ramdas Pophale) SiO2 
 PCOD9260396
Probable space group: C 2/C
;
_chemical_formula_sum "Si O2"
_cell_formula_units_Z 60
_cell_length_a 20.768767
_cell_length_b 9.543745
_cell_length_c 21.165113
_cell_angle_alpha 90.000000
_cell_angle_beta 38.898081
_cell_angle_gamma 90.000000
_cell_volume 2634.305876
_symmetry_space_group_name_H-M "C 2/C"
_symmetry_group_IT_number 15
_symmetry_cell_setting 'monoclinic'
loop_
_space_group_symop_operation_xyz
x,y,z
-x,y,1/2-z
-x,-y,-z
x,-y,1/2+z
1/2+x,1/2+y,z
1/2-x,1/2+y,1/2-z
1/2-x,1/2-y,-z
1/2+x,1/2-y,1/2+z
loop_
_atom_site_type_symbol
_atom_site_label
_atom_site_fract_x
_atom_site_fract_y
_atom_site_fract_z
Si Si1 0.500000 0.161778 0.750000
Si Si2 0.242753 0.079589 0.299490
Si Si3 0.226575 0.796837 0.324303
Si Si4 0.324602 0.614931 0.359614
Si Si5 0.977249 0.259216 0.463007
Si Si6 0.595909 0.283325 0.999655
Si Si7 0.568174 0.509458 0.329227
Si Si8 0.889733 0.490946 0.445702
O O1 0.596401 0.270833 0.674867
O O2 0.534098 0.056386 0.667860
O O3 0.291538 0.209273 0.225689
O O4 0.197731 0.134330 0.399627
O O5 0.155073 0.022130 0.317351
O O6 0.299837 0.932188 0.263753
O O7 0.274064 0.692916 0.338597
O O8 0.117391 0.831257 0.437992
O O9 0.386615 0.492807 0.275422
O O10 0.228743 0.560797 0.473829
O O11 0.934084 0.405257 0.472098
O O12 0.054781 0.270053 0.462271
O O13 0.018723 0.164759 0.374073
O O14 0.513973 0.392393 0.090188
O O15 0.611543 0.153279 0.033941
#
# Coordination Sequence:
#
# PCOD9260396 Si02
#       8
#     4   8   8   8   8   8   8   8
#     4  12  24  50  68  84 126 176 228 288 324 374
#     4  10  20  32  54  91 138 176 195 251 317 394
#     4  10  20  33  56  94 132 163 217 255 308 394
#     4  10  24  42  69  92 122 171 239 264 318 397
#     4  10  18  37  60  94 132 173 207 241 327 399
#     4  11  21  35  64  95 141 163 204 265 329 399
#     4  10  18  39  61  92 130 178 203 243 328 403
#     4  11  25  40  67 100 122 169 224 280 320 381
#
# _framework density 22.776398
#
# number of rings (size 3 to 8) (size 9 to 14) (size 15 to 20)
#    0.000    1.600    4.000    1.600    5.600    1.067 
#    0.000    0.667    0.000    2.400    0.000    0.000 
#    0.000    0.000    0.000    0.000    0.000    0.000 
#
# Total GULP energy -167270.039273 kJ/mol
# GULP energy per Si atom -5575.667976 kJ/mol
# Density = 2.272456 g / cm^3
# Si number density = 22.776398 Si / 1000 Ang^3
#
#
#
# Elastic Constant Matrix: (Units=GPa)
#
#
# Indices 1 2 3 4 5 6 
#
# 1 9.4313 -0.5796 18.0307 0.0000 2.6148 0.0000
# 2 -0.5796 112.2148 39.0062 0.0000 6.7450 0.0000
# 3 18.0307 39.0062 100.7229 0.0000 -3.4495 0.0000
# 4 0.0000 0.0000 0.0000 31.8392 0.0000 0.7259
# 5 2.6148 6.7450 -3.4495 0.0000 19.5234 0.0000
# 6 0.0000 0.0000 0.0000 0.7259 0.0000 15.6861
#
#
#
# Elastic Compliance Matrix: (Units=1/GPa)
#
#
# Indices 1 2 3 4 5 6 
#
# 1 0.207528 0.019721 -0.046253 0.000000 -0.042780 0.000000
# 2 0.019721 0.012541 -0.008678 0.000000 -0.008507 0.000000
# 3 -0.046253 -0.008678 0.022017 0.000000 0.013083 0.000000
# 4 0.000000 0.000000 0.000000 0.031441 0.000000 -0.001455
# 5 -0.042780 -0.008507 0.013083 0.000000 0.062201 0.000000
# 6 0.000000 0.000000 0.000000 -0.001455 0.000000 0.063818
#
#
# Mechanical properties :
#
#
# Convention : Reuss Voigt Hill
#
# Bulk Modulus (GPa) = 5.82525 37.25373 21.53949
# Shear Modulus (GPa) = 9.48426 24.47052 16.97739
#
# Velocity S-wave (km/s) = 2.04282 3.28133 2.73315
# Velocity P-wave (km/s) = 2.85084 5.54509 4.40881
#
# Compressibility (1/GPa) = 0.17166645
#
# Stress axis : x y z
#
# Youngs Moduli (GPa) = 4.81862 79.73607 45.41957
#
# Poissons Ratio (x) = -1.57247 2.10077
# Poissons Ratio (y) = -0.09503 0.39417
# Poissons Ratio (z) = 0.22287 0.69199
#
# Static dielectric constant tensor:
#      x y z
#    x 1.917920 0.000000 -0.036980 
#    y 0.000000 1.976780 0.000000 
#    z -0.036980 0.000000 1.910580 
# 
# From -- ./inp_files/255166.got.cif
#   From: 2010.05.17/outbox.cif.g08.bks.cpg/sg15_128_cif.got.tgz:255166.got - 2010.06.03 18:47:42.
