data_PCOD9260815
_publ_section_title
;
Structure prediction by ZEFSAII (Michael W. Deem and Ramdas Pophale) SiO2 
 PCOD9260815
Probable space group: C 2/C
;
_chemical_formula_sum "Si O2"
_cell_formula_units_Z 36
_cell_length_a 11.183760
_cell_length_b 10.843562
_cell_length_c 18.772762
_cell_angle_alpha 90.000000
_cell_angle_beta 38.491621
_cell_angle_gamma 90.000000
_cell_volume 1416.960324
_symmetry_space_group_name_H-M "C 2/C"
_symmetry_group_IT_number 15
_symmetry_cell_setting 'monoclinic'
loop_
_space_group_symop_operation_xyz
x,y,z
-x,y,1/2-z
-x,-y,-z
x,-y,1/2+z
1/2+x,1/2+y,z
1/2-x,1/2+y,1/2-z
1/2-x,1/2-y,-z
1/2+x,1/2-y,1/2+z
loop_
_atom_site_type_symbol
_atom_site_label
_atom_site_fract_x
_atom_site_fract_y
_atom_site_fract_z
Si Si1 0.111654 0.925178 0.806797
Si Si2 0.227478 0.860862 0.911785
Si Si3 0.250000 0.750000 0.500000
Si Si4 0.500000 0.635935 0.750000
Si Si5 0.500000 0.948120 0.250000
Si Si6 0.336402 0.726681 0.623888
O O1 0.162241 0.920653 0.866958
O O2 0.285630 0.848012 0.690362
O O3 0.083004 0.047050 0.772736
O O4 0.913613 0.849073 0.894689
O O5 0.333796 0.731449 0.851299
O O6 0.382471 0.966235 0.860250
O O7 0.040752 0.835494 0.045378
O O8 0.345962 0.748464 0.535025
O O9 0.351180 0.859867 0.279161
#
# Coordination Sequence:
#
# PCOD9260815 Si02
#       6
#     8   8   4   4   4   8
#     4  11  22  43  66  95 129 175 217 269 330 390
#     4  10  27  41  65 100 130 172 220 273 330 391
#     4  10  18  38  64  94 122 168 222 260 322 390
#     4  11  23  48  64  98 141 167 222 278 324 393
#     4  11  21  46  64  92 135 167 214 278 330 389
#     4  11  21  41  66  93 127 171 223 261 334 395
#
# _framework density 25.406499
#
# number of rings (size 3 to 8) (size 9 to 14) (size 15 to 20)
#    0.000    1.333    4.444    0.667    3.111    0.889 
#    8.000    2.222    0.000    0.000    0.000    0.000 
#    0.000    0.000    0.000    0.000    0.000    0.000 
#
# Total GULP energy -100205.667572 kJ/mol
# GULP energy per Si atom -5566.981532 kJ/mol
# Density = 2.534867 g / cm^3
# Si number density = 25.406499 Si / 1000 Ang^3
#
#
#
# Elastic Constant Matrix: (Units=GPa)
#
#
# Indices 1 2 3 4 5 6 
#
# 1 85.2147 36.4439 38.2163 0.0000 -1.5372 0.0000
# 2 36.4439 137.2592 73.5871 0.0000 -14.4721 0.0000
# 3 38.2163 73.5871 120.6856 -0.0002 -18.4041 0.0000
# 4 0.0000 0.0000 -0.0002 26.6856 0.0000 -2.9910
# 5 -1.5372 -14.4721 -18.4041 0.0000 45.3988 0.0000
# 6 0.0000 0.0000 0.0000 -2.9910 0.0000 29.5544
#
#
#
# Elastic Compliance Matrix: (Units=1/GPa)
#
#
# Indices 1 2 3 4 5 6 
#
# 1 0.014142 -0.002067 -0.003459 0.000000 -0.001582 0.000000
# 2 -0.002067 0.011155 -0.005985 0.000000 0.001060 0.000000
# 3 -0.003459 -0.005985 0.013560 0.000000 0.003472 0.000000
# 4 0.000000 0.000000 0.000000 0.037903 0.000000 0.003836
# 5 -0.001582 0.001060 0.003472 0.000000 0.023719 0.000000
# 6 0.000000 0.000000 0.000000 0.003836 0.000000 0.034224
#
#
# Mechanical properties :
#
#
# Convention : Reuss Voigt Hill
#
# Bulk Modulus (GPa) = 63.15588 71.07265 67.11426
# Shear Modulus (GPa) = 30.67393 33.32189 31.99791
#
# Velocity S-wave (km/s) = 3.47843 3.62546 3.55271
# Velocity P-wave (km/s) = 6.40662 6.74983 6.58046
#
# Compressibility (1/GPa) = 0.01583384
#
# Stress axis : x y z
#
# Youngs Moduli (GPa) = 70.71199 89.64588 73.74418
#
# Poissons Ratio (x) = 0.18532 0.25508
# Poissons Ratio (y) = 0.14618 0.44139
# Poissons Ratio (z) = 0.24459 0.53657
#
# Static dielectric constant tensor:
#      x y z
#    x 2.001990 0.000000 -0.087070 
#    y 0.000000 2.042050 0.000000 
#    z -0.087070 0.000000 2.122050 
# 
# From -- ./inp_files/94400.got.cif
#   From: 2010.05.17/outbox.cif.g08.bks.cpg/sg15_48_cif.got.tgz:94400.got - 2010.06.03 18:47:42.
