data_PCOD9260994
_publ_section_title
;
Structure prediction by ZEFSAII (Michael W. Deem and Ramdas Pophale) SiO2 
 PCOD9260994
Probable space group: C 2/C
;
_chemical_formula_sum "Si O2"
_cell_formula_units_Z 40
_cell_length_a 22.059743
_cell_length_b 14.151652
_cell_length_c 9.636638
_cell_angle_alpha 90.000000
_cell_angle_beta 36.286988
_cell_angle_gamma 90.000000
_cell_volume 1780.451751
_symmetry_space_group_name_H-M "C 2/C"
_symmetry_group_IT_number 15
_symmetry_cell_setting 'monoclinic'
loop_
_space_group_symop_operation_xyz
x,y,z
-x,y,1/2-z
-x,-y,-z
x,-y,1/2+z
1/2+x,1/2+y,z
1/2-x,1/2+y,1/2-z
1/2-x,1/2-y,-z
1/2+x,1/2-y,1/2+z
loop_
_atom_site_type_symbol
_atom_site_label
_atom_site_fract_x
_atom_site_fract_y
_atom_site_fract_z
Si Si1 0.245198 0.063137 0.077774
Si Si2 0.763135 0.219147 0.187976
Si Si3 0.652418 0.871104 0.626611
Si Si4 0.034734 0.351369 0.348750
Si Si5 0.594631 0.346919 0.660317
O O1 0.208950 0.132515 0.266000
O O2 0.158970 0.074505 0.121188
O O3 0.352619 0.109385 0.831981
O O4 0.280746 0.958644 0.051173
O O5 0.713959 0.172245 0.143137
O O6 0.675711 0.284727 0.420757
O O7 0.852303 0.290074 0.979671
O O8 0.544085 0.894072 0.895616
O O9 0.042519 0.237417 0.347349
O O10 0.000000 0.370080 0.250000
O O11 0.500000 0.388225 0.750000
#
# Coordination Sequence:
#
# PCOD9260994 Si02
#       5
#     8   8   8   8   8
#     4  11  23  39  69 102 132 179 229 274 337 410
#     4  10  22  41  64  95 135 179 218 281 336 400
#     4  11  22  39  70  95 140 175 222 276 343 398
#     4  10  18  39  65  99 136 170 215 279 345 394
#     4  10  20  42  68  88 139 185 217 277 337 396
#
# _framework density 22.466207000000001
#
# number of rings (size 3 to 8) (size 9 to 14) (size 15 to 20)
#    0.000    1.600    6.000    3.000    2.800    0.000 
#    0.000    5.000    0.000    0.000    0.000    0.000 
#    0.000    0.000    0.000    0.000    0.000    0.000 
#
# Total GULP energy -111664.761074 kJ/mol
# GULP energy per Si atom -5583.238054 kJ/mol
# Density = 2.241507 g / cm^3
# Si number density = 22.466207 Si / 1000 Ang^3
#
#
#
# Elastic Constant Matrix: (Units=GPa)
#
#
# Indices 1 2 3 4 5 6 
#
# 1 68.5981 10.4132 21.7294 0.0000 -14.0059 0.0000
# 2 10.4132 87.3811 42.6087 0.0000 9.7950 0.0000
# 3 21.7294 42.6087 72.1516 0.0000 13.7304 0.0000
# 4 0.0000 0.0000 0.0000 25.6803 0.0000 6.0989
# 5 -14.0059 9.7950 13.7304 0.0000 14.7143 0.0000
# 6 0.0000 0.0000 0.0000 6.0989 0.0000 27.7818
#
#
#
# Elastic Compliance Matrix: (Units=1/GPa)
#
#
# Indices 1 2 3 4 5 6 
#
# 1 0.028687 -0.000051 -0.016795 0.000000 0.043011 0.000000
# 2 -0.000051 0.016133 -0.009070 0.000000 -0.002324 0.000000
# 3 -0.016795 -0.009070 0.031817 0.000000 -0.039638 0.000000
# 4 0.000000 0.000000 0.000000 0.041082 0.000000 -0.009019
# 5 0.043011 -0.002324 -0.039638 0.000000 0.147436 0.000000
# 6 0.000000 0.000000 0.000000 -0.009019 0.000000 0.037975
#
#
# Mechanical properties :
#
#
# Convention : Reuss Voigt Hill
#
# Bulk Modulus (GPa) = 40.31119 41.95928 41.13523
# Shear Modulus (GPa) = 13.76543 23.86057 18.81300
#
# Velocity S-wave (km/s) = 2.47800 3.26247 2.89691
# Velocity P-wave (km/s) = 5.11559 5.73662 5.43498
#
# Compressibility (1/GPa) = 0.02480701
#
# Stress axis : x y z
#
# Youngs Moduli (GPa) = 34.85916 61.98333 31.42990
#
# Poissons Ratio (x) = 0.00314 0.52785
# Poissons Ratio (y) = 0.00176 0.28507
# Poissons Ratio (z) = 0.58544 0.56219
#
# Static dielectric constant tensor:
#      x y z
#    x 1.868570 0.000000 0.046440 
#    y 0.000000 1.861080 0.000000 
#    z 0.046440 0.000000 1.891510 
# 
# From -- ./inp_files/61364.got.cif
#   From: 2010.05.17/outbox.cif.g08.bks.cpg/sg15_31_cif.got.tgz:61364.got - 2010.06.03 18:47:42.
