data_PCOD9260654
_publ_section_title
;
Structure prediction by ZEFSAII (Michael W. Deem and Ramdas Pophale) SiO2 
 PCOD9260654
Probable space group: C 2/C
;
_chemical_formula_sum "Si O2"
_cell_formula_units_Z 44
_cell_length_a 27.105010
_cell_length_b 12.465030
_cell_length_c 17.532401
_cell_angle_alpha 90.000000
_cell_angle_beta 17.853190
_cell_angle_gamma 90.000000
_cell_volume 1816.045823
_symmetry_space_group_name_H-M "C 2/C"
_symmetry_group_IT_number 15
_symmetry_cell_setting 'monoclinic'
loop_
_space_group_symop_operation_xyz
x,y,z
-x,y,1/2-z
-x,-y,-z
x,-y,1/2+z
1/2+x,1/2+y,z
1/2-x,1/2+y,1/2-z
1/2-x,1/2-y,-z
1/2+x,1/2-y,1/2+z
loop_
_atom_site_type_symbol
_atom_site_label
_atom_site_fract_x
_atom_site_fract_y
_atom_site_fract_z
Si Si1 0.477537 0.431270 0.368862
Si Si2 0.978323 0.622314 0.449142
Si Si3 0.846582 0.072397 0.746284
Si Si4 0.890116 0.621383 0.081182
Si Si5 0.000000 0.409797 0.750000
Si Si6 0.120313 0.167901 0.962512
O O1 0.500000 0.396478 0.250000
O O2 0.609803 0.389763 0.233402
O O3 0.298869 0.397570 0.657152
O O4 0.479864 0.562982 0.366698
O O5 0.975372 0.492863 0.445154
O O6 0.797165 0.658863 0.739053
O O7 0.087592 0.645543 0.361109
O O8 0.008789 0.657237 0.316687
O O9 0.844526 0.153734 0.679502
O O10 0.667462 0.025235 0.005602
O O11 0.000000 0.000000 0.500000
O O12 0.951713 0.713516 0.933047
#
# Coordination Sequence:
#
# PCOD9260654 Si02
#       6
#     8   8   8   8   4   8
#     4  10  20  37  59  89 121 155 206 260 308 361
#     4   9  20  37  57  84 119 159 202 249 310 361
#     4   9  19  36  60  84 119 163 193 247 309 364
#     4  10  20  37  60  82 121 169 199 249 313 373
#     4  10  18  38  60  86 122 150 202 256 296 364
#     4   9  20  37  59  83 118 164 203 246 311 374
#
# _framework density 24.228463999999999
#
# number of rings (size 3 to 8) (size 9 to 14) (size 15 to 20)
#    0.000    2.545    0.000    2.182    2.545    0.000 
#    8.182    4.545    0.000    5.455    0.000    0.000 
#    0.000    0.000    0.000    0.000    0.000    0.000 
#
# Total GULP energy -122657.288501 kJ/mol
# GULP energy per Si atom -5575.331296 kJ/mol
# Density = 2.417332 g / cm^3
# Si number density = 24.228464 Si / 1000 Ang^3
#
#
#
# Elastic Constant Matrix: (Units=GPa)
#
#
# Indices 1 2 3 4 5 6 
#
# 1 161.0087 3.9650 29.6221 0.0000 -20.7229 0.0000
# 2 3.9650 70.0787 1.6974 0.0000 -11.3014 0.0000
# 3 29.6221 1.6974 79.5479 0.0000 -28.7042 0.0001
# 4 0.0000 0.0000 0.0000 -0.8294 0.0000 3.9539
# 5 -20.7229 -11.3014 -28.7042 0.0000 49.6140 0.0000
# 6 0.0000 0.0000 0.0001 3.9539 0.0000 21.5457
#
#
#
# Elastic Compliance Matrix: (Units=1/GPa)
#
#
# Indices 1 2 3 4 5 6 
#
# 1 0.006784 -0.000061 -0.001905 0.000000 0.001717 0.000000
# 2 -0.000061 0.014897 0.001163 0.000000 0.004041 0.000000
# 3 -0.001905 0.001163 0.016511 0.000000 0.009022 0.000000
# 4 0.000000 0.000000 0.000000 -0.643110 0.000001 0.118018
# 5 0.001717 0.004041 0.009022 0.000001 0.027013 0.000000
# 6 0.000000 0.000000 0.000000 0.118018 0.000000 0.024755
#
#
# Mechanical properties :
#
#
# Convention : Reuss Voigt Hill
#
# Bulk Modulus (GPa) = 27.33345 42.35604 34.84474
# Shear Modulus (GPa) = -9.27043 32.42279 11.57618
#
# Velocity S-wave (km/s) = -1.95820 3.66213 2.18822
# Velocity P-wave (km/s) = 2.48863 5.94991 4.56041
#
# Compressibility (1/GPa) = 0.03658521
#
# Stress axis : x y z
#
# Youngs Moduli (GPa) = 147.40792 67.12962 60.56561
#
# Poissons Ratio (x) = 0.00408 0.11539
# Poissons Ratio (y) = 0.00895 -0.07042
# Poissons Ratio (z) = 0.28084 -0.07805
#
# Static dielectric constant tensor:
#      x y z
#    x 1.968890 0.000000 0.050800 
#    y 0.000000 2.070930 0.000000 
#    z 0.050800 0.000000 1.939590 
# 
# From -- ./inp_files/222754.got.cif
#   From: 2010.05.17/outbox.cif.g08.bks.cpg/sg15_112_cif.got.tgz:222754.got - 2010.06.03 18:47:42.
