data_PCOD9260195
_publ_section_title
;
Structure prediction by ZEFSAII (Michael W. Deem and Ramdas Pophale) SiO2 
 PCOD9260195
Probable space group: C 2/C
;
_chemical_formula_sum "Si O2"
_cell_formula_units_Z 36
_cell_length_a 12.633246
_cell_length_b 7.205016
_cell_length_c 24.131214
_cell_angle_alpha 90.000000
_cell_angle_beta 38.560764
_cell_angle_gamma 90.000000
_cell_volume 1369.168955
_symmetry_space_group_name_H-M "C 2/C"
_symmetry_group_IT_number 15
_symmetry_cell_setting 'monoclinic'
loop_
_space_group_symop_operation_xyz
x,y,z
-x,y,1/2-z
-x,-y,-z
x,-y,1/2+z
1/2+x,1/2+y,z
1/2-x,1/2+y,1/2-z
1/2-x,1/2-y,-z
1/2+x,1/2-y,1/2+z
loop_
_atom_site_type_symbol
_atom_site_label
_atom_site_fract_x
_atom_site_fract_y
_atom_site_fract_z
Si Si1 0.000000 0.878133 0.750000
Si Si2 0.299629 0.145567 0.191003
Si Si3 0.547859 0.243892 0.882044
Si Si4 0.745584 0.461335 0.455027
Si Si5 0.873634 0.829572 0.391358
O O1 0.939384 0.023945 0.821014
O O2 0.833854 0.768567 0.797670
O O3 0.189521 0.134054 0.292871
O O4 0.465934 0.255811 0.139131
O O5 0.356855 0.947364 0.143005
O O6 0.431222 0.349407 0.974748
O O7 0.406367 0.174249 0.894332
O O8 0.783416 0.644989 0.403667
O O9 0.739495 0.557161 0.518886
#
# Coordination Sequence:
#
# PCOD9260195 Si02
#       5
#     4   8   8   8   8
#     4  12  22  38  70  94 122 172 218 256 314 386
#     4  11  21  38  67  91 127 167 212 262 308 380
#     4  10  18  36  64  89 123 168 206 254 323 369
#     4   9  19  37  65  86 131 169 196 272 330 354
#     4  10  21  40  64  94 126 168 215 262 317 380
#
# _framework density 26.293323999999998
#
# number of rings (size 3 to 8) (size 9 to 14) (size 15 to 20)
#    0.000    1.778    4.444    0.000    0.000    0.000 
#    0.000   15.556    0.000    0.000    0.000    0.000 
#    0.000    0.000    0.000    0.000    0.000    0.000 
#
# Total GULP energy -100564.788091 kJ/mol
# GULP energy per Si atom -5586.932672 kJ/mol
# Density = 2.623348 g / cm^3
# Si number density = 26.293324 Si / 1000 Ang^3
#
#
#
# Elastic Constant Matrix: (Units=GPa)
#
#
# Indices 1 2 3 4 5 6 
#
# 1 87.6841 5.1673 23.2607 -0.0001 -35.1204 0.0000
# 2 5.1673 121.1009 33.4603 -0.0002 -9.7385 0.0001
# 3 23.2607 33.4603 129.9337 0.0000 -35.1588 0.0000
# 4 -0.0001 -0.0002 0.0000 45.2888 0.0000 -8.1654
# 5 -35.1204 -9.7385 -35.1588 0.0000 36.3543 0.0000
# 6 0.0000 0.0001 0.0000 -8.1654 0.0000 17.3272
#
#
#
# Elastic Compliance Matrix: (Units=1/GPa)
#
#
# Indices 1 2 3 4 5 6 
#
# 1 0.019033 0.000264 0.002058 0.000000 0.020448 0.000000
# 2 0.000264 0.008895 -0.002200 0.000000 0.000510 0.000000
# 3 0.002058 -0.002200 0.011205 0.000000 0.012235 0.000000
# 4 0.000000 0.000000 0.000000 0.024131 0.000000 0.011372
# 5 0.020448 0.000510 0.012235 0.000000 0.059231 0.000000
# 6 0.000000 0.000000 0.000000 0.011372 0.000000 0.063072
#
#
# Mechanical properties :
#
#
# Convention : Reuss Voigt Hill
#
# Bulk Modulus (GPa) = 25.39569 51.38838 38.39203
# Shear Modulus (GPa) = 25.19539 38.24942 31.72240
#
# Velocity S-wave (km/s) = 3.09891 3.81822 3.47721
# Velocity P-wave (km/s) = 4.74172 6.24700 5.54567
#
# Compressibility (1/GPa) = 0.03937675
#
# Stress axis : x y z
#
# Youngs Moduli (GPa) = 52.53954 112.42065 89.24504
#
# Poissons Ratio (x) = -0.02964 -0.18365
# Poissons Ratio (y) = -0.01385 0.19633
# Poissons Ratio (z) = -0.10812 0.24731
#
# Static dielectric constant tensor:
#      x y z
#    x 2.176070 0.000000 -0.007990 
#    y 0.000000 2.275670 0.000000 
#    z -0.007990 0.000000 2.043370 
# 
# From -- ./inp_files/158704.got.cif
#   From: 2010.05.17/outbox.cif.g08.bks.cpg/sg15_80_cif.got.tgz:158704.got - 2010.06.03 18:47:42.
