data_PCOD9260980
_publ_section_title
;
Structure prediction by ZEFSAII (Michael W. Deem and Ramdas Pophale) SiO2 
 PCOD9260980
Probable space group: C 2/C
;
_chemical_formula_sum "Si O2"
_cell_formula_units_Z 44
_cell_length_a 20.591064
_cell_length_b 15.779273
_cell_length_c 14.046663
_cell_angle_alpha 90.000000
_cell_angle_beta 23.383833
_cell_angle_gamma 90.000000
_cell_volume 1811.373085
_symmetry_space_group_name_H-M "C 2/C"
_symmetry_group_IT_number 15
_symmetry_cell_setting 'monoclinic'
loop_
_space_group_symop_operation_xyz
x,y,z
-x,y,1/2-z
-x,-y,-z
x,-y,1/2+z
1/2+x,1/2+y,z
1/2-x,1/2+y,1/2-z
1/2-x,1/2-y,-z
1/2+x,1/2-y,1/2+z
loop_
_atom_site_type_symbol
_atom_site_label
_atom_site_fract_x
_atom_site_fract_y
_atom_site_fract_z
Si Si1 0.124000 0.940480 0.490712
Si Si2 0.262694 0.648942 0.992062
Si Si3 0.859249 0.121098 0.066380
Si Si4 0.899146 0.192640 0.204545
Si Si5 0.000000 0.524301 0.250000
Si Si6 0.109784 0.378005 0.230642
O O1 0.292654 0.912537 0.310369
O O2 0.000000 0.954462 0.750000
O O3 0.047866 0.869120 0.527420
O O4 0.150260 0.023290 0.392829
O O5 0.244404 0.630079 0.129147
O O6 0.450771 0.630010 0.716842
O O7 0.250000 0.750000 0.000000
O O8 0.145999 0.588939 0.085012
O O9 0.837420 0.186357 0.180320
O O10 0.958581 0.286024 0.151849
O O11 0.750796 0.152736 0.466031
O O12 0.001731 0.453801 0.333247
#
# Coordination Sequence:
#
# PCOD9260980 Si02
#       6
#     8   8   8   8   4   8
#     4  10  18  39  64  94 132 177 227 271 333 403
#     4  11  24  44  72  95 131 177 230 284 346 403
#     4  11  21  45  68  96 128 182 234 272 337 407
#     4  10  23  38  69  97 137 185 226 276 330 423
#     4  12  22  44  72  98 140 186 216 296 352 390
#     4  10  23  40  64 103 141 177 223 277 351 396
#
# _framework density 24.290966000000001
#
# number of rings (size 3 to 8) (size 9 to 14) (size 15 to 20)
#    0.000    1.455    3.636    2.727    6.364    1.455 
#    0.000    2.727    0.000    0.000    0.000    0.000 
#    0.000    0.000    0.000    0.000    0.000    0.000 
#
# Total GULP energy -122911.510807 kJ/mol
# GULP energy per Si atom -5586.886855 kJ/mol
# Density = 2.423568 g / cm^3
# Si number density = 24.290966 Si / 1000 Ang^3
#
#
#
# Elastic Constant Matrix: (Units=GPa)
#
#
# Indices 1 2 3 4 5 6 
#
# 1 133.8940 66.0969 35.4445 -0.0003 -27.8668 0.0000
# 2 66.0969 218.8748 31.5458 -0.0013 -28.1845 0.0002
# 3 35.4445 31.5458 51.5114 -0.0016 -20.4119 0.0003
# 4 -0.0003 -0.0013 -0.0016 6.4912 0.0005 0.7913
# 5 -27.8668 -28.1845 -20.4119 0.0005 27.0161 -0.0001
# 6 0.0000 0.0002 0.0003 0.7913 -0.0001 72.6714
#
#
#
# Elastic Compliance Matrix: (Units=1/GPa)
#
#
# Indices 1 2 3 4 5 6 
#
# 1 0.010684 -0.001886 -0.003724 -0.000001 0.006239 0.000000
# 2 -0.001886 0.005693 -0.000865 0.000001 0.003340 0.000000
# 3 -0.003724 -0.000865 0.029440 0.000006 0.017499 0.000000
# 4 -0.000001 0.000001 0.000006 0.154259 0.000001 -0.001680
# 5 0.006239 0.003340 0.017499 0.000001 0.060156 0.000000
# 6 0.000000 0.000000 0.000000 -0.001680 0.000000 0.013779
#
#
# Mechanical properties :
#
#
# Convention : Reuss Voigt Hill
#
# Bulk Modulus (GPa) = 30.42670 74.49497 52.46084
# Shear Modulus (GPa) = 16.78316 39.31528 28.04922
#
# Velocity S-wave (km/s) = 2.63139 4.02744 3.40180
# Velocity P-wave (km/s) = 4.66749 7.23612 6.08879
#
# Compressibility (1/GPa) = 0.03286587
#
# Stress axis : x y z
#
# Youngs Moduli (GPa) = 93.59686 175.64656 33.96767
#
# Poissons Ratio (x) = 0.33132 0.12651
# Poissons Ratio (y) = 0.17655 0.02938
# Poissons Ratio (z) = 0.34858 0.15194
#
# Static dielectric constant tensor:
#      x y z
#    x 1.928820 0.000000 0.069990 
#    y 0.000000 1.933900 0.000000 
#    z 0.069990 0.000000 2.190280 
# 
# From -- ./inp_files/168411.got.cif
#   From: 2010.05.17/outbox.cif.g08.bks.cpg/sg15_85_cif.got.tgz:168411.got - 2010.06.03 18:47:42.
