data_PCOD9260610
_publ_section_title
;
Structure prediction by ZEFSAII (Michael W. Deem and Ramdas Pophale) SiO2 
 PCOD9260610
Probable space group: C 2/C
;
_chemical_formula_sum "Si O2"
_cell_formula_units_Z 44
_cell_length_a 5.037906
_cell_length_b 19.446781
_cell_length_c 17.667295
_cell_angle_alpha 90.000000
_cell_angle_beta 88.900106
_cell_angle_gamma 90.000000
_cell_volume 1730.564605
_symmetry_space_group_name_H-M "C 2/C"
_symmetry_group_IT_number 15
_symmetry_cell_setting 'monoclinic'
loop_
_space_group_symop_operation_xyz
x,y,z
-x,y,1/2-z
-x,-y,-z
x,-y,1/2+z
1/2+x,1/2+y,z
1/2-x,1/2+y,1/2-z
1/2-x,1/2-y,-z
1/2+x,1/2-y,1/2+z
loop_
_atom_site_type_symbol
_atom_site_label
_atom_site_fract_x
_atom_site_fract_y
_atom_site_fract_z
Si Si1 0.743127 0.507418 0.697424
Si Si2 0.000000 0.727963 0.750000
Si Si3 0.458287 0.797903 0.675166
Si Si4 0.746361 0.459833 0.531687
Si Si5 0.222392 0.341432 0.358170
Si Si6 0.566603 0.816800 0.993302
O O1 0.500000 0.485092 0.750000
O O2 0.762978 0.460682 0.622432
O O3 0.677074 0.583694 0.662171
O O4 0.000000 0.510171 0.750000
O O5 0.150610 0.781686 0.690436
O O6 0.945339 0.665729 0.815428
O O7 0.500000 0.842591 0.750000
O O8 0.645664 0.726621 0.684782
O O9 0.532101 0.820879 0.592254
O O10 0.500000 0.500000 0.500000
O O11 0.754173 0.383832 0.497695
O O12 0.000000 0.500000 0.500000
O O13 0.169070 0.322760 0.444799
O O14 0.750000 0.750000 0.000000
#
# Coordination Sequence:
#
# PCOD9260610 Si02
#       6
#     8   4   8   8   8   8
#     4  12  26  47  80 112 152 208 266 323 396 471
#     4  10  18  38  58 102 146 182 244 310 378 452
#     4  10  23  40  65 104 150 198 248 322 387 459
#     4  12  29  53  78 113 162 206 261 328 395 472
#     4  11  22  39  73 105 148 192 262 314 386 462
#     4  12  26  46  77 112 151 203 261 317 396 468
#
# _framework density 25.425225000000001
#
# number of rings (size 3 to 8) (size 9 to 14) (size 15 to 20)
#    0.000    0.727    4.545    3.273    2.545    2.182 
#    1.636    0.000    0.000    0.000    0.000    0.000 
#    0.000    0.000    0.000    0.000    0.000    0.000 
#
# Total GULP energy -122563.959304 kJ/mol
# GULP energy per Si atom -5571.089059 kJ/mol
# Density = 2.536736 g / cm^3
# Si number density = 25.425225 Si / 1000 Ang^3
#
#
#
# Elastic Constant Matrix: (Units=GPa)
#
#
# Indices 1 2 3 4 5 6 
#
# 1 102.0325 25.4062 38.2576 0.0000 -10.5269 0.0000
# 2 25.4062 114.8144 6.2009 0.0000 -8.8615 0.0000
# 3 38.2576 6.2009 234.1100 0.0000 -27.5877 0.0000
# 4 0.0000 0.0000 0.0000 34.4858 0.0000 -4.0080
# 5 -10.5269 -8.8615 -27.5877 0.0000 44.2954 0.0000
# 6 0.0000 0.0000 0.0000 -4.0080 0.0000 28.2810
#
#
#
# Elastic Compliance Matrix: (Units=1/GPa)
#
#
# Indices 1 2 3 4 5 6 
#
# 1 0.011094 -0.002277 -0.001614 0.000000 0.001176 0.000000
# 2 -0.002277 0.009314 0.000303 0.000000 0.001511 0.000000
# 3 -0.001614 0.000303 0.004845 0.000000 0.002694 0.000000
# 4 0.000000 0.000000 0.000000 0.029483 0.000000 0.004178
# 5 0.001176 0.001511 0.002694 0.000000 0.024836 0.000000
# 6 0.000000 0.000000 0.000000 0.004178 0.000000 0.035952
#
#
# Mechanical properties :
#
#
# Convention : Reuss Voigt Hill
#
# Bulk Modulus (GPa) = 55.31732 65.63180 60.47456
# Shear Modulus (GPa) = 38.84271 46.81860 42.83066
#
# Velocity S-wave (km/s) = 3.91285 4.29584 4.10881
# Velocity P-wave (km/s) = 6.49754 7.10460 6.80784
#
# Compressibility (1/GPa) = 0.01807752
#
# Stress axis : x y z
#
# Youngs Moduli (GPa) = 90.13623 107.36742 206.40880
#
# Poissons Ratio (x) = 0.24448 0.33317
# Poissons Ratio (y) = 0.20524 -0.06264
# Poissons Ratio (z) = 0.14549 -0.03258
#
# Static dielectric constant tensor:
#      x y z
#    x 1.086960 0.000000 -0.391990 
#    y 0.000000 2.096650 0.000000 
#    z -0.391990 0.000000 1.720070 
# 
# From -- ./inp_files/184898.got.cif
#   From: 2010.05.17/outbox.cif.g08.bks.cpg/sg15_93_cif.got.tgz:184898.got - 2010.06.03 18:47:42.
