data_PCOD9260466
_publ_section_title
;
Structure prediction by ZEFSAII (Michael W. Deem and Ramdas Pophale) SiO2 
 PCOD9260466
Probable space group: C 2/C
;
_chemical_formula_sum "Si O2"
_cell_formula_units_Z 60
_cell_length_a 15.016469
_cell_length_b 14.738816
_cell_length_c 12.194778
_cell_angle_alpha 90.000000
_cell_angle_beta 113.662066
_cell_angle_gamma 90.000000
_cell_volume 2472.099221
_symmetry_space_group_name_H-M "C 2/C"
_symmetry_group_IT_number 15
_symmetry_cell_setting 'monoclinic'
loop_
_space_group_symop_operation_xyz
x,y,z
-x,y,1/2-z
-x,-y,-z
x,-y,1/2+z
1/2+x,1/2+y,z
1/2-x,1/2+y,1/2-z
1/2-x,1/2-y,-z
1/2+x,1/2-y,1/2+z
loop_
_atom_site_type_symbol
_atom_site_label
_atom_site_fract_x
_atom_site_fract_y
_atom_site_fract_z
Si Si1 0.359436 0.110132 0.040254
Si Si2 0.533616 0.239769 0.052852
Si Si3 0.050339 0.095624 0.879446
Si Si4 0.332684 0.135787 0.751892
Si Si5 0.290607 0.533448 0.999652
Si Si6 0.500000 0.983935 0.250000
Si Si7 0.819193 0.758767 0.184815
Si Si8 0.146825 0.781671 0.900916
O O1 0.439092 0.176144 0.020205
O O2 0.298272 0.176164 0.091883
O O3 0.286175 0.027931 0.969569
O O4 0.432376 0.048883 0.147176
O O5 0.516221 0.345662 0.073565
O O6 0.621455 0.217439 0.181887
O O7 0.571156 0.240827 0.948876
O O8 0.108079 0.175693 0.844262
O O9 0.000000 0.047159 0.750000
O O10 0.121631 0.033663 0.984172
O O11 0.260938 0.081692 0.630622
O O12 0.428976 0.073717 0.795474
O O13 0.267553 0.174053 0.820285
O O14 0.366016 0.231253 0.717961
O O15 0.340752 0.611562 0.096087
O O16 0.250000 0.750000 0.000000
#
# Coordination Sequence:
#
# PCOD9260466 Si02
#       8
#     8   8   8   8   8   4   8   8
#     4  10  20  38  68  93 116 161 214 266 299 366
#     4  10  18  37  63  85 119 161 201 249 321 364
#     4   9  21  39  62  89 118 157 212 264 304 368
#     4  10  22  42  59  86 133 170 195 255 320 378
#     4  10  21  40  60  93 122 155 213 259 305 365
#     4  10  20  40  60  94 122 148 220 258 290 366
#     4  10  18  39  62  86 127 166 198 256 328 355
#     4  10  20  40  59  78 126 171 191 242 325 376
#
# _framework density 24.270872000000001
#
# number of rings (size 3 to 8) (size 9 to 14) (size 15 to 20)
#    0.000    2.133    4.000    0.800    0.000    2.667 
#   15.600    3.333    0.000    0.000    0.000    0.000 
#    0.000    0.000    0.000    0.000    0.000    0.000 
#
# Total GULP energy -167330.055213 kJ/mol
# GULP energy per Si atom -5577.668507 kJ/mol
# Density = 2.421563 g / cm^3
# Si number density = 24.270872 Si / 1000 Ang^3
#
#
#
# Elastic Constant Matrix: (Units=GPa)
#
#
# Indices 1 2 3 4 5 6 
#
# 1 99.1036 35.2750 11.5107 0.0000 -12.7645 0.0000
# 2 35.2750 115.3233 19.6782 0.0000 1.3637 0.0000
# 3 11.5107 19.6782 30.0649 0.0000 4.4499 0.0000
# 4 0.0000 0.0000 0.0000 93.6500 0.0000 -16.5951
# 5 -12.7645 1.3637 4.4499 0.0000 38.6982 0.0000
# 6 0.0000 0.0000 0.0000 -16.5951 0.0000 56.4546
#
#
#
# Elastic Compliance Matrix: (Units=1/GPa)
#
#
# Indices 1 2 3 4 5 6 
#
# 1 0.012196 -0.003234 -0.003219 0.000000 0.004507 0.000000
# 2 -0.003234 0.010625 -0.005598 0.000000 -0.000798 0.000000
# 3 -0.003219 -0.005598 0.038949 0.000000 -0.005343 0.000000
# 4 0.000000 0.000000 0.000000 0.011265 0.000000 0.003311
# 5 0.004507 -0.000798 -0.005343 0.000000 0.027970 0.000000
# 6 0.000000 0.000000 0.000000 0.003311 0.000000 0.018687
#
#
# Mechanical properties :
#
#
# Convention : Reuss Voigt Hill
#
# Bulk Modulus (GPa) = 26.54894 41.93551 34.24222
# Shear Modulus (GPa) = 31.97916 49.62910 40.80413
#
# Velocity S-wave (km/s) = 3.63381 4.52685 4.10469
# Velocity P-wave (km/s) = 5.34494 6.68123 6.05009
#
# Compressibility (1/GPa) = 0.03766628
#
# Stress axis : x y z
#
# Youngs Moduli (GPa) = 81.99288 94.11493 25.67463
#
# Poissons Ratio (x) = 0.30441 0.08266
# Poissons Ratio (y) = 0.26521 0.14373
# Poissons Ratio (z) = 0.26397 0.52687
#
# Static dielectric constant tensor:
#      x y z
#    x 1.947140 0.000000 -0.022380 
#    y 0.000000 1.934380 0.000000 
#    z -0.022380 0.000000 2.129590 
# 
# From -- ./inp_files/154027.got.cif
#   From: 2010.05.17/outbox.cif.g08.bks.cpg/sg15_78_cif.got.tgz:154027.got - 2010.06.03 18:47:42.
