data_PCOD9260943
_publ_section_title
;
Structure prediction by ZEFSAII (Michael W. Deem and Ramdas Pophale) SiO2 
 PCOD9260943
Probable space group: C 2/C
;
_chemical_formula_sum "Si O2"
_cell_formula_units_Z 40
_cell_length_a 8.847710
_cell_length_b 22.406713
_cell_length_c 9.522203
_cell_angle_alpha 90.000000
_cell_angle_beta 112.404679
_cell_angle_gamma 90.000000
_cell_volume 1745.261011
_symmetry_space_group_name_H-M "C 2/C"
_symmetry_group_IT_number 15
_symmetry_cell_setting 'monoclinic'
loop_
_space_group_symop_operation_xyz
x,y,z
-x,y,1/2-z
-x,-y,-z
x,-y,1/2+z
1/2+x,1/2+y,z
1/2-x,1/2+y,1/2-z
1/2-x,1/2-y,-z
1/2+x,1/2-y,1/2+z
loop_
_atom_site_type_symbol
_atom_site_label
_atom_site_fract_x
_atom_site_fract_y
_atom_site_fract_z
Si Si1 0.643873 0.462661 0.981877
Si Si2 0.938720 0.729415 0.070215
Si Si3 0.898559 0.399534 0.508361
Si Si4 0.831100 0.509882 0.290764
Si Si5 0.472407 0.638524 0.572016
O O1 0.797596 0.492333 0.118173
O O2 0.597402 0.398246 0.021336
O O3 0.500000 0.500000 0.000000
O O4 0.676035 0.469917 0.829684
O O5 0.014158 0.792580 0.054063
O O6 0.000000 0.716026 0.250000
O O7 0.750000 0.750000 0.000000
O O8 0.958444 0.667641 0.994428
O O9 0.869234 0.445069 0.370856
O O10 0.718360 0.383904 0.515276
O O11 0.047178 0.435020 0.636641
O O12 0.500000 0.629501 0.750000
#
# Coordination Sequence:
#
# PCOD9260943 Si02
#       5
#     8   8   8   8   8
#     4  12  22  41  60  90 124 164 201 252 307 373
#     4   9  20  34  61  87 119 160 209 253 298 370
#     4  10  21  38  57  93 117 158 203 255 298 365
#     4  11  25  37  62  91 129 155 202 254 315 361
#     4  10  18  39  60  88 120 161 205 247 302 364
#
# _framework density 22.919205999999999
#
# number of rings (size 3 to 8) (size 9 to 14) (size 15 to 20)
#    0.000    1.600    4.000    0.600    2.800    2.400 
#    0.000    1.000    0.000    0.000    5.200    0.000 
#    0.000    0.000    0.000    0.000    0.000    0.000 
#
# Total GULP energy -111382.467075 kJ/mol
# GULP energy per Si atom -5569.123354 kJ/mol
# Density = 2.286704 g / cm^3
# Si number density = 22.919206 Si / 1000 Ang^3
#
#
#
# Elastic Constant Matrix: (Units=GPa)
#
#
# Indices 1 2 3 4 5 6 
#
# 1 93.1726 37.0487 18.9381 0.0000 -2.0131 0.0000
# 2 37.0487 218.6027 9.1999 0.0000 -1.4953 0.0000
# 3 18.9381 9.1999 52.9057 0.0000 3.9258 0.0000
# 4 0.0000 0.0000 0.0000 11.3313 0.0000 9.6312
# 5 -2.0131 -1.4953 3.9258 0.0000 36.6215 0.0000
# 6 0.0000 0.0000 0.0000 9.6312 0.0000 34.8588
#
#
#
# Elastic Compliance Matrix: (Units=1/GPa)
#
#
# Indices 1 2 3 4 5 6 
#
# 1 0.012364 -0.001913 -0.004171 0.000000 0.001049 0.000000
# 2 -0.001913 0.004907 -0.000177 0.000000 0.000114 0.000000
# 3 -0.004171 -0.000177 0.020607 0.000000 -0.002446 0.000000
# 4 0.000000 0.000000 0.000000 0.115337 0.000000 -0.031867
# 5 0.001049 0.000114 -0.002446 0.000000 0.027631 0.000000
# 6 0.000000 0.000000 0.000000 -0.031867 0.000000 0.037492
#
#
# Mechanical properties :
#
#
# Convention : Reuss Voigt Hill
#
# Bulk Modulus (GPa) = 39.43827 55.00604 47.22216
# Shear Modulus (GPa) = 20.89336 36.52858 28.71097
#
# Velocity S-wave (km/s) = 3.02256 3.99657 3.54320
# Velocity P-wave (km/s) = 5.42458 6.73416 6.11453
#
# Compressibility (1/GPa) = 0.02535608
#
# Stress axis : x y z
#
# Youngs Moduli (GPa) = 80.88150 203.79441 48.52755
#
# Poissons Ratio (x) = 0.38980 0.20241
# Poissons Ratio (y) = 0.15470 0.00859
# Poissons Ratio (z) = 0.33735 0.03609
#
# Static dielectric constant tensor:
#      x y z
#    x 1.986900 0.000000 0.080070 
#    y 0.000000 2.021510 0.000000 
#    z 0.080070 0.000000 1.962840 
# 
# From -- ./inp_files/78789.got.cif
#   From: 2010.05.17/outbox.cif.g08.bks.cpg/sg15_40_cif.got.tgz:78789.got - 2010.06.03 18:47:42.
