data_PCOD9260986
_publ_section_title
;
Structure prediction by ZEFSAII (Michael W. Deem and Ramdas Pophale) SiO2 
 PCOD9260986
Probable space group: C 2/C
;
_chemical_formula_sum "Si O2"
_cell_formula_units_Z 60
_cell_length_a 12.690564
_cell_length_b 13.675721
_cell_length_c 17.130722
_cell_angle_alpha 90.000000
_cell_angle_beta 93.498421
_cell_angle_gamma 90.000000
_cell_volume 2967.541163
_symmetry_space_group_name_H-M "C 2/C"
_symmetry_group_IT_number 15
_symmetry_cell_setting 'monoclinic'
loop_
_space_group_symop_operation_xyz
x,y,z
-x,y,1/2-z
-x,-y,-z
x,-y,1/2+z
1/2+x,1/2+y,z
1/2-x,1/2+y,1/2-z
1/2-x,1/2-y,-z
1/2+x,1/2-y,1/2+z
loop_
_atom_site_type_symbol
_atom_site_label
_atom_site_fract_x
_atom_site_fract_y
_atom_site_fract_z
Si Si1 0.384951 0.693533 0.275434
Si Si2 0.472838 0.050332 0.156641
Si Si3 0.678883 0.262611 0.895062
Si Si4 0.773451 0.936320 0.895193
Si Si5 0.040379 0.651851 0.597821
Si Si6 0.750000 0.250000 0.500000
Si Si7 0.633482 0.367317 0.036042
Si Si8 0.940596 0.257706 0.567147
O O1 0.500000 0.661359 0.250000
O O2 0.319655 0.719663 0.196121
O O3 0.330103 0.611950 0.324048
O O4 0.407278 0.789450 0.329059
O O5 0.500000 0.045498 0.250000
O O6 0.347682 0.037869 0.133163
O O7 0.493374 0.157649 0.120752
O O8 0.534515 0.963428 0.113871
O O9 0.580586 0.190431 0.911047
O O10 0.786491 0.214323 0.927110
O O11 0.651796 0.359021 0.943942
O O12 0.834038 0.031858 0.925854
O O13 0.780822 0.857972 0.964762
O O14 0.093940 0.691572 0.519627
O O15 0.823741 0.228942 0.585463
O O16 0.518080 0.329688 0.052856
#
# Coordination Sequence:
#
# PCOD9260986 Si02
#       8
#     8   8   8   8   8   4   8   8
#     4  10  21  39  65  89 125 161 212 255 311 373
#     4  11  23  38  61  94 126 161 205 263 315 363
#     4   9  19  37  61  95 118 157 207 263 304 368
#     4  11  23  42  66  90 129 165 210 258 316 375
#     4  10  18  39  65  89 115 166 206 257 303 379
#     4  10  22  44  58  94 122 166 200 262 312 370
#     4  10  21  39  64  88 124 163 206 254 314 375
#     4  10  22  39  63  89 124 160 212 254 316 370
#
# _framework density 20.218758999999999
#
# number of rings (size 3 to 8) (size 9 to 14) (size 15 to 20)
#    0.000    1.867    2.667    1.600    1.867    0.533 
#    0.000    2.000    0.000    0.000    0.000    0.000 
#    0.000    0.000    0.000    0.000    0.000    0.000 
#
# Total GULP energy -167019.654669 kJ/mol
# GULP energy per Si atom -5567.321822 kJ/mol
# Density = 2.017274 g / cm^3
# Si number density = 20.218759 Si / 1000 Ang^3
#
#
#
# Elastic Constant Matrix: (Units=GPa)
#
#
# Indices 1 2 3 4 5 6 
#
# 1 66.4436 32.6619 4.1722 0.0000 5.9875 0.0000
# 2 32.6619 70.8169 14.2004 0.0000 1.9928 0.0000
# 3 4.1722 14.2004 75.1806 0.0000 10.4267 0.0000
# 4 0.0000 0.0000 0.0000 22.5701 0.0000 -2.1662
# 5 5.9875 1.9928 10.4267 0.0000 29.5809 0.0000
# 6 0.0000 0.0000 0.0000 -2.1662 0.0000 19.7303
#
#
#
# Elastic Compliance Matrix: (Units=1/GPa)
#
#
# Indices 1 2 3 4 5 6 
#
# 1 0.019894 -0.009305 0.001183 0.000000 -0.003817 0.000000
# 2 -0.009305 0.019029 -0.003324 0.000000 0.001773 0.000000
# 3 0.001183 -0.003324 0.014578 0.000000 -0.005154 0.000000
# 4 0.000000 0.000000 0.000000 0.044778 0.000000 0.004916
# 5 -0.003817 0.001773 -0.005154 0.000000 0.036275 0.000000
# 6 0.000000 0.000000 0.000000 0.004916 0.000000 0.051223
#
#
# Mechanical properties :
#
#
# Convention : Reuss Voigt Hill
#
# Bulk Modulus (GPa) = 32.66973 34.94558 33.80765
# Shear Modulus (GPa) = 22.84414 25.13670 23.99042
#
# Velocity S-wave (km/s) = 3.36497 3.52978 3.44836
# Velocity P-wave (km/s) = 5.59380 5.82527 5.71070
#
# Compressibility (1/GPa) = 0.03060937
#
# Stress axis : x y z
#
# Youngs Moduli (GPa) = 50.26556 52.55045 68.59521
#
# Poissons Ratio (x) = 0.48900 -0.08114
# Poissons Ratio (y) = 0.46774 0.22800
# Poissons Ratio (z) = -0.05946 0.17467
#
# Static dielectric constant tensor:
#      x y z
#    x 1.276610 0.000000 0.030660 
#    y 0.000000 1.685770 0.000000 
#    z 0.030660 0.000000 1.742040 
# 
# From -- ./inp_files/204075.got.cif
#   From: 2010.05.17/outbox.cif.g08.bks.cpg/sg15_103_cif.got.tgz:204075.got - 2010.06.03 18:47:42.
