data_PCOD9260196
_publ_section_title
;
Structure prediction by ZEFSAII (Michael W. Deem and Ramdas Pophale) SiO2 
 PCOD9260196
Probable space group: C 2/C
;
_chemical_formula_sum "Si O2"
_cell_formula_units_Z 64
_cell_length_a 8.837101
_cell_length_b 20.220262
_cell_length_c 24.226774
_cell_angle_alpha 90.000000
_cell_angle_beta 48.392439
_cell_angle_gamma 90.000000
_cell_volume 3236.872902
_symmetry_space_group_name_H-M "C 2/C"
_symmetry_group_IT_number 15
_symmetry_cell_setting 'monoclinic'
loop_
_space_group_symop_operation_xyz
x,y,z
-x,y,1/2-z
-x,-y,-z
x,-y,1/2+z
1/2+x,1/2+y,z
1/2-x,1/2+y,1/2-z
1/2-x,1/2-y,-z
1/2+x,1/2-y,1/2+z
loop_
_atom_site_type_symbol
_atom_site_label
_atom_site_fract_x
_atom_site_fract_y
_atom_site_fract_z
Si Si1 0.925015 0.139414 0.328969
Si Si2 0.470187 0.741733 0.417789
Si Si3 0.462763 0.131558 0.846296
Si Si4 0.490793 0.895893 0.531995
Si Si5 0.941171 0.015101 0.826978
Si Si6 0.041789 0.526755 0.563984
Si Si7 0.230857 0.777523 0.066554
Si Si8 0.848065 0.137575 0.672343
O O1 0.977727 0.187352 0.367156
O O2 0.680553 0.136553 0.388868
O O3 0.000000 0.161167 0.250000
O O4 0.995273 0.062749 0.320666
O O5 0.250000 0.750000 0.500000
O O6 0.500757 0.812525 0.382019
O O7 0.647926 0.732096 0.419532
O O8 0.429135 0.062213 0.885439
O O9 0.661187 0.134548 0.760218
O O10 0.262491 0.145499 0.859456
O O11 0.379599 0.929962 0.506280
O O12 0.638690 0.844065 0.469695
O O13 0.607746 0.951616 0.538629
O O14 0.699859 0.022312 0.886966
O O15 0.000000 0.034037 0.750000
O O16 0.040845 0.067272 0.844420
O O17 0.009030 0.802586 0.138853
O O18 0.250000 0.750000 0.000000
#
# Coordination Sequence:
#
# PCOD9260196 Si02
#       8
#     8   8   8   8   8   8   8   8
#     4  10  23  38  65  95 126 169 207 257 320 385
#     4  12  23  43  65  90 128 172 217 256 314 387
#     4  11  23  39  65  91 127 165 209 266 312 383
#     4  10  20  37  63  89 121 162 210 254 311 379
#     4  10  18  37  64  91 125 159 210 256 314 377
#     4  10  18  36  64  90 117 162 209 259 308 369
#     4  12  25  42  64  92 131 168 213 268 317 377
#     4  11  24  39  62  96 124 163 213 261 321 370
#
# _framework density 19.772171
#
# number of rings (size 3 to 8) (size 9 to 14) (size 15 to 20)
#    0.000    1.250    5.000    0.750    1.750    0.000 
#    2.250    0.625    0.000    0.000    0.000    0.000 
#    0.000    0.000    0.000    0.000    0.000    0.000 
#
# Total GULP energy -178471.894106 kJ/mol
# GULP energy per Si atom -5577.246691 kJ/mol
# Density = 1.972717 g / cm^3
# Si number density = 19.772171 Si / 1000 Ang^3
#
#
#
# Elastic Constant Matrix: (Units=GPa)
#
#
# Indices 1 2 3 4 5 6 
#
# 1 94.8488 25.8767 31.1162 0.0001 14.2356 -0.0002
# 2 25.8767 55.8571 8.3438 0.0001 14.7455 -0.0002
# 3 31.1162 8.3438 101.2213 0.0002 9.7248 -0.0002
# 4 0.0001 0.0001 0.0002 36.4558 -0.0002 15.1151
# 5 14.2356 14.7455 9.7248 -0.0002 30.6751 0.0002
# 6 -0.0002 -0.0002 -0.0002 15.1151 0.0002 21.1734
#
#
#
# Elastic Compliance Matrix: (Units=1/GPa)
#
#
# Indices 1 2 3 4 5 6 
#
# 1 0.013452 -0.004990 -0.003460 0.000000 -0.002747 0.000000
# 2 -0.004990 0.022414 0.000515 0.000000 -0.008622 0.000000
# 3 -0.003460 0.000515 0.011108 0.000000 -0.002163 0.000000
# 4 0.000000 0.000000 0.000000 0.038963 0.000001 -0.027814
# 5 -0.002747 -0.008622 -0.002163 0.000001 0.038705 -0.000001
# 6 0.000000 0.000000 0.000000 -0.027814 -0.000001 0.067085
#
#
# Mechanical properties :
#
#
# Convention : Reuss Voigt Hill
#
# Bulk Modulus (GPa) = 32.15053 42.51120 37.33086
# Shear Modulus (GPa) = 22.93952 30.10022 26.51987
#
# Velocity S-wave (km/s) = 3.40986 3.90597 3.66631
# Velocity P-wave (km/s) = 5.63903 6.47219 6.06992
#
# Compressibility (1/GPa) = 0.03110369
#
# Stress axis : x y z
#
# Youngs Moduli (GPa) = 74.33960 44.61591 90.02219
#
# Poissons Ratio (x) = 0.22262 0.31147
# Poissons Ratio (y) = 0.37093 -0.04633
# Poissons Ratio (z) = 0.25721 -0.02296
#
# Static dielectric constant tensor:
#      x y z
#    x 1.710150 0.000000 0.010050 
#    y 0.000000 1.762420 0.000000 
#    z 0.010050 0.000000 1.743030 
# 
# From -- ./inp_files/266068.got.cif
#   From: 2010.05.17/outbox.cif.g08.bks.cpg/sg15_134_cif.got.tgz:266068.got - 2010.06.03 18:47:42.
