data_PCOD9260359
_publ_section_title
;
Structure prediction by ZEFSAII (Michael W. Deem and Ramdas Pophale) SiO2 
 PCOD9260359
Probable space group: C 2/C
;
_chemical_formula_sum "Si O2"
_cell_formula_units_Z 40
_cell_length_a 13.159535
_cell_length_b 9.560331
_cell_length_c 24.903148
_cell_angle_alpha 90.000000
_cell_angle_beta 148.881026
_cell_angle_gamma 90.000000
_cell_volume 1619.214543
_symmetry_space_group_name_H-M "C 2/C"
_symmetry_group_IT_number 15
_symmetry_cell_setting 'monoclinic'
loop_
_space_group_symop_operation_xyz
x,y,z
-x,y,1/2-z
-x,-y,-z
x,-y,1/2+z
1/2+x,1/2+y,z
1/2-x,1/2+y,1/2-z
1/2-x,1/2-y,-z
1/2+x,1/2-y,1/2+z
loop_
_atom_site_type_symbol
_atom_site_label
_atom_site_fract_x
_atom_site_fract_y
_atom_site_fract_z
Si Si1 0.310466 0.094709 0.794946
Si Si2 0.706901 0.065986 0.111250
Si Si3 0.379229 0.647725 0.612458
Si Si4 0.611480 0.710661 0.488349
Si Si5 0.329516 0.052878 0.085698
O O1 0.409773 0.217417 0.876734
O O2 0.093249 0.143877 0.681526
O O3 0.275882 0.960656 0.818264
O O4 0.471691 0.040190 0.825220
O O5 0.859800 0.973216 0.147157
O O6 0.695618 0.217398 0.080037
O O7 0.500000 0.000000 0.000000
O O8 0.345183 0.800223 0.622926
O O9 0.212084 0.608194 0.493741
O O10 0.750000 0.750000 0.500000
O O11 0.644008 0.546933 0.512135
#
# Coordination Sequence:
#
# PCOD9260359 Si02
#       5
#     8   8   8   8   8
#     4  10  21  35  62  82 116 159 198 231 299 356
#     4  10  18  37  59  81 115 157 191 233 295 349
#     4  11  21  35  60  86 119 152 198 239 291 353
#     4   9  17  36  58  81 114 151 191 240 289 340
#     4  10  22  37  58  88 119 148 198 253 286 339
#
# _framework density 24.703336
#
# number of rings (size 3 to 8) (size 9 to 14) (size 15 to 20)
#    0.000    2.000    6.000    0.600    2.800    0.000 
#    0.000    4.000    0.000    2.400    0.000    0.000 
#    0.000    0.000    0.000    0.000    0.000    0.000 
#
# Total GULP energy -111570.113737 kJ/mol
# GULP energy per Si atom -5578.505687 kJ/mol
# Density = 2.464711 g / cm^3
# Si number density = 24.703336 Si / 1000 Ang^3
#
#
#
# Elastic Constant Matrix: (Units=GPa)
#
#
# Indices 1 2 3 4 5 6 
#
# 1 33.3926 -3.4435 3.5461 0.0000 12.5860 0.0000
# 2 -3.4435 139.7750 15.8507 0.0000 12.7137 0.0000
# 3 3.5461 15.8507 89.4555 -0.0003 33.2453 -0.0001
# 4 0.0000 0.0000 -0.0003 9.5048 0.0000 11.1060
# 5 12.5860 12.7137 33.2453 0.0000 32.0778 0.0000
# 6 0.0000 0.0000 -0.0001 11.1060 0.0000 27.3622
#
#
#
# Elastic Compliance Matrix: (Units=1/GPa)
#
#
# Indices 1 2 3 4 5 6 
#
# 1 0.037962 0.002248 0.006446 0.000000 -0.022466 0.000000
# 2 0.002248 0.007562 0.000020 0.000000 -0.003900 0.000000
# 3 0.006446 0.000020 0.019294 0.000001 -0.022534 0.000000
# 4 0.000000 0.000000 0.000001 0.200118 -0.000001 -0.081225
# 5 -0.022466 -0.003900 -0.022534 -0.000001 0.064889 0.000000
# 6 0.000000 0.000000 0.000000 -0.081225 0.000000 0.069515
#
#
# Mechanical properties :
#
#
# Convention : Reuss Voigt Hill
#
# Bulk Modulus (GPa) = 12.15849 32.72552 22.44201
# Shear Modulus (GPa) = 12.21518 30.23362 21.22440
#
# Velocity S-wave (km/s) = 2.22609 3.50218 2.93434
# Velocity P-wave (km/s) = 3.39703 5.44333 4.53705
#
# Compressibility (1/GPa) = 0.08224703
#
# Stress axis : x y z
#
# Youngs Moduli (GPa) = 26.34226 132.23708 51.82958
#
# Poissons Ratio (x) = -0.29723 -0.33411
# Poissons Ratio (y) = -0.05921 -0.00106
# Poissons Ratio (z) = -0.16981 -0.00271
#
# Static dielectric constant tensor:
#      x y z
#    x 2.067080 0.000000 -0.035650 
#    y 0.000000 2.075550 0.000000 
#    z -0.035650 0.000000 2.020770 
# 
# From -- ./inp_files/272944.got.cif
#   From: 2010.05.17/outbox.cif.g08.bks.cpg/sg15_137_cif.got.tgz:272944.got - 2010.06.03 18:47:42.
