data_PCOD9260050
_publ_section_title
;
Structure prediction by ZEFSAII (Michael W. Deem and Ramdas Pophale) SiO2 
 PCOD9260050
Probable space group: C 2/C
;
_chemical_formula_sum "Si O2"
_cell_formula_units_Z 56
_cell_length_a 11.315871
_cell_length_b 17.362996
_cell_length_c 16.665906
_cell_angle_alpha 90.000000
_cell_angle_beta 135.150999
_cell_angle_gamma 90.000000
_cell_volume 2309.292840
_symmetry_space_group_name_H-M "C 2/C"
_symmetry_group_IT_number 15
_symmetry_cell_setting 'monoclinic'
loop_
_space_group_symop_operation_xyz
x,y,z
-x,y,1/2-z
-x,-y,-z
x,-y,1/2+z
1/2+x,1/2+y,z
1/2-x,1/2+y,1/2-z
1/2-x,1/2-y,-z
1/2+x,1/2-y,1/2+z
loop_
_atom_site_type_symbol
_atom_site_label
_atom_site_fract_x
_atom_site_fract_y
_atom_site_fract_z
Si Si1 0.523657 0.136737 0.394556
Si Si2 0.661590 0.007478 0.884498
Si Si3 0.134354 0.869620 0.663956
Si Si4 0.464318 0.092407 0.916439
Si Si5 0.633449 0.538277 0.672152
Si Si6 0.997239 0.807830 0.067888
Si Si7 0.884989 0.277719 0.262730
O O1 0.651396 0.081558 0.408254
O O2 0.337929 0.128761 0.267336
O O3 0.514309 0.100695 0.479181
O O4 0.567096 0.227920 0.423038
O O5 0.500000 0.016448 0.750000
O O6 0.622282 0.057851 0.944324
O O7 0.806198 0.033539 0.892799
O O8 0.075353 0.809982 0.701964
O O9 0.084682 0.833867 0.554578
O O10 0.062610 0.953445 0.649138
O O11 0.297973 0.046768 0.807260
O O12 0.424622 0.176503 0.862404
O O13 0.517435 0.612882 0.628949
O O14 0.192762 0.787121 0.146778
O O15 0.000000 0.312061 0.250000
#
# Coordination Sequence:
#
# PCOD9260050 Si02
#       7
#     8   8   8   8   8   8   8
#     4  11  21  37  64  95 122 158 209 260 301 368
#     4  10  19  36  63  91 118 157 212 252 287 364
#     4  11  21  38  58  87 125 163 196 249 319 370
#     4  10  18  36  61  90 115 152 203 252 297 348
#     4  10  21  39  64  86 122 166 210 249 301 378
#     4  10  22  39  61  88 123 162 194 256 320 364
#     4  10  21  38  60  88 118 155 203 249 300 375
#
# _framework density 24.249846999999999
#
# number of rings (size 3 to 8) (size 9 to 14) (size 15 to 20)
#    0.000    1.714    4.286    3.000    0.000    0.571 
#    5.143    0.714    0.000    0.857    0.000    0.000 
#    0.000    0.000    0.000    0.000    0.000    0.000 
#
# Total GULP energy -156502.630510 kJ/mol
# GULP energy per Si atom -5589.379661 kJ/mol
# Density = 2.419465 g / cm^3
# Si number density = 24.249847 Si / 1000 Ang^3
#
#
#
# Elastic Constant Matrix: (Units=GPa)
#
#
# Indices 1 2 3 4 5 6 
#
# 1 41.3392 7.4924 21.6585 0.0000 -7.0407 0.0000
# 2 7.4924 204.7889 31.7983 0.0000 -9.3840 0.0000
# 3 21.6585 31.7983 118.6296 0.0000 -9.5305 0.0000
# 4 0.0000 0.0000 0.0000 14.3369 0.0000 -28.8208
# 5 -7.0407 -9.3840 -9.5305 0.0000 26.9973 0.0000
# 6 0.0000 0.0000 0.0000 -28.8208 0.0000 6.2609
#
#
#
# Elastic Compliance Matrix: (Units=1/GPa)
#
#
# Indices 1 2 3 4 5 6 
#
# 1 0.027538 -0.000043 -0.004570 0.000000 0.005553 0.000000
# 2 -0.000043 0.005142 -0.001263 0.000000 0.001330 0.000000
# 3 -0.004570 -0.001263 0.009748 0.000000 0.001810 0.000000
# 4 0.000000 0.000000 0.000000 -0.008451 0.000000 -0.038901
# 5 0.005553 0.001330 0.001810 0.000000 0.039590 0.000000
# 6 0.000000 0.000000 0.000000 -0.038901 0.000000 -0.019351
#
#
# Mechanical properties :
#
#
# Convention : Reuss Voigt Hill
#
# Bulk Modulus (GPa) = 32.60063 54.07291 43.33677
# Shear Modulus (GPa) = 65.62141 29.77292 47.69716
#
# Velocity S-wave (km/s) = 5.20762 3.50774 4.43979
# Velocity P-wave (km/s) = 7.04499 6.22513 6.64771
#
# Compressibility (1/GPa) = 0.03067425
#
# Stress axis : x y z
#
# Youngs Moduli (GPa) = 36.31337 194.48483 102.58471
#
# Poissons Ratio (x) = 0.00845 0.46880
# Poissons Ratio (y) = 0.00158 0.12961
# Poissons Ratio (z) = 0.16595 0.24573
#
# Static dielectric constant tensor:
#      x y z
#    x 1.894040 0.000000 0.036590 
#    y 0.000000 2.015210 0.000000 
#    z 0.036590 0.000000 1.901390 
# 
# From -- ./inp_files/206307.got.cif
#   From: 2010.05.17/outbox.cif.g08.bks.cpg/sg15_104_cif.got.tgz:206307.got - 2010.06.03 18:47:42.
