data_PCOD9260083
_publ_section_title
;
Structure prediction by ZEFSAII (Michael W. Deem and Ramdas Pophale) SiO2 
 PCOD9260083
Probable space group: C 2/C
;
_chemical_formula_sum "Si O2"
_cell_formula_units_Z 36
_cell_length_a 21.428454
_cell_length_b 17.283915
_cell_length_c 12.648207
_cell_angle_alpha 90.000000
_cell_angle_beta 23.397814
_cell_angle_gamma 90.000000
_cell_volume 1860.269620
_symmetry_space_group_name_H-M "C 2/C"
_symmetry_group_IT_number 15
_symmetry_cell_setting 'monoclinic'
loop_
_space_group_symop_operation_xyz
x,y,z
-x,y,1/2-z
-x,-y,-z
x,-y,1/2+z
1/2+x,1/2+y,z
1/2-x,1/2+y,1/2-z
1/2-x,1/2-y,-z
1/2+x,1/2-y,1/2+z
loop_
_atom_site_type_symbol
_atom_site_label
_atom_site_fract_x
_atom_site_fract_y
_atom_site_fract_z
Si Si1 0.000000 0.662318 0.750000
Si Si2 0.255863 0.459417 0.609924
Si Si3 0.689177 0.729692 0.212681
Si Si4 0.082039 0.391698 0.350166
Si Si5 0.533829 0.573668 0.521305
O O1 0.936034 0.615767 0.749225
O O2 0.148040 0.712453 0.479656
O O3 0.228057 0.551409 0.642749
O O4 0.319859 0.442849 0.627661
O O5 0.381642 0.423835 0.333812
O O6 0.084033 0.425655 0.855359
O O7 0.606081 0.809666 0.369663
O O8 0.578762 0.654335 0.394179
O O9 0.750000 0.750000 0.000000
O O10 0.500000 0.500000 0.500000
#
# Coordination Sequence:
#
# PCOD9260083 Si02
#       5
#     4   8   8   8   8
#     4  10  18  36  62  84 126 156 200 258 300 366
#     4  10  23  39  63  92 129 162 206 259 317 371
#     4  10  21  35  61  89 118 164 206 254 304 368
#     4  10  21  39  61  94 123 165 209 253 314 377
#     4  11  22  41  63  93 127 165 207 262 312 377
#
# _framework density 19.352034
#
# number of rings (size 3 to 8) (size 9 to 14) (size 15 to 20)
#    0.000    1.778    2.222    2.667    0.000    6.222 
#    0.000    0.000    0.000    0.000    0.000    0.000 
#    0.000    0.000    0.000    0.000    0.000    0.000 
#
# Total GULP energy -100272.589850 kJ/mol
# GULP energy per Si atom -5570.699436 kJ/mol
# Density = 1.930799 g / cm^3
# Si number density = 19.352034 Si / 1000 Ang^3
#
#
#
# Elastic Constant Matrix: (Units=GPa)
#
#
# Indices 1 2 3 4 5 6 
#
# 1 48.6250 34.8837 10.3629 0.0000 7.1324 0.0001
# 2 34.8837 164.1377 56.7951 -0.0004 1.2799 0.0001
# 3 10.3629 56.7951 88.5629 -0.0012 -7.5015 0.0003
# 4 0.0000 -0.0004 -0.0012 33.8113 0.0001 0.4762
# 5 7.1324 1.2799 -7.5015 0.0001 18.6094 -0.0001
# 6 0.0001 0.0001 0.0003 0.4762 -0.0001 30.1503
#
#
#
# Elastic Compliance Matrix: (Units=1/GPa)
#
#
# Indices 1 2 3 4 5 6 
#
# 1 0.025868 -0.005255 -0.000483 0.000000 -0.009748 0.000000
# 2 -0.005255 0.009026 -0.005234 0.000000 -0.000717 0.000000
# 3 -0.000483 -0.005234 0.015272 0.000000 0.006701 0.000000
# 4 0.000000 0.000000 0.000000 0.029583 0.000000 -0.000467
# 5 -0.009748 -0.000717 0.006701 0.000000 0.060223 0.000000
# 6 0.000000 0.000000 0.000000 -0.000467 0.000000 0.033175
#
#
# Mechanical properties :
#
#
# Convention : Reuss Voigt Hill
#
# Bulk Modulus (GPa) = 35.43213 56.15658 45.79436
# Shear Modulus (GPa) = 24.45027 29.79977 27.12502
#
# Velocity S-wave (km/s) = 3.55836 3.92839 3.74794
# Velocity P-wave (km/s) = 5.93562 7.04682 6.51495
#
# Compressibility (1/GPa) = 0.02822297
#
# Stress axis : x y z
#
# Youngs Moduli (GPa) = 38.65797 110.79233 65.47865
#
# Poissons Ratio (x) = 0.58217 0.03161
# Poissons Ratio (y) = 0.20313 0.34272
# Poissons Ratio (z) = 0.01866 0.57990
#
# Static dielectric constant tensor:
#      x y z
#    x 1.678860 0.000000 0.016170 
#    y 0.000000 1.758950 0.000000 
#    z 0.016170 0.000000 1.741700 
# 
# From -- ./inp_files/126952.got.cif
#   From: 2010.05.17/outbox.cif.g08.bks.cpg/sg15_64_cif.got.tgz:126952.got - 2010.06.03 18:47:42.
