data_PCOD9260251
_publ_section_title
;
Structure prediction by ZEFSAII (Michael W. Deem and Ramdas Pophale) SiO2 
 PCOD9260251
Probable space group: C 2/C
;
_chemical_formula_sum "Si O2"
_cell_formula_units_Z 52
_cell_length_a 19.518635
_cell_length_b 7.917117
_cell_length_c 14.931735
_cell_angle_alpha 90.000000
_cell_angle_beta 68.851497
_cell_angle_gamma 90.000000
_cell_volume 2152.012315
_symmetry_space_group_name_H-M "C 2/C"
_symmetry_group_IT_number 15
_symmetry_cell_setting 'monoclinic'
loop_
_space_group_symop_operation_xyz
x,y,z
-x,y,1/2-z
-x,-y,-z
x,-y,1/2+z
1/2+x,1/2+y,z
1/2-x,1/2+y,1/2-z
1/2-x,1/2-y,-z
1/2+x,1/2-y,1/2+z
loop_
_atom_site_type_symbol
_atom_site_label
_atom_site_fract_x
_atom_site_fract_y
_atom_site_fract_z
Si Si1 0.470771 0.311939 0.672848
Si Si2 0.500000 0.183882 0.250000
Si Si3 0.070536 0.867209 0.371673
Si Si4 0.789073 0.089936 0.822993
Si Si5 0.807544 0.708693 0.793744
Si Si6 0.069625 0.411213 0.013631
Si Si7 0.656821 0.904241 0.607816
O O1 0.500000 0.398160 0.750000
O O2 0.458205 0.443649 0.598298
O O3 0.393552 0.229772 0.731898
O O4 0.532612 0.181167 0.615532
O O5 0.508384 0.278928 0.340774
O O6 0.420135 0.101417 0.299981
O O7 0.137983 0.899847 0.273102
O O8 0.095023 0.739418 0.436726
O O9 0.728410 0.162998 0.784391
O O10 0.805552 0.221757 0.895194
O O11 0.780062 0.890026 0.844516
O O12 0.796716 0.553774 0.867401
O O13 0.131955 0.537178 0.020431
O O14 0.000000 0.500000 0.000000
#
# Coordination Sequence:
#
# PCOD9260251 Si02
#       7
#     8   4   8   8   8   8   8
#     4  11  22  39  65  91 122 161 211 263 311 371
#     4  10  18  36  66  90 116 168 202 258 304 376
#     4  10  22  39  61  92 125 159 208 256 319 368
#     4  10  23  39  66  89 120 166 213 259 302 375
#     4  11  21  39  67  92 116 164 218 254 306 368
#     4  12  24  36  60  95 130 164 199 260 325 369
#     4  11  21  37  61  91 126 158 209 255 309 368
#
# _framework density 24.163430000000002
#
# number of rings (size 3 to 8) (size 9 to 14) (size 15 to 20)
#    0.000    1.231    5.385    1.385    2.154    0.000 
#    2.769    0.769    0.000    1.846    0.000    0.000 
#    0.000    0.000    0.000    0.000    0.000    0.000 
#
# Total GULP energy -145218.338355 kJ/mol
# GULP energy per Si atom -5585.320706 kJ/mol
# Density = 2.410843 g / cm^3
# Si number density = 24.163430 Si / 1000 Ang^3
#
#
#
# Elastic Constant Matrix: (Units=GPa)
#
#
# Indices 1 2 3 4 5 6 
#
# 1 63.9308 4.1442 -0.5906 0.0000 20.1194 0.0000
# 2 4.1442 103.1109 4.5019 0.0000 10.4844 0.0000
# 3 -0.5906 4.5019 36.2052 0.0000 13.4120 0.0000
# 4 0.0000 0.0000 0.0000 23.4664 0.0000 21.0791
# 5 20.1194 10.4844 13.4120 0.0000 33.5024 0.0000
# 6 0.0000 0.0000 0.0000 21.0791 0.0000 32.8854
#
#
#
# Elastic Compliance Matrix: (Units=1/GPa)
#
#
# Indices 1 2 3 4 5 6 
#
# 1 0.020250 0.000419 0.005673 0.000000 -0.014563 0.000000
# 2 0.000419 0.010026 0.000018 0.000000 -0.003397 0.000000
# 3 0.005673 0.000018 0.034020 0.000000 -0.017032 0.000000
# 4 0.000000 0.000000 0.000000 0.100452 0.000000 -0.064389
# 5 -0.014563 -0.003397 -0.017032 0.000000 0.046476 0.000000
# 6 0.000000 0.000000 0.000000 -0.064389 0.000000 0.071681
#
#
# Mechanical properties :
#
#
# Convention : Reuss Voigt Hill
#
# Bulk Modulus (GPa) = 13.06880 24.37310 18.72095
# Shear Modulus (GPa) = 16.88105 30.98359 23.93232
#
# Velocity S-wave (km/s) = 2.64601 3.58474 3.15053
# Velocity P-wave (km/s) = 3.84128 5.21943 4.58246
#
# Compressibility (1/GPa) = 0.07651810
#
# Stress axis : x y z
#
# Youngs Moduli (GPa) = 49.38184 99.74040 29.39447
#
# Poissons Ratio (x) = -0.04181 -0.16676
# Poissons Ratio (y) = -0.02070 -0.00054
# Poissons Ratio (z) = -0.28015 -0.00184
#
# Static dielectric constant tensor:
#      x y z
#    x 1.979070 0.000000 0.021690 
#    y 0.000000 2.079620 0.000000 
#    z 0.021690 0.000000 1.964310 
# 
# From -- ./inp_files/166299.got.cif
#   From: 2010.05.17/outbox.cif.g08.bks.cpg/sg15_84_cif.got.tgz:166299.got - 2010.06.03 18:47:42.
