data_PCOD9260961
_publ_section_title
;
Structure prediction by ZEFSAII (Michael W. Deem and Ramdas Pophale) SiO2 
 PCOD9260961
Probable space group: C 2/C
;
_chemical_formula_sum "Si O2"
_cell_formula_units_Z 44
_cell_length_a 10.871986
_cell_length_b 14.748079
_cell_length_c 14.159858
_cell_angle_alpha 90.000000
_cell_angle_beta 124.362980
_cell_angle_gamma 90.000000
_cell_volume 1874.169786
_symmetry_space_group_name_H-M "C 2/C"
_symmetry_group_IT_number 15
_symmetry_cell_setting 'monoclinic'
loop_
_space_group_symop_operation_xyz
x,y,z
-x,y,1/2-z
-x,-y,-z
x,-y,1/2+z
1/2+x,1/2+y,z
1/2-x,1/2+y,1/2-z
1/2-x,1/2-y,-z
1/2+x,1/2-y,1/2+z
loop_
_atom_site_type_symbol
_atom_site_label
_atom_site_fract_x
_atom_site_fract_y
_atom_site_fract_z
Si Si1 0.103743 0.929381 0.604304
Si Si2 0.763416 0.903564 0.242221
Si Si3 0.190648 0.161368 0.525868
Si Si4 0.153365 0.337390 0.929049
Si Si5 0.047887 0.524586 0.881390
Si Si6 0.000000 0.792496 0.250000
O O1 0.234888 0.883914 0.600063
O O2 0.980492 0.855556 0.578073
O O3 0.175080 0.994534 0.713611
O O4 0.000000 0.000000 0.500000
O O5 0.792842 0.847109 0.352318
O O6 0.590030 0.913646 0.147442
O O7 0.857971 0.856131 0.201663
O O8 0.250000 0.250000 0.500000
O O9 0.299882 0.079749 0.543251
O O10 0.080791 0.427553 0.941700
O O11 0.008477 0.279370 0.837203
O O12 0.250000 0.250000 0.000000
O O13 0.000000 0.507700 0.750000
#
# Coordination Sequence:
#
# PCOD9260961 Si02
#       6
#     8   8   8   8   8   4
#     4  10  18  39  63  86 126 171 211 267 338 384
#     4  10  22  43  65  90 133 181 220 274 343 394
#     4  10  21  37  70  97 126 166 225 276 334 399
#     4  12  22  39  69  97 130 179 227 270 338 408
#     4  10  19  42  66  90 129 181 216 271 340 398
#     4  12  26  40  64 100 132 172 240 276 328 418
#
# _framework density 23.477063000000001
#
# number of rings (size 3 to 8) (size 9 to 14) (size 15 to 20)
#    0.000    1.455    6.364    2.182    2.545    0.000 
#    0.000    6.364    0.000    0.000    0.000    0.000 
#    0.000    0.000    0.000    0.000    0.000    0.000 
#
# Total GULP energy -122537.619841 kJ/mol
# GULP energy per Si atom -5569.891811 kJ/mol
# Density = 2.342363 g / cm^3
# Si number density = 23.477063 Si / 1000 Ang^3
#
#
#
# Elastic Constant Matrix: (Units=GPa)
#
#
# Indices 1 2 3 4 5 6 
#
# 1 101.8221 44.3800 20.8148 0.0000 23.3148 0.0000
# 2 44.3800 139.9419 10.2114 0.0000 -6.4508 0.0000
# 3 20.8148 10.2114 31.9353 0.0000 3.9342 0.0000
# 4 0.0000 0.0000 0.0000 35.4901 0.0000 16.0051
# 5 23.3148 -6.4508 3.9342 0.0000 40.1753 0.0000
# 6 0.0000 0.0000 0.0000 16.0051 0.0000 52.3094
#
#
#
# Elastic Compliance Matrix: (Units=1/GPa)
#
#
# Indices 1 2 3 4 5 6 
#
# 1 0.015502 -0.004788 -0.007460 0.000000 -0.009034 0.000000
# 2 -0.004788 0.008877 -0.000238 0.000000 0.004227 0.000000
# 3 -0.007460 -0.000238 0.036159 0.000000 0.000750 0.000000
# 4 0.000000 0.000000 0.000000 0.032687 0.000000 -0.010001
# 5 -0.009034 0.004227 0.000750 0.000000 0.030739 0.000000
# 6 0.000000 0.000000 0.000000 -0.010001 0.000000 0.022177
#
#
# Mechanical properties :
#
#
# Convention : Reuss Voigt Hill
#
# Bulk Modulus (GPa) = 28.11735 47.16795 37.64265
# Shear Modulus (GPa) = 27.32723 38.81451 33.07087
#
# Velocity S-wave (km/s) = 3.41544 4.07048 3.75726
# Velocity P-wave (km/s) = 5.24940 6.49819 5.90689
#
# Compressibility (1/GPa) = 0.03556523
#
# Stress axis : x y z
#
# Youngs Moduli (GPa) = 64.50968 112.65648 27.65551
#
# Poissons Ratio (x) = 0.53942 0.20630
# Poissons Ratio (y) = 0.30888 0.00659
# Poissons Ratio (z) = 0.48122 0.02684
#
# Static dielectric constant tensor:
#      x y z
#    x 1.926120 0.000000 -0.080970 
#    y 0.000000 1.856570 0.000000 
#    z -0.080970 0.000000 2.182720 
# 
# From -- ./inp_files/237724.got.cif
#   From: 2010.05.17/outbox.cif.g08.bks.cpg/sg15_119_cif.got.tgz:237724.got - 2010.06.03 18:47:42.
