data_PCOD9260947
_publ_section_title
;
Structure prediction by ZEFSAII (Michael W. Deem and Ramdas Pophale) SiO2 
 PCOD9260947
Probable space group: C 2/C
;
_chemical_formula_sum "Si O2"
_cell_formula_units_Z 40
_cell_length_a 14.378411
_cell_length_b 10.309211
_cell_length_c 15.206203
_cell_angle_alpha 90.000000
_cell_angle_beta 104.827998
_cell_angle_gamma 90.000000
_cell_volume 2178.954328
_symmetry_space_group_name_H-M "C 2/C"
_symmetry_group_IT_number 15
_symmetry_cell_setting 'monoclinic'
loop_
_space_group_symop_operation_xyz
x,y,z
-x,y,1/2-z
-x,-y,-z
x,-y,1/2+z
1/2+x,1/2+y,z
1/2-x,1/2+y,1/2-z
1/2-x,1/2-y,-z
1/2+x,1/2-y,1/2+z
loop_
_atom_site_type_symbol
_atom_site_label
_atom_site_fract_x
_atom_site_fract_y
_atom_site_fract_z
Si Si1 0.211902 0.409642 0.131535
Si Si2 0.087943 0.765006 0.323729
Si Si3 0.473032 0.155451 0.003210
Si Si4 0.169943 0.357352 0.487875
Si Si5 0.385950 0.022227 0.712833
O O1 0.317485 0.351541 0.144284
O O2 0.180705 0.426280 0.225021
O O3 0.126014 0.321397 0.071380
O O4 0.200296 0.541447 0.071747
O O5 0.046107 0.707534 0.404491
O O6 0.117009 0.633383 0.280136
O O7 0.000000 0.829833 0.250000
O O8 0.569716 0.213367 0.987426
O O9 0.500000 0.000000 0.000000
O O10 0.250000 0.250000 0.500000
O O11 0.151821 0.432453 0.391482
O O12 0.500000 0.058780 0.750000
#
# Coordination Sequence:
#
# PCOD9260947 Si02
#       5
#     8   8   8   8   8
#     4  11  23  39  60  91 121 155 206 253 299 362
#     4  11  22  38  63  89 119 157 203 254 304 355
#     4  10  18  39  61  83 114 156 205 245 286 357
#     4  11  23  40  61  92 124 162 201 250 307 363
#     4  11  21  39  64  87 116 160 210 250 298 358
#
# _framework density 18.357430000000001
#
# number of rings (size 3 to 8) (size 9 to 14) (size 15 to 20)
#    0.000    1.200    6.000    4.200    5.600    0.000 
#    0.000    4.000    0.000    0.000    0.000    0.000 
#    0.000    0.000    0.000    0.000    0.000    0.000 
#
# Total GULP energy -111475.032520 kJ/mol
# GULP energy per Si atom -5573.751626 kJ/mol
# Density = 1.831565 g / cm^3
# Si number density = 18.357430 Si / 1000 Ang^3
#
#
#
# Elastic Constant Matrix: (Units=GPa)
#
#
# Indices 1 2 3 4 5 6 
#
# 1 159.9151 50.5300 70.4485 0.0000 17.6976 0.0000
# 2 50.5300 31.6921 18.3037 0.0000 6.1251 0.0000
# 3 70.4485 18.3037 100.6079 0.0000 -8.1091 0.0000
# 4 0.0000 0.0000 0.0000 14.3197 0.0000 6.5513
# 5 17.6976 6.1251 -8.1091 0.0000 43.3081 0.0000
# 6 0.0000 0.0000 0.0000 6.5513 0.0000 30.5481
#
#
#
# Elastic Compliance Matrix: (Units=1/GPa)
#
#
# Indices 1 2 3 4 5 6 
#
# 1 0.017825 -0.022141 -0.008922 0.000000 -0.005823 0.000000
# 2 -0.022141 0.064529 0.003815 0.000000 0.000636 0.000000
# 3 -0.008922 0.003815 0.015985 0.000000 0.006100 0.000000
# 4 0.000000 0.000000 0.000000 0.077431 0.000000 -0.016606
# 5 -0.005823 0.000636 0.006100 0.000000 0.026522 0.000000
# 6 0.000000 0.000000 0.000000 -0.016606 0.000000 0.036297
#
#
# Mechanical properties :
#
#
# Convention : Reuss Voigt Hill
#
# Bulk Modulus (GPa) = 22.80928 63.41994 43.11461
# Shear Modulus (GPa) = 16.24966 27.83069 22.04018
#
# Velocity S-wave (km/s) = 2.97843 3.89787 3.46875
# Velocity P-wave (km/s) = 4.92749 7.40811 6.29127
#
# Compressibility (1/GPa) = 0.04384181
#
# Stress axis : x y z
#
# Youngs Moduli (GPa) = 56.10249 15.49691 62.55912
#
# Poissons Ratio (x) = 0.34312 0.55818
# Poissons Ratio (y) = 1.24216 -0.23867
# Poissons Ratio (z) = 0.50057 -0.05912
#
# Static dielectric constant tensor:
#      x y z
#    x 1.669280 0.000000 -0.013020 
#    y 0.000000 1.635030 0.000000 
#    z -0.013020 0.000000 1.697550 
# 
# From -- ./inp_files/141897.got.cif
#   From: 2010.05.17/outbox.cif.g08.bks.cpg/sg15_71_cif.got.tgz:141897.got - 2010.06.03 18:47:42.
