data_PCOD9260487
_publ_section_title
;
Structure prediction by ZEFSAII (Michael W. Deem and Ramdas Pophale) SiO2 
 PCOD9260487
Probable space group: C 2/C
;
_chemical_formula_sum "Si O2"
_cell_formula_units_Z 32
_cell_length_a 6.673671
_cell_length_b 12.111195
_cell_length_c 17.391953
_cell_angle_alpha 90.000000
_cell_angle_beta 90.547500
_cell_angle_gamma 90.000000
_cell_volume 1405.660090
_symmetry_space_group_name_H-M "C 2/C"
_symmetry_group_IT_number 15
_symmetry_cell_setting 'monoclinic'
loop_
_space_group_symop_operation_xyz
x,y,z
-x,y,1/2-z
-x,-y,-z
x,-y,1/2+z
1/2+x,1/2+y,z
1/2-x,1/2+y,1/2-z
1/2-x,1/2-y,-z
1/2+x,1/2-y,1/2+z
loop_
_atom_site_type_symbol
_atom_site_label
_atom_site_fract_x
_atom_site_fract_y
_atom_site_fract_z
Si Si1 0.796923 0.786106 0.678199
Si Si2 0.684636 0.458842 0.950716
Si Si3 0.435482 0.920341 0.090911
Si Si4 0.378608 0.872398 0.681919
O O1 0.870656 0.883247 0.622034
O O2 0.887553 0.671888 0.652389
O O3 0.552684 0.785767 0.660294
O O4 0.794804 0.815800 0.769122
O O5 0.829888 0.556560 0.921136
O O6 0.500000 0.500000 0.000000
O O7 0.828865 0.392041 0.010202
O O8 0.342535 0.038358 0.117229
O O9 0.500000 0.939018 0.750000
#
# Coordination Sequence:
#
# PCOD9260487 Si02
#       4
#     8   8   8   8
#     4   8  17  36  56  81 113 151 188 231 292 337
#     4  10  21  35  54  88 115 139 201 235 264 355
#     4  10  18  37  64  72 115 162 168 239 303 309
#     4   7  17  36  53  84 114 137 201 235 269 356
#
# _framework density 22.765107
#
# number of rings (size 3 to 8) (size 9 to 14) (size 15 to 20)
#    1.500    1.500    0.000    0.750    0.000    1.000 
#    9.000    2.500    0.000    0.000    0.000    0.000 
#    0.000    0.000    0.000    0.000    0.000    0.000 
#
# Total GULP energy -89109.771060 kJ/mol
# GULP energy per Si atom -5569.360691 kJ/mol
# Density = 2.271329 g / cm^3
# Si number density = 22.765107 Si / 1000 Ang^3
#
#
#
# Elastic Constant Matrix: (Units=GPa)
#
#
# Indices 1 2 3 4 5 6 
#
# 1 89.6443 55.8185 49.6436 0.0000 -38.9371 0.0000
# 2 55.8185 84.3341 55.6684 0.0000 -33.7618 0.0000
# 3 49.6436 55.6684 124.6872 0.0000 -39.6172 0.0000
# 4 0.0000 0.0000 0.0000 38.1630 0.0000 -8.2369
# 5 -38.9371 -33.7618 -39.6172 0.0000 68.0267 0.0000
# 6 0.0000 0.0000 0.0000 -8.2369 0.0000 19.5013
#
#
#
# Elastic Compliance Matrix: (Units=1/GPa)
#
#
# Indices 1 2 3 4 5 6 
#
# 1 0.021293 -0.010463 -0.001943 0.000000 0.005863 0.000000
# 2 -0.010463 0.023383 -0.005509 0.000000 0.002408 0.000000
# 3 -0.001943 -0.005509 0.012309 0.000000 0.003322 0.000000
# 4 0.000000 0.000000 0.000000 0.028832 0.000000 0.012178
# 5 0.005863 0.002408 0.003322 0.000000 0.021186 0.000000
# 6 0.000000 0.000000 0.000000 0.012178 0.000000 0.056422
#
#
# Mechanical properties :
#
#
# Convention : Reuss Voigt Hill
#
# Bulk Modulus (GPa) = 47.27195 68.99185 58.13190
# Shear Modulus (GPa) = 24.23561 34.30720 29.27140
#
# Velocity S-wave (km/s) = 3.26635 3.88623 3.58970
# Velocity P-wave (km/s) = 5.91909 7.10696 6.54005
#
# Compressibility (1/GPa) = 0.02115419
#
# Stress axis : x y z
#
# Youngs Moduli (GPa) = 46.96320 42.76537 81.24268
#
# Poissons Ratio (x) = 0.44747 0.15788
# Poissons Ratio (y) = 0.49140 0.44755
# Poissons Ratio (z) = 0.09127 0.23559
#
# Static dielectric constant tensor:
#      x y z
#    x 1.979170 0.000000 0.016990 
#    y 0.000000 1.781240 0.000000 
#    z 0.016990 0.000000 1.892420 
# 
# From -- ./inp_files/188125.got.cif
#   From: 2010.05.17/outbox.cif.g08.bks.cpg/sg15_95_cif.got.tgz:188125.got - 2010.06.03 18:47:42.
