data_PCOD9260914
_publ_section_title
;
Structure prediction by ZEFSAII (Michael W. Deem and Ramdas Pophale) SiO2 
 PCOD9260914
Probable space group: C 2/C
;
_chemical_formula_sum "Si O2"
_cell_formula_units_Z 36
_cell_length_a 6.994476
_cell_length_b 14.045117
_cell_length_c 19.362829
_cell_angle_alpha 90.000000
_cell_angle_beta 54.051117
_cell_angle_gamma 90.000000
_cell_volume 1539.884837
_symmetry_space_group_name_H-M "C 2/C"
_symmetry_group_IT_number 15
_symmetry_cell_setting 'monoclinic'
loop_
_space_group_symop_operation_xyz
x,y,z
-x,y,1/2-z
-x,-y,-z
x,-y,1/2+z
1/2+x,1/2+y,z
1/2-x,1/2+y,1/2-z
1/2-x,1/2-y,-z
1/2+x,1/2-y,1/2+z
loop_
_atom_site_type_symbol
_atom_site_label
_atom_site_fract_x
_atom_site_fract_y
_atom_site_fract_z
Si Si1 0.257643 0.030802 0.921737
Si Si2 0.673416 0.596252 0.314581
Si Si3 0.830667 0.414675 0.624661
Si Si4 0.000000 0.774809 0.250000
Si Si5 0.232490 0.793920 0.335654
O O1 0.259457 0.138779 0.895800
O O2 0.291050 0.973746 0.843193
O O3 0.462426 0.990814 0.927642
O O4 0.000000 0.000000 0.000000
O O5 0.391577 0.585443 0.379209
O O6 0.735361 0.570763 0.222984
O O7 0.781201 0.700924 0.307599
O O8 0.898473 0.303116 0.613975
O O9 0.078635 0.830985 0.302253
O O10 0.500000 0.774657 0.250000
#
# Coordination Sequence:
#
# PCOD9260914 Si02
#       5
#     8   8   8   4   8
#     4  12  26  39  58  95 141 176 206 262 342 416
#     4  10  18  40  66  89 121 165 212 283 330 355
#     4  10  20  41  67  89 124 163 224 286 319 366
#     4  10  18  38  70  98 116 160 226 290 334 360
#     4  11  21  39  70  99 116 166 238 270 327 397
#
# _framework density 23.378371999999999
#
# number of rings (size 3 to 8) (size 9 to 14) (size 15 to 20)
#    0.000    1.333    8.889    1.333    0.000    5.333 
#    0.000    1.111    0.000    0.000    0.000    0.000 
#    0.000    0.000    0.000    0.000    0.000    0.000 
#
# Total GULP energy -100424.713495 kJ/mol
# GULP energy per Si atom -5579.150750 kJ/mol
# Density = 2.332516 g / cm^3
# Si number density = 23.378372 Si / 1000 Ang^3
#
#
#
# Elastic Constant Matrix: (Units=GPa)
#
#
# Indices 1 2 3 4 5 6 
#
# 1 187.1765 34.5560 23.6276 -0.0001 -27.6800 0.0001
# 2 34.5560 62.9810 14.3390 0.0001 -1.6176 0.0003
# 3 23.6276 14.3390 52.5868 -0.0004 -19.2425 0.0000
# 4 -0.0001 0.0001 -0.0004 210.4826 0.0000 229.9410
# 5 -27.6800 -1.6176 -19.2425 0.0000 34.8743 -0.0002
# 6 0.0001 0.0003 0.0000 229.9410 -0.0002 306.3761
#
#
#
# Elastic Compliance Matrix: (Units=1/GPa)
#
#
# Indices 1 2 3 4 5 6 
#
# 1 0.006776 -0.003538 -0.000215 0.000000 0.005096 0.000000
# 2 -0.003538 0.018913 -0.005355 0.000000 -0.004886 0.000000
# 3 -0.000215 -0.005355 0.025585 0.000000 0.013698 0.000000
# 4 0.000000 0.000000 0.000000 0.026380 0.000000 -0.019799
# 5 0.005096 -0.004886 0.013698 0.000000 0.040050 0.000000
# 6 0.000000 0.000000 0.000000 -0.019799 0.000000 0.018123
#
#
# Mechanical properties :
#
#
# Convention : Reuss Voigt Hill
#
# Bulk Modulus (GPa) = 30.25036 49.75441 40.00238
# Shear Modulus (GPa) = 30.29114 125.69470 77.99292
#
# Velocity S-wave (km/s) = 3.60348 7.34044 5.78218
# Velocity P-wave (km/s) = 5.50281 9.65252 7.85660
#
# Compressibility (1/GPa) = 0.03305746
#
# Stress axis : x y z
#
# Youngs Moduli (GPa) = 147.56899 52.87415 39.08470
#
# Poissons Ratio (x) = 0.18708 0.00842
# Poissons Ratio (y) = 0.52212 0.20930
# Poissons Ratio (z) = 0.03178 0.28315
#
# Static dielectric constant tensor:
#      x y z
#    x 1.944020 0.000000 -0.000430 
#    y 0.000000 1.943080 0.000000 
#    z -0.000430 0.000000 1.891760 
# 
# From -- ./inp_files/263816.got.cif
#   From: 2010.05.17/outbox.cif.g08.bks.cpg/sg15_132_cif.got.tgz:263816.got - 2010.06.03 18:47:42.
