data_PCOD9260701
_publ_section_title
;
Structure prediction by ZEFSAII (Michael W. Deem and Ramdas Pophale) SiO2 
 PCOD9260701
Probable space group: C 2/C
;
_chemical_formula_sum "Si O2"
_cell_formula_units_Z 60
_cell_length_a 14.120250
_cell_length_b 17.510656
_cell_length_c 11.890048
_cell_angle_alpha 90.000000
_cell_angle_beta 98.640247
_cell_angle_gamma 90.000000
_cell_volume 2906.507599
_symmetry_space_group_name_H-M "C 2/C"
_symmetry_group_IT_number 15
_symmetry_cell_setting 'monoclinic'
loop_
_space_group_symop_operation_xyz
x,y,z
-x,y,1/2-z
-x,-y,-z
x,-y,1/2+z
1/2+x,1/2+y,z
1/2-x,1/2+y,1/2-z
1/2-x,1/2-y,-z
1/2+x,1/2-y,1/2+z
loop_
_atom_site_type_symbol
_atom_site_label
_atom_site_fract_x
_atom_site_fract_y
_atom_site_fract_z
Si Si1 0.435630 0.823993 0.574087
Si Si2 0.233550 0.444085 0.536344
Si Si3 0.618180 0.657590 0.955544
Si Si4 0.200228 0.389164 0.118989
Si Si5 0.397654 0.508598 0.421882
Si Si6 0.634542 0.119146 0.215841
Si Si7 0.500000 0.435914 0.250000
Si Si8 0.607837 0.945679 0.304256
O O1 0.430228 0.737966 0.527641
O O2 0.395570 0.877117 0.469290
O O3 0.365246 0.831129 0.670519
O O4 0.538420 0.852589 0.635130
O O5 0.237255 0.526975 0.594284
O O6 0.324352 0.449747 0.468611
O O7 0.217680 0.385177 0.636197
O O8 0.140490 0.441003 0.438619
O O9 0.720575 0.667951 0.913707
O O10 0.551143 0.616470 0.851159
O O11 0.632304 0.596148 0.058784
O O12 0.176554 0.390059 0.245163
O O13 0.500000 0.500000 0.500000
O O14 0.419731 0.486916 0.297756
O O15 0.623140 0.032691 0.262286
O O16 0.500000 0.926706 0.250000
#
# Coordination Sequence:
#
# PCOD9260701 Si02
#       8
#     8   8   8   8   8   8   4   8
#     4  11  19  36  52  81 120 152 196 217 284 364
#     4  10  19  34  55  85 117 143 196 244 289 339
#     4  10  21  35  58  82 107 149 190 237 292 349
#     4  10  20  32  52  79 110 149 186 238 280 344
#     4   9  20  37  59  86 105 141 196 252 299 331
#     4  10  20  32  54  85 113 157 188 235 285 339
#     4  10  18  38  62  80 102 134 194 254 288 342
#     4  11  18  31  53  82 116 148 190 238 299 336
#
# _framework density 20.643332000000001
#
# number of rings (size 3 to 8) (size 9 to 14) (size 15 to 20)
#    0.000    1.867    2.667    2.800    0.000    3.200 
#    0.000    0.000    4.400   12.800    0.000    0.000 
#    0.000    0.000    0.000    0.000    0.000    0.000 
#
# Total GULP energy -167223.681966 kJ/mol
# GULP energy per Si atom -5574.122732 kJ/mol
# Density = 2.059635 g / cm^3
# Si number density = 20.643332 Si / 1000 Ang^3
#
#
#
# Elastic Constant Matrix: (Units=GPa)
#
#
# Indices 1 2 3 4 5 6 
#
# 1 57.9268 12.3635 20.7005 0.0000 -11.2878 0.0000
# 2 12.3635 34.8210 3.1187 0.0000 -13.4409 0.0000
# 3 20.7005 3.1187 61.3593 0.0000 -14.7711 0.0000
# 4 0.0000 0.0000 0.0000 15.6283 0.0000 -0.3052
# 5 -11.2878 -13.4409 -14.7711 0.0000 39.4280 0.0000
# 6 0.0000 0.0000 0.0000 -0.3052 0.0000 11.5128
#
#
#
# Elastic Compliance Matrix: (Units=1/GPa)
#
#
# Indices 1 2 3 4 5 6 
#
# 1 0.021230 -0.006390 -0.006484 0.000000 0.001471 0.000000
# 2 -0.006390 0.035065 0.003089 0.000000 0.011282 0.000000
# 3 -0.006484 0.003089 0.019932 0.000000 0.006664 0.000000
# 4 0.000000 0.000000 0.000000 0.064020 0.000000 0.001697
# 5 0.001471 0.011282 0.006664 0.000000 0.032126 0.000000
# 6 0.000000 0.000000 0.000000 0.001697 0.000000 0.086904
#
#
# Mechanical properties :
#
#
# Convention : Reuss Voigt Hill
#
# Bulk Modulus (GPa) = 17.64926 25.16361 21.40644
# Shear Modulus (GPa) = 16.79360 21.17545 18.98452
#
# Velocity S-wave (km/s) = 2.85531 3.20625 3.03585
# Velocity P-wave (km/s) = 4.40892 5.09145 4.76243
#
# Compressibility (1/GPa) = 0.05665959
#
# Stress axis : x y z
#
# Youngs Moduli (GPa) = 47.10206 28.51840 50.17048
#
# Poissons Ratio (x) = 0.18222 0.32528
# Poissons Ratio (y) = 0.30097 -0.15499
# Poissons Ratio (z) = 0.30539 -0.08810
#
# Static dielectric constant tensor:
#      x y z
#    x 1.839750 0.000000 -0.024210 
#    y 0.000000 1.743700 0.000000 
#    z -0.024210 0.000000 1.782620 
# 
# From -- ./inp_files/99421.got.cif
#   From: 2010.05.17/outbox.cif.g08.bks.cpg/sg15_50_cif.got.tgz:99421.got - 2010.06.03 18:47:42.
