data_PCOD9260598
_publ_section_title
;
Structure prediction by ZEFSAII (Michael W. Deem and Ramdas Pophale) SiO2 
 PCOD9260598
Probable space group: C 2/C
;
_chemical_formula_sum "Si O2"
_cell_formula_units_Z 44
_cell_length_a 11.201974
_cell_length_b 10.720498
_cell_length_c 16.496524
_cell_angle_alpha 90.000000
_cell_angle_beta 114.195725
_cell_angle_gamma 90.000000
_cell_volume 1807.043299
_symmetry_space_group_name_H-M "C 2/C"
_symmetry_group_IT_number 15
_symmetry_cell_setting 'monoclinic'
loop_
_space_group_symop_operation_xyz
x,y,z
-x,y,1/2-z
-x,-y,-z
x,-y,1/2+z
1/2+x,1/2+y,z
1/2-x,1/2+y,1/2-z
1/2-x,1/2-y,-z
1/2+x,1/2-y,1/2+z
loop_
_atom_site_type_symbol
_atom_site_label
_atom_site_fract_x
_atom_site_fract_y
_atom_site_fract_z
Si Si1 0.000000 0.196708 0.250000
Si Si2 0.332009 0.906163 0.292382
Si Si3 0.921259 0.141885 0.063664
Si Si4 0.965450 0.356956 0.657395
Si Si5 0.958208 0.641801 0.977321
Si Si6 0.307092 0.492421 0.891529
O O1 0.899969 0.288255 0.267887
O O2 0.916636 0.124056 0.158840
O O3 0.327260 0.867086 0.385597
O O4 0.429878 0.026953 0.315875
O O5 0.212094 0.939785 0.200693
O O6 0.933639 0.287525 0.046114
O O7 0.064126 0.090198 0.078680
O O8 0.823085 0.079655 0.974210
O O9 0.961377 0.296728 0.567186
O O10 0.822177 0.413350 0.629302
O O11 0.000000 0.284588 0.750000
O O12 0.000000 0.500000 0.000000
#
# Coordination Sequence:
#
# PCOD9260598 Si02
#       6
#     4   8   8   8   8   8
#     4  10  18  38  56  84 106 146 200 226 268 324
#     4   9  17  36  56  82 109 142 193 232 264 325
#     4  10  23  36  57  85 116 147 179 234 282 333
#     4   9  17  35  58  77 110 150 185 225 270 332
#     4   9  19  37  56  85 112 141 194 228 271 331
#     4  10  20  38  55  81 120 146 177 231 288 325
#
# _framework density 24.349167999999999
#
# number of rings (size 3 to 8) (size 9 to 14) (size 15 to 20)
#    0.000    2.545    2.727    0.000    0.000    2.909 
#   19.636    0.000    8.000    0.000    0.000    0.000 
#    0.000    0.000    0.000    0.000    0.000    0.000 
#
# Total GULP energy -122758.892964 kJ/mol
# GULP energy per Si atom -5579.949680 kJ/mol
# Density = 2.429375 g / cm^3
# Si number density = 24.349168 Si / 1000 Ang^3
#
#
#
# Elastic Constant Matrix: (Units=GPa)
#
#
# Indices 1 2 3 4 5 6 
#
# 1 30.8265 3.7556 42.2451 0.0000 6.2563 0.0000
# 2 3.7556 38.5512 26.0533 0.0000 4.7150 0.0000
# 3 42.2451 26.0533 253.6897 0.0000 -24.5519 0.0000
# 4 0.0000 0.0000 0.0000 18.2877 0.0000 -16.5270
# 5 6.2563 4.7150 -24.5519 0.0000 39.7663 0.0000
# 6 0.0000 0.0000 0.0000 -16.5270 0.0000 -0.3571
#
#
#
# Elastic Compliance Matrix: (Units=1/GPa)
#
#
# Indices 1 2 3 4 5 6 
#
# 1 0.048226 0.003616 -0.009761 0.000000 -0.014042 0.000000
# 2 0.003616 0.029278 -0.004254 0.000000 -0.006667 0.000000
# 3 -0.009761 -0.004254 0.006596 0.000000 0.006112 0.000000
# 4 0.000000 0.000000 0.000000 0.001277 0.000000 -0.059094
# 5 -0.014042 -0.006667 0.006112 0.000000 0.031920 0.000000
# 6 0.000000 0.000000 0.000000 -0.059094 0.000000 -0.065389
#
#
# Mechanical properties :
#
#
# Convention : Reuss Voigt Hill
#
# Bulk Modulus (GPa) = 15.79766 51.90838 33.85302
# Shear Modulus (GPa) = 53.30197 28.27361 40.78779
#
# Velocity S-wave (km/s) = 4.68382 3.41130 4.09726
# Velocity P-wave (km/s) = 5.97938 6.07294 6.02634
#
# Compressibility (1/GPa) = 0.06330052
#
# Stress axis : x y z
#
# Youngs Moduli (GPa) = 20.73588 34.15584 151.61457
#
# Poissons Ratio (x) = -0.12350 1.47991
# Poissons Ratio (y) = -0.07498 0.64498
# Poissons Ratio (z) = 0.20240 0.14530
#
# Static dielectric constant tensor:
#      x y z
#    x 1.959190 0.000000 -0.038540 
#    y 0.000000 2.016160 0.000000 
#    z -0.038540 0.000000 2.093190 
# 
# From -- ./inp_files/196656.got.cif
#   From: 2010.05.17/outbox.cif.g08.bks.cpg/sg15_99_cif.got.tgz:196656.got - 2010.06.03 18:47:42.
