data_PCOD9260691
_publ_section_title
;
Structure prediction by ZEFSAII (Michael W. Deem and Ramdas Pophale) SiO2 
 PCOD9260691
Probable space group: C 2/C
;
_chemical_formula_sum "Si O2"
_cell_formula_units_Z 60
_cell_length_a 5.653627
_cell_length_b 28.455195
_cell_length_c 18.244297
_cell_angle_alpha 90.000000
_cell_angle_beta 94.838284
_cell_angle_gamma 90.000000
_cell_volume 2924.593952
_symmetry_space_group_name_H-M "C 2/C"
_symmetry_group_IT_number 15
_symmetry_cell_setting 'monoclinic'
loop_
_space_group_symop_operation_xyz
x,y,z
-x,y,1/2-z
-x,-y,-z
x,-y,1/2+z
1/2+x,1/2+y,z
1/2-x,1/2+y,1/2-z
1/2-x,1/2-y,-z
1/2+x,1/2-y,1/2+z
loop_
_atom_site_type_symbol
_atom_site_label
_atom_site_fract_x
_atom_site_fract_y
_atom_site_fract_z
Si Si1 0.500000 0.683233 0.750000
Si Si2 0.363610 0.944222 0.568494
Si Si3 0.536205 0.684575 0.398377
Si Si4 0.483830 0.618106 0.523576
Si Si5 0.486445 0.144141 0.162721
Si Si6 0.379771 0.948934 0.083316
Si Si7 0.864653 0.279054 0.168352
Si Si8 0.637743 0.131524 0.643679
O O1 0.406735 0.716431 0.812731
O O2 0.299563 0.649099 0.713981
O O3 0.479602 0.908039 0.627752
O O4 0.513956 0.946796 0.496775
O O5 0.120144 0.919348 0.537682
O O6 0.330822 0.996805 0.597026
O O7 0.577533 0.661781 0.479288
O O8 0.267357 0.668510 0.367323
O O9 0.558226 0.740207 0.387270
O O10 0.765491 0.666701 0.358196
O O11 0.658645 0.586232 0.575581
O O12 0.278544 0.636289 0.571367
O O13 0.500000 0.143213 0.250000
O O14 0.558576 0.922475 0.142675
O O15 0.000000 0.269469 0.250000
O O16 0.929701 0.330350 0.140217
#
# Coordination Sequence:
#
# PCOD9260691 Si02
#       8
#     4   8   8   8   8   8   8   8
#     4  10  22  42  60  86 122 162 212 256 310 376
#     4   9  20  35  61  87 121 161 210 254 310 379
#     4  11  24  39  66  93 128 167 211 258 320 376
#     4  10  20  38  61  92 126 160 205 259 316 374
#     4  11  22  40  60  94 129 164 208 265 318 378
#     4  10  18  38  61  87 118 162 210 254 312 372
#     4  10  22  39  61  87 118 165 211 251 312 378
#     4  10  22  38  61  88 122 160 208 263 308 373
#
# _framework density 20.515667000000001
#
# number of rings (size 3 to 8) (size 9 to 14) (size 15 to 20)
#    0.000    1.867    1.333    2.400    4.667    0.533 
#    0.000    6.000    0.000    0.000    0.000    0.000 
#    0.000    0.000    0.000    0.000    0.000    0.000 
#
# Total GULP energy -167233.107396 kJ/mol
# GULP energy per Si atom -5574.436913 kJ/mol
# Density = 2.046897 g / cm^3
# Si number density = 20.515667 Si / 1000 Ang^3
#
#
#
# Elastic Constant Matrix: (Units=GPa)
#
#
# Indices 1 2 3 4 5 6 
#
# 1 63.3134 21.4130 5.5391 0.0000 -6.5707 0.0000
# 2 21.4130 126.7488 21.0450 0.0000 -12.1001 0.0000
# 3 5.5391 21.0450 23.0038 0.0000 -7.5151 0.0000
# 4 0.0000 0.0000 0.0000 4.9176 0.0000 -5.6392
# 5 -6.5707 -12.1001 -7.5151 0.0000 27.7311 0.0000
# 6 0.0000 0.0000 0.0000 -5.6392 0.0000 15.6771
#
#
#
# Elastic Compliance Matrix: (Units=1/GPa)
#
#
# Indices 1 2 3 4 5 6 
#
# 1 0.016988 -0.002452 -0.000967 0.000000 0.002693 0.000000
# 2 -0.002452 0.009751 -0.007823 0.000000 0.001554 0.000000
# 3 -0.000967 -0.007823 0.054495 0.000000 0.011126 0.000000
# 4 0.000000 0.000000 0.000000 0.346121 0.000000 0.124502
# 5 0.002693 0.001554 0.011126 0.000000 0.040392 0.000000
# 6 0.000000 0.000000 0.000000 0.124502 0.000000 0.108572
#
#
# Mechanical properties :
#
#
# Convention : Reuss Voigt Hill
#
# Bulk Modulus (GPa) = 17.02136 34.34001 25.68069
# Shear Modulus (GPa) = 8.08556 20.66976 14.37766
#
# Velocity S-wave (km/s) = 1.98739 3.17758 2.65016
# Velocity P-wave (km/s) = 3.68525 5.49886 4.68073
#
# Compressibility (1/GPa) = 0.05874970
#
# Stress axis : x y z
#
# Youngs Moduli (GPa) = 58.86538 102.55269 18.35027
#
# Poissons Ratio (x) = 0.25148 0.01775
# Poissons Ratio (y) = 0.14435 0.14355
# Poissons Ratio (z) = 0.05694 0.80224
#
# Static dielectric constant tensor:
#      x y z
#    x 1.834410 0.000000 0.019530 
#    y 0.000000 1.712320 0.000000 
#    z 0.019530 0.000000 1.717340 
# 
# From -- ./inp_files/186180.got.cif
#   From: 2010.05.17/outbox.cif.g08.bks.cpg/sg15_94_cif.got.tgz:186180.got - 2010.06.03 18:47:42.
