data_PCOD9260335
_publ_section_title
;
Structure prediction by ZEFSAII (Michael W. Deem and Ramdas Pophale) SiO2 
 PCOD9260335
Probable space group: C 2/C
;
_chemical_formula_sum "Si O2"
_cell_formula_units_Z 60
_cell_length_a 15.487949
_cell_length_b 12.227325
_cell_length_c 16.202632
_cell_angle_alpha 90.000000
_cell_angle_beta 88.366050
_cell_angle_gamma 90.000000
_cell_volume 3067.145027
_symmetry_space_group_name_H-M "C 2/C"
_symmetry_group_IT_number 15
_symmetry_cell_setting 'monoclinic'
loop_
_space_group_symop_operation_xyz
x,y,z
-x,y,1/2-z
-x,-y,-z
x,-y,1/2+z
1/2+x,1/2+y,z
1/2-x,1/2+y,1/2-z
1/2-x,1/2-y,-z
1/2+x,1/2-y,1/2+z
loop_
_atom_site_type_symbol
_atom_site_label
_atom_site_fract_x
_atom_site_fract_y
_atom_site_fract_z
Si Si1 0.365221 0.534443 0.053961
Si Si2 0.953011 0.006661 0.375965
Si Si3 0.388691 0.710200 0.807184
Si Si4 0.500000 0.090959 0.250000
Si Si5 0.698590 0.638854 0.187124
Si Si6 0.265127 0.639234 0.660944
Si Si7 0.210567 0.761735 0.871619
Si Si8 0.843357 0.460226 0.190297
O O1 0.449648 0.541627 0.110247
O O2 0.303204 0.440288 0.091472
O O3 0.318485 0.650998 0.060905
O O4 0.402544 0.504042 0.964166
O O5 0.895466 0.090158 0.325455
O O6 0.948941 0.887812 0.334558
O O7 0.437917 0.824320 0.799329
O O8 0.342262 0.674953 0.722332
O O9 0.309559 0.724468 0.872206
O O10 0.435721 0.016715 0.198003
O O11 0.721337 0.747479 0.135060
O O12 0.705217 0.674644 0.282997
O O13 0.770563 0.547417 0.164962
O O14 0.194204 0.577829 0.719447
O O15 0.156918 0.649575 0.864337
#
# Coordination Sequence:
#
# PCOD9260335 Si02
#       8
#     8   8   8   4   8   8   8   8
#     4  11  23  37  53  85 111 149 187 228 266 328
#     4  11  23  36  55  80 116 146 190 226 269 322
#     4  10  19  34  58  82 103 148 181 229 268 332
#     4  12  18  30  58  88 108 128 186 242 276 316
#     4  10  18  37  57  81 109 140 180 231 271 328
#     4  10  19  37  60  80 111 142 187 224 281 332
#     4  10  20  37  58  80 114 140 182 221 281 334
#     4  10  19  33  55  89 107 134 177 232 277 322
#
# _framework density 19.562166999999999
#
# number of rings (size 3 to 8) (size 9 to 14) (size 15 to 20)
#    0.000    1.867    6.667    0.800    0.000    4.800 
#    0.000    0.000    0.000    0.800    0.000    0.000 
#    0.000    0.000    0.000    0.000    0.000    0.000 
#
# Total GULP energy -167455.780480 kJ/mol
# GULP energy per Si atom -5581.859349 kJ/mol
# Density = 1.951764 g / cm^3
# Si number density = 19.562167 Si / 1000 Ang^3
#
#
#
# Elastic Constant Matrix: (Units=GPa)
#
#
# Indices 1 2 3 4 5 6 
#
# 1 53.6434 15.5039 -0.9913 0.0000 2.6150 0.0000
# 2 15.5039 118.6018 11.2950 0.0000 -10.2729 0.0000
# 3 -0.9913 11.2950 32.8995 0.0000 -11.2188 0.0000
# 4 0.0000 0.0000 0.0000 7.8840 0.0000 -2.2426
# 5 2.6150 -10.2729 -11.2188 0.0000 19.6628 0.0000
# 6 0.0000 0.0000 0.0000 -2.2426 0.0000 12.0975
#
#
#
# Elastic Compliance Matrix: (Units=1/GPa)
#
#
# Indices 1 2 3 4 5 6 
#
# 1 0.019693 -0.002945 0.000232 0.000000 -0.004026 0.000000
# 2 -0.002945 0.009359 -0.001864 0.000000 0.004218 0.000000
# 3 0.000232 -0.001864 0.038116 0.000000 0.020743 0.000000
# 4 0.000000 0.000000 0.000000 0.133900 0.000000 0.024822
# 5 -0.004026 0.004218 0.020743 0.000000 0.065432 0.000000
# 6 0.000000 0.000000 0.000000 0.024822 0.000000 0.087263
#
#
# Mechanical properties :
#
#
# Convention : Reuss Voigt Hill
#
# Bulk Modulus (GPa) = 17.23701 28.52890 22.88296
# Shear Modulus (GPa) = 13.08024 19.88465 16.48245
#
# Velocity S-wave (km/s) = 2.58863 3.19170 2.90585
# Velocity P-wave (km/s) = 4.21488 5.31017 4.79391
#
# Compressibility (1/GPa) = 0.05801470
#
# Stress axis : x y z
#
# Youngs Moduli (GPa) = 50.77863 106.84431 26.23583
#
# Poissons Ratio (x) = 0.31467 -0.00608
# Poissons Ratio (y) = 0.14955 0.04889
# Poissons Ratio (z) = -0.01177 0.19911
#
# Static dielectric constant tensor:
#      x y z
#    x 1.681810 0.000000 0.000410 
#    y 0.000000 1.702620 0.000000 
#    z 0.000410 0.000000 1.715100 
# 
# From -- ./inp_files/243374.got.cif
#   From: 2010.05.17/outbox.cif.g08.bks.cpg/sg15_122_cif.got.tgz:243374.got - 2010.06.03 18:47:42.
