data_PCOD9260219
_publ_section_title
;
Structure prediction by ZEFSAII (Michael W. Deem and Ramdas Pophale) SiO2 
 PCOD9260219
Probable space group: C 2/C
;
_chemical_formula_sum "Si O2"
_cell_formula_units_Z 60
_cell_length_a 22.013017
_cell_length_b 11.681753
_cell_length_c 20.720142
_cell_angle_alpha 90.000000
_cell_angle_beta 144.308727
_cell_angle_gamma 90.000000
_cell_volume 3108.563738
_symmetry_space_group_name_H-M "C 2/C"
_symmetry_group_IT_number 15
_symmetry_cell_setting 'monoclinic'
loop_
_space_group_symop_operation_xyz
x,y,z
-x,y,1/2-z
-x,-y,-z
x,-y,1/2+z
1/2+x,1/2+y,z
1/2-x,1/2+y,1/2-z
1/2-x,1/2-y,-z
1/2+x,1/2-y,1/2+z
loop_
_atom_site_type_symbol
_atom_site_label
_atom_site_fract_x
_atom_site_fract_y
_atom_site_fract_z
Si Si1 0.243809 0.280360 0.745051
Si Si2 0.946886 0.885067 0.977698
Si Si3 0.648554 0.839937 0.785344
Si Si4 0.130455 0.599665 0.726595
Si Si5 0.424960 0.206559 0.493758
Si Si6 0.000000 0.225753 0.750000
Si Si7 0.276204 0.665885 0.964244
Si Si8 0.847466 0.908215 0.031321
O O1 0.337640 0.361780 0.847782
O O2 0.181428 0.254972 0.756708
O O3 0.292317 0.164626 0.756649
O O4 0.171400 0.343660 0.630041
O O5 0.018096 0.783187 0.011621
O O6 0.920701 0.895864 0.030762
O O7 0.000000 0.000000 0.000000
O O8 0.544410 0.803762 0.731071
O O9 0.641295 0.964167 0.745124
O O10 0.740581 0.847146 0.917397
O O11 0.013704 0.630577 0.603652
O O12 0.172416 0.650521 0.830759
O O13 0.367974 0.281778 0.499065
O O14 0.092475 0.148228 0.857828
O O15 0.315899 0.539538 0.017311
O O16 0.250000 0.750000 0.000000
#
# Coordination Sequence:
#
# PCOD9260219 Si02
#       8
#     8   8   8   8   8   4   8   8
#     4   9  20  36  59  93 116 149 201 257 301 366
#     4  10  18  36  65  85 118 161 196 249 314 359
#     4  10  22  42  61  83 123 163 200 249 311 367
#     4   9  21  38  60  84 118 160 199 252 315 361
#     4  10  19  36  58  90 118 152 203 248 304 373
#     4  12  24  40  62  88 120 164 216 242 296 368
#     4  10  21  37  56  84 125 158 200 247 306 366
#     4  10  22  40  60  89 117 161 207 253 299 362
#
# _framework density 19.301517
#
# number of rings (size 3 to 8) (size 9 to 14) (size 15 to 20)
#    0.000    2.133    1.333    1.200    1.867    4.267 
#    2.400    0.000    0.000    0.000    0.000    0.000 
#    0.000    0.000    0.000    0.000    0.000    0.000 
#
# Total GULP energy -167275.240411 kJ/mol
# GULP energy per Si atom -5575.841347 kJ/mol
# Density = 1.925759 g / cm^3
# Si number density = 19.301517 Si / 1000 Ang^3
#
#
#
# Elastic Constant Matrix: (Units=GPa)
#
#
# Indices 1 2 3 4 5 6 
#
# 1 84.5494 41.3129 21.3213 0.0000 1.1341 0.0000
# 2 41.3129 71.6478 49.6772 0.0000 -13.3068 0.0000
# 3 21.3213 49.6772 108.5144 0.0000 5.0383 0.0000
# 4 0.0000 0.0000 0.0000 20.1547 0.0000 -4.8709
# 5 1.1341 -13.3068 5.0383 0.0000 23.4418 0.0000
# 6 0.0000 0.0000 0.0000 -4.8709 0.0000 24.9952
#
#
#
# Elastic Compliance Matrix: (Units=1/GPa)
#
#
# Indices 1 2 3 4 5 6 
#
# 1 0.018425 -0.015185 0.003811 0.000000 -0.010330 0.000000
# 2 -0.015185 0.038555 -0.015875 0.000000 0.026032 0.000000
# 3 0.003811 -0.015875 0.016324 0.000000 -0.012704 0.000000
# 4 0.000000 0.000000 0.000000 0.052068 0.000000 0.010147
# 5 -0.010330 0.026032 -0.012704 0.000000 0.060666 0.000000
# 6 0.000000 0.000000 0.000000 0.010147 0.000000 0.041985
#
#
# Mechanical properties :
#
#
# Convention : Reuss Voigt Hill
#
# Bulk Modulus (GPa) = 53.17622 54.37050 53.77336
# Shear Modulus (GPa) = 17.31363 23.87836 20.59600
#
# Velocity S-wave (km/s) = 2.99826 3.52109 3.27014
# Velocity P-wave (km/s) = 6.29255 6.69036 6.49450
#
# Compressibility (1/GPa) = 0.01880540
#
# Stress axis : x y z
#
# Youngs Moduli (GPa) = 54.27546 25.93709 61.25930
#
# Poissons Ratio (x) = 0.39385 -0.23346
# Poissons Ratio (y) = 0.82415 0.97251
# Poissons Ratio (z) = -0.20684 0.41176
#
# Static dielectric constant tensor:
#      x y z
#    x 1.685170 0.000000 0.024070 
#    y 0.000000 1.680910 0.000000 
#    z 0.024070 0.000000 1.696750 
# 
# From -- ./inp_files/215209.got.cif
#   From: 2010.05.17/outbox.cif.g08.bks.cpg/sg15_108_cif.got.tgz:215209.got - 2010.06.03 18:47:42.
