data_PCOD9260640
_publ_section_title
;
Structure prediction by ZEFSAII (Michael W. Deem and Ramdas Pophale) SiO2 
 PCOD9260640
Probable space group: C 2/C
;
_chemical_formula_sum "Si O2"
_cell_formula_units_Z 60
_cell_length_a 21.278489
_cell_length_b 8.237867
_cell_length_c 14.093739
_cell_angle_alpha 90.000000
_cell_angle_beta 80.852825
_cell_angle_gamma 90.000000
_cell_volume 2439.066017
_symmetry_space_group_name_H-M "C 2/C"
_symmetry_group_IT_number 15
_symmetry_cell_setting 'monoclinic'
loop_
_space_group_symop_operation_xyz
x,y,z
-x,y,1/2-z
-x,-y,-z
x,-y,1/2+z
1/2+x,1/2+y,z
1/2-x,1/2+y,1/2-z
1/2-x,1/2-y,-z
1/2+x,1/2-y,1/2+z
loop_
_atom_site_type_symbol
_atom_site_label
_atom_site_fract_x
_atom_site_fract_y
_atom_site_fract_z
Si Si1 0.943804 0.815196 0.338359
Si Si2 0.565059 0.055413 0.597224
Si Si3 0.679214 0.856547 0.210664
Si Si4 0.755119 0.063054 0.526286
Si Si5 0.389336 0.433571 0.523708
Si Si6 0.125468 0.975432 0.764645
Si Si7 0.141812 0.560678 0.924505
Si Si8 0.000000 0.229661 0.250000
O O1 0.944017 0.630847 0.372413
O O2 0.944517 0.929919 0.431886
O O3 0.000000 0.829620 0.250000
O O4 0.878501 0.865327 0.299409
O O5 0.586734 0.054797 0.482286
O O6 0.625147 0.117719 0.643920
O O7 0.507794 0.160023 0.653733
O O8 0.739865 0.932235 0.142912
O O9 0.679505 0.662840 0.235376
O O10 0.659597 0.951359 0.310395
O O11 0.750000 0.250000 0.500000
O O12 0.825085 0.998132 0.491313
O O13 0.703581 0.968023 0.475781
O O14 0.390135 0.523429 0.623658
O O15 0.379096 0.246280 0.555097
O O16 0.062496 0.876003 0.747512
#
# Coordination Sequence:
#
# PCOD9260640 Si02
#       8
#     8   8   8   8   8   8   8   4
#     4  11  21  38  57  84 116 152 193 242 289 338
#     4   9  19  36  58  85 118 151 198 240 283 352
#     4   9  20  38  59  86 117 152 196 237 298 354
#     4  11  22  37  61  89 117 153 194 247 299 354
#     4  10  23  40  58  85 117 154 198 241 291 351
#     4  10  21  39  59  86 117 155 195 242 292 345
#     4   9  20  39  58  84 118 155 191 242 297 352
#     4  10  18  38  60  82 118 164 190 240 292 338
#
# _framework density 24.599582000000002
#
# number of rings (size 3 to 8) (size 9 to 14) (size 15 to 20)
#    0.000    2.133    1.333    1.200    0.000    4.800 
#    2.400    4.000    0.000    0.000    0.000    0.000 
#    0.000    0.000    0.000    0.000    0.000    0.000 
#
# Total GULP energy -167558.102748 kJ/mol
# GULP energy per Si atom -5585.270092 kJ/mol
# Density = 2.454359 g / cm^3
# Si number density = 24.599582 Si / 1000 Ang^3
#
#
#
# Elastic Constant Matrix: (Units=GPa)
#
#
# Indices 1 2 3 4 5 6 
#
# 1 29.0160 0.7801 5.6942 0.0000 -13.6089 0.0000
# 2 0.7801 28.4250 12.3126 0.0000 -9.3099 0.0000
# 3 5.6942 12.3126 158.4874 0.0000 -19.6420 0.0000
# 4 0.0000 0.0000 0.0000 20.5075 0.0000 4.9668
# 5 -13.6089 -9.3099 -19.6420 0.0000 32.9935 0.0000
# 6 0.0000 0.0000 0.0000 4.9668 0.0000 15.5598
#
#
#
# Elastic Compliance Matrix: (Units=1/GPa)
#
#
# Indices 1 2 3 4 5 6 
#
# 1 0.043437 0.005026 0.000481 0.000000 0.019621 0.000000
# 2 0.005026 0.039819 -0.001754 0.000000 0.012265 0.000000
# 3 0.000481 -0.001754 0.006901 0.000000 0.003812 0.000000
# 4 0.000000 0.000000 0.000000 0.052848 0.000000 -0.016870
# 5 0.019621 0.012265 0.003812 0.000000 0.044132 0.000000
# 6 0.000000 0.000000 0.000000 -0.016870 0.000000 0.069653
#
#
# Mechanical properties :
#
#
# Convention : Reuss Voigt Hill
#
# Bulk Modulus (GPa) = 10.23941 28.16693 19.20317
# Shear Modulus (GPa) = 17.74062 26.95493 22.34777
#
# Velocity S-wave (km/s) = 2.68838 3.31380 3.01734
# Velocity P-wave (km/s) = 3.71591 5.11045 4.46793
#
# Compressibility (1/GPa) = 0.09766192
#
# Stress axis : x y z
#
# Youngs Moduli (GPa) = 23.02201 25.11359 144.90542
#
# Poissons Ratio (x) = -0.12622 -0.06965
# Poissons Ratio (y) = -0.11571 0.25417
# Poissons Ratio (z) = -0.01106 0.04405
#
# Static dielectric constant tensor:
#      x y z
#    x 2.018520 0.000000 -0.005000 
#    y 0.000000 1.954110 0.000000 
#    z -0.005000 0.000000 2.081590 
# 
# From -- ./inp_files/172338.got.cif
#   From: 2010.05.17/outbox.cif.g08.bks.cpg/sg15_87_cif.got.tgz:172338.got - 2010.06.03 18:47:42.
