data_PCOD9260679
_publ_section_title
;
Structure prediction by ZEFSAII (Michael W. Deem and Ramdas Pophale) SiO2 
 PCOD9260679
Probable space group: C 2/C
;
_chemical_formula_sum "Si O2"
_cell_formula_units_Z 44
_cell_length_a 10.956467
_cell_length_b 11.985537
_cell_length_c 18.088735
_cell_angle_alpha 90.000000
_cell_angle_beta 47.559117
_cell_angle_gamma 90.000000
_cell_volume 1752.981347
_symmetry_space_group_name_H-M "C 2/C"
_symmetry_group_IT_number 15
_symmetry_cell_setting 'monoclinic'
loop_
_space_group_symop_operation_xyz
x,y,z
-x,y,1/2-z
-x,-y,-z
x,-y,1/2+z
1/2+x,1/2+y,z
1/2-x,1/2+y,1/2-z
1/2-x,1/2-y,-z
1/2+x,1/2-y,1/2+z
loop_
_atom_site_type_symbol
_atom_site_label
_atom_site_fract_x
_atom_site_fract_y
_atom_site_fract_z
Si Si1 0.417966 0.301436 0.865480
Si Si2 0.500000 0.641278 0.750000
Si Si3 0.501102 0.059490 0.419969
Si Si4 0.195612 0.631593 0.784912
Si Si5 0.628216 0.468281 0.044081
Si Si6 0.902186 0.798636 0.068836
O O1 0.500000 0.329466 0.750000
O O2 0.530319 0.203290 0.852136
O O3 0.422575 0.403663 0.921153
O O4 0.229044 0.264152 0.930663
O O5 0.329797 0.688025 0.784815
O O6 0.426889 0.580781 0.853000
O O7 0.325322 0.035706 0.454842
O O8 0.521313 0.190791 0.420917
O O9 0.500000 0.000000 0.500000
O O10 0.654122 0.996153 0.319922
O O11 0.269657 0.636848 0.673846
O O12 0.547893 0.390729 0.014027
#
# Coordination Sequence:
#
# PCOD9260679 Si02
#       6
#     8   4   8   8   8   8
#     4  10  20  40  64  91 134 178 221 268 336 414
#     4  10  18  38  60  98 118 170 222 254 324 408
#     4  12  22  42  68  99 131 168 227 287 328 401
#     4  10  23  37  68  94 129 177 222 273 342 398
#     4  11  21  38  71  92 133 171 225 266 346 394
#     4  10  23  40  66  97 132 175 224 275 334 419
#
# _framework density 25.100095
#
# number of rings (size 3 to 8) (size 9 to 14) (size 15 to 20)
#    0.000    1.455    4.545    0.545    7.636    0.727 
#    0.000    4.545    2.000    0.000    0.000    0.000 
#    0.000    0.000    0.000    0.000    0.000    0.000 
#
# Total GULP energy -122802.593480 kJ/mol
# GULP energy per Si atom -5581.936067 kJ/mol
# Density = 2.504297 g / cm^3
# Si number density = 25.100095 Si / 1000 Ang^3
#
#
#
# Elastic Constant Matrix: (Units=GPa)
#
#
# Indices 1 2 3 4 5 6 
#
# 1 160.8157 43.0924 19.8286 0.0000 -31.3487 0.0000
# 2 43.0924 134.7085 -4.2369 0.0000 -21.0924 0.0000
# 3 19.8286 -4.2369 53.9331 0.0000 -24.4807 0.0000
# 4 0.0000 0.0000 0.0000 92.0302 0.0000 -96.5785
# 5 -31.3487 -21.0924 -24.4807 0.0000 46.0321 0.0000
# 6 0.0000 0.0000 0.0000 -96.5785 0.0000 185.9159
#
#
#
# Elastic Compliance Matrix: (Units=1/GPa)
#
#
# Indices 1 2 3 4 5 6 
#
# 1 0.007592 -0.001906 -0.001306 0.000000 0.003603 0.000000
# 2 -0.001906 0.008867 0.003496 0.000000 0.004625 0.000000
# 3 -0.001306 0.003496 0.025863 0.000000 0.014467 0.000000
# 4 0.000000 0.000000 0.000000 0.023889 0.000000 0.012410
# 5 0.003603 0.004625 0.014467 0.000000 0.033991 0.000000
# 6 0.000000 0.000000 0.000000 0.012410 0.000000 0.011825
#
#
# Mechanical properties :
#
#
# Convention : Reuss Voigt Hill
#
# Bulk Modulus (GPa) = 23.31399 51.86948 37.59173
# Shear Modulus (GPa) = 39.75990 84.18052 61.97021
#
# Velocity S-wave (km/s) = 3.98433 5.79748 4.97422
# Velocity P-wave (km/s) = 5.52043 8.09470 6.92818
#
# Compressibility (1/GPa) = 0.04289270
#
# Stress axis : x y z
#
# Youngs Moduli (GPa) = 131.71312 112.77602 38.66521
#
# Poissons Ratio (x) = 0.21491 0.05048
# Poissons Ratio (y) = 0.25100 -0.13519
# Poissons Ratio (z) = 0.17197 -0.39431
#
# Static dielectric constant tensor:
#      x y z
#    x 2.157510 0.000000 0.112780 
#    y 0.000000 2.002300 0.000000 
#    z 0.112780 0.000000 2.109780 
# 
# From -- ./inp_files/195954.got.cif
#   From: 2010.05.17/outbox.cif.g08.bks.cpg/sg15_98_cif.got.tgz:195954.got - 2010.06.03 18:47:42.
