data_PCOD9260555
_publ_section_title
;
Structure prediction by ZEFSAII (Michael W. Deem and Ramdas Pophale) SiO2 
 PCOD9260555
Probable space group: C 2/C
;
_chemical_formula_sum "Si O2"
_cell_formula_units_Z 40
_cell_length_a 12.392139
_cell_length_b 6.849499
_cell_length_c 20.677337
_cell_angle_alpha 90.000000
_cell_angle_beta 125.218140
_cell_angle_gamma 90.000000
_cell_volume 1433.843444
_symmetry_space_group_name_H-M "C 2/C"
_symmetry_group_IT_number 15
_symmetry_cell_setting 'monoclinic'
loop_
_space_group_symop_operation_xyz
x,y,z
-x,y,1/2-z
-x,-y,-z
x,-y,1/2+z
1/2+x,1/2+y,z
1/2-x,1/2+y,1/2-z
1/2-x,1/2-y,-z
1/2+x,1/2-y,1/2+z
loop_
_atom_site_type_symbol
_atom_site_label
_atom_site_fract_x
_atom_site_fract_y
_atom_site_fract_z
Si Si1 0.944317 0.617435 0.419421
Si Si2 0.788323 0.126559 0.706715
Si Si3 0.893794 0.986499 0.043132
Si Si4 0.953382 0.205209 0.304553
Si Si5 0.843724 0.629041 0.110554
O O1 0.990994 0.842441 0.444598
O O2 0.021686 0.566574 0.378354
O O3 0.000000 0.500000 0.500000
O O4 0.795684 0.542050 0.359743
O O5 0.683730 0.200630 0.722223
O O6 0.831509 0.313418 0.680270
O O7 0.914833 0.023247 0.779217
O O8 0.823044 0.843693 0.071061
O O9 0.775789 0.011303 0.951410
O O10 0.950281 0.171049 0.100532
O O11 0.000000 0.277304 0.250000
#
# Coordination Sequence:
#
# PCOD9260555 Si02
#       5
#     8   8   8   8   8
#     4  10  18  37  67  93 121 162 204 258 311 368
#     4  12  24  42  65  92 126 170 209 258 317 371
#     4   9  18  40  66  88 124 167 202 255 314 367
#     4  12  26  42  63  92 131 167 210 259 313 379
#     4   9  19  38  68  89 120 164 211 248 313 369
#
# _framework density 27.897051000000001
#
# number of rings (size 3 to 8) (size 9 to 14) (size 15 to 20)
#    1.200    0.400    4.000    1.200    0.000    2.400 
#    0.000    1.000    0.000    0.000    0.000    0.000 
#    0.000    0.000    0.000    0.000    0.000    0.000 
#
# Total GULP energy -111814.030471 kJ/mol
# GULP energy per Si atom -5590.701524 kJ/mol
# Density = 2.783356 g / cm^3
# Si number density = 27.897051 Si / 1000 Ang^3
#
#
#
# Elastic Constant Matrix: (Units=GPa)
#
#
# Indices 1 2 3 4 5 6 
#
# 1 161.3399 28.2770 3.1757 0.0000 -21.6576 0.0000
# 2 28.2770 97.0460 26.0246 0.0000 -2.5522 0.0000
# 3 3.1757 26.0246 72.7720 0.0000 15.6721 0.0000
# 4 0.0000 0.0000 0.0000 8.6496 0.0000 19.0458
# 5 -21.6576 -2.5522 15.6721 0.0000 36.4592 0.0000
# 6 0.0000 0.0000 0.0000 19.0458 0.0000 59.7670
#
#
#
# Elastic Compliance Matrix: (Units=1/GPa)
#
#
# Indices 1 2 3 4 5 6 
#
# 1 0.007110 -0.001794 -0.000607 0.000000 0.004359 0.000000
# 2 -0.001794 0.012118 -0.004638 0.000000 0.001776 0.000000
# 3 -0.000607 -0.004638 0.017163 0.000000 -0.008063 0.000000
# 4 0.000000 0.000000 0.000000 0.387559 0.000000 -0.123503
# 5 0.004359 0.001776 -0.008063 0.000000 0.033607 0.000000
# 6 0.000000 0.000000 0.000000 -0.123503 0.000000 0.056088
#
#
# Mechanical properties :
#
#
# Convention : Reuss Voigt Hill
#
# Bulk Modulus (GPa) = 44.81899 49.56804 47.19351
# Shear Modulus (GPa) = 9.34300 39.22051 24.28176
#
# Velocity S-wave (km/s) = 1.83204 3.75360 2.95346
# Velocity P-wave (km/s) = 4.53607 6.04920 5.34643
#
# Compressibility (1/GPa) = 0.02231197
#
# Stress axis : x y z
#
# Youngs Moduli (GPa) = 140.65522 82.52517 58.26487
#
# Poissons Ratio (x) = 0.14806 0.03539
# Poissons Ratio (y) = 0.25234 0.27021
# Poissons Ratio (z) = 0.08543 0.38272
#
# Static dielectric constant tensor:
#      x y z
#    x 2.110780 0.000000 -0.052930 
#    y 0.000000 2.216930 0.000000 
#    z -0.052930 0.000000 2.287900 
# 
# From -- ./inp_files/267891.got.cif
#   From: 2010.05.17/outbox.cif.g08.bks.cpg/sg15_134_cif.got.tgz:267891.got - 2010.06.03 18:47:42.
