data_PCOD9260344
_publ_section_title
;
Structure prediction by ZEFSAII (Michael W. Deem and Ramdas Pophale) SiO2 
 PCOD9260344
Probable space group: C 2/C
;
_chemical_formula_sum "Si O2"
_cell_formula_units_Z 52
_cell_length_a 4.876635
_cell_length_b 14.515661
_cell_length_c 30.237979
_cell_angle_alpha 90.000000
_cell_angle_beta 102.508635
_cell_angle_gamma 90.000000
_cell_volume 2089.665762
_symmetry_space_group_name_H-M "C 2/C"
_symmetry_group_IT_number 15
_symmetry_cell_setting 'monoclinic'
loop_
_space_group_symop_operation_xyz
x,y,z
-x,y,1/2-z
-x,-y,-z
x,-y,1/2+z
1/2+x,1/2+y,z
1/2-x,1/2+y,1/2-z
1/2-x,1/2-y,-z
1/2+x,1/2-y,1/2+z
loop_
_atom_site_type_symbol
_atom_site_label
_atom_site_fract_x
_atom_site_fract_y
_atom_site_fract_z
Si Si1 0.500000 0.232096 0.750000
Si Si2 0.728858 0.695197 0.079806
Si Si3 0.750000 0.750000 0.000000
Si Si4 0.643074 0.646920 0.170163
Si Si5 0.149208 0.487535 0.669449
Si Si6 0.527088 0.996050 0.425137
Si Si7 0.500000 0.608674 0.750000
Si Si8 0.246742 0.395711 0.511607
O O1 0.407813 0.294538 0.787861
O O2 0.775445 0.170359 0.769127
O O3 0.651652 0.712620 0.127162
O O4 0.852609 0.593695 0.087178
O O5 0.495106 0.677765 0.031226
O O6 0.899248 0.766871 0.057266
O O7 0.542977 0.840837 0.998573
O O8 0.377731 0.580489 0.155876
O O9 0.911621 0.578832 0.182288
O O10 0.308736 0.546868 0.711476
O O11 0.046052 0.549010 0.624193
O O12 0.280559 0.030447 0.449700
O O13 0.745430 0.945827 0.464820
#
# Coordination Sequence:
#
# PCOD9260344 Si02
#       8
#     4   8   4   8   8   8   4   8
#     4  12  27  48  69 112 138 194 218 314 369 440
#     4  10  20  38  62  92 127 176 227 281 327 420
#     4  10  22  34  54  90 130 174 214 260 344 400
#     4  11  24  45  77  98 139 182 250 276 356 435
#     4  11  23  46  71 106 129 188 233 296 343 439
#     4   9  20  35  63  91 124 163 229 275 332 389
#     4  12  27  46  73 106 154 168 242 304 389 414
#     4  10  18  37  57  91 128 172 216 274 333 400
#
# _framework density 24.884364000000001
#
# number of rings (size 3 to 8) (size 9 to 14) (size 15 to 20)
#    0.000    1.538    1.538    3.231    0.000    2.462 
#    2.769    0.000    0.000    0.000    0.000    0.000 
#    0.000    0.000    0.000    0.000    0.000    0.000 
#
# Total GULP energy -144883.658772 kJ/mol
# GULP energy per Si atom -5572.448414 kJ/mol
# Density = 2.482773 g / cm^3
# Si number density = 24.884364 Si / 1000 Ang^3
#
#
#
# Elastic Constant Matrix: (Units=GPa)
#
#
# Indices 1 2 3 4 5 6 
#
# 1 120.0909 50.7118 45.1086 0.0000 -4.6406 0.0000
# 2 50.7118 61.4400 60.7293 0.0000 -5.9175 0.0000
# 3 45.1086 60.7293 232.6176 0.0000 -23.3978 0.0000
# 4 0.0000 0.0000 0.0000 10.4985 0.0000 3.4114
# 5 -4.6406 -5.9175 -23.3978 0.0000 39.9631 0.0000
# 6 0.0000 0.0000 0.0000 3.4114 0.0000 46.2674
#
#
#
# Elastic Compliance Matrix: (Units=1/GPa)
#
#
# Indices 1 2 3 4 5 6 
#
# 1 0.012806 -0.010939 0.000381 0.000000 0.000091 0.000000
# 2 -0.010939 0.031280 -0.006064 0.000000 -0.000189 0.000000
# 3 0.000381 -0.006064 0.006080 0.000000 0.002706 0.000000
# 4 0.000000 0.000000 0.000000 0.097590 0.000000 -0.007196
# 5 0.000091 -0.000189 0.002706 0.000000 0.026590 0.000000
# 6 0.000000 0.000000 0.000000 -0.007196 0.000000 0.022144
#
#
# Mechanical properties :
#
#
# Convention : Reuss Voigt Hill
#
# Bulk Modulus (GPa) = 59.08558 80.80532 69.94545
# Shear Modulus (GPa) = 21.24269 36.51906 28.88087
#
# Velocity S-wave (km/s) = 2.92491 3.83502 3.41046
# Velocity P-wave (km/s) = 5.93316 7.22168 6.60890
#
# Compressibility (1/GPa) = 0.01692460
#
# Stress axis : x y z
#
# Youngs Moduli (GPa) = 78.08622 31.96884 164.46519
#
# Poissons Ratio (x) = 0.34969 -0.06274
# Poissons Ratio (y) = 0.85415 0.99735
# Poissons Ratio (z) = -0.02979 0.19387
#
# Static dielectric constant tensor:
#      x y z
#    x 2.889100 0.000000 -0.503220 
#    y 0.000000 2.677180 0.000000 
#    z -0.503220 0.000000 2.389470 
# 
# From -- ./inp_files/305463.got.cif
#   From: 2010.05.17/outbox.cif.g08.bks.cpg/sg15_153_cif.got.tgz:305463.got - 2010.06.03 18:47:42.
