data_PCOD9260202
_publ_section_title
;
Structure prediction by ZEFSAII (Michael W. Deem and Ramdas Pophale) SiO2 
 PCOD9260202
Probable space group: C 2/C
;
_chemical_formula_sum "Si O2"
_cell_formula_units_Z 60
_cell_length_a 20.618597
_cell_length_b 9.165831
_cell_length_c 19.985236
_cell_angle_alpha 90.000000
_cell_angle_beta 50.299594
_cell_angle_gamma 90.000000
_cell_volume 2905.959870
_symmetry_space_group_name_H-M "C 2/C"
_symmetry_group_IT_number 15
_symmetry_cell_setting 'monoclinic'
loop_
_space_group_symop_operation_xyz
x,y,z
-x,y,1/2-z
-x,-y,-z
x,-y,1/2+z
1/2+x,1/2+y,z
1/2-x,1/2+y,1/2-z
1/2-x,1/2-y,-z
1/2+x,1/2-y,1/2+z
loop_
_atom_site_type_symbol
_atom_site_label
_atom_site_fract_x
_atom_site_fract_y
_atom_site_fract_z
Si Si1 0.559595 0.499962 0.649927
Si Si2 0.469024 0.772723 0.147043
Si Si3 0.960438 0.694221 0.385683
Si Si4 0.000000 0.482861 0.250000
Si Si5 0.396421 0.036596 0.020901
Si Si6 0.212426 0.342469 0.228019
Si Si7 0.227645 0.835431 0.581667
Si Si8 0.647621 0.148934 0.303799
O O1 0.500000 0.546398 0.750000
O O2 0.507524 0.381817 0.641586
O O3 0.577310 0.646704 0.598125
O O4 0.641615 0.421611 0.625488
O O5 0.373425 0.772197 0.185173
O O6 0.463349 0.873797 0.218002
O O7 0.535424 0.851341 0.055000
O O8 0.928613 0.618843 0.474402
O O9 0.941886 0.588393 0.334077
O O10 0.062939 0.696221 0.321366
O O11 0.305576 0.060924 0.047574
O O12 0.384249 0.073660 0.106150
O O13 0.221042 0.274733 0.148401
O O14 0.292105 0.283796 0.217468
O O15 0.199365 0.516535 0.235854
O O16 0.250000 0.750000 0.500000
#
# Coordination Sequence:
#
# PCOD9260202 Si02
#       8
#     8   8   8   4   8   8   8   8
#     4  12  23  39  65 101 134 161 217 282 326 392
#     4  11  20  39  69  90 124 177 217 256 340 390
#     4  11  24  39  66  96 132 168 215 276 336 387
#     4  10  18  36  64  92 114 176 212 250 328 414
#     4  10  23  43  66  91 130 180 217 269 328 409
#     4  11  24  41  68  93 130 180 215 280 318 400
#     4  11  23  41  66  97 130 170 227 268 336 400
#     4  11  25  45  65  96 135 174 231 266 330 402
#
# _framework density 20.647221999999999
#
# number of rings (size 3 to 8) (size 9 to 14) (size 15 to 20)
#    0.000    1.067    6.667    0.400    3.733    0.533 
#    2.400    0.667    0.000    0.000    0.000    0.000 
#    0.000    0.000    0.000    0.000    0.000    0.000 
#
# Total GULP energy -167587.908546 kJ/mol
# GULP energy per Si atom -5586.263618 kJ/mol
# Density = 2.060023 g / cm^3
# Si number density = 20.647222 Si / 1000 Ang^3
#
#
#
# Elastic Constant Matrix: (Units=GPa)
#
#
# Indices 1 2 3 4 5 6 
#
# 1 62.0910 7.3047 19.0092 0.0000 -8.7129 0.0000
# 2 7.3047 63.8007 -2.7301 0.0000 13.2388 0.0000
# 3 19.0092 -2.7301 52.8955 0.0000 -5.4723 0.0000
# 4 0.0000 0.0000 0.0000 20.4126 0.0000 -1.5137
# 5 -8.7129 13.2388 -5.4723 0.0000 22.2400 0.0000
# 6 0.0000 0.0000 0.0000 -1.5137 0.0000 18.7977
#
#
#
# Elastic Compliance Matrix: (Units=1/GPa)
#
#
# Indices 1 2 3 4 5 6 
#
# 1 0.019823 -0.004367 -0.006441 0.000000 0.008781 0.000000
# 2 -0.004367 0.018847 0.001236 0.000000 -0.012626 0.000000
# 3 -0.006441 0.001236 0.021494 0.000000 0.002030 0.000000
# 4 0.000000 0.000000 0.000000 0.049284 0.000000 0.003969
# 5 0.008781 -0.012626 0.002030 0.000000 0.056419 0.000000
# 6 0.000000 0.000000 0.000000 0.003969 0.000000 0.053518
#
#
# Mechanical properties :
#
#
# Convention : Reuss Voigt Hill
#
# Bulk Modulus (GPa) = 24.37889 25.10611 24.74250
# Shear Modulus (GPa) = 19.82543 22.63695 21.23119
#
# Velocity S-wave (km/s) = 3.10207 3.31474 3.21016
# Velocity P-wave (km/s) = 4.96623 5.18034 5.07441
#
# Compressibility (1/GPa) = 0.04101910
#
# Stress axis : x y z
#
# Youngs Moduli (GPa) = 50.44577 53.06006 46.52534
#
# Poissons Ratio (x) = 0.23173 0.29967
# Poissons Ratio (y) = 0.22031 -0.05751
# Poissons Ratio (z) = 0.32492 -0.06558
#
# Static dielectric constant tensor:
#      x y z
#    x 1.869540 0.000000 -0.023690 
#    y 0.000000 1.870530 0.000000 
#    z -0.023690 0.000000 1.750140 
# 
# From -- ./inp_files/214273.got.cif
#   From: 2010.05.17/outbox.cif.g08.bks.cpg/sg15_108_cif.got.tgz:214273.got - 2010.06.03 18:47:42.
