data_PCOD9260875
_publ_section_title
;
Structure prediction by ZEFSAII (Michael W. Deem and Ramdas Pophale) SiO2 
 PCOD9260875
Probable space group: C 2/C
;
_chemical_formula_sum "Si O2"
_cell_formula_units_Z 60
_cell_length_a 17.569665
_cell_length_b 18.158691
_cell_length_c 10.283920
_cell_angle_alpha 90.000000
_cell_angle_beta 69.242578
_cell_angle_gamma 90.000000
_cell_volume 3068.031399
_symmetry_space_group_name_H-M "C 2/C"
_symmetry_group_IT_number 15
_symmetry_cell_setting 'monoclinic'
loop_
_space_group_symop_operation_xyz
x,y,z
-x,y,1/2-z
-x,-y,-z
x,-y,1/2+z
1/2+x,1/2+y,z
1/2-x,1/2+y,1/2-z
1/2-x,1/2-y,-z
1/2+x,1/2-y,1/2+z
loop_
_atom_site_type_symbol
_atom_site_label
_atom_site_fract_x
_atom_site_fract_y
_atom_site_fract_z
Si Si1 0.574020 0.117724 0.784135
Si Si2 0.278590 0.722513 0.166345
Si Si3 0.258631 0.956862 0.241381
Si Si4 0.904650 0.329559 0.965253
Si Si5 0.271818 0.081215 0.438025
Si Si6 0.000000 0.792423 0.250000
Si Si7 0.137079 0.823104 0.354248
Si Si8 0.343004 0.261181 0.891926
O O1 0.500000 0.083618 0.750000
O O2 0.650826 0.067745 0.771290
O O3 0.609929 0.186794 0.678937
O O4 0.542814 0.141965 0.945740
O O5 0.273649 0.658122 0.064887
O O6 0.190727 0.754753 0.262962
O O7 0.327319 0.697296 0.265459
O O8 0.326648 0.792564 0.082746
O O9 0.195993 0.893430 0.323094
O O10 0.248888 0.030735 0.329921
O O11 0.252819 0.957639 0.087606
O O12 0.866432 0.392427 0.896484
O O13 0.948178 0.263506 0.868436
O O14 0.938871 0.836050 0.194024
O O15 0.113019 0.800864 0.515390
O O16 0.250000 0.250000 0.000000
#
# Coordination Sequence:
#
# PCOD9260875 Si02
#       8
#     8   8   8   8   8   4   8   8
#     4  10  19  37  56  83 123 160 189 247 307 364
#     4  10  18  38  67  82 117 157 209 253 303 353
#     4  11  24  39  58  86 127 161 209 241 315 370
#     4  10  20  38  57  89 115 153 207 248 309 355
#     4  11  22  38  60  89 117 169 201 252 298 376
#     4  12  22  32  64  94 116 154 206 274 292 356
#     4  11  20  37  60  93 121 153 206 258 305 362
#     4   9  17  31  59  89 112 146 198 257 297 351
#
# _framework density 19.556512999999999
#
# number of rings (size 3 to 8) (size 9 to 14) (size 15 to 20)
#    0.000    1.600    6.667    2.000    1.867    0.000 
#    3.600    1.333    0.000    3.200    1.733    0.000 
#    0.000    0.000    0.000    0.000    0.000    0.000 
#
# Total GULP energy -167152.202069 kJ/mol
# GULP energy per Si atom -5571.740069 kJ/mol
# Density = 1.951200 g / cm^3
# Si number density = 19.556513 Si / 1000 Ang^3
#
#
#
# Elastic Constant Matrix: (Units=GPa)
#
#
# Indices 1 2 3 4 5 6 
#
# 1 60.8088 10.3990 29.3979 0.0000 34.7527 0.0000
# 2 10.3990 47.3357 7.9380 0.0000 14.5834 0.0000
# 3 29.3979 7.9380 55.8199 0.0000 23.6194 0.0000
# 4 0.0000 0.0000 0.0000 18.6443 0.0000 17.9598
# 5 34.7527 14.5834 23.6194 0.0000 31.7082 0.0000
# 6 0.0000 0.0000 0.0000 17.9598 0.0000 14.3616
#
#
#
# Elastic Compliance Matrix: (Units=1/GPa)
#
#
# Indices 1 2 3 4 5 6 
#
# 1 0.046089 0.006064 -0.003769 0.000000 -0.050496 0.000000
# 2 0.006064 0.025548 0.001398 0.000000 -0.019438 0.000000
# 3 -0.003769 0.001398 0.026613 0.000000 -0.016337 0.000000
# 4 0.000000 0.000000 0.000000 -0.262120 0.000000 0.327791
# 5 -0.050496 -0.019438 -0.016337 0.000000 0.107991 0.000000
# 6 0.000000 0.000000 0.000000 0.327791 0.000000 -0.340285
#
#
# Mechanical properties :
#
#
# Convention : Reuss Voigt Hill
#
# Bulk Modulus (GPa) = 9.46643 28.82600 19.14621
# Shear Modulus (GPa) = -13.57443 20.69147 3.55852
#
# Velocity S-wave (km/s) = -2.63746 3.25627 1.35039
# Velocity P-wave (km/s) = 2.10330 5.37676 3.49898
#
# Compressibility (1/GPa) = 0.10563645
#
# Stress axis : x y z
#
# Youngs Moduli (GPa) = 21.69733 39.14275 37.57499
#
# Poissons Ratio (x) = -0.23736 0.14161
# Poissons Ratio (y) = -0.13157 -0.05253
# Poissons Ratio (z) = 0.08177 -0.05473
#
# Static dielectric constant tensor:
#      x y z
#    x 1.744360 0.000000 0.001230 
#    y 0.000000 1.688270 0.000000 
#    z 0.001230 0.000000 1.793420 
# 
# From -- ./inp_files/106382.got.cif
#   From: 2010.05.17/outbox.cif.g08.bks.cpg/sg15_54_cif.got.tgz:106382.got - 2010.06.03 18:47:42.
