data_PCOD9260812
_publ_section_title
;
Structure prediction by ZEFSAII (Michael W. Deem and Ramdas Pophale) SiO2 
 PCOD9260812
Probable space group: C 2/C
;
_chemical_formula_sum "Si O2"
_cell_formula_units_Z 36
_cell_length_a 5.358782
_cell_length_b 22.058096
_cell_length_c 14.854769
_cell_angle_alpha 90.000000
_cell_angle_beta 51.198210
_cell_angle_gamma 90.000000
_cell_volume 1368.405903
_symmetry_space_group_name_H-M "C 2/C"
_symmetry_group_IT_number 15
_symmetry_cell_setting 'monoclinic'
loop_
_space_group_symop_operation_xyz
x,y,z
-x,y,1/2-z
-x,-y,-z
x,-y,1/2+z
1/2+x,1/2+y,z
1/2-x,1/2+y,1/2-z
1/2-x,1/2-y,-z
1/2+x,1/2-y,1/2+z
loop_
_atom_site_type_symbol
_atom_site_label
_atom_site_fract_x
_atom_site_fract_y
_atom_site_fract_z
Si Si1 0.879036 0.203042 0.675209
Si Si2 0.500000 0.894850 0.750000
Si Si3 0.876086 0.067298 0.632760
Si Si4 0.346743 0.447191 0.925432
Si Si5 0.854390 0.671406 0.123923
O O1 0.500000 0.195601 0.750000
O O2 0.993459 0.135115 0.629037
O O3 0.936471 0.258463 0.591663
O O4 0.000000 0.218432 0.750000
O O5 0.196920 0.935490 0.801386
O O6 0.410085 0.851906 0.851965
O O7 0.500000 0.060086 0.750000
O O8 0.856868 0.057408 0.530306
O O9 0.159880 0.019106 0.598108
O O10 0.165772 0.386141 0.936213
O O11 0.500000 0.674725 0.250000
#
# Coordination Sequence:
#
# PCOD9260812 Si02
#       5
#     8   4   8   8   8
#     4  10  21  41  68  99 140 183 226 289 356 412
#     4  10  18  38  64  92 126 166 214 288 322 422
#     4  10  22  43  64  95 141 174 227 286 350 411
#     4  10  21  40  66  98 127 179 231 274 350 410
#     4   9  19  36  66  93 129 172 229 274 337 410
#
# _framework density 26.307984999999999
#
# number of rings (size 3 to 8) (size 9 to 14) (size 15 to 20)
#    0.000    2.222    2.222    0.000    0.000    3.556 
#    8.000    3.333    0.000    0.000    0.000    0.000 
#    0.000    0.000    0.000    0.000    0.000    0.000 
#
# Total GULP energy -100222.954333 kJ/mol
# GULP energy per Si atom -5567.941907 kJ/mol
# Density = 2.624811 g / cm^3
# Si number density = 26.307985 Si / 1000 Ang^3
#
#
#
# Elastic Constant Matrix: (Units=GPa)
#
#
# Indices 1 2 3 4 5 6 
#
# 1 95.3114 45.1216 22.8499 0.0000 -0.9812 0.0000
# 2 45.1216 303.3281 52.3234 0.0000 3.4173 0.0000
# 3 22.8499 52.3234 70.9144 0.0000 -17.3269 0.0000
# 4 0.0000 0.0000 0.0000 17.2989 0.0000 29.9972
# 5 -0.9812 3.4173 -17.3269 0.0000 37.5792 0.0000
# 6 0.0000 0.0000 0.0000 29.9972 0.0000 28.6692
#
#
#
# Elastic Compliance Matrix: (Units=1/GPa)
#
#
# Indices 1 2 3 4 5 6 
#
# 1 0.011810 -0.001197 -0.003178 0.000000 -0.001048 0.000000
# 2 -0.001197 0.004015 -0.003013 0.000000 -0.001785 0.000000
# 3 -0.003178 -0.003013 0.019604 0.000000 0.009230 0.000000
# 4 0.000000 0.000000 0.000000 -0.070983 0.000000 0.074271
# 5 -0.001048 -0.001785 0.009230 0.000000 0.031001 0.000000
# 6 0.000000 0.000000 0.000000 0.074271 0.000000 -0.042831
#
#
# Mechanical properties :
#
#
# Convention : Reuss Voigt Hill
#
# Bulk Modulus (GPa) = 48.42103 78.90486 63.66294
# Shear Modulus (GPa) = -194.37027 39.99338 -77.18844
#
# Velocity S-wave (km/s) = -8.60482 3.90320 -5.42255
# Velocity P-wave (km/s) = 8.95983 7.09727 3.86700
#
# Compressibility (1/GPa) = 0.02065218
#
# Stress axis : x y z
#
# Youngs Moduli (GPa) = 84.67654 249.09202 51.01049
#
# Poissons Ratio (x) = 0.29808 0.16214
# Poissons Ratio (y) = 0.10133 0.15368
# Poissons Ratio (z) = 0.26914 0.75046
#
# Static dielectric constant tensor:
#      x y z
#    x 2.031140 0.000000 0.023300 
#    y 0.000000 2.196650 0.000000 
#    z 0.023300 0.000000 2.092430 
# 
# From -- ./inp_files/128992.got.cif
#   From: 2010.05.17/outbox.cif.g08.bks.cpg/sg15_65_cif.got.tgz:128992.got - 2010.06.03 18:47:42.
