data_PCOD9260871
_publ_section_title
;
Structure prediction by ZEFSAII (Michael W. Deem and Ramdas Pophale) SiO2 
 PCOD9260871
Probable space group: C 2/C
;
_chemical_formula_sum "Si O2"
_cell_formula_units_Z 52
_cell_length_a 8.655430
_cell_length_b 25.525091
_cell_length_c 12.607806
_cell_angle_alpha 90.000000
_cell_angle_beta 121.942062
_cell_angle_gamma 90.000000
_cell_volume 2363.687503
_symmetry_space_group_name_H-M "C 2/C"
_symmetry_group_IT_number 15
_symmetry_cell_setting 'monoclinic'
loop_
_space_group_symop_operation_xyz
x,y,z
-x,y,1/2-z
-x,-y,-z
x,-y,1/2+z
1/2+x,1/2+y,z
1/2-x,1/2+y,1/2-z
1/2-x,1/2-y,-z
1/2+x,1/2-y,1/2+z
loop_
_atom_site_type_symbol
_atom_site_label
_atom_site_fract_x
_atom_site_fract_y
_atom_site_fract_z
Si Si1 0.360007 0.417863 0.950345
Si Si2 0.048446 0.184170 0.891889
Si Si3 0.976680 0.292951 0.536714
Si Si4 0.500000 0.861294 0.750000
Si Si5 0.208644 0.957929 0.355120
Si Si6 0.860039 0.930935 0.618215
Si Si7 0.015560 0.622131 0.882068
O O1 0.499742 0.446465 0.924452
O O2 0.182127 0.394539 0.830411
O O3 0.464606 0.369151 0.046134
O O4 0.278549 0.452113 0.014429
O O5 0.259833 0.199644 0.967480
O O6 0.000000 0.179448 0.750000
O O7 0.959072 0.233586 0.919898
O O8 0.041023 0.326289 0.661521
O O9 0.012607 0.321428 0.438704
O O10 0.350017 0.917155 0.356320
O O11 0.000000 0.944953 0.250000
O O12 0.224201 0.020393 0.346016
O O13 0.697209 0.902517 0.499259
O O14 0.000000 0.901639 0.750000
O O15 0.000000 0.626355 0.750000
#
# Coordination Sequence:
#
# PCOD9260871 Si02
#       7
#     8   8   8   4   8   8   8
#     4  11  22  39  68  97 127 173 222 278 333 393
#     4  10  20  36  68  95 125 166 224 266 325 394
#     4  10  21  38  61 100 128 173 217 273 321 397
#     4  10  18  38  66  96 134 166 228 278 320 396
#     4  11  23  44  67  95 129 174 231 276 334 404
#     4  11  26  44  64  95 138 175 225 281 343 398
#     4  12  25  44  68 101 142 177 221 279 344 401
#
# _framework density 21.999524999999998
#
# number of rings (size 3 to 8) (size 9 to 14) (size 15 to 20)
#    0.000    1.231    3.846    3.231    2.154    1.231 
#    1.385    1.538    0.000    0.000    0.000    0.000 
#    0.000    0.000    0.000    0.000    0.000    0.000 
#
# Total GULP energy -145034.363830 kJ/mol
# GULP energy per Si atom -5578.244763 kJ/mol
# Density = 2.194945 g / cm^3
# Si number density = 21.999525 Si / 1000 Ang^3
#
#
#
# Elastic Constant Matrix: (Units=GPa)
#
#
# Indices 1 2 3 4 5 6 
#
# 1 56.2965 14.7409 30.6876 0.0000 -11.6037 0.0000
# 2 14.7409 94.5523 44.7014 0.0000 -6.4011 0.0000
# 3 30.6876 44.7014 160.8529 0.0000 2.0271 0.0000
# 4 0.0000 0.0000 0.0000 128.9273 0.0000 -34.7362
# 5 -11.6037 -6.4011 2.0271 0.0000 37.8232 0.0000
# 6 0.0000 0.0000 0.0000 -34.7362 0.0000 13.7659
#
#
#
# Elastic Compliance Matrix: (Units=1/GPa)
#
#
# Indices 1 2 3 4 5 6 
#
# 1 0.021533 -0.001066 -0.003895 0.000000 0.006634 0.000000
# 2 -0.001066 0.012422 -0.003273 0.000000 0.001951 0.000000
# 3 -0.003895 -0.003273 0.007897 0.000000 -0.002172 0.000000
# 4 0.000000 0.000000 0.000000 0.024227 0.000000 0.061134
# 5 0.006634 0.001951 -0.002172 0.000000 0.028921 0.000000
# 6 0.000000 0.000000 0.000000 0.061134 0.000000 0.226905
#
#
# Mechanical properties :
#
#
# Convention : Reuss Voigt Hill
#
# Bulk Modulus (GPa) = 39.39756 54.66238 47.02997
# Shear Modulus (GPa) = 14.41605 50.87475 32.64540
#
# Velocity S-wave (km/s) = 2.56264 4.81410 3.85634
# Velocity P-wave (km/s) = 5.16753 7.47006 6.42282
#
# Compressibility (1/GPa) = 0.02538229
#
# Stress axis : x y z
#
# Youngs Moduli (GPa) = 46.44003 80.50278 126.62984
#
# Poissons Ratio (x) = 0.08584 0.49327
# Poissons Ratio (y) = 0.04952 0.41449
# Poissons Ratio (z) = 0.18090 0.26350
#
# Static dielectric constant tensor:
#      x y z
#    x 1.815470 0.000000 0.004800 
#    y 0.000000 1.896530 0.000000 
#    z 0.004800 0.000000 1.849370 
# 
# From -- ./inp_files/81516.got.cif
#   From: 2010.05.17/outbox.cif.g08.bks.cpg/sg15_41_cif.got.tgz:81516.got - 2010.06.03 18:47:42.
