data_PCOD9260166
_publ_section_title
;
Structure prediction by ZEFSAII (Michael W. Deem and Ramdas Pophale) SiO2 
 PCOD9260166
Probable space group: C 2/C
;
_chemical_formula_sum "Si O2"
_cell_formula_units_Z 48
_cell_length_a 11.912999
_cell_length_b 16.566798
_cell_length_c 22.337966
_cell_angle_alpha 90.000000
_cell_angle_beta 141.259128
_cell_angle_gamma 90.000000
_cell_volume 2758.915022
_symmetry_space_group_name_H-M "C 2/C"
_symmetry_group_IT_number 15
_symmetry_cell_setting 'monoclinic'
loop_
_space_group_symop_operation_xyz
x,y,z
-x,y,1/2-z
-x,-y,-z
x,-y,1/2+z
1/2+x,1/2+y,z
1/2-x,1/2+y,1/2-z
1/2-x,1/2-y,-z
1/2+x,1/2-y,1/2+z
loop_
_atom_site_type_symbol
_atom_site_label
_atom_site_fract_x
_atom_site_fract_y
_atom_site_fract_z
Si Si1 0.500000 0.064569 0.750000
Si Si2 0.500000 0.336349 0.750000
Si Si3 0.311859 0.484580 0.956154
Si Si4 0.123055 0.197977 0.989176
Si Si5 0.974541 0.265522 0.423162
Si Si6 0.689403 0.621201 0.446786
Si Si7 0.276687 0.799964 0.223969
O O1 0.605969 0.123904 0.749025
O O2 0.647683 0.013032 0.846336
O O3 0.410632 0.384894 0.658518
O O4 0.647426 0.276370 0.782161
O O5 0.500000 0.500000 0.000000
O O6 0.299834 0.390712 0.966409
O O7 0.307031 0.540158 0.013335
O O8 0.928657 0.187680 0.877775
O O9 0.250000 0.250000 0.000000
O O10 0.093146 0.242921 0.039752
O O11 0.115485 0.339312 0.482298
O O12 0.082614 0.188105 0.441846
O O13 0.819396 0.284150 0.310932
#
# Coordination Sequence:
#
# PCOD9260166 Si02
#       7
#     4   4   8   8   8   8   8
#     4  11  20  38  68  99 120 164 216 265 316 368
#     4   9  18  32  66  95 120 154 220 263 300 366
#     4  12  23  40  66  97 129 160 215 271 312 374
#     4  12  26  43  59  92 137 168 205 265 328 379
#     4  10  19  36  65  91 121 165 215 248 314 380
#     4  10  18  36  63  98 117 159 215 269 297 368
#     4  10  19  36  66  93 121 167 213 256 310 382
#
# _framework density 17.398143000000001
#
# number of rings (size 3 to 8) (size 9 to 14) (size 15 to 20)
#    0.000    1.333    6.667    0.000    0.000    2.000 
#    0.000    2.500    0.000    0.000    0.000    0.000 
#    0.000    0.000    0.000    0.000    0.000    0.000 
#
# Total GULP energy -134041.364226 kJ/mol
# GULP energy per Si atom -5585.056843 kJ/mol
# Density = 1.735854 g / cm^3
# Si number density = 17.398143 Si / 1000 Ang^3
#
#
#
# Elastic Constant Matrix: (Units=GPa)
#
#
# Indices 1 2 3 4 5 6 
#
# 1 112.4217 66.9021 74.4837 0.0000 -18.7024 0.0000
# 2 66.9021 113.6113 61.4968 0.0000 -9.6491 0.0000
# 3 74.4837 61.4968 157.0499 0.0000 -9.9744 0.0000
# 4 0.0000 0.0000 0.0000 25.3831 0.0000 -3.1945
# 5 -18.7024 -9.6491 -9.9744 0.0000 29.5621 0.0000
# 6 0.0000 0.0000 0.0000 -3.1945 0.0000 24.5074
#
#
#
# Elastic Compliance Matrix: (Units=1/GPa)
#
#
# Indices 1 2 3 4 5 6 
#
# 1 0.017693 -0.006998 -0.005196 0.000000 0.007156 0.000000
# 2 -0.006998 0.014082 -0.002232 0.000000 -0.000584 0.000000
# 3 -0.005196 -0.002232 0.009658 0.000000 -0.000757 0.000000
# 4 0.000000 0.000000 0.000000 0.040053 0.000000 0.005221
# 5 0.007156 -0.000584 -0.000757 0.000000 0.037908 0.000000
# 6 0.000000 0.000000 0.000000 0.005221 0.000000 0.041485
#
#
# Mechanical properties :
#
#
# Convention : Reuss Voigt Hill
#
# Bulk Modulus (GPa) = 79.49814 87.64977 83.57395
# Shear Modulus (GPa) = 25.78319 27.90387 26.84353
#
# Velocity S-wave (km/s) = 3.85379 4.00914 3.93223
# Velocity P-wave (km/s) = 8.09907 8.48052 8.29199
#
# Compressibility (1/GPa) = 0.01257891
#
# Stress axis : x y z
#
# Youngs Moduli (GPa) = 56.51940 71.01472 103.54351
#
# Poissons Ratio (x) = 0.49699 0.53805
# Poissons Ratio (y) = 0.39554 0.23111
# Poissons Ratio (z) = 0.29370 0.15851
#
# Static dielectric constant tensor:
#      x y z
#    x 1.568050 0.000000 -0.003510 
#    y 0.000000 1.571530 0.000000 
#    z -0.003510 0.000000 1.591390 
# 
# From -- ./inp_files/143491.got.cif
#   From: 2010.05.17/outbox.cif.g08.bks.cpg/sg15_72_cif.got.tgz:143491.got - 2010.06.03 18:47:42.
