data_PCOD9260128
_publ_section_title
;
Structure prediction by ZEFSAII (Michael W. Deem and Ramdas Pophale) SiO2 
 PCOD9260128
Probable space group: C 2/C
;
_chemical_formula_sum "Si O2"
_cell_formula_units_Z 60
_cell_length_a 7.204708
_cell_length_b 13.505440
_cell_length_c 24.868683
_cell_angle_alpha 90.000000
_cell_angle_beta 94.241388
_cell_angle_gamma 90.000000
_cell_volume 2413.164234
_symmetry_space_group_name_H-M "C 2/C"
_symmetry_group_IT_number 15
_symmetry_cell_setting 'monoclinic'
loop_
_space_group_symop_operation_xyz
x,y,z
-x,y,1/2-z
-x,-y,-z
x,-y,1/2+z
1/2+x,1/2+y,z
1/2-x,1/2+y,1/2-z
1/2-x,1/2-y,-z
1/2+x,1/2-y,1/2+z
loop_
_atom_site_type_symbol
_atom_site_label
_atom_site_fract_x
_atom_site_fract_y
_atom_site_fract_z
Si Si1 0.475807 0.588494 0.958826
Si Si2 0.513975 0.489072 0.853139
Si Si3 0.863070 0.843121 0.286053
Si Si4 0.500000 0.029278 0.750000
Si Si5 0.670303 0.719453 0.377408
Si Si6 0.916900 0.436932 0.638030
Si Si7 0.529490 0.110825 0.934536
Si Si8 0.508165 0.191471 0.455085
O O1 0.571718 0.549839 0.906869
O O2 0.254591 0.602161 0.945617
O O3 0.551217 0.696867 0.973817
O O4 0.500000 0.500000 0.000000
O O5 0.505613 0.569801 0.806764
O O6 0.610204 0.383506 0.849644
O O7 0.296521 0.464445 0.857306
O O8 0.677368 0.897143 0.259889
O O9 0.790579 0.781684 0.336479
O O10 0.000000 0.781058 0.250000
O O11 0.508680 0.958681 0.697666
O O12 0.509684 0.791770 0.396593
O O13 0.790163 0.690793 0.432916
O O14 0.018144 0.514307 0.600190
O O15 0.907884 0.339827 0.600507
O O16 0.453334 0.122583 0.992955
#
# Coordination Sequence:
#
# PCOD9260128 Si02
#       8
#     8   8   8   4   8   8   8   8
#     4  10  18  36  62  93 133 180 228 276 350 439
#     4  10  21  43  67  93 138 183 226 292 365 436
#     4  11  24  48  73 102 142 188 252 306 371 449
#     4  10  22  50  72  98 148 192 236 316 370 422
#     4  11  21  44  68 101 133 186 239 291 369 442
#     4  10  22  42  65 100 142 182 241 295 363 441
#     4  10  19  39  63  95 146 182 230 293 358 441
#     4  11  21  36  65 106 137 179 238 297 354 435
#
# _framework density 24.863620000000001
#
# number of rings (size 3 to 8) (size 9 to 14) (size 15 to 20)
#    0.000    1.600    5.333    3.600    1.867    0.000 
#    4.800    8.667    0.000    0.000    0.000    0.000 
#    0.000    0.000    0.000    0.000    0.000    0.000 
#
# Total GULP energy -167594.308274 kJ/mol
# GULP energy per Si atom -5586.476942 kJ/mol
# Density = 2.480703 g / cm^3
# Si number density = 24.863620 Si / 1000 Ang^3
#
#
#
# Elastic Constant Matrix: (Units=GPa)
#
#
# Indices 1 2 3 4 5 6 
#
# 1 65.9769 17.4655 27.0342 0.0000 -7.2222 0.0000
# 2 17.4655 125.4348 59.6655 0.0000 7.0065 0.0000
# 3 27.0342 59.6655 175.8180 0.0000 -10.7874 0.0000
# 4 0.0000 0.0000 0.0000 1.6581 0.0000 15.9592
# 5 -7.2222 7.0065 -10.7874 0.0000 17.0728 0.0000
# 6 0.0000 0.0000 0.0000 15.9592 0.0000 23.3413
#
#
#
# Elastic Compliance Matrix: (Units=1/GPa)
#
#
# Indices 1 2 3 4 5 6 
#
# 1 0.017097 -0.002072 -0.001487 0.000000 0.007143 0.000000
# 2 -0.002072 0.010429 -0.003680 0.000000 -0.007481 0.000000
# 3 -0.001487 -0.003680 0.007510 0.000000 0.005626 0.000000
# 4 0.000000 0.000000 0.000000 -0.108065 0.000000 0.073887
# 5 0.007143 -0.007481 0.005626 0.000000 0.068220 0.000000
# 6 0.000000 0.000000 0.000000 0.073887 0.000000 -0.007677
#
#
# Mechanical properties :
#
#
# Convention : Reuss Voigt Hill
#
# Bulk Modulus (GPa) = 48.64309 63.95114 56.29711
# Shear Modulus (GPa) = 565.29570 25.95206 295.62388
#
# Velocity S-wave (km/s) = 15.09477 3.23426 10.91587
# Velocity P-wave (km/s) = 17.98358 6.30268 13.47466
#
# Compressibility (1/GPa) = 0.02055791
#
# Stress axis : x y z
#
# Youngs Moduli (GPa) = 58.49091 95.88705 133.15018
#
# Poissons Ratio (x) = 0.19868 0.19805
# Poissons Ratio (y) = 0.12119 0.48994
# Poissons Ratio (z) = 0.08700 0.35282
#
# Static dielectric constant tensor:
#      x y z
#    x 2.061770 0.000000 -0.044890 
#    y 0.000000 2.028760 0.000000 
#    z -0.044890 0.000000 2.140520 
# 
# From -- ./inp_files/264343.got.cif
#   From: 2010.05.17/outbox.cif.g08.bks.cpg/sg15_133_cif.got.tgz:264343.got - 2010.06.03 18:47:42.
