data_PCOD9260952
_publ_section_title
;
Structure prediction by ZEFSAII (Michael W. Deem and Ramdas Pophale) SiO2 
 PCOD9260952
Probable space group: C 2/C
;
_chemical_formula_sum "Si O2"
_cell_formula_units_Z 44
_cell_length_a 7.930710
_cell_length_b 23.707616
_cell_length_c 10.091027
_cell_angle_alpha 90.000000
_cell_angle_beta 72.273014
_cell_angle_gamma 90.000000
_cell_volume 1807.209889
_symmetry_space_group_name_H-M "C 2/C"
_symmetry_group_IT_number 15
_symmetry_cell_setting 'monoclinic'
loop_
_space_group_symop_operation_xyz
x,y,z
-x,y,1/2-z
-x,-y,-z
x,-y,1/2+z
1/2+x,1/2+y,z
1/2-x,1/2+y,1/2-z
1/2-x,1/2-y,-z
1/2+x,1/2-y,1/2+z
loop_
_atom_site_type_symbol
_atom_site_label
_atom_site_fract_x
_atom_site_fract_y
_atom_site_fract_z
Si Si1 0.393753 0.640830 0.524768
Si Si2 0.878359 0.231266 0.146524
Si Si3 0.357937 0.526004 0.633777
Si Si4 0.500000 0.942771 0.250000
Si Si5 0.500000 0.565112 0.250000
Si Si6 0.000000 0.671371 0.250000
Si Si7 0.986836 0.352760 0.047367
O O1 0.520607 0.694564 0.490648
O O2 0.410051 0.592042 0.631304
O O3 0.450742 0.605541 0.380850
O O4 0.189130 0.657533 0.550920
O O5 0.681833 0.207383 0.216724
O O6 0.000000 0.226746 0.250000
O O7 0.879779 0.295937 0.102290
O O8 0.500000 0.500000 0.500000
O O9 0.155919 0.526234 0.636947
O O10 0.350196 0.481147 0.754560
O O11 0.419013 0.903324 0.154225
O O12 0.987932 0.637068 0.390160
#
# Coordination Sequence:
#
# PCOD9260952 Si02
#       7
#     8   8   8   4   4   4   8
#     4  10  20  40  66  89 128 185 221 274 364 410
#     4  12  23  42  68  96 140 186 223 284 353 422
#     4   9  21  38  63  93 130 176 230 291 346 410
#     4  10  22  43  71  98 134 191 233 280 366 430
#     4  10  18  39  61  94 126 167 231 286 342 410
#     4  12  26  38  62 104 134 182 240 278 338 420
#     4  11  23  43  66 100 136 180 237 284 347 430
#
# _framework density 24.346921999999999
#
# number of rings (size 3 to 8) (size 9 to 14) (size 15 to 20)
#    0.000    1.455    3.636    1.091    0.000    1.455 
#    0.000   20.000    0.000    0.000    0.000    0.000 
#    0.000    0.000    0.000    0.000    0.000    0.000 
#
# Total GULP energy -122813.271701 kJ/mol
# GULP energy per Si atom -5582.421441 kJ/mol
# Density = 2.429151 g / cm^3
# Si number density = 24.346922 Si / 1000 Ang^3
#
#
#
# Elastic Constant Matrix: (Units=GPa)
#
#
# Indices 1 2 3 4 5 6 
#
# 1 97.3592 13.0416 40.3925 0.0000 -15.5613 0.0000
# 2 13.0416 50.6312 4.9006 0.0000 4.9957 0.0000
# 3 40.3925 4.9006 105.6303 0.0000 2.1812 0.0000
# 4 0.0000 0.0000 0.0000 -45.3251 0.0000 -24.5262
# 5 -15.5613 4.9957 2.1812 0.0000 42.8712 0.0000
# 6 0.0000 0.0000 0.0000 -24.5262 0.0000 14.1583
#
#
#
# Elastic Compliance Matrix: (Units=1/GPa)
#
#
# Indices 1 2 3 4 5 6 
#
# 1 0.013846 -0.003623 -0.005244 0.000000 0.005715 0.000000
# 2 -0.003623 0.021010 0.000489 0.000000 -0.003788 0.000000
# 3 -0.005244 0.000489 0.011502 0.000000 -0.002546 0.000000
# 4 0.000000 0.000000 0.000000 -0.011388 0.000000 -0.019727
# 5 0.005715 -0.003788 -0.002546 0.000000 0.025971 0.000000
# 6 0.000000 0.000000 0.000000 -0.019727 0.000000 0.036457
#
#
# Mechanical properties :
#
#
# Convention : Reuss Voigt Hill
#
# Bulk Modulus (GPa) = 33.78194 41.14332 37.46263
# Shear Modulus (GPa) = 40.31547 15.35994 27.83771
#
# Velocity S-wave (km/s) = 4.07366 2.51445 3.38505
# Velocity P-wave (km/s) = 6.00264 5.03641 5.54063
#
# Compressibility (1/GPa) = 0.02960162
#
# Stress axis : x y z
#
# Youngs Moduli (GPa) = 72.22434 47.59581 86.93882
#
# Poissons Ratio (x) = 0.17242 0.45595
# Poissons Ratio (y) = 0.26164 -0.04249
# Poissons Ratio (z) = 0.37878 -0.02326
#
# Static dielectric constant tensor:
#      x y z
#    x 2.034880 0.000000 0.023100 
#    y 0.000000 1.957990 0.000000 
#    z 0.023100 0.000000 2.031930 
# 
# From -- ./inp_files/79069.got.cif
#   From: 2010.05.17/outbox.cif.g08.bks.cpg/sg15_40_cif.got.tgz:79069.got - 2010.06.03 18:47:42.
