data_PCOD9260178
_publ_section_title
;
Structure prediction by ZEFSAII (Michael W. Deem and Ramdas Pophale) SiO2 
 PCOD9260178
Probable space group: C 2/C
;
_chemical_formula_sum "Si O2"
_cell_formula_units_Z 44
_cell_length_a 10.808530
_cell_length_b 14.433901
_cell_length_c 23.571124
_cell_angle_alpha 90.000000
_cell_angle_beta 36.316456
_cell_angle_gamma 90.000000
_cell_volume 2177.869114
_symmetry_space_group_name_H-M "C 2/C"
_symmetry_group_IT_number 15
_symmetry_cell_setting 'monoclinic'
loop_
_space_group_symop_operation_xyz
x,y,z
-x,y,1/2-z
-x,-y,-z
x,-y,1/2+z
1/2+x,1/2+y,z
1/2-x,1/2+y,1/2-z
1/2-x,1/2-y,-z
1/2+x,1/2-y,1/2+z
loop_
_atom_site_type_symbol
_atom_site_label
_atom_site_fract_x
_atom_site_fract_y
_atom_site_fract_z
Si Si1 0.081654 0.063608 0.058124
Si Si2 0.195428 0.944673 0.270019
Si Si3 0.708452 0.399133 0.933080
Si Si4 0.500000 0.030731 0.750000
Si Si5 0.624384 0.286531 0.147591
Si Si6 0.473430 0.922598 0.058408
O O1 0.974825 0.118238 0.045679
O O2 0.297850 0.101898 0.002030
O O3 0.917272 0.039271 0.168279
O O4 0.128193 0.961918 0.013834
O O5 0.332988 0.958728 0.162950
O O6 0.025621 0.865490 0.321580
O O7 0.345701 0.914584 0.266045
O O8 0.820355 0.304452 0.908284
O O9 0.866502 0.465537 0.840664
O O10 0.500000 0.253341 0.250000
O O11 0.839947 0.337232 0.083972
O O12 0.500000 0.000000 0.000000
#
# Coordination Sequence:
#
# PCOD9260178 Si02
#       6
#     8   8   8   4   8   8
#     4  10  21  37  62  88 114 160 202 239 301 362
#     4  10  21  37  60  88 118 159 202 245 297 364
#     4  10  20  37  60  90 113 156 201 248 295 353
#     4  10  18  36  64  82 116 156 200 246 298 354
#     4  10  21  36  60  88 122 156 200 246 303 351
#     4  11  21  38  58  88 122 163 195 248 298 359
#
# _framework density 20.203233999999998
#
# number of rings (size 3 to 8) (size 9 to 14) (size 15 to 20)
#    0.000    1.818    4.545    0.000    0.000    1.455 
#    0.000    0.000    0.000    2.182    4.727    0.000 
#    0.000    0.000    0.000    0.000    0.000    0.000 
#
# Total GULP energy -122785.190380 kJ/mol
# GULP energy per Si atom -5581.145017 kJ/mol
# Density = 2.015725 g / cm^3
# Si number density = 20.203234 Si / 1000 Ang^3
#
#
#
# Elastic Constant Matrix: (Units=GPa)
#
#
# Indices 1 2 3 4 5 6 
#
# 1 93.0478 14.3041 20.6284 -0.0004 -28.3388 0.0004
# 2 14.3041 39.2552 9.6742 -0.0010 1.6042 0.0006
# 3 20.6284 9.6742 77.3956 -0.0035 2.9191 0.0003
# 4 -0.0004 -0.0010 -0.0035 16.6088 0.0005 3.7718
# 5 -28.3388 1.6042 2.9191 0.0005 45.6229 -0.0003
# 6 0.0004 0.0006 0.0003 3.7718 -0.0003 2.9652
#
#
#
# Elastic Compliance Matrix: (Units=1/GPa)
#
#
# Indices 1 2 3 4 5 6 
#
# 1 0.015432 -0.005082 -0.003855 -0.000002 0.010011 0.000003
# 2 -0.005082 0.027981 -0.001992 0.000004 -0.004013 -0.000010
# 3 -0.003855 -0.001992 0.014319 0.000004 -0.003241 -0.000006
# 4 -0.000002 0.000004 0.000004 0.084668 -0.000003 -0.107701
# 5 0.010011 -0.004013 -0.003241 -0.000003 0.028486 0.000007
# 6 0.000003 -0.000010 -0.000006 -0.107701 0.000007 0.474249
#
#
# Mechanical properties :
#
#
# Convention : Reuss Voigt Hill
#
# Bulk Modulus (GPa) = 27.87532 33.21243 30.54387
# Shear Modulus (GPa) = 7.36430 24.04551 15.70491
#
# Velocity S-wave (km/s) = 1.91129 3.45364 2.79112
# Velocity P-wave (km/s) = 4.32413 5.69020 5.05354
#
# Compressibility (1/GPa) = 0.03587403
#
# Stress axis : x y z
#
# Youngs Moduli (GPa) = 64.79958 35.73849 69.83523
#
# Poissons Ratio (x) = 0.18163 0.26925
# Poissons Ratio (y) = 0.32933 0.13908
# Poissons Ratio (z) = 0.24983 0.07118
#
# Static dielectric constant tensor:
#      x y z
#    x 1.777900 0.000000 0.007940 
#    y 0.000000 1.668510 0.000000 
#    z 0.007940 0.000000 1.776340 
# 
# From -- ./inp_files/143013.got.cif
#   From: 2010.05.17/outbox.cif.g08.bks.cpg/sg15_72_cif.got.tgz:143013.got - 2010.06.03 18:47:42.
