data_PCOD9260511
_publ_section_title
;
Structure prediction by ZEFSAII (Michael W. Deem and Ramdas Pophale) SiO2 
 PCOD9260511
Probable space group: C 2/C
;
_chemical_formula_sum "Si O2"
_cell_formula_units_Z 52
_cell_length_a 7.691995
_cell_length_b 17.893006
_cell_length_c 17.691511
_cell_angle_alpha 90.000000
_cell_angle_beta 54.015935
_cell_angle_gamma 90.000000
_cell_volume 1970.301111
_symmetry_space_group_name_H-M "C 2/C"
_symmetry_group_IT_number 15
_symmetry_cell_setting 'monoclinic'
loop_
_space_group_symop_operation_xyz
x,y,z
-x,y,1/2-z
-x,-y,-z
x,-y,1/2+z
1/2+x,1/2+y,z
1/2-x,1/2+y,1/2-z
1/2-x,1/2-y,-z
1/2+x,1/2-y,1/2+z
loop_
_atom_site_type_symbol
_atom_site_label
_atom_site_fract_x
_atom_site_fract_y
_atom_site_fract_z
Si Si1 0.093857 0.169670 0.623139
Si Si2 0.500000 0.464055 0.250000
Si Si3 0.363256 0.536383 0.141024
Si Si4 0.106521 0.788441 0.887523
Si Si5 0.163107 0.531063 0.552512
Si Si6 0.263689 0.261055 0.112169
Si Si7 0.993035 0.381847 0.538056
O O1 0.113816 0.095000 0.666304
O O2 0.187798 0.239840 0.643552
O O3 0.272927 0.155238 0.513156
O O4 0.857783 0.184441 0.651743
O O5 0.361764 0.513166 0.228380
O O6 0.332061 0.625246 0.140349
O O7 0.213109 0.483449 0.127583
O O8 0.605084 0.522496 0.047512
O O9 0.980575 0.748011 0.850596
O O10 0.924764 0.782011 0.000627
O O11 0.009352 0.462950 0.568844
O O12 0.072463 0.604624 0.533639
O O13 0.328934 0.175802 0.115312
#
# Coordination Sequence:
#
# PCOD9260511 Si02
#       7
#     8   4   8   8   8   8   8
#     4  11  23  42  61  90 133 173 209 272 328 398
#     4  12  28  44  62  88 140 182 222 258 336 404
#     4  11  22  42  63  93 132 174 214 272 326 398
#     4  10  21  39  68 100 122 162 221 272 328 391
#     4  10  20  34  71  95 126 159 217 271 339 371
#     4  10  20  36  68  99 127 153 215 274 343 379
#     4  10  18  37  65 103 123 157 212 287 326 395
#
# _framework density 26.391907
#
# number of rings (size 3 to 8) (size 9 to 14) (size 15 to 20)
#    0.000    1.538    3.077    3.692    2.154    0.000 
#    2.769    2.308    0.000    0.000    0.000    0.000 
#    0.000    0.000    0.000    0.000    0.000    0.000 
#
# Total GULP energy -145453.794152 kJ/mol
# GULP energy per Si atom -5594.376698 kJ/mol
# Density = 2.633184 g / cm^3
# Si number density = 26.391907 Si / 1000 Ang^3
#
#
#
# Elastic Constant Matrix: (Units=GPa)
#
#
# Indices 1 2 3 4 5 6 
#
# 1 108.6340 31.0266 37.0529 0.0000 31.3893 0.0000
# 2 31.0266 154.6213 30.6133 0.0000 23.6800 0.0000
# 3 37.0529 30.6133 57.9691 0.0000 14.2481 0.0000
# 4 0.0000 0.0000 0.0000 26.0175 0.0000 11.7505
# 5 31.3893 23.6800 14.2481 0.0000 40.4567 0.0000
# 6 0.0000 0.0000 0.0000 11.7505 0.0000 50.2495
#
#
#
# Elastic Compliance Matrix: (Units=1/GPa)
#
#
# Indices 1 2 3 4 5 6 
#
# 1 0.013987 -0.000183 -0.006791 0.000000 -0.008354 0.000000
# 2 -0.000183 0.007613 -0.003113 0.000000 -0.003218 0.000000
# 3 -0.006791 -0.003113 0.023529 0.000000 -0.001196 0.000000
# 4 0.000000 0.000000 0.000000 0.042974 0.000000 -0.010049
# 5 -0.008354 -0.003218 -0.001196 0.000000 0.033504 0.000000
# 6 0.000000 0.000000 0.000000 -0.010049 0.000000 0.022251
#
#
# Mechanical properties :
#
#
# Convention : Reuss Voigt Hill
#
# Bulk Modulus (GPa) = 40.06895 57.62333 48.84614
# Shear Modulus (GPa) = 29.01076 38.18018 33.59547
#
# Velocity S-wave (km/s) = 3.31906 3.80763 3.57171
# Velocity P-wave (km/s) = 5.46841 6.41964 5.96302
#
# Compressibility (1/GPa) = 0.02495698
#
# Stress axis : x y z
#
# Youngs Moduli (GPa) = 71.49265 131.35050 42.50114
#
# Poissons Ratio (x) = 0.02402 0.28861
# Poissons Ratio (y) = 0.01307 0.13229
# Poissons Ratio (z) = 0.48548 0.40885
#
# Static dielectric constant tensor:
#      x y z
#    x 2.120880 0.000000 0.032230 
#    y 0.000000 2.019420 0.000000 
#    z 0.032230 0.000000 2.203580 
# 
# From -- ./inp_files/190330.got.cif
#   From: 2010.05.17/outbox.cif.g08.bks.cpg/sg15_96_cif.got.tgz:190330.got - 2010.06.03 18:47:42.
