data_PCOD9260193
_publ_section_title
;
Structure prediction by ZEFSAII (Michael W. Deem and Ramdas Pophale) SiO2 
 PCOD9260193
Probable space group: C 2/C
;
_chemical_formula_sum "Si O2"
_cell_formula_units_Z 60
_cell_length_a 16.813360
_cell_length_b 25.948101
_cell_length_c 8.975284
_cell_angle_alpha 90.000000
_cell_angle_beta 140.276945
_cell_angle_gamma 90.000000
_cell_volume 2502.428771
_symmetry_space_group_name_H-M "C 2/C"
_symmetry_group_IT_number 15
_symmetry_cell_setting 'monoclinic'
loop_
_space_group_symop_operation_xyz
x,y,z
-x,y,1/2-z
-x,-y,-z
x,-y,1/2+z
1/2+x,1/2+y,z
1/2-x,1/2+y,1/2-z
1/2-x,1/2-y,-z
1/2+x,1/2-y,1/2+z
loop_
_atom_site_type_symbol
_atom_site_label
_atom_site_fract_x
_atom_site_fract_y
_atom_site_fract_z
Si Si1 0.405328 0.621168 0.342487
Si Si2 0.744696 0.955214 0.016607
Si Si3 0.055448 0.607535 0.035417
Si Si4 0.077597 0.310597 0.003668
Si Si5 0.322709 0.646720 0.775261
Si Si6 0.863284 0.194801 0.518166
Si Si7 0.500000 0.450479 0.250000
Si Si8 0.678075 0.932237 0.416611
O O1 0.532245 0.649162 0.471772
O O2 0.322991 0.662081 0.318326
O O3 0.452642 0.580727 0.535943
O O4 0.316266 0.591418 0.100615
O O5 0.652362 0.920072 0.785573
O O6 0.681735 0.008192 0.970830
O O7 0.792998 0.913116 0.202790
O O8 0.870147 0.974980 0.113254
O O9 0.117396 0.598058 0.966509
O O10 0.924025 0.576585 0.858254
O O11 0.014523 0.667293 0.002654
O O12 0.000000 0.332490 0.750000
O O13 0.215642 0.332207 0.226556
O O14 0.108008 0.251921 0.000125
O O15 0.301313 0.680680 0.588225
O O16 0.000000 0.173170 0.750000
#
# Coordination Sequence:
#
# PCOD9260193 Si02
#       8
#     8   8   8   8   8   8   4   8
#     4  10  18  40  59  92 125 160 207 266 320 388
#     4  11  21  40  63  93 124 170 216 266 324 383
#     4  11  24  45  59  92 133 167 224 271 315 398
#     4  11  22  36  62  99 127 165 218 276 338 379
#     4  10  19  35  63  94 131 153 203 281 326 378
#     4   9  17  35  64  96 126 161 211 274 335 378
#     4  10  18  36  64  88 126 152 206 270 322 374
#     4  11  25  41  67  86 129 186 212 261 330 390
#
# _framework density 23.976707000000001
#
# number of rings (size 3 to 8) (size 9 to 14) (size 15 to 20)
#    0.000    1.600    6.000    0.800    0.000    5.333 
#    2.400    0.667    0.000    0.000    0.000    0.000 
#    0.000    0.000    0.000    0.000    0.000    0.000 
#
# Total GULP energy -167005.273494 kJ/mol
# GULP energy per Si atom -5566.842450 kJ/mol
# Density = 2.392213 g / cm^3
# Si number density = 23.976707 Si / 1000 Ang^3
#
#
#
# Elastic Constant Matrix: (Units=GPa)
#
#
# Indices 1 2 3 4 5 6 
#
# 1 68.8285 19.1943 14.7303 0.0000 18.3734 0.0000
# 2 19.1943 89.3900 26.9086 0.0000 7.9447 0.0000
# 3 14.7303 26.9086 123.5116 0.0000 21.3626 0.0000
# 4 0.0000 0.0000 0.0000 29.7850 0.0000 15.0852
# 5 18.3734 7.9447 21.3626 0.0000 30.2106 0.0000
# 6 0.0000 0.0000 0.0000 15.0852 0.0000 24.6109
#
#
#
# Elastic Compliance Matrix: (Units=1/GPa)
#
#
# Indices 1 2 3 4 5 6 
#
# 1 0.018096 -0.003053 0.000309 0.000000 -0.010421 0.000000
# 2 -0.003053 0.012546 -0.002415 0.000000 0.000265 0.000000
# 3 0.000309 -0.002415 0.009694 0.000000 -0.006408 0.000000
# 4 0.000000 0.000000 0.000000 0.048689 0.000000 -0.029844
# 5 -0.010421 0.000265 -0.006408 0.000000 0.043900 0.000000
# 6 0.000000 0.000000 0.000000 -0.029844 0.000000 0.058925
#
#
# Mechanical properties :
#
#
# Convention : Reuss Voigt Hill
#
# Bulk Modulus (GPa) = 33.31197 44.82182 39.06690
# Shear Modulus (GPa) = 23.56570 31.64778 27.60674
#
# Velocity S-wave (km/s) = 3.13846 3.63704 3.39691
# Velocity P-wave (km/s) = 5.20162 6.03091 5.63155
#
# Compressibility (1/GPa) = 0.03001924
#
# Stress axis : x y z
#
# Youngs Moduli (GPa) = 55.26125 79.70774 103.15702
#
# Poissons Ratio (x) = 0.24331 -0.03191
# Poissons Ratio (y) = 0.16869 0.24913
# Poissons Ratio (z) = -0.01710 0.19250
#
# Static dielectric constant tensor:
#      x y z
#    x 2.027900 0.000000 -0.021800 
#    y 0.000000 1.955410 0.000000 
#    z -0.021800 0.000000 2.026600 
# 
# From -- ./inp_files/114830.got.cif
#   From: 2010.05.17/outbox.cif.g08.bks.cpg/sg15_58_cif.got.tgz:114830.got - 2010.06.03 18:47:42.
