data_PCOD9260784
_publ_section_title
;
Structure prediction by ZEFSAII (Michael W. Deem and Ramdas Pophale) SiO2 
 PCOD9260784
Probable space group: C 2/C
;
_chemical_formula_sum "Si O2"
_cell_formula_units_Z 56
_cell_length_a 11.739966
_cell_length_b 18.313228
_cell_length_c 15.544538
_cell_angle_alpha 90.000000
_cell_angle_beta 128.700806
_cell_angle_gamma 90.000000
_cell_volume 2608.187733
_symmetry_space_group_name_H-M "C 2/C"
_symmetry_group_IT_number 15
_symmetry_cell_setting 'monoclinic'
loop_
_space_group_symop_operation_xyz
x,y,z
-x,y,1/2-z
-x,-y,-z
x,-y,1/2+z
1/2+x,1/2+y,z
1/2-x,1/2+y,1/2-z
1/2-x,1/2-y,-z
1/2+x,1/2-y,1/2+z
loop_
_atom_site_type_symbol
_atom_site_label
_atom_site_fract_x
_atom_site_fract_y
_atom_site_fract_z
Si Si1 0.834722 0.659308 0.157147
Si Si2 0.501313 0.862707 0.373394
Si Si3 0.135544 0.520709 0.222916
Si Si4 0.321668 0.645466 0.085291
Si Si5 0.103041 0.616402 0.488541
Si Si6 0.655791 0.489428 0.324657
Si Si7 0.870349 0.216109 0.289495
O O1 0.833741 0.571288 0.179556
O O2 0.819277 0.664819 0.047389
O O3 0.728942 0.698535 0.174662
O O4 0.000000 0.685506 0.250000
O O5 0.676522 0.852571 0.458439
O O6 0.457859 0.850324 0.453009
O O7 0.405308 0.800093 0.284750
O O8 0.447129 0.942443 0.315790
O O9 0.285554 0.508798 0.242398
O O10 0.032742 0.573421 0.117443
O O11 0.357456 0.562135 0.125309
O O12 0.301719 0.681980 0.170439
O O13 0.468863 0.681471 0.118526
O O14 0.219852 0.558135 0.574643
O O15 0.500000 0.451510 0.250000
#
# Coordination Sequence:
#
# PCOD9260784 Si02
#       7
#     8   8   8   8   8   8   8
#     4  10  20  39  62  87 117 154 197 244 295 350
#     4  11  21  38  63  88 115 158 202 239 291 359
#     4  10  18  38  64  86 110 153 205 245 282 355
#     4  11  19  39  60  81 119 157 192 239 295 350
#     4  10  20  36  62  86 115 152 203 243 291 351
#     4  11  17  33  62  84 111 153 198 240 295 345
#     4  11  23  37  58  88 121 157 193 238 302 354
#
# _framework density 21.470846000000002
#
# number of rings (size 3 to 8) (size 9 to 14) (size 15 to 20)
#    0.000    1.429    5.714    2.143    0.000    0.571 
#    7.714    8.571    0.000    0.000    0.000    0.000 
#    0.000    0.000    0.000    0.000    0.000    0.000 
#
# Total GULP energy -156268.556950 kJ/mol
# GULP energy per Si atom -5581.019891 kJ/mol
# Density = 2.142198 g / cm^3
# Si number density = 21.470846 Si / 1000 Ang^3
#
#
#
# Elastic Constant Matrix: (Units=GPa)
#
#
# Indices 1 2 3 4 5 6 
#
# 1 143.6319 2.7287 19.4407 0.0000 1.9994 0.0000
# 2 2.7287 60.8400 8.5632 0.0000 13.6141 0.0000
# 3 19.4407 8.5632 35.4853 0.0000 2.9407 0.0000
# 4 0.0000 0.0000 0.0000 8.6804 0.0000 9.9427
# 5 1.9994 13.6141 2.9407 0.0000 37.3711 0.0000
# 6 0.0000 0.0000 0.0000 9.9427 0.0000 11.3195
#
#
#
# Elastic Compliance Matrix: (Units=1/GPa)
#
#
# Indices 1 2 3 4 5 6 
#
# 1 0.007525 0.000291 -0.004178 0.000000 -0.000180 0.000000
# 2 0.000291 0.018431 -0.004076 0.000000 -0.006409 0.000000
# 3 -0.004178 -0.004076 0.031517 0.000000 -0.000772 0.000000
# 4 0.000000 0.000000 0.000000-18.882742 0.000000 16.586021
# 5 -0.000180 -0.006409 -0.000772 0.000000 0.029164 0.000000
# 6 0.000000 0.000000 0.000000 16.586021 0.000000-14.480308
#
#
# Mechanical properties :
#
#
# Convention : Reuss Voigt Hill
#
# Bulk Modulus (GPa) = 24.06896 33.49137 28.78016
# Shear Modulus (GPa) = -0.15039 25.42251 12.63606
#
# Velocity S-wave (km/s) = -0.26495 3.44473 2.42858
# Velocity P-wave (km/s) = 3.33778 5.60838 4.61491
#
# Compressibility (1/GPa) = 0.04154729
#
# Stress axis : x y z
#
# Youngs Moduli (GPa) = 132.89613 54.25516 31.72896
#
# Poissons Ratio (x) = -0.01577 0.13255
# Poissons Ratio (y) = -0.03864 0.12933
# Poissons Ratio (z) = 0.55520 0.22114
#
# Static dielectric constant tensor:
#      x y z
#    x 1.874420 0.000000 -0.059720 
#    y 0.000000 1.796350 0.000000 
#    z -0.059720 0.000000 1.806450 
# 
# From -- ./inp_files/199590.got.cif
#   From: 2010.05.17/outbox.cif.g08.bks.cpg/sg15_100_cif.got.tgz:199590.got - 2010.06.03 18:47:42.
