data_PCOD9260836
_publ_section_title
;
Structure prediction by ZEFSAII (Michael W. Deem and Ramdas Pophale) SiO2 
 PCOD9260836
Probable space group: C 2/C
;
_chemical_formula_sum "Si O2"
_cell_formula_units_Z 36
_cell_length_a 14.733521
_cell_length_b 13.696214
_cell_length_c 12.548168
_cell_angle_alpha 90.000000
_cell_angle_beta 138.141007
_cell_angle_gamma 90.000000
_cell_volume 1689.694995
_symmetry_space_group_name_H-M "C 2/C"
_symmetry_group_IT_number 15
_symmetry_cell_setting 'monoclinic'
loop_
_space_group_symop_operation_xyz
x,y,z
-x,y,1/2-z
-x,-y,-z
x,-y,1/2+z
1/2+x,1/2+y,z
1/2-x,1/2+y,1/2-z
1/2-x,1/2-y,-z
1/2+x,1/2-y,1/2+z
loop_
_atom_site_type_symbol
_atom_site_label
_atom_site_fract_x
_atom_site_fract_y
_atom_site_fract_z
Si Si1 0.000000 0.141561 0.250000
Si Si2 0.157082 0.337614 0.877737
Si Si3 0.715467 0.052736 0.979216
Si Si4 0.128235 0.328535 0.612622
Si Si5 0.136560 0.692749 0.724515
O O1 0.125012 0.075680 0.396530
O O2 0.063806 0.215485 0.219348
O O3 0.184740 0.439329 0.960099
O O4 0.178574 0.362201 0.771374
O O5 0.000000 0.308321 0.750000
O O6 0.250000 0.250000 0.000000
O O7 0.642938 0.105161 0.815190
O O8 0.669435 0.105501 0.047790
O O9 0.210854 0.227101 0.668362
O O10 0.964560 0.325280 0.462031
#
# Coordination Sequence:
#
# PCOD9260836 Si02
#       5
#     4   8   8   8   8
#     4  10  18  38  66 104 138 154 208 292 322 380
#     4  12  29  48  63  94 139 180 223 271 323 400
#     4  11  23  41  71 102 132 169 226 277 321 395
#     4  11  22  40  70  97 129 180 210 275 342 377
#     4  11  18  39  68 106 131 159 222 276 329 392
#
# _framework density 21.305620000000001
#
# number of rings (size 3 to 8) (size 9 to 14) (size 15 to 20)
#    0.000    0.889    4.444    4.000    1.556    5.333 
#    0.000    2.222    0.000    0.000    0.000    0.000 
#    0.000    0.000    0.000    0.000    0.000    0.000 
#
# Total GULP energy -100571.511677 kJ/mol
# GULP energy per Si atom -5587.306204 kJ/mol
# Density = 2.125713 g / cm^3
# Si number density = 21.305620 Si / 1000 Ang^3
#
#
#
# Elastic Constant Matrix: (Units=GPa)
#
#
# Indices 1 2 3 4 5 6 
#
# 1 32.3306 16.6721 20.2397 0.0000 9.8027 0.0000
# 2 16.6721 121.7760 59.7489 0.0000 16.3696 0.0000
# 3 20.2397 59.7489 138.5405 0.0000 23.8512 0.0000
# 4 0.0000 0.0000 0.0000 21.3311 0.0000 8.2794
# 5 9.8027 16.3696 23.8512 0.0000 49.1655 0.0000
# 6 0.0000 0.0000 0.0000 8.2794 0.0000 12.7556
#
#
#
# Elastic Compliance Matrix: (Units=1/GPa)
#
#
# Indices 1 2 3 4 5 6 
#
# 1 0.035766 -0.002664 -0.003275 0.000000 -0.004655 0.000000
# 2 -0.002664 0.010704 -0.004043 0.000000 -0.001072 0.000000
# 3 -0.003275 -0.004043 0.009925 0.000000 -0.002816 0.000000
# 4 0.000000 0.000000 0.000000 0.062668 0.000000 -0.040676
# 5 -0.004655 -0.001072 -0.002816 0.000000 0.022990 0.000000
# 6 0.000000 0.000000 0.000000 -0.040676 0.000000 0.104799
#
#
# Mechanical properties :
#
#
# Convention : Reuss Voigt Hill
#
# Bulk Modulus (GPa) = 27.44863 53.99648 40.72256
# Shear Modulus (GPa) = 17.92379 29.71621 23.82000
#
# Velocity S-wave (km/s) = 2.90361 3.73870 3.34730
# Velocity P-wave (km/s) = 4.91452 6.63596 5.83903
#
# Compressibility (1/GPa) = 0.03643169
#
# Stress axis : x y z
#
# Youngs Moduli (GPa) = 27.95972 93.42196 100.75770
#
# Poissons Ratio (x) = 0.24889 0.32995
# Poissons Ratio (y) = 0.07449 0.40734
# Poissons Ratio (z) = 0.09156 0.37768
#
# Static dielectric constant tensor:
#      x y z
#    x 1.831020 0.000000 -0.007910 
#    y 0.000000 1.732890 0.000000 
#    z -0.007910 0.000000 1.800830 
# 
# From -- ./inp_files/96781.got.cif
#   From: 2010.05.17/outbox.cif.g08.bks.cpg/sg15_49_cif.got.tgz:96781.got - 2010.06.03 18:47:42.
