data_PCOD9260338
_publ_section_title
;
Structure prediction by ZEFSAII (Michael W. Deem and Ramdas Pophale) SiO2 
 PCOD9260338
Probable space group: C 2/C
;
_chemical_formula_sum "Si O2"
_cell_formula_units_Z 56
_cell_length_a 13.456561
_cell_length_b 15.249751
_cell_length_c 11.650565
_cell_angle_alpha 90.000000
_cell_angle_beta 75.515380
_cell_angle_gamma 90.000000
_cell_volume 2314.811056
_symmetry_space_group_name_H-M "C 2/C"
_symmetry_group_IT_number 15
_symmetry_cell_setting 'monoclinic'
loop_
_space_group_symop_operation_xyz
x,y,z
-x,y,1/2-z
-x,-y,-z
x,-y,1/2+z
1/2+x,1/2+y,z
1/2-x,1/2+y,1/2-z
1/2-x,1/2-y,-z
1/2+x,1/2-y,1/2+z
loop_
_atom_site_type_symbol
_atom_site_label
_atom_site_fract_x
_atom_site_fract_y
_atom_site_fract_z
Si Si1 0.120472 0.246368 0.287492
Si Si2 0.229568 0.069561 0.973341
Si Si3 0.639606 0.060206 0.787238
Si Si4 0.072362 0.785102 0.542528
Si Si5 0.666957 0.787265 0.645815
Si Si6 0.204171 0.109159 0.570429
Si Si7 0.605011 0.118110 0.385463
O O1 0.085122 0.346724 0.311978
O O2 0.126274 0.234894 0.149661
O O3 0.228375 0.233790 0.315304
O O4 0.038839 0.185901 0.377352
O O5 0.147270 0.143984 0.962843
O O6 0.290614 0.101369 0.070096
O O7 0.171000 0.978128 0.014388
O O8 0.317846 0.049481 0.853915
O O9 0.744822 0.073293 0.828526
O O10 0.574782 0.982414 0.864009
O O11 0.057297 0.698521 0.470384
O O12 0.702494 0.846611 0.529377
O O13 0.629486 0.691380 0.615947
O O14 0.608625 0.841857 0.756903
#
# Coordination Sequence:
#
# PCOD9260338 Si02
#       7
#     8   8   8   8   8   8   8
#     4  10  21  36  52  81 117 155 179 243 285 356
#     4  11  19  35  56  89 108 145 192 248 277 341
#     4  10  20  35  58  82 116 138 199 240 291 327
#     4  11  21  33  56  82 118 147 193 225 301 342
#     4  10  18  37  57  82 112 146 195 234 293 339
#     4   9  20  32  57  83 111 144 185 242 287 331
#     4  11  20  33  60  85 106 149 191 249 281 333
#
# _framework density 24.192039999999999
#
# number of rings (size 3 to 8) (size 9 to 14) (size 15 to 20)
#    0.000    1.714    4.286    2.143    0.000    0.571 
#    0.000    0.714    0.000   15.429    0.000    0.000 
#    0.000    0.000    0.000    0.000    0.000    0.000 
#
# Total GULP energy -156132.790396 kJ/mol
# GULP energy per Si atom -5576.171086 kJ/mol
# Density = 2.413698 g / cm^3
# Si number density = 24.192040 Si / 1000 Ang^3
#
#
#
# Elastic Constant Matrix: (Units=GPa)
#
#
# Indices 1 2 3 4 5 6 
#
# 1 41.4583 20.1617 3.4305 0.0000 3.3861 0.0000
# 2 20.1617 109.0561 32.8290 0.0000 -9.4295 0.0000
# 3 3.4305 32.8290 101.8062 0.0000 9.0105 0.0000
# 4 0.0000 0.0000 0.0000 36.5898 0.0000 4.7568
# 5 3.3861 -9.4295 9.0105 0.0000 18.4999 0.0000
# 6 0.0000 0.0000 0.0000 4.7568 0.0000 4.7200
#
#
#
# Elastic Compliance Matrix: (Units=1/GPa)
#
#
# Indices 1 2 3 4 5 6 
#
# 1 0.027930 -0.006589 0.002021 0.000000 -0.009455 0.000000
# 2 -0.006589 0.012681 -0.004751 0.000000 0.009984 0.000000
# 3 0.002021 -0.004751 0.012053 0.000000 -0.008662 0.000000
# 4 0.000000 0.000000 0.000000 0.031451 0.000000 -0.031695
# 5 -0.009455 0.009984 -0.008662 0.000000 0.065092 0.000000
# 6 0.000000 0.000000 0.000000 -0.031695 0.000000 0.243806
#
#
# Mechanical properties :
#
#
# Convention : Reuss Voigt Hill
#
# Bulk Modulus (GPa) = 29.38999 40.57365 34.98182
# Shear Modulus (GPa) = 11.82048 25.02190 18.42119
#
# Velocity S-wave (km/s) = 2.21285 3.21955 2.76244
# Velocity P-wave (km/s) = 4.32481 5.53431 4.96651
#
# Compressibility (1/GPa) = 0.03402518
#
# Stress axis : x y z
#
# Youngs Moduli (GPa) = 35.80359 78.85720 82.96607
#
# Poissons Ratio (x) = 0.51962 -0.16763
# Poissons Ratio (y) = 0.23592 0.39416
# Poissons Ratio (z) = -0.07234 0.37464
#
# Static dielectric constant tensor:
#      x y z
#    x 1.937590 0.000000 -0.007740 
#    y 0.000000 1.968750 0.000000 
#    z -0.007740 0.000000 1.963140 
# 
# From -- ./inp_files/105637.got.cif
#   From: 2010.05.17/outbox.cif.g08.bks.cpg/sg15_53_cif.got.tgz:105637.got - 2010.06.03 18:47:42.
