data_PCOD9260317
_publ_section_title
;
Structure prediction by ZEFSAII (Michael W. Deem and Ramdas Pophale) SiO2 
 PCOD9260317
Probable space group: C 2/C
;
_chemical_formula_sum "Si O2"
_cell_formula_units_Z 64
_cell_length_a 11.911692
_cell_length_b 23.043416
_cell_length_c 12.125492
_cell_angle_alpha 90.000000
_cell_angle_beta 99.661959
_cell_angle_gamma 90.000000
_cell_volume 3281.067457
_symmetry_space_group_name_H-M "C 2/C"
_symmetry_group_IT_number 15
_symmetry_cell_setting 'monoclinic'
loop_
_space_group_symop_operation_xyz
x,y,z
-x,y,1/2-z
-x,-y,-z
x,-y,1/2+z
1/2+x,1/2+y,z
1/2-x,1/2+y,1/2-z
1/2-x,1/2-y,-z
1/2+x,1/2-y,1/2+z
loop_
_atom_site_type_symbol
_atom_site_label
_atom_site_fract_x
_atom_site_fract_y
_atom_site_fract_z
Si Si1 0.184907 0.176383 0.389913
Si Si2 0.892252 0.843592 0.153888
Si Si3 0.077723 0.349025 0.616425
Si Si4 0.993546 0.236097 0.992841
Si Si5 0.052767 0.942762 0.874631
Si Si6 0.341779 0.874159 0.624058
Si Si7 0.657284 0.550857 0.991011
Si Si8 0.284015 0.740758 0.338300
O O1 0.310734 0.152647 0.441149
O O2 0.105708 0.120233 0.360848
O O3 0.197683 0.212274 0.278593
O O4 0.121156 0.217100 0.465793
O O5 0.840292 0.904878 0.111616
O O6 0.800589 0.795672 0.177703
O O7 0.000000 0.850915 0.250000
O O8 0.948957 0.818790 0.052815
O O9 0.120298 0.371137 0.741867
O O10 0.036709 0.281951 0.607385
O O11 0.957669 0.379212 0.572447
O O12 0.092622 0.257502 0.092001
O O13 0.000000 0.964481 0.750000
O O14 0.146459 0.986678 0.939695
O O15 0.953556 0.940302 0.949799
O O16 0.261260 0.927625 0.583164
O O17 0.275601 0.811952 0.600599
#
# Coordination Sequence:
#
# PCOD9260317 Si02
#       8
#     8   8   8   8   8   8   8   8
#     4  11  22  38  59  88 125 169 204 250 307 378
#     4  12  22  35  55  91 128 155 198 253 312 369
#     4  10  21  31  57  85 119 156 199 245 294 368
#     4  12  20  35  55  89 125 156 200 251 308 364
#     4  11  22  41  64  91 120 160 214 256 316 363
#     4  10  18  37  53  86 115 156 204 242 299 359
#     4  11  23  39  65  88 122 162 204 268 308 364
#     4  11  21  35  62  86 123 166 199 249 310 376
#
# _framework density 19.505848
#
# number of rings (size 3 to 8) (size 9 to 14) (size 15 to 20)
#    0.000    1.000    3.750    6.000    0.000    0.000 
#    0.000    0.625    0.000    0.000    0.000    0.000 
#    0.000    0.000    0.000    0.000    0.000    0.000 
#
# Total GULP energy -178451.971408 kJ/mol
# GULP energy per Si atom -5576.624106 kJ/mol
# Density = 1.946145 g / cm^3
# Si number density = 19.505848 Si / 1000 Ang^3
#
#
#
# Elastic Constant Matrix: (Units=GPa)
#
#
# Indices 1 2 3 4 5 6 
#
# 1 115.5519 25.2269 21.4538 0.0000 3.2889 0.0000
# 2 25.2269 68.3335 43.0938 0.0000 4.6404 0.0000
# 3 21.4538 43.0938 54.6928 0.0000 4.6767 0.0000
# 4 0.0000 0.0000 0.0000 23.0694 0.0000 14.5038
# 5 3.2889 4.6404 4.6767 0.0000 33.1229 0.0000
# 6 0.0000 0.0000 0.0000 14.5038 0.0000 46.7589
#
#
#
# Elastic Compliance Matrix: (Units=1/GPa)
#
#
# Indices 1 2 3 4 5 6 
#
# 1 0.009517 -0.002294 -0.001895 0.000000 -0.000356 0.000000
# 2 -0.002294 0.029664 -0.022408 0.000000 -0.000764 0.000000
# 3 -0.001895 -0.022408 0.036843 0.000000 -0.001875 0.000000
# 4 0.000000 0.000000 0.000000 0.053849 0.000000 -0.016703
# 5 -0.000356 -0.000764 -0.001875 0.000000 0.030598 0.000000
# 6 0.000000 0.000000 0.000000 -0.016703 0.000000 0.026567
#
#
# Mechanical properties :
#
#
# Convention : Reuss Voigt Hill
#
# Bulk Modulus (GPa) = 43.80148 46.45856 45.13002
# Shear Modulus (GPa) = 20.17410 30.51050 25.34230
#
# Velocity S-wave (km/s) = 3.21948 3.95925 3.60837
# Velocity P-wave (km/s) = 6.02697 6.69107 6.36768
#
# Compressibility (1/GPa) = 0.02283028
#
# Stress axis : x y z
#
# Youngs Moduli (GPa) = 105.07573 33.71059 27.14189
#
# Poissons Ratio (x) = 0.07734 0.05144
# Poissons Ratio (y) = 0.24105 0.60820
# Poissons Ratio (z) = 0.19913 0.75539
#
# Static dielectric constant tensor:
#      x y z
#    x 1.743950 0.000000 0.030110 
#    y 0.000000 1.692450 0.000000 
#    z 0.030110 0.000000 1.735930 
# 
# From -- ./inp_files/90845.got.cif
#   From: 2010.05.17/outbox.cif.g08.bks.cpg/sg15_46_cif.got.tgz:90845.got - 2010.06.03 18:47:42.
