data_PCOD9260075
_publ_section_title
;
Structure prediction by ZEFSAII (Michael W. Deem and Ramdas Pophale) SiO2 
 PCOD9260075
Probable space group: C 2/C
;
_chemical_formula_sum "Si O2"
_cell_formula_units_Z 64
_cell_length_a 28.374633
_cell_length_b 15.333566
_cell_length_c 11.966035
_cell_angle_alpha 90.000000
_cell_angle_beta 138.382261
_cell_angle_gamma 90.000000
_cell_volume 3457.760447
_symmetry_space_group_name_H-M "C 2/C"
_symmetry_group_IT_number 15
_symmetry_cell_setting 'monoclinic'
loop_
_space_group_symop_operation_xyz
x,y,z
-x,y,1/2-z
-x,-y,-z
x,-y,1/2+z
1/2+x,1/2+y,z
1/2-x,1/2+y,1/2-z
1/2-x,1/2-y,-z
1/2+x,1/2-y,1/2+z
loop_
_atom_site_type_symbol
_atom_site_label
_atom_site_fract_x
_atom_site_fract_y
_atom_site_fract_z
Si Si1 0.569271 0.950276 0.939173
Si Si2 0.324621 0.156492 0.021086
Si Si3 0.930856 0.803522 0.708229
Si Si4 0.401259 0.678166 0.747004
Si Si5 0.820835 0.210902 0.827600
Si Si6 0.962589 0.002241 0.309087
Si Si7 0.357873 0.892276 0.816612
Si Si8 0.492663 0.186545 0.998719
O O1 0.500000 0.986470 0.750000
O O2 0.611428 0.885784 0.932933
O O3 0.540790 0.890486 0.989200
O O4 0.624087 0.022397 0.081401
O O5 0.252526 0.162348 0.824521
O O6 0.345462 0.255731 0.091540
O O7 0.321331 0.101080 0.130273
O O8 0.859116 0.798091 0.512074
O O9 0.940146 0.728551 0.816295
O O10 0.000000 0.794014 0.750000
O O11 0.932150 0.900618 0.758007
O O12 0.375381 0.674792 0.829790
O O13 0.411266 0.581839 0.718997
O O14 0.475578 0.731623 0.874876
O O15 0.814762 0.314945 0.798641
O O16 0.000000 0.997621 0.250000
O O17 0.000000 0.000000 0.500000
O O18 0.436653 0.852837 0.932783
#
# Coordination Sequence:
#
# PCOD9260075 Si02
#       8
#     8   8   8   8   8   8   8   8
#     4  12  23  36  62  96 124 150 201 259 310 360
#     4  10  23  41  59  83 123 162 199 242 309 380
#     4  11  19  37  60  88 117 157 202 253 305 363
#     4  10  18  36  62  83 116 160 199 252 298 364
#     4  10  21  42  61  82 117 163 210 241 307 377
#     4  11  22  34  60  94 124 151 208 260 309 363
#     4  10  21  36  64  86 117 157 202 253 292 373
#     4  10  20  35  59  91 121 145 198 252 318 356
#
# _framework density 18.509091000000002
#
# number of rings (size 3 to 8) (size 9 to 14) (size 15 to 20)
#    0.000    1.750    6.250    2.625    3.500    0.000 
#    4.500    0.625    0.000    0.000    0.000    0.000 
#    0.000    0.000    0.000    0.000    0.000    0.000 
#
# Total GULP energy -178192.917715 kJ/mol
# GULP energy per Si atom -5568.528679 kJ/mol
# Density = 1.846696 g / cm^3
# Si number density = 18.509091 Si / 1000 Ang^3
#
#
#
# Elastic Constant Matrix: (Units=GPa)
#
#
# Indices 1 2 3 4 5 6 
#
# 1 15.0677 1.8987 8.1627 0.0000 -6.0278 0.0000
# 2 1.8987 43.1371 7.4036 0.0000 -9.3339 0.0000
# 3 8.1627 7.4036 133.0353 0.0000 -5.1895 0.0000
# 4 0.0000 0.0000 0.0000 27.4728 0.0000 -3.9337
# 5 -6.0278 -9.3339 -5.1895 0.0000 16.2133 0.0000
# 6 0.0000 0.0000 0.0000 -3.9337 0.0000 11.3470
#
#
#
# Elastic Compliance Matrix: (Units=1/GPa)
#
#
# Indices 1 2 3 4 5 6 
#
# 1 0.080344 0.003804 -0.003940 0.000000 0.030799 0.000000
# 2 0.003804 0.026765 -0.001080 0.000000 0.016477 0.000000
# 3 -0.003940 -0.001080 0.007835 0.000000 0.000421 0.000000
# 4 0.000000 0.000000 0.000000 0.038301 0.000000 0.013278
# 5 0.030799 0.016477 0.000421 0.000000 0.082749 0.000000
# 6 0.000000 0.000000 0.000000 0.013278 0.000000 0.092732
#
#
# Mechanical properties :
#
#
# Convention : Reuss Voigt Hill
#
# Bulk Modulus (GPa) = 8.88794 25.13000 17.00897
# Shear Modulus (GPa) = 13.56257 22.59165 18.07711
#
# Velocity S-wave (km/s) = 2.70988 3.49746 3.12855
# Velocity P-wave (km/s) = 3.82146 5.46957 4.71804
#
# Compressibility (1/GPa) = 0.11251206
#
# Stress axis : x y z
#
# Youngs Moduli (GPa) = 12.44653 37.36204 127.63104
#
# Poissons Ratio (x) = -0.14213 0.50286
# Poissons Ratio (y) = -0.04735 0.13786
# Poissons Ratio (z) = 0.04904 0.04036
#
# Static dielectric constant tensor:
#      x y z
#    x 1.667730 0.000000 -0.042180 
#    y 0.000000 1.649260 0.000000 
#    z -0.042180 0.000000 1.698880 
# 
# From -- ./inp_files/126891.got.cif
#   From: 2010.05.17/outbox.cif.g08.bks.cpg/sg15_64_cif.got.tgz:126891.got - 2010.06.03 18:47:42.
