data_PCOD9260046
_publ_section_title
;
Structure prediction by ZEFSAII (Michael W. Deem and Ramdas Pophale) SiO2 
 PCOD9260046
Probable space group: C 2/C
;
_chemical_formula_sum "Si O2"
_cell_formula_units_Z 60
_cell_length_a 15.398672
_cell_length_b 13.182321
_cell_length_c 29.736040
_cell_angle_alpha 90.000000
_cell_angle_beta 153.542911
_cell_angle_gamma 90.000000
_cell_volume 2689.259667
_symmetry_space_group_name_H-M "C 2/C"
_symmetry_group_IT_number 15
_symmetry_cell_setting 'monoclinic'
loop_
_space_group_symop_operation_xyz
x,y,z
-x,y,1/2-z
-x,-y,-z
x,-y,1/2+z
1/2+x,1/2+y,z
1/2-x,1/2+y,1/2-z
1/2-x,1/2-y,-z
1/2+x,1/2-y,1/2+z
loop_
_atom_site_type_symbol
_atom_site_label
_atom_site_fract_x
_atom_site_fract_y
_atom_site_fract_z
Si Si1 0.231219 0.888258 0.118452
Si Si2 0.236017 0.817629 0.776563
Si Si3 0.361188 0.715432 0.508379
Si Si4 0.500000 0.699227 0.250000
Si Si5 0.225341 0.979379 0.022943
Si Si6 0.228154 0.057653 0.189775
Si Si7 0.647274 0.718721 0.089113
Si Si8 0.551637 0.187710 0.918602
O O1 0.335173 0.780760 0.160554
O O2 0.297829 0.952372 0.106566
O O3 0.261254 0.952962 0.177862
O O4 0.006424 0.862057 0.004417
O O5 0.419623 0.759038 0.883109
O O6 0.092095 0.856115 0.749741
O O7 0.299422 0.907669 0.771924
O O8 0.111962 0.734187 0.690648
O O9 0.250000 0.750000 0.500000
O O10 0.319826 0.596537 0.495892
O O11 0.275899 0.761445 0.422128
O O12 0.377734 0.926238 0.059995
O O13 0.008390 0.932829 0.914739
O O14 0.287523 0.149153 0.183894
O O15 0.532915 0.792002 0.070554
O O16 0.750000 0.250000 0.000000
#
# Coordination Sequence:
#
# PCOD9260046 Si02
#       8
#     8   8   8   4   8   8   8   8
#     4  11  18  32  61  96 124 153 203 277 336 375
#     4  11  23  37  59  98 137 166 216 279 335 395
#     4  12  26  43  58  88 139 192 221 258 322 406
#     4  12  20  32  60  98 130 156 216 290 336 378
#     4  11  19  37  64  94 129 162 212 269 333 388
#     4  10  19  34  60  93 125 159 205 272 335 387
#     4  10  18  36  61  88 124 158 209 268 318 387
#     4  11  19  36  66 105 127 159 209 278 347 384
#
# _framework density 22.310973000000001
#
# number of rings (size 3 to 8) (size 9 to 14) (size 15 to 20)
#    0.000    1.067    9.333    0.800    0.000    1.067 
#    2.400    2.667    0.000    0.000    6.933    0.000 
#    0.000    0.000    0.000    0.000    0.000    0.000 
#
# Total GULP energy -167144.919061 kJ/mol
# GULP energy per Si atom -5571.497302 kJ/mol
# Density = 2.226019 g / cm^3
# Si number density = 22.310973 Si / 1000 Ang^3
#
#
#
# Elastic Constant Matrix: (Units=GPa)
#
#
# Indices 1 2 3 4 5 6 
#
# 1 163.0562 43.1666 8.4883 0.0002 -22.8442 -0.0005
# 2 43.1666 52.1768 0.3046 0.0003 -10.7866 -0.0003
# 3 8.4883 0.3046 36.8097 0.0040 -4.1805 -0.0016
# 4 0.0002 0.0003 0.0040 20.6685 -0.0005 -13.2013
# 5 -22.8442 -10.7866 -4.1805 -0.0005 30.8303 0.0001
# 6 -0.0005 -0.0003 -0.0016 -13.2013 0.0001 31.1567
#
#
#
# Elastic Compliance Matrix: (Units=1/GPa)
#
#
# Indices 1 2 3 4 5 6 
#
# 1 0.008368 -0.006116 -0.001440 0.000000 0.003866 0.000000
# 2 -0.006116 0.025145 0.001713 -0.000001 0.004498 0.000000
# 3 -0.001440 0.001713 0.027861 -0.000006 0.003310 -0.000001
# 4 0.000000 -0.000001 -0.000006 0.066335 0.000000 0.028106
# 5 0.003866 0.004498 0.003310 0.000000 0.037323 0.000000
# 6 0.000000 0.000000 -0.000001 0.028106 0.000000 0.044005
#
#
# Mechanical properties :
#
#
# Convention : Reuss Voigt Hill
#
# Bulk Modulus (GPa) = 20.12533 39.55131 29.83832
# Shear Modulus (GPa) = 21.07173 29.86999 25.47086
#
# Velocity S-wave (km/s) = 3.07653 3.66293 3.38247
# Velocity P-wave (km/s) = 4.65403 5.97120 5.35328
#
# Compressibility (1/GPa) = 0.04968863
#
# Stress axis : x y z
#
# Youngs Moduli (GPa) = 119.49616 39.76905 35.89301
#
# Poissons Ratio (x) = 0.24322 0.05169
# Poissons Ratio (y) = 0.73081 -0.06149
# Poissons Ratio (z) = 0.17209 -0.06813
#
# Static dielectric constant tensor:
#      x y z
#    x 2.078360 0.000000 0.032910 
#    y 0.000000 1.750180 0.000000 
#    z 0.032910 0.000000 2.031190 
# 
# From -- ./inp_files/314001.got.cif
#   From: 2010.05.17/outbox.cif.g08.bks.cpg/sg15_158_cif.got.tgz:314001.got - 2010.06.03 18:47:42.
