data_PCOD9260776
_publ_section_title
;
Structure prediction by ZEFSAII (Michael W. Deem and Ramdas Pophale) SiO2 
 PCOD9260776
Probable space group: C 2/C
;
_chemical_formula_sum "Si O2"
_cell_formula_units_Z 48
_cell_length_a 14.984244
_cell_length_b 9.836577
_cell_length_c 27.746100
_cell_angle_alpha 90.000000
_cell_angle_beta 149.389839
_cell_angle_gamma 90.000000
_cell_volume 2082.399752
_symmetry_space_group_name_H-M "C 2/C"
_symmetry_group_IT_number 15
_symmetry_cell_setting 'monoclinic'
loop_
_space_group_symop_operation_xyz
x,y,z
-x,y,1/2-z
-x,-y,-z
x,-y,1/2+z
1/2+x,1/2+y,z
1/2-x,1/2+y,1/2-z
1/2-x,1/2-y,-z
1/2+x,1/2-y,1/2+z
loop_
_atom_site_type_symbol
_atom_site_label
_atom_site_fract_x
_atom_site_fract_y
_atom_site_fract_z
Si Si1 0.888556 0.250820 0.851932
Si Si2 0.586933 0.697994 0.148386
Si Si3 0.297634 0.081162 0.654227
Si Si4 0.375192 0.365598 0.647614
Si Si5 0.348343 0.464540 0.001017
Si Si6 0.568383 0.983279 0.451883
O O1 0.791684 0.288887 0.757180
O O2 0.766846 0.144270 0.825076
O O3 0.934009 0.394311 0.897764
O O4 0.070747 0.170280 0.937789
O O5 0.496500 0.663156 0.157821
O O6 0.528198 0.840403 0.099044
O O7 0.499336 0.578673 0.077127
O O8 0.500000 0.041479 0.750000
O O9 0.289716 0.219460 0.618900
O O10 0.199046 0.966762 0.577428
O O11 0.500000 0.403790 0.750000
O O12 0.222315 0.469378 0.562749
O O13 0.174750 0.497590 0.951006
#
# Coordination Sequence:
#
# PCOD9260776 Si02
#       6
#     8   8   8   8   8   8
#     4  12  24  36  59  95 120 146 194 258 298 337
#     4  11  20  39  63  84 111 164 198 230 284 369
#     4  11  20  40  64  82 115 160 205 231 284 364
#     4  10  18  38  64  81 109 156 205 230 277 354
#     4  11  22  41  60  85 120 158 195 239 297 359
#     4  11  22  39  61  88 119 154 194 247 300 345
#
# _framework density 23.050329000000001
#
# number of rings (size 3 to 8) (size 9 to 14) (size 15 to 20)
#    0.000    1.000    6.667    3.000    0.000    0.667 
#    0.000    0.833    0.000    0.000    0.000    0.000 
#    0.000    0.000    0.000    0.000    0.000    0.000 
#
# Total GULP energy -133967.386015 kJ/mol
# GULP energy per Si atom -5581.974417 kJ/mol
# Density = 2.299787 g / cm^3
# Si number density = 23.050329 Si / 1000 Ang^3
#
#
#
# Elastic Constant Matrix: (Units=GPa)
#
#
# Indices 1 2 3 4 5 6 
#
# 1 38.4794 -15.2705 -1.5907 0.0000 0.2888 0.0000
# 2 -15.2705 80.6696 37.9211 0.0000 12.6853 0.0000
# 3 -1.5907 37.9211 146.1917 0.0000 0.2778 0.0000
# 4 0.0000 0.0000 0.0000 16.0410 0.0000 12.5948
# 5 0.2888 12.6853 0.2778 0.0000 22.0128 0.0000
# 6 0.0000 0.0000 0.0000 12.5948 0.0000 10.5356
#
#
#
# Elastic Compliance Matrix: (Units=1/GPa)
#
#
# Indices 1 2 3 4 5 6 
#
# 1 0.028646 0.006767 -0.001435 0.000000 -0.004257 0.000000
# 2 0.006767 0.017320 -0.004400 -0.000001 -0.010014 0.000001
# 3 -0.001435 -0.004400 0.007961 0.000000 0.002454 -0.000001
# 4 0.000000 -0.000001 0.000000 1.015610 0.000001 -1.214110
# 5 -0.004257 -0.010014 0.002454 0.000001 0.051224 -0.000001
# 6 0.000000 0.000001 -0.000001 -1.214110 -0.000001 1.546322
#
#
# Mechanical properties :
#
#
# Convention : Reuss Voigt Hill
#
# Bulk Modulus (GPa) = 17.92429 34.16227 26.04328
# Shear Modulus (GPa) = 1.86302 26.00329 13.93315
#
# Velocity S-wave (km/s) = 0.90000 3.36238 2.46126
# Velocity P-wave (km/s) = 2.97876 5.47056 4.40455
#
# Compressibility (1/GPa) = 0.05579022
#
# Stress axis : x y z
#
# Youngs Moduli (GPa) = 34.90893 57.73553 125.60593
#
# Poissons Ratio (x) = -0.39069 0.18030
# Poissons Ratio (y) = -0.23622 0.55268
# Poissons Ratio (z) = 0.05011 0.25404
#
# Static dielectric constant tensor:
#      x y z
#    x 1.949890 0.000000 0.012770 
#    y 0.000000 1.851580 0.000000 
#    z 0.012770 0.000000 1.891390 
# 
# From -- ./inp_files/315777.got.cif
#   From: 2010.05.17/outbox.cif.g08.bks.cpg/sg15_158_cif.got.tgz:315777.got - 2010.06.03 18:47:42.
