data_PCOD9260642
_publ_section_title
;
Structure prediction by ZEFSAII (Michael W. Deem and Ramdas Pophale) SiO2 
 PCOD9260642
Probable space group: C 2/C
;
_chemical_formula_sum "Si O2"
_cell_formula_units_Z 52
_cell_length_a 21.356948
_cell_length_b 16.977841
_cell_length_c 8.389396
_cell_angle_alpha 90.000000
_cell_angle_beta 120.058139
_cell_angle_gamma 90.000000
_cell_volume 2632.862932
_symmetry_space_group_name_H-M "C 2/C"
_symmetry_group_IT_number 15
_symmetry_cell_setting 'monoclinic'
loop_
_space_group_symop_operation_xyz
x,y,z
-x,y,1/2-z
-x,-y,-z
x,-y,1/2+z
1/2+x,1/2+y,z
1/2-x,1/2+y,1/2-z
1/2-x,1/2-y,-z
1/2+x,1/2-y,1/2+z
loop_
_atom_site_type_symbol
_atom_site_label
_atom_site_fract_x
_atom_site_fract_y
_atom_site_fract_z
Si Si1 0.085742 0.229465 0.843678
Si Si2 0.258774 0.035743 0.880177
Si Si3 0.095868 0.072774 0.654937
Si Si4 0.182208 0.788543 0.775171
Si Si5 0.500000 0.458717 0.750000
Si Si6 0.222740 0.618476 0.924720
Si Si7 0.791550 0.679615 0.142603
O O1 0.103517 0.154181 0.757678
O O2 0.126298 0.301450 0.804900
O O3 0.000000 0.240077 0.750000
O O4 0.120403 0.209971 0.062199
O O5 0.173252 0.031402 0.734225
O O6 0.288155 0.077297 0.760183
O O7 0.269397 0.095853 0.041367
O O8 0.291996 0.951832 0.969462
O O9 0.051413 0.086987 0.436849
O O10 0.049382 0.015062 0.705791
O O11 0.181916 0.701537 0.849081
O O12 0.257462 0.806920 0.773263
O O13 0.194328 0.852460 0.930301
O O14 0.750000 0.750000 0.000000
#
# Coordination Sequence:
#
# PCOD9260642 Si02
#       7
#     8   8   8   8   4   8   8
#     4  11  21  36  61  83 115 158 193 236 299 350
#     4  12  21  35  59  88 114 157 199 245 292 341
#     4  11  21  36  52  80 121 165 193 228 279 351
#     4  10  21  41  59  90 120 153 199 246 291 348
#     4  10  24  34  48  82 130 158 196 232 272 348
#     4  11  23  35  61  90 120 150 197 251 291 346
#     4  10  18  38  60  83 117 149 197 242 286 343
#
# _framework density 19.750361999999999
#
# number of rings (size 3 to 8) (size 9 to 14) (size 15 to 20)
#    0.000    1.231    6.923    1.846    2.154    1.231 
#    0.000    0.000    0.000    0.923    0.000    0.000 
#    0.000    0.000    0.000    0.000    0.000    0.000 
#
# Total GULP energy -144869.250755 kJ/mol
# GULP energy per Si atom -5571.894260 kJ/mol
# Density = 1.970541 g / cm^3
# Si number density = 19.750362 Si / 1000 Ang^3
#
#
#
# Elastic Constant Matrix: (Units=GPa)
#
#
# Indices 1 2 3 4 5 6 
#
# 1 33.8957 -18.3070 -2.0414 0.0000 10.9837 0.0000
# 2 -18.3070 99.7531 37.0923 0.0000 -3.4126 0.0000
# 3 -2.0414 37.0923 142.1995 0.0000 1.5956 0.0000
# 4 0.0000 0.0000 0.0000 39.5155 0.0000 -2.9924
# 5 10.9837 -3.4126 1.5956 0.0000 21.9042 0.0000
# 6 0.0000 0.0000 0.0000 -2.9924 0.0000 17.4324
#
#
#
# Elastic Compliance Matrix: (Units=1/GPa)
#
#
# Indices 1 2 3 4 5 6 
#
# 1 0.039182 0.006946 -0.001042 0.000000 -0.018490 0.000000
# 2 0.006946 0.012416 -0.003124 0.000000 -0.001321 0.000000
# 3 -0.001042 -0.003124 0.007838 0.000000 -0.000535 0.000000
# 4 0.000000 0.000000 0.000000 0.025640 0.000000 0.004401
# 5 -0.018490 -0.001321 -0.000535 0.000000 0.054758 0.000000
# 6 0.000000 0.000000 0.000000 0.004401 0.000000 0.058120
#
#
# Mechanical properties :
#
#
# Convention : Reuss Voigt Hill
#
# Bulk Modulus (GPa) = 15.38552 34.37067 24.87810
# Shear Modulus (GPa) = 23.35789 33.04404 28.20097
#
# Velocity S-wave (km/s) = 3.44271 4.09477 3.78282
# Velocity P-wave (km/s) = 4.85900 6.30845 5.63056
#
# Compressibility (1/GPa) = 0.06499619
#
# Stress axis : x y z
#
# Youngs Moduli (GPa) = 25.52169 80.54172 127.57801
#
# Poissons Ratio (x) = -0.55942 0.13291
# Poissons Ratio (y) = -0.17727 0.39857
# Poissons Ratio (z) = 0.02659 0.25162
#
# Static dielectric constant tensor:
#      x y z
#    x 1.771680 0.000000 -0.068440 
#    y 0.000000 1.720640 0.000000 
#    z -0.068440 0.000000 1.831250 
# 
# From -- ./inp_files/61681.got.cif
#   From: 2010.05.17/outbox.cif.g08.bks.cpg/sg15_31_cif.got.tgz:61681.got - 2010.06.03 18:47:42.
