data_PCOD9260699
_publ_section_title
;
Structure prediction by ZEFSAII (Michael W. Deem and Ramdas Pophale) SiO2 
 PCOD9260699
Probable space group: C 2/C
;
_chemical_formula_sum "Si O2"
_cell_formula_units_Z 52
_cell_length_a 14.644105
_cell_length_b 12.424390
_cell_length_c 15.289279
_cell_angle_alpha 90.000000
_cell_angle_beta 108.293105
_cell_angle_gamma 90.000000
_cell_volume 2641.210882
_symmetry_space_group_name_H-M "C 2/C"
_symmetry_group_IT_number 15
_symmetry_cell_setting 'monoclinic'
loop_
_space_group_symop_operation_xyz
x,y,z
-x,y,1/2-z
-x,-y,-z
x,-y,1/2+z
1/2+x,1/2+y,z
1/2-x,1/2+y,1/2-z
1/2-x,1/2-y,-z
1/2+x,1/2-y,1/2+z
loop_
_atom_site_type_symbol
_atom_site_label
_atom_site_fract_x
_atom_site_fract_y
_atom_site_fract_z
Si Si1 0.000000 0.348503 0.250000
Si Si2 0.739872 0.391966 0.383366
Si Si3 0.809557 0.510668 0.729341
Si Si4 0.093134 0.271658 0.455142
Si Si5 0.449493 0.109942 0.018329
Si Si6 0.603248 0.190665 0.313014
Si Si7 0.772743 0.928096 0.480437
O O1 0.908630 0.420389 0.252467
O O2 0.962860 0.282975 0.154089
O O3 0.747809 0.453655 0.293746
O O4 0.850515 0.366594 0.439121
O O5 0.673441 0.287382 0.359213
O O6 0.708586 0.472586 0.450351
O O7 0.843726 0.386865 0.740255
O O8 0.747791 0.533163 0.623822
O O9 0.143550 0.158413 0.484114
O O10 0.175669 0.363979 0.479261
O O11 0.023075 0.297580 0.513880
O O12 0.422160 0.113777 0.111801
O O13 0.500000 0.000000 0.000000
O O14 0.500000 0.231335 0.250000
#
# Coordination Sequence:
#
# PCOD9260699 Si02
#       7
#     4   8   8   8   8   8   8
#     4  10  18  38  62 102 120 168 222 274 304 402
#     4  12  25  44  66 101 135 172 220 282 335 394
#     4  11  22  40  69  92 129 169 228 268 324 389
#     4  10  21  38  67  95 131 170 214 267 330 383
#     4  12  21  43  72  96 127 172 226 276 324 384
#     4  12  27  43  68  98 134 173 227 278 332 398
#     4  10  23  40  62  98 136 169 214 270 331 399
#
# _framework density 19.687940000000001
#
# number of rings (size 3 to 8) (size 9 to 14) (size 15 to 20)
#    0.000    0.923    5.385    2.308    2.154    2.462 
#    1.385    0.769    0.000    0.000    0.000    0.000 
#    0.000    0.000    0.000    0.000    0.000    0.000 
#
# Total GULP energy -145329.694489 kJ/mol
# GULP energy per Si atom -5589.603634 kJ/mol
# Density = 1.964313 g / cm^3
# Si number density = 19.687940 Si / 1000 Ang^3
#
#
#
# Elastic Constant Matrix: (Units=GPa)
#
#
# Indices 1 2 3 4 5 6 
#
# 1 73.7521 53.5538 38.2794 0.0000 13.7638 0.0000
# 2 53.5538 82.3006 34.5125 0.0000 25.2596 0.0000
# 3 38.2794 34.5125 88.4993 0.0000 8.2659 0.0000
# 4 0.0000 0.0000 0.0000 29.7781 0.0000 5.9809
# 5 13.7638 25.2596 8.2659 0.0000 33.9610 0.0000
# 6 0.0000 0.0000 0.0000 5.9809 0.0000 32.7008
#
#
#
# Elastic Compliance Matrix: (Units=1/GPa)
#
#
# Indices 1 2 3 4 5 6 
#
# 1 0.028295 -0.016630 -0.005974 0.000000 0.002355 0.000000
# 2 -0.016630 0.028220 -0.002539 0.000000 -0.013632 0.000000
# 3 -0.005974 -0.002539 0.014808 0.000000 0.000705 0.000000
# 4 0.000000 0.000000 0.000000 0.034862 0.000000 -0.006376
# 5 0.002355 -0.013632 0.000705 0.000000 0.038459 0.000000
# 6 0.000000 0.000000 0.000000 -0.006376 0.000000 0.031747
#
#
# Mechanical properties :
#
#
# Convention : Reuss Voigt Hill
#
# Bulk Modulus (GPa) = 47.53195 55.24925 51.39060
# Shear Modulus (GPa) = 21.39599 27.16841 24.28220
#
# Velocity S-wave (km/s) = 3.30018 3.71880 3.51572
# Velocity P-wave (km/s) = 6.22227 6.82369 6.52991
#
# Compressibility (1/GPa) = 0.02103848
#
# Stress axis : x y z
#
# Youngs Moduli (GPa) = 35.34148 35.43524 67.53303
#
# Poissons Ratio (x) = 0.58929 0.40341
# Poissons Ratio (y) = 0.58773 0.17146
# Poissons Ratio (z) = 0.21112 0.08997
#
# Static dielectric constant tensor:
#      x y z
#    x 1.710540 0.000000 -0.013360 
#    y 0.000000 1.677440 0.000000 
#    z -0.013360 0.000000 1.731910 
# 
# From -- ./inp_files/152703.got.cif
#   From: 2010.05.17/outbox.cif.g08.bks.cpg/sg15_77_cif.got.tgz:152703.got - 2010.06.03 18:47:42.
