data_PCOD9260223
_publ_section_title
;
Structure prediction by ZEFSAII (Michael W. Deem and Ramdas Pophale) SiO2 
 PCOD9260223
Probable space group: C 2/C
;
_chemical_formula_sum "Si O2"
_cell_formula_units_Z 44
_cell_length_a 7.374286
_cell_length_b 17.376571
_cell_length_c 15.319996
_cell_angle_alpha 90.000000
_cell_angle_beta 100.197773
_cell_angle_gamma 90.000000
_cell_volume 1932.089177
_symmetry_space_group_name_H-M "C 2/C"
_symmetry_group_IT_number 15
_symmetry_cell_setting 'monoclinic'
loop_
_space_group_symop_operation_xyz
x,y,z
-x,y,1/2-z
-x,-y,-z
x,-y,1/2+z
1/2+x,1/2+y,z
1/2-x,1/2+y,1/2-z
1/2-x,1/2-y,-z
1/2+x,1/2-y,1/2+z
loop_
_atom_site_type_symbol
_atom_site_label
_atom_site_fract_x
_atom_site_fract_y
_atom_site_fract_z
Si Si1 0.914468 0.271267 0.389430
Si Si2 0.178477 0.592030 0.865125
Si Si3 0.294964 0.527458 0.509708
Si Si4 0.942703 0.816761 0.061632
Si Si5 0.000000 0.851039 0.750000
Si Si6 0.295543 0.500551 0.712471
O O1 0.979303 0.247825 0.492296
O O2 0.694063 0.285045 0.375613
O O3 0.017297 0.347101 0.365293
O O4 0.973343 0.202547 0.330907
O O5 0.369744 0.641389 0.892986
O O6 0.184246 0.545430 0.775575
O O7 0.170955 0.525381 0.938156
O O8 0.500000 0.500000 0.500000
O O9 0.312741 0.619061 0.502191
O O10 0.257526 0.512784 0.608067
O O11 0.825840 0.909249 0.729526
O O12 0.500000 0.531894 0.750000
#
# Coordination Sequence:
#
# PCOD9260223 Si02
#       6
#     8   8   8   8   4   8
#     4  11  24  36  62  92 130 163 205 264 328 368
#     4  11  22  39  67  90 121 168 220 261 306 383
#     4  10  18  36  65  87 120 166 218 253 311 382
#     4  10  21  40  59  89 124 164 208 257 320 381
#     4  10  20  38  58  90 132 168 204 258 330 376
#     4  10  19  36  66  89 119 174 214 253 317 376
#
# _framework density 22.773275000000002
#
# number of rings (size 3 to 8) (size 9 to 14) (size 15 to 20)
#    0.545    1.091    3.636    3.818    2.545    0.727 
#    0.000    0.000    0.000    4.364    0.000    0.000 
#    0.000    0.000    0.000    0.000    0.000    0.000 
#
# Total GULP energy -122877.959887 kJ/mol
# GULP energy per Si atom -5585.361813 kJ/mol
# Density = 2.272144 g / cm^3
# Si number density = 22.773275 Si / 1000 Ang^3
#
#
#
# Elastic Constant Matrix: (Units=GPa)
#
#
# Indices 1 2 3 4 5 6 
#
# 1 109.7883 35.2798 62.0334 0.0000 -13.6242 0.0000
# 2 35.2798 130.1369 76.2661 0.0000 -25.5005 0.0000
# 3 62.0334 76.2661 177.4034 0.0000 -36.4882 0.0000
# 4 0.0000 0.0000 0.0000 53.7811 0.0000 -10.6341
# 5 -13.6242 -25.5005 -36.4882 0.0000 13.5869 0.0000
# 6 0.0000 0.0000 0.0000 -10.6341 0.0000 21.7530
#
#
#
# Elastic Compliance Matrix: (Units=1/GPa)
#
#
# Indices 1 2 3 4 5 6 
#
# 1 0.011450 -0.001014 -0.003569 0.000000 -0.000007 0.000000
# 2 -0.001014 0.012358 -0.000886 0.000000 0.019796 0.000000
# 3 -0.003569 -0.000886 0.013823 0.000000 0.031879 0.000000
# 4 0.000000 0.000000 0.000000 0.020584 0.000000 0.010062
# 5 -0.000007 0.019796 0.031879 0.000000 0.196360 0.000000
# 6 0.000000 0.000000 0.000000 0.010062 0.000000 0.050890
#
#
# Mechanical properties :
#
#
# Convention : Reuss Voigt Hill
#
# Bulk Modulus (GPa) = 37.46477 84.94303 61.20390
# Shear Modulus (GPa) = 15.37042 34.07418 24.72230
#
# Velocity S-wave (km/s) = 2.60076 3.87232 3.29839
# Velocity P-wave (km/s) = 5.05030 7.57453 6.43735
#
# Compressibility (1/GPa) = 0.02669174
#
# Stress axis : x y z
#
# Youngs Moduli (GPa) = 87.33509 80.92192 72.34332
#
# Poissons Ratio (x) = 0.08202 0.25823
# Poissons Ratio (y) = 0.08852 0.06413
# Poissons Ratio (z) = 0.31174 0.07174
#
# Static dielectric constant tensor:
#      x y z
#    x 1.916630 0.000000 0.004480 
#    y 0.000000 1.862160 0.000000 
#    z 0.004480 0.000000 1.869840 
# 
# From -- ./inp_files/134397.got.cif
#   From: 2010.05.17/outbox.cif.g08.bks.cpg/sg15_68_cif.got.tgz:134397.got - 2010.06.03 18:47:42.
