data_PCOD9260967
_publ_section_title
;
Structure prediction by ZEFSAII (Michael W. Deem and Ramdas Pophale) SiO2 
 PCOD9260967
Probable space group: C 2/C
;
_chemical_formula_sum "Si O2"
_cell_formula_units_Z 52
_cell_length_a 17.331492
_cell_length_b 9.850101
_cell_length_c 25.362409
_cell_angle_alpha 90.000000
_cell_angle_beta 33.621767
_cell_angle_gamma 90.000000
_cell_volume 2397.440780
_symmetry_space_group_name_H-M "C 2/C"
_symmetry_group_IT_number 15
_symmetry_cell_setting 'monoclinic'
loop_
_space_group_symop_operation_xyz
x,y,z
-x,y,1/2-z
-x,-y,-z
x,-y,1/2+z
1/2+x,1/2+y,z
1/2-x,1/2+y,1/2-z
1/2-x,1/2-y,-z
1/2+x,1/2-y,1/2+z
loop_
_atom_site_type_symbol
_atom_site_label
_atom_site_fract_x
_atom_site_fract_y
_atom_site_fract_z
Si Si1 0.500000 0.861457 0.250000
Si Si2 0.315562 0.894547 0.018109
Si Si3 0.061038 0.649673 0.948081
Si Si4 0.578359 0.917625 0.791223
Si Si5 0.265329 0.820662 0.603465
Si Si6 0.510092 0.631947 0.684920
Si Si7 0.776465 0.982817 0.766254
O O1 0.363625 0.771376 0.340096
O O2 0.453097 0.957911 0.228929
O O3 0.359885 0.806557 0.044054
O O4 0.169337 0.844298 0.078829
O O5 0.273376 0.044951 0.062937
O O6 0.451260 0.909153 0.905342
O O7 0.171060 0.607298 0.841204
O O8 0.000000 0.500000 0.000000
O O9 0.924747 0.734778 0.010585
O O10 0.568921 0.775090 0.766874
O O11 0.722294 0.932589 0.741196
O O12 0.242048 0.869370 0.677432
O O13 0.500000 0.571700 0.750000
O O14 0.430025 0.540278 0.688167
#
# Coordination Sequence:
#
# PCOD9260967 Si02
#       7
#     4   8   8   8   8   8   8
#     4  12  28  36  58  92 142 154 192 272 316 346
#     4  10  19  40  69  87 114 164 220 242 289 378
#     4   8  14  32  64  86 107 147 208 253 277 344
#     4  12  25  42  55  94 131 163 191 262 329 347
#     4  10  18  39  63  91 111 167 212 245 293 372
#     4  12  22  39  66  95 121 157 210 257 300 368
#     4  10  20  39  66  89 116 164 215 243 296 374
#
# _framework density 21.689796000000001
#
# number of rings (size 3 to 8) (size 9 to 14) (size 15 to 20)
#    0.000    1.846    8.462    1.385    2.154    0.615 
#    0.000    0.000    0.000    2.769    0.000    0.000 
#    0.000    0.000    0.000    0.000    0.000    0.000 
#
# Total GULP energy -145028.958714 kJ/mol
# GULP energy per Si atom -5578.036874 kJ/mol
# Density = 2.164043 g / cm^3
# Si number density = 21.689796 Si / 1000 Ang^3
#
#
#
# Elastic Constant Matrix: (Units=GPa)
#
#
# Indices 1 2 3 4 5 6 
#
# 1 118.9196 24.3573 10.8472 0.0000 -31.3735 0.0000
# 2 24.3573 35.9041 -10.7076 0.0000 -9.5079 0.0000
# 3 10.8472 -10.7076 44.3653 0.0000 -24.4053 0.0000
# 4 0.0000 0.0000 0.0000 12.8857 0.0000 -1.9770
# 5 -31.3735 -9.5079 -24.4053 0.0000 43.4588 0.0000
# 6 0.0000 0.0000 0.0000 -1.9770 0.0000 18.4253
#
#
#
# Elastic Compliance Matrix: (Units=1/GPa)
#
#
# Indices 1 2 3 4 5 6 
#
# 1 0.011478 -0.006297 -0.000761 0.000000 0.006481 0.000000
# 2 -0.006297 0.042786 0.021003 0.000000 0.016609 0.000000
# 3 -0.000761 0.021003 0.043440 0.000000 0.028441 0.000000
# 4 0.000000 0.000000 0.000000 0.078905 0.000000 0.008466
# 5 0.006481 0.016609 0.028441 0.000000 0.047294 0.000000
# 6 0.000000 0.000000 0.000000 0.008466 0.000000 0.055182
#
#
# Mechanical properties :
#
#
# Convention : Reuss Voigt Hill
#
# Bulk Modulus (GPa) = 7.96218 27.57585 17.76902
# Shear Modulus (GPa) = 17.06129 26.60009 21.83069
#
# Velocity S-wave (km/s) = 2.80769 3.50578 3.17597
# Velocity P-wave (km/s) = 3.76693 5.39710 4.65394
#
# Compressibility (1/GPa) = 0.12559368
#
# Stress axis : x y z
#
# Youngs Moduli (GPa) = 87.12192 23.37203 23.02008
#
# Poissons Ratio (x) = 0.14718 0.01752
# Poissons Ratio (y) = 0.54864 -0.48349
# Poissons Ratio (z) = 0.06630 -0.49088
#
# Static dielectric constant tensor:
#      x y z
#    x 1.883100 0.000000 -0.036260 
#    y 0.000000 1.809730 0.000000 
#    z -0.036260 0.000000 1.824250 
# 
# From -- ./inp_files/273792.got.cif
#   From: 2010.05.17/outbox.cif.g08.bks.cpg/sg15_137_cif.got.tgz:273792.got - 2010.06.03 18:47:42.
