data_PCOD9260467
_publ_section_title
;
Structure prediction by ZEFSAII (Michael W. Deem and Ramdas Pophale) SiO2 
 PCOD9260467
Probable space group: C 2/C
;
_chemical_formula_sum "Si O2"
_cell_formula_units_Z 56
_cell_length_a 12.478964
_cell_length_b 13.425914
_cell_length_c 21.639196
_cell_angle_alpha 90.000000
_cell_angle_beta 120.149159
_cell_angle_gamma 90.000000
_cell_volume 3135.013573
_symmetry_space_group_name_H-M "C 2/C"
_symmetry_group_IT_number 15
_symmetry_cell_setting 'monoclinic'
loop_
_space_group_symop_operation_xyz
x,y,z
-x,y,1/2-z
-x,-y,-z
x,-y,1/2+z
1/2+x,1/2+y,z
1/2-x,1/2+y,1/2-z
1/2-x,1/2-y,-z
1/2+x,1/2-y,1/2+z
loop_
_atom_site_type_symbol
_atom_site_label
_atom_site_fract_x
_atom_site_fract_y
_atom_site_fract_z
Si Si1 0.586742 0.990559 0.222378
Si Si2 0.397562 0.116258 0.575512
Si Si3 0.457086 0.803789 0.494364
Si Si4 0.747536 0.971152 0.058332
Si Si5 0.819914 0.379822 0.855108
Si Si6 0.749619 0.838458 0.348309
Si Si7 0.479164 0.414228 0.045321
O O1 0.500000 0.037702 0.250000
O O2 0.502095 0.936425 0.146897
O O3 0.666609 0.908196 0.281239
O O4 0.662200 0.070802 0.205977
O O5 0.463511 0.188495 0.545739
O O6 0.302896 0.162690 0.596962
O O7 0.325400 0.034422 0.514672
O O8 0.335817 0.872872 0.454155
O O9 0.548570 0.850969 0.573408
O O10 0.429281 0.689298 0.501434
O O11 0.881720 0.947517 0.069245
O O12 0.745145 0.040948 0.118157
O O13 0.750761 0.275548 0.828300
O O14 0.886960 0.884027 0.389356
O O15 0.500000 0.500000 0.000000
#
# Coordination Sequence:
#
# PCOD9260467 Si02
#       7
#     8   8   8   8   8   8   8
#     4  10  20  40  60  81 113 150 201 239 273 347
#     4  10  18  37  63  86 106 151 200 241 275 332
#     4  10  20  35  63  87 115 144 198 239 285 333
#     4  11  19  36  62  90 115 146 191 242 285 338
#     4  10  20  38  62  85 111 148 197 241 282 332
#     4  10  23  38  55  85 119 151 190 232 297 343
#     4  11  23  36  52  88 129 151 176 235 298 348
#
# _framework density 17.862760999999999
#
# number of rings (size 3 to 8) (size 9 to 14) (size 15 to 20)
#    0.000    1.714    4.286    1.286    2.000    1.714 
#    2.571    5.000    0.000    0.000    0.000    0.000 
#    0.000    0.000    0.000    0.000    0.000    0.000 
#
# Total GULP energy -156236.706572 kJ/mol
# GULP energy per Si atom -5579.882378 kJ/mol
# Density = 1.782210 g / cm^3
# Si number density = 17.862761 Si / 1000 Ang^3
#
#
#
# Elastic Constant Matrix: (Units=GPa)
#
#
# Indices 1 2 3 4 5 6 
#
# 1 132.0068 70.2973 36.4968 0.0000 -27.5280 0.0000
# 2 70.2973 123.7996 28.6902 0.0000 -35.8457 0.0000
# 3 36.4968 28.6902 61.9656 0.0000 -32.1556 0.0000
# 4 0.0000 0.0000 0.0000 14.2466 0.0000 -2.7983
# 5 -27.5280 -35.8457 -32.1556 0.0000 22.9646 0.0000
# 6 0.0000 0.0000 0.0000 -2.7983 0.0000 12.1656
#
#
#
# Elastic Compliance Matrix: (Units=1/GPa)
#
#
# Indices 1 2 3 4 5 6 
#
# 1 0.011950 -0.007286 -0.007803 0.000000 -0.007974 0.000000
# 2 -0.007286 0.029099 0.036052 0.000000 0.087168 0.000000
# 3 -0.007803 0.036052 0.103845 0.000000 0.192327 0.000000
# 4 0.000000 0.000000 0.000000 0.073513 0.000000 0.016909
# 5 -0.007974 0.087168 0.192327 0.000000 0.439348 0.000000
# 6 0.000000 0.000000 0.000000 0.016909 0.000000 0.086089
#
#
# Mechanical properties :
#
#
# Convention : Reuss Voigt Hill
#
# Bulk Modulus (GPa) = 5.35273 65.41563 35.38418
# Shear Modulus (GPa) = 6.54288 22.02788 14.28538
#
# Velocity S-wave (km/s) = 1.91594 3.51547 2.83102
# Velocity P-wave (km/s) = 2.81025 7.29238 5.52613
#
# Compressibility (1/GPa) = 0.18682056
#
# Stress axis : x y z
#
# Youngs Moduli (GPa) = 83.68342 34.36540 9.62978
#
# Poissons Ratio (x) = 0.25039 0.07514
# Poissons Ratio (y) = 0.60972 -0.34718
# Poissons Ratio (z) = 0.65296 -1.23895
#
# Static dielectric constant tensor:
#      x y z
#    x 1.634790 0.000000 -0.000860 
#    y 0.000000 1.602310 0.000000 
#    z -0.000860 0.000000 1.587910 
# 
# From -- ./inp_files/237620.got.cif
#   From: 2010.05.17/outbox.cif.g08.bks.cpg/sg15_119_cif.got.tgz:237620.got - 2010.06.03 18:47:42.
