data_PCOD9260015
_publ_section_title
;
Structure prediction by ZEFSAII (Michael W. Deem and Ramdas Pophale) SiO2 
 PCOD9260015
Probable space group: C 2/C
;
_chemical_formula_sum "Si O2"
_cell_formula_units_Z 56
_cell_length_a 27.216203
_cell_length_b 11.280527
_cell_length_c 14.646839
_cell_angle_alpha 90.000000
_cell_angle_beta 37.173216
_cell_angle_gamma 90.000000
_cell_volume 2717.069466
_symmetry_space_group_name_H-M "C 2/C"
_symmetry_group_IT_number 15
_symmetry_cell_setting 'monoclinic'
loop_
_space_group_symop_operation_xyz
x,y,z
-x,y,1/2-z
-x,-y,-z
x,-y,1/2+z
1/2+x,1/2+y,z
1/2-x,1/2+y,1/2-z
1/2-x,1/2-y,-z
1/2+x,1/2-y,1/2+z
loop_
_atom_site_type_symbol
_atom_site_label
_atom_site_fract_x
_atom_site_fract_y
_atom_site_fract_z
Si Si1 0.870226 0.969502 0.600254
Si Si2 0.791768 0.498262 0.401520
Si Si3 0.299204 0.866827 0.712049
Si Si4 0.820191 0.156938 0.816402
Si Si5 0.970852 0.135399 0.695793
Si Si6 0.621353 0.400757 0.601034
Si Si7 0.908470 0.632547 0.869258
O O1 0.853192 0.038850 0.717431
O O2 0.880544 0.065070 0.503288
O O3 0.790680 0.896111 0.690968
O O4 0.950389 0.888801 0.482079
O O5 0.821716 0.538048 0.257375
O O6 0.751116 0.613076 0.511401
O O7 0.714067 0.412887 0.498601
O O8 0.858023 0.441002 0.369119
O O9 0.295534 0.743999 0.772268
O O10 0.359345 0.868565 0.537568
O O11 0.897806 0.205722 0.757122
O O12 0.000000 0.185636 0.750000
O O13 0.931125 0.006940 0.777956
O O14 0.588709 0.270188 0.666091
O O15 0.000000 0.589347 0.750000
#
# Coordination Sequence:
#
# PCOD9260015 Si02
#       7
#     8   8   8   8   8   8   8
#     4  10  18  36  60  91 120 148 199 252 298 357
#     4  10  23  41  59  90 125 158 200 251 304 364
#     4  11  24  40  63  89 119 163 206 245 309 366
#     4  11  20  38  63  87 125 159 196 246 307 362
#     4   9  19  34  59  93 125 148 195 258 305 347
#     4   9  19  37  63  89 119 152 196 254 302 351
#     4  12  23  40  63  84 121 164 207 249 298 360
#
# _framework density 20.610441000000002
#
# number of rings (size 3 to 8) (size 9 to 14) (size 15 to 20)
#    0.000    1.714    2.857    3.429    0.000    0.571 
#    0.000    2.143    0.000    0.000    0.000    0.000 
#    0.000    0.000    0.000    0.000    0.000    0.000 
#
# Total GULP energy -156427.374077 kJ/mol
# GULP energy per Si atom -5586.691931 kJ/mol
# Density = 2.056353 g / cm^3
# Si number density = 20.610441 Si / 1000 Ang^3
#
#
#
# Elastic Constant Matrix: (Units=GPa)
#
#
# Indices 1 2 3 4 5 6 
#
# 1 98.2639 4.0717 -1.1307 0.0000 -10.0685 0.0000
# 2 4.0717 9.1878 -8.5163 0.0000 -2.5178 0.0000
# 3 -1.1307 -8.5163 50.0551 0.0000 3.5552 0.0000
# 4 0.0000 0.0000 0.0000 16.2985 0.0000 -4.8476
# 5 -10.0685 -2.5178 3.5552 0.0000 36.2336 0.0000
# 6 0.0000 0.0000 0.0000 -4.8476 0.0000 -39.4830
#
#
#
# Elastic Compliance Matrix: (Units=1/GPa)
#
#
# Indices 1 2 3 4 5 6 
#
# 1 0.010639 -0.004664 -0.000745 0.000000 0.002705 0.000000
# 2 -0.004664 0.132984 0.022110 0.000000 0.005775 0.000000
# 3 -0.000745 0.022110 0.023794 0.000000 -0.001005 0.000000
# 4 0.000000 0.000000 0.000000 0.059194 0.000000 -0.007268
# 5 0.002705 0.005775 -0.001005 0.000000 0.028850 0.000000
# 6 0.000000 0.000000 0.000000 -0.007268 0.000000 -0.024435
#
#
# Mechanical properties :
#
#
# Convention : Reuss Voigt Hill
#
# Bulk Modulus (GPa) = 4.97962 16.26180 10.62071
# Shear Modulus (GPa) = 18.89896 13.48195 16.19046
#
# Velocity S-wave (km/s) = 3.03142 2.56038 2.80580
# Velocity P-wave (km/s) = 3.83066 4.08018 3.95739
#
# Compressibility (1/GPa) = 0.20081854
#
# Stress axis : x y z
#
# Youngs Moduli (GPa) = 93.99770 7.51968 42.02677
#
# Poissons Ratio (x) = 0.03507 0.03133
# Poissons Ratio (y) = 0.43843 -0.92922
# Poissons Ratio (z) = 0.07006 -0.16626
#
# Static dielectric constant tensor:
#      x y z
#    x 1.745160 0.000000 -0.002470 
#    y 0.000000 1.751690 0.000000 
#    z -0.002470 0.000000 1.732720 
# 
# From -- ./inp_files/177555.got.cif
#   From: 2010.05.17/outbox.cif.g08.bks.cpg/sg15_89_cif.got.tgz:177555.got - 2010.06.03 18:47:42.
