data_PCOD9260076
_publ_section_title
;
Structure prediction by ZEFSAII (Michael W. Deem and Ramdas Pophale) SiO2 
 PCOD9260076
Probable space group: C 2/C
;
_chemical_formula_sum "Si O2"
_cell_formula_units_Z 48
_cell_length_a 10.989954
_cell_length_b 29.743385
_cell_length_c 8.825723
_cell_angle_alpha 90.000000
_cell_angle_beta 125.147515
_cell_angle_gamma 90.000000
_cell_volume 2358.935133
_symmetry_space_group_name_H-M "C 2/C"
_symmetry_group_IT_number 15
_symmetry_cell_setting 'monoclinic'
loop_
_space_group_symop_operation_xyz
x,y,z
-x,y,1/2-z
-x,-y,-z
x,-y,1/2+z
1/2+x,1/2+y,z
1/2-x,1/2+y,1/2-z
1/2-x,1/2-y,-z
1/2+x,1/2-y,1/2+z
loop_
_atom_site_type_symbol
_atom_site_label
_atom_site_fract_x
_atom_site_fract_y
_atom_site_fract_z
Si Si1 0.206064 0.490538 0.662435
Si Si2 0.000000 0.143663 0.750000
Si Si3 0.000000 0.484520 0.750000
Si Si4 0.500000 0.447051 0.750000
Si Si5 0.000000 0.267761 0.250000
Si Si6 0.070692 0.813422 0.602494
Si Si7 0.301136 0.588265 0.839276
Si Si8 0.746862 0.162306 0.001805
O O1 0.095033 0.488656 0.441585
O O2 0.366649 0.475295 0.725710
O O3 0.226297 0.541949 0.733153
O O4 0.128622 0.461900 0.740866
O O5 0.920517 0.174921 0.567041
O O6 0.881286 0.112566 0.755038
O O7 0.427970 0.421356 0.556953
O O8 0.081678 0.236559 0.181930
O O9 0.124462 0.299200 0.413163
O O10 0.187557 0.843781 0.782018
O O11 0.898799 0.823194 0.524382
O O12 0.194188 0.620674 0.860972
#
# Coordination Sequence:
#
# PCOD9260076 Si02
#       8
#     8   4   4   4   4   8   8   8
#     4  11  23  42  63  90 119 171 210 256 303 379
#     4  10  21  34  58  93 121 148 195 266 313 320
#     4  10  24  43  58  87 130 151 213 248 329 354
#     4  12  23  41  68  88 112 173 227 242 296 383
#     4  10  18  36  62  84 113 160 203 228 290 395
#     4   9  17  36  58  82 115 154 194 241 286 363
#     4  11  22  37  59  89 121 150 203 266 299 357
#     4   9  19  36  57  85 114 153 193 239 305 356
#
# _framework density 20.348163
#
# number of rings (size 3 to 8) (size 9 to 14) (size 15 to 20)
#    0.000    2.000    1.667    5.000    2.333    0.667 
#    0.000    7.500    0.000    0.000    0.000    0.000 
#    0.000    0.000    0.000    0.000    0.000    0.000 
#
# Total GULP energy -133635.961506 kJ/mol
# GULP energy per Si atom -5568.165063 kJ/mol
# Density = 2.030185 g / cm^3
# Si number density = 20.348163 Si / 1000 Ang^3
#
#
#
# Elastic Constant Matrix: (Units=GPa)
#
#
# Indices 1 2 3 4 5 6 
#
# 1 105.5656 30.3035 46.6463 0.0000 -10.3859 0.0000
# 2 30.3035 80.0338 39.2691 0.0000 -6.5931 0.0000
# 3 46.6463 39.2691 126.3591 0.0000 -27.0444 0.0000
# 4 0.0000 0.0000 0.0000 11.9115 0.0000 -10.2617
# 5 -10.3859 -6.5931 -27.0444 0.0000 36.3865 0.0000
# 6 0.0000 0.0000 0.0000 -10.2617 0.0000 -7.9855
#
#
#
# Elastic Compliance Matrix: (Units=1/GPa)
#
#
# Indices 1 2 3 4 5 6 
#
# 1 0.011815 -0.002762 -0.003435 0.000000 0.000319 0.000000
# 2 -0.002762 0.015412 -0.003973 0.000000 -0.000949 0.000000
# 3 -0.003435 -0.003973 0.011954 0.000000 0.007185 0.000000
# 4 0.000000 0.000000 0.000000 0.039843 0.000000 -0.051201
# 5 0.000319 -0.000949 0.007185 0.000000 0.032742 0.000000
# 6 0.000000 0.000000 0.000000 -0.051201 0.000000 -0.059432
#
#
# Mechanical properties :
#
#
# Convention : Reuss Voigt Hill
#
# Bulk Modulus (GPa) = 53.07505 60.48847 56.78176
# Shear Modulus (GPa) = 63.32775 21.11181 42.21978
#
# Velocity S-wave (km/s) = 5.58477 3.22456 4.56002
# Velocity P-wave (km/s) = 8.22960 6.60720 7.46262
#
# Compressibility (1/GPa) = 0.01884124
#
# Stress axis : x y z
#
# Youngs Moduli (GPa) = 84.63983 64.88583 83.65063
#
# Poissons Ratio (x) = 0.17920 0.28734
# Poissons Ratio (y) = 0.23376 0.33235
# Poissons Ratio (z) = 0.29073 0.25780
#
# Static dielectric constant tensor:
#      x y z
#    x 1.793070 0.000000 -0.028700 
#    y 0.000000 1.830960 0.000000 
#    z -0.028700 0.000000 1.736540 
# 
# From -- ./inp_files/33863.got.cif
#   From: 2010.05.17/outbox.cif.g08.bks.cpg/sg15_17_cif.got.tgz:33863.got - 2010.06.03 18:47:42.
