data_PCOD9260739
_publ_section_title
;
Structure prediction by ZEFSAII (Michael W. Deem and Ramdas Pophale) SiO2 
 PCOD9260739
Probable space group: C 2/C
;
_chemical_formula_sum "Si O2"
_cell_formula_units_Z 40
_cell_length_a 27.933425
_cell_length_b 6.982154
_cell_length_c 19.451153
_cell_angle_alpha 90.000000
_cell_angle_beta 21.904999
_cell_angle_gamma 90.000000
_cell_volume 1415.297749
_symmetry_space_group_name_H-M "C 2/C"
_symmetry_group_IT_number 15
_symmetry_cell_setting 'monoclinic'
loop_
_space_group_symop_operation_xyz
x,y,z
-x,y,1/2-z
-x,-y,-z
x,-y,1/2+z
1/2+x,1/2+y,z
1/2-x,1/2+y,1/2-z
1/2-x,1/2-y,-z
1/2+x,1/2-y,1/2+z
loop_
_atom_site_type_symbol
_atom_site_label
_atom_site_fract_x
_atom_site_fract_y
_atom_site_fract_z
Si Si1 0.000000 0.485214 0.750000
Si Si2 0.821696 0.997426 0.645280
Si Si3 0.769034 0.989217 0.912367
Si Si4 0.256039 0.056740 0.400902
Si Si5 0.460683 0.108033 0.454138
Si Si6 0.000000 0.000000 0.000000
O O1 0.997539 0.369650 0.824808
O O2 0.132123 0.600732 0.575262
O O3 0.818619 0.004103 0.568003
O O4 0.921025 0.821412 0.535860
O O5 0.891247 0.140181 0.603621
O O6 0.674217 0.999929 0.863418
O O7 0.745875 0.215470 0.927479
O O8 0.886176 0.933327 0.709560
O O9 0.788266 0.967704 0.968021
O O10 0.409908 0.024804 0.186437
#
# Coordination Sequence:
#
# PCOD9260739 Si02
#       6
#     4   8   8   8   8   4
#     4  10  18  38  62  94 124 170 218 266 322 394
#     4  12  23  40  63  99 135 170 220 278 331 396
#     4  10  20  36  62  97 124 169 220 278 322 379
#     4  10  21  38  62  94 126 171 223 274 317 394
#     4  11  23  38  67  94 134 171 223 270 336 391
#     4  12  22  36  60  96 132 164 208 272 338 382
#
# _framework density 28.262605000000001
#
# number of rings (size 3 to 8) (size 9 to 14) (size 15 to 20)
#    0.000    1.200    6.000    0.600    0.000    0.800 
#    0.000    0.000    0.000    7.200    0.000    0.000 
#    0.000    0.000    0.000    0.000    0.000    0.000 
#
# Total GULP energy -111602.858372 kJ/mol
# GULP energy per Si atom -5580.142919 kJ/mol
# Density = 2.819828 g / cm^3
# Si number density = 28.262605 Si / 1000 Ang^3
#
#
#
# Elastic Constant Matrix: (Units=GPa)
#
#
# Indices 1 2 3 4 5 6 
#
# 1 286.3169 20.6802 120.7614 -0.0008 8.9662 0.0010
# 2 20.6802 97.8331 35.1192 -0.0161 -2.3282 0.0059
# 3 120.7614 35.1192 249.0458 -0.0199 4.1244 0.0024
# 4 -0.0008 -0.0161 -0.0199 15.6626 0.0020 4.5950
# 5 8.9662 -2.3282 4.1244 0.0020 73.3717 0.0002
# 6 0.0010 0.0059 0.0024 4.5950 0.0002 16.9799
#
#
#
# Elastic Compliance Matrix: (Units=1/GPa)
#
#
# Indices 1 2 3 4 5 6 
#
# 1 0.004407 -0.000187 -0.002103 -0.000003 -0.000426 0.000001
# 2 -0.000187 0.010788 -0.001438 0.000011 0.000446 -0.000007
# 3 -0.002103 -0.001438 0.005239 0.000006 -0.000083 -0.000002
# 4 -0.000003 0.000011 0.000006 0.069352 -0.000001 -0.018767
# 5 -0.000426 0.000446 -0.000083 -0.000001 0.013700 0.000000
# 6 0.000001 -0.000007 -0.000002 -0.018767 0.000000 0.063972
#
#
# Mechanical properties :
#
#
# Convention : Reuss Voigt Hill
#
# Bulk Modulus (GPa) = 77.05579 109.59085 93.32332
# Shear Modulus (GPa) = 27.89557 51.64519 39.77038
#
# Velocity S-wave (km/s) = 3.14509 4.27937 3.75530
# Velocity P-wave (km/s) = 6.36492 7.95471 7.20380
#
# Compressibility (1/GPa) = 0.01297761
#
# Stress axis : x y z
#
# Youngs Moduli (GPa) = 226.93181 92.69733 190.86056
#
# Poissons Ratio (x) = 0.01729 0.40145
# Poissons Ratio (y) = 0.04234 0.27449
# Poissons Ratio (z) = 0.47732 0.13331
#
# Static dielectric constant tensor:
#      x y z
#    x 3.771010 -0.000070 -0.355870 
#    y -0.000070 2.985590 0.000020 
#    z -0.355870 0.000020 2.201300 
# 
# From -- ./inp_files/94645.got.cif
#   From: 2010.05.17/outbox.cif.g08.bks.cpg/sg15_48_cif.got.tgz:94645.got - 2010.06.03 18:47:42.
