data_PCOD9260707
_publ_section_title
;
Structure prediction by ZEFSAII (Michael W. Deem and Ramdas Pophale) SiO2 
 PCOD9260707
Probable space group: C 2/C
;
_chemical_formula_sum "Si O2"
_cell_formula_units_Z 36
_cell_length_a 7.414751
_cell_length_b 16.889488
_cell_length_c 14.388057
_cell_angle_alpha 90.000000
_cell_angle_beta 53.172268
_cell_angle_gamma 90.000000
_cell_volume 1442.263843
_symmetry_space_group_name_H-M "C 2/C"
_symmetry_group_IT_number 15
_symmetry_cell_setting 'monoclinic'
loop_
_space_group_symop_operation_xyz
x,y,z
-x,y,1/2-z
-x,-y,-z
x,-y,1/2+z
1/2+x,1/2+y,z
1/2-x,1/2+y,1/2-z
1/2-x,1/2-y,-z
1/2+x,1/2-y,1/2+z
loop_
_atom_site_type_symbol
_atom_site_label
_atom_site_fract_x
_atom_site_fract_y
_atom_site_fract_z
Si Si1 0.231799 0.719684 0.356087
Si Si2 0.000000 0.234668 0.750000
Si Si3 0.809790 0.591240 0.671100
Si Si4 0.318311 0.396535 0.083720
Si Si5 0.661013 0.442785 0.611754
O O1 0.500000 0.732343 0.250000
O O2 0.149301 0.801509 0.427153
O O3 0.200179 0.639592 0.422311
O O4 0.085768 0.713453 0.308117
O O5 0.210626 0.174869 0.666580
O O6 0.665165 0.578887 0.812787
O O7 0.780859 0.524134 0.602640
O O8 0.060610 0.587803 0.632813
O O9 0.448378 0.435179 0.956575
O O10 0.500000 0.433186 0.750000
#
# Coordination Sequence:
#
# PCOD9260707 Si02
#       5
#     8   4   8   8   8
#     4  10  20  39  63  88 122 160 201 248 300 359
#     4  10  18  38  62  84 120 158 200 246 298 366
#     4  10  20  39  62  87 114 160 206 244 302 361
#     4  10  20  40  65  80 124 165 196 245 310 358
#     4  11  23  36  60  92 121 156 204 253 299 355
#
# _framework density 24.960758999999999
#
# number of rings (size 3 to 8) (size 9 to 14) (size 15 to 20)
#    0.000    1.778    5.556    1.333    0.000    2.667 
#    0.000    1.111    4.889    0.000    0.000    0.000 
#    0.000    0.000    0.000    0.000    0.000    0.000 
#
# Total GULP energy -100448.734149 kJ/mol
# GULP energy per Si atom -5580.485231 kJ/mol
# Density = 2.490395 g / cm^3
# Si number density = 24.960759 Si / 1000 Ang^3
#
#
#
# Elastic Constant Matrix: (Units=GPa)
#
#
# Indices 1 2 3 4 5 6 
#
# 1 94.1426 -8.1601 13.3828 0.0000 31.7695 0.0000
# 2 -8.1601 96.3322 24.9233 0.0000 34.3771 0.0000
# 3 13.3828 24.9233 113.9596 0.0000 32.8265 0.0000
# 4 0.0000 0.0000 0.0000 27.1607 0.0000 15.3719
# 5 31.7695 34.3771 32.8265 0.0000 51.5851 0.0000
# 6 0.0000 0.0000 0.0000 15.3719 0.0000 27.8085
#
#
#
# Elastic Compliance Matrix: (Units=1/GPa)
#
#
# Indices 1 2 3 4 5 6 
#
# 1 0.015995 0.006350 0.000967 0.000000 -0.014697 0.000000
# 2 0.006350 0.016159 -0.000063 0.000000 -0.014639 0.000000
# 3 0.000967 -0.000063 0.010818 0.000000 -0.007437 0.000000
# 4 0.000000 0.000000 0.000000 0.053581 0.000000 -0.029618
# 5 -0.014697 -0.014639 -0.007437 0.000000 0.042926 0.000000
# 6 0.000000 0.000000 0.000000 -0.029618 0.000000 0.052332
#
#
# Mechanical properties :
#
#
# Convention : Reuss Voigt Hill
#
# Bulk Modulus (GPa) = 17.39772 40.52515 28.96143
# Shear Modulus (GPa) = 25.45010 39.59676 32.52343
#
# Velocity S-wave (km/s) = 3.19659 3.98724 3.61360
# Velocity P-wave (km/s) = 4.53976 6.12113 5.38877
#
# Compressibility (1/GPa) = 0.05747880
#
# Stress axis : x y z
#
# Youngs Moduli (GPa) = 62.51955 61.88484 92.44188
#
# Poissons Ratio (x) = -0.39295 -0.08935
# Poissons Ratio (y) = -0.39698 0.00580
# Poissons Ratio (z) = -0.06043 0.00389
#
# Static dielectric constant tensor:
#      x y z
#    x 2.032010 0.000000 -0.041940 
#    y 0.000000 2.009880 0.000000 
#    z -0.041940 0.000000 2.177000 
# 
# From -- ./inp_files/133715.got.cif
#   From: 2010.05.17/outbox.cif.g08.bks.cpg/sg15_67_cif.got.tgz:133715.got - 2010.06.03 18:47:42.
