data_PCOD9260987
_publ_section_title
;
Structure prediction by ZEFSAII (Michael W. Deem and Ramdas Pophale) SiO2 
 PCOD9260987
Probable space group: C 2/C
;
_chemical_formula_sum "Si O2"
_cell_formula_units_Z 52
_cell_length_a 9.824180
_cell_length_b 12.407689
_cell_length_c 26.122694
_cell_angle_alpha 90.000000
_cell_angle_beta 48.526252
_cell_angle_gamma 90.000000
_cell_volume 2385.817849
_symmetry_space_group_name_H-M "C 2/C"
_symmetry_group_IT_number 15
_symmetry_cell_setting 'monoclinic'
loop_
_space_group_symop_operation_xyz
x,y,z
-x,y,1/2-z
-x,-y,-z
x,-y,1/2+z
1/2+x,1/2+y,z
1/2-x,1/2+y,1/2-z
1/2-x,1/2-y,-z
1/2+x,1/2-y,1/2+z
loop_
_atom_site_type_symbol
_atom_site_label
_atom_site_fract_x
_atom_site_fract_y
_atom_site_fract_z
Si Si1 0.949648 0.705943 0.438715
Si Si2 0.633060 0.590583 0.910370
Si Si3 0.841244 0.476612 0.649259
Si Si4 0.000000 0.169081 0.250000
Si Si5 0.962946 0.638976 0.968243
Si Si6 0.452570 0.619847 0.453060
Si Si7 0.461921 0.120779 0.703321
O O1 0.750000 0.750000 0.500000
O O2 0.068648 0.809115 0.392386
O O3 0.989550 0.608312 0.390154
O O4 0.017485 0.660042 0.476428
O O5 0.579378 0.475414 0.900906
O O6 0.841994 0.608280 0.871677
O O7 0.529646 0.608361 0.989797
O O8 0.662302 0.404385 0.688695
O O9 0.827387 0.552305 0.702592
O O10 0.891734 0.556195 0.590301
O O11 0.071077 0.253491 0.275729
O O12 0.989965 0.754762 0.933363
O O13 0.756901 0.600371 0.009766
O O14 0.500000 0.071879 0.750000
#
# Coordination Sequence:
#
# PCOD9260987 Si02
#       7
#     8   8   8   4   8   8   8
#     4  11  23  38  63 102 135 170 213 272 351 411
#     4  10  18  39  65  89 132 171 208 269 335 398
#     4  12  23  47  70  91 137 173 225 284 330 412
#     4  10  26  50  66  92 134 186 234 282 334 390
#     4  10  21  37  62 102 134 168 213 269 346 406
#     4   9  19  34  65 101 129 166 207 266 343 408
#     4  10  23  47  65  92 123 183 228 270 339 381
#
# _framework density 21.795462000000001
#
# number of rings (size 3 to 8) (size 9 to 14) (size 15 to 20)
#    0.462    1.231    3.077    1.385    4.308    0.000 
#   11.077    0.000    0.000    0.000    0.000    0.000 
#    0.000    0.000    0.000    0.000    0.000    0.000 
#
# Total GULP energy -145006.191293 kJ/mol
# GULP energy per Si atom -5577.161204 kJ/mol
# Density = 2.174586 g / cm^3
# Si number density = 21.795462 Si / 1000 Ang^3
#
#
#
# Elastic Constant Matrix: (Units=GPa)
#
#
# Indices 1 2 3 4 5 6 
#
# 1 46.0982 27.7104 2.8716 0.0000 -5.0377 0.0000
# 2 27.7104 145.7736 45.7319 0.0000 -5.8888 0.0000
# 3 2.8716 45.7319 52.1237 0.0000 -10.5295 0.0000
# 4 0.0000 0.0000 0.0000 31.6985 0.0000 -5.3141
# 5 -5.0377 -5.8888 -10.5295 0.0000 22.1667 0.0000
# 6 0.0000 0.0000 0.0000 -5.3141 0.0000 29.9567
#
#
#
# Elastic Compliance Matrix: (Units=1/GPa)
#
#
# Indices 1 2 3 4 5 6 
#
# 1 0.025942 -0.006402 0.005570 0.000000 0.006841 0.000000
# 2 -0.006402 0.011096 -0.010045 0.000000 -0.003279 0.000000
# 3 0.005570 -0.010045 0.030317 0.000000 0.012998 0.000000
# 4 0.000000 0.000000 0.000000 0.032514 0.000000 0.005768
# 5 0.006841 -0.003279 0.012998 0.000000 0.051971 0.000000
# 6 0.000000 0.000000 0.000000 0.005768 0.000000 0.034405
#
#
# Mechanical properties :
#
#
# Convention : Reuss Voigt Hill
#
# Bulk Modulus (GPa) = 21.92964 44.06927 32.99946
# Shear Modulus (GPa) = 22.40154 27.94314 25.17234
#
# Velocity S-wave (km/s) = 3.20942 3.58447 3.40212
# Velocity P-wave (km/s) = 4.88029 6.11512 5.53226
#
# Compressibility (1/GPa) = 0.04560038
#
# Stress axis : x y z
#
# Youngs Moduli (GPa) = 38.54755 90.12441 32.98479
#
# Poissons Ratio (x) = 0.57702 -0.18372
# Poissons Ratio (y) = 0.24680 0.33132
# Poissons Ratio (z) = -0.21471 0.90527
#
# Static dielectric constant tensor:
#      x y z
#    x 1.821090 0.000000 0.027320 
#    y 0.000000 1.878920 0.000000 
#    z 0.027320 0.000000 1.906710 
# 
# From -- ./inp_files/310749.got.cif
#   From: 2010.05.17/outbox.cif.g08.bks.cpg/sg15_156_cif.got.tgz:310749.got - 2010.06.03 18:47:42.
