data_PCOD9260421
_publ_section_title
;
Structure prediction by ZEFSAII (Michael W. Deem and Ramdas Pophale) SiO2 
 PCOD9260421
Probable space group: C 2/C
;
_chemical_formula_sum "Si O2"
_cell_formula_units_Z 56
_cell_length_a 24.239692
_cell_length_b 16.155387
_cell_length_c 14.534320
_cell_angle_alpha 90.000000
_cell_angle_beta 22.845520
_cell_angle_gamma 90.000000
_cell_volume 2209.775997
_symmetry_space_group_name_H-M "C 2/C"
_symmetry_group_IT_number 15
_symmetry_cell_setting 'monoclinic'
loop_
_space_group_symop_operation_xyz
x,y,z
-x,y,1/2-z
-x,-y,-z
x,-y,1/2+z
1/2+x,1/2+y,z
1/2-x,1/2+y,1/2-z
1/2-x,1/2-y,-z
1/2+x,1/2-y,1/2+z
loop_
_atom_site_type_symbol
_atom_site_label
_atom_site_fract_x
_atom_site_fract_y
_atom_site_fract_z
Si Si1 0.068101 0.835582 0.930295
Si Si2 0.649201 0.079430 0.563929
Si Si3 0.371683 0.490693 0.399924
Si Si4 0.748762 0.102007 0.934544
Si Si5 0.025794 0.836343 0.607125
Si Si6 0.859233 0.696115 0.554074
Si Si7 0.112149 0.572042 0.836883
O O1 0.216136 0.881719 0.693068
O O2 0.055018 0.789327 0.851375
O O3 0.080237 0.782097 0.003155
O O4 0.918927 0.885842 0.153210
O O5 0.500000 0.102599 0.750000
O O6 0.643620 0.098526 0.682460
O O7 0.678088 0.981442 0.504890
O O8 0.500000 0.445074 0.250000
O O9 0.270164 0.424684 0.506637
O O10 0.453281 0.568438 0.221087
O O11 0.264771 0.535630 0.632872
O O12 0.655015 0.174106 0.032406
O O13 0.000000 0.806822 0.750000
O O14 0.191818 0.816009 0.336816
O O15 0.932668 0.632882 0.513251
O O16 0.000000 0.500000 0.000000
#
# Coordination Sequence:
#
# PCOD9260421 Si02
#       7
#     8   8   8   8   8   8   8
#     4  11  23  38  63  97 137 175 216 262 339 413
#     4  11  23  39  64 100 128 173 224 276 332 386
#     4  10  19  40  68  97 119 170 230 261 326 383
#     4  10  23  42  68  91 131 176 221 268 319 401
#     4  10  18  37  61  90 130 170 207 258 322 400
#     4  11  23  37  60  98 136 173 208 271 337 394
#     4  11  22  38  60  95 135 168 219 279 325 383
#
# _framework density 25.341936
#
# number of rings (size 3 to 8) (size 9 to 14) (size 15 to 20)
#    0.000    1.429    5.714    1.286    2.000    6.286 
#    0.000    0.000    0.000   12.857    0.000    0.000 
#    0.000    0.000    0.000    0.000    0.000    0.000 
#
# Total GULP energy -155931.285661 kJ/mol
# GULP energy per Si atom -5568.974488 kJ/mol
# Density = 2.528426 g / cm^3
# Si number density = 25.341936 Si / 1000 Ang^3
#
#
#
# Elastic Constant Matrix: (Units=GPa)
#
#
# Indices 1 2 3 4 5 6 
#
# 1 115.1796 35.2570 29.8679 0.0000 -16.2176 -0.0001
# 2 35.2570 55.5121 19.5462 -0.0003 -1.0262 0.0002
# 3 29.8679 19.5462 98.0316 0.0000 -15.7123 0.0000
# 4 0.0000 -0.0003 0.0000 17.5687 0.0000 3.2717
# 5 -16.2176 -1.0262 -15.7123 0.0000 52.0805 0.0000
# 6 -0.0001 0.0002 0.0000 3.2717 0.0000 32.6416
#
#
#
# Elastic Compliance Matrix: (Units=1/GPa)
#
#
# Indices 1 2 3 4 5 6 
#
# 1 0.011598 -0.006705 -0.001722 0.000000 0.002960 0.000000
# 2 -0.006705 0.023284 -0.003006 0.000000 -0.002536 0.000000
# 3 -0.001722 -0.003006 0.011800 0.000000 0.002964 0.000000
# 4 0.000000 0.000000 0.000000 0.058002 0.000000 -0.005814
# 5 0.002960 -0.002536 0.002964 0.000000 0.020967 0.000000
# 6 0.000000 0.000000 0.000000 -0.005814 0.000000 0.031218
#
#
# Mechanical properties :
#
#
# Convention : Reuss Voigt Hill
#
# Bulk Modulus (GPa) = 41.98998 48.67396 45.33197
# Shear Modulus (GPa) = 26.64181 32.72832 29.68506
#
# Velocity S-wave (km/s) = 3.24588 3.59760 3.42626
# Velocity P-wave (km/s) = 5.53652 6.04198 5.79476
#
# Compressibility (1/GPa) = 0.02381521
#
# Stress axis : x y z
#
# Youngs Moduli (GPa) = 86.22274 42.94770 84.74518
#
# Poissons Ratio (x) = 0.28796 0.14596
# Poissons Ratio (y) = 0.57811 0.25476
# Poissons Ratio (z) = 0.14851 0.12911
#
# Static dielectric constant tensor:
#      x y z
#    x 2.234750 0.000000 0.152690 
#    y 0.000000 2.147410 0.000000 
#    z 0.152690 0.000000 2.090260 
# 
# From -- ./inp_files/222917.got.cif
#   From: 2010.05.17/outbox.cif.g08.bks.cpg/sg15_112_cif.got.tgz:222917.got - 2010.06.03 18:47:42.
