data_PCOD9260513
_publ_section_title
;
Structure prediction by ZEFSAII (Michael W. Deem and Ramdas Pophale) SiO2 
 PCOD9260513
Probable space group: C 2/C
;
_chemical_formula_sum "Si O2"
_cell_formula_units_Z 56
_cell_length_a 8.735719
_cell_length_b 15.142818
_cell_length_c 23.630236
_cell_angle_alpha 90.000000
_cell_angle_beta 106.113297
_cell_angle_gamma 90.000000
_cell_volume 3003.086800
_symmetry_space_group_name_H-M "C 2/C"
_symmetry_group_IT_number 15
_symmetry_cell_setting 'monoclinic'
loop_
_space_group_symop_operation_xyz
x,y,z
-x,y,1/2-z
-x,-y,-z
x,-y,1/2+z
1/2+x,1/2+y,z
1/2-x,1/2+y,1/2-z
1/2-x,1/2-y,-z
1/2+x,1/2-y,1/2+z
loop_
_atom_site_type_symbol
_atom_site_label
_atom_site_fract_x
_atom_site_fract_y
_atom_site_fract_z
Si Si1 0.819590 0.549501 0.721153
Si Si2 0.170240 0.952467 0.026550
Si Si3 0.274045 0.308612 0.371954
Si Si4 0.237718 0.087379 0.118749
Si Si5 0.827569 0.058459 0.207133
Si Si6 0.037085 0.696696 0.190333
Si Si7 0.375554 0.369207 0.593039
O O1 0.826736 0.640305 0.686901
O O2 0.731982 0.483166 0.669257
O O3 0.726903 0.534267 0.770456
O O4 0.000000 0.520247 0.750000
O O5 0.170965 0.876110 0.074014
O O6 0.271980 0.031269 0.065301
O O7 0.211548 0.906495 0.971607
O O8 0.000000 0.000000 0.000000
O O9 0.418084 0.271661 0.349511
O O10 0.184842 0.226048 0.391837
O O11 0.383019 0.148935 0.149533
O O12 0.064787 0.132828 0.099219
O O13 0.689151 0.129567 0.208421
O O14 0.843938 0.063606 0.141489
O O15 0.000000 0.083786 0.250000
O O16 0.000000 0.727231 0.250000
#
# Coordination Sequence:
#
# PCOD9260513 Si02
#       7
#     8   8   8   8   8   8   8
#     4  11  20  37  56  83 119 152 192 233 289 356
#     4   9  20  40  63  82 113 160 202 235 286 346
#     4  10  24  36  59  87 118 154 193 244 289 347
#     4  10  18  37  65  82 114 159 191 232 296 344
#     4  11  19  33  60  85 114 151 193 232 294 352
#     4  11  20  37  58  89 122 150 184 243 301 341
#     4  10  20  37  62  86 114 154 195 245 292 344
#
# _framework density 18.647480000000002
#
# number of rings (size 3 to 8) (size 9 to 14) (size 15 to 20)
#    0.000    1.714    4.286    0.429    0.000    4.000 
#    0.000    5.714    3.143    0.000    0.000    0.000 
#    0.000    0.000    0.000    0.000    0.000    0.000 
#
# Total GULP energy -155952.748372 kJ/mol
# GULP energy per Si atom -5569.741013 kJ/mol
# Density = 1.860504 g / cm^3
# Si number density = 18.647480 Si / 1000 Ang^3
#
#
#
# Elastic Constant Matrix: (Units=GPa)
#
#
# Indices 1 2 3 4 5 6 
#
# 1 74.2149 20.0783 41.7182 0.0000 -7.8569 0.0000
# 2 20.0783 56.4192 51.7003 0.0000 -9.4253 0.0000
# 3 41.7182 51.7003 143.8972 0.0000 -17.7991 0.0000
# 4 0.0000 0.0000 0.0000 30.8685 0.0000 -2.7396
# 5 -7.8569 -9.4253 -17.7991 0.0000 24.1519 0.0000
# 6 0.0000 0.0000 0.0000 -2.7396 0.0000 14.8950
#
#
#
# Elastic Compliance Matrix: (Units=1/GPa)
#
#
# Indices 1 2 3 4 5 6 
#
# 1 0.016341 -0.002060 -0.003784 0.000000 0.001723 0.000000
# 2 -0.002060 0.026979 -0.008667 0.000000 0.003472 0.000000
# 3 -0.003784 -0.008667 0.011652 0.000000 0.003974 0.000000
# 4 0.000000 0.000000 0.000000 0.032933 0.000000 0.006057
# 5 0.001723 0.003472 0.003974 0.000000 0.046248 0.000000
# 6 0.000000 0.000000 0.000000 0.006057 0.000000 0.068251
#
#
# Mechanical properties :
#
#
# Convention : Reuss Voigt Hill
#
# Bulk Modulus (GPa) = 38.53450 55.72500 47.12975
# Shear Modulus (GPa) = 20.82666 24.71872 22.77269
#
# Velocity S-wave (km/s) = 3.34557 3.64480 3.49839
# Velocity P-wave (km/s) = 5.96937 6.90370 6.45347
#
# Compressibility (1/GPa) = 0.02595077
#
# Stress axis : x y z
#
# Youngs Moduli (GPa) = 61.19426 37.06549 85.82252
#
# Poissons Ratio (x) = 0.07634 0.32479
# Poissons Ratio (y) = 0.12604 0.74380
# Poissons Ratio (z) = 0.23159 0.32124
#
# Static dielectric constant tensor:
#      x y z
#    x 1.646140 0.000000 -0.009850 
#    y 0.000000 1.709470 0.000000 
#    z -0.009850 0.000000 1.681410 
# 
# From -- ./inp_files/264218.got.cif
#   From: 2010.05.17/outbox.cif.g08.bks.cpg/sg15_133_cif.got.tgz:264218.got - 2010.06.03 18:47:42.
