data_PCOD9260138
_publ_section_title
;
Structure prediction by ZEFSAII (Michael W. Deem and Ramdas Pophale) SiO2 
 PCOD9260138
Probable space group: C 2/C
;
_chemical_formula_sum "Si O2"
_cell_formula_units_Z 40
_cell_length_a 10.808914
_cell_length_b 13.549996
_cell_length_c 14.524373
_cell_angle_alpha 90.000000
_cell_angle_beta 47.186698
_cell_angle_gamma 90.000000
_cell_volume 1560.491578
_symmetry_space_group_name_H-M "C 2/C"
_symmetry_group_IT_number 15
_symmetry_cell_setting 'monoclinic'
loop_
_space_group_symop_operation_xyz
x,y,z
-x,y,1/2-z
-x,-y,-z
x,-y,1/2+z
1/2+x,1/2+y,z
1/2-x,1/2+y,1/2-z
1/2-x,1/2-y,-z
1/2+x,1/2-y,1/2+z
loop_
_atom_site_type_symbol
_atom_site_label
_atom_site_fract_x
_atom_site_fract_y
_atom_site_fract_z
Si Si1 0.895777 0.884300 0.711362
Si Si2 0.564341 0.619726 0.935440
Si Si3 0.572790 0.790659 0.051851
Si Si4 0.848550 0.824770 0.385286
Si Si5 0.155288 0.550061 0.826728
O O1 0.000000 0.910943 0.750000
O O2 0.924026 0.767162 0.682978
O O3 0.984498 0.917878 0.570889
O O4 0.715007 0.937227 0.807836
O O5 0.445446 0.605775 0.907900
O O6 0.747263 0.581876 0.815454
O O7 0.566788 0.738200 0.955403
O O8 0.532950 0.906107 0.080466
O O9 0.750000 0.750000 0.000000
O O10 0.750000 0.750000 0.500000
O O11 0.736556 0.886821 0.370196
O O12 0.000000 0.775155 0.250000
#
# Coordination Sequence:
#
# PCOD9260138 Si02
#       5
#     8   8   8   8   8
#     4  10  22  40  66 103 140 189 239 300 366 434
#     4   9  21  36  67  98 137 178 237 296 363 425
#     4  10  24  40  67 102 141 185 241 292 373 436
#     4  10  18  36  63 106 136 180 240 304 372 434
#     4  11  21  39  69 100 138 189 239 303 366 436
#
# _framework density 25.632949
#
# number of rings (size 3 to 8) (size 9 to 14) (size 15 to 20)
#    1.200    0.800    2.000    2.400    2.800    0.000 
#    0.000    1.000    0.000    4.800   15.600    0.000 
#    0.000    0.000    0.000    0.000    0.000    0.000 
#
# Total GULP energy -111526.530483 kJ/mol
# GULP energy per Si atom -5576.326524 kJ/mol
# Density = 2.557461 g / cm^3
# Si number density = 25.632949 Si / 1000 Ang^3
#
#
#
# Elastic Constant Matrix: (Units=GPa)
#
#
# Indices 1 2 3 4 5 6 
#
# 1 85.5199 4.4170 24.0730 -0.0001 12.1702 0.0000
# 2 4.4170 97.6490 47.3858 0.0000 -22.7057 0.0000
# 3 24.0730 47.3858 179.3786 -0.0001 9.5186 0.0001
# 4 -0.0001 0.0000 -0.0001 43.4038 0.0001 -13.3326
# 5 12.1702 -22.7057 9.5186 0.0001 46.0847 -0.0001
# 6 0.0000 0.0000 0.0001 -13.3326 -0.0001 21.2508
#
#
#
# Elastic Compliance Matrix: (Units=1/GPa)
#
#
# Indices 1 2 3 4 5 6 
#
# 1 0.012586 -0.000722 -0.001317 0.000000 -0.003408 0.000000
# 2 -0.000722 0.014091 -0.004048 0.000000 0.007970 0.000000
# 3 -0.001317 -0.004048 0.006985 0.000000 -0.003089 0.000000
# 4 0.000000 0.000000 0.000000 0.028540 0.000000 0.017906
# 5 -0.003408 0.007970 -0.003089 0.000000 0.027164 0.000000
# 6 0.000000 0.000000 0.000000 0.017906 0.000000 0.058291
#
#
# Mechanical properties :
#
#
# Convention : Reuss Voigt Hill
#
# Bulk Modulus (GPa) = 46.54189 57.14435 51.84312
# Shear Modulus (GPa) = 29.94105 41.25930 35.60017
#
# Velocity S-wave (km/s) = 3.42141 4.01636 3.73076
# Velocity P-wave (km/s) = 5.81417 6.62193 6.23115
#
# Compressibility (1/GPa) = 0.02148602
#
# Stress axis : x y z
#
# Youngs Moduli (GPa) = 79.45158 70.96689 143.16424
#
# Poissons Ratio (x) = 0.05126 0.18861
# Poissons Ratio (y) = 0.05739 0.57958
# Poissons Ratio (z) = 0.10468 0.28730
#
# Static dielectric constant tensor:
#      x y z
#    x 2.864720 0.000000 -0.740170 
#    y 0.000000 2.192170 0.000000 
#    z -0.740170 0.000000 2.594070 
# 
# From -- ./inp_files/143302.got.cif
#   From: 2010.05.17/outbox.cif.g08.bks.cpg/sg15_72_cif.got.tgz:143302.got - 2010.06.03 18:47:42.
