data_PCOD9260177
_publ_section_title
;
Structure prediction by ZEFSAII (Michael W. Deem and Ramdas Pophale) SiO2 
 PCOD9260177
Probable space group: C 2/C
;
_chemical_formula_sum "Si O2"
_cell_formula_units_Z 44
_cell_length_a 8.112906
_cell_length_b 17.594582
_cell_length_c 19.490973
_cell_angle_alpha 90.000000
_cell_angle_beta 47.041588
_cell_angle_gamma 90.000000
_cell_volume 2036.151675
_symmetry_space_group_name_H-M "C 2/C"
_symmetry_group_IT_number 15
_symmetry_cell_setting 'monoclinic'
loop_
_space_group_symop_operation_xyz
x,y,z
-x,y,1/2-z
-x,-y,-z
x,-y,1/2+z
1/2+x,1/2+y,z
1/2-x,1/2+y,1/2-z
1/2-x,1/2-y,-z
1/2+x,1/2-y,1/2+z
loop_
_atom_site_type_symbol
_atom_site_label
_atom_site_fract_x
_atom_site_fract_y
_atom_site_fract_z
Si Si1 0.223533 0.641728 0.214225
Si Si2 0.343387 0.482873 0.443439
Si Si3 0.622405 0.263532 0.639966
Si Si4 0.500000 0.999463 0.750000
Si Si5 0.233584 0.094202 0.911773
Si Si6 0.356519 0.089664 0.106795
O O1 0.427913 0.698219 0.149440
O O2 0.196640 0.609786 0.299184
O O3 0.000000 0.682641 0.250000
O O4 0.204044 0.560496 0.181611
O O5 0.340908 0.551282 0.499200
O O6 0.549843 0.426646 0.404417
O O7 0.309743 0.526504 0.380095
O O8 0.109856 0.437611 0.522687
O O9 0.500000 0.256183 0.750000
O O10 0.722051 0.182696 0.592756
O O11 0.811438 0.328377 0.586196
O O12 0.470537 0.055217 0.821906
#
# Coordination Sequence:
#
# PCOD9260177 Si02
#       6
#     8   8   8   4   8   8
#     4   9  19  37  64  83 116 161 205 248 300 353
#     4  10  22  38  60  88 120 158 201 238 307 369
#     4  10  21  37  60  87 120 153 204 253 301 348
#     4  10  18  36  64  82 110 162 204 246 290 362
#     4  11  21  38  61  88 118 158 200 249 301 363
#     4  10  20  38  58  86 120 157 195 248 300 366
#
# _framework density 21.609392
#
# number of rings (size 3 to 8) (size 9 to 14) (size 15 to 20)
#    0.545    1.455    2.727    1.091    0.000    1.455 
#    0.000    7.273    0.000    0.000    0.000    0.000 
#    0.000    0.000    0.000    0.000    0.000    0.000 
#
# Total GULP energy -122533.303995 kJ/mol
# GULP energy per Si atom -5569.695636 kJ/mol
# Density = 2.156021 g / cm^3
# Si number density = 21.609392 Si / 1000 Ang^3
#
#
#
# Elastic Constant Matrix: (Units=GPa)
#
#
# Indices 1 2 3 4 5 6 
#
# 1 113.7027 66.3089 23.7517 0.0002 -16.9572 -0.0002
# 2 66.3089 186.9256 33.2588 0.0001 -31.9057 -0.0001
# 3 23.7517 33.2588 65.0386 0.0003 -12.6326 -0.0001
# 4 0.0002 0.0001 0.0003 29.5579 -0.0002 -7.4175
# 5 -16.9572 -31.9057 -12.6326 -0.0002 27.6275 0.0001
# 6 -0.0002 -0.0001 -0.0001 -7.4175 0.0001 14.6416
#
#
#
# Elastic Compliance Matrix: (Units=1/GPa)
#
#
# Indices 1 2 3 4 5 6 
#
# 1 0.011504 -0.003326 -0.002058 0.000000 0.002279 0.000000
# 2 -0.003326 0.007896 -0.001590 0.000000 0.006351 0.000000
# 3 -0.002058 -0.001590 0.017931 0.000000 0.005100 0.000000
# 4 0.000000 0.000000 0.000000 0.038760 0.000000 0.019636
# 5 0.002279 0.006351 0.005100 0.000000 0.047261 0.000000
# 6 0.000000 0.000000 0.000000 0.019636 0.000000 0.078246
#
#
# Mechanical properties :
#
#
# Convention : Reuss Voigt Hill
#
# Bulk Modulus (GPa) = 42.76406 68.03397 55.39902
# Shear Modulus (GPa) = 22.38745 30.52188 26.45466
#
# Velocity S-wave (km/s) = 3.22220 3.76232 3.50268
# Velocity P-wave (km/s) = 5.80310 7.10107 6.48464
#
# Compressibility (1/GPa) = 0.02338412
#
# Stress axis : x y z
#
# Youngs Moduli (GPa) = 86.92514 126.64049 55.77089
#
# Poissons Ratio (x) = 0.42117 0.11477
# Poissons Ratio (y) = 0.28909 0.08867
# Poissons Ratio (z) = 0.17888 0.20134
#
# Static dielectric constant tensor:
#      x y z
#    x 1.950980 0.000000 -0.033530 
#    y 0.000000 1.751630 0.000000 
#    z -0.033530 0.000000 1.868580 
# 
# From -- ./inp_files/264132.got.cif
#   From: 2010.05.17/outbox.cif.g08.bks.cpg/sg15_133_cif.got.tgz:264132.got - 2010.06.03 18:47:42.
