data_PCOD9260352
_publ_section_title
;
Structure prediction by ZEFSAII (Michael W. Deem and Ramdas Pophale) SiO2 
 PCOD9260352
Probable space group: C 2/C
;
_chemical_formula_sum "Si O2"
_cell_formula_units_Z 60
_cell_length_a 25.603483
_cell_length_b 9.441582
_cell_length_c 24.365598
_cell_angle_alpha 90.000000
_cell_angle_beta 34.285465
_cell_angle_gamma 90.000000
_cell_volume 3317.976739
_symmetry_space_group_name_H-M "C 2/C"
_symmetry_group_IT_number 15
_symmetry_cell_setting 'monoclinic'
loop_
_space_group_symop_operation_xyz
x,y,z
-x,y,1/2-z
-x,-y,-z
x,-y,1/2+z
1/2+x,1/2+y,z
1/2-x,1/2+y,1/2-z
1/2-x,1/2-y,-z
1/2+x,1/2-y,1/2+z
loop_
_atom_site_type_symbol
_atom_site_label
_atom_site_fract_x
_atom_site_fract_y
_atom_site_fract_z
Si Si1 0.007680 0.329139 0.979699
Si Si2 0.282554 0.066348 0.325657
Si Si3 0.688472 0.978559 0.933088
Si Si4 0.000000 0.732607 0.250000
Si Si5 0.187574 0.807908 0.380503
Si Si6 0.299880 0.306587 0.403474
Si Si7 0.802954 0.295915 0.173486
Si Si8 0.008774 0.573102 0.359144
O O1 0.091939 0.248697 0.936419
O O2 0.013978 0.320813 0.907648
O O3 0.000000 0.500000 0.000000
O O4 0.911491 0.262005 0.083261
O O5 0.287071 0.182079 0.369935
O O6 0.254874 0.161871 0.297585
O O7 0.387888 0.006555 0.231017
O O8 0.201198 0.951389 0.403115
O O9 0.751460 0.053514 0.923352
O O10 0.698587 0.078145 0.870189
O O11 0.718636 0.823097 0.890530
O O12 0.581760 0.981456 0.046771
O O13 0.092179 0.822818 0.178078
O O14 0.008214 0.641856 0.186124
O O15 0.257484 0.838109 0.269770
O O16 0.250000 0.250000 0.500000
#
# Coordination Sequence:
#
# PCOD9260352 Si02
#       8
#     8   8   8   4   8   8   8   8
#     4  11  20  35  59  82 114 161 197 224 289 362
#     4  10  22  34  56  88 116 144 199 239 288 335
#     4  10  21  36  62  82 114 156 195 229 293 348
#     4  10  20  34  66  86 108 146 202 256 272 326
#     4  12  21  35  56  86 123 154 179 247 288 346
#     4  10  20  40  62  86 108 149 198 248 283 347
#     4  10  20  35  54  82 114 157 192 228 272 353
#     4  10  18  37  58  86 106 156 204 231 280 356
#
# _framework density 18.083309
#
# number of rings (size 3 to 8) (size 9 to 14) (size 15 to 20)
#    0.000    1.600    5.333    1.600    0.000    0.533 
#    0.000    2.000    0.000    0.800    0.000    0.000 
#    0.000    0.000    0.000    0.000    0.000    0.000 
#
# Total GULP energy -167108.972314 kJ/mol
# GULP energy per Si atom -5570.299077 kJ/mol
# Density = 1.804215 g / cm^3
# Si number density = 18.083309 Si / 1000 Ang^3
#
#
#
# Elastic Constant Matrix: (Units=GPa)
#
#
# Indices 1 2 3 4 5 6 
#
# 1 94.0635 16.9416 26.4060 0.0004 -15.3089 0.0000
# 2 16.9416 46.6906 -3.5961 0.0038 -13.6573 -0.0025
# 3 26.4060 -3.5961 73.5126 0.0008 -10.4592 -0.0002
# 4 0.0004 0.0038 0.0008 14.4498 0.0002 -8.1285
# 5 -15.3089 -13.6573 -10.4592 0.0002 30.6157 -0.0005
# 6 0.0000 -0.0025 -0.0002 -8.1285 -0.0005 16.8166
#
#
#
# Elastic Compliance Matrix: (Units=1/GPa)
#
#
# Indices 1 2 3 4 5 6 
#
# 1 0.013161 -0.004190 -0.004480 0.000001 0.003182 0.000000
# 2 -0.004190 0.026572 0.004408 -0.000007 0.011264 0.000001
# 3 -0.004480 0.004408 0.016175 -0.000002 0.005252 0.000000
# 4 0.000001 -0.000007 -0.000002 0.095050 -0.000003 0.045944
# 5 0.003182 0.011264 0.005252 -0.000003 0.041073 0.000001
# 6 0.000000 0.000001 0.000000 0.045944 0.000001 0.081673
#
#
# Mechanical properties :
#
#
# Convention : Reuss Voigt Hill
#
# Bulk Modulus (GPa) = 21.10413 32.64108 26.87260
# Shear Modulus (GPa) = 16.77720 24.01076 20.39398
#
# Velocity S-wave (km/s) = 3.04924 3.64783 3.36189
# Velocity P-wave (km/s) = 4.90846 5.98597 5.47379
#
# Compressibility (1/GPa) = 0.04738410
#
# Stress axis : x y z
#
# Youngs Moduli (GPa) = 75.98113 37.63331 61.82325
#
# Poissons Ratio (x) = 0.15768 0.27696
# Poissons Ratio (y) = 0.31835 -0.27249
# Poissons Ratio (z) = 0.34038 -0.16587
#
# Static dielectric constant tensor:
#      x y z
#    x 1.670810 0.000000 0.000730 
#    y 0.000000 1.634340 0.000000 
#    z 0.000730 0.000000 1.654110 
# 
# From -- ./inp_files/284293.got.cif
#   From: 2010.05.17/outbox.cif.g08.bks.cpg/sg15_143_cif.got.tgz:284293.got - 2010.06.03 18:47:42.
