data_PCOD9260462
_publ_section_title
;
Structure prediction by ZEFSAII (Michael W. Deem and Ramdas Pophale) SiO2 
 PCOD9260462
Probable space group: C 2/C
;
_chemical_formula_sum "Si O2"
_cell_formula_units_Z 36
_cell_length_a 11.363297
_cell_length_b 8.577017
_cell_length_c 17.791093
_cell_angle_alpha 90.000000
_cell_angle_beta 67.563660
_cell_angle_gamma 90.000000
_cell_volume 1602.721869
_symmetry_space_group_name_H-M "C 2/C"
_symmetry_group_IT_number 15
_symmetry_cell_setting 'monoclinic'
loop_
_space_group_symop_operation_xyz
x,y,z
-x,y,1/2-z
-x,-y,-z
x,-y,1/2+z
1/2+x,1/2+y,z
1/2-x,1/2+y,1/2-z
1/2-x,1/2-y,-z
1/2+x,1/2-y,1/2+z
loop_
_atom_site_type_symbol
_atom_site_label
_atom_site_fract_x
_atom_site_fract_y
_atom_site_fract_z
Si Si1 0.721859 0.353125 0.126625
Si Si2 0.475293 0.895202 0.844098
Si Si3 0.116121 0.618576 0.452543
Si Si4 0.999361 0.257148 0.386923
Si Si5 0.500000 0.520879 0.250000
O O1 0.640804 0.218816 0.106081
O O2 0.762505 0.507322 0.070268
O O3 0.853416 0.282848 0.125258
O O4 0.627764 0.418357 0.213990
O O5 0.500000 0.879345 0.750000
O O6 0.591717 0.845985 0.870706
O O7 0.451739 0.078757 0.862828
O O8 0.000000 0.500000 0.500000
O O9 0.088686 0.757184 0.516978
O O10 0.997527 0.125599 0.324942
#
# Coordination Sequence:
#
# PCOD9260462 Si02
#       5
#     8   8   8   8   4
#     4  10  22  37  61  86 119 148 194 247 278 346
#     4  10  18  37  63  85 112 154 190 233 294 340
#     4   8  20  39  58  87 118 147 195 240 281 347
#     4  10  24  40  59  87 118 154 193 238 289 343
#     4  12  24  36  60  90 114 156 198 232 292 344
#
# _framework density 22.461790000000001
#
# number of rings (size 3 to 8) (size 9 to 14) (size 15 to 20)
#    0.000    2.667    2.222    0.000    6.222    8.889 
#    0.000    1.111    0.000    0.000    0.000    1.556 
#    0.000    0.000    0.000    0.000    0.000    0.000 
#
# Total GULP energy -100296.273843 kJ/mol
# GULP energy per Si atom -5572.015214 kJ/mol
# Density = 2.241067 g / cm^3
# Si number density = 22.461790 Si / 1000 Ang^3
#
#
#
# Elastic Constant Matrix: (Units=GPa)
#
#
# Indices 1 2 3 4 5 6 
#
# 1 61.6785 31.5990 -10.3418 0.0000 -10.0004 0.0000
# 2 31.5990 52.2080 2.1976 0.0000 3.4732 0.0000
# 3 -10.3418 2.1976 72.1108 0.0000 9.8297 0.0000
# 4 0.0000 0.0000 0.0000 17.7483 0.0000 -10.8057
# 5 -10.0004 3.4732 9.8297 0.0000 39.2293 0.0000
# 6 0.0000 0.0000 0.0000 -10.8057 0.0000 31.8144
#
#
#
# Elastic Compliance Matrix: (Units=1/GPa)
#
#
# Indices 1 2 3 4 5 6 
#
# 1 0.026512 -0.016678 0.003301 0.000000 0.007408 0.000000
# 2 -0.016678 0.029769 -0.002444 0.000000 -0.006275 0.000000
# 3 0.003301 -0.002444 0.014776 0.000000 -0.002645 0.000000
# 4 0.000000 0.000000 0.000000 0.071032 0.000000 0.024126
# 5 0.007408 -0.006275 -0.002645 0.000000 0.028598 0.000000
# 6 0.000000 0.000000 0.000000 0.024126 0.000000 0.039627
#
#
# Mechanical properties :
#
#
# Convention : Reuss Voigt Hill
#
# Bulk Modulus (GPa) = 25.37147 25.87855 25.62501
# Shear Modulus (GPa) = 19.60054 28.59456 24.09755
#
# Velocity S-wave (km/s) = 2.95721 3.57183 3.27895
# Velocity P-wave (km/s) = 4.79375 5.34385 5.07626
#
# Compressibility (1/GPa) = 0.03941436
#
# Stress axis : x y z
#
# Youngs Moduli (GPa) = 37.71830 33.59185 67.67782
#
# Poissons Ratio (x) = 0.56026 -0.22339
# Poissons Ratio (y) = 0.62908 0.16539
# Poissons Ratio (z) = -0.12450 0.08209
#
# Static dielectric constant tensor:
#      x y z
#    x 1.878380 0.000000 0.036450 
#    y 0.000000 1.854570 0.000000 
#    z 0.036450 0.000000 1.942430 
# 
# From -- ./inp_files/235443.got.cif
#   From: 2010.05.17/outbox.cif.g08.bks.cpg/sg15_118_cif.got.tgz:235443.got - 2010.06.03 18:47:42.
