data_PCOD9260236
_publ_section_title
;
Structure prediction by ZEFSAII (Michael W. Deem and Ramdas Pophale) SiO2 
 PCOD9260236
Probable space group: C 2/C
;
_chemical_formula_sum "Si O2"
_cell_formula_units_Z 44
_cell_length_a 14.875162
_cell_length_b 11.982567
_cell_length_c 25.734960
_cell_angle_alpha 90.000000
_cell_angle_beta 151.327143
_cell_angle_gamma 90.000000
_cell_volume 2200.910945
_symmetry_space_group_name_H-M "C 2/C"
_symmetry_group_IT_number 15
_symmetry_cell_setting 'monoclinic'
loop_
_space_group_symop_operation_xyz
x,y,z
-x,y,1/2-z
-x,-y,-z
x,-y,1/2+z
1/2+x,1/2+y,z
1/2-x,1/2+y,1/2-z
1/2-x,1/2-y,-z
1/2+x,1/2-y,1/2+z
loop_
_atom_site_type_symbol
_atom_site_label
_atom_site_fract_x
_atom_site_fract_y
_atom_site_fract_z
Si Si1 0.664057 0.617336 0.559523
Si Si2 0.000000 0.555602 0.250000
Si Si3 0.952518 0.780423 0.665360
Si Si4 0.444794 0.504437 0.092231
Si Si5 0.840274 0.799982 0.332399
Si Si6 0.603661 0.849979 0.911912
O O1 0.822315 0.528937 0.658744
O O2 0.762787 0.709496 0.572430
O O3 0.525570 0.554619 0.450618
O O4 0.586814 0.675177 0.572049
O O5 0.029019 0.632230 0.315529
O O6 0.000000 0.795883 0.750000
O O7 0.117719 0.707513 0.723580
O O8 0.957936 0.898389 0.640237
O O9 0.585253 0.399641 0.166305
O O10 0.232304 0.457468 0.987392
O O11 0.925899 0.683318 0.356351
O O12 0.750000 0.750000 0.000000
#
# Coordination Sequence:
#
# PCOD9260236 Si02
#       6
#     8   4   8   8   8   8
#     4  10  19  37  59  84 113 150 199 235 284 347
#     4  10  18  36  66  76 114 162 186 234 296 332
#     4  10  21  38  56  82 122 151 191 238 289 348
#     4  10  21  36  59  83 114 157 191 240 292 336
#     4  10  20  37  56  86 112 144 198 242 276 349
#     4   9  21  39  56  87 120 147 195 239 288 348
#
# _framework density 19.991723
#
# number of rings (size 3 to 8) (size 9 to 14) (size 15 to 20)
#    0.000    2.182    2.727    1.091    2.545    0.000 
#    6.545    3.636    0.000    0.000    0.000    0.000 
#    0.000    0.000    0.000    0.000    0.000    0.000 
#
# Total GULP energy -122631.737320 kJ/mol
# GULP energy per Si atom -5574.169878 kJ/mol
# Density = 1.994622 g / cm^3
# Si number density = 19.991723 Si / 1000 Ang^3
#
#
#
# Elastic Constant Matrix: (Units=GPa)
#
#
# Indices 1 2 3 4 5 6 
#
# 1 92.4599 48.7860 16.7697 -0.0001 7.4675 -0.0001
# 2 48.7860 91.7144 21.1975 -0.0002 -2.0563 -0.0001
# 3 16.7697 21.1975 29.0467 -0.0003 -3.2361 -0.0004
# 4 -0.0001 -0.0002 -0.0003 31.7957 -0.0001 -5.9652
# 5 7.4675 -2.0563 -3.2361 -0.0001 19.6518 0.0000
# 6 -0.0001 -0.0001 -0.0004 -5.9652 0.0000 41.4235
#
#
#
# Elastic Compliance Matrix: (Units=1/GPa)
#
#
# Indices 1 2 3 4 5 6 
#
# 1 0.016425 -0.007842 -0.004632 0.000000 -0.007825 0.000000
# 2 -0.007842 0.016861 -0.007384 0.000000 0.003528 0.000000
# 3 -0.004632 -0.007384 0.043396 0.000001 0.008133 0.000000
# 4 0.000000 0.000000 0.000001 0.032324 0.000000 0.004655
# 5 -0.007825 0.003528 0.008133 0.000000 0.055568 0.000000
# 6 0.000000 0.000000 0.000000 0.004655 0.000000 0.024811
#
#
# Mechanical properties :
#
#
# Convention : Reuss Voigt Hill
#
# Bulk Modulus (GPa) = 27.05134 42.96971 35.01053
# Shear Modulus (GPa) = 20.71056 27.00539 23.85797
#
# Velocity S-wave (km/s) = 3.22212 3.67935 3.45830
# Velocity P-wave (km/s) = 5.23482 6.29210 5.78766
#
# Compressibility (1/GPa) = 0.03696674
#
# Stress axis : x y z
#
# Youngs Moduli (GPa) = 60.88122 59.30986 23.04356
#
# Poissons Ratio (x) = 0.46512 0.10673
# Poissons Ratio (y) = 0.47744 0.17015
# Poissons Ratio (z) = 0.28199 0.43793
#
# Static dielectric constant tensor:
#      x y z
#    x 1.736050 0.000000 0.040000 
#    y 0.000000 1.739220 0.000000 
#    z 0.040000 0.000000 1.758490 
# 
# From -- ./inp_files/151725.got.cif
#   From: 2010.05.17/outbox.cif.g08.bks.cpg/sg15_76_cif.got.tgz:151725.got - 2010.06.03 18:47:42.
