data_PCOD9260120
_publ_section_title
;
Structure prediction by ZEFSAII (Michael W. Deem and Ramdas Pophale) SiO2 
 PCOD9260120
Probable space group: C 2/C
;
_chemical_formula_sum "Si O2"
_cell_formula_units_Z 60
_cell_length_a 13.744339
_cell_length_b 8.958383
_cell_length_c 23.710312
_cell_angle_alpha 90.000000
_cell_angle_beta 111.163060
_cell_angle_gamma 90.000000
_cell_volume 2722.488323
_symmetry_space_group_name_H-M "C 2/C"
_symmetry_group_IT_number 15
_symmetry_cell_setting 'monoclinic'
loop_
_space_group_symop_operation_xyz
x,y,z
-x,y,1/2-z
-x,-y,-z
x,-y,1/2+z
1/2+x,1/2+y,z
1/2-x,1/2+y,1/2-z
1/2-x,1/2-y,-z
1/2+x,1/2-y,1/2+z
loop_
_atom_site_type_symbol
_atom_site_label
_atom_site_fract_x
_atom_site_fract_y
_atom_site_fract_z
Si Si1 0.000000 0.952832 0.250000
Si Si2 0.812678 0.832296 0.286349
Si Si3 0.294016 0.556938 0.382610
Si Si4 0.663187 0.460458 0.866148
Si Si5 0.660550 0.746368 0.934264
Si Si6 0.345932 0.156693 0.843162
Si Si7 0.206096 0.764316 0.052840
Si Si8 0.062258 0.618922 0.101521
O O1 0.060029 0.047497 0.308414
O O2 0.091411 0.863973 0.236701
O O3 0.709226 0.798716 0.227508
O O4 0.865110 0.712619 0.339352
O O5 0.781987 0.969492 0.321018
O O6 0.197849 0.649290 0.389512
O O7 0.369190 0.694476 0.383260
O O8 0.325156 0.429755 0.433995
O O9 0.644542 0.574443 0.913354
O O10 0.754923 0.551309 0.852330
O O11 0.698476 0.296553 0.889484
O O12 0.550661 0.811608 0.928939
O O13 0.750000 0.750000 0.000000
O O14 0.441471 0.044377 0.871359
O O15 0.117483 0.644928 0.052260
O O16 0.250000 0.750000 0.000000
#
# Coordination Sequence:
#
# PCOD9260120 Si02
#       8
#     4   8   8   8   8   8   8   8
#     4  10  18  36  62  92 124 166 216 266 342 416
#     4  10  19  37  64  94 126 168 217 269 337 414
#     4  10  22  40  62  94 134 167 223 285 332 399
#     4   9  19  37  63  89 126 172 216 274 335 405
#     4  11  22  42  64  96 133 178 234 284 335 411
#     4   9  19  37  63  91 131 168 210 274 334 407
#     4  10  21  42  64  92 129 173 224 288 337 409
#     4  10  21  40  65  95 125 182 225 266 355 411
#
# _framework density 22.038661999999999
#
# number of rings (size 3 to 8) (size 9 to 14) (size 15 to 20)
#    0.000    2.133    1.333    1.600    0.000    1.067 
#    4.800   11.333    0.000    0.000    0.000    0.000 
#    0.000    0.000    0.000    0.000    0.000    0.000 
#
# Total GULP energy -167120.815055 kJ/mol
# GULP energy per Si atom -5570.693835 kJ/mol
# Density = 2.198850 g / cm^3
# Si number density = 22.038662 Si / 1000 Ang^3
#
#
#
# Elastic Constant Matrix: (Units=GPa)
#
#
# Indices 1 2 3 4 5 6 
#
# 1 66.1520 19.7094 44.9531 0.0000 -5.4715 0.0000
# 2 19.7094 111.6330 38.7754 0.0000 5.1698 0.0000
# 3 44.9531 38.7754 97.7916 0.0000 1.2178 0.0000
# 4 0.0000 0.0000 0.0000 7.8337 0.0000 -8.4934
# 5 -5.4715 5.1698 1.2178 0.0000 36.4995 0.0000
# 6 0.0000 0.0000 0.0000 -8.4934 0.0000 22.5156
#
#
#
# Elastic Compliance Matrix: (Units=1/GPa)
#
#
# Indices 1 2 3 4 5 6 
#
# 1 0.022514 -0.000626 -0.010148 0.000000 0.003802 0.000000
# 2 -0.000626 0.010472 -0.003846 0.000000 -0.001449 0.000000
# 3 -0.010148 -0.003846 0.016435 0.000000 -0.001525 0.000000
# 4 0.000000 0.000000 0.000000 0.215992 0.000000 0.081477
# 5 0.003802 -0.001449 -0.001525 0.000000 0.028224 0.000000
# 6 0.000000 0.000000 0.000000 0.081477 0.000000 0.075148
#
#
# Mechanical properties :
#
#
# Convention : Reuss Voigt Hill
#
# Bulk Modulus (GPa) = 49.55631 53.60583 51.58107
# Shear Modulus (GPa) = 12.35322 24.84567 18.59944
#
# Velocity S-wave (km/s) = 2.37011 3.36127 2.90823
# Velocity P-wave (km/s) = 5.47949 6.28017 5.89344
#
# Compressibility (1/GPa) = 0.02017907
#
# Stress axis : x y z
#
# Youngs Moduli (GPa) = 44.41677 95.49695 60.84584
#
# Poissons Ratio (x) = 0.05978 0.61749
# Poissons Ratio (y) = 0.02781 0.23403
# Poissons Ratio (z) = 0.45076 0.36731
#
# Static dielectric constant tensor:
#      x y z
#    x 1.861380 0.000000 -0.053000 
#    y 0.000000 1.843970 0.000000 
#    z -0.053000 0.000000 1.861930 
# 
# From -- ./inp_files/273222.got.cif
#   From: 2010.05.17/outbox.cif.g08.bks.cpg/sg15_137_cif.got.tgz:273222.got - 2010.06.03 18:47:42.
