data_PCOD9260665
_publ_section_title
;
Structure prediction by ZEFSAII (Michael W. Deem and Ramdas Pophale) SiO2 
 PCOD9260665
Probable space group: C 2/C
;
_chemical_formula_sum "Si O2"
_cell_formula_units_Z 56
_cell_length_a 12.441507
_cell_length_b 31.396537
_cell_length_c 9.764033
_cell_angle_alpha 90.000000
_cell_angle_beta 50.068801
_cell_angle_gamma 90.000000
_cell_volume 2924.657413
_symmetry_space_group_name_H-M "C 2/C"
_symmetry_group_IT_number 15
_symmetry_cell_setting 'monoclinic'
loop_
_space_group_symop_operation_xyz
x,y,z
-x,y,1/2-z
-x,-y,-z
x,-y,1/2+z
1/2+x,1/2+y,z
1/2-x,1/2+y,1/2-z
1/2-x,1/2-y,-z
1/2+x,1/2-y,1/2+z
loop_
_atom_site_type_symbol
_atom_site_label
_atom_site_fract_x
_atom_site_fract_y
_atom_site_fract_z
Si Si1 0.962402 0.817512 0.135362
Si Si2 0.734134 0.365701 0.814642
Si Si3 0.899852 0.758676 0.946043
Si Si4 0.716925 0.119957 0.917749
Si Si5 0.018896 0.663194 0.576178
Si Si6 0.430936 0.443232 0.669678
Si Si7 0.877228 0.961408 0.240915
O O1 0.863109 0.857007 0.256559
O O2 0.000000 0.795999 0.250000
O O3 0.885236 0.787313 0.091821
O O4 0.103781 0.834357 0.949391
O O5 0.835314 0.349701 0.613136
O O6 0.671366 0.410712 0.819940
O O7 0.808681 0.370725 0.901168
O O8 0.977280 0.714665 0.924468
O O9 0.000000 0.779733 0.750000
O O10 0.750000 0.750000 0.000000
O O11 0.600079 0.141080 0.918083
O O12 0.747312 0.069863 0.871758
O O13 0.000000 0.649972 0.750000
O O14 0.500000 0.424576 0.750000
O O15 0.556507 0.453357 0.462099
O O16 0.355869 0.487853 0.768947
O O17 0.000000 0.950717 0.250000
#
# Coordination Sequence:
#
# PCOD9260665 Si02
#       7
#     8   8   8   8   8   8   8
#     4  10  21  37  65  90 114 149 204 249 290 353
#     4  11  22  40  60  89 119 160 200 245 298 357
#     4  11  23  42  61  85 120 158 195 248 306 353
#     4  11  21  40  61  87 123 158 192 246 303 354
#     4  11  26  41  58  85 122 159 198 242 301 364
#     4  10  21  32  62  95 120 152 204 249 297 346
#     4  10  18  38  60  91 124 155 195 252 297 353
#
# _framework density 19.147541
#
# number of rings (size 3 to 8) (size 9 to 14) (size 15 to 20)
#    0.000    1.429    2.857    3.429    2.000    2.857 
#    0.000    4.286    0.000    0.000    0.000    0.000 
#    0.000    0.000    0.000    0.000    0.000    0.000 
#
# Total GULP energy -156349.954050 kJ/mol
# GULP energy per Si atom -5583.926930 kJ/mol
# Density = 1.910396 g / cm^3
# Si number density = 19.147541 Si / 1000 Ang^3
#
#
#
# Elastic Constant Matrix: (Units=GPa)
#
#
# Indices 1 2 3 4 5 6 
#
# 1 102.6657 31.9826 33.7860 0.0000 25.0020 0.0000
# 2 31.9826 65.5232 18.3472 0.0000 19.2154 0.0000
# 3 33.7860 18.3472 119.5820 0.0000 11.3914 0.0000
# 4 0.0000 0.0000 0.0000 25.4446 0.0000 6.9858
# 5 25.0020 19.2154 11.3914 0.0000 34.1707 0.0000
# 6 0.0000 0.0000 0.0000 6.9858 0.0000 24.0896
#
#
#
# Elastic Compliance Matrix: (Units=1/GPa)
#
#
# Indices 1 2 3 4 5 6 
#
# 1 0.013440 -0.003844 -0.002558 0.000000 -0.006820 0.000000
# 2 -0.003844 0.019796 -0.001197 0.000000 -0.007920 0.000000
# 3 -0.002558 -0.001197 0.009322 0.000000 -0.000563 0.000000
# 4 0.000000 0.000000 0.000000 0.042701 0.000000 -0.012383
# 5 -0.006820 -0.007920 -0.000563 0.000000 0.038896 0.000000
# 6 0.000000 0.000000 0.000000 -0.012383 0.000000 0.045103
#
#
# Mechanical properties :
#
#
# Convention : Reuss Voigt Hill
#
# Bulk Modulus (GPa) = 36.54806 50.66693 43.60750
# Shear Modulus (GPa) = 25.82958 30.31801 28.07379
#
# Velocity S-wave (km/s) = 3.67683 3.98350 3.83323
# Velocity P-wave (km/s) = 6.09544 6.90481 6.51271
#
# Compressibility (1/GPa) = 0.02736123
#
# Stress axis : x y z
#
# Youngs Moduli (GPa) = 74.40213 50.51527 107.26830
#
# Poissons Ratio (x) = 0.19419 0.27439
# Poissons Ratio (y) = 0.28602 0.12836
# Poissons Ratio (z) = 0.19032 0.06045
#
# Static dielectric constant tensor:
#      x y z
#    x 1.665610 0.000000 0.008210 
#    y 0.000000 1.677910 0.000000 
#    z 0.008210 0.000000 1.675140 
# 
# From -- ./inp_files/35557.got.cif
#   From: 2010.05.17/outbox.cif.g08.bks.cpg/sg15_18_cif.got.tgz:35557.got - 2010.06.03 18:47:42.
