data_PCOD9260940
_publ_section_title
;
Structure prediction by ZEFSAII (Michael W. Deem and Ramdas Pophale) SiO2 
 PCOD9260940
Probable space group: C 2/C
;
_chemical_formula_sum "Si O2"
_cell_formula_units_Z 36
_cell_length_a 12.397612
_cell_length_b 7.215174
_cell_length_c 28.112046
_cell_angle_alpha 90.000000
_cell_angle_beta 139.461516
_cell_angle_gamma 90.000000
_cell_volume 1634.417596
_symmetry_space_group_name_H-M "C 2/C"
_symmetry_group_IT_number 15
_symmetry_cell_setting 'monoclinic'
loop_
_space_group_symop_operation_xyz
x,y,z
-x,y,1/2-z
-x,-y,-z
x,-y,1/2+z
1/2+x,1/2+y,z
1/2-x,1/2+y,1/2-z
1/2-x,1/2-y,-z
1/2+x,1/2-y,1/2+z
loop_
_atom_site_type_symbol
_atom_site_label
_atom_site_fract_x
_atom_site_fract_y
_atom_site_fract_z
Si Si1 0.500000 0.226869 0.250000
Si Si2 0.244931 0.395828 0.351006
Si Si3 0.419433 0.857788 0.112480
Si Si4 0.585515 0.506081 0.450106
Si Si5 0.435839 0.748167 0.831128
O O1 0.557874 0.322051 0.220802
O O2 0.650040 0.089301 0.314351
O O3 0.142294 0.287940 0.356489
O O4 0.433416 0.432637 0.430846
O O5 0.277486 0.306914 0.310222
O O6 0.476651 0.690237 0.098669
O O7 0.541675 0.030822 0.159666
O O8 0.254879 0.943400 0.032163
O O9 0.589614 0.348452 0.410660
#
# Coordination Sequence:
#
# PCOD9260940 Si02
#       5
#     4   8   8   8   8
#     4  10  20  40  54  74 118 148 188 240 254 318
#     4   9  21  37  56  82 107 151 185 222 278 325
#     4  10  18  39  60  81 122 134 175 242 277 332
#     4   9  20  37  58  91 107 143 185 223 285 337
#     4   9  21  38  56  81 111 149 185 225 279 325
#
# _framework density 22.026192999999999
#
# number of rings (size 3 to 8) (size 9 to 14) (size 15 to 20)
#    1.333    1.333    0.000    1.333    0.000    3.556 
#   12.000    3.333    0.000    0.000    0.000    0.000 
#    0.000    0.000    0.000    0.000    0.000    0.000 
#
# Total GULP energy -100202.650146 kJ/mol
# GULP energy per Si atom -5566.813897 kJ/mol
# Density = 2.197606 g / cm^3
# Si number density = 22.026193 Si / 1000 Ang^3
#
#
#
# Elastic Constant Matrix: (Units=GPa)
#
#
# Indices 1 2 3 4 5 6 
#
# 1 80.0455 15.8152 7.0167 0.0000 -21.5493 0.0000
# 2 15.8152 57.4953 -8.8049 0.0000 -3.7052 0.0000
# 3 7.0167 -8.8049 42.4327 0.0000 -16.0378 0.0000
# 4 0.0000 0.0000 0.0000 6.1264 0.0000 -1.7277
# 5 -21.5493 -3.7052 -16.0378 0.0000 36.3920 0.0000
# 6 0.0000 0.0000 0.0000 -1.7277 0.0000 21.8892
#
#
#
# Elastic Compliance Matrix: (Units=1/GPa)
#
#
# Indices 1 2 3 4 5 6 
#
# 1 0.015616 -0.003725 -0.000004 0.000000 0.008866 0.000000
# 2 -0.003725 0.019394 0.005463 0.000000 0.002176 0.000000
# 3 -0.000004 0.005463 0.029889 0.000000 0.013726 0.000000
# 4 0.000000 0.000000 0.000000 0.166945 0.000000 0.013177
# 5 0.008866 0.002176 0.013726 0.000000 0.038999 0.000000
# 6 0.000000 0.000000 0.000000 0.013177 0.000000 0.046725
#
#
# Mechanical properties :
#
#
# Convention : Reuss Voigt Hill
#
# Bulk Modulus (GPa) = 14.62706 23.11418 18.87062
# Shear Modulus (GPa) = 14.84169 23.94462 19.39316
#
# Velocity S-wave (km/s) = 2.59862 3.30069 2.97047
# Velocity P-wave (km/s) = 3.95714 5.00428 4.51120
#
# Compressibility (1/GPa) = 0.06836642
#
# Stress axis : x y z
#
# Youngs Moduli (GPa) = 64.03692 51.56197 33.45751
#
# Poissons Ratio (x) = 0.19206 0.00014
# Poissons Ratio (y) = 0.23852 -0.18277
# Poissons Ratio (z) = 0.00027 -0.28168
#
# Static dielectric constant tensor:
#      x y z
#    x 1.823510 0.000000 -0.032790 
#    y 0.000000 1.791470 0.000000 
#    z -0.032790 0.000000 1.874740 
# 
# From -- ./inp_files/194948.got.cif
#   From: 2010.05.17/outbox.cif.g08.bks.cpg/sg15_98_cif.got.tgz:194948.got - 2010.06.03 18:47:42.
