data_PCOD9260628
_publ_section_title
;
Structure prediction by ZEFSAII (Michael W. Deem and Ramdas Pophale) SiO2 
 PCOD9260628
Probable space group: C 2/C
;
_chemical_formula_sum "Si O2"
_cell_formula_units_Z 44
_cell_length_a 12.612073
_cell_length_b 30.190762
_cell_length_c 8.721760
_cell_angle_alpha 90.000000
_cell_angle_beta 131.484068
_cell_angle_gamma 90.000000
_cell_volume 2487.869731
_symmetry_space_group_name_H-M "C 2/C"
_symmetry_group_IT_number 15
_symmetry_cell_setting 'monoclinic'
loop_
_space_group_symop_operation_xyz
x,y,z
-x,y,1/2-z
-x,-y,-z
x,-y,1/2+z
1/2+x,1/2+y,z
1/2-x,1/2+y,1/2-z
1/2-x,1/2-y,-z
1/2+x,1/2-y,1/2+z
loop_
_atom_site_type_symbol
_atom_site_label
_atom_site_fract_x
_atom_site_fract_y
_atom_site_fract_z
Si Si1 0.089778 0.865004 0.182628
Si Si2 0.500000 0.507494 0.250000
Si Si3 0.712771 0.217783 0.321061
Si Si4 0.872923 0.060811 0.386524
Si Si5 0.487431 0.720092 0.056378
Si Si6 0.160122 0.616927 0.366859
O O1 0.235386 0.884778 0.385900
O O2 0.000000 0.851178 0.250000
O O3 0.100654 0.823140 0.082346
O O4 0.996003 0.902369 0.013944
O O5 0.389489 0.537260 0.239545
O O6 0.585605 0.476056 0.447892
O O7 0.750000 0.250000 0.500000
O O8 0.668053 0.168744 0.328677
O O9 0.855743 0.214405 0.360126
O O10 0.589835 0.239433 0.101533
O O11 0.731912 0.086152 0.305477
O O12 0.500000 0.724753 0.250000
O O13 0.000000 0.604485 0.250000
#
# Coordination Sequence:
#
# PCOD9260628 Si02
#       6
#     8   4   8   8   8   8
#     4  10  18  38  59  82 113 157 203 237 289 356
#     4  10  20  36  68  92 112 146 202 248 302 362
#     4  12  22  39  60  84 115 166 211 241 289 356
#     4  10  20  38  63  91 117 149 196 252 298 358
#     4  12  24  37  56  88 121 156 202 261 297 336
#     4  11  21  37  61  87 118 159 204 241 293 358
#
# _framework density 17.685813
#
# number of rings (size 3 to 8) (size 9 to 14) (size 15 to 20)
#    0.000    1.091    8.182    2.182    1.273    0.000 
#    0.000    0.909    0.000    0.000    0.000    0.000 
#    0.000    0.000    0.000    0.000    0.000    0.000 
#
# Total GULP energy -122801.085602 kJ/mol
# GULP energy per Si atom -5581.867527 kJ/mol
# Density = 1.764556 g / cm^3
# Si number density = 17.685813 Si / 1000 Ang^3
#
#
#
# Elastic Constant Matrix: (Units=GPa)
#
#
# Indices 1 2 3 4 5 6 
#
# 1 84.0389 23.9195 14.0336 0.0000 11.9619 0.0000
# 2 23.9195 82.5460 -3.9751 0.0000 -6.6332 0.0000
# 3 14.0336 -3.9751 32.2706 0.0000 2.8032 0.0000
# 4 0.0000 0.0000 0.0000 5.2520 0.0000 -1.7628
# 5 11.9619 -6.6332 2.8032 0.0000 41.1224 0.0000
# 6 0.0000 0.0000 0.0000 -1.7628 0.0000 21.2775
#
#
#
# Elastic Compliance Matrix: (Units=1/GPa)
#
#
# Indices 1 2 3 4 5 6 
#
# 1 0.015170 -0.005107 -0.006811 0.000000 -0.004772 0.000000
# 2 -0.005107 0.014052 0.003648 0.000000 0.003504 0.000000
# 3 -0.006811 0.003648 0.034380 0.000000 0.000226 0.000000
# 4 0.000000 0.000000 0.000000 0.195850 0.000000 0.016226
# 5 -0.004772 0.003504 0.000226 0.000000 0.026255 0.000000
# 6 0.000000 0.000000 0.000000 0.016226 0.000000 0.048342
#
#
# Mechanical properties :
#
#
# Convention : Reuss Voigt Hill
#
# Bulk Modulus (GPa) = 21.25009 29.64575 25.44792
# Shear Modulus (GPa) = 13.65088 24.52222 19.08655
#
# Velocity S-wave (km/s) = 2.78124 3.72768 3.28868
# Velocity P-wave (km/s) = 4.72812 5.94359 5.37035
#
# Compressibility (1/GPa) = 0.04705862
#
# Stress axis : x y z
#
# Youngs Moduli (GPa) = 65.92144 71.16647 29.08692
#
# Poissons Ratio (x) = 0.36346 0.19812
# Poissons Ratio (y) = 0.33667 -0.10609
# Poissons Ratio (z) = 0.44902 -0.25958
#
# Static dielectric constant tensor:
#      x y z
#    x 1.604180 0.000000 -0.006330 
#    y 0.000000 1.624280 0.000000 
#    z -0.006330 0.000000 1.605830 
# 
# From -- ./inp_files/34505.got.cif
#   From: 2010.05.17/outbox.cif.g08.bks.cpg/sg15_18_cif.got.tgz:34505.got - 2010.06.03 18:47:42.
