data_PCOD9260750
_publ_section_title
;
Structure prediction by ZEFSAII (Michael W. Deem and Ramdas Pophale) SiO2 
 PCOD9260750
Probable space group: C 2/C
;
_chemical_formula_sum "Si O2"
_cell_formula_units_Z 56
_cell_length_a 15.641005
_cell_length_b 11.304798
_cell_length_c 14.959535
_cell_angle_alpha 90.000000
_cell_angle_beta 93.688012
_cell_angle_gamma 90.000000
_cell_volume 2639.643289
_symmetry_space_group_name_H-M "C 2/C"
_symmetry_group_IT_number 15
_symmetry_cell_setting 'monoclinic'
loop_
_space_group_symop_operation_xyz
x,y,z
-x,y,1/2-z
-x,-y,-z
x,-y,1/2+z
1/2+x,1/2+y,z
1/2-x,1/2+y,1/2-z
1/2-x,1/2-y,-z
1/2+x,1/2-y,1/2+z
loop_
_atom_site_type_symbol
_atom_site_label
_atom_site_fract_x
_atom_site_fract_y
_atom_site_fract_z
Si Si1 0.259544 0.435813 0.994486
Si Si2 0.939315 0.344710 0.917336
Si Si3 0.103026 0.745675 0.505659
Si Si4 0.444230 0.093967 0.832374
Si Si5 0.774017 0.723909 0.285782
Si Si6 0.250949 0.032706 0.797347
Si Si7 0.309852 0.168247 0.564229
O O1 0.179189 0.345746 0.983915
O O2 0.261512 0.485345 0.096520
O O3 0.347952 0.369003 0.983627
O O4 0.238609 0.544241 0.929238
O O5 0.970751 0.473352 0.886281
O O6 0.862349 0.301263 0.847095
O O7 0.894693 0.353056 0.012316
O O8 0.022874 0.262939 0.933143
O O9 0.068269 0.699109 0.598181
O O10 0.500000 0.119509 0.750000
O O11 0.350336 0.060883 0.792564
O O12 0.792888 0.841036 0.228302
O O13 0.741746 0.595508 0.249153
O O14 0.694940 0.765280 0.343171
O O15 0.250000 0.250000 0.500000
#
# Coordination Sequence:
#
# PCOD9260750 Si02
#       7
#     8   8   8   8   8   8   8
#     4  10  20  38  61  91 125 161 205 260 313 381
#     4  10  20  38  58  96 120 166 219 256 311 380
#     4  10  21  35  61  95 127 155 211 265 315 370
#     4  10  21  35  56  90 132 159 209 270 321 367
#     4  10  22  37  64  89 126 166 209 257 319 380
#     4  10  21  40  58  93 122 164 208 259 323 384
#     4  10  18  38  63  81 119 166 211 247 303 385
#
# _framework density 21.214988000000002
#
# number of rings (size 3 to 8) (size 9 to 14) (size 15 to 20)
#    0.000    2.000    5.714    0.429    2.000    5.714 
#    0.000    2.857    0.000    1.714    0.000    0.000 
#    0.000    0.000    0.000    0.000    0.000    0.000 
#
# Total GULP energy -156065.114511 kJ/mol
# GULP energy per Si atom -5573.754090 kJ/mol
# Density = 2.116670 g / cm^3
# Si number density = 21.214988 Si / 1000 Ang^3
#
#
#
# Elastic Constant Matrix: (Units=GPa)
#
#
# Indices 1 2 3 4 5 6 
#
# 1 95.7718 40.9649 24.7445 0.0000 0.2782 0.0000
# 2 40.9649 135.3034 32.5050 0.0000 6.8943 0.0000
# 3 24.7445 32.5050 36.5249 0.0000 -10.5539 0.0000
# 4 0.0000 0.0000 0.0000 18.9006 0.0000 15.2900
# 5 0.2782 6.8943 -10.5539 0.0000 22.2569 0.0000
# 6 0.0000 0.0000 0.0000 15.2900 0.0000 18.7396
#
#
#
# Elastic Compliance Matrix: (Units=1/GPa)
#
#
# Indices 1 2 3 4 5 6 
#
# 1 0.013439 -0.001836 -0.008523 0.000000 -0.003641 0.000000
# 2 -0.001836 0.011054 -0.011097 0.000000 -0.008663 0.000000
# 3 -0.008523 -0.011097 0.051046 0.000000 0.027749 0.000000
# 4 0.000000 0.000000 0.000000 0.155639 0.000000 -0.126990
# 5 -0.003641 -0.008663 0.027749 0.000000 0.060817 0.000000
# 6 0.000000 0.000000 0.000000 -0.126990 0.000000 0.156977
#
#
# Mechanical properties :
#
#
# Convention : Reuss Voigt Hill
#
# Bulk Modulus (GPa) = 30.64816 51.55877 41.10347
# Shear Modulus (GPa) = 9.94509 23.27179 16.60844
#
# Velocity S-wave (km/s) = 2.16747 3.31562 2.80101
# Velocity P-wave (km/s) = 4.55431 6.24608 5.46604
#
# Compressibility (1/GPa) = 0.03262838
#
# Stress axis : x y z
#
# Youngs Moduli (GPa) = 74.40808 90.46549 19.59006
#
# Poissons Ratio (x) = 0.16609 0.16696
# Poissons Ratio (y) = 0.13661 0.21739
# Poissons Ratio (z) = 0.63417 1.00388
#
# Static dielectric constant tensor:
#      x y z
#    x 1.747080 0.000000 0.017950 
#    y 0.000000 1.844230 0.000000 
#    z 0.017950 0.000000 1.868890 
# 
# From -- ./inp_files/152589.got.cif
#   From: 2010.05.17/outbox.cif.g08.bks.cpg/sg15_77_cif.got.tgz:152589.got - 2010.06.03 18:47:42.
