data_PCOD9260847
_publ_section_title
;
Structure prediction by ZEFSAII (Michael W. Deem and Ramdas Pophale) SiO2 
 PCOD9260847
Probable space group: C 2/C
;
_chemical_formula_sum "Si O2"
_cell_formula_units_Z 36
_cell_length_a 15.239184
_cell_length_b 24.878871
_cell_length_c 9.822356
_cell_angle_alpha 90.000000
_cell_angle_beta 145.106645
_cell_angle_gamma 90.000000
_cell_volume 2130.309046
_symmetry_space_group_name_H-M "C 2/C"
_symmetry_group_IT_number 15
_symmetry_cell_setting 'monoclinic'
loop_
_space_group_symop_operation_xyz
x,y,z
-x,y,1/2-z
-x,-y,-z
x,-y,1/2+z
1/2+x,1/2+y,z
1/2-x,1/2+y,1/2-z
1/2-x,1/2-y,-z
1/2+x,1/2-y,1/2+z
loop_
_atom_site_type_symbol
_atom_site_label
_atom_site_fract_x
_atom_site_fract_y
_atom_site_fract_z
Si Si1 0.195302 0.321676 0.816184
Si Si2 0.500000 0.255601 0.250000
Si Si3 0.134098 0.593652 0.029353
Si Si4 0.854967 0.437778 0.661994
Si Si5 0.396793 0.475937 0.747587
O O1 0.150334 0.346828 0.613465
O O2 0.201371 0.375589 0.917700
O O3 0.069131 0.282213 0.719500
O O4 0.357819 0.291999 0.021194
O O5 0.102291 0.557739 0.123860
O O6 0.293177 0.572744 0.170222
O O7 0.000000 0.589175 0.750000
O O8 0.721356 0.478193 0.452178
O O9 0.000000 0.445834 0.750000
O O10 0.500000 0.460617 0.750000
O O11 0.500000 0.500000 0.000000
#
# Coordination Sequence:
#
# PCOD9260847 Si02
#       5
#     8   4   8   8   8
#     4   9  20  37  61  90 114 150 202 249 293 357
#     4  10  18  38  66  88 112 154 204 252 302 350
#     4  10  23  40  58  86 127 157 200 244 300 366
#     4  10  22  39  59  85 123 160 196 240 293 368
#     4  12  24  38  58  90 121 165 200 246 297 355
#
# _framework density 16.898956999999999
#
# number of rings (size 3 to 8) (size 9 to 14) (size 15 to 20)
#    1.333    0.444    3.333    0.667    7.778    1.778 
#    0.000    1.111    0.000    0.000    0.000    0.000 
#    0.000    0.000    0.000    0.000    0.000    0.000 
#
# Total GULP energy -100291.432606 kJ/mol
# GULP energy per Si atom -5571.746256 kJ/mol
# Density = 1.686049 g / cm^3
# Si number density = 16.898957 Si / 1000 Ang^3
#
#
#
# Elastic Constant Matrix: (Units=GPa)
#
#
# Indices 1 2 3 4 5 6 
#
# 1 163.3156 44.1137 76.5452 0.0000 8.9008 0.0000
# 2 44.1137 69.7513 48.2690 0.0000 6.4198 0.0000
# 3 76.5452 48.2690 134.3068 0.0000 -6.9614 0.0000
# 4 0.0000 0.0000 0.0000 18.4794 0.0000 -2.8412
# 5 8.9008 6.4198 -6.9614 0.0000 31.8740 0.0000
# 6 0.0000 0.0000 0.0000 -2.8412 0.0000 6.6179
#
#
#
# Elastic Compliance Matrix: (Units=1/GPa)
#
#
# Indices 1 2 3 4 5 6 
#
# 1 0.009004 -0.002340 -0.004447 0.000000 -0.003014 0.000000
# 2 -0.002340 0.020657 -0.006344 0.000000 -0.004893 0.000000
# 3 -0.004447 -0.006344 0.012533 0.000000 0.005257 0.000000
# 4 0.000000 0.000000 0.000000 0.057939 0.000000 0.024874
# 5 -0.003014 -0.004893 0.005257 0.000000 0.034349 0.000000
# 6 0.000000 0.000000 0.000000 0.024874 0.000000 0.161783
#
#
# Mechanical properties :
#
#
# Convention : Reuss Voigt Hill
#
# Bulk Modulus (GPa) = 62.76719 78.35885 70.56302
# Shear Modulus (GPa) = 15.25155 24.62397 19.93776
#
# Velocity S-wave (km/s) = 3.00745 3.82138 3.43858
# Velocity P-wave (km/s) = 7.02018 8.12036 7.59023
#
# Compressibility (1/GPa) = 0.01593189
#
# Stress axis : x y z
#
# Youngs Moduli (GPa) = 111.06775 48.41005 79.79244
#
# Poissons Ratio (x) = 0.11326 0.35482
# Poissons Ratio (y) = 0.25985 0.50622
# Poissons Ratio (z) = 0.49389 0.30712
#
# Static dielectric constant tensor:
#      x y z
#    x 1.569310 0.000000 -0.010410 
#    y 0.000000 1.583690 0.000000 
#    z -0.010410 0.000000 1.539650 
# 
# From -- ./inp_files/25807.got.cif
#   From: 2010.05.17/outbox.cif.g08.bks.cpg/sg15_13_cif.got.tgz:25807.got - 2010.06.03 18:47:42.
