data_PCOD9260931
_publ_section_title
;
Structure prediction by ZEFSAII (Michael W. Deem and Ramdas Pophale) SiO2 
 PCOD9260931
Probable space group: C 2/C
;
_chemical_formula_sum "Si O2"
_cell_formula_units_Z 56
_cell_length_a 17.855587
_cell_length_b 17.796222
_cell_length_c 13.783825
_cell_angle_alpha 90.000000
_cell_angle_beta 31.635021
_cell_angle_gamma 90.000000
_cell_volume 2297.325314
_symmetry_space_group_name_H-M "C 2/C"
_symmetry_group_IT_number 15
_symmetry_cell_setting 'monoclinic'
loop_
_space_group_symop_operation_xyz
x,y,z
-x,y,1/2-z
-x,-y,-z
x,-y,1/2+z
1/2+x,1/2+y,z
1/2-x,1/2+y,1/2-z
1/2-x,1/2-y,-z
1/2+x,1/2-y,1/2+z
loop_
_atom_site_type_symbol
_atom_site_label
_atom_site_fract_x
_atom_site_fract_y
_atom_site_fract_z
Si Si1 0.500000 0.561584 0.750000
Si Si2 0.142999 0.258832 0.880319
Si Si3 0.662041 0.863551 0.388040
Si Si4 0.711261 0.000396 0.102569
Si Si5 0.985548 0.392152 0.401714
Si Si6 0.219164 0.015060 0.244843
Si Si7 0.500000 0.124207 0.250000
Si Si8 0.583854 0.649710 0.466630
O O1 0.636867 0.508507 0.616980
O O2 0.536461 0.616066 0.620776
O O3 0.253027 0.191755 0.776749
O O4 0.253814 0.317314 0.707177
O O5 0.070828 0.307217 0.044866
O O6 0.020490 0.216012 0.954604
O O7 0.537252 0.894836 0.457631
O O8 0.590304 0.833782 0.566548
O O9 0.774123 0.928371 0.293148
O O10 0.748236 0.008535 0.175750
O O11 0.611719 0.069171 0.179833
O O12 0.618441 0.924445 0.195932
O O13 0.854388 0.449118 0.541383
O O14 0.095126 0.077859 0.380160
#
# Coordination Sequence:
#
# PCOD9260931 Si02
#       8
#     4   8   8   8   8   8   4   8
#     4  10  22  37  54  88 121 154 186 244 290 339
#     4  11  22  36  56  86 118 157 191 231 290 355
#     4  11  20  34  58  89 117 153 202 230 290 344
#     4  10  19  35  60  82 116 148 197 238 288 333
#     4  10  18  39  57  80 115 166 192 229 282 361
#     4   9  18  37  60  80 113 160 200 241 268 345
#     4  12  20  31  58  96 115 150 188 244 282 347
#     4  10  22  37  55  85 122 155 192 233 294 345
#
# _framework density 24.376173000000001
#
# number of rings (size 3 to 8) (size 9 to 14) (size 15 to 20)
#    0.000    1.714    4.286    1.714    0.000    1.714 
#    0.000    1.429    0.000    0.000    0.000   34.000 
#    0.000    0.000    0.000    0.000    0.000    0.000 
#
# Total GULP energy -156263.767131 kJ/mol
# GULP energy per Si atom -5580.848826 kJ/mol
# Density = 2.432069 g / cm^3
# Si number density = 24.376173 Si / 1000 Ang^3
#
#
#
# Elastic Constant Matrix: (Units=GPa)
#
#
# Indices 1 2 3 4 5 6 
#
# 1 37.1001 -12.0020 22.7076 0.0004 -8.0136 -0.0003
# 2 -12.0020 117.1201 44.2581 0.0004 -14.5137 -0.0005
# 3 22.7076 44.2581 133.4491 0.0003 -23.3588 -0.0006
# 4 0.0004 0.0004 0.0003 56.3788 -0.0003 -9.6026
# 5 -8.0136 -14.5137 -23.3588 -0.0003 44.0154 0.0003
# 6 -0.0003 -0.0005 -0.0006 -9.6026 0.0003 20.4967
#
#
#
# Elastic Compliance Matrix: (Units=1/GPa)
#
#
# Indices 1 2 3 4 5 6 
#
# 1 0.034731 0.006932 -0.007388 0.000000 0.004688 0.000000
# 2 0.006932 0.011256 -0.004456 0.000000 0.002609 0.000000
# 3 -0.007388 -0.004456 0.010733 0.000000 0.002881 0.000000
# 4 0.000000 0.000000 0.000000 0.019275 0.000000 0.009030
# 5 0.004688 0.002609 0.002881 0.000000 0.025962 0.000000
# 6 0.000000 0.000000 0.000000 0.009030 0.000000 0.053019
#
#
# Mechanical properties :
#
#
# Convention : Reuss Voigt Hill
#
# Bulk Modulus (GPa) = 21.32391 44.17741 32.75066
# Shear Modulus (GPa) = 27.71121 39.69188 33.70154
#
# Velocity S-wave (km/s) = 3.37533 4.03961 3.72231
# Velocity P-wave (km/s) = 4.89462 6.31826 5.65145
#
# Compressibility (1/GPa) = 0.04689570
#
# Stress axis : x y z
#
# Youngs Moduli (GPa) = 28.79246 88.84400 93.17237
#
# Poissons Ratio (x) = -0.61587 0.68838
# Poissons Ratio (y) = -0.19959 0.41516
# Poissons Ratio (z) = 0.21272 0.39587
#
# Static dielectric constant tensor:
#      x y z
#    x 2.004410 0.000000 -0.041150 
#    y 0.000000 2.035500 0.000000 
#    z -0.041150 0.000000 1.966200 
# 
# From -- ./inp_files/169146.got.cif
#   From: 2010.05.17/outbox.cif.g08.bks.cpg/sg15_85_cif.got.tgz:169146.got - 2010.06.03 18:47:42.
