data_PCOD9260156
_publ_section_title
;
Structure prediction by ZEFSAII (Michael W. Deem and Ramdas Pophale) SiO2 
 PCOD9260156
Probable space group: C 2/C
;
_chemical_formula_sum "Si O2"
_cell_formula_units_Z 56
_cell_length_a 14.176150
_cell_length_b 18.561580
_cell_length_c 12.139300
_cell_angle_alpha 90.000000
_cell_angle_beta 108.733281
_cell_angle_gamma 90.000000
_cell_volume 3025.016993
_symmetry_space_group_name_H-M "C 2/C"
_symmetry_group_IT_number 15
_symmetry_cell_setting 'monoclinic'
loop_
_space_group_symop_operation_xyz
x,y,z
-x,y,1/2-z
-x,-y,-z
x,-y,1/2+z
1/2+x,1/2+y,z
1/2-x,1/2+y,1/2-z
1/2-x,1/2-y,-z
1/2+x,1/2-y,1/2+z
loop_
_atom_site_type_symbol
_atom_site_label
_atom_site_fract_x
_atom_site_fract_y
_atom_site_fract_z
Si Si1 0.453489 0.099948 0.047824
Si Si2 0.784202 0.886163 0.627890
Si Si3 0.000000 0.161166 0.250000
Si Si4 0.855738 0.496754 0.344768
Si Si5 0.500000 0.200819 0.250000
Si Si6 0.669119 0.743284 0.654188
Si Si7 0.309164 0.878037 0.151348
Si Si8 0.035916 0.282558 0.409067
O O1 0.546166 0.047849 0.114632
O O2 0.435135 0.148792 0.146737
O O3 0.486089 0.157155 0.966270
O O4 0.369395 0.052537 0.958969
O O5 0.738891 0.952585 0.677695
O O6 0.738692 0.813789 0.666745
O O7 0.740662 0.892973 0.486908
O O8 0.902888 0.882139 0.678625
O O9 0.027999 0.217648 0.163403
O O10 0.845554 0.446770 0.233708
O O11 0.420181 0.244378 0.292813
O O12 0.732780 0.671248 0.692265
O O13 0.617280 0.742031 0.515037
O O14 0.402563 0.827083 0.158299
#
# Coordination Sequence:
#
# PCOD9260156 Si02
#       8
#     8   8   4   8   4   8   8   8
#     4  10  22  36  57  96 121 155 194 247 322 373
#     4  11  22  39  59  93 121 157 207 250 296 355
#     4  12  20  34  70  88 116 158 214 254 286 350
#     4  11  23  36  58  90 129 153 198 240 317 365
#     4  10  20  36  64  82 130 158 186 252 310 356
#     4  10  19  39  59  89 119 155 197 253 302 352
#     4  11  20  39  64  86 125 155 196 260 298 354
#     4  10  18  36  63  92 115 144 205 262 301 339
#
# _framework density 18.512291000000001
#
# number of rings (size 3 to 8) (size 9 to 14) (size 15 to 20)
#    0.000    1.429    7.143    1.714    2.000    0.000 
#    0.000    2.143    6.286    0.000    0.000    0.000 
#    0.000    0.000    0.000    0.000    0.000    0.000 
#
# Total GULP energy -156164.596481 kJ/mol
# GULP energy per Si atom -5577.307017 kJ/mol
# Density = 1.847016 g / cm^3
# Si number density = 18.512291 Si / 1000 Ang^3
#
#
#
# Elastic Constant Matrix: (Units=GPa)
#
#
# Indices 1 2 3 4 5 6 
#
# 1 59.6798 18.6830 36.6732 0.0000 4.6797 0.0000
# 2 18.6830 61.5974 27.7749 0.0000 0.9397 0.0000
# 3 36.6732 27.7749 64.9587 0.0000 6.3801 0.0000
# 4 0.0000 0.0000 0.0000 25.6925 0.0000 0.3275
# 5 4.6797 0.9397 6.3801 0.0000 31.1995 0.0000
# 6 0.0000 0.0000 0.0000 0.3275 0.0000 4.7759
#
#
#
# Elastic Compliance Matrix: (Units=1/GPa)
#
#
# Indices 1 2 3 4 5 6 
#
# 1 0.025808 -0.001594 -0.013790 0.000000 -0.001003 0.000000
# 2 -0.001594 0.020253 -0.007881 0.000000 0.001241 0.000000
# 3 -0.013790 -0.007881 0.026863 0.000000 -0.003187 0.000000
# 4 0.000000 0.000000 0.000000 0.038956 0.000000 -0.002671
# 5 -0.001003 0.001241 -0.003187 0.000000 0.032817 0.000000
# 6 0.000000 0.000000 0.000000 -0.002671 0.000000 0.209570
#
#
# Mechanical properties :
#
#
# Convention : Reuss Voigt Hill
#
# Bulk Modulus (GPa) = 37.89039 39.16648 38.52844
# Shear Modulus (GPa) = 12.20721 19.20722 15.70721
#
# Velocity S-wave (km/s) = 2.57069 3.22458 2.91602
# Velocity P-wave (km/s) = 5.41511 5.92172 5.67407
#
# Compressibility (1/GPa) = 0.02639191
#
# Stress axis : x y z
#
# Youngs Moduli (GPa) = 38.74810 49.37552 37.22650
#
# Poissons Ratio (x) = 0.07873 0.51335
# Poissons Ratio (y) = 0.06178 0.29340
# Poissons Ratio (z) = 0.53433 0.38915
#
# Static dielectric constant tensor:
#      x y z
#    x 1.624680 0.000000 -0.001170 
#    y 0.000000 1.657690 0.000000 
#    z -0.001170 0.000000 1.704710 
# 
# From -- ./inp_files/98430.got.cif
#   From: 2010.05.17/outbox.cif.g08.bks.cpg/sg15_50_cif.got.tgz:98430.got - 2010.06.03 18:47:42.
