data_PCOD9260391
_publ_section_title
;
Structure prediction by ZEFSAII (Michael W. Deem and Ramdas Pophale) SiO2 
 PCOD9260391
Probable space group: C 2/C
;
_chemical_formula_sum "Si O2"
_cell_formula_units_Z 56
_cell_length_a 9.102804
_cell_length_b 22.797251
_cell_length_c 16.175633
_cell_angle_alpha 90.000000
_cell_angle_beta 62.711186
_cell_angle_gamma 90.000000
_cell_volume 2983.166138
_symmetry_space_group_name_H-M "C 2/C"
_symmetry_group_IT_number 15
_symmetry_cell_setting 'monoclinic'
loop_
_space_group_symop_operation_xyz
x,y,z
-x,y,1/2-z
-x,-y,-z
x,-y,1/2+z
1/2+x,1/2+y,z
1/2-x,1/2+y,1/2-z
1/2-x,1/2-y,-z
1/2+x,1/2-y,1/2+z
loop_
_atom_site_type_symbol
_atom_site_label
_atom_site_fract_x
_atom_site_fract_y
_atom_site_fract_z
Si Si1 0.423997 0.231046 0.915519
Si Si2 0.410427 0.468087 0.598476
Si Si3 0.500000 0.470110 0.250000
Si Si4 0.456125 0.937512 0.848467
Si Si5 0.500000 0.144550 0.750000
Si Si6 0.556690 0.358731 0.641766
Si Si7 0.546020 0.130414 0.480469
Si Si8 0.360460 0.943155 0.160767
O O1 0.414832 0.186485 0.840099
O O2 0.496542 0.292173 0.865134
O O3 0.250000 0.250000 0.000000
O O4 0.509214 0.192069 0.964841
O O5 0.500000 0.500000 0.500000
O O6 0.446349 0.496999 0.679013
O O7 0.220241 0.466964 0.620939
O O8 0.474973 0.402328 0.597228
O O9 0.671276 0.438931 0.180798
O O10 0.500000 0.909033 0.750000
O O11 0.462742 0.889597 0.917709
O O12 0.585336 0.990013 0.835060
O O13 0.621641 0.099958 0.765588
O O14 0.500000 0.372459 0.750000
O O15 0.755704 0.366687 0.583677
O O16 0.490405 0.081135 0.560371
#
# Coordination Sequence:
#
# PCOD9260391 Si02
#       8
#     8   8   4   8   4   8   8   8
#     4   9  20  36  62  91 118 157 213 258 302 367
#     4  12  24  37  60  92 126 163 207 256 309 374
#     4  12  22  39  56  90 124 167 214 252 314 382
#     4  12  21  38  56  88 123 165 200 249 314 371
#     4  10  18  37  60  88 120 157 200 256 314 360
#     4  11  20  39  65  94 123 164 213 259 300 368
#     4  10  22  38  60  89 123 162 204 258 316 365
#     4  11  21  37  60  86 127 162 204 255 310 374
#
# _framework density 18.772000999999999
#
# number of rings (size 3 to 8) (size 9 to 14) (size 15 to 20)
#    0.000    1.143    3.571    3.857    0.000    2.286 
#    0.000    0.714    0.000    5.143    1.857    0.000 
#    0.000    0.000    0.000    0.000    0.000    0.000 
#
# Total GULP energy -156092.771471 kJ/mol
# GULP energy per Si atom -5574.741838 kJ/mol
# Density = 1.872928 g / cm^3
# Si number density = 18.772001 Si / 1000 Ang^3
#
#
#
# Elastic Constant Matrix: (Units=GPa)
#
#
# Indices 1 2 3 4 5 6 
#
# 1 94.6331 30.1825 36.6222 0.0000 -4.6123 0.0000
# 2 30.1825 80.7337 40.3719 0.0000 24.9990 0.0000
# 3 36.6222 40.3719 118.4651 0.0000 16.9535 0.0000
# 4 0.0000 0.0000 0.0000 27.8775 0.0000 8.2528
# 5 -4.6123 24.9990 16.9535 0.0000 33.6325 0.0000
# 6 0.0000 0.0000 0.0000 8.2528 0.0000 22.1767
#
#
#
# Elastic Compliance Matrix: (Units=1/GPa)
#
#
# Indices 1 2 3 4 5 6 
#
# 1 0.014296 -0.006163 -0.003508 0.000000 0.008310 0.000000
# 2 -0.006163 0.020794 -0.003070 0.000000 -0.014754 0.000000
# 3 -0.003508 -0.003070 0.011116 0.000000 -0.003803 0.000000
# 4 0.000000 0.000000 0.000000 0.040312 0.000000 -0.015002
# 5 0.008310 -0.014754 -0.003803 0.000000 0.043757 0.000000
# 6 0.000000 0.000000 0.000000 -0.015002 0.000000 0.050675
#
#
# Mechanical properties :
#
#
# Convention : Reuss Voigt Hill
#
# Bulk Modulus (GPa) = 48.25424 56.46502 52.35963
# Shear Modulus (GPa) = 23.43678 29.18103 26.30890
#
# Velocity S-wave (km/s) = 3.53724 3.94699 3.74772
# Velocity P-wave (km/s) = 6.51491 7.13557 6.83229
#
# Compressibility (1/GPa) = 0.02072357
#
# Stress axis : x y z
#
# Youngs Moduli (GPa) = 69.95199 48.09028 89.95905
#
# Poissons Ratio (x) = 0.29640 0.31559
# Poissons Ratio (y) = 0.43114 0.27615
# Poissons Ratio (z) = 0.24540 0.14762
#
# Static dielectric constant tensor:
#      x y z
#    x 1.642820 0.000000 -0.031580 
#    y 0.000000 1.670260 0.000000 
#    z -0.031580 0.000000 1.684310 
# 
# From -- ./inp_files/137767.got.cif
#   From: 2010.05.17/outbox.cif.g08.bks.cpg/sg15_69_cif.got.tgz:137767.got - 2010.06.03 18:47:42.
