data_PCOD9260782
_publ_section_title
;
Structure prediction by ZEFSAII (Michael W. Deem and Ramdas Pophale) SiO2 
 PCOD9260782
Probable space group: C 2/C
;
_chemical_formula_sum "Si O2"
_cell_formula_units_Z 36
_cell_length_a 7.949349
_cell_length_b 17.101009
_cell_length_c 17.059532
_cell_angle_alpha 90.000000
_cell_angle_beta 42.586536
_cell_angle_gamma 90.000000
_cell_volume 1569.345254
_symmetry_space_group_name_H-M "C 2/C"
_symmetry_group_IT_number 15
_symmetry_cell_setting 'monoclinic'
loop_
_space_group_symop_operation_xyz
x,y,z
-x,y,1/2-z
-x,-y,-z
x,-y,1/2+z
1/2+x,1/2+y,z
1/2-x,1/2+y,1/2-z
1/2-x,1/2-y,-z
1/2+x,1/2-y,1/2+z
loop_
_atom_site_type_symbol
_atom_site_label
_atom_site_fract_x
_atom_site_fract_y
_atom_site_fract_z
Si Si1 0.127090 0.028781 0.080434
Si Si2 0.203453 0.105050 0.840746
Si Si3 0.000000 0.148438 0.250000
Si Si4 0.849244 0.604530 0.617665
Si Si5 0.099040 0.253365 0.969015
O O1 0.243251 0.965069 0.100882
O O2 0.927307 0.978194 0.102147
O O3 0.980450 0.093037 0.181483
O O4 0.366950 0.072630 0.961686
O O5 0.500000 0.106968 0.750000
O O6 0.198794 0.119600 0.748459
O O7 0.066419 0.168447 0.942509
O O8 0.767669 0.202827 0.346812
O O9 0.877822 0.686542 0.562408
O O10 0.250000 0.250000 0.000000
#
# Coordination Sequence:
#
# PCOD9260782 Si02
#       5
#     8   8   4   8   8
#     4  10  22  39  65  93 123 167 214 259 319 383
#     4  12  22  39  63  93 128 165 213 268 313 380
#     4  10  18  38  64  84 120 172 206 248 324 378
#     4  10  21  41  64  89 127 168 212 258 321 382
#     4  11  21  37  61  91 126 171 210 255 323 381
#
# _framework density 22.939502999999998
#
# number of rings (size 3 to 8) (size 9 to 14) (size 15 to 20)
#    0.000    1.333    5.556    0.000    0.000    1.778 
#    0.000    0.000    0.000    0.000    0.000    0.000 
#    0.000    0.000    0.000    0.000    0.000    0.000 
#
# Total GULP energy -100494.095381 kJ/mol
# GULP energy per Si atom -5583.005299 kJ/mol
# Density = 2.288729 g / cm^3
# Si number density = 22.939503 Si / 1000 Ang^3
#
#
#
# Elastic Constant Matrix: (Units=GPa)
#
#
# Indices 1 2 3 4 5 6 
#
# 1 29.1235 11.2707 5.7384 0.0017 0.4018 -0.0021
# 2 11.2707 105.1802 16.5949 0.0004 0.2766 -0.0009
# 3 5.7384 16.5949 113.9789 0.0015 13.5804 -0.0012
# 4 0.0017 0.0004 0.0015 31.8187 -0.0015 35.9827
# 5 0.4018 0.2766 13.5804 -0.0015 30.9867 0.0014
# 6 -0.0021 -0.0009 -0.0012 35.9827 0.0014 13.5647
#
#
#
# Elastic Compliance Matrix: (Units=1/GPa)
#
#
# Indices 1 2 3 4 5 6 
#
# 1 0.036004 -0.003654 -0.001297 0.000004 0.000134 -0.000005
# 2 -0.003654 0.010111 -0.001354 0.000000 0.000550 0.000000
# 3 -0.001297 -0.001354 0.009530 0.000001 -0.004148 -0.000001
# 4 0.000004 0.000000 0.000001 -0.015716 -0.000003 0.041688
# 5 0.000134 0.000550 -0.004148 -0.000003 0.034083 0.000004
# 6 -0.000005 0.000000 -0.000001 0.041688 0.000004 -0.036864
#
#
# Mechanical properties :
#
#
# Convention : Reuss Voigt Hill
#
# Bulk Modulus (GPa) = 23.23584 35.05450 29.14517
# Shear Modulus (GPa) = 77.99893 29.58594 53.79244
#
# Velocity S-wave (km/s) = 5.83745 3.59519 4.84774
# Velocity P-wave (km/s) = 7.45558 5.70511 6.63829
#
# Compressibility (1/GPa) = 0.04303697
#
# Stress axis : x y z
#
# Youngs Moduli (GPa) = 27.77456 98.90050 104.93019
#
# Poissons Ratio (x) = 0.36137 0.13606
# Poissons Ratio (y) = 0.10148 0.14205
# Poissons Ratio (z) = 0.03601 0.13389
#
# Static dielectric constant tensor:
#      x y z
#    x 1.997860 0.000000 -0.017190 
#    y 0.000000 1.865370 0.000000 
#    z -0.017190 0.000000 1.867690 
# 
# From -- ./inp_files/76465.got.cif
#   From: 2010.05.17/outbox.cif.g08.bks.cpg/sg15_39_cif.got.tgz:76465.got - 2010.06.03 18:47:42.
