data_PCOD9260070
_publ_section_title
;
Structure prediction by ZEFSAII (Michael W. Deem and Ramdas Pophale) SiO2 
 PCOD9260070
Probable space group: C 2/C
;
_chemical_formula_sum "Si O2"
_cell_formula_units_Z 60
_cell_length_a 20.248759
_cell_length_b 8.247302
_cell_length_c 27.977031
_cell_angle_alpha 90.000000
_cell_angle_beta 42.474591
_cell_angle_gamma 90.000000
_cell_volume 3154.895679
_symmetry_space_group_name_H-M "C 2/C"
_symmetry_group_IT_number 15
_symmetry_cell_setting 'monoclinic'
loop_
_space_group_symop_operation_xyz
x,y,z
-x,y,1/2-z
-x,-y,-z
x,-y,1/2+z
1/2+x,1/2+y,z
1/2-x,1/2+y,1/2-z
1/2-x,1/2-y,-z
1/2+x,1/2-y,1/2+z
loop_
_atom_site_type_symbol
_atom_site_label
_atom_site_fract_x
_atom_site_fract_y
_atom_site_fract_z
Si Si1 0.258338 0.983719 0.224025
Si Si2 0.557448 0.349114 0.819820
Si Si3 0.839028 0.170440 0.855487
Si Si4 0.347399 0.158131 0.254574
Si Si5 0.957188 0.200807 0.885725
Si Si6 0.890077 0.347610 0.018270
Si Si7 0.000000 0.895318 0.750000
Si Si8 0.955222 0.618676 0.582999
O O1 0.172660 0.108868 0.257053
O O2 0.290392 0.007151 0.262199
O O3 0.213059 0.811396 0.234189
O O4 0.360199 0.997583 0.141159
O O5 0.503321 0.521152 0.857913
O O6 0.518054 0.296333 0.788858
O O7 0.538041 0.228744 0.873749
O O8 0.852686 0.310165 0.808163
O O9 0.876007 0.218296 0.888072
O O10 0.725472 0.127247 0.916886
O O11 0.907636 0.018707 0.803727
O O12 0.455539 0.176318 0.175083
O O13 0.916192 0.234381 0.959814
O O14 0.929485 0.284675 0.048302
O O15 0.948668 0.513650 0.977075
#
# Coordination Sequence:
#
# PCOD9260070 Si02
#       8
#     8   8   8   8   8   8   4   8
#     4  11  18  33  58  81 110 141 185 233 271 324
#     4  10  20  36  58  84 110 148 186 234 271 333
#     4  11  18  37  59  84 107 151 191 227 275 340
#     4  11  19  34  58  84 110 140 191 235 273 326
#     4  10  21  35  58  83 110 145 189 229 275 329
#     4  11  22  36  57  80 114 152 183 230 285 333
#     4  10  18  36  62  80 110 148 192 222 280 334
#     4  11  22  36  53  84 116 146 187 228 285 337
#
# _framework density 19.018060999999999
#
# number of rings (size 3 to 8) (size 9 to 14) (size 15 to 20)
#    0.000    1.333    8.000    0.400    0.000    0.533 
#    0.000    4.000    0.000    0.000    0.000    0.000 
#    0.000    0.000    0.000    0.000    0.000    0.000 
#
# Total GULP energy -167331.352212 kJ/mol
# GULP energy per Si atom -5577.711740 kJ/mol
# Density = 1.897477 g / cm^3
# Si number density = 19.018061 Si / 1000 Ang^3
#
#
#
# Elastic Constant Matrix: (Units=GPa)
#
#
# Indices 1 2 3 4 5 6 
#
# 1 146.8771 28.7142 60.5505 0.0006 28.5514 -0.0001
# 2 28.7142 26.9456 12.7229 0.0015 11.3306 0.0021
# 3 60.5505 12.7229 114.3228 0.0001 5.4793 -0.0001
# 4 0.0006 0.0015 0.0001 20.0336 -0.0002 5.5247
# 5 28.5514 11.3306 5.4793 -0.0002 51.3106 0.0001
# 6 -0.0001 0.0021 -0.0001 5.5247 0.0001 23.4999
#
#
#
# Elastic Compliance Matrix: (Units=1/GPa)
#
#
# Indices 1 2 3 4 5 6 
#
# 1 0.011099 -0.007910 -0.004811 0.000000 -0.003916 0.000001
# 2 -0.007910 0.048595 -0.000920 -0.000002 -0.006232 -0.000004
# 3 -0.004811 -0.000920 0.011317 0.000000 0.001671 0.000000
# 4 0.000000 -0.000002 0.000000 0.053377 0.000001 -0.012549
# 5 -0.003916 -0.006232 0.001671 0.000001 0.022866 0.000000
# 6 0.000001 -0.000004 0.000000 -0.012549 0.000000 0.045503
#
#
# Mechanical properties :
#
#
# Convention : Reuss Voigt Hill
#
# Bulk Modulus (GPa) = 22.86711 54.68008 38.77360
# Shear Modulus (GPa) = 21.31149 31.37937 26.34543
#
# Velocity S-wave (km/s) = 3.35116 4.06640 3.72598
# Velocity P-wave (km/s) = 5.19843 7.13173 6.24040
#
# Compressibility (1/GPa) = 0.04373093
#
# Stress axis : x y z
#
# Youngs Moduli (GPa) = 90.09755 20.57810 88.35960
#
# Poissons Ratio (x) = 0.16276 0.42507
# Poissons Ratio (y) = 0.71263 0.08131
# Poissons Ratio (z) = 0.43343 0.01894
#
# Static dielectric constant tensor:
#      x y z
#    x 1.694060 0.000000 0.023890 
#    y 0.000000 1.680640 0.000000 
#    z 0.023890 0.000000 1.671620 
# 
# From -- ./inp_files/300514.got.cif
#   From: 2010.05.17/outbox.cif.g08.bks.cpg/sg15_151_cif.got.tgz:300514.got - 2010.06.03 18:47:42.
