data_PCOD9260126
_publ_section_title
;
Structure prediction by ZEFSAII (Michael W. Deem and Ramdas Pophale) SiO2 
 PCOD9260126
Probable space group: C 2/C
;
_chemical_formula_sum "Si O2"
_cell_formula_units_Z 64
_cell_length_a 23.844362
_cell_length_b 8.326386
_cell_length_c 20.925284
_cell_angle_alpha 90.000000
_cell_angle_beta 139.908403
_cell_angle_gamma 90.000000
_cell_volume 2675.513765
_symmetry_space_group_name_H-M "C 2/C"
_symmetry_group_IT_number 15
_symmetry_cell_setting 'monoclinic'
loop_
_space_group_symop_operation_xyz
x,y,z
-x,y,1/2-z
-x,-y,-z
x,-y,1/2+z
1/2+x,1/2+y,z
1/2-x,1/2+y,1/2-z
1/2-x,1/2-y,-z
1/2+x,1/2-y,1/2+z
loop_
_atom_site_type_symbol
_atom_site_label
_atom_site_fract_x
_atom_site_fract_y
_atom_site_fract_z
Si Si1 0.135279 0.549123 0.584152
Si Si2 0.762522 0.764286 0.698675
Si Si3 0.657829 0.654367 0.025855
Si Si4 0.365177 0.477225 0.362390
Si Si5 0.532625 0.657911 0.657124
Si Si6 0.448059 0.000871 0.355529
Si Si7 0.284346 0.641332 0.972446
Si Si8 0.992827 0.812575 0.669186
O O1 0.185776 0.388385 0.613575
O O2 0.185154 0.688909 0.588575
O O3 0.118814 0.545507 0.646347
O O4 0.038302 0.546773 0.470094
O O5 0.714235 0.647087 0.705872
O O6 0.774586 0.681099 0.641105
O O7 0.835936 0.871197 0.795238
O O8 0.630097 0.535659 0.060770
O O9 0.718180 0.554016 0.030912
O O10 0.567360 0.693428 0.912872
O O11 0.444825 0.388805 0.397443
O O12 0.578658 0.832925 0.704098
O O13 0.543148 0.483227 0.700001
O O14 0.469283 0.841662 0.334366
O O15 0.250000 0.750000 0.000000
O O16 0.389632 0.671641 0.061586
O O17 0.000000 0.781406 0.750000
#
# Coordination Sequence:
#
# PCOD9260126 Si02
#       8
#     8   8   8   8   8   8   8   8
#     4  10  18  36  62  93 122 156 198 257 332 385
#     4  11  22  37  61  87 135 158 201 258 317 393
#     4   9  20  36  63  87 123 157 208 263 314 381
#     4  11  21  35  56  94 120 163 197 257 326 380
#     4  10  21  38  63  90 123 159 209 262 326 376
#     4  10  20  37  65  95 124 157 201 264 328 383
#     4  10  23  44  61  83 129 179 216 255 318 383
#     4  11  24  41  65  92 122 170 225 270 310 377
#
# _framework density 23.920639000000001
#
# number of rings (size 3 to 8) (size 9 to 14) (size 15 to 20)
#    0.000    1.750    2.500    1.875    1.750    0.500 
#    2.250    0.625    0.000    0.000    0.000    0.000 
#    0.000    0.000    0.000    0.000    0.000    0.000 
#
# Total GULP energy -178355.413414 kJ/mol
# GULP energy per Si atom -5573.606669 kJ/mol
# Density = 2.386619 g / cm^3
# Si number density = 23.920639 Si / 1000 Ang^3
#
#
#
# Elastic Constant Matrix: (Units=GPa)
#
#
# Indices 1 2 3 4 5 6 
#
# 1 60.4794 47.1501 5.0610 0.0000 -2.0204 0.0000
# 2 47.1501 187.8124 6.3356 0.0000 -7.4400 0.0000
# 3 5.0610 6.3356 50.4610 0.0000 -5.9623 0.0000
# 4 0.0000 0.0000 0.0000 24.3880 0.0000 -1.4397
# 5 -2.0204 -7.4400 -5.9623 0.0000 34.5456 0.0000
# 6 0.0000 0.0000 0.0000 -1.4397 0.0000 32.6243
#
#
#
# Elastic Compliance Matrix: (Units=1/GPa)
#
#
# Indices 1 2 3 4 5 6 
#
# 1 0.020661 -0.005144 -0.001444 0.000000 -0.000149 0.000000
# 2 -0.005144 0.006666 -0.000191 0.000000 0.001102 0.000000
# 3 -0.001444 -0.000191 0.020387 0.000000 0.003393 0.000000
# 4 0.000000 0.000000 0.000000 0.041111 0.000000 0.001814
# 5 -0.000149 0.001102 0.003393 0.000000 0.029762 0.000000
# 6 0.000000 0.000000 0.000000 0.001814 0.000000 0.030732
#
#
# Mechanical properties :
#
#
# Convention : Reuss Voigt Hill
#
# Bulk Modulus (GPa) = 29.27732 46.20515 37.74123
# Shear Modulus (GPa) = 28.69258 34.32530 31.50894
#
# Velocity S-wave (km/s) = 3.46712 3.79220 3.63330
# Velocity P-wave (km/s) = 5.31920 6.20744 5.78041
#
# Compressibility (1/GPa) = 0.03415614
#
# Stress axis : x y z
#
# Youngs Moduli (GPa) = 48.40093 150.01604 49.05090
#
# Poissons Ratio (x) = 0.77169 0.07083
# Poissons Ratio (y) = 0.24898 0.00936
# Poissons Ratio (z) = 0.06989 0.02863
#
# Static dielectric constant tensor:
#      x y z
#    x 1.913310 0.000000 0.053980 
#    y 0.000000 1.979940 0.000000 
#    z 0.053980 0.000000 1.986520 
# 
# From -- ./inp_files/255053.got.cif
#   From: 2010.05.17/outbox.cif.g08.bks.cpg/sg15_128_cif.got.tgz:255053.got - 2010.06.03 18:47:42.
