data_PCOD9260846
_publ_section_title
;
Structure prediction by ZEFSAII (Michael W. Deem and Ramdas Pophale) SiO2 
 PCOD9260846
Probable space group: C 2/C
;
_chemical_formula_sum "Si O2"
_cell_formula_units_Z 48
_cell_length_a 11.811278
_cell_length_b 14.589915
_cell_length_c 31.295344
_cell_angle_alpha 90.000000
_cell_angle_beta 154.869686
_cell_angle_gamma 90.000000
_cell_volume 2290.285577
_symmetry_space_group_name_H-M "C 2/C"
_symmetry_group_IT_number 15
_symmetry_cell_setting 'monoclinic'
loop_
_space_group_symop_operation_xyz
x,y,z
-x,y,1/2-z
-x,-y,-z
x,-y,1/2+z
1/2+x,1/2+y,z
1/2-x,1/2+y,1/2-z
1/2-x,1/2-y,-z
1/2+x,1/2-y,1/2+z
loop_
_atom_site_type_symbol
_atom_site_label
_atom_site_fract_x
_atom_site_fract_y
_atom_site_fract_z
Si Si1 0.522736 0.515583 0.557823
Si Si2 0.477752 0.265098 0.310989
Si Si3 0.563635 0.278752 0.105960
Si Si4 0.421126 0.022035 0.530335
Si Si5 0.000000 0.387765 0.750000
Si Si6 0.500000 0.417568 0.250000
Si Si7 0.029209 0.659006 0.020865
O O1 0.500000 0.500000 0.500000
O O2 0.583829 0.619147 0.594260
O O3 0.243308 0.486209 0.483112
O O4 0.752456 0.450737 0.653880
O O5 0.355161 0.269296 0.316615
O O6 0.423733 0.176221 0.264247
O O7 0.408475 0.352175 0.257786
O O8 0.800935 0.272557 0.426118
O O9 0.684617 0.209308 0.112008
O O10 0.250000 0.250000 0.000000
O O11 0.737982 0.028255 0.646358
O O12 0.332266 0.109908 0.471860
O O13 0.374327 0.928110 0.488552
#
# Coordination Sequence:
#
# PCOD9260846 Si02
#       7
#     8   8   8   8   4   4   8
#     4  12  25  43  65 100 138 179 223 276 335 409
#     4   9  18  40  61  89 131 178 219 271 339 394
#     4  10  18  38  66  87 127 179 209 268 346 392
#     4  10  20  39  65  99 129 164 225 277 330 392
#     4  11  26  42  65  96 132 188 225 262 332 405
#     4   9  20  36  65  98 126 172 221 286 336 389
#     4   9  18  37  67  93 118 171 218 272 336 383
#
# _framework density 20.958085000000001
#
# number of rings (size 3 to 8) (size 9 to 14) (size 15 to 20)
#    0.000    2.000    3.333    2.000    0.000    1.333 
#    0.000   15.833    0.000    0.000    0.000    0.000 
#    0.000    0.000    0.000    0.000    0.000    0.000 
#
# Total GULP energy -133905.820957 kJ/mol
# GULP energy per Si atom -5579.409207 kJ/mol
# Density = 2.091038 g / cm^3
# Si number density = 20.958085 Si / 1000 Ang^3
#
#
#
# Elastic Constant Matrix: (Units=GPa)
#
#
# Indices 1 2 3 4 5 6 
#
# 1 143.6056 64.0777 38.2801 0.0001 -38.8037 0.0001
# 2 64.0777 125.5377 46.6561 0.0001 -23.1116 0.0001
# 3 38.2801 46.6561 81.1565 -0.0003 -20.1028 0.0004
# 4 0.0001 0.0001 -0.0003 36.6840 0.0001 -9.6598
# 5 -38.8037 -23.1116 -20.1028 0.0001 40.9097 0.0001
# 6 0.0001 0.0001 0.0004 -9.6598 0.0001 24.2103
#
#
#
# Elastic Compliance Matrix: (Units=1/GPa)
#
#
# Indices 1 2 3 4 5 6 
#
# 1 0.011061 -0.003801 -0.001099 0.000000 0.007805 0.000000
# 2 -0.003801 0.011832 -0.004835 0.000000 0.000704 0.000000
# 3 -0.001099 -0.004835 0.016720 0.000000 0.004442 0.000000
# 4 0.000000 0.000000 0.000000 0.030460 0.000000 0.012154
# 5 0.007805 0.000704 0.004442 0.000000 0.034427 0.000000
# 6 0.000000 0.000000 0.000000 0.012154 0.000000 0.046154
#
#
# Mechanical properties :
#
#
# Convention : Reuss Voigt Hill
#
# Bulk Modulus (GPa) = 49.64348 72.03641 60.83995
# Shear Modulus (GPa) = 28.27417 33.77987 31.02702
#
# Velocity S-wave (km/s) = 3.67697 4.01906 3.85181
# Velocity P-wave (km/s) = 6.46260 7.48220 6.99102
#
# Compressibility (1/GPa) = 0.02014363
#
# Stress axis : x y z
#
# Youngs Moduli (GPa) = 90.40561 84.51510 59.80709
#
# Poissons Ratio (x) = 0.32121 0.06574
# Poissons Ratio (y) = 0.34359 0.28918
# Poissons Ratio (z) = 0.09938 0.40865
#
# Static dielectric constant tensor:
#      x y z
#    x 1.798570 0.000000 -0.034070 
#    y 0.000000 1.785720 0.000000 
#    z -0.034070 0.000000 1.759670 
# 
# From -- ./inp_files/311275.got.cif
#   From: 2010.05.17/outbox.cif.g08.bks.cpg/sg15_156_cif.got.tgz:311275.got - 2010.06.03 18:47:42.
