data_PCOD9260614
_publ_section_title
;
Structure prediction by ZEFSAII (Michael W. Deem and Ramdas Pophale) SiO2 
 PCOD9260614
Probable space group: C 2/C
;
_chemical_formula_sum "Si O2"
_cell_formula_units_Z 60
_cell_length_a 11.811736
_cell_length_b 19.901124
_cell_length_c 11.455940
_cell_angle_alpha 90.000000
_cell_angle_beta 69.785344
_cell_angle_gamma 90.000000
_cell_volume 2527.040641
_symmetry_space_group_name_H-M "C 2/C"
_symmetry_group_IT_number 15
_symmetry_cell_setting 'monoclinic'
loop_
_space_group_symop_operation_xyz
x,y,z
-x,y,1/2-z
-x,-y,-z
x,-y,1/2+z
1/2+x,1/2+y,z
1/2-x,1/2+y,1/2-z
1/2-x,1/2-y,-z
1/2+x,1/2-y,1/2+z
loop_
_atom_site_type_symbol
_atom_site_label
_atom_site_fract_x
_atom_site_fract_y
_atom_site_fract_z
Si Si1 0.632703 0.441671 0.760342
Si Si2 0.377692 0.325762 0.014777
Si Si3 0.500000 0.068394 0.250000
Si Si4 0.667433 0.957035 0.266047
Si Si5 0.731746 0.547469 0.991181
Si Si6 0.866477 0.814408 0.565742
Si Si7 0.633867 0.766591 0.205787
Si Si8 0.807698 0.395307 0.004038
O O1 0.500000 0.452452 0.750000
O O2 0.697380 0.509664 0.782475
O O3 0.728460 0.424117 0.623434
O O4 0.629491 0.383074 0.856356
O O5 0.377484 0.406600 0.016486
O O6 0.253407 0.302939 0.117032
O O7 0.499887 0.300746 0.029938
O O8 0.383450 0.294598 0.882034
O O9 0.587556 0.107013 0.130689
O O10 0.576703 0.018936 0.305831
O O11 0.658592 0.934763 0.134134
O O12 0.653752 0.904976 0.375306
O O13 0.738071 0.467146 0.005656
O O14 0.839619 0.759472 0.673602
O O15 0.776215 0.832625 0.494934
O O16 0.500000 0.799648 0.250000
#
# Coordination Sequence:
#
# PCOD9260614 Si02
#       8
#     8   8   4   8   8   8   8   8
#     4  11  18  31  54  85 120 161 200 249 305 369
#     4  10  19  32  59  87 123 163 211 267 311 353
#     4  10  18  38  58  78 126 170 212 252 296 374
#     4  10  22  35  51  88 127 164 202 252 304 380
#     4  10  19  32  53  85 125 156 198 256 303 370
#     4  11  18  36  60  89 124 162 207 261 315 376
#     4   9  19  36  57  89 125 163 216 266 312 361
#     4  10  22  35  58  88 125 167 208 252 317 395
#
# _framework density 23.743189000000001
#
# number of rings (size 3 to 8) (size 9 to 14) (size 15 to 20)
#    0.000    1.867    5.333    0.800    0.000    3.200 
#    4.800    0.000    5.867    0.800    0.000    0.000 
#    0.000    0.000    0.000    0.000    0.000    0.000 
#
# Total GULP energy -167055.315717 kJ/mol
# GULP energy per Si atom -5568.510524 kJ/mol
# Density = 2.368915 g / cm^3
# Si number density = 23.743189 Si / 1000 Ang^3
#
#
#
# Elastic Constant Matrix: (Units=GPa)
#
#
# Indices 1 2 3 4 5 6 
#
# 1 104.6372 20.3222 42.4282 0.0000 -3.4548 0.0000
# 2 20.3222 49.1170 13.9392 0.0000 -2.4765 0.0000
# 3 42.4282 13.9392 114.6254 0.0000 -11.0541 0.0000
# 4 0.0000 0.0000 0.0000 8.9591 0.0000 2.5506
# 5 -3.4548 -2.4765 -11.0541 0.0000 31.5836 0.0000
# 6 0.0000 0.0000 0.0000 2.5506 0.0000 28.3378
#
#
#
# Elastic Compliance Matrix: (Units=1/GPa)
#
#
# Indices 1 2 3 4 5 6 
#
# 1 0.011897 -0.003813 -0.003978 0.000000 -0.000390 0.000000
# 2 -0.003813 0.022328 -0.001216 0.000000 0.000908 0.000000
# 3 -0.003978 -0.001216 0.010653 0.000000 0.003198 0.000000
# 4 0.000000 0.000000 0.000000 0.114554 0.000000 -0.010311
# 5 -0.000390 0.000908 0.003198 0.000000 0.032810 0.000000
# 6 0.000000 0.000000 0.000000 -0.010311 0.000000 0.036217
#
#
# Mechanical properties :
#
#
# Convention : Reuss Voigt Hill
#
# Bulk Modulus (GPa) = 37.22461 46.86208 42.04335
# Shear Modulus (GPa) = 19.57501 26.55543 23.06522
#
# Velocity S-wave (km/s) = 2.87443 3.34794 3.12018
# Velocity P-wave (km/s) = 5.16997 5.89278 5.54317
#
# Compressibility (1/GPa) = 0.02686395
#
# Stress axis : x y z
#
# Youngs Moduli (GPa) = 84.05167 44.78625 93.87301
#
# Poissons Ratio (x) = 0.17079 0.37339
# Poissons Ratio (y) = 0.32052 0.11417
# Poissons Ratio (z) = 0.33433 0.05447
#
# Static dielectric constant tensor:
#      x y z
#    x 1.961540 0.000000 0.063280 
#    y 0.000000 2.001430 0.000000 
#    z 0.063280 0.000000 1.978410 
# 
# From -- ./inp_files/90769.got.cif
#   From: 2010.05.17/outbox.cif.g08.bks.cpg/sg15_46_cif.got.tgz:90769.got - 2010.06.03 18:47:42.
