data_PCOD9260733
_publ_section_title
;
Structure prediction by ZEFSAII (Michael W. Deem and Ramdas Pophale) SiO2 
 PCOD9260733
Probable space group: C 2/C
;
_chemical_formula_sum "Si O2"
_cell_formula_units_Z 52
_cell_length_a 13.575869
_cell_length_b 12.063560
_cell_length_c 24.856758
_cell_angle_alpha 90.000000
_cell_angle_beta 45.085131
_cell_angle_gamma 90.000000
_cell_volume 2882.816091
_symmetry_space_group_name_H-M "C 2/C"
_symmetry_group_IT_number 15
_symmetry_cell_setting 'monoclinic'
loop_
_space_group_symop_operation_xyz
x,y,z
-x,y,1/2-z
-x,-y,-z
x,-y,1/2+z
1/2+x,1/2+y,z
1/2-x,1/2+y,1/2-z
1/2-x,1/2-y,-z
1/2+x,1/2-y,1/2+z
loop_
_atom_site_type_symbol
_atom_site_label
_atom_site_fract_x
_atom_site_fract_y
_atom_site_fract_z
Si Si1 0.438048 0.308567 0.089713
Si Si2 0.624086 0.772484 0.239318
Si Si3 0.382902 0.535678 0.905773
Si Si4 0.554638 0.146881 0.599179
Si Si5 0.053652 0.561381 0.032516
Si Si6 0.368853 0.346224 0.001075
Si Si7 0.000000 0.055564 0.250000
O O1 0.277496 0.313754 0.169389
O O2 0.532056 0.369225 0.097070
O O3 0.486252 0.181392 0.065315
O O4 0.444594 0.365877 0.028270
O O5 0.500000 0.822419 0.250000
O O6 0.568867 0.798132 0.319897
O O7 0.615828 0.641904 0.227774
O O8 0.395664 0.428688 0.940715
O O9 0.441076 0.509462 0.823933
O O10 0.220989 0.567164 0.964843
O O11 0.588170 0.223635 0.534852
O O12 0.701924 0.151199 0.573936
O O13 0.521937 0.022691 0.593784
O O14 0.000000 0.500000 0.000000
#
# Coordination Sequence:
#
# PCOD9260733 Si02
#       7
#     8   8   8   8   8   8   4
#     4  12  23  38  61  92 126 159 195 246 318 364
#     4  10  20  37  62  87 116 151 203 258 287 351
#     4  11  24  39  62  90 127 155 203 256 303 366
#     4  10  19  36  64  88 115 150 209 248 294 346
#     4  11  23  39  64  87 117 165 202 248 298 369
#     4  10  18  38  62  92 112 155 202 253 294 354
#     4  10  20  40  62  86 118 162 208 250 298 346
#
# _framework density 18.037918999999999
#
# number of rings (size 3 to 8) (size 9 to 14) (size 15 to 20)
#    0.462    0.923    4.615    1.846    2.154    2.462 
#    0.000    0.000    1.692    0.000    0.000    0.000 
#    0.000    0.000    0.000    0.000    0.000    0.000 
#
# Total GULP energy -144977.668332 kJ/mol
# GULP energy per Si atom -5576.064167 kJ/mol
# Density = 1.799686 g / cm^3
# Si number density = 18.037919 Si / 1000 Ang^3
#
#
#
# Elastic Constant Matrix: (Units=GPa)
#
#
# Indices 1 2 3 4 5 6 
#
# 1 113.2513 42.9152 62.4564 0.0000 -3.2485 0.0000
# 2 42.9152 85.1122 49.1560 0.0000 -0.4990 0.0000
# 3 62.4564 49.1560 106.1623 0.0000 10.8620 0.0000
# 4 0.0000 0.0000 0.0000 16.6437 0.0000 3.7959
# 5 -3.2485 -0.4990 10.8620 0.0000 25.8829 0.0000
# 6 0.0000 0.0000 0.0000 3.7959 0.0000 30.9769
#
#
#
# Elastic Compliance Matrix: (Units=1/GPa)
#
#
# Indices 1 2 3 4 5 6 
#
# 1 0.014192 -0.002751 -0.007578 0.000000 0.004908 0.000000
# 2 -0.002751 0.016895 -0.006481 0.000000 0.002700 0.000000
# 3 -0.007578 -0.006481 0.017751 0.000000 -0.008525 0.000000
# 4 0.000000 0.000000 0.000000 0.061810 0.000000 -0.007574
# 5 0.004908 0.002700 -0.008525 0.000000 0.042881 0.000000
# 6 0.000000 0.000000 0.000000 -0.007574 0.000000 0.033210
#
#
# Mechanical properties :
#
#
# Convention : Reuss Voigt Hill
#
# Bulk Modulus (GPa) = 65.70730 68.17566 66.94148
# Shear Modulus (GPa) = 22.17969 24.70059 23.44014
#
# Velocity S-wave (km/s) = 3.51039 3.70451 3.60876
# Velocity P-wave (km/s) = 7.27577 7.49505 7.38622
#
# Compressibility (1/GPa) = 0.01521901
#
# Stress axis : x y z
#
# Youngs Moduli (GPa) = 70.46142 59.18941 56.33532
#
# Poissons Ratio (x) = 0.16280 0.42691
# Poissons Ratio (y) = 0.19381 0.36510
# Poissons Ratio (z) = 0.53396 0.38360
#
# Static dielectric constant tensor:
#      x y z
#    x 1.629260 0.000000 0.023600 
#    y 0.000000 1.618710 0.000000 
#    z 0.023600 0.000000 1.617870 
# 
# From -- ./inp_files/204196.got.cif
#   From: 2010.05.17/outbox.cif.g08.bks.cpg/sg15_103_cif.got.tgz:204196.got - 2010.06.03 18:47:42.
