data_PCOD9260564
_publ_section_title
;
Structure prediction by ZEFSAII (Michael W. Deem and Ramdas Pophale) SiO2 
 PCOD9260564
Probable space group: C 2/C
;
_chemical_formula_sum "Si O2"
_cell_formula_units_Z 48
_cell_length_a 19.283895
_cell_length_b 8.297887
_cell_length_c 29.915371
_cell_angle_alpha 90.000000
_cell_angle_beta 156.528286
_cell_angle_gamma 90.000000
_cell_volume 1906.614628
_symmetry_space_group_name_H-M "C 2/C"
_symmetry_group_IT_number 15
_symmetry_cell_setting 'monoclinic'
loop_
_space_group_symop_operation_xyz
x,y,z
-x,y,1/2-z
-x,-y,-z
x,-y,1/2+z
1/2+x,1/2+y,z
1/2-x,1/2+y,1/2-z
1/2-x,1/2-y,-z
1/2+x,1/2-y,1/2+z
loop_
_atom_site_type_symbol
_atom_site_label
_atom_site_fract_x
_atom_site_fract_y
_atom_site_fract_z
Si Si1 0.849075 0.428315 0.593246
Si Si2 0.648718 0.585658 0.883022
Si Si3 0.216507 0.803066 0.715532
Si Si4 0.519502 0.380521 0.077179
Si Si5 0.054026 0.241501 0.364427
Si Si6 0.631739 0.146063 0.575381
O O1 0.792771 0.421393 0.507944
O O2 0.937611 0.260124 0.658944
O O3 0.663384 0.436416 0.509291
O O4 0.962641 0.586291 0.669560
O O5 0.544059 0.420727 0.829281
O O6 0.735685 0.602179 0.886135
O O7 0.399587 0.769094 0.847239
O O8 0.203699 0.680087 0.666900
O O9 0.076787 0.769577 0.671866
O O10 0.162092 0.978901 0.665454
O O11 0.472468 0.306653 0.001641
O O12 0.250000 0.250000 0.500000
O O13 0.500000 0.000000 0.500000
#
# Coordination Sequence:
#
# PCOD9260564 Si02
#       6
#     8   8   8   8   8   8
#     4   9  18  36  64  94 125 173 231 266 343 410
#     4   9  18  34  63  95 120 172 225 272 330 418
#     4  12  24  42  66 104 139 176 235 287 349 413
#     4  11  24  42  66  97 139 180 222 290 346 413
#     4  10  18  37  68  92 123 184 226 273 341 422
#     4  11  23  40  66 100 135 176 226 287 349 406
#
# _framework density 25.175512999999999
#
# number of rings (size 3 to 8) (size 9 to 14) (size 15 to 20)
#    0.000    1.667    3.333    3.500    0.000    4.000 
#    0.000    0.833    3.667    1.000    0.000    0.000 
#    0.000    0.000    0.000    0.000    0.000    0.000 
#
# Total GULP energy -134351.667882 kJ/mol
# GULP energy per Si atom -5597.986162 kJ/mol
# Density = 2.511821 g / cm^3
# Si number density = 25.175513 Si / 1000 Ang^3
#
#
#
# Elastic Constant Matrix: (Units=GPa)
#
#
# Indices 1 2 3 4 5 6 
#
# 1 131.5364 61.7598 25.2109 -0.0008 3.0761 0.0001
# 2 61.7598 209.3656 17.0418 0.0000 13.5034 0.0000
# 3 25.2109 17.0418 52.1118 0.0086 -6.5074 -0.0016
# 4 -0.0008 0.0000 0.0086 30.8553 -0.0008 3.7409
# 5 3.0761 13.5034 -6.5074 -0.0008 39.7222 -0.0001
# 6 0.0001 0.0000 -0.0016 3.7409 -0.0001 32.6500
#
#
#
# Elastic Compliance Matrix: (Units=1/GPa)
#
#
# Indices 1 2 3 4 5 6 
#
# 1 0.009509 -0.002456 -0.003864 0.000001 -0.000534 0.000000
# 2 -0.002456 0.005697 -0.000912 0.000000 -0.001896 0.000000
# 3 -0.003864 -0.000912 0.021881 -0.000006 0.004194 0.000002
# 4 0.000001 0.000000 -0.000006 0.032866 -0.000001 -0.003766
# 5 -0.000534 -0.001896 0.004194 -0.000001 0.026548 0.000000
# 6 0.000000 0.000000 0.000002 -0.003766 0.000000 0.031059
#
#
# Mechanical properties :
#
#
# Convention : Reuss Voigt Hill
#
# Bulk Modulus (GPa) = 44.20152 66.78209 55.49180
# Shear Modulus (GPa) = 33.43061 39.91226 36.67143
#
# Velocity S-wave (km/s) = 3.64799 3.98598 3.82072
# Velocity P-wave (km/s) = 5.94468 6.91146 6.44622
#
# Compressibility (1/GPa) = 0.02262366
#
# Stress axis : x y z
#
# Youngs Moduli (GPa) = 105.16774 175.52187 45.70265
#
# Poissons Ratio (x) = 0.43107 0.17658
# Poissons Ratio (y) = 0.25829 0.04167
# Poissons Ratio (z) = 0.40634 0.16004
#
# Static dielectric constant tensor:
#      x y z
#    x 1.971350 0.000000 0.007240 
#    y 0.000000 2.079050 0.000000 
#    z 0.007240 0.000000 1.961000 
# 
# From -- ./inp_files/315768.got.cif
#   From: 2010.05.17/outbox.cif.g08.bks.cpg/sg15_158_cif.got.tgz:315768.got - 2010.06.03 18:47:42.
