data_PCOD9260711
_publ_section_title
;
Structure prediction by ZEFSAII (Michael W. Deem and Ramdas Pophale) SiO2 
 PCOD9260711
Probable space group: C 2/C
;
_chemical_formula_sum "Si O2"
_cell_formula_units_Z 40
_cell_length_a 12.409691
_cell_length_b 25.484278
_cell_length_c 10.422031
_cell_angle_alpha 90.000000
_cell_angle_beta 40.166925
_cell_angle_gamma 90.000000
_cell_volume 2125.967388
_symmetry_space_group_name_H-M "C 2/C"
_symmetry_group_IT_number 15
_symmetry_cell_setting 'monoclinic'
loop_
_space_group_symop_operation_xyz
x,y,z
-x,y,1/2-z
-x,-y,-z
x,-y,1/2+z
1/2+x,1/2+y,z
1/2-x,1/2+y,1/2-z
1/2-x,1/2-y,-z
1/2+x,1/2-y,1/2+z
loop_
_atom_site_type_symbol
_atom_site_label
_atom_site_fract_x
_atom_site_fract_y
_atom_site_fract_z
Si Si1 0.596273 0.929642 0.295842
Si Si2 0.818151 0.860267 0.478635
Si Si3 0.184179 0.670393 0.842490
Si Si4 0.607791 0.770611 0.785197
Si Si5 0.869160 0.454577 0.749178
O O1 0.500000 0.924590 0.250000
O O2 0.696803 0.876071 0.229666
O O3 0.465867 0.937308 0.532230
O O4 0.692033 0.985301 0.207457
O O5 0.693595 0.858450 0.471068
O O6 0.762785 0.808892 0.608891
O O7 0.776084 0.912894 0.592449
O O8 0.000000 0.859599 0.250000
O O9 0.323097 0.715732 0.725482
O O10 0.007907 0.700334 0.006365
O O11 0.500000 0.764344 0.750000
O O12 0.000000 0.454572 0.750000
#
# Coordination Sequence:
#
# PCOD9260711 Si02
#       5
#     8   8   8   8   8
#     4  10  21  35  62  82 111 149 193 226 278 338
#     4  11  19  32  57  91 116 140 182 241 284 323
#     4  11  19  35  55  86 112 148 185 237 278 331
#     4  10  19  32  54  87 115 143 185 238 280 327
#     4  10  18  38  62  85 107 146 193 236 272 331
#
# _framework density 18.814964
#
# number of rings (size 3 to 8) (size 9 to 14) (size 15 to 20)
#    0.000    1.600    4.000    4.800    0.000    0.000 
#    0.000    2.000    0.000    0.000    0.000    0.000 
#    0.000    0.000    0.000    0.000    0.000    0.000 
#
# Total GULP energy -111486.144356 kJ/mol
# GULP energy per Si atom -5574.307218 kJ/mol
# Density = 1.877214 g / cm^3
# Si number density = 18.814964 Si / 1000 Ang^3
#
#
#
# Elastic Constant Matrix: (Units=GPa)
#
#
# Indices 1 2 3 4 5 6 
#
# 1 51.2091 44.9081 16.8904 0.0000 13.4176 0.0000
# 2 44.9081 197.8316 54.1887 0.0000 -13.5765 0.0000
# 3 16.8904 54.1887 72.6171 0.0000 -11.0028 0.0000
# 4 0.0000 0.0000 0.0000 26.1896 0.0000 3.4020
# 5 13.4176 -13.5765 -11.0028 0.0000 21.6629 0.0000
# 6 0.0000 0.0000 0.0000 3.4020 0.0000 36.7775
#
#
#
# Elastic Compliance Matrix: (Units=1/GPa)
#
#
# Indices 1 2 3 4 5 6 
#
# 1 0.038566 -0.009049 -0.007255 0.000000 -0.033243 0.000000
# 2 -0.009049 0.008535 -0.002822 0.000000 0.009521 0.000000
# 3 -0.007255 -0.002822 0.019476 0.000000 0.012617 0.000000
# 4 0.000000 0.000000 0.000000 0.038648 0.000000 -0.003575
# 5 -0.033243 0.009521 0.012617 0.000000 0.079127 0.000000
# 6 0.000000 0.000000 0.000000 -0.003575 0.000000 0.027521
#
#
# Mechanical properties :
#
#
# Convention : Reuss Voigt Hill
#
# Bulk Modulus (GPa) = 35.30309 61.51469 48.40889
# Shear Modulus (GPa) = 19.26288 30.63738 24.95013
#
# Velocity S-wave (km/s) = 3.20317 4.03966 3.64549
# Velocity P-wave (km/s) = 5.69951 7.38404 6.59577
#
# Compressibility (1/GPa) = 0.02832613
#
# Stress axis : x y z
#
# Youngs Moduli (GPa) = 25.92936 117.16159 51.34567
#
# Poissons Ratio (x) = 1.06017 0.37251
# Poissons Ratio (y) = 0.23463 0.14490
# Poissons Ratio (z) = 0.18811 0.33062
#
# Static dielectric constant tensor:
#      x y z
#    x 1.659540 0.000000 -0.018540 
#    y 0.000000 1.733390 0.000000 
#    z -0.018540 0.000000 1.674890 
# 
# From -- ./inp_files/31733.got.cif
#   From: 2010.05.17/outbox.cif.g08.bks.cpg/sg15_16_cif.got.tgz:31733.got - 2010.06.03 18:47:42.
