data_PCOD9260389
_publ_section_title
;
Structure prediction by ZEFSAII (Michael W. Deem and Ramdas Pophale) SiO2 
 PCOD9260389
Probable space group: C 2/C
;
_chemical_formula_sum "Si O2"
_cell_formula_units_Z 44
_cell_length_a 7.599048
_cell_length_b 20.705017
_cell_length_c 10.892280
_cell_angle_alpha 90.000000
_cell_angle_beta 98.323844
_cell_angle_gamma 90.000000
_cell_volume 1695.720571
_symmetry_space_group_name_H-M "C 2/C"
_symmetry_group_IT_number 15
_symmetry_cell_setting 'monoclinic'
loop_
_space_group_symop_operation_xyz
x,y,z
-x,y,1/2-z
-x,-y,-z
x,-y,1/2+z
1/2+x,1/2+y,z
1/2-x,1/2+y,1/2-z
1/2-x,1/2-y,-z
1/2+x,1/2-y,1/2+z
loop_
_atom_site_type_symbol
_atom_site_label
_atom_site_fract_x
_atom_site_fract_y
_atom_site_fract_z
Si Si1 0.617649 0.650784 0.993249
Si Si2 0.293161 0.619404 0.113915
Si Si3 0.000000 0.567533 0.250000
Si Si4 0.500000 0.437947 0.250000
Si Si5 0.981336 0.706287 0.005571
Si Si6 0.500000 0.157753 0.750000
Si Si7 0.204206 0.462057 0.383895
O O1 0.577718 0.604624 0.872094
O O2 0.828388 0.657276 0.037631
O O3 0.497995 0.634933 0.101543
O O4 0.554746 0.722818 0.948829
O O5 0.171962 0.605094 0.219317
O O6 0.266770 0.556631 0.023922
O O7 0.177751 0.680217 0.050245
O O8 0.940042 0.517321 0.137622
O O9 0.358024 0.481553 0.305516
O O10 0.944702 0.702635 0.856142
O O11 0.359437 0.106566 0.680602
#
# Coordination Sequence:
#
# PCOD9260389 Si02
#       7
#     8   8   4   4   8   4   8
#     4  10  21  38  61  90 119 151 196 237 294 354
#     4  10  22  40  59  85 121 153 198 245 288 356
#     4  11  22  41  58  84 118 159 192 255 310 326
#     4  10  18  37  60  88 112 155 208 246 276 362
#     4  10  20  38  60  90 119 156 189 237 294 356
#     4   9  16  34  60  78 116 154 194 229 278 358
#     4   9  19  36  61  80 108 158 204 234 291 349
#
# _framework density 25.947673000000002
#
# number of rings (size 3 to 8) (size 9 to 14) (size 15 to 20)
#    0.000    2.182    1.818    1.091    0.000    0.727 
#    9.818    1.818    0.000    0.000    0.000    0.000 
#    0.000    0.000    0.000    0.000    0.000    0.000 
#
# Total GULP energy -122880.485025 kJ/mol
# GULP energy per Si atom -5585.476592 kJ/mol
# Density = 2.588862 g / cm^3
# Si number density = 25.947673 Si / 1000 Ang^3
#
#
#
# Elastic Constant Matrix: (Units=GPa)
#
#
# Indices 1 2 3 4 5 6 
#
# 1 138.2680 9.8810 22.6167 0.0000 -32.9403 0.0000
# 2 9.8810 71.3768 18.1107 0.0000 4.4099 0.0000
# 3 22.6167 18.1107 103.4464 0.0000 -42.2788 0.0000
# 4 0.0000 0.0000 0.0000 -40.1905 0.0000 42.7777
# 5 -32.9403 4.4099 -42.2788 0.0000 42.3103 0.0000
# 6 0.0000 0.0000 0.0000 42.7777 0.0000 -10.7963
#
#
#
# Elastic Compliance Matrix: (Units=1/GPa)
#
#
# Indices 1 2 3 4 5 6 
#
# 1 0.009415 -0.002571 0.002530 0.000000 0.010126 0.000000
# 2 -0.002571 0.016668 -0.006566 0.000000 -0.010300 0.000000
# 3 0.002530 -0.006566 0.019182 0.000000 0.021822 0.000000
# 4 0.000000 0.000000 0.000000 0.007734 0.000000 0.030642
# 5 0.010126 -0.010300 0.021822 0.000000 0.054397 0.000000
# 6 0.000000 0.000000 0.000000 0.030642 0.000000 0.028789
#
#
# Mechanical properties :
#
#
# Convention : Reuss Voigt Hill
#
# Bulk Modulus (GPa) = 31.19916 46.03423 38.61669
# Shear Modulus (GPa) = 31.23419 15.76357 23.49888
#
# Velocity S-wave (km/s) = 3.47326 2.46745 3.01263
# Velocity P-wave (km/s) = 5.30421 5.08895 5.19770
#
# Compressibility (1/GPa) = 0.03205214
#
# Stress axis : x y z
#
# Youngs Moduli (GPa) = 106.21875 59.99408 52.13313
#
# Poissons Ratio (x) = 0.15424 -0.13191
# Poissons Ratio (y) = 0.27308 0.34228
# Poissons Ratio (z) = -0.26876 0.39389
#
# Static dielectric constant tensor:
#      x y z
#    x 2.086480 0.000000 0.006120 
#    y 0.000000 1.981360 0.000000 
#    z 0.006120 0.000000 2.064850 
# 
# From -- ./inp_files/78233.got.cif
#   From: 2010.05.17/outbox.cif.g08.bks.cpg/sg15_40_cif.got.tgz:78233.got - 2010.06.03 18:47:42.
