data_PCOD9260522
_publ_section_title
;
Structure prediction by ZEFSAII (Michael W. Deem and Ramdas Pophale) SiO2 
 PCOD9260522
Probable space group: C 2/C
;
_chemical_formula_sum "Si O2"
_cell_formula_units_Z 48
_cell_length_a 8.574011
_cell_length_b 18.487890
_cell_length_c 16.743154
_cell_angle_alpha 90.000000
_cell_angle_beta 122.171929
_cell_angle_gamma 90.000000
_cell_volume 2246.529308
_symmetry_space_group_name_H-M "C 2/C"
_symmetry_group_IT_number 15
_symmetry_cell_setting 'monoclinic'
loop_
_space_group_symop_operation_xyz
x,y,z
-x,y,1/2-z
-x,-y,-z
x,-y,1/2+z
1/2+x,1/2+y,z
1/2-x,1/2+y,1/2-z
1/2-x,1/2-y,-z
1/2+x,1/2-y,1/2+z
loop_
_atom_site_type_symbol
_atom_site_label
_atom_site_fract_x
_atom_site_fract_y
_atom_site_fract_z
Si Si1 0.808389 0.170211 0.341270
Si Si2 0.466873 0.874588 0.862595
Si Si3 0.887883 0.052841 0.028953
Si Si4 0.012146 0.545515 0.848105
Si Si5 0.819849 0.302454 0.449698
Si Si6 0.167120 0.064177 0.853252
O O1 0.718391 0.156101 0.229428
O O2 0.639411 0.147737 0.353580
O O3 0.853419 0.251947 0.381636
O O4 0.978421 0.116355 0.404516
O O5 0.479580 0.961183 0.862527
O O6 0.508575 0.844468 0.962306
O O7 0.819259 0.002430 0.083013
O O8 0.706075 0.074944 0.931594
O O9 0.000000 0.000000 0.000000
O O10 0.844545 0.581488 0.848226
O O11 0.000000 0.551034 0.750000
O O12 0.750000 0.250000 0.500000
O O13 0.654048 0.360383 0.395859
O O14 0.000000 0.048969 0.750000
#
# Coordination Sequence:
#
# PCOD9260522 Si02
#       6
#     8   8   8   8   8   8
#     4  10  20  36  63  94 128 172 214 266 325 399
#     4  10  18  37  65  88 130 171 216 259 334 388
#     4  12  21  42  65  99 132 172 218 272 338 396
#     4  12  23  42  67  96 134 173 217 282 339 395
#     4  10  22  38  61  98 127 173 220 273 320 407
#     4  12  26  40  68 103 129 169 230 281 330 400
#
# _framework density 21.366289999999999
#
# number of rings (size 3 to 8) (size 9 to 14) (size 15 to 20)
#    0.000    1.000    5.000    3.500    4.667    0.000 
#    0.000    0.833    0.000    1.000    0.000    0.000 
#    0.000    0.000    0.000    0.000    0.000    0.000 
#
# Total GULP energy -134007.094205 kJ/mol
# GULP energy per Si atom -5583.628925 kJ/mol
# Density = 2.131766 g / cm^3
# Si number density = 21.366290 Si / 1000 Ang^3
#
#
#
# Elastic Constant Matrix: (Units=GPa)
#
#
# Indices 1 2 3 4 5 6 
#
# 1 69.8322 -7.5466 26.2473 0.0000 12.6453 0.0000
# 2 -7.5466 68.2754 25.2745 0.0000 -4.1715 0.0000
# 3 26.2473 25.2745 153.7768 0.0000 14.1335 0.0000
# 4 0.0000 0.0000 0.0000 -11.0080 0.0000 1.6202
# 5 12.6453 -4.1715 14.1335 0.0000 25.1171 0.0000
# 6 0.0000 0.0000 0.0000 1.6202 0.0000 19.9428
#
#
#
# Elastic Compliance Matrix: (Units=1/GPa)
#
#
# Indices 1 2 3 4 5 6 
#
# 1 0.016768 0.002439 -0.002662 0.000000 -0.006539 0.000000
# 2 0.002439 0.016393 -0.003425 0.000000 0.003422 0.000000
# 3 -0.002662 -0.003425 0.007856 0.000000 -0.003649 0.000000
# 4 0.000000 0.000000 0.000000 -0.089769 0.000000 0.007293
# 5 -0.006539 0.003422 -0.003649 0.000000 0.045727 0.000000
# 6 0.000000 0.000000 0.000000 0.007293 0.000000 0.049551
#
#
# Mechanical properties :
#
#
# Convention : Reuss Voigt Hill
#
# Bulk Modulus (GPa) = 29.65476 42.20387 35.92931
# Shear Modulus (GPa) = 76.84926 23.33764 50.09345
#
# Velocity S-wave (km/s) = 6.00380 3.30853 4.84727
# Velocity P-wave (km/s) = 7.87211 5.86435 6.94121
#
# Compressibility (1/GPa) = 0.03372140
#
# Stress axis : x y z
#
# Youngs Moduli (GPa) = 59.63628 61.00080 127.29699
#
# Poissons Ratio (x) = -0.14880 0.33887
# Poissons Ratio (y) = -0.14547 0.43602
# Poissons Ratio (z) = 0.15875 0.20894
#
# Static dielectric constant tensor:
#      x y z
#    x 1.736640 0.000000 0.013480 
#    y 0.000000 1.903850 0.000000 
#    z 0.013480 0.000000 1.820630 
# 
# From -- ./inp_files/192313.got.cif
#   From: 2010.05.17/outbox.cif.g08.bks.cpg/sg15_97_cif.got.tgz:192313.got - 2010.06.03 18:47:42.
