data_PCOD9260407
_publ_section_title
;
Structure prediction by ZEFSAII (Michael W. Deem and Ramdas Pophale) SiO2 
 PCOD9260407
Probable space group: C 2/C
;
_chemical_formula_sum "Si O2"
_cell_formula_units_Z 64
_cell_length_a 14.536548
_cell_length_b 32.596433
_cell_length_c 8.981612
_cell_angle_alpha 90.000000
_cell_angle_beta 131.287668
_cell_angle_gamma 90.000000
_cell_volume 3197.867109
_symmetry_space_group_name_H-M "C 2/C"
_symmetry_group_IT_number 15
_symmetry_cell_setting 'monoclinic'
loop_
_space_group_symop_operation_xyz
x,y,z
-x,y,1/2-z
-x,-y,-z
x,-y,1/2+z
1/2+x,1/2+y,z
1/2-x,1/2+y,1/2-z
1/2-x,1/2-y,-z
1/2+x,1/2-y,1/2+z
loop_
_atom_site_type_symbol
_atom_site_label
_atom_site_fract_x
_atom_site_fract_y
_atom_site_fract_z
Si Si1 0.877494 0.141575 0.554905
Si Si2 0.619955 0.639638 0.293959
Si Si3 0.718235 0.283435 0.090140
Si Si4 0.624312 0.731116 0.804670
Si Si5 0.542453 0.173414 0.645314
Si Si6 0.660315 0.087593 0.886545
Si Si7 0.499763 0.951880 0.477044
Si Si8 0.097799 0.374375 0.737187
O O1 0.894836 0.149233 0.396494
O O2 0.872498 0.183821 0.640992
O O3 0.740643 0.123500 0.427516
O O4 0.000000 0.119597 0.750000
O O5 0.500000 0.625705 0.250000
O O6 0.663173 0.678964 0.436046
O O7 0.714308 0.602424 0.412241
O O8 0.631969 0.267819 0.132581
O O9 0.845225 0.300568 0.299698
O O10 0.750000 0.250000 0.000000
O O11 0.500000 0.748136 0.750000
O O12 0.750000 0.750000 0.000000
O O13 0.500000 0.195826 0.750000
O O14 0.600918 0.130488 0.766280
O O15 0.427640 0.157564 0.426233
O O16 0.638929 0.060097 0.718472
O O17 0.589600 0.062674 0.939117
O O18 0.548055 0.920024 0.650209
O O19 0.500000 0.000000 0.500000
O O20 0.000000 0.357481 0.750000
#
# Coordination Sequence:
#
# PCOD9260407 Si02
#       8
#     8   8   8   8   8   8   8   8
#     4  11  23  41  60  88 126 164 212 274 327 388
#     4  11  21  39  67  86 120 175 223 262 310 396
#     4  11  24  39  61  96 124 168 227 274 329 395
#     4  11  25  43  59  85 129 167 206 272 341 388
#     4  10  18  37  61  85 124 163 203 269 311 380
#     4   9  18  37  58  90 126 158 207 250 317 376
#     4  10  19  34  61  92 126 155 192 260 325 378
#     4  11  21  35  59  94 121 160 208 248 322 385
#
# _framework density 20.013338999999998
#
# number of rings (size 3 to 8) (size 9 to 14) (size 15 to 20)
#    0.000    1.500    3.750    3.750    1.750    5.000 
#    0.000    0.000    0.000    1.500    0.000    0.000 
#    0.000    0.000    0.000    0.000    0.000    0.000 
#
# Total GULP energy -178254.370304 kJ/mol
# GULP energy per Si atom -5570.449072 kJ/mol
# Density = 1.996779 g / cm^3
# Si number density = 20.013339 Si / 1000 Ang^3
#
#
#
# Elastic Constant Matrix: (Units=GPa)
#
#
# Indices 1 2 3 4 5 6 
#
# 1 126.4446 32.6149 57.5773 0.0000 -4.0993 0.0000
# 2 32.6149 68.4784 31.5130 0.0000 -0.7095 0.0000
# 3 57.5773 31.5130 120.1538 0.0000 8.9786 0.0000
# 4 0.0000 0.0000 0.0000 6.9366 0.0000 4.4925
# 5 -4.0993 -0.7095 8.9786 0.0000 29.4132 0.0000
# 6 0.0000 0.0000 0.0000 4.4925 0.0000 15.0142
#
#
#
# Elastic Compliance Matrix: (Units=1/GPa)
#
#
# Indices 1 2 3 4 5 6 
#
# 1 0.010895 -0.003023 -0.004642 0.000000 0.002862 0.000000
# 2 -0.003023 0.017537 -0.003224 0.000000 0.000986 0.000000
# 3 -0.004642 -0.003224 0.011714 0.000000 -0.004300 0.000000
# 4 0.000000 0.000000 0.000000 0.178816 0.000000 -0.053505
# 5 0.002862 0.000986 -0.004300 0.000000 0.035734 0.000000
# 6 0.000000 0.000000 0.000000 -0.053505 0.000000 0.082613
#
#
# Mechanical properties :
#
#
# Convention : Reuss Voigt Hill
#
# Bulk Modulus (GPa) = 54.44523 62.05413 58.24968
# Shear Modulus (GPa) = 13.69072 23.16423 18.42748
#
# Velocity S-wave (km/s) = 2.61833 3.40581 3.03769
# Velocity P-wave (km/s) = 6.03361 6.82200 6.43988
#
# Compressibility (1/GPa) = 0.01836708
#
# Stress axis : x y z
#
# Youngs Moduli (GPa) = 91.78631 57.02189 85.36779
#
# Poissons Ratio (x) = 0.17239 0.39626
# Poissons Ratio (y) = 0.27749 0.27526
# Poissons Ratio (z) = 0.42605 0.18386
#
# Static dielectric constant tensor:
#      x y z
#    x 1.629820 0.000000 -0.015670 
#    y 0.000000 1.695900 0.000000 
#    z -0.015670 0.000000 1.913470 
# 
# From -- ./inp_files/44900.got.cif
#   From: 2010.05.17/outbox.cif.g08.bks.cpg/sg15_23_cif.got.tgz:44900.got - 2010.06.03 18:47:42.
