data_PCOD9260637
_publ_section_title
;
Structure prediction by ZEFSAII (Michael W. Deem and Ramdas Pophale) SiO2 
 PCOD9260637
Probable space group: C 2/C
;
_chemical_formula_sum "Si O2"
_cell_formula_units_Z 48
_cell_length_a 8.724639
_cell_length_b 21.595834
_cell_length_c 10.824333
_cell_angle_alpha 90.000000
_cell_angle_beta 74.161746
_cell_angle_gamma 90.000000
_cell_volume 1962.049275
_symmetry_space_group_name_H-M "C 2/C"
_symmetry_group_IT_number 15
_symmetry_cell_setting 'monoclinic'
loop_
_space_group_symop_operation_xyz
x,y,z
-x,y,1/2-z
-x,-y,-z
x,-y,1/2+z
1/2+x,1/2+y,z
1/2-x,1/2+y,1/2-z
1/2-x,1/2-y,-z
1/2+x,1/2-y,1/2+z
loop_
_atom_site_type_symbol
_atom_site_label
_atom_site_fract_x
_atom_site_fract_y
_atom_site_fract_z
Si Si1 0.769918 0.850037 0.651005
Si Si2 0.322041 0.088284 0.578865
Si Si3 0.864335 0.441265 0.391722
Si Si4 0.000000 0.224493 0.250000
Si Si5 0.236704 0.175928 0.829916
Si Si6 0.500000 0.249788 0.250000
Si Si7 0.183718 0.026113 0.249867
O O1 0.757018 0.882999 0.523404
O O2 0.641420 0.795370 0.680290
O O3 0.932391 0.817798 0.656238
O O4 0.742354 0.905642 0.754920
O O5 0.508448 0.069185 0.525786
O O6 0.291894 0.140864 0.690524
O O7 0.243564 0.023847 0.637518
O O8 0.757861 0.379487 0.419885
O O9 0.741135 0.492742 0.366536
O O10 0.000000 0.442497 0.250000
O O11 0.860409 0.269383 0.327931
O O12 0.067191 0.205974 0.841925
O O13 0.000000 0.033787 0.250000
#
# Coordination Sequence:
#
# PCOD9260637 Si02
#       7
#     8   8   8   4   8   4   8
#     4  11  24  41  60  94 123 167 204 251 321 356
#     4  10  22  40  69  87 119 170 210 246 305 386
#     4   8  17  35  62  87 116 159 199 254 299 358
#     4  10  18  38  60  80 130 162 188 260 304 358
#     4   9  17  39  62  85 118 167 198 244 315 350
#     4  10  24  34  62  86 128 160 196 264 286 366
#     4  10  21  40  63  90 124 158 204 268 307 354
#
# _framework density 24.464220000000001
#
# number of rings (size 3 to 8) (size 9 to 14) (size 15 to 20)
#    0.000    2.667    3.333    0.000    8.167    4.000 
#    0.000    2.500    0.000    0.000    0.000    0.000 
#    0.000    0.000    0.000    0.000    0.000    0.000 
#
# Total GULP energy -133835.708044 kJ/mol
# GULP energy per Si atom -5576.487835 kJ/mol
# Density = 2.440854 g / cm^3
# Si number density = 24.464220 Si / 1000 Ang^3
#
#
#
# Elastic Constant Matrix: (Units=GPa)
#
#
# Indices 1 2 3 4 5 6 
#
# 1 133.3155 55.4639 19.5476 0.0000 32.5179 0.0000
# 2 55.4639 142.3351 14.5574 0.0000 10.4969 0.0000
# 3 19.5476 14.5574 57.3607 0.0000 6.8671 0.0000
# 4 0.0000 0.0000 0.0000 60.6508 0.0000 95.6913
# 5 32.5179 10.4969 6.8671 0.0000 14.4981 0.0000
# 6 0.0000 0.0000 0.0000 95.6913 0.0000 114.6749
#
#
#
# Elastic Compliance Matrix: (Units=1/GPa)
#
#
# Indices 1 2 3 4 5 6 
#
# 1 0.018956 -0.004444 -0.000665 0.000000 -0.038985 0.000000
# 2 -0.004444 0.008558 -0.001176 0.000000 0.004327 0.000000
# 3 -0.000665 -0.001176 0.018741 0.000000 -0.006534 0.000000
# 4 0.000000 0.000000 0.000000 -0.052085 0.000000 0.043462
# 5 -0.038985 0.004327 -0.006534 0.000000 0.156377 0.000000
# 6 0.000000 0.000000 0.000000 0.043462 0.000000 -0.027547
#
#
# Mechanical properties :
#
#
# Convention : Reuss Voigt Hill
#
# Bulk Modulus (GPa) = 29.68540 56.90546 43.29543
# Shear Modulus (GPa) = 34.06030 54.19424 44.12727
#
# Velocity S-wave (km/s) = 3.73533 4.71175 4.25166
# Velocity P-wave (km/s) = 5.54655 7.27406 6.46823
#
# Compressibility (1/GPa) = 0.03368660
#
# Stress axis : x y z
#
# Youngs Moduli (GPa) = 52.75256 116.84467 53.35959
#
# Poissons Ratio (x) = 0.51922 0.03549
# Poissons Ratio (y) = 0.23442 0.06274
# Poissons Ratio (z) = 0.03509 0.13738
#
# Static dielectric constant tensor:
#      x y z
#    x 1.951630 0.000000 0.003650 
#    y 0.000000 1.925610 0.000000 
#    z 0.003650 0.000000 2.134730 
# 
# From -- ./inp_files/135524.got.cif
#   From: 2010.05.17/outbox.cif.g08.bks.cpg/sg15_68_cif.got.tgz:135524.got - 2010.06.03 18:47:42.
