data_PCOD9260165
_publ_section_title
;
Structure prediction by ZEFSAII (Michael W. Deem and Ramdas Pophale) SiO2 
 PCOD9260165
Probable space group: C 2/C
;
_chemical_formula_sum "Si O2"
_cell_formula_units_Z 60
_cell_length_a 11.707723
_cell_length_b 13.802785
_cell_length_c 19.726926
_cell_angle_alpha 90.000000
_cell_angle_beta 69.455188
_cell_angle_gamma 90.000000
_cell_volume 2985.101170
_symmetry_space_group_name_H-M "C 2/C"
_symmetry_group_IT_number 15
_symmetry_cell_setting 'monoclinic'
loop_
_space_group_symop_operation_xyz
x,y,z
-x,y,1/2-z
-x,-y,-z
x,-y,1/2+z
1/2+x,1/2+y,z
1/2-x,1/2+y,1/2-z
1/2-x,1/2-y,-z
1/2+x,1/2-y,1/2+z
loop_
_atom_site_type_symbol
_atom_site_label
_atom_site_fract_x
_atom_site_fract_y
_atom_site_fract_z
Si Si1 0.500000 0.961187 0.750000
Si Si2 0.945914 0.354144 0.041793
Si Si3 0.691241 0.345231 0.930634
Si Si4 0.471060 0.628920 0.681503
Si Si5 0.972717 0.674155 0.381682
Si Si6 0.739983 0.463635 0.342046
Si Si7 0.283830 0.140994 0.972153
Si Si8 0.296117 0.541629 0.929804
O O1 0.480205 0.895158 0.687340
O O2 0.621714 0.020791 0.709619
O O3 0.901971 0.242521 0.058225
O O4 0.827091 0.419576 0.080342
O O5 0.069317 0.372454 0.056641
O O6 0.977990 0.369918 0.955492
O O7 0.829528 0.306423 0.896241
O O8 0.684873 0.433938 0.879740
O O9 0.685140 0.392011 0.006649
O O10 0.500000 0.666399 0.750000
O O11 0.465249 0.722028 0.634287
O O12 0.344009 0.575264 0.699994
O O13 0.582145 0.558829 0.637855
O O14 0.738493 0.393329 0.407870
O O15 0.250000 0.250000 0.000000
O O16 0.226498 0.066023 0.038142
#
# Coordination Sequence:
#
# PCOD9260165 Si02
#       8
#     4   8   8   8   8   8   8   8
#     4  10  22  44  64  82 128 168 196 244 308 374
#     4  11  19  36  66  98 120 149 207 258 309 357
#     4   9  18  36  65  91 117 157 196 255 312 352
#     4  12  23  37  62  91 118 157 210 249 293 355
#     4  10  18  36  63  95 116 153 209 250 295 356
#     4  10  25  42  60  88 124 166 202 241 318 375
#     4  11  25  39  61  92 127 167 197 250 320 367
#     4  10  21  38  61  90 124 151 204 261 293 353
#
# _framework density 20.099822
#
# number of rings (size 3 to 8) (size 9 to 14) (size 15 to 20)
#    0.000    1.600    3.333    2.800    1.867    3.200 
#    0.000    0.000    1.467    0.000    0.000    0.000 
#    0.000    0.000    0.000    0.000    0.000    0.000 
#
# Total GULP energy -167620.031674 kJ/mol
# GULP energy per Si atom -5587.334389 kJ/mol
# Density = 2.005407 g / cm^3
# Si number density = 20.099822 Si / 1000 Ang^3
#
#
#
# Elastic Constant Matrix: (Units=GPa)
#
#
# Indices 1 2 3 4 5 6 
#
# 1 74.0544 23.6283 11.2758 0.0000 0.2032 0.0000
# 2 23.6283 98.9337 16.8320 0.0000 -13.4917 0.0000
# 3 11.2758 16.8320 53.2649 0.0000 -12.2951 0.0000
# 4 0.0000 0.0000 0.0000 21.9282 0.0000 -11.3147
# 5 0.2032 -13.4917 -12.2951 0.0000 22.3770 0.0000
# 6 0.0000 0.0000 0.0000 -11.3147 0.0000 20.7837
#
#
#
# Elastic Compliance Matrix: (Units=1/GPa)
#
#
# Indices 1 2 3 4 5 6 
#
# 1 0.015131 -0.003650 -0.002965 0.000000 -0.003968 0.000000
# 2 -0.003650 0.012130 -0.001563 0.000000 0.006488 0.000000
# 3 -0.002965 -0.001563 0.022544 0.000000 0.011471 0.000000
# 4 0.000000 0.000000 0.000000 0.063418 0.000000 0.034525
# 5 -0.003968 0.006488 0.011471 0.000000 0.054940 0.000000
# 6 0.000000 0.000000 0.000000 0.034525 0.000000 0.066910
#
#
# Mechanical properties :
#
#
# Convention : Reuss Voigt Hill
#
# Bulk Modulus (GPa) = 29.89748 36.63613 33.26680
# Shear Modulus (GPa) = 19.04196 24.65222 21.84709
#
# Velocity S-wave (km/s) = 3.08128 3.50593 3.30044
# Velocity P-wave (km/s) = 5.25031 5.88688 5.57769
#
# Compressibility (1/GPa) = 0.03344764
#
# Stress axis : x y z
#
# Youngs Moduli (GPa) = 66.09104 82.43863 44.35840
#
# Poissons Ratio (x) = 0.30092 0.13154
# Poissons Ratio (y) = 0.24124 0.06933
# Poissons Ratio (z) = 0.19599 0.12884
#
# Static dielectric constant tensor:
#      x y z
#    x 1.701230 0.000000 -0.000470 
#    y 0.000000 1.734210 0.000000 
#    z -0.000470 0.000000 1.719570 
# 
# From -- ./inp_files/238708.got.cif
#   From: 2010.05.17/outbox.cif.g08.bks.cpg/sg15_120_cif.got.tgz:238708.got - 2010.06.03 18:47:42.
