data_PCOD9260406
_publ_section_title
;
Structure prediction by ZEFSAII (Michael W. Deem and Ramdas Pophale) SiO2 
 PCOD9260406
Probable space group: C 2/C
;
_chemical_formula_sum "Si O2"
_cell_formula_units_Z 40
_cell_length_a 9.035210
_cell_length_b 23.008717
_cell_length_c 20.445303
_cell_angle_alpha 90.000000
_cell_angle_beta 152.072913
_cell_angle_gamma 90.000000
_cell_volume 1990.638846
_symmetry_space_group_name_H-M "C 2/C"
_symmetry_group_IT_number 15
_symmetry_cell_setting 'monoclinic'
loop_
_space_group_symop_operation_xyz
x,y,z
-x,y,1/2-z
-x,-y,-z
x,-y,1/2+z
1/2+x,1/2+y,z
1/2-x,1/2+y,1/2-z
1/2-x,1/2-y,-z
1/2+x,1/2-y,1/2+z
loop_
_atom_site_type_symbol
_atom_site_label
_atom_site_fract_x
_atom_site_fract_y
_atom_site_fract_z
Si Si1 0.285169 0.170008 0.514959
Si Si2 0.617061 0.933688 0.866823
Si Si3 0.032133 0.749200 0.510925
Si Si4 0.385688 0.817888 0.821761
Si Si5 0.355137 0.935266 0.126463
O O1 0.550277 0.201849 0.575929
O O2 0.376905 0.105833 0.572419
O O3 0.210028 0.204078 0.552868
O O4 0.958205 0.176199 0.345969
O O5 0.500000 0.912868 0.750000
O O6 0.511770 0.884363 0.876030
O O7 0.507375 0.000221 0.833423
O O8 0.989250 0.938096 0.003294
O O9 0.354789 0.782631 0.619702
O O10 0.897888 0.716281 0.394941
O O11 0.500000 0.911330 0.250000
#
# Coordination Sequence:
#
# PCOD9260406 Si02
#       5
#     8   8   8   8   8
#     4  11  21  40  59  85 120 155 191 245 293 348
#     4  10  18  37  61  85 114 154 196 238 292 345
#     4  10  23  35  58  87 113 154 200 236 287 351
#     4  11  20  40  60  85 115 160 191 241 295 352
#     4  10  21  34  59  91 116 147 197 246 281 346
#
# _framework density 20.094052000000001
#
# number of rings (size 3 to 8) (size 9 to 14) (size 15 to 20)
#    0.000    1.600    4.000    1.200    0.000    3.200 
#    3.600    1.000    0.000    0.000    0.000    0.000 
#    0.000    0.000    0.000    0.000    0.000    0.000 
#
# Total GULP energy -111568.716082 kJ/mol
# GULP energy per Si atom -5578.435804 kJ/mol
# Density = 2.004832 g / cm^3
# Si number density = 20.094052 Si / 1000 Ang^3
#
#
#
# Elastic Constant Matrix: (Units=GPa)
#
#
# Indices 1 2 3 4 5 6 
#
# 1 91.7690 41.4105 15.3338 -0.0031 -7.3006 -0.0031
# 2 41.4105 117.3354 19.7841 -0.0007 -11.9614 -0.0021
# 3 15.3338 19.7841 79.0021 -0.0250 -13.1007 -0.0099
# 4 -0.0031 -0.0007 -0.0250 30.4263 -0.0020 -9.2533
# 5 -7.3006 -11.9614 -13.1007 -0.0020 21.2779 -0.0010
# 6 -0.0031 -0.0021 -0.0099 -9.2533 -0.0010 31.9916
#
#
#
# Elastic Compliance Matrix: (Units=1/GPa)
#
#
# Indices 1 2 3 4 5 6 
#
# 1 0.013150 -0.004294 -0.001257 0.000001 0.001324 0.000001
# 2 -0.004294 0.010624 -0.001204 -0.000001 0.003758 0.000000
# 3 -0.001257 -0.001204 0.014500 0.000015 0.007819 0.000009
# 4 0.000001 -0.000001 0.000015 0.036036 0.000013 0.010423
# 5 0.001324 0.003758 0.007819 0.000013 0.054378 0.000008
# 6 0.000001 0.000000 0.000009 0.010423 0.000008 0.034273
#
#
# Mechanical properties :
#
#
# Convention : Reuss Voigt Hill
#
# Bulk Modulus (GPa) = 40.38221 49.01815 44.70018
# Shear Modulus (GPa) = 27.06695 30.84435 28.95565
#
# Velocity S-wave (km/s) = 3.67415 3.92216 3.80018
# Velocity P-wave (km/s) = 6.17571 6.70510 6.44584
#
# Compressibility (1/GPa) = 0.02476338
#
# Stress axis : x y z
#
# Youngs Moduli (GPa) = 76.04557 94.12548 68.96484
#
# Poissons Ratio (x) = 0.40417 0.08672
# Poissons Ratio (y) = 0.32654 0.08303
# Poissons Ratio (z) = 0.09563 0.11332
#
# Static dielectric constant tensor:
#      x y z
#    x 1.706800 0.000000 -0.022270 
#    y 0.000000 1.788110 0.000000 
#    z -0.022270 0.000000 1.641670 
# 
# From -- ./inp_files/23763.got.cif
#   From: 2010.05.17/outbox.cif.g08.bks.cpg/sg15_12_cif.got.tgz:23763.got - 2010.06.03 18:47:42.
