data_PCOD9260866
_publ_section_title
;
Structure prediction by ZEFSAII (Michael W. Deem and Ramdas Pophale) SiO2 
 PCOD9260866
Probable space group: C 2/C
;
_chemical_formula_sum "Si O2"
_cell_formula_units_Z 60
_cell_length_a 10.871795
_cell_length_b 15.034700
_cell_length_c 24.228299
_cell_angle_alpha 90.000000
_cell_angle_beta 48.198622
_cell_angle_gamma 90.000000
_cell_volume 2952.182985
_symmetry_space_group_name_H-M "C 2/C"
_symmetry_group_IT_number 15
_symmetry_cell_setting 'monoclinic'
loop_
_space_group_symop_operation_xyz
x,y,z
-x,y,1/2-z
-x,-y,-z
x,-y,1/2+z
1/2+x,1/2+y,z
1/2-x,1/2+y,1/2-z
1/2-x,1/2-y,-z
1/2+x,1/2-y,1/2+z
loop_
_atom_site_type_symbol
_atom_site_label
_atom_site_fract_x
_atom_site_fract_y
_atom_site_fract_z
Si Si1 0.476868 0.027277 0.570227
Si Si2 0.000000 0.473288 0.250000
Si Si3 0.501671 0.348775 0.343269
Si Si4 0.237551 0.499834 0.581808
Si Si5 0.486923 0.359033 0.028894
Si Si6 0.139898 0.713243 0.911956
Si Si7 0.668058 0.817227 0.735164
Si Si8 0.750056 0.492568 0.236117
O O1 0.623294 0.988301 0.563096
O O2 0.473787 0.133529 0.574058
O O3 0.313603 0.002542 0.654259
O O4 0.500000 0.000000 0.500000
O O5 0.135286 0.514623 0.168057
O O6 0.121553 0.436316 0.262406
O O7 0.506970 0.359540 0.407176
O O8 0.313797 0.328542 0.381068
O O9 0.610865 0.263404 0.292264
O O10 0.581273 0.437810 0.292873
O O11 0.379492 0.427839 0.534933
O O12 0.313929 0.598569 0.561984
O O13 0.542461 0.265275 0.988370
O O14 0.193213 0.779085 0.847132
O O15 0.500000 0.832692 0.750000
O O16 0.730666 0.906992 0.746114
#
# Coordination Sequence:
#
# PCOD9260866 Si02
#       8
#     8   4   8   8   8   8   8   8
#     4  11  25  42  61  92 137 188 218 265 346 411
#     4  10  18  38  66  94 122 168 220 276 330 392
#     4  11  23  40  67 102 135 169 225 283 335 406
#     4  10  23  40  68  99 130 172 230 275 340 393
#     4  11  23  40  68 103 128 166 225 292 327 396
#     4  11  24  41  64  95 138 172 220 272 338 408
#     4  10  22  39  64  98 128 175 224 274 334 400
#     4  11  21  39  69  95 132 175 225 276 339 391
#
# _framework density 20.323944000000001
#
# number of rings (size 3 to 8) (size 9 to 14) (size 15 to 20)
#    0.000    1.333    3.333    2.000    9.333    0.533 
#    0.000    0.000    0.000    1.600    0.000    0.000 
#    0.000    0.000    0.000    0.000    0.000    0.000 
#
# Total GULP energy -167275.746172 kJ/mol
# GULP energy per Si atom -5575.858206 kJ/mol
# Density = 2.027769 g / cm^3
# Si number density = 20.323944 Si / 1000 Ang^3
#
#
#
# Elastic Constant Matrix: (Units=GPa)
#
#
# Indices 1 2 3 4 5 6 
#
# 1 21.8211 4.7163 26.3666 0.0000 11.6498 0.0000
# 2 4.7163 93.1585 35.2489 0.0000 -1.7262 0.0000
# 3 26.3666 35.2489 155.4356 0.0000 24.6527 0.0000
# 4 0.0000 0.0000 0.0000 38.0454 0.0000 0.4234
# 5 11.6498 -1.7262 24.6527 0.0000 27.5608 0.0000
# 6 0.0000 0.0000 0.0000 0.4234 0.0000 30.7753
#
#
#
# Elastic Compliance Matrix: (Units=1/GPa)
#
#
# Indices 1 2 3 4 5 6 
#
# 1 0.066768 -0.000844 -0.007749 0.000000 -0.021344 0.000000
# 2 -0.000844 0.012073 -0.003229 0.000000 0.004001 0.000000
# 3 -0.007749 -0.003229 0.009314 0.000000 -0.005258 0.000000
# 4 0.000000 0.000000 0.000000 0.026288 0.000000 -0.000362
# 5 -0.021344 0.004001 -0.005258 0.000000 0.050259 0.000000
# 6 0.000000 0.000000 0.000000 -0.000362 0.000000 0.032499
#
#
# Mechanical properties :
#
#
# Convention : Reuss Voigt Hill
#
# Bulk Modulus (GPa) = 15.50125 44.78653 30.14389
# Shear Modulus (GPa) = 20.63128 32.88185 26.75657
#
# Velocity S-wave (km/s) = 3.18955 4.02666 3.63230
# Velocity P-wave (km/s) = 4.60521 6.61081 5.69697
#
# Compressibility (1/GPa) = 0.06451094
#
# Stress axis : x y z
#
# Youngs Moduli (GPa) = 14.97720 82.82816 107.36066
#
# Poissons Ratio (x) = 0.06987 0.83198
# Poissons Ratio (y) = 0.01263 0.34672
# Poissons Ratio (z) = 0.11606 0.26749
#
# Static dielectric constant tensor:
#      x y z
#    x 1.736580 0.000000 -0.013760 
#    y 0.000000 1.791600 0.000000 
#    z -0.013760 0.000000 1.731700 
# 
# From -- ./inp_files/269939.got.cif
#   From: 2010.05.17/outbox.cif.g08.bks.cpg/sg15_135_cif.got.tgz:269939.got - 2010.06.03 18:47:42.
