data_PCOD9260890
_publ_section_title
;
Structure prediction by ZEFSAII (Michael W. Deem and Ramdas Pophale) SiO2 
 PCOD9260890
Probable space group: C 2/C
;
_chemical_formula_sum "Si O2"
_cell_formula_units_Z 56
_cell_length_a 12.483423
_cell_length_b 8.622252
_cell_length_c 24.180584
_cell_angle_alpha 90.000000
_cell_angle_beta 108.648281
_cell_angle_gamma 90.000000
_cell_volume 2466.039798
_symmetry_space_group_name_H-M "C 2/C"
_symmetry_group_IT_number 15
_symmetry_cell_setting 'monoclinic'
loop_
_space_group_symop_operation_xyz
x,y,z
-x,y,1/2-z
-x,-y,-z
x,-y,1/2+z
1/2+x,1/2+y,z
1/2-x,1/2+y,1/2-z
1/2-x,1/2-y,-z
1/2+x,1/2-y,1/2+z
loop_
_atom_site_type_symbol
_atom_site_label
_atom_site_fract_x
_atom_site_fract_y
_atom_site_fract_z
Si Si1 0.119219 0.819835 0.120664
Si Si2 0.500000 0.451510 0.250000
Si Si3 0.702144 0.655687 0.413366
Si Si4 0.500000 0.952754 0.250000
Si Si5 0.782473 0.304494 0.443863
Si Si6 0.171020 0.797522 0.784970
Si Si7 0.927954 0.697539 0.149588
Si Si8 0.014161 0.887239 0.554792
O O1 0.195880 0.776429 0.080030
O O2 0.198690 0.754148 0.184711
O O3 0.077995 0.996841 0.108813
O O4 0.006310 0.718279 0.108730
O O5 0.390364 0.552862 0.250695
O O6 0.458800 0.342720 0.193599
O O7 0.754348 0.484703 0.429629
O O8 0.638174 0.674222 0.344008
O O9 0.605731 0.671210 0.442644
O O10 0.395837 0.846335 0.250744
O O11 0.457555 0.051432 0.191439
O O12 0.750000 0.250000 0.500000
O O13 0.700350 0.208360 0.389632
O O14 0.907982 0.255530 0.449248
O O15 0.000000 0.000000 0.500000
#
# Coordination Sequence:
#
# PCOD9260890 Si02
#       8
#     8   4   8   4   8   8   8   8
#     4  10  22  42  65  93 140 169 223 280 336 405
#     4  10  18  38  68  86 140 176 220 278 344 396
#     4  10  23  45  64 100 131 175 223 278 337 401
#     4  10  22  36  64  98 132 178 226 278 336 414
#     4  12  23  44  70  98 134 180 226 273 344 402
#     4   9  20  40  59  95 133 170 220 275 338 402
#     4  11  21  39  64 100 135 172 231 279 333 412
#     4  12  23  43  70  95 137 182 222 289 334 395
#
# _framework density 22.708473999999999
#
# number of rings (size 3 to 8) (size 9 to 14) (size 15 to 20)
#    0.857    0.571    4.286    0.857    0.000    2.857 
#    0.000    7.143    0.000    0.000    0.000    0.000 
#    0.000    0.000    0.000    0.000    0.000    0.000 
#
# Total GULP energy -156171.529943 kJ/mol
# GULP energy per Si atom -5577.554641 kJ/mol
# Density = 2.265679 g / cm^3
# Si number density = 22.708474 Si / 1000 Ang^3
#
#
#
# Elastic Constant Matrix: (Units=GPa)
#
#
# Indices 1 2 3 4 5 6 
#
# 1 122.8166 18.4480 -7.3318 0.0000 -8.4592 0.0000
# 2 18.4480 74.5652 11.8253 0.0000 2.4057 0.0000
# 3 -7.3318 11.8253 77.9705 0.0000 3.4404 0.0000
# 4 0.0000 0.0000 0.0000 26.9032 0.0000 6.6548
# 5 -8.4592 2.4057 3.4404 0.0000 28.9492 0.0000
# 6 0.0000 0.0000 0.0000 6.6548 0.0000 19.7435
#
#
#
# Elastic Compliance Matrix: (Units=1/GPa)
#
#
# Indices 1 2 3 4 5 6 
#
# 1 0.008751 -0.002420 0.001074 0.000000 0.002631 0.000000
# 2 -0.002420 0.014434 -0.002345 0.000000 -0.001628 0.000000
# 3 0.001074 -0.002345 0.013329 0.000000 -0.001075 0.000000
# 4 0.000000 0.000000 0.000000 0.040551 0.000000 -0.013668
# 5 0.002631 -0.001628 -0.001075 0.000000 0.035575 0.000000
# 6 0.000000 0.000000 0.000000 -0.013668 0.000000 0.055257
#
#
# Mechanical properties :
#
#
# Convention : Reuss Voigt Hill
#
# Bulk Modulus (GPa) = 34.32628 35.69282 35.00955
# Shear Modulus (GPa) = 27.02829 31.94656 29.48743
#
# Velocity S-wave (km/s) = 3.45371 3.75482 3.60741
# Velocity P-wave (km/s) = 5.57253 5.87794 5.72727
#
# Compressibility (1/GPa) = 0.02913220
#
# Stress axis : x y z
#
# Youngs Moduli (GPa) = 114.27181 69.27950 75.02199
#
# Poissons Ratio (x) = 0.16767 -0.08056
# Poissons Ratio (y) = 0.27657 0.17592
# Poissons Ratio (z) = -0.12271 0.16245
#
# Static dielectric constant tensor:
#      x y z
#    x 1.872000 0.000000 -0.031870 
#    y 0.000000 1.845810 0.000000 
#    z -0.031870 0.000000 1.850480 
# 
# From -- ./inp_files/310076.got.cif
#   From: 2010.05.17/outbox.cif.g08.bks.cpg/sg15_156_cif.got.tgz:310076.got - 2010.06.03 18:47:42.
