data_PCOD9260009
_publ_section_title
;
Structure prediction by ZEFSAII (Michael W. Deem and Ramdas Pophale) SiO2 
 PCOD9260009
Probable space group: C 2/C
;
_chemical_formula_sum "Si O2"
_cell_formula_units_Z 60
_cell_length_a 9.153580
_cell_length_b 23.915426
_cell_length_c 19.216376
_cell_angle_alpha 90.000000
_cell_angle_beta 143.794657
_cell_angle_gamma 90.000000
_cell_volume 2484.811971
_symmetry_space_group_name_H-M "C 2/C"
_symmetry_group_IT_number 15
_symmetry_cell_setting 'monoclinic'
loop_
_space_group_symop_operation_xyz
x,y,z
-x,y,1/2-z
-x,-y,-z
x,-y,1/2+z
1/2+x,1/2+y,z
1/2-x,1/2+y,1/2-z
1/2-x,1/2-y,-z
1/2+x,1/2-y,1/2+z
loop_
_atom_site_type_symbol
_atom_site_label
_atom_site_fract_x
_atom_site_fract_y
_atom_site_fract_z
Si Si1 0.013496 0.416683 0.886958
Si Si2 0.765780 0.719426 0.898102
Si Si3 0.000000 0.251588 0.250000
Si Si4 0.586479 0.576959 0.587677
Si Si5 0.516012 0.964670 0.160486
Si Si6 0.642263 0.682818 0.512412
Si Si7 0.555801 0.201871 0.154270
Si Si8 0.058303 0.381433 0.484818
O O1 0.891224 0.471885 0.808063
O O2 0.975149 0.360108 0.827937
O O3 0.305800 0.432533 0.004297
O O4 0.910547 0.399506 0.923276
O O5 0.505702 0.746704 0.818758
O O6 0.818929 0.659509 0.884918
O O7 0.936088 0.768879 0.931673
O O8 0.874560 0.706358 0.017920
O O9 0.132923 0.289182 0.358920
O O10 0.184878 0.212738 0.280001
O O11 0.779198 0.575835 0.725779
O O12 0.564205 0.633421 0.534354
O O13 0.755108 0.537537 0.602087
O O14 0.467903 0.938296 0.067510
O O15 0.731559 0.655538 0.474216
#
# Coordination Sequence:
#
# PCOD9260009 Si02
#       8
#     8   8   4   8   8   8   8   8
#     4  11  21  40  65  87 125 166 215 262 321 380
#     4   9  17  34  58  85 121 155 206 248 306 385
#     4  10  20  34  60  86 130 166 202 262 316 370
#     4  10  21  40  65  90 113 169 219 263 311 375
#     4  10  22  40  60  92 123 160 215 271 318 373
#     4  10  18  36  60  89 124 161 210 256 306 381
#     4   9  19  35  57  88 115 165 204 248 318 372
#     4  10  21  34  56  93 125 160 207 258 321 371
#
# _framework density 24.146699000000002
#
# number of rings (size 3 to 8) (size 9 to 14) (size 15 to 20)
#    0.000    2.133    1.333    2.800    1.867    0.533 
#    2.400    5.333    5.867    0.000    0.000    0.000 
#    0.000    0.000    0.000    0.000    0.000    0.000 
#
# Total GULP energy -167497.079524 kJ/mol
# GULP energy per Si atom -5583.235984 kJ/mol
# Density = 2.409174 g / cm^3
# Si number density = 24.146699 Si / 1000 Ang^3
#
#
#
# Elastic Constant Matrix: (Units=GPa)
#
#
# Indices 1 2 3 4 5 6 
#
# 1 76.1092 34.5743 8.4416 0.0000 -16.0243 0.0001
# 2 34.5743 102.3523 -8.7870 -0.0001 -1.7632 0.0000
# 3 8.4416 -8.7870 27.6623 0.0016 -8.8878 0.0006
# 4 0.0000 -0.0001 0.0016 26.5599 0.0001 14.0447
# 5 -16.0243 -1.7632 -8.8878 0.0001 16.0335 0.0002
# 6 0.0001 0.0000 0.0006 14.0447 0.0002 50.7937
#
#
#
# Elastic Compliance Matrix: (Units=1/GPa)
#
#
# Indices 1 2 3 4 5 6 
#
# 1 0.020316 -0.006765 -0.002511 0.000000 0.018168 0.000000
# 2 -0.006765 0.012461 0.005220 0.000000 -0.002497 0.000000
# 3 -0.002511 0.005220 0.046177 -0.000003 0.023662 0.000000
# 4 0.000000 0.000000 -0.000003 0.044099 -0.000002 -0.012194
# 5 0.018168 -0.002497 0.023662 -0.000002 0.093369 0.000000
# 6 0.000000 0.000000 0.000000 -0.012194 0.000000 0.023059
#
#
# Mechanical properties :
#
#
# Convention : Reuss Voigt Hill
#
# Bulk Modulus (GPa) = 14.11607 30.50904 22.31255
# Shear Modulus (GPa) = 18.43610 30.13708 24.28659
#
# Velocity S-wave (km/s) = 2.76616 3.53665 3.17487
# Velocity P-wave (km/s) = 4.00759 5.41660 4.76447
#
# Compressibility (1/GPa) = 0.07084127
#
# Stress axis : x y z
#
# Youngs Moduli (GPa) = 49.22214 80.25280 21.65565
#
# Poissons Ratio (x) = 0.54294 0.05439
# Poissons Ratio (y) = 0.33300 -0.11305
# Poissons Ratio (z) = 0.12362 -0.41895
#
# Static dielectric constant tensor:
#      x y z
#    x 1.938910 0.000000 -0.018300 
#    y 0.000000 1.944780 0.000000 
#    z -0.018300 0.000000 2.017990 
# 
# From -- ./inp_files/234793.got.cif
#   From: 2010.05.17/outbox.cif.g08.bks.cpg/sg15_118_cif.got.tgz:234793.got - 2010.06.03 18:47:42.
