data_PCOD9260777
_publ_section_title
;
Structure prediction by ZEFSAII (Michael W. Deem and Ramdas Pophale) SiO2 
 PCOD9260777
Probable space group: C 2/C
;
_chemical_formula_sum "Si O2"
_cell_formula_units_Z 64
_cell_length_a 8.090622
_cell_length_b 16.177086
_cell_length_c 26.618641
_cell_angle_alpha 90.000000
_cell_angle_beta 110.294283
_cell_angle_gamma 90.000000
_cell_volume 3267.649932
_symmetry_space_group_name_H-M "C 2/C"
_symmetry_group_IT_number 15
_symmetry_cell_setting 'monoclinic'
loop_
_space_group_symop_operation_xyz
x,y,z
-x,y,1/2-z
-x,-y,-z
x,-y,1/2+z
1/2+x,1/2+y,z
1/2-x,1/2+y,1/2-z
1/2-x,1/2-y,-z
1/2+x,1/2-y,1/2+z
loop_
_atom_site_type_symbol
_atom_site_label
_atom_site_fract_x
_atom_site_fract_y
_atom_site_fract_z
Si Si1 0.785865 0.994908 0.474215
Si Si2 0.413211 0.352923 0.372168
Si Si3 0.030142 0.287593 0.813279
Si Si4 0.517006 0.903807 0.309521
Si Si5 0.122949 0.710883 0.626636
Si Si6 0.249434 0.199288 0.551261
Si Si7 0.511412 0.055885 0.128310
Si Si8 0.744503 0.054773 0.580040
O O1 0.735930 0.898435 0.460936
O O2 0.677618 0.045127 0.420069
O O3 0.716952 0.029326 0.519921
O O4 0.000000 0.000000 0.500000
O O5 0.459366 0.298952 0.328290
O O6 0.214199 0.382483 0.346881
O O7 0.410184 0.300985 0.424678
O O8 0.547379 0.429296 0.389917
O O9 0.238094 0.282069 0.848737
O O10 0.952829 0.355859 0.843265
O O11 0.000000 0.297934 0.750000
O O12 0.500000 0.890104 0.250000
O O13 0.380454 0.846675 0.324685
O O14 0.486847 0.996397 0.323401
O O15 0.170899 0.646117 0.587136
O O16 0.922815 0.735605 0.596523
O O17 0.250000 0.250000 0.500000
O O18 0.653141 0.014458 0.105243
#
# Coordination Sequence:
#
# PCOD9260777 Si02
#       8
#     8   8   8   8   8   8   8   8
#     4  12  22  39  61  87 124 163 198 252 308 365
#     4  10  21  41  59  89 121 157 206 243 306 373
#     4  11  24  40  61  89 122 158 205 265 313 354
#     4  10  18  38  64  82 111 156 203 250 301 360
#     4   9  21  39  57  85 116 156 201 243 305 371
#     4  11  23  38  59  93 123 161 203 243 308 377
#     4  11  23  38  59  89 119 157 202 255 303 366
#     4  10  20  38  61  83 118 159 196 242 303 371
#
# _framework density 19.585940999999998
#
# number of rings (size 3 to 8) (size 9 to 14) (size 15 to 20)
#    0.000    1.500    5.000    1.500    3.500    0.000 
#    0.000    2.500    0.000    3.000    0.000    0.000 
#    0.000    0.000    0.000    0.000    0.000    0.000 
#
# Total GULP energy -178225.273896 kJ/mol
# GULP energy per Si atom -5569.539809 kJ/mol
# Density = 1.954136 g / cm^3
# Si number density = 19.585941 Si / 1000 Ang^3
#
#
#
# Elastic Constant Matrix: (Units=GPa)
#
#
# Indices 1 2 3 4 5 6 
#
# 1 78.2504 3.1808 16.4103 0.0000 2.6635 0.0000
# 2 3.1808 45.1911 33.0528 0.0000 -1.4846 0.0000
# 3 16.4103 33.0528 97.0504 0.0000 -18.0709 0.0000
# 4 0.0000 0.0000 0.0000 17.2072 0.0000 3.2108
# 5 2.6635 -1.4846 -18.0709 0.0000 25.3090 0.0000
# 6 0.0000 0.0000 0.0000 3.2108 0.0000 11.7637
#
#
#
# Elastic Compliance Matrix: (Units=1/GPa)
#
#
# Indices 1 2 3 4 5 6 
#
# 1 0.013590 0.001496 -0.003526 0.000000 -0.003860 0.000000
# 2 0.001496 0.030522 -0.011930 0.000000 -0.006885 0.000000
# 3 -0.003526 -0.011930 0.017187 0.000000 0.011943 0.000000
# 4 0.000000 0.000000 0.000000 0.061234 0.000000 -0.016713
# 5 -0.003860 -0.006885 0.011943 0.000000 0.048041 0.000000
# 6 0.000000 0.000000 0.000000 -0.016713 0.000000 0.089569
#
#
# Mechanical properties :
#
#
# Convention : Reuss Voigt Hill
#
# Bulk Modulus (GPa) = 29.95977 36.19775 33.07876
# Shear Modulus (GPa) = 16.71176 22.04583 19.37880
#
# Velocity S-wave (km/s) = 2.92422 3.35863 3.14892
# Velocity P-wave (km/s) = 5.17022 5.79328 5.49060
#
# Compressibility (1/GPa) = 0.03337809
#
# Stress axis : x y z
#
# Youngs Moduli (GPa) = 73.58612 32.76277 58.18352
#
# Poissons Ratio (x) = -0.04900 0.20515
# Poissons Ratio (y) = -0.11005 0.69413
# Poissons Ratio (z) = 0.25946 0.39086
#
# Static dielectric constant tensor:
#      x y z
#    x 1.760360 0.000000 -0.000970 
#    y 0.000000 1.719970 0.000000 
#    z -0.000970 0.000000 1.710720 
# 
# From -- ./inp_files/288831.got.cif
#   From: 2010.05.17/outbox.cif.g08.bks.cpg/sg15_145_cif.got.tgz:288831.got - 2010.06.03 18:47:42.
