data_PCOD9260402
_publ_section_title
;
Structure prediction by ZEFSAII (Michael W. Deem and Ramdas Pophale) SiO2 
 PCOD9260402
Probable space group: C 2/C
;
_chemical_formula_sum "Si O2"
_cell_formula_units_Z 36
_cell_length_a 15.022840
_cell_length_b 7.157310
_cell_length_c 19.047224
_cell_angle_alpha 90.000000
_cell_angle_beta 50.669343
_cell_angle_gamma 90.000000
_cell_volume 1584.143611
_symmetry_space_group_name_H-M "C 2/C"
_symmetry_group_IT_number 15
_symmetry_cell_setting 'monoclinic'
loop_
_space_group_symop_operation_xyz
x,y,z
-x,y,1/2-z
-x,-y,-z
x,-y,1/2+z
1/2+x,1/2+y,z
1/2-x,1/2+y,1/2-z
1/2-x,1/2-y,-z
1/2+x,1/2-y,1/2+z
loop_
_atom_site_type_symbol
_atom_site_label
_atom_site_fract_x
_atom_site_fract_y
_atom_site_fract_z
Si Si1 0.758323 0.303127 0.914812
Si Si2 0.794829 0.238543 0.557278
Si Si3 0.000000 0.579518 0.250000
Si Si4 0.906736 0.204212 0.243021
Si Si5 0.953477 0.186252 0.062188
O O1 0.725908 0.519237 0.919484
O O2 0.891833 0.296243 0.826762
O O3 0.653723 0.215308 0.922661
O O4 0.750000 0.250000 0.000000
O O5 0.750000 0.250000 0.500000
O O6 0.713263 0.326112 0.657273
O O7 0.926908 0.299097 0.492920
O O8 0.053146 0.425537 0.278424
O O9 0.914282 0.133781 0.160523
O O10 0.000000 0.120556 0.250000
O O11 0.000000 0.000000 0.000000
#
# Coordination Sequence:
#
# PCOD9260402 Si02
#       5
#     8   8   4   8   8
#     4  10  21  36  54  81 118 145 180 243 291 326
#     4  10  18  37  61  81 110 155 196 229 275 353
#     4   8  18  38  58  70 112 160 192 216 276 360
#     4   9  17  34  62  77 106 154 205 221 272 346
#     4  10  20  34  57  87 117 145 191 245 289 333
#
# _framework density 22.725213
#
# number of rings (size 3 to 8) (size 9 to 14) (size 15 to 20)
#    0.667    1.778    2.222    0.000    0.000    1.778 
#    0.000   15.556    0.000    0.000    0.000    0.000 
#    0.000    0.000    0.000    0.000    0.000    0.000 
#
# Total GULP energy -100232.308543 kJ/mol
# GULP energy per Si atom -5568.461586 kJ/mol
# Density = 2.267349 g / cm^3
# Si number density = 22.725213 Si / 1000 Ang^3
#
#
#
# Elastic Constant Matrix: (Units=GPa)
#
#
# Indices 1 2 3 4 5 6 
#
# 1 188.6112 8.2199 120.8522 0.0000 -24.2023 0.0001
# 2 8.2199 47.1952 20.5991 0.0000 -7.1966 0.0002
# 3 120.8522 20.5991 232.2225 0.0000 -14.7502 0.0000
# 4 0.0000 0.0000 0.0000 29.3510 0.0000 1.5094
# 5 -24.2023 -7.1966 -14.7502 0.0000 58.5327 0.0000
# 6 0.0001 0.0002 0.0000 1.5094 0.0000 12.0034
#
#
#
# Elastic Compliance Matrix: (Units=1/GPa)
#
#
# Indices 1 2 3 4 5 6 
#
# 1 0.008293 0.000776 -0.004228 0.000000 0.002459 0.000000
# 2 0.000776 0.022411 -0.002232 0.000000 0.002514 0.000000
# 3 -0.004228 -0.002232 0.006683 0.000000 -0.000339 0.000000
# 4 0.000000 0.000000 0.000000 0.034292 0.000000 -0.004312
# 5 0.002459 0.002514 -0.000339 0.000000 0.018325 0.000000
# 6 0.000000 0.000000 0.000000 -0.004312 0.000000 0.083852
#
#
# Mechanical properties :
#
#
# Convention : Reuss Voigt Hill
#
# Bulk Modulus (GPa) = 38.43456 85.26346 61.84901
# Shear Modulus (GPa) = 25.78674 41.20126 33.49400
#
# Velocity S-wave (km/s) = 3.37221 4.26258 3.84327
# Velocity P-wave (km/s) = 5.66674 7.86301 6.85342
#
# Compressibility (1/GPa) = 0.02601825
#
# Stress axis : x y z
#
# Youngs Moduli (GPa) = 120.58377 44.62094 149.62731
#
# Poissons Ratio (x) = -0.03463 0.63269
# Poissons Ratio (y) = -0.09359 0.33400
# Poissons Ratio (z) = 0.50988 0.09960
#
# Static dielectric constant tensor:
#      x y z
#    x 1.929150 0.000000 -0.094550 
#    y 0.000000 1.986700 0.000000 
#    z -0.094550 0.000000 1.816060 
# 
# From -- ./inp_files/203156.got.cif
#   From: 2010.05.17/outbox.cif.g08.bks.cpg/sg15_102_cif.got.tgz:203156.got - 2010.06.03 18:47:42.
