data_PCOD9260099
_publ_section_title
;
Structure prediction by ZEFSAII (Michael W. Deem and Ramdas Pophale) SiO2 
 PCOD9260099
Probable space group: C 2/C
;
_chemical_formula_sum "Si O2"
_cell_formula_units_Z 60
_cell_length_a 18.195222
_cell_length_b 28.815289
_cell_length_c 11.578749
_cell_angle_alpha 90.000000
_cell_angle_beta 149.807585
_cell_angle_gamma 90.000000
_cell_volume 3053.011122
_symmetry_space_group_name_H-M "C 2/C"
_symmetry_group_IT_number 15
_symmetry_cell_setting 'monoclinic'
loop_
_space_group_symop_operation_xyz
x,y,z
-x,y,1/2-z
-x,-y,-z
x,-y,1/2+z
1/2+x,1/2+y,z
1/2-x,1/2+y,1/2-z
1/2-x,1/2-y,-z
1/2+x,1/2-y,1/2+z
loop_
_atom_site_type_symbol
_atom_site_label
_atom_site_fract_x
_atom_site_fract_y
_atom_site_fract_z
Si Si1 0.120318 0.860133 0.745944
Si Si2 0.468052 0.447063 0.430662
Si Si3 0.638845 0.085539 0.497843
Si Si4 0.853441 0.790381 0.384418
Si Si5 0.351578 0.140999 0.761045
Si Si6 0.345403 0.184341 0.373186
Si Si7 0.000000 0.100481 0.750000
Si Si8 0.258289 0.330930 0.021752
O O1 0.216379 0.841393 0.767864
O O2 0.031333 0.907302 0.600724
O O3 0.999479 0.820344 0.605982
O O4 0.232413 0.869302 0.001569
O O5 0.500000 0.500000 0.500000
O O6 0.292735 0.440225 0.189024
O O7 0.544649 0.432976 0.414227
O O8 0.624723 0.100347 0.612536
O O9 0.653884 0.133891 0.447860
O O10 0.500000 0.061176 0.250000
O O11 0.719208 0.815551 0.266202
O O12 0.863952 0.737432 0.437745
O O13 0.820458 0.795846 0.201959
O O14 0.504410 0.156141 0.913327
O O15 0.310610 0.187635 0.189020
O O16 0.885026 0.134998 0.650262
#
# Coordination Sequence:
#
# PCOD9260099 Si02
#       8
#     8   8   8   8   8   8   4   8
#     4  12  24  42  60  90 136 170 218 271 319 396
#     4  11  24  42  72  99 121 170 220 265 332 392
#     4  10  20  41  67  91 121 160 209 267 325 376
#     4  11  23  38  62  90 125 179 224 270 314 387
#     4  11  24  38  61  88 127 178 212 266 325 387
#     4  12  23  37  60  93 133 173 220 268 328 383
#     4  10  18  40  66  92 126 158 206 282 312 364
#     4  10  18  36  62  87 120 164 212 267 321 359
#
# _framework density 19.652729000000001
#
# number of rings (size 3 to 8) (size 9 to 14) (size 15 to 20)
#    0.000    1.067    6.667    2.000    0.000    4.267 
#    0.000    4.000    0.000    3.200    0.000    0.000 
#    0.000    0.000    0.000    0.000    0.000    0.000 
#
# Total GULP energy -167430.954920 kJ/mol
# GULP energy per Si atom -5581.031831 kJ/mol
# Density = 1.960800 g / cm^3
# Si number density = 19.652729 Si / 1000 Ang^3
#
#
#
# Elastic Constant Matrix: (Units=GPa)
#
#
# Indices 1 2 3 4 5 6 
#
# 1 56.4316 15.3325 24.9918 0.0000 7.9398 0.0000
# 2 15.3325 101.1030 37.2086 0.0000 8.8591 0.0000
# 3 24.9918 37.2086 121.2351 0.0000 2.8809 0.0000
# 4 0.0000 0.0000 0.0000 2.4557 0.0000 5.4028
# 5 7.9398 8.8591 2.8809 0.0000 46.4789 0.0000
# 6 0.0000 0.0000 0.0000 5.4028 0.0000 9.2140
#
#
#
# Elastic Compliance Matrix: (Units=1/GPa)
#
#
# Indices 1 2 3 4 5 6 
#
# 1 0.020140 -0.001459 -0.003634 0.000000 -0.002937 0.000000
# 2 -0.001459 0.011429 -0.003166 0.000000 -0.001733 0.000000
# 3 -0.003634 -0.003166 0.009955 0.000000 0.000607 0.000000
# 4 0.000000 0.000000 0.000000 -1.403910 0.000000 0.823205
# 5 -0.002937 -0.001733 0.000607 0.000000 0.022309 0.000000
# 6 0.000000 0.000000 0.000000 0.823205 0.000000 -0.374169
#
#
# Mechanical properties :
#
#
# Convention : Reuss Voigt Hill
#
# Bulk Modulus (GPa) = 39.99153 48.20394 44.09774
# Shear Modulus (GPa) = -2.95964 25.04552 11.04294
#
# Velocity S-wave (km/s) = -1.22851 3.57375 2.37302
# Velocity P-wave (km/s) = 4.28730 6.45059 5.47681
#
# Compressibility (1/GPa) = 0.02500529
#
# Stress axis : x y z
#
# Youngs Moduli (GPa) = 49.65317 87.49556 100.45495
#
# Poissons Ratio (x) = 0.12770 0.36505
# Poissons Ratio (y) = 0.07247 0.31801
# Poissons Ratio (z) = 0.18044 0.27699
#
# Static dielectric constant tensor:
#      x y z
#    x 1.740050 0.000000 -0.028530 
#    y 0.000000 1.662760 0.000000 
#    z -0.028530 0.000000 1.750950 
# 
# From -- ./inp_files/108437.got.cif
#   From: 2010.05.17/outbox.cif.g08.bks.cpg/sg15_55_cif.got.tgz:108437.got - 2010.06.03 18:47:42.
