data_PCOD9260489
_publ_section_title
;
Structure prediction by ZEFSAII (Michael W. Deem and Ramdas Pophale) SiO2 
 PCOD9260489
Probable space group: C 2/C
;
_chemical_formula_sum "Si O2"
_cell_formula_units_Z 48
_cell_length_a 10.245998
_cell_length_b 27.797411
_cell_length_c 8.171301
_cell_angle_alpha 90.000000
_cell_angle_beta 64.964004
_cell_angle_gamma 90.000000
_cell_volume 2108.619416
_symmetry_space_group_name_H-M "C 2/C"
_symmetry_group_IT_number 15
_symmetry_cell_setting 'monoclinic'
loop_
_space_group_symop_operation_xyz
x,y,z
-x,y,1/2-z
-x,-y,-z
x,-y,1/2+z
1/2+x,1/2+y,z
1/2-x,1/2+y,1/2-z
1/2-x,1/2-y,-z
1/2+x,1/2-y,1/2+z
loop_
_atom_site_type_symbol
_atom_site_label
_atom_site_fract_x
_atom_site_fract_y
_atom_site_fract_z
Si Si1 0.681206 0.403230 0.488613
Si Si2 0.808096 0.408276 0.046482
Si Si3 0.447342 0.853504 0.462818
Si Si4 0.416900 0.756647 0.963678
Si Si5 0.882638 0.991310 0.424530
Si Si6 0.432087 0.347776 0.469850
O O1 0.751245 0.409786 0.267471
O O2 0.671879 0.454764 0.583347
O O3 0.523049 0.383330 0.533984
O O4 0.777989 0.365065 0.538440
O O5 0.974116 0.394219 0.970607
O O6 0.754597 0.457393 0.992651
O O7 0.727001 0.366735 0.986173
O O8 0.500000 0.860042 0.250000
O O9 0.518794 0.802672 0.476660
O O10 0.500000 0.758278 0.750000
O O11 0.446898 0.705603 0.033441
O O12 0.250000 0.750000 0.000000
O O13 0.000000 0.964114 0.250000
O O14 0.000000 0.000000 0.500000
O O15 0.500000 0.346274 0.250000
#
# Coordination Sequence:
#
# PCOD9260489 Si02
#       6
#     8   8   8   8   8   8
#     4  10  21  38  58  92 119 160 205 260 311 378
#     4  10  18  37  64  85 117 165 205 248 315 388
#     4  10  23  42  64  89 129 165 211 260 323 383
#     4  11  23  43  68  95 128 172 218 264 323 385
#     4  12  21  37  63  90 118 158 214 262 308 379
#     4   9  17  34  63  84 118 164 205 242 316 382
#
# _framework density 22.76371
#
# number of rings (size 3 to 8) (size 9 to 14) (size 15 to 20)
#    0.000    1.667    5.000    0.500    2.333    1.333 
#    6.000    0.000    0.000    0.000    0.000    0.000 
#    0.000    0.000    0.000    0.000    0.000    0.000 
#
# Total GULP energy -133662.889219 kJ/mol
# GULP energy per Si atom -5569.287051 kJ/mol
# Density = 2.271190 g / cm^3
# Si number density = 22.763710 Si / 1000 Ang^3
#
#
#
# Elastic Constant Matrix: (Units=GPa)
#
#
# Indices 1 2 3 4 5 6 
#
# 1 131.8183 54.7676 21.3693 0.0000 23.4075 0.0000
# 2 54.7676 159.0584 0.0346 0.0000 31.9629 0.0000
# 3 21.3693 0.0346 25.6200 0.0000 11.2906 0.0000
# 4 0.0000 0.0000 0.0000 21.8639 0.0000 12.2951
# 5 23.4075 31.9629 11.2906 0.0000 24.0780 0.0000
# 6 0.0000 0.0000 0.0000 12.2951 0.0000 40.7079
#
#
#
# Elastic Compliance Matrix: (Units=1/GPa)
#
#
# Indices 1 2 3 4 5 6 
#
# 1 0.010588 -0.003141 -0.007725 0.000000 -0.002500 0.000000
# 2 -0.003141 0.010399 0.009257 0.000000 -0.015092 0.000000
# 3 -0.007725 0.009257 0.059959 0.000000 -0.032894 0.000000
# 4 0.000000 0.000000 0.000000 0.055095 0.000000 -0.016641
# 5 -0.002500 -0.015092 -0.032894 0.000000 0.079421 0.000000
# 6 0.000000 0.000000 0.000000 -0.016641 0.000000 0.029591
#
#
# Mechanical properties :
#
#
# Convention : Reuss Voigt Hill
#
# Bulk Modulus (GPa) = 12.86548 52.09332 32.47940
# Shear Modulus (GPa) = 18.23609 33.35165 25.79387
#
# Velocity S-wave (km/s) = 2.83345 3.83185 3.36983
# Velocity P-wave (km/s) = 4.04581 6.52008 5.42587
#
# Compressibility (1/GPa) = 0.07772736
#
# Stress axis : x y z
#
# Youngs Moduli (GPa) = 94.44907 96.15992 16.67801
#
# Poissons Ratio (x) = 0.30209 0.12884
# Poissons Ratio (y) = 0.29671 -0.15439
# Poissons Ratio (z) = 0.72962 -0.89015
#
# Static dielectric constant tensor:
#      x y z
#    x 1.832300 0.000000 -0.040980 
#    y 0.000000 1.879180 0.000000 
#    z -0.040980 0.000000 1.855510 
# 
# From -- ./inp_files/26125.got.cif
#   From: 2010.05.17/outbox.cif.g08.bks.cpg/sg15_14_cif.got.tgz:26125.got - 2010.06.03 18:47:42.
