data_PCOD9260274
_publ_section_title
;
Structure prediction by ZEFSAII (Michael W. Deem and Ramdas Pophale) SiO2 
 PCOD9260274
Probable space group: C 2/C
;
_chemical_formula_sum "Si O2"
_cell_formula_units_Z 64
_cell_length_a 17.885269
_cell_length_b 10.202577
_cell_length_c 23.557090
_cell_angle_alpha 90.000000
_cell_angle_beta 47.477112
_cell_angle_gamma 90.000000
_cell_volume 3168.099747
_symmetry_space_group_name_H-M "C 2/C"
_symmetry_group_IT_number 15
_symmetry_cell_setting 'monoclinic'
loop_
_space_group_symop_operation_xyz
x,y,z
-x,y,1/2-z
-x,-y,-z
x,-y,1/2+z
1/2+x,1/2+y,z
1/2-x,1/2+y,1/2-z
1/2-x,1/2-y,-z
1/2+x,1/2-y,1/2+z
loop_
_atom_site_type_symbol
_atom_site_label
_atom_site_fract_x
_atom_site_fract_y
_atom_site_fract_z
Si Si1 0.766642 0.040000 0.304114
Si Si2 0.758921 0.933812 0.078727
Si Si3 0.047545 0.594077 0.628153
Si Si4 0.816731 0.632208 0.040100
Si Si5 0.832153 0.471980 0.767830
Si Si6 0.646963 0.447092 0.069311
Si Si7 0.480146 0.377963 0.693651
Si Si8 0.623025 0.704124 0.689269
O O1 0.690348 0.092510 0.390913
O O2 0.712776 0.026526 0.272057
O O3 0.861005 0.137566 0.246580
O O4 0.824481 0.913452 0.301444
O O5 0.644353 0.949627 0.114612
O O6 0.800020 0.788389 0.043097
O O7 0.744835 0.946755 0.152932
O O8 0.822967 0.043916 0.012029
O O9 0.083610 0.583777 0.544379
O O10 0.946124 0.525841 0.701514
O O11 0.033899 0.747016 0.646672
O O12 0.722042 0.555975 0.059281
O O13 0.842268 0.334594 0.796273
O O14 0.533129 0.501772 0.134614
O O15 0.656167 0.321799 0.106203
O O16 0.500000 0.396149 0.750000
O O17 0.500000 0.700768 0.750000
#
# Coordination Sequence:
#
# PCOD9260274 Si02
#       8
#     8   8   8   8   8   8   8   8
#     4  11  24  40  64  88 126 175 218 258 324 392
#     4  11  20  39  64 100 126 154 213 274 319 377
#     4  11  21  37  66  95 124 156 211 271 323 373
#     4  10  19  37  66  97 125 153 213 275 317 374
#     4  12  28  38  59  95 135 173 208 267 332 387
#     4  10  18  36  67  94 119 162 218 264 308 380
#     4  12  17  36  67  94 112 160 218 263 311 375
#     4  11  22  43  64  89 127 178 221 255 318 399
#
# _framework density 20.201384999999998
#
# number of rings (size 3 to 8) (size 9 to 14) (size 15 to 20)
#    0.000    1.000    6.250    3.375    3.500    1.000 
#    0.000    1.875    2.750    0.000    0.000    0.000 
#    0.000    0.000    0.000    0.000    0.000    0.000 
#
# Total GULP energy -178518.821071 kJ/mol
# GULP energy per Si atom -5578.713158 kJ/mol
# Density = 2.015541 g / cm^3
# Si number density = 20.201385 Si / 1000 Ang^3
#
#
#
# Elastic Constant Matrix: (Units=GPa)
#
#
# Indices 1 2 3 4 5 6 
#
# 1 40.0753 6.0689 20.7787 0.0000 22.8340 0.0000
# 2 6.0689 50.4700 18.5563 0.0000 -0.8487 0.0000
# 3 20.7787 18.5563 149.8025 0.0000 22.5053 0.0000
# 4 0.0000 0.0000 0.0000 17.0622 0.0000 4.8705
# 5 22.8340 -0.8487 22.5053 0.0000 27.6050 0.0000
# 6 0.0000 0.0000 0.0000 4.8705 0.0000 5.4607
#
#
#
# Elastic Compliance Matrix: (Units=1/GPa)
#
#
# Indices 1 2 3 4 5 6 
#
# 1 0.049316 -0.006683 0.000167 0.000000 -0.041134 0.000000
# 2 -0.006683 0.021903 -0.003097 0.000000 0.008727 0.000000
# 3 0.000167 -0.003097 0.008058 0.000000 -0.006803 0.000000
# 4 0.000000 0.000000 0.000000 0.078628 0.000000 -0.070131
# 5 -0.041134 0.008727 -0.006803 0.000000 0.076065 0.000000
# 6 0.000000 0.000000 0.000000 -0.070131 0.000000 0.245679
#
#
# Mechanical properties :
#
#
# Convention : Reuss Voigt Hill
#
# Bulk Modulus (GPa) = 16.65274 36.79505 26.72389
# Shear Modulus (GPa) = 9.63591 23.02183 16.32887
#
# Velocity S-wave (km/s) = 2.18639 3.37948 2.84615
# Velocity P-wave (km/s) = 3.82557 5.78632 4.90492
#
# Compressibility (1/GPa) = 0.06005019
#
# Stress axis : x y z
#
# Youngs Moduli (GPa) = 20.27746 45.65617 124.10144
#
# Poissons Ratio (x) = 0.30513 -0.02074
# Poissons Ratio (y) = 0.13552 0.38436
# Poissons Ratio (z) = -0.00339 0.14140
#
# Static dielectric constant tensor:
#      x y z
#    x 1.699550 0.000000 0.012530 
#    y 0.000000 1.766940 0.000000 
#    z 0.012530 0.000000 1.794260 
# 
# From -- ./inp_files/277085.got.cif
#   From: 2010.05.17/outbox.cif.g08.bks.cpg/sg15_139_cif.got.tgz:277085.got - 2010.06.03 18:47:42.
