data_PCOD9260174
_publ_section_title
;
Structure prediction by ZEFSAII (Michael W. Deem and Ramdas Pophale) SiO2 
 PCOD9260174
Probable space group: C 2/C
;
_chemical_formula_sum "Si O2"
_cell_formula_units_Z 60
_cell_length_a 8.574184
_cell_length_b 12.302219
_cell_length_c 23.433916
_cell_angle_alpha 90.000000
_cell_angle_beta 106.695574
_cell_angle_gamma 90.000000
_cell_volume 2367.642995
_symmetry_space_group_name_H-M "C 2/C"
_symmetry_group_IT_number 15
_symmetry_cell_setting 'monoclinic'
loop_
_space_group_symop_operation_xyz
x,y,z
-x,y,1/2-z
-x,-y,-z
x,-y,1/2+z
1/2+x,1/2+y,z
1/2-x,1/2+y,1/2-z
1/2-x,1/2-y,-z
1/2+x,1/2-y,1/2+z
loop_
_atom_site_type_symbol
_atom_site_label
_atom_site_fract_x
_atom_site_fract_y
_atom_site_fract_z
Si Si1 0.981885 0.158255 0.073711
Si Si2 0.477376 0.309239 0.309276
Si Si3 0.818342 0.960973 0.806712
Si Si4 0.500000 0.697795 0.250000
Si Si5 0.187253 0.615970 0.604262
Si Si6 0.896508 0.498129 0.622301
Si Si7 0.268338 0.769771 0.127091
Si Si8 0.707990 0.375259 0.506239
O O1 0.061283 0.077669 0.128853
O O2 0.076692 0.275041 0.086775
O O3 0.027865 0.118564 0.015306
O O4 0.804621 0.188659 0.078843
O O5 0.500000 0.257434 0.250000
O O6 0.365724 0.418213 0.291785
O O7 0.653697 0.347980 0.346259
O O8 0.392980 0.248491 0.353331
O O9 0.858601 0.877920 0.760955
O O10 0.644097 0.956666 0.818779
O O11 0.416750 0.760492 0.189114
O O12 0.249653 0.571587 0.549753
O O13 0.079024 0.531171 0.627472
O O14 0.784642 0.607508 0.606897
O O15 0.827413 0.419150 0.567203
O O16 0.750000 0.250000 0.500000
#
# Coordination Sequence:
#
# PCOD9260174 Si02
#       8
#     8   8   8   4   8   8   8   8
#     4   8  17  36  61  81 111 154 200 248 302 368
#     4  11  23  36  53  82 125 154 194 257 305 356
#     4   9  18  36  55  77 113 151 195 246 307 358
#     4  10  18  36  64  78 110 168 202 254 316 368
#     4  10  20  35  59  88 118 159 204 249 305 364
#     4   9  18  35  58  86 115 152 207 246 299 378
#     4   9  20  34  58  82 114 152 209 240 307 371
#     4   9  17  34  62  89 120 157 196 260 314 360
#
# _framework density 25.341657000000001
#
# number of rings (size 3 to 8) (size 9 to 14) (size 15 to 20)
#    0.000    2.667    0.667    0.400    5.600    0.000 
#    0.000   14.667    2.933    0.000    0.000    0.000 
#    0.000    0.000    0.000    0.000    0.000    0.000 
#
# Total GULP energy -167807.679996 kJ/mol
# GULP energy per Si atom -5593.589333 kJ/mol
# Density = 2.528398 g / cm^3
# Si number density = 25.341657 Si / 1000 Ang^3
#
#
#
# Elastic Constant Matrix: (Units=GPa)
#
#
# Indices 1 2 3 4 5 6 
#
# 1 195.7576 32.9082 75.9212 0.0000 -56.2992 0.0000
# 2 32.9082 96.1649 32.2100 0.0000 -15.6619 0.0000
# 3 75.9212 32.2100 71.8117 0.0000 -31.2935 0.0000
# 4 0.0000 0.0000 0.0000 26.4179 0.0000 -6.2445
# 5 -56.2992 -15.6619 -31.2935 0.0000 52.6933 0.0000
# 6 0.0000 0.0000 0.0000 -6.2445 0.0000 28.7927
#
#
#
# Elastic Compliance Matrix: (Units=1/GPa)
#
#
# Indices 1 2 3 4 5 6 
#
# 1 0.009839 0.000254 -0.007963 0.000000 0.005859 0.000000
# 2 0.000254 0.012254 -0.005477 0.000000 0.000661 0.000000
# 3 -0.007963 -0.005477 0.027501 0.000000 0.006196 0.000000
# 4 0.000000 0.000000 0.000000 0.039898 0.000000 0.008653
# 5 0.005859 0.000661 0.006196 0.000000 0.029114 0.000000
# 6 0.000000 0.000000 0.000000 0.008653 0.000000 0.036608
#
#
# Mechanical properties :
#
#
# Convention : Reuss Voigt Hill
#
# Bulk Modulus (GPa) = 43.06193 71.75699 57.40946
# Shear Modulus (GPa) = 26.40953 36.42709 31.41831
#
# Velocity S-wave (km/s) = 3.23172 3.79547 3.52488
# Velocity P-wave (km/s) = 5.56370 6.89817 6.26656
#
# Compressibility (1/GPa) = 0.02322237
#
# Stress axis : x y z
#
# Youngs Moduli (GPa) = 101.63851 81.60608 36.36257
#
# Poissons Ratio (x) = -0.02076 0.28955
# Poissons Ratio (y) = -0.02586 0.19916
# Poissons Ratio (z) = 0.80934 0.44697
#
# Static dielectric constant tensor:
#      x y z
#    x 2.041440 0.000000 -0.062620 
#    y 0.000000 2.014830 0.000000 
#    z -0.062620 0.000000 1.980720 
# 
# From -- ./inp_files/264767.got.cif
#   From: 2010.05.17/outbox.cif.g08.bks.cpg/sg15_133_cif.got.tgz:264767.got - 2010.06.03 18:47:42.
