data_PCOD9260348
_publ_section_title
;
Structure prediction by ZEFSAII (Michael W. Deem and Ramdas Pophale) SiO2 
 PCOD9260348
Probable space group: C 2/C
;
_chemical_formula_sum "Si O2"
_cell_formula_units_Z 40
_cell_length_a 9.897747
_cell_length_b 13.710058
_cell_length_c 15.305255
_cell_angle_alpha 90.000000
_cell_angle_beta 115.598190
_cell_angle_gamma 90.000000
_cell_volume 1873.047013
_symmetry_space_group_name_H-M "C 2/C"
_symmetry_group_IT_number 15
_symmetry_cell_setting 'monoclinic'
loop_
_space_group_symop_operation_xyz
x,y,z
-x,y,1/2-z
-x,-y,-z
x,-y,1/2+z
1/2+x,1/2+y,z
1/2-x,1/2+y,1/2-z
1/2-x,1/2-y,-z
1/2+x,1/2-y,1/2+z
loop_
_atom_site_type_symbol
_atom_site_label
_atom_site_fract_x
_atom_site_fract_y
_atom_site_fract_z
Si Si1 0.904457 0.684870 0.955812
Si Si2 0.882575 0.963268 0.392426
Si Si3 0.983132 0.857137 0.842130
Si Si4 0.784990 0.367423 0.007884
Si Si5 0.929588 0.205662 0.642111
O O1 0.936479 0.777888 0.901326
O O2 0.733649 0.657319 0.889008
O O3 0.046642 0.617164 0.976482
O O4 0.911706 0.717166 0.058920
O O5 0.744357 0.919174 0.407717
O O6 0.957904 0.875592 0.361773
O O7 0.866905 0.054528 0.323470
O O8 0.000000 0.000000 0.500000
O O9 0.000000 0.815345 0.750000
O O10 0.148982 0.900445 0.908039
O O11 0.750000 0.250000 0.000000
O O12 0.000000 0.247384 0.750000
#
# Coordination Sequence:
#
# PCOD9260348 Si02
#       5
#     8   8   8   8   8
#     4  10  22  38  57  88 113 147 197 244 278 338
#     4  10  18  37  58  81 115 151 187 232 287 348
#     4  10  20  34  61  85 113 153 187 228 290 349
#     4   9  17  35  59  78 112 146 188 234 277 329
#     4  11  22  36  61  81 118 152 193 237 296 334
#
# _framework density 21.355575999999999
#
# number of rings (size 3 to 8) (size 9 to 14) (size 15 to 20)
#    0.000    2.000    6.000    0.600    2.800    0.000 
#    0.000    4.000    0.000    2.400    0.000    0.000 
#    0.000    0.000    0.000    0.000    0.000    0.000 
#
# Total GULP energy -111440.098145 kJ/mol
# GULP energy per Si atom -5572.004907 kJ/mol
# Density = 2.130697 g / cm^3
# Si number density = 21.355576 Si / 1000 Ang^3
#
#
#
# Elastic Constant Matrix: (Units=GPa)
#
#
# Indices 1 2 3 4 5 6 
#
# 1 150.5396 1.3723 37.6467 0.0000 -9.0320 0.0000
# 2 1.3723 23.3110 2.6803 0.0000 -8.6980 0.0000
# 3 37.6467 2.6803 105.9038 0.0000 -16.9617 0.0000
# 4 0.0000 0.0000 0.0000 -0.1422 0.0000 0.4589
# 5 -9.0320 -8.6980 -16.9617 0.0000 17.9896 0.0000
# 6 0.0000 0.0000 0.0000 0.4589 0.0000 22.0264
#
#
#
# Elastic Compliance Matrix: (Units=1/GPa)
#
#
# Indices 1 2 3 4 5 6 
#
# 1 0.007327 0.000471 -0.002345 0.000000 0.001695 0.000000
# 2 0.000471 0.053317 0.003121 0.000000 0.028958 0.000000
# 3 -0.002345 0.003121 0.012073 0.000000 0.011715 0.000000
# 4 0.000000 0.000000 0.000000 -6.587577 0.000000 0.137240
# 5 0.001695 0.028958 0.011715 0.000000 0.081486 0.000000
# 6 0.000000 0.000000 0.000000 0.137240 0.000000 0.042541
#
#
# Mechanical properties :
#
#
# Convention : Reuss Voigt Hill
#
# Bulk Modulus (GPa) = 13.29595 40.35032 26.82313
# Shear Modulus (GPa) = -0.78514 23.84509 11.52998
#
# Velocity S-wave (km/s) = -0.60700 3.34514 2.32611
# Velocity P-wave (km/s) = 2.39755 5.81855 4.44993
#
# Compressibility (1/GPa) = 0.07521086
#
# Stress axis : x y z
#
# Youngs Moduli (GPa) = 136.48919 18.75590 82.82628
#
# Poissons Ratio (x) = -0.00883 0.19422
# Poissons Ratio (y) = -0.06426 -0.25852
# Poissons Ratio (z) = 0.32005 -0.05854
#
# Static dielectric constant tensor:
#      x y z
#    x 1.810030 0.000000 0.014270 
#    y 0.000000 1.840010 0.000000 
#    z 0.014270 0.000000 1.823610 
# 
# From -- ./inp_files/133257.got.cif
#   From: 2010.05.17/outbox.cif.g08.bks.cpg/sg15_67_cif.got.tgz:133257.got - 2010.06.03 18:47:42.
