data_PCOD9260345
_publ_section_title
;
Structure prediction by ZEFSAII (Michael W. Deem and Ramdas Pophale) SiO2 
 PCOD9260345
Probable space group: C 2/C
;
_chemical_formula_sum "Si O2"
_cell_formula_units_Z 56
_cell_length_a 28.042462
_cell_length_b 12.920653
_cell_length_c 13.991176
_cell_angle_alpha 90.000000
_cell_angle_beta 150.179097
_cell_angle_gamma 90.000000
_cell_volume 2520.954433
_symmetry_space_group_name_H-M "C 2/C"
_symmetry_group_IT_number 15
_symmetry_cell_setting 'monoclinic'
loop_
_space_group_symop_operation_xyz
x,y,z
-x,y,1/2-z
-x,-y,-z
x,-y,1/2+z
1/2+x,1/2+y,z
1/2-x,1/2+y,1/2-z
1/2-x,1/2-y,-z
1/2+x,1/2-y,1/2+z
loop_
_atom_site_type_symbol
_atom_site_label
_atom_site_fract_x
_atom_site_fract_y
_atom_site_fract_z
Si Si1 0.128250 0.254831 0.079332
Si Si2 0.801139 0.486166 0.638515
Si Si3 0.434581 0.822650 0.345189
Si Si4 0.239146 0.572813 0.213862
Si Si5 0.682056 0.335556 0.978940
Si Si6 0.612627 0.249103 0.030621
Si Si7 0.784264 0.641984 0.932962
O O1 0.047146 0.282119 0.014565
O O2 0.161814 0.136438 0.124734
O O3 0.219386 0.309586 0.292405
O O4 0.129031 0.306656 0.976515
O O5 0.893053 0.560295 0.776751
O O6 0.789361 0.454123 0.727647
O O7 0.707691 0.560731 0.465444
O O8 0.800902 0.385879 0.571374
O O9 0.353978 0.747630 0.159344
O O10 0.524152 0.797231 0.433657
O O11 0.156306 0.654673 0.044011
O O12 0.234687 0.471231 0.144319
O O13 0.607707 0.337314 0.939271
O O14 0.692158 0.289049 0.244468
#
# Coordination Sequence:
#
# PCOD9260345 Si02
#       7
#     8   8   8   8   8   8   8
#     4   9  19  33  54  80 116 151 188 238 282 350
#     4  11  19  33  64  80 108 154 202 228 279 358
#     4  11  19  35  57  88 112 147 190 251 299 324
#     4  10  18  37  58  79 111 150 199 232 274 357
#     4   9  17  34  53  83 104 148 195 232 277 345
#     4  10  22  34  57  84 123 144 186 252 299 330
#     4  10  19  37  55  85 114 154 195 235 284 352
#
# _framework density 22.213809000000001
#
# number of rings (size 3 to 8) (size 9 to 14) (size 15 to 20)
#    0.000    2.286    4.286    4.714    0.000    2.857 
#    0.000    2.857    0.000    1.714    0.000    0.000 
#    0.000    0.000    0.000    0.000    0.000    0.000 
#
# Total GULP energy -155958.638691 kJ/mol
# GULP energy per Si atom -5569.951382 kJ/mol
# Density = 2.216325 g / cm^3
# Si number density = 22.213809 Si / 1000 Ang^3
#
#
#
# Elastic Constant Matrix: (Units=GPa)
#
#
# Indices 1 2 3 4 5 6 
#
# 1 -21.2485 86.2055 60.6422 0.0000 -87.7168 0.0000
# 2 86.2055 31.9949 -14.2458 0.0000 49.5641 0.0000
# 3 60.6422 -14.2458 17.3451 0.0000 22.0466 0.0000
# 4 0.0000 0.0000 0.0000 15.7952 0.0000 -11.1333
# 5 -87.7168 49.5641 22.0466 0.0000 -14.8766 0.0000
# 6 0.0000 0.0000 0.0000 -11.1333 0.0000 49.3729
#
#
#
# Elastic Compliance Matrix: (Units=1/GPa)
#
#
# Indices 1 2 3 4 5 6 
#
# 1 0.003586 0.003498 0.000831 0.000000 -0.008256 0.000000
# 2 0.003498 0.011285 -0.008507 0.000000 0.004361 0.000000
# 3 0.000831 -0.008507 0.031215 0.000000 0.013018 0.000000
# 4 0.000000 0.000000 0.000000 0.075275 0.000000 0.016974
# 5 -0.008256 0.004361 0.013018 0.000000 0.015286 0.000000
# 6 0.000000 0.000000 0.000000 0.016974 0.000000 0.024082
#
#
# Mechanical properties :
#
#
# Convention : Reuss Voigt Hill
#
# Bulk Modulus (GPa) = 26.50429 32.58835 29.54632
# Shear Modulus (GPa) = 27.52396 3.09094 15.30745
#
# Velocity S-wave (km/s) = 3.52383 1.18088 2.62791
# Velocity P-wave (km/s) = 5.33984 4.06958 4.74738
#
# Compressibility (1/GPa) = 0.03772974
#
# Stress axis : x y z
#
# Youngs Moduli (GPa) = 278.87103 88.61642 32.03615
#
# Poissons Ratio (x) = -0.31002 -0.02661
# Poissons Ratio (y) = -0.97563 0.27253
# Poissons Ratio (z) = -0.23167 0.75386
#
# Static dielectric constant tensor:
#      x y z
#    x 1.965420 0.000000 0.022300 
#    y 0.000000 1.920380 0.000000 
#    z 0.022300 0.000000 1.893080 
# 
# From -- ./inp_files/177613.got.cif
#   From: 2010.05.17/outbox.cif.g08.bks.cpg/sg15_89_cif.got.tgz:177613.got - 2010.06.03 18:47:42.
