data_PCOD9260353
_publ_section_title
;
Structure prediction by ZEFSAII (Michael W. Deem and Ramdas Pophale) SiO2 
 PCOD9260353
Probable space group: C 2/C
;
_chemical_formula_sum "Si O2"
_cell_formula_units_Z 56
_cell_length_a 13.981599
_cell_length_b 11.783076
_cell_length_c 16.960267
_cell_angle_alpha 90.000000
_cell_angle_beta 92.149521
_cell_angle_gamma 90.000000
_cell_volume 2792.174180
_symmetry_space_group_name_H-M "C 2/C"
_symmetry_group_IT_number 15
_symmetry_cell_setting 'monoclinic'
loop_
_space_group_symop_operation_xyz
x,y,z
-x,y,1/2-z
-x,-y,-z
x,-y,1/2+z
1/2+x,1/2+y,z
1/2-x,1/2+y,1/2-z
1/2-x,1/2-y,-z
1/2+x,1/2-y,1/2+z
loop_
_atom_site_type_symbol
_atom_site_label
_atom_site_fract_x
_atom_site_fract_y
_atom_site_fract_z
Si Si1 0.783115 0.409821 0.310914
Si Si2 0.808633 0.546164 0.159749
Si Si3 0.617609 0.681378 0.173763
Si Si4 0.611180 0.265661 0.258325
Si Si5 0.083584 0.216775 0.360076
Si Si6 0.704692 0.846669 0.608881
Si Si7 0.584010 0.925118 0.464558
O O1 0.818363 0.446350 0.224641
O O2 0.841044 0.304706 0.349043
O O3 0.675020 0.365079 0.297424
O O4 0.792553 0.524327 0.359681
O O5 0.700251 0.590686 0.161581
O O6 0.874185 0.651484 0.189534
O O7 0.838895 0.506410 0.074874
O O8 0.604457 0.699415 0.267631
O O9 0.516403 0.650089 0.132106
O O10 0.500000 0.293436 0.250000
O O11 0.659917 0.232357 0.176089
O O12 0.184925 0.185714 0.402318
O O13 0.055086 0.340417 0.392860
O O14 0.634964 0.850306 0.532736
O O15 0.500000 0.000000 0.500000
#
# Coordination Sequence:
#
# PCOD9260353 Si02
#       7
#     8   8   8   8   8   8   8
#     4  10  18  37  58  86 112 153 204 243 289 347
#     4  10  20  39  58  85 122 153 205 249 295 355
#     4  10  20  37  63  88 113 152 213 253 290 346
#     4  10  20  35  57  86 117 153 201 252 287 346
#     4  11  21  38  61  88 116 158 201 251 296 361
#     4  11  22  39  58  88 124 156 199 246 308 362
#     4  12  24  39  60  93 126 163 195 246 317 369
#
# _framework density 20.056056000000002
#
# number of rings (size 3 to 8) (size 9 to 14) (size 15 to 20)
#    0.000    1.429    5.714    2.143    0.000    2.286 
#    0.000    8.571    0.000    0.000    0.000    0.000 
#    0.000    0.000    0.000    0.000    0.000    0.000 
#
# Total GULP energy -156177.445052 kJ/mol
# GULP energy per Si atom -5577.765895 kJ/mol
# Density = 2.001041 g / cm^3
# Si number density = 20.056056 Si / 1000 Ang^3
#
#
#
# Elastic Constant Matrix: (Units=GPa)
#
#
# Indices 1 2 3 4 5 6 
#
# 1 120.0392 -6.6491 20.3760 0.0000 4.3166 0.0000
# 2 -6.6491 16.5075 7.9197 0.0000 -10.2776 0.0000
# 3 20.3760 7.9197 39.4647 0.0000 -11.7513 0.0000
# 4 0.0000 0.0000 0.0000 17.4554 0.0000 -2.2649
# 5 4.3166 -10.2776 -11.7513 0.0000 20.5083 0.0000
# 6 0.0000 0.0000 0.0000 -2.2649 0.0000 12.8003
#
#
#
# Elastic Compliance Matrix: (Units=1/GPa)
#
#
# Indices 1 2 3 4 5 6 
#
# 1 0.009992 0.005252 -0.007301 0.000000 -0.003655 0.000000
# 2 0.005252 0.091800 -0.009362 0.000000 0.039535 0.000000
# 3 -0.007301 -0.009362 0.036230 0.000000 0.017605 0.000000
# 4 0.000000 0.000000 0.000000 0.058635 0.000000 0.010375
# 5 -0.003655 0.039535 0.017605 0.000000 0.079430 0.000000
# 6 0.000000 0.000000 0.000000 0.010375 0.000000 0.079959
#
#
# Mechanical properties :
#
#
# Convention : Reuss Voigt Hill
#
# Bulk Modulus (GPa) = 8.68057 24.36719 16.52388
# Shear Modulus (GPa) = 11.98271 20.44379 16.21325
#
# Velocity S-wave (km/s) = 2.44695 3.19616 2.84632
# Velocity P-wave (km/s) = 3.51013 5.07903 4.36563
#
# Compressibility (1/GPa) = 0.11519986
#
# Stress axis : x y z
#
# Youngs Moduli (GPa) = 100.07662 10.89327 27.60153
#
# Poissons Ratio (x) = -0.05722 0.20153
# Poissons Ratio (y) = -0.52564 0.25841
# Poissons Ratio (z) = 0.73070 0.10198
#
# Static dielectric constant tensor:
#      x y z
#    x 1.721830 0.000000 0.014360 
#    y 0.000000 1.721630 0.000000 
#    z 0.014360 0.000000 1.727020 
# 
# From -- ./inp_files/152616.got.cif
#   From: 2010.05.17/outbox.cif.g08.bks.cpg/sg15_77_cif.got.tgz:152616.got - 2010.06.03 18:47:42.
