data_PCOD9260450
_publ_section_title
;
Structure prediction by ZEFSAII (Michael W. Deem and Ramdas Pophale) SiO2 
 PCOD9260450
Probable space group: C 2/C
;
_chemical_formula_sum "Si O2"
_cell_formula_units_Z 40
_cell_length_a 12.087988
_cell_length_b 8.106504
_cell_length_c 18.041251
_cell_angle_alpha 90.000000
_cell_angle_beta 126.647200
_cell_angle_gamma 90.000000
_cell_volume 1418.421010
_symmetry_space_group_name_H-M "C 2/C"
_symmetry_group_IT_number 15
_symmetry_cell_setting 'monoclinic'
loop_
_space_group_symop_operation_xyz
x,y,z
-x,y,1/2-z
-x,-y,-z
x,-y,1/2+z
1/2+x,1/2+y,z
1/2-x,1/2+y,1/2-z
1/2-x,1/2-y,-z
1/2+x,1/2-y,1/2+z
loop_
_atom_site_type_symbol
_atom_site_label
_atom_site_fract_x
_atom_site_fract_y
_atom_site_fract_z
Si Si1 0.500000 0.526914 0.750000
Si Si2 0.229278 0.576347 0.717535
Si Si3 0.949519 0.671328 0.440972
Si Si4 0.750000 0.750000 0.000000
Si Si5 0.344566 0.011256 0.155554
Si Si6 0.545871 0.724204 0.400236
O O1 0.370428 0.616953 0.733416
O O2 0.443419 0.419840 0.656735
O O3 0.500000 0.961615 0.750000
O O4 0.244323 0.549054 0.810614
O O5 0.111217 0.712553 0.663319
O O6 0.078624 0.733881 0.445727
O O7 0.917177 0.788845 0.498405
O O8 0.000000 0.500000 0.500000
O O9 0.827813 0.594776 0.341921
O O10 0.731331 0.842064 0.914730
O O11 0.368720 0.874112 0.101565
#
# Coordination Sequence:
#
# PCOD9260450 Si02
#       6
#     4   8   8   4   8   8
#     4  12  22  38  70  82 126 178 194 268 330 354
#     4  10  21  39  61  94 122 163 219 250 313 393
#     4  10  20  37  61  90 126 160 209 259 313 374
#     4  12  18  32  70  92 118 174 208 248 320 382
#     4  10  18  37  62  91 125 157 212 258 299 381
#     4  10  20  42  64  87 127 167 205 265 320 369
#
# _framework density 28.200374
#
# number of rings (size 3 to 8) (size 9 to 14) (size 15 to 20)
#    0.000    1.600    9.000    1.200    0.000    0.800 
#    0.000    4.000    2.200    2.400    0.000    0.000 
#    0.000    0.000    0.000    0.000    0.000    0.000 
#
# Total GULP energy -111743.554735 kJ/mol
# GULP energy per Si atom -5587.177737 kJ/mol
# Density = 2.813619 g / cm^3
# Si number density = 28.200374 Si / 1000 Ang^3
#
#
#
# Elastic Constant Matrix: (Units=GPa)
#
#
# Indices 1 2 3 4 5 6 
#
# 1 265.4510 35.3661 58.4891 0.0000 2.0561 0.0000
# 2 35.3661 39.5866 38.8748 0.0000 -16.3389 0.0000
# 3 58.4891 38.8748 107.6374 0.0000 -6.8076 0.0000
# 4 0.0000 0.0000 0.0000 6.2397 0.0000 -5.7048
# 5 2.0561 -16.3389 -6.8076 0.0000 58.6519 0.0000
# 6 0.0000 0.0000 0.0000 -5.7048 0.0000 40.0566
#
#
#
# Elastic Compliance Matrix: (Units=1/GPa)
#
#
# Indices 1 2 3 4 5 6 
#
# 1 0.004502 -0.003161 -0.001380 0.000000 -0.001199 0.000000
# 2 -0.003161 0.047189 -0.014594 0.000000 0.011563 0.000000
# 3 -0.001380 -0.014594 0.015169 0.000000 -0.002257 0.000000
# 4 0.000000 0.000000 0.000000 0.184256 0.000000 0.026241
# 5 -0.001199 0.011563 -0.002257 0.000000 0.020051 0.000000
# 6 0.000000 0.000000 0.000000 0.026241 0.000000 0.028702
#
#
# Mechanical properties :
#
#
# Convention : Reuss Voigt Hill
#
# Bulk Modulus (GPa) = 34.97895 75.34833 55.16364
# Shear Modulus (GPa) = 14.38150 39.65264 27.01707
#
# Velocity S-wave (km/s) = 2.26071 3.75387 3.09858
# Velocity P-wave (km/s) = 4.38692 6.75023 5.69257
#
# Compressibility (1/GPa) = 0.02858862
#
# Stress axis : x y z
#
# Youngs Moduli (GPa) = 222.13623 21.19138 65.92525
#
# Poissons Ratio (x) = 0.06698 0.09100
# Poissons Ratio (y) = 0.70215 0.96212
# Poissons Ratio (z) = 0.30664 0.30927
#
# Static dielectric constant tensor:
#      x y z
#    x 2.082410 0.000000 0.029360 
#    y 0.000000 2.265070 0.000000 
#    z 0.029360 0.000000 2.172030 
# 
# From -- ./inp_files/263359.got.cif
#   From: 2010.05.17/outbox.cif.g08.bks.cpg/sg15_132_cif.got.tgz:263359.got - 2010.06.03 18:47:42.
