data_PCOD9260445
_publ_section_title
;
Structure prediction by ZEFSAII (Michael W. Deem and Ramdas Pophale) SiO2 
 PCOD9260445
Probable space group: C 2/C
;
_chemical_formula_sum "Si O2"
_cell_formula_units_Z 56
_cell_length_a 11.686383
_cell_length_b 20.385943
_cell_length_c 12.139307
_cell_angle_alpha 90.000000
_cell_angle_beta 83.981539
_cell_angle_gamma 90.000000
_cell_volume 2876.102996
_symmetry_space_group_name_H-M "C 2/C"
_symmetry_group_IT_number 15
_symmetry_cell_setting 'monoclinic'
loop_
_space_group_symop_operation_xyz
x,y,z
-x,y,1/2-z
-x,-y,-z
x,-y,1/2+z
1/2+x,1/2+y,z
1/2-x,1/2+y,1/2-z
1/2-x,1/2-y,-z
1/2+x,1/2-y,1/2+z
loop_
_atom_site_type_symbol
_atom_site_label
_atom_site_fract_x
_atom_site_fract_y
_atom_site_fract_z
Si Si1 0.655251 0.800837 0.963418
Si Si2 0.868538 0.647506 0.800384
Si Si3 0.686105 0.540621 0.761229
Si Si4 0.540164 0.415760 0.084533
Si Si5 0.441376 0.263518 0.376584
Si Si6 0.233282 0.786542 0.776603
Si Si7 0.404383 0.412592 0.667196
O O1 0.531188 0.767910 0.952768
O O2 0.703781 0.818320 0.837395
O O3 0.750000 0.750000 0.000000
O O4 0.642053 0.851099 0.065236
O O5 0.795417 0.586576 0.763242
O O6 0.815330 0.715934 0.758138
O O7 0.000000 0.644402 0.750000
O O8 0.583431 0.571847 0.846879
O O9 0.634941 0.544346 0.643487
O O10 0.695413 0.465480 0.797931
O O11 0.573021 0.339542 0.095190
O O12 0.542322 0.429429 0.955867
O O13 0.500000 0.261738 0.250000
O O14 0.322199 0.226460 0.366953
O O15 0.138201 0.838155 0.823244
O O16 0.500000 0.422221 0.750000
#
# Coordination Sequence:
#
# PCOD9260445 Si02
#       7
#     8   8   8   8   8   8   8
#     4   9  20  35  62  90 127 166 200 264 316 361
#     4  11  23  40  62  92 126 167 217 255 310 384
#     4  11  23  44  64  89 126 174 210 253 325 382
#     4  11  21  40  66  92 123 167 210 258 319 376
#     4  10  18  37  62  90 124 167 210 246 321 386
#     4  10  22  39  58  97 128 163 206 263 321 371
#     4  12  27  37  63 100 127 156 214 276 312 360
#
# _framework density 19.470790999999998
#
# number of rings (size 3 to 8) (size 9 to 14) (size 15 to 20)
#    0.000    1.429    4.286    2.571    8.000    1.714 
#    0.000    2.143    0.000    2.571    0.000    0.000 
#    0.000    0.000    0.000    0.000    0.000    0.000 
#
# Total GULP energy -156325.588239 kJ/mol
# GULP energy per Si atom -5583.056723 kJ/mol
# Density = 1.942647 g / cm^3
# Si number density = 19.470791 Si / 1000 Ang^3
#
#
#
# Elastic Constant Matrix: (Units=GPa)
#
#
# Indices 1 2 3 4 5 6 
#
# 1 85.1169 19.2753 27.7912 0.0000 17.6636 0.0000
# 2 19.2753 67.3882 4.5237 0.0000 10.7774 0.0000
# 3 27.7912 4.5237 91.5538 0.0000 17.8910 0.0000
# 4 0.0000 0.0000 0.0000 12.3526 0.0000 -5.2650
# 5 17.6636 10.7774 17.8910 0.0000 28.3077 0.0000
# 6 0.0000 0.0000 0.0000 -5.2650 0.0000 27.2152
#
#
#
# Elastic Compliance Matrix: (Units=1/GPa)
#
#
# Indices 1 2 3 4 5 6 
#
# 1 0.014713 -0.003031 -0.003135 0.000000 -0.006045 0.000000
# 2 -0.003031 0.016442 0.001097 0.000000 -0.005062 0.000000
# 3 -0.003135 0.001097 0.013142 0.000000 -0.006768 0.000000
# 4 0.000000 0.000000 0.000000 0.088230 0.000000 0.017069
# 5 -0.006045 -0.005062 -0.006768 0.000000 0.045303 0.000000
# 6 0.000000 0.000000 0.000000 0.017069 0.000000 0.040046
#
#
# Mechanical properties :
#
#
# Convention : Reuss Voigt Hill
#
# Bulk Modulus (GPa) = 29.27471 38.58215 33.92843
# Shear Modulus (GPa) = 20.88538 26.40634 23.64586
#
# Velocity S-wave (km/s) = 3.27869 3.68666 3.48864
# Velocity P-wave (km/s) = 5.42226 6.16282 5.80436
#
# Compressibility (1/GPa) = 0.03415918
#
# Stress axis : x y z
#
# Youngs Moduli (GPa) = 67.96644 60.81874 76.08904
#
# Poissons Ratio (x) = 0.18435 0.23854
# Poissons Ratio (y) = 0.20602 -0.08346
# Poissons Ratio (z) = 0.21308 -0.06671
#
# Static dielectric constant tensor:
#      x y z
#    x 1.675770 0.000000 -0.006370 
#    y 0.000000 1.676380 0.000000 
#    z -0.006370 0.000000 1.711510 
# 
# From -- ./inp_files/88991.got.cif
#   From: 2010.05.17/outbox.cif.g08.bks.cpg/sg15_45_cif.got.tgz:88991.got - 2010.06.03 18:47:42.
