data_PCOD9260751
_publ_section_title
;
Structure prediction by ZEFSAII (Michael W. Deem and Ramdas Pophale) SiO2 
 PCOD9260751
Probable space group: C 2/C
;
_chemical_formula_sum "Si O2"
_cell_formula_units_Z 56
_cell_length_a 27.918668
_cell_length_b 9.756443
_cell_length_c 14.419257
_cell_angle_alpha 90.000000
_cell_angle_beta 129.845666
_cell_angle_gamma 90.000000
_cell_volume 3015.518375
_symmetry_space_group_name_H-M "C 2/C"
_symmetry_group_IT_number 15
_symmetry_cell_setting 'monoclinic'
loop_
_space_group_symop_operation_xyz
x,y,z
-x,y,1/2-z
-x,-y,-z
x,-y,1/2+z
1/2+x,1/2+y,z
1/2-x,1/2+y,1/2-z
1/2-x,1/2-y,-z
1/2+x,1/2-y,1/2+z
loop_
_atom_site_type_symbol
_atom_site_label
_atom_site_fract_x
_atom_site_fract_y
_atom_site_fract_z
Si Si1 0.113078 0.708417 0.060582
Si Si2 0.163155 0.004934 0.569316
Si Si3 0.747634 0.916018 0.980747
Si Si4 0.279963 0.992890 0.351890
Si Si5 0.487964 0.996504 0.594208
Si Si6 0.887644 0.368215 0.728302
Si Si7 0.113031 0.723502 0.478556
O O1 0.124382 0.857178 0.033226
O O2 0.175398 0.619682 0.117416
O O3 0.103481 0.705987 0.161213
O O4 0.055542 0.627478 0.941903
O O5 0.197657 0.972782 0.515095
O O6 0.220993 0.014416 0.712133
O O7 0.119139 0.873325 0.528262
O O8 0.679921 0.938899 0.850351
O O9 0.750000 0.750000 0.000000
O O10 0.746075 0.992638 0.076330
O O11 0.326490 0.861629 0.410589
O O12 0.556541 0.975999 0.720716
O O13 0.447227 0.862730 0.567127
O O14 0.500000 0.000000 0.500000
O O15 0.886477 0.277147 0.633490
#
# Coordination Sequence:
#
# PCOD9260751 Si02
#       7
#     8   8   8   8   8   8   8
#     4  10  21  35  57  90 122 152 191 262 302 329
#     4  12  21  34  60  91 128 147 192 257 304 349
#     4  11  20  36  61  91 116 160 203 233 296 372
#     4  10  20  35  56  86 122 158 198 234 295 364
#     4   9  20  39  62  85 109 153 207 242 290 354
#     4  10  18  38  63  82 111 163 210 233 273 379
#     4  10  21  36  63  87 110 167 206 230 289 375
#
# _framework density 18.570603999999999
#
# number of rings (size 3 to 8) (size 9 to 14) (size 15 to 20)
#    0.000    1.714    4.286    2.143    0.000    0.571 
#    0.000    2.857    3.143   10.286    0.000    0.000 
#    0.000    0.000    0.000    0.000    0.000    0.000 
#
# Total GULP energy -156085.928607 kJ/mol
# GULP energy per Si atom -5574.497450 kJ/mol
# Density = 1.852834 g / cm^3
# Si number density = 18.570604 Si / 1000 Ang^3
#
#
#
# Elastic Constant Matrix: (Units=GPa)
#
#
# Indices 1 2 3 4 5 6 
#
# 1 99.6279 51.1607 25.5778 0.0000 -4.1353 0.0000
# 2 51.1607 142.5694 38.1976 0.0000 2.0961 0.0000
# 3 25.5778 38.1976 64.5695 0.0000 -0.8709 0.0000
# 4 0.0000 0.0000 0.0000 7.3494 0.0000 -2.9101
# 5 -4.1353 2.0961 -0.8709 0.0000 32.0743 0.0000
# 6 0.0000 0.0000 0.0000 -2.9101 0.0000 24.0524
#
#
#
# Elastic Compliance Matrix: (Units=1/GPa)
#
#
# Indices 1 2 3 4 5 6 
#
# 1 0.012817 -0.003889 -0.002752 0.000000 0.001832 0.000000
# 2 -0.003889 0.009530 -0.004114 0.000000 -0.001236 0.000000
# 3 -0.002752 -0.004114 0.019017 0.000000 0.000430 0.000000
# 4 0.000000 0.000000 0.000000 0.142912 0.000000 0.017291
# 5 0.001832 -0.001236 0.000430 0.000000 0.031506 0.000000
# 6 0.000000 0.000000 0.000000 0.017291 0.000000 0.043668
#
#
# Mechanical properties :
#
#
# Convention : Reuss Voigt Hill
#
# Bulk Modulus (GPa) = 50.36675 59.62657 54.99666
# Shear Modulus (GPa) = 17.38665 25.48394 21.43529
#
# Velocity S-wave (km/s) = 3.06313 3.70844 3.40112
# Velocity P-wave (km/s) = 6.30008 7.10735 6.71586
#
# Compressibility (1/GPa) = 0.01985437
#
# Stress axis : x y z
#
# Youngs Moduli (GPa) = 78.02183 104.93124 52.58532
#
# Poissons Ratio (x) = 0.40808 0.14471
# Poissons Ratio (y) = 0.30343 0.21633
# Poissons Ratio (z) = 0.21470 0.43167
#
# Static dielectric constant tensor:
#      x y z
#    x 1.673530 0.000000 -0.007040 
#    y 0.000000 1.613940 0.000000 
#    z -0.007040 0.000000 1.682460 
# 
# From -- ./inp_files/171817.got.cif
#   From: 2010.05.17/outbox.cif.g08.bks.cpg/sg15_86_cif.got.tgz:171817.got - 2010.06.03 18:47:42.
