data_PCOD9260061
_publ_section_title
;
Structure prediction by ZEFSAII (Michael W. Deem and Ramdas Pophale) SiO2 
 PCOD9260061
Probable space group: C 2/C
;
_chemical_formula_sum "Si O2"
_cell_formula_units_Z 56
_cell_length_a 6.697372
_cell_length_b 18.383116
_cell_length_c 20.767359
_cell_angle_alpha 90.000000
_cell_angle_beta 129.458756
_cell_angle_gamma 90.000000
_cell_volume 1974.096572
_symmetry_space_group_name_H-M "C 2/C"
_symmetry_group_IT_number 15
_symmetry_cell_setting 'monoclinic'
loop_
_space_group_symop_operation_xyz
x,y,z
-x,y,1/2-z
-x,-y,-z
x,-y,1/2+z
1/2+x,1/2+y,z
1/2-x,1/2+y,1/2-z
1/2-x,1/2-y,-z
1/2+x,1/2-y,1/2+z
loop_
_atom_site_type_symbol
_atom_site_label
_atom_site_fract_x
_atom_site_fract_y
_atom_site_fract_z
Si Si1 0.305376 0.194687 0.825413
Si Si2 0.808618 0.526260 0.827775
Si Si3 0.162903 0.973390 0.628120
Si Si4 0.266032 0.341562 0.763885
Si Si5 0.010456 0.258991 0.998720
Si Si6 0.615194 0.893847 0.590446
Si Si7 0.504096 0.396724 0.030591
O O1 0.382306 0.260342 0.793217
O O2 0.000000 0.184877 0.750000
O O3 0.392298 0.110081 0.843664
O O4 0.363274 0.230436 0.906305
O O5 0.500000 0.522489 0.750000
O O6 0.030084 0.484721 0.829104
O O7 0.833836 0.480278 0.898951
O O8 0.122277 0.912386 0.674769
O O9 0.982289 0.941654 0.533473
O O10 0.089512 0.058934 0.611543
O O11 0.222893 0.363139 0.680893
O O12 0.000000 0.334119 0.750000
O O13 0.835725 0.329102 0.949479
O O14 0.250000 0.250000 0.000000
O O15 0.873802 0.182223 0.956476
O O16 0.304172 0.890542 0.527593
#
# Coordination Sequence:
#
# PCOD9260061 Si02
#       7
#     8   8   8   8   8   8   8
#     4  10  20  36  63  89 124 167 219 243 317 389
#     4  10  22  41  59  90 130 166 210 262 322 381
#     4  10  19  36  65  93 126 157 218 270 302 387
#     4  11  17  37  63  94 114 171 218 259 305 382
#     4  10  18  36  61  93 129 166 203 264 320 382
#     4  10  21  38  63  89 133 160 214 262 327 383
#     4   9  17  34  62  94 121 156 209 261 319 362
#
# _framework density 28.367407
#
# number of rings (size 3 to 8) (size 9 to 14) (size 15 to 20)
#    0.000    2.000    4.286    2.571    0.000    0.571 
#   12.857    2.143    6.286    0.000    0.000    0.000 
#    0.000    0.000    0.000    0.000    0.000    0.000 
#
# Total GULP energy -156305.342386 kJ/mol
# GULP energy per Si atom -5582.333657 kJ/mol
# Density = 2.830284 g / cm^3
# Si number density = 28.367407 Si / 1000 Ang^3
#
#
#
# Elastic Constant Matrix: (Units=GPa)
#
#
# Indices 1 2 3 4 5 6 
#
# 1 94.9279 53.4775 33.4128 0.0000 -5.4817 -0.0001
# 2 53.4775 290.8994 85.8150 0.0000 -1.1236 0.0000
# 3 33.4128 85.8150 107.9346 0.0000 1.1867 0.0000
# 4 0.0000 0.0000 0.0000 50.9170 0.0000 11.5243
# 5 -5.4817 -1.1236 1.1867 0.0000 39.4498 0.0000
# 6 -0.0001 0.0000 0.0000 11.5243 0.0000 38.4857
#
#
#
# Elastic Compliance Matrix: (Units=1/GPa)
#
#
# Indices 1 2 3 4 5 6 
#
# 1 0.012417 -0.001484 -0.002683 0.000000 0.001764 0.000000
# 2 -0.001484 0.004671 -0.003254 0.000000 0.000025 0.000000
# 3 -0.002683 -0.003254 0.012692 0.000000 -0.000847 0.000000
# 4 0.000000 0.000000 0.000000 0.021068 0.000000 -0.006309
# 5 0.001764 0.000025 -0.000847 0.000000 0.025620 0.000000
# 6 0.000000 0.000000 0.000000 -0.006309 0.000000 0.027873
#
#
# Mechanical properties :
#
#
# Convention : Reuss Voigt Hill
#
# Bulk Modulus (GPa) = 66.95119 93.24137 80.09628
# Shear Modulus (GPa) = 40.27013 47.17427 43.72220
#
# Velocity S-wave (km/s) = 3.77183 4.08238 3.93018
# Velocity P-wave (km/s) = 6.52853 7.42709 6.99226
#
# Compressibility (1/GPa) = 0.01493625
#
# Stress axis : x y z
#
# Youngs Moduli (GPa) = 80.53649 214.10715 78.78949
#
# Poissons Ratio (x) = 0.31780 0.21140
# Poissons Ratio (y) = 0.11954 0.25639
# Poissons Ratio (z) = 0.21608 0.69674
#
# Static dielectric constant tensor:
#      x y z
#    x 2.457430 0.000000 0.065070 
#    y 0.000000 2.325960 0.000000 
#    z 0.065070 0.000000 2.217490 
# 
# From -- ./inp_files/270465.got.cif
#   From: 2010.05.17/outbox.cif.g08.bks.cpg/sg15_136_cif.got.tgz:270465.got - 2010.06.03 18:47:42.
