data_PCOD9260397
_publ_section_title
;
Structure prediction by ZEFSAII (Michael W. Deem and Ramdas Pophale) SiO2 
 PCOD9260397
Probable space group: C 2/C
;
_chemical_formula_sum "Si O2"
_cell_formula_units_Z 56
_cell_length_a 14.763491
_cell_length_b 20.955673
_cell_length_c 8.594486
_cell_angle_alpha 90.000000
_cell_angle_beta 111.734138
_cell_angle_gamma 90.000000
_cell_volume 2469.933195
_symmetry_space_group_name_H-M "C 2/C"
_symmetry_group_IT_number 15
_symmetry_cell_setting 'monoclinic'
loop_
_space_group_symop_operation_xyz
x,y,z
-x,y,1/2-z
-x,-y,-z
x,-y,1/2+z
1/2+x,1/2+y,z
1/2-x,1/2+y,1/2-z
1/2-x,1/2-y,-z
1/2+x,1/2-y,1/2+z
loop_
_atom_site_type_symbol
_atom_site_label
_atom_site_fract_x
_atom_site_fract_y
_atom_site_fract_z
Si Si1 0.091584 0.290283 0.409594
Si Si2 0.576354 0.886249 0.664169
Si Si3 0.286636 0.312026 0.331630
Si Si4 0.065268 0.041026 0.921816
Si Si5 0.246385 0.380126 0.989674
Si Si6 0.829572 0.498669 0.362652
Si Si7 0.705910 0.560003 0.507628
O O1 0.054745 0.350505 0.488340
O O2 0.180373 0.304237 0.345716
O O3 0.140535 0.242945 0.567057
O O4 0.000000 0.265793 0.250000
O O5 0.500000 0.869360 0.750000
O O6 0.578297 0.964301 0.648696
O O7 0.678268 0.861056 0.804306
O O8 0.271293 0.328999 0.140304
O O9 0.329106 0.375206 0.442589
O O10 0.152165 0.090550 0.012192
O O11 0.000000 0.073561 0.750000
O O12 0.123147 0.982563 0.878744
O O13 0.000000 0.000000 0.000000
O O14 0.181466 0.436282 0.035732
O O15 0.788868 0.559347 0.432958
O O16 0.755982 0.478638 0.179950
#
# Coordination Sequence:
#
# PCOD9260397 Si02
#       7
#     8   8   8   8   8   8   8
#     4  11  25  45  68  97 126 172 239 288 328 397
#     4  12  24  41  67  96 135 180 217 279 338 391
#     4  10  22  44  70  90 128 181 222 279 342 384
#     4  11  21  34  59  95 137 174 211 261 326 396
#     4  10  23  42  64  97 139 172 224 271 334 416
#     4  10  18  37  60  94 133 166 203 264 322 398
#     4  10  19  37  62  89 132 168 213 262 321 401
#
# _framework density 22.672677
#
# number of rings (size 3 to 8) (size 9 to 14) (size 15 to 20)
#    0.000    1.429    4.286    3.429    0.000    1.714 
#    0.000   10.000    0.000    0.000    0.000    0.000 
#    0.000    0.000    0.000    0.000    0.000    0.000 
#
# Total GULP energy -155889.522036 kJ/mol
# GULP energy per Si atom -5567.482930 kJ/mol
# Density = 2.262107 g / cm^3
# Si number density = 22.672677 Si / 1000 Ang^3
#
#
#
# Elastic Constant Matrix: (Units=GPa)
#
#
# Indices 1 2 3 4 5 6 
#
# 1 69.4476 3.0255 25.7922 0.0000 1.5971 0.0000
# 2 3.0255 61.3378 26.3273 0.0000 2.0873 0.0000
# 3 25.7922 26.3273 110.8278 0.0000 4.3546 0.0000
# 4 0.0000 0.0000 0.0000 41.9088 0.0000 -2.5422
# 5 1.5971 2.0873 4.3546 0.0000 36.0627 0.0000
# 6 0.0000 0.0000 0.0000 -2.5422 0.0000 14.8000
#
#
#
# Elastic Compliance Matrix: (Units=1/GPa)
#
#
# Indices 1 2 3 4 5 6 
#
# 1 0.015808 0.000895 -0.003880 0.000000 -0.000283 0.000000
# 2 0.000895 0.018215 -0.004514 0.000000 -0.000549 0.000000
# 3 -0.003880 -0.004514 0.011034 0.000000 -0.000899 0.000000
# 4 0.000000 0.000000 0.000000 0.024113 0.000000 0.004142
# 5 -0.000283 -0.000549 -0.000899 0.000000 0.027882 0.000000
# 6 0.000000 0.000000 0.000000 0.004142 0.000000 0.068279
#
#
# Mechanical properties :
#
#
# Convention : Reuss Voigt Hill
#
# Bulk Modulus (GPa) = 33.26780 39.10037 36.18408
# Shear Modulus (GPa) = 26.26768 30.98552 28.62660
#
# Velocity S-wave (km/s) = 3.40746 3.70083 3.55717
# Velocity P-wave (km/s) = 5.49417 5.96192 5.73282
#
# Compressibility (1/GPa) = 0.03005910
#
# Stress axis : x y z
#
# Youngs Moduli (GPa) = 63.25903 54.89956 90.63153
#
# Poissons Ratio (x) = -0.04916 0.35169
# Poissons Ratio (y) = -0.05665 0.40910
# Poissons Ratio (z) = 0.24548 0.24781
#
# Static dielectric constant tensor:
#      x y z
#    x 2.128280 0.000000 -0.088250 
#    y 0.000000 1.867650 0.000000 
#    z -0.088250 0.000000 1.913010 
# 
# From -- ./inp_files/42278.got.cif
#   From: 2010.05.17/outbox.cif.g08.bks.cpg/sg15_22_cif.got.tgz:42278.got - 2010.06.03 18:47:42.
