data_PCOD9260799
_publ_section_title
;
Structure prediction by ZEFSAII (Michael W. Deem and Ramdas Pophale) SiO2 
 PCOD9260799
Probable space group: C 2/C
;
_chemical_formula_sum "Si O2"
_cell_formula_units_Z 60
_cell_length_a 10.658007
_cell_length_b 20.477747
_cell_length_c 13.039662
_cell_angle_alpha 90.000000
_cell_angle_beta 68.603442
_cell_angle_gamma 90.000000
_cell_volume 2649.783853
_symmetry_space_group_name_H-M "C 2/C"
_symmetry_group_IT_number 15
_symmetry_cell_setting 'monoclinic'
loop_
_space_group_symop_operation_xyz
x,y,z
-x,y,1/2-z
-x,-y,-z
x,-y,1/2+z
1/2+x,1/2+y,z
1/2-x,1/2+y,1/2-z
1/2-x,1/2-y,-z
1/2+x,1/2-y,1/2+z
loop_
_atom_site_type_symbol
_atom_site_label
_atom_site_fract_x
_atom_site_fract_y
_atom_site_fract_z
Si Si1 0.862955 0.075200 0.850473
Si Si2 0.715576 0.986238 0.218249
Si Si3 0.000000 0.293010 0.750000
Si Si4 0.747638 0.269758 0.829456
Si Si5 0.167580 0.661875 0.992656
Si Si6 0.067016 0.105167 0.342194
Si Si7 0.421443 0.910020 0.622219
Si Si8 0.701618 0.560181 0.020016
O O1 0.815732 0.132112 0.939881
O O2 0.000000 0.081586 0.750000
O O3 0.756904 0.067189 0.789508
O O4 0.852224 0.008264 0.917462
O O5 0.830481 0.044066 0.176244
O O6 0.593203 0.024661 0.307691
O O7 0.715089 0.954556 0.107179
O O8 0.118023 0.240488 0.761654
O O9 0.079524 0.350687 0.798005
O O10 0.655745 0.213826 0.906204
O O11 0.650027 0.327541 0.824345
O O12 0.844461 0.298830 0.895853
O O13 0.063714 0.602583 0.025015
O O14 0.000000 0.100176 0.250000
O O15 0.936839 0.100184 0.455114
O O16 0.301167 0.909529 0.575702
#
# Coordination Sequence:
#
# PCOD9260799 Si02
#       8
#     8   8   4   8   8   8   8   8
#     4  11  22  38  59  93 126 158 205 269 323 380
#     4  11  21  37  62  94 126 165 204 259 334 388
#     4  10  18  38  64  90 118 168 220 262 312 380
#     4  10  22  39  66  89 120 174 221 269 314 380
#     4  10  24  43  59  89 127 168 218 270 317 382
#     4  12  19  39  63  98 129 164 219 270 323 383
#     4  10  22  42  59  89 132 165 212 256 321 396
#     4  11  22  37  64  95 129 166 203 263 329 397
#
# _framework density 22.643357000000002
#
# number of rings (size 3 to 8) (size 9 to 14) (size 15 to 20)
#    0.000    1.333    5.333    1.200    4.667    2.133 
#    0.000    2.000    0.000    0.000    0.000    0.000 
#    0.000    0.000    0.000    0.000    0.000    0.000 
#
# Total GULP energy -167048.881714 kJ/mol
# GULP energy per Si atom -5568.296057 kJ/mol
# Density = 2.259182 g / cm^3
# Si number density = 22.643357 Si / 1000 Ang^3
#
#
#
# Elastic Constant Matrix: (Units=GPa)
#
#
# Indices 1 2 3 4 5 6 
#
# 1 87.4125 28.4151 28.0020 0.0000 -5.4192 0.0000
# 2 28.4151 44.3027 26.8755 0.0000 -6.1565 0.0000
# 3 28.0020 26.8755 68.8277 0.0000 -7.7181 0.0000
# 4 0.0000 0.0000 0.0000 0.3288 0.0000 -15.9109
# 5 -5.4192 -6.1565 -7.7181 0.0000 30.5257 0.0000
# 6 0.0000 0.0000 0.0000 -15.9109 0.0000 15.0391
#
#
#
# Elastic Compliance Matrix: (Units=1/GPa)
#
#
# Indices 1 2 3 4 5 6 
#
# 1 0.014933 -0.007690 -0.003035 0.000000 0.000333 0.000000
# 2 -0.007690 0.033833 -0.009747 0.000000 0.002994 0.000000
# 3 -0.003035 -0.009747 0.019852 0.000000 0.002515 0.000000
# 4 0.000000 0.000000 0.000000 -0.060590 0.000000 -0.064102
# 5 0.000333 0.002994 0.002515 0.000000 0.034058 0.000000
# 6 0.000000 0.000000 0.000000 -0.064102 0.000000 -0.001325
#
#
# Mechanical properties :
#
#
# Convention : Reuss Voigt Hill
#
# Bulk Modulus (GPa) = 36.13544 40.79201 38.46372
# Shear Modulus (GPa) = 54.98777 16.99541 35.99159
#
# Velocity S-wave (km/s) = 4.93325 2.74262 3.99118
# Velocity P-wave (km/s) = 6.96006 5.29938 6.18571
#
# Compressibility (1/GPa) = 0.02767366
#
# Stress axis : x y z
#
# Youngs Moduli (GPa) = 66.96678 29.55689 50.37370
#
# Poissons Ratio (x) = 0.22730 0.15289
# Poissons Ratio (y) = 0.51499 0.49097
# Poissons Ratio (z) = 0.20325 0.28808
#
# Static dielectric constant tensor:
#      x y z
#    x 2.187240 0.000000 -0.980550 
#    y 0.000000 1.842990 0.000000 
#    z -0.980550 0.000000 4.969670 
# 
# From -- ./inp_files/147856.got.cif
#   From: 2010.05.17/outbox.cif.g08.bks.cpg/sg15_74_cif.got.tgz:147856.got - 2010.06.03 18:47:42.
