data_PCOD9260944
_publ_section_title
;
Structure prediction by ZEFSAII (Michael W. Deem and Ramdas Pophale) SiO2 
 PCOD9260944
Probable space group: C 2/C
;
_chemical_formula_sum "Si O2"
_cell_formula_units_Z 60
_cell_length_a 9.380329
_cell_length_b 14.281814
_cell_length_c 19.880756
_cell_angle_alpha 90.000000
_cell_angle_beta 65.868863
_cell_angle_gamma 90.000000
_cell_volume 2430.639658
_symmetry_space_group_name_H-M "C 2/C"
_symmetry_group_IT_number 15
_symmetry_cell_setting 'monoclinic'
loop_
_space_group_symop_operation_xyz
x,y,z
-x,y,1/2-z
-x,-y,-z
x,-y,1/2+z
1/2+x,1/2+y,z
1/2-x,1/2+y,1/2-z
1/2-x,1/2-y,-z
1/2+x,1/2-y,1/2+z
loop_
_atom_site_type_symbol
_atom_site_label
_atom_site_fract_x
_atom_site_fract_y
_atom_site_fract_z
Si Si1 0.259502 0.482122 0.939922
Si Si2 0.320533 0.553771 0.278581
Si Si3 0.517542 0.371380 0.417838
Si Si4 0.183020 0.162495 0.761011
Si Si5 0.816669 0.496421 0.899289
Si Si6 0.000000 0.395499 0.250000
Si Si7 0.262678 0.316677 0.664039
Si Si8 0.580150 0.701598 0.042439
O O1 0.228809 0.456266 0.867582
O O2 0.362150 0.575829 0.925541
O O3 0.377228 0.399903 0.937912
O O4 0.147747 0.487516 0.027906
O O5 0.500000 0.587270 0.250000
O O6 0.337684 0.447409 0.249013
O O7 0.251402 0.618580 0.233471
O O8 0.583433 0.312206 0.344476
O O9 0.653717 0.447636 0.412843
O O10 0.503566 0.306040 0.484368
O O11 0.358854 0.168099 0.753949
O O12 0.162649 0.226276 0.700829
O O13 0.942010 0.541293 0.824079
O O14 0.787294 0.388507 0.884918
O O15 0.434944 0.272442 0.617108
O O16 0.750000 0.750000 0.000000
#
# Coordination Sequence:
#
# PCOD9260944 Si02
#       8
#     8   8   8   8   8   4   8   8
#     4  11  20  38  69  88 125 175 215 257 330 389
#     4  12  22  43  65  96 128 166 216 275 318 384
#     4  10  18  39  60  88 128 169 209 259 322 387
#     4  11  25  38  62  96 128 166 214 274 325 382
#     4  10  19  41  63  88 124 178 211 252 320 404
#     4  10  22  42  62  86 134 168 212 266 328 378
#     4  12  23  40  65  94 131 169 220 269 326 382
#     4  11  22  33  60 101 127 157 218 276 322 381
#
# _framework density 24.68486
#
# number of rings (size 3 to 8) (size 9 to 14) (size 15 to 20)
#    0.000    1.067    8.000    0.800    8.400    0.000 
#    1.200    1.333    2.933    0.000    0.000    0.000 
#    0.000    0.000    0.000    0.000    0.000    0.000 
#
# Total GULP energy -167519.808571 kJ/mol
# GULP energy per Si atom -5583.993619 kJ/mol
# Density = 2.462868 g / cm^3
# Si number density = 24.684860 Si / 1000 Ang^3
#
#
#
# Elastic Constant Matrix: (Units=GPa)
#
#
# Indices 1 2 3 4 5 6 
#
# 1 55.6677 6.6064 33.2447 0.0000 6.5419 0.0000
# 2 6.6064 37.4534 29.2570 0.0000 -2.4754 0.0000
# 3 33.2447 29.2570 225.0154 0.0000 -0.1394 0.0000
# 4 0.0000 0.0000 0.0000 42.0565 0.0000 -1.3107
# 5 6.5419 -2.4754 -0.1394 0.0000 35.8327 0.0000
# 6 0.0000 0.0000 0.0000 -1.3107 0.0000 6.9174
#
#
#
# Elastic Compliance Matrix: (Units=1/GPa)
#
#
# Indices 1 2 3 4 5 6 
#
# 1 0.020271 -0.001655 -0.002782 0.000000 -0.003826 0.000000
# 2 -0.001655 0.030003 -0.003655 0.000000 0.002361 0.000000
# 3 -0.002782 -0.003655 0.005331 0.000000 0.000276 0.000000
# 4 0.000000 0.000000 0.000000 0.023919 0.000000 0.004532
# 5 -0.003826 0.002361 0.000276 0.000000 0.028770 0.000000
# 6 0.000000 0.000000 0.000000 0.004532 0.000000 0.145423
#
#
# Mechanical properties :
#
#
# Convention : Reuss Voigt Hill
#
# Bulk Modulus (GPa) = 25.36779 50.70585 38.03682
# Shear Modulus (GPa) = 17.66528 33.56320 25.61424
#
# Velocity S-wave (km/s) = 2.67803 3.69137 3.22475
# Velocity P-wave (km/s) = 4.45662 6.22528 5.41367
#
# Compressibility (1/GPa) = 0.03942007
#
# Stress axis : x y z
#
# Youngs Moduli (GPa) = 49.33094 33.32998 187.59656
#
# Poissons Ratio (x) = 0.05517 0.52191
# Poissons Ratio (y) = 0.08165 0.68567
# Poissons Ratio (z) = 0.13724 0.12182
#
# Static dielectric constant tensor:
#      x y z
#    x 2.011570 0.000000 0.003210 
#    y 0.000000 1.919700 0.000000 
#    z 0.003210 0.000000 2.063350 
# 
# From -- ./inp_files/238719.got.cif
#   From: 2010.05.17/outbox.cif.g08.bks.cpg/sg15_120_cif.got.tgz:238719.got - 2010.06.03 18:47:42.
