data_PCOD9260951
_publ_section_title
;
Structure prediction by ZEFSAII (Michael W. Deem and Ramdas Pophale) SiO2 
 PCOD9260951
Probable space group: C 2/C
;
_chemical_formula_sum "Si O2"
_cell_formula_units_Z 52
_cell_length_a 12.338201
_cell_length_b 14.633145
_cell_length_c 20.190135
_cell_angle_alpha 90.000000
_cell_angle_beta 133.325829
_cell_angle_gamma 90.000000
_cell_volume 2651.795060
_symmetry_space_group_name_H-M "C 2/C"
_symmetry_group_IT_number 15
_symmetry_cell_setting 'monoclinic'
loop_
_space_group_symop_operation_xyz
x,y,z
-x,y,1/2-z
-x,-y,-z
x,-y,1/2+z
1/2+x,1/2+y,z
1/2-x,1/2+y,1/2-z
1/2-x,1/2-y,-z
1/2+x,1/2-y,1/2+z
loop_
_atom_site_type_symbol
_atom_site_label
_atom_site_fract_x
_atom_site_fract_y
_atom_site_fract_z
Si Si1 0.067094 0.436341 0.471766
Si Si2 0.929865 0.719944 0.990945
Si Si3 0.500000 0.775813 0.750000
Si Si4 0.399294 0.667342 0.824240
Si Si5 0.618371 0.951959 0.240923
Si Si6 0.305769 0.433758 0.049031
Si Si7 0.751951 0.108834 0.381066
O O1 0.236559 0.470548 0.541843
O O2 0.000000 0.500000 0.500000
O O3 0.031613 0.336427 0.483199
O O4 0.979443 0.458425 0.366988
O O5 0.800424 0.650869 0.967400
O O6 0.863583 0.806358 0.923280
O O7 0.025976 0.764634 0.090695
O O8 0.391839 0.718511 0.751029
O O9 0.402329 0.841677 0.664149
O O10 0.244696 0.624686 0.782713
O O11 0.525684 0.590700 0.863430
O O12 0.500000 0.933237 0.250000
O O13 0.710283 0.042517 0.303264
O O14 0.302025 0.441835 0.967884
#
# Coordination Sequence:
#
# PCOD9260951 Si02
#       7
#     8   8   4   8   8   8   8
#     4  10  22  40  62  91 132 167 199 255 330 371
#     4  10  20  39  62  97 121 158 208 264 314 370
#     4  12  18  36  64  98 120 158 210 280 296 358
#     4  11  24  36  66  95 127 159 219 265 310 368
#     4  12  25  42  61  94 131 171 207 258 317 381
#     4  10  18  39  61  94 124 157 206 260 316 367
#     4  11  19  35  65  87 119 159 213 257 304 362
#
# _framework density 19.609359000000001
#
# number of rings (size 3 to 8) (size 9 to 14) (size 15 to 20)
#    0.000    1.231    5.385    1.846    4.308    2.462 
#    0.000    0.769    3.385    0.000    0.000    0.000 
#    0.000    0.000    0.000    0.000    0.000    0.000 
#
# Total GULP energy -144801.073276 kJ/mol
# GULP energy per Si atom -5569.272049 kJ/mol
# Density = 1.956473 g / cm^3
# Si number density = 19.609359 Si / 1000 Ang^3
#
#
#
# Elastic Constant Matrix: (Units=GPa)
#
#
# Indices 1 2 3 4 5 6 
#
# 1 69.6240 30.4669 19.3137 0.0000 -3.0317 0.0000
# 2 30.4669 60.9636 -2.3045 0.0000 -3.1160 0.0000
# 3 19.3137 -2.3045 58.7166 0.0000 -14.4352 0.0000
# 4 0.0000 0.0000 0.0000 17.5099 0.0000 1.3276
# 5 -3.0317 -3.1160 -14.4352 0.0000 30.3792 0.0000
# 6 0.0000 0.0000 0.0000 1.3276 0.0000 35.2160
#
#
#
# Elastic Compliance Matrix: (Units=1/GPa)
#
#
# Indices 1 2 3 4 5 6 
#
# 1 0.021383 -0.011144 -0.008183 0.000000 -0.002898 0.000000
# 2 -0.011144 0.022373 0.005474 0.000000 0.003784 0.000000
# 3 -0.008183 0.005474 0.022504 0.000000 0.010438 0.000000
# 4 0.000000 0.000000 0.000000 0.057274 0.000000 -0.002159
# 5 -0.002898 0.003784 0.010438 0.000000 0.037976 0.000000
# 6 0.000000 0.000000 0.000000 -0.002159 0.000000 0.028478
#
#
# Mechanical properties :
#
#
# Convention : Reuss Voigt Hill
#
# Bulk Modulus (GPa) = 25.93834 31.58404 28.76119
# Shear Modulus (GPa) = 21.68776 26.07623 23.88200
#
# Velocity S-wave (km/s) = 3.32925 3.65058 3.49361
# Velocity P-wave (km/s) = 5.29479 5.82328 5.56531
#
# Compressibility (1/GPa) = 0.03855296
#
# Stress axis : x y z
#
# Youngs Moduli (GPa) = 46.76571 44.69726 44.43734
#
# Poissons Ratio (x) = 0.49810 0.36364
# Poissons Ratio (y) = 0.52115 -0.24324
# Poissons Ratio (z) = 0.38270 -0.24466
#
# Static dielectric constant tensor:
#      x y z
#    x 1.663600 0.000000 0.012160 
#    y 0.000000 1.772700 0.000000 
#    z 0.012160 0.000000 1.732080 
# 
# From -- ./inp_files/198037.got.cif
#   From: 2010.05.17/outbox.cif.g08.bks.cpg/sg15_100_cif.got.tgz:198037.got - 2010.06.03 18:47:42.
