data_PCOD9260791
_publ_section_title
;
Structure prediction by ZEFSAII (Michael W. Deem and Ramdas Pophale) SiO2 
 PCOD9260791
Probable space group: C 2/C
;
_chemical_formula_sum "Si O2"
_cell_formula_units_Z 60
_cell_length_a 15.604970
_cell_length_b 15.697178
_cell_length_c 11.123639
_cell_angle_alpha 90.000000
_cell_angle_beta 108.779915
_cell_angle_gamma 90.000000
_cell_volume 2579.718419
_symmetry_space_group_name_H-M "C 2/C"
_symmetry_group_IT_number 15
_symmetry_cell_setting 'monoclinic'
loop_
_space_group_symop_operation_xyz
x,y,z
-x,y,1/2-z
-x,-y,-z
x,-y,1/2+z
1/2+x,1/2+y,z
1/2-x,1/2+y,1/2-z
1/2-x,1/2-y,-z
1/2+x,1/2-y,1/2+z
loop_
_atom_site_type_symbol
_atom_site_label
_atom_site_fract_x
_atom_site_fract_y
_atom_site_fract_z
Si Si1 0.500000 0.592088 0.750000
Si Si2 0.273416 0.717018 0.875541
Si Si3 0.933416 0.664393 0.452246
Si Si4 0.365209 0.023002 0.265843
Si Si5 0.093730 0.338338 0.288146
Si Si6 0.694086 0.440121 0.264293
Si Si7 0.598516 0.282291 0.478052
Si Si8 0.271809 0.137148 0.043329
O O1 0.410918 0.541647 0.755084
O O2 0.462605 0.654007 0.628629
O O3 0.354664 0.773884 0.865787
O O4 0.173871 0.718390 0.774591
O O5 0.300227 0.618994 0.854295
O O6 0.250000 0.750000 0.000000
O O7 0.934310 0.584577 0.364584
O O8 0.897187 0.637723 0.566850
O O9 0.025686 0.718111 0.504599
O O10 0.332630 0.061946 0.125083
O O11 0.405911 0.928527 0.278141
O O12 0.267405 0.014895 0.287232
O O13 0.000000 0.290094 0.250000
O O14 0.734641 0.386040 0.394157
O O15 0.661400 0.217476 0.430556
O O16 0.678266 0.340840 0.571344
#
# Coordination Sequence:
#
# PCOD9260791 Si02
#       8
#     4   8   8   8   8   8   8   8
#     4  10  18  38  64  88 120 162 206 252 316 358
#     4   9  20  40  62  87 117 162 204 246 302 365
#     4  11  22  38  67  86 117 163 205 248 308 363
#     4  11  24  39  59  87 126 164 195 248 310 377
#     4  10  24  39  58  89 124 157 201 249 307 367
#     4  10  21  40  62  87 129 162 199 258 311 364
#     4  10  21  35  61  92 115 151 204 261 293 359
#     4  10  23  37  58  92 125 152 207 255 307 354
#
# _framework density 23.258353
#
# number of rings (size 3 to 8) (size 9 to 14) (size 15 to 20)
#    0.000    1.867    1.333    1.600    9.333    0.533 
#    0.000    2.667   10.267    0.000    0.000    0.000 
#    0.000    0.000    0.000    0.000    0.000    0.000 
#
# Total GULP energy -167116.918533 kJ/mol
# GULP energy per Si atom -5570.563951 kJ/mol
# Density = 2.320542 g / cm^3
# Si number density = 23.258353 Si / 1000 Ang^3
#
#
#
# Elastic Constant Matrix: (Units=GPa)
#
#
# Indices 1 2 3 4 5 6 
#
# 1 144.0388 1.0017 7.7936 0.0000 18.9153 0.0000
# 2 1.0017 22.9988 2.7870 0.0000 3.5959 0.0000
# 3 7.7936 2.7870 53.7699 0.0000 -3.2070 0.0000
# 4 0.0000 0.0000 0.0000 24.5443 0.0000 3.6837
# 5 18.9153 3.5959 -3.2070 0.0000 27.2110 0.0000
# 6 0.0000 0.0000 0.0000 3.6837 0.0000 37.7624
#
#
#
# Elastic Compliance Matrix: (Units=1/GPa)
#
#
# Indices 1 2 3 4 5 6 
#
# 1 0.007763 0.000730 -0.001501 0.000000 -0.005670 0.000000
# 2 0.000730 0.044850 -0.002834 0.000000 -0.006769 0.000000
# 3 -0.001501 -0.002834 0.019182 0.000000 0.003679 0.000000
# 4 0.000000 0.000000 0.000000 0.041348 0.000000 -0.004033
# 5 -0.005670 -0.006769 0.003679 0.000000 0.042019 0.000000
# 6 0.000000 0.000000 0.000000 -0.004033 0.000000 0.026875
#
#
# Mechanical properties :
#
#
# Convention : Reuss Voigt Hill
#
# Bulk Modulus (GPa) = 15.48347 27.10802 21.29575
# Shear Modulus (GPa) = 23.72182 31.85187 27.78685
#
# Velocity S-wave (km/s) = 3.19709 3.70466 3.46020
# Velocity P-wave (km/s) = 4.50557 5.47539 5.01398
#
# Compressibility (1/GPa) = 0.06458499
#
# Stress axis : x y z
#
# Youngs Moduli (GPa) = 128.81097 22.29634 52.13307
#
# Poissons Ratio (x) = -0.01628 0.07827
# Poissons Ratio (y) = -0.09407 0.14776
# Poissons Ratio (z) = 0.19338 0.06319
#
# Static dielectric constant tensor:
#      x y z
#    x 1.923570 0.000000 -0.016300 
#    y 0.000000 1.888790 0.000000 
#    z -0.016300 0.000000 1.961770 
# 
# From -- ./inp_files/98794.got.cif
#   From: 2010.05.17/outbox.cif.g08.bks.cpg/sg15_50_cif.got.tgz:98794.got - 2010.06.03 18:47:42.
