data_PCOD9260985
_publ_section_title
;
Structure prediction by ZEFSAII (Michael W. Deem and Ramdas Pophale) SiO2 
 PCOD9260985
Probable space group: C 2/C
;
_chemical_formula_sum "Si O2"
_cell_formula_units_Z 64
_cell_length_a 29.299105
_cell_length_b 18.043540
_cell_length_c 11.981330
_cell_angle_alpha 90.000000
_cell_angle_beta 32.197505
_cell_angle_gamma 90.000000
_cell_volume 3375.028805
_symmetry_space_group_name_H-M "C 2/C"
_symmetry_group_IT_number 15
_symmetry_cell_setting 'monoclinic'
loop_
_space_group_symop_operation_xyz
x,y,z
-x,y,1/2-z
-x,-y,-z
x,-y,1/2+z
1/2+x,1/2+y,z
1/2-x,1/2+y,1/2-z
1/2-x,1/2-y,-z
1/2+x,1/2-y,1/2+z
loop_
_atom_site_type_symbol
_atom_site_label
_atom_site_fract_x
_atom_site_fract_y
_atom_site_fract_z
Si Si1 0.934091 0.936479 0.688132
Si Si2 0.502795 0.277760 0.871978
Si Si3 0.843805 0.684226 0.888099
Si Si4 0.198343 0.300018 0.268853
Si Si5 0.792978 0.068355 0.291705
Si Si6 0.164779 0.200235 0.692951
Si Si7 0.401284 0.678141 0.911924
Si Si8 0.182452 0.084912 0.863199
O O1 0.969704 0.851291 0.614043
O O2 0.849671 0.939096 0.785983
O O3 0.897786 0.940372 0.891261
O O4 0.000000 0.000000 0.500000
O O5 0.500000 0.302641 0.750000
O O6 0.569662 0.211327 0.737188
O O7 0.413096 0.249067 0.103584
O O8 0.855021 0.689740 0.732610
O O9 0.774557 0.744343 0.074792
O O10 0.798026 0.607195 0.004840
O O11 0.138278 0.259309 0.481392
O O12 0.247626 0.371860 0.208480
O O13 0.781534 0.989527 0.261426
O O14 0.850495 0.120338 0.093655
O O15 0.250000 0.250000 0.500000
O O16 0.129747 0.163877 0.650763
O O17 0.167308 0.139785 0.788468
O O18 0.500000 0.675162 0.750000
#
# Coordination Sequence:
#
# PCOD9260985 Si02
#       8
#     8   8   8   8   8   8   8   8
#     4  12  25  41  62  96 138 177 215 268 354 423
#     4  12  23  41  67  95 129 177 232 284 337 402
#     4  10  19  39  64  90 122 175 232 267 331 410
#     4  10  18  39  65  87 125 176 221 272 332 400
#     4  11  26  37  64  93 133 179 216 274 345 413
#     4  12  25  42  65  98 132 175 225 281 347 407
#     4  11  24  40  62 101 130 167 228 278 331 411
#     4  12  24  43  62  97 139 178 214 280 349 413
#
# _framework density 18.962800999999999
#
# number of rings (size 3 to 8) (size 9 to 14) (size 15 to 20)
#    0.000    0.750    5.000    3.750    7.000    0.000 
#    0.000    0.000    0.000    1.500    0.000    0.000 
#    0.000    0.000    0.000    0.000    0.000    0.000 
#
# Total GULP energy -178378.056442 kJ/mol
# GULP energy per Si atom -5574.314264 kJ/mol
# Density = 1.891964 g / cm^3
# Si number density = 18.962801 Si / 1000 Ang^3
#
#
#
# Elastic Constant Matrix: (Units=GPa)
#
#
# Indices 1 2 3 4 5 6 
#
# 1 77.4731 32.4098 15.8422 0.0000 6.7365 0.0000
# 2 32.4098 92.2393 39.5787 0.0000 -7.9550 0.0000
# 3 15.8422 39.5787 65.5681 0.0000 6.4761 0.0000
# 4 0.0000 0.0000 0.0000 22.0441 0.0000 -6.6817
# 5 6.7365 -7.9550 6.4761 0.0000 25.4932 0.0000
# 6 0.0000 0.0000 0.0000 -6.6817 0.0000 17.8889
#
#
#
# Elastic Compliance Matrix: (Units=1/GPa)
#
#
# Indices 1 2 3 4 5 6 
#
# 1 0.016040 -0.006478 0.000670 0.000000 -0.006430 0.000000
# 2 -0.006478 0.018569 -0.010652 0.000000 0.010212 0.000000
# 3 0.000670 -0.010652 0.022428 0.000000 -0.009198 0.000000
# 4 0.000000 0.000000 0.000000 0.051155 0.000000 0.019107
# 5 -0.006430 0.010212 -0.009198 0.000000 0.046449 0.000000
# 6 0.000000 0.000000 0.000000 0.019107 0.000000 0.063037
#
#
# Mechanical properties :
#
#
# Convention : Reuss Voigt Hill
#
# Bulk Modulus (GPa) = 41.46581 45.66021 43.56301
# Shear Modulus (GPa) = 19.33217 22.91523 21.12370
#
# Velocity S-wave (km/s) = 3.19639 3.48002 3.34122
# Velocity P-wave (km/s) = 5.96129 6.34653 6.15692
#
# Compressibility (1/GPa) = 0.02411625
#
# Stress axis : x y z
#
# Youngs Moduli (GPa) = 62.34509 53.85353 44.58727
#
# Poissons Ratio (x) = 0.34885 -0.02987
# Poissons Ratio (y) = 0.40386 0.47495
# Poissons Ratio (z) = -0.04176 0.57366
#
# Static dielectric constant tensor:
#      x y z
#    x 1.721230 0.000000 0.019430 
#    y 0.000000 1.670070 0.000000 
#    z 0.019430 0.000000 1.713970 
# 
# From -- ./inp_files/127286.got.cif
#   From: 2010.05.17/outbox.cif.g08.bks.cpg/sg15_64_cif.got.tgz:127286.got - 2010.06.03 18:47:42.
