data_PCOD9260849
_publ_section_title
;
Structure prediction by ZEFSAII (Michael W. Deem and Ramdas Pophale) SiO2 
 PCOD9260849
Probable space group: C 2/C
;
_chemical_formula_sum "Si O2"
_cell_formula_units_Z 40
_cell_length_a 13.304857
_cell_length_b 9.688939
_cell_length_c 13.681404
_cell_angle_alpha 90.000000
_cell_angle_beta 106.192087
_cell_angle_gamma 90.000000
_cell_volume 1693.708217
_symmetry_space_group_name_H-M "C 2/C"
_symmetry_group_IT_number 15
_symmetry_cell_setting 'monoclinic'
loop_
_space_group_symop_operation_xyz
x,y,z
-x,y,1/2-z
-x,-y,-z
x,-y,1/2+z
1/2+x,1/2+y,z
1/2-x,1/2+y,1/2-z
1/2-x,1/2-y,-z
1/2+x,1/2-y,1/2+z
loop_
_atom_site_type_symbol
_atom_site_label
_atom_site_fract_x
_atom_site_fract_y
_atom_site_fract_z
Si Si1 0.570491 0.537942 0.174739
Si Si2 0.852974 0.666210 0.784128
Si Si3 0.383082 0.625083 0.986462
Si Si4 0.728510 0.899370 0.038548
Si Si5 0.910166 0.595684 0.588130
O O1 0.500000 0.506223 0.250000
O O2 0.646233 0.666242 0.220013
O O3 0.494257 0.601194 0.070561
O O4 0.614603 0.408156 0.127850
O O5 0.774670 0.612530 0.845472
O O6 0.847807 0.609991 0.673380
O O7 0.969367 0.620537 0.852119
O O8 0.309332 0.512390 0.019505
O O9 0.365693 0.784722 0.005540
O O10 0.750000 0.750000 0.000000
O O11 0.616300 0.951215 0.968352
#
# Coordination Sequence:
#
# PCOD9260849 Si02
#       5
#     8   8   8   8   8
#     4  10  18  38  66  88 118 165 206 251 306 376
#     4  10  20  41  65  85 123 169 207 248 311 370
#     4  10  21  37  64  93 119 161 206 255 310 364
#     4  12  24  37  61  95 129 159 207 263 305 361
#     4  10  22  42  65  85 124 171 206 249 310 371
#
# _framework density 23.616820000000001
#
# number of rings (size 3 to 8) (size 9 to 14) (size 15 to 20)
#    0.000    1.600    6.000    1.200    0.000    3.200 
#    0.000    2.000    0.000    0.000    0.000    0.000 
#    0.000    0.000    0.000    0.000    0.000    0.000 
#
# Total GULP energy -111808.045217 kJ/mol
# GULP energy per Si atom -5590.402261 kJ/mol
# Density = 2.356307 g / cm^3
# Si number density = 23.616820 Si / 1000 Ang^3
#
#
#
# Elastic Constant Matrix: (Units=GPa)
#
#
# Indices 1 2 3 4 5 6 
#
# 1 26.6575 21.0642 10.3037 0.0000 -10.3603 0.0000
# 2 21.0642 122.6398 58.3681 0.0000 -11.6654 0.0000
# 3 10.3037 58.3681 179.9197 0.0000 -48.4897 0.0000
# 4 0.0000 0.0000 0.0000 35.1748 0.0000 -0.0084
# 5 -10.3603 -11.6654 -48.4897 0.0000 48.6397 0.0000
# 6 0.0000 0.0000 0.0000 -0.0084 0.0000 12.1402
#
#
#
# Elastic Compliance Matrix: (Units=1/GPa)
#
#
# Indices 1 2 3 4 5 6 
#
# 1 0.047384 -0.008532 0.003039 0.000000 0.011077 0.000000
# 2 -0.008532 0.011222 -0.003988 0.000000 -0.003101 0.000000
# 3 0.003039 -0.003988 0.009017 0.000000 0.008680 0.000000
# 4 0.000000 0.000000 0.000000 0.028429 0.000000 0.000020
# 5 0.011077 -0.003101 0.008680 0.000000 0.030828 0.000000
# 6 0.000000 0.000000 0.000000 0.000020 0.000000 0.082371
#
#
# Mechanical properties :
#
#
# Convention : Reuss Voigt Hill
#
# Bulk Modulus (GPa) = 20.54921 56.52103 38.53512
# Shear Modulus (GPa) = 20.45542 35.15634 27.80588
#
# Velocity S-wave (km/s) = 2.94621 3.86244 3.43501
# Velocity P-wave (km/s) = 4.50484 6.62388 5.66433
#
# Compressibility (1/GPa) = 0.04866367
#
# Stress axis : x y z
#
# Youngs Moduli (GPa) = 21.10399 89.10852 110.90071
#
# Poissons Ratio (x) = 0.76023 -0.33707
# Poissons Ratio (y) = 0.18005 0.44226
# Poissons Ratio (z) = -0.06414 0.35535
#
# Static dielectric constant tensor:
#      x y z
#    x 2.032890 0.000000 0.001220 
#    y 0.000000 1.871380 0.000000 
#    z 0.001220 0.000000 1.889740 
# 
# From -- ./inp_files/150669.got.cif
#   From: 2010.05.17/outbox.cif.g08.bks.cpg/sg15_76_cif.got.tgz:150669.got - 2010.06.03 18:47:42.
