data_PCOD9260167
_publ_section_title
;
Structure prediction by ZEFSAII (Michael W. Deem and Ramdas Pophale) SiO2 
 PCOD9260167
Probable space group: C 2/C
;
_chemical_formula_sum "Si O2"
_cell_formula_units_Z 48
_cell_length_a 8.833472
_cell_length_b 26.516372
_cell_length_c 10.787584
_cell_angle_alpha 90.000000
_cell_angle_beta 69.031218
_cell_angle_gamma 90.000000
_cell_volume 2359.457871
_symmetry_space_group_name_H-M "C 2/C"
_symmetry_group_IT_number 15
_symmetry_cell_setting 'monoclinic'
loop_
_space_group_symop_operation_xyz
x,y,z
-x,y,1/2-z
-x,-y,-z
x,-y,1/2+z
1/2+x,1/2+y,z
1/2-x,1/2+y,1/2-z
1/2-x,1/2-y,-z
1/2+x,1/2-y,1/2+z
loop_
_atom_site_type_symbol
_atom_site_label
_atom_site_fract_x
_atom_site_fract_y
_atom_site_fract_z
Si Si1 0.805949 0.537542 0.814725
Si Si2 0.140797 0.369662 0.609796
Si Si3 0.586211 0.798227 0.404655
Si Si4 0.678119 0.974867 0.462931
Si Si5 0.952716 0.180403 0.119976
Si Si6 0.766127 0.656199 0.867693
O O1 0.741809 0.524383 0.696391
O O2 0.788078 0.596450 0.848671
O O3 0.000000 0.527704 0.750000
O O4 0.739435 0.505152 0.948697
O O5 0.101268 0.321560 0.535751
O O6 0.157286 0.417564 0.514613
O O7 0.305872 0.356812 0.632120
O O8 0.000000 0.379585 0.750000
O O9 0.592728 0.738309 0.395576
O O10 0.723273 0.820403 0.272811
O O11 0.416197 0.818696 0.398050
O O12 0.500000 0.000000 0.500000
O O13 0.000000 0.177100 0.250000
O O14 0.104019 0.167681 0.988655
#
# Coordination Sequence:
#
# PCOD9260167 Si02
#       6
#     8   8   8   8   8   8
#     4  10  18  36  63  98 123 170 218 271 329 402
#     4  12  25  42  64 100 134 171 228 287 335 404
#     4  11  22  43  67  93 127 184 230 270 335 407
#     4  10  20  37  66  99 129 170 226 272 337 404
#     4  12  27  41  64  99 135 180 225 283 344 399
#     4  11  21  41  71  91 133 175 227 272 337 406
#
# _framework density 20.343657
#
# number of rings (size 3 to 8) (size 9 to 14) (size 15 to 20)
#    0.000    1.000    5.000    4.500    2.333    2.000 
#    0.000    0.833    0.000    2.000    0.000    0.000 
#    0.000    0.000    0.000    0.000    0.000    0.000 
#
# Total GULP energy -134145.461174 kJ/mol
# GULP energy per Si atom -5589.394216 kJ/mol
# Density = 2.029735 g / cm^3
# Si number density = 20.343657 Si / 1000 Ang^3
#
#
#
# Elastic Constant Matrix: (Units=GPa)
#
#
# Indices 1 2 3 4 5 6 
#
# 1 44.0261 35.6828 28.7541 0.0000 3.1464 0.0000
# 2 35.6828 80.1782 36.9083 0.0000 13.4927 0.0000
# 3 28.7541 36.9083 122.5479 0.0000 13.4818 0.0000
# 4 0.0000 0.0000 0.0000 30.6222 0.0000 16.3962
# 5 3.1464 13.4927 13.4818 0.0000 34.4364 0.0000
# 6 0.0000 0.0000 0.0000 16.3962 0.0000 -21.2177
#
#
#
# Elastic Compliance Matrix: (Units=1/GPa)
#
#
# Indices 1 2 3 4 5 6 
#
# 1 0.038064 -0.015502 -0.004753 0.000000 0.004457 0.000000
# 2 -0.015502 0.021382 -0.002128 0.000000 -0.006128 0.000000
# 3 -0.004753 -0.002128 0.010217 0.000000 -0.002732 0.000000
# 4 0.000000 0.000000 0.000000 0.023099 0.000000 0.017850
# 5 0.004457 -0.006128 -0.002732 0.000000 0.032102 0.000000
# 6 0.000000 0.000000 0.000000 0.017850 0.000000 -0.033337
#
#
# Mechanical properties :
#
#
# Convention : Reuss Voigt Hill
#
# Bulk Modulus (GPa) = 40.16603 49.93807 45.05205
# Shear Modulus (GPa) = 34.58006 18.46196 26.52101
#
# Velocity S-wave (km/s) = 4.12733 3.01575 3.61453
# Velocity P-wave (km/s) = 6.51918 6.06027 6.29391
#
# Compressibility (1/GPa) = 0.02489666
#
# Stress axis : x y z
#
# Youngs Moduli (GPa) = 26.27177 46.76744 97.87914
#
# Poissons Ratio (x) = 0.72500 0.46517
# Poissons Ratio (y) = 0.40727 0.20831
# Poissons Ratio (z) = 0.12486 0.09953
#
# Static dielectric constant tensor:
#      x y z
#    x 1.723130 0.000000 0.032970 
#    y 0.000000 1.378770 0.000000 
#    z 0.032970 0.000000 1.729040 
# 
# From -- ./inp_files/79775.got.cif
#   From: 2010.05.17/outbox.cif.g08.bks.cpg/sg15_40_cif.got.tgz:79775.got - 2010.06.03 18:47:42.
