data_PCOD9260671
_publ_section_title
;
Structure prediction by ZEFSAII (Michael W. Deem and Ramdas Pophale) SiO2 
 PCOD9260671
Probable space group: C 2/C
;
_chemical_formula_sum "Si O2"
_cell_formula_units_Z 60
_cell_length_a 10.368239
_cell_length_b 12.772955
_cell_length_c 19.552075
_cell_angle_alpha 90.000000
_cell_angle_beta 74.845175
_cell_angle_gamma 90.000000
_cell_volume 2499.291208
_symmetry_space_group_name_H-M "C 2/C"
_symmetry_group_IT_number 15
_symmetry_cell_setting 'monoclinic'
loop_
_space_group_symop_operation_xyz
x,y,z
-x,y,1/2-z
-x,-y,-z
x,-y,1/2+z
1/2+x,1/2+y,z
1/2-x,1/2+y,1/2-z
1/2-x,1/2-y,-z
1/2+x,1/2-y,1/2+z
loop_
_atom_site_type_symbol
_atom_site_label
_atom_site_fract_x
_atom_site_fract_y
_atom_site_fract_z
Si Si1 0.445010 0.657513 0.620907
Si Si2 0.500000 0.761129 0.750000
Si Si3 0.312237 0.716385 0.228802
Si Si4 0.153153 0.567018 0.847351
Si Si5 0.343371 0.506284 0.432615
Si Si6 0.199494 0.236110 0.109790
Si Si7 0.626191 0.031867 0.574812
Si Si8 0.745814 0.015321 0.197319
O O1 0.524110 0.706001 0.673212
O O2 0.531431 0.570196 0.568990
O O3 0.362213 0.746141 0.590854
O O4 0.328550 0.591060 0.673876
O O5 0.349207 0.801696 0.756168
O O6 0.354119 0.812045 0.174949
O O7 0.345770 0.729753 0.304032
O O8 0.356458 0.603927 0.195263
O O9 0.285944 0.535445 0.868578
O O10 0.155345 0.507817 0.775117
O O11 0.031927 0.526640 0.910512
O O12 0.350642 0.632029 0.421373
O O13 0.228670 0.490774 0.504978
O O14 0.151351 0.343932 0.082956
O O15 0.662633 0.972507 0.639975
#
# Coordination Sequence:
#
# PCOD9260671 Si02
#       8
#     8   4   8   8   8   8   8   8
#     4  10  21  41  65  94 129 166 223 275 327 409
#     4  10  18  38  60  92 126 154 214 276 320 384
#     4  11  22  38  65  97 124 164 217 276 336 386
#     4  12  23  44  64  95 133 167 222 278 325 405
#     4  12  24  45  68  92 135 183 214 272 346 400
#     4  10  23  42  66  98 127 172 219 278 339 393
#     4  11  26  43  63  96 133 175 218 268 333 410
#     4  11  23  41  65  97 125 169 218 275 338 382
#
# _framework density 24.006806999999998
#
# number of rings (size 3 to 8) (size 9 to 14) (size 15 to 20)
#    0.000    1.067    6.667    1.200    3.733    2.133 
#    2.400    0.667    0.000    0.000    0.000    0.000 
#    0.000    0.000    0.000    0.000    0.000    0.000 
#
# Total GULP energy -167428.115472 kJ/mol
# GULP energy per Si atom -5580.937182 kJ/mol
# Density = 2.395217 g / cm^3
# Si number density = 24.006807 Si / 1000 Ang^3
#
#
#
# Elastic Constant Matrix: (Units=GPa)
#
#
# Indices 1 2 3 4 5 6 
#
# 1 51.6925 -12.9457 4.6174 0.0000 -13.1596 0.0000
# 2 -12.9457 81.9783 1.3353 0.0000 -5.4404 0.0000
# 3 4.6174 1.3353 62.9501 0.0000 -19.6518 0.0000
# 4 0.0000 0.0000 0.0000 23.2006 0.0000 6.5930
# 5 -13.1596 -5.4404 -19.6518 0.0000 34.1909 0.0000
# 6 0.0000 0.0000 0.0000 6.5930 0.0000 13.9206
#
#
#
# Elastic Compliance Matrix: (Units=1/GPa)
#
#
# Indices 1 2 3 4 5 6 
#
# 1 0.022920 0.004282 0.001456 0.000000 0.010340 0.000000
# 2 0.004282 0.013138 0.000700 0.000000 0.004141 0.000000
# 3 0.001456 0.000700 0.019467 0.000000 0.011860 0.000000
# 4 0.000000 0.000000 0.000000 0.049806 0.000000 -0.023589
# 5 0.010340 0.004141 0.011860 0.000000 0.040703 0.000000
# 6 0.000000 0.000000 0.000000 -0.023589 0.000000 0.083008
#
#
# Mechanical properties :
#
#
# Convention : Reuss Voigt Hill
#
# Bulk Modulus (GPa) = 14.62002 20.29275 17.45638
# Shear Modulus (GPa) = 20.92356 27.83669 24.38012
#
# Velocity S-wave (km/s) = 2.95544 3.40889 3.19023
# Velocity P-wave (km/s) = 4.21299 4.89543 4.56698
#
# Compressibility (1/GPa) = 0.06839937
#
# Stress axis : x y z
#
# Youngs Moduli (GPa) = 43.63073 76.11553 51.37005
#
# Poissons Ratio (x) = -0.32592 -0.07479
# Poissons Ratio (y) = -0.18682 -0.03596
# Poissons Ratio (z) = -0.06352 -0.05328
#
# Static dielectric constant tensor:
#      x y z
#    x 1.998890 0.000000 -0.019190 
#    y 0.000000 2.052280 0.000000 
#    z -0.019190 0.000000 1.923470 
# 
# From -- ./inp_files/198280.got.cif
#   From: 2010.05.17/outbox.cif.g08.bks.cpg/sg15_100_cif.got.tgz:198280.got - 2010.06.03 18:47:42.
