data_PCOD9260309
_publ_section_title
;
Structure prediction by ZEFSAII (Michael W. Deem and Ramdas Pophale) SiO2 
 PCOD9260309
Probable space group: C 2/C
;
_chemical_formula_sum "Si O2"
_cell_formula_units_Z 44
_cell_length_a 12.506279
_cell_length_b 12.157825
_cell_length_c 15.887412
_cell_angle_alpha 90.000000
_cell_angle_beta 126.966746
_cell_angle_gamma 90.000000
_cell_volume 1930.081297
_symmetry_space_group_name_H-M "C 2/C"
_symmetry_group_IT_number 15
_symmetry_cell_setting 'monoclinic'
loop_
_space_group_symop_operation_xyz
x,y,z
-x,y,1/2-z
-x,-y,-z
x,-y,1/2+z
1/2+x,1/2+y,z
1/2-x,1/2+y,1/2-z
1/2-x,1/2-y,-z
1/2+x,1/2-y,1/2+z
loop_
_atom_site_type_symbol
_atom_site_label
_atom_site_fract_x
_atom_site_fract_y
_atom_site_fract_z
Si Si1 0.122955 0.256748 0.999618
Si Si2 0.514225 0.947677 0.857603
Si Si3 0.852762 0.664677 0.804200
Si Si4 0.000000 0.833435 0.750000
Si Si5 0.373652 0.691290 0.937546
Si Si6 0.244748 0.590313 0.041388
O O1 0.011494 0.327879 0.896183
O O2 0.025236 0.159432 0.985328
O O3 0.250000 0.250000 0.000000
O O4 0.170897 0.303075 0.111418
O O5 0.500000 0.941438 0.750000
O O6 0.408324 0.040798 0.831324
O O7 0.650961 0.990936 0.967453
O O8 0.721831 0.671811 0.686195
O O9 0.955074 0.749064 0.803822
O O10 0.127514 0.907443 0.835857
O O11 0.352220 0.816076 0.964510
O O12 0.310243 0.625096 0.984371
#
# Coordination Sequence:
#
# PCOD9260309 Si02
#       6
#     8   8   8   4   8   8
#     4  12  28  43  61  95 144 187 213 260 349 422
#     4  12  23  42  70 102 130 171 233 278 328 394
#     4  11  20  40  68  98 127 171 226 284 323 391
#     4  10  18  36  72 104 128 162 224 288 338 368
#     4  10  20  38  69  94 133 168 223 278 336 390
#     4  10  18  37  67 107 123 162 228 294 324 372
#
# _framework density 22.796966000000001
#
# number of rings (size 3 to 8) (size 9 to 14) (size 15 to 20)
#    0.000    1.091    6.364    1.636    2.545    0.000 
#    0.000    2.727    0.000    0.000    0.000    0.000 
#    0.000    0.000    0.000    0.000    0.000    0.000 
#
# Total GULP energy -122685.040579 kJ/mol
# GULP energy per Si atom -5576.592754 kJ/mol
# Density = 2.274508 g / cm^3
# Si number density = 22.796966 Si / 1000 Ang^3
#
#
#
# Elastic Constant Matrix: (Units=GPa)
#
#
# Indices 1 2 3 4 5 6 
#
# 1 167.1130 6.8239 49.9589 0.0000 -21.6343 0.0000
# 2 6.8239 29.2890 12.2524 0.0000 -1.4804 0.0000
# 3 49.9589 12.2524 153.1493 0.0000 -10.3742 0.0000
# 4 0.0000 0.0000 0.0000 26.3868 0.0000 -1.5453
# 5 -21.6343 -1.4804 -10.3742 0.0000 44.6953 0.0000
# 6 0.0000 0.0000 0.0000 -1.5453 0.0000 2.8341
#
#
#
# Elastic Compliance Matrix: (Units=1/GPa)
#
#
# Indices 1 2 3 4 5 6 
#
# 1 0.006992 -0.000632 -0.002035 0.000000 0.002891 0.000000
# 2 -0.000632 0.035394 -0.002608 0.000000 0.000261 0.000000
# 3 -0.002035 -0.002608 0.007446 0.000000 0.000657 0.000000
# 4 0.000000 0.000000 0.000000 0.039148 0.000000 0.021346
# 5 0.002891 0.000261 0.000657 0.000000 0.023934 0.000000
# 6 0.000000 0.000000 0.000000 0.021346 0.000000 0.364483
#
#
# Mechanical properties :
#
#
# Convention : Reuss Voigt Hill
#
# Bulk Modulus (GPa) = 25.45553 54.18018 39.81786
# Shear Modulus (GPa) = 9.97923 33.48430 21.73176
#
# Velocity S-wave (km/s) = 2.09450 3.83666 3.09086
# Velocity P-wave (km/s) = 4.12792 6.59125 5.49928
#
# Compressibility (1/GPa) = 0.03928420
#
# Stress axis : x y z
#
# Youngs Moduli (GPa) = 143.01376 28.25347 134.29267
#
# Poissons Ratio (x) = 0.01785 0.27323
# Poissons Ratio (y) = 0.09037 0.35021
# Poissons Ratio (z) = 0.29097 0.07368
#
# Static dielectric constant tensor:
#      x y z
#    x 1.885610 0.000000 0.023680 
#    y 0.000000 1.940030 0.000000 
#    z 0.023680 0.000000 1.832970 
# 
# From -- ./inp_files/143886.got.cif
#   From: 2010.05.17/outbox.cif.g08.bks.cpg/sg15_72_cif.got.tgz:143886.got - 2010.06.03 18:47:42.
