data_PCOD9260749
_publ_section_title
;
Structure prediction by ZEFSAII (Michael W. Deem and Ramdas Pophale) SiO2 
 PCOD9260749
Probable space group: C 2/C
;
_chemical_formula_sum "Si O2"
_cell_formula_units_Z 52
_cell_length_a 11.605032
_cell_length_b 16.170129
_cell_length_c 13.232230
_cell_angle_alpha 90.000000
_cell_angle_beta 114.442415
_cell_angle_gamma 90.000000
_cell_volume 2260.551628
_symmetry_space_group_name_H-M "C 2/C"
_symmetry_group_IT_number 15
_symmetry_cell_setting 'monoclinic'
loop_
_space_group_symop_operation_xyz
x,y,z
-x,y,1/2-z
-x,-y,-z
x,-y,1/2+z
1/2+x,1/2+y,z
1/2-x,1/2+y,1/2-z
1/2-x,1/2-y,-z
1/2+x,1/2-y,1/2+z
loop_
_atom_site_type_symbol
_atom_site_label
_atom_site_fract_x
_atom_site_fract_y
_atom_site_fract_z
Si Si1 0.314622 0.141588 0.483166
Si Si2 0.109449 0.065329 0.069517
Si Si3 0.640250 0.978375 0.332699
Si Si4 0.549619 0.294916 0.873375
Si Si5 0.778461 0.167200 0.574711
Si Si6 0.500000 0.252451 0.250000
Si Si7 0.471956 0.881202 0.565448
O O1 0.299109 0.096238 0.583145
O O2 0.396416 0.224972 0.531241
O O3 0.177641 0.156858 0.390243
O O4 0.402369 0.088176 0.442049
O O5 0.047892 0.141319 0.110147
O O6 0.232998 0.022649 0.168441
O O7 0.158203 0.103967 0.980850
O O8 0.000000 0.000000 0.000000
O O9 0.500000 0.945813 0.250000
O O10 0.588589 0.052152 0.383888
O O11 0.500000 0.259287 0.750000
O O12 0.750000 0.250000 0.500000
O O13 0.875332 0.191807 0.696438
O O14 0.639024 0.138058 0.555086
O O15 0.495917 0.195093 0.348042
#
# Coordination Sequence:
#
# PCOD9260749 Si02
#       7
#     8   8   8   8   8   4   8
#     4  11  24  43  64  99 135 170 216 277 328 393
#     4  11  23  47  67  92 138 177 215 280 329 390
#     4  11  23  43  69  97 130 173 225 273 334 391
#     4  11  25  43  68  94 131 178 220 263 333 406
#     4   9  20  37  63  92 127 164 217 266 318 380
#     4  10  18  38  62  98 124 172 222 266 326 386
#     4  10  21  37  63  94 131 166 211 273 328 379
#
# _framework density 23.003235
#
# number of rings (size 3 to 8) (size 9 to 14) (size 15 to 20)
#    0.000    1.538    2.308    2.769    2.154    1.231 
#    4.154    0.000    0.000    0.000    0.000    0.000 
#    0.000    0.000    0.000    0.000    0.000    0.000 
#
# Total GULP energy -144947.280894 kJ/mol
# GULP energy per Si atom -5574.895419 kJ/mol
# Density = 2.295088 g / cm^3
# Si number density = 23.003235 Si / 1000 Ang^3
#
#
#
# Elastic Constant Matrix: (Units=GPa)
#
#
# Indices 1 2 3 4 5 6 
#
# 1 117.9168 19.2546 14.8286 0.0000 19.5753 0.0000
# 2 19.2546 49.9365 9.1876 0.0000 6.5984 0.0000
# 3 14.8286 9.1876 85.2742 0.0000 32.5766 0.0000
# 4 0.0000 0.0000 0.0000 14.0265 0.0000 5.5659
# 5 19.5753 6.5984 32.5766 0.0000 31.5377 0.0000
# 6 0.0000 0.0000 0.0000 5.5659 0.0000 40.9366
#
#
#
# Elastic Compliance Matrix: (Units=1/GPa)
#
#
# Indices 1 2 3 4 5 6 
#
# 1 0.009970 -0.003170 0.001187 0.000000 -0.006751 0.000000
# 2 -0.003170 0.021649 -0.001326 0.000000 -0.001192 0.000000
# 3 0.001187 -0.001326 0.019555 0.000000 -0.020659 0.000000
# 4 0.000000 0.000000 0.000000 0.075360 0.000000 -0.010246
# 5 -0.006751 -0.001192 -0.020659 0.000000 0.057487 0.000000
# 6 0.000000 0.000000 0.000000 -0.010246 0.000000 0.025821
#
#
# Mechanical properties :
#
#
# Convention : Reuss Voigt Hill
#
# Bulk Modulus (GPa) = 22.44378 37.74103 30.09240
# Shear Modulus (GPa) = 21.61571 31.29060 26.45316
#
# Velocity S-wave (km/s) = 3.06875 3.69218 3.39481
# Velocity P-wave (km/s) = 4.72591 5.88377 5.33634
#
# Compressibility (1/GPa) = 0.04455578
#
# Stress axis : x y z
#
# Youngs Moduli (GPa) = 100.30390 46.19068 51.13651
#
# Poissons Ratio (x) = 0.14645 -0.06069
# Poissons Ratio (y) = 0.31801 0.06780
# Poissons Ratio (z) = -0.11905 0.06124
#
# Static dielectric constant tensor:
#      x y z
#    x 1.979050 0.000000 0.070380 
#    y 0.000000 1.901500 0.000000 
#    z 0.070380 0.000000 1.914630 
# 
# From -- ./inp_files/145816.got.cif
#   From: 2010.05.17/outbox.cif.g08.bks.cpg/sg15_73_cif.got.tgz:145816.got - 2010.06.03 18:47:42.
