data_PCOD9260676
_publ_section_title
;
Structure prediction by ZEFSAII (Michael W. Deem and Ramdas Pophale) SiO2 
 PCOD9260676
Probable space group: C 2/C
;
_chemical_formula_sum "Si O2"
_cell_formula_units_Z 44
_cell_length_a 13.457095
_cell_length_b 14.121810
_cell_length_c 13.522889
_cell_angle_alpha 90.000000
_cell_angle_beta 117.863389
_cell_angle_gamma 90.000000
_cell_volume 2271.930762
_symmetry_space_group_name_H-M "C 2/C"
_symmetry_group_IT_number 15
_symmetry_cell_setting 'monoclinic'
loop_
_space_group_symop_operation_xyz
x,y,z
-x,y,1/2-z
-x,-y,-z
x,-y,1/2+z
1/2+x,1/2+y,z
1/2-x,1/2+y,1/2-z
1/2-x,1/2-y,-z
1/2+x,1/2-y,1/2+z
loop_
_atom_site_type_symbol
_atom_site_label
_atom_site_fract_x
_atom_site_fract_y
_atom_site_fract_z
Si Si1 0.630402 0.282305 0.408321
Si Si2 0.306918 0.574304 0.804803
Si Si3 0.675188 0.501357 0.469749
Si Si4 0.500000 0.490044 0.750000
Si Si5 0.609151 0.772977 0.668213
Si Si6 0.870917 0.478627 0.912345
O O1 0.750000 0.250000 0.500000
O O2 0.634051 0.394886 0.426134
O O3 0.522858 0.242382 0.415443
O O4 0.620457 0.244143 0.291572
O O5 0.410143 0.544374 0.780092
O O6 0.320129 0.684386 0.838993
O O7 0.192568 0.550684 0.692436
O O8 0.319162 0.517165 0.911726
O O9 0.582297 0.562398 0.365961
O O10 0.795728 0.517332 0.476186
O O11 0.640930 0.875768 0.644383
O O12 0.000000 0.500000 0.000000
#
# Coordination Sequence:
#
# PCOD9260676 Si02
#       6
#     8   8   8   4   8   8
#     4  11  20  37  65  95 124 168 231 282 325 394
#     4  11  22  41  66  93 135 174 232 273 338 409
#     4  11  21  39  64  93 132 173 220 281 338 391
#     4  10  18  38  60  96 122 166 218 282 320 392
#     4  11  22  39  63  95 131 174 229 272 336 411
#     4  11  25  43  62  96 140 176 220 285 343 402
#
# _framework density 19.366786999999999
#
# number of rings (size 3 to 8) (size 9 to 14) (size 15 to 20)
#    0.000    1.091    5.455    2.727    0.000    2.909 
#    0.000    0.000    0.000    0.000    0.000    0.000 
#    0.000    0.000    0.000    0.000    0.000    0.000 
#
# Total GULP energy -122604.617395 kJ/mol
# GULP energy per Si atom -5572.937154 kJ/mol
# Density = 1.932271 g / cm^3
# Si number density = 19.366787 Si / 1000 Ang^3
#
#
#
# Elastic Constant Matrix: (Units=GPa)
#
#
# Indices 1 2 3 4 5 6 
#
# 1 74.5288 18.7503 51.9203 0.0000 22.0342 0.0000
# 2 18.7503 64.3374 9.4382 0.0000 1.3783 0.0000
# 3 51.9203 9.4382 135.2501 0.0000 17.5473 0.0000
# 4 0.0000 0.0000 0.0000 13.6200 0.0000 8.1821
# 5 22.0342 1.3783 17.5473 0.0000 48.8723 0.0000
# 6 0.0000 0.0000 0.0000 8.1821 0.0000 20.8763
#
#
#
# Elastic Compliance Matrix: (Units=1/GPa)
#
#
# Indices 1 2 3 4 5 6 
#
# 1 0.021737 -0.005146 -0.007062 0.000000 -0.007120 0.000000
# 2 -0.005146 0.016922 0.000583 0.000000 0.001634 0.000000
# 3 -0.007062 0.000583 0.010125 0.000000 -0.000468 0.000000
# 4 0.000000 0.000000 0.000000 0.096032 0.000000 -0.037638
# 5 -0.007120 0.001634 -0.000468 0.000000 0.023793 0.000000
# 6 0.000000 0.000000 0.000000 -0.037638 0.000000 0.062653
#
#
# Mechanical properties :
#
#
# Convention : Reuss Voigt Hill
#
# Bulk Modulus (GPa) = 39.16468 48.25936 43.71202
# Shear Modulus (GPa) = 19.00970 29.60755 24.30863
#
# Velocity S-wave (km/s) = 3.13639 3.91420 3.54668
# Velocity P-wave (km/s) = 5.77775 6.73800 6.27627
#
# Compressibility (1/GPa) = 0.02553321
#
# Stress axis : x y z
#
# Youngs Moduli (GPa) = 46.00524 59.09320 98.76981
#
# Poissons Ratio (x) = 0.30412 0.69747
# Poissons Ratio (y) = 0.23676 -0.05756
# Poissons Ratio (z) = 0.32487 -0.03444
#
# Static dielectric constant tensor:
#      x y z
#    x 1.665580 0.000000 -0.006670 
#    y 0.000000 1.813950 0.000000 
#    z -0.006670 0.000000 1.702500 
# 
# From -- ./inp_files/143883.got.cif
#   From: 2010.05.17/outbox.cif.g08.bks.cpg/sg15_72_cif.got.tgz:143883.got - 2010.06.03 18:47:42.
