data_PCOD9260380
_publ_section_title
;
Structure prediction by ZEFSAII (Michael W. Deem and Ramdas Pophale) SiO2 
 PCOD9260380
Probable space group: C 2/C
;
_chemical_formula_sum "Si O2"
_cell_formula_units_Z 36
_cell_length_a 11.191016
_cell_length_b 11.773014
_cell_length_c 13.560606
_cell_angle_alpha 90.000000
_cell_angle_beta 116.263913
_cell_angle_gamma 90.000000
_cell_volume 1602.193913
_symmetry_space_group_name_H-M "C 2/C"
_symmetry_group_IT_number 15
_symmetry_cell_setting 'monoclinic'
loop_
_space_group_symop_operation_xyz
x,y,z
-x,y,1/2-z
-x,-y,-z
x,-y,1/2+z
1/2+x,1/2+y,z
1/2-x,1/2+y,1/2-z
1/2-x,1/2-y,-z
1/2+x,1/2-y,1/2+z
loop_
_atom_site_type_symbol
_atom_site_label
_atom_site_fract_x
_atom_site_fract_y
_atom_site_fract_z
Si Si1 0.419966 0.489428 0.125676
Si Si2 0.998446 0.628894 0.532364
Si Si3 0.500000 0.817613 0.250000
Si Si4 0.755383 0.655071 0.321799
Si Si5 0.637462 0.353490 0.588854
O O1 0.500000 0.440208 0.250000
O O2 0.296147 0.550189 0.132099
O O3 0.515884 0.584270 0.106853
O O4 0.369770 0.409224 0.020593
O O5 0.971802 0.619373 0.638840
O O6 0.887286 0.692883 0.425309
O O7 0.000000 0.500000 0.500000
O O8 0.119232 0.718279 0.569889
O O9 0.633981 0.743651 0.284655
O O10 0.761749 0.625585 0.208091
#
# Coordination Sequence:
#
# PCOD9260380 Si02
#       5
#     8   8   4   8   8
#     4   9  16  34  60  83 104 140 193 234 265 326
#     4  11  23  38  55  85 119 148 180 232 289 331
#     4  10  20  40  58  78 108 154 204 216 264 350
#     4  10  18  37  60  81 107 150 192 226 271 332
#     4   9  19  36  56  86 109 141 194 227 275 331
#
# _framework density 22.469190000000001
#
# number of rings (size 3 to 8) (size 9 to 14) (size 15 to 20)
#    0.000    2.222    5.556    0.667    0.000    1.778 
#   22.000    1.111    0.000    0.000    0.000    0.000 
#    0.000    0.000    0.000    0.000    0.000    0.000 
#
# Total GULP energy -100304.365232 kJ/mol
# GULP energy per Si atom -5572.464735 kJ/mol
# Density = 2.241805 g / cm^3
# Si number density = 22.469190 Si / 1000 Ang^3
#
#
#
# Elastic Constant Matrix: (Units=GPa)
#
#
# Indices 1 2 3 4 5 6 
#
# 1 15.4922 7.6748 43.9946 0.0000 -3.8622 0.0000
# 2 7.6748 97.8291 59.4772 0.0000 -30.6174 0.0000
# 3 43.9946 59.4772 216.9711 0.0000 -34.4939 0.0000
# 4 0.0000 0.0000 0.0000 47.1827 0.0000 -13.8767
# 5 -3.8622 -30.6174 -34.4939 0.0000 36.9479 0.0000
# 6 0.0000 0.0000 0.0000 -13.8767 0.0000 2.0417
#
#
#
# Elastic Compliance Matrix: (Units=1/GPa)
#
#
# Indices 1 2 3 4 5 6 
#
# 1 0.161745 0.005477 -0.036272 0.000000 -0.012417 0.000000
# 2 0.005477 0.015046 -0.003713 0.000000 0.009574 0.000000
# 3 -0.036272 -0.003713 0.013962 0.000000 0.006166 0.000000
# 4 0.000000 0.000000 0.000000 -0.021217 0.000000 -0.144203
# 5 -0.012417 0.009574 0.006166 0.000000 0.039458 0.000000
# 6 0.000000 0.000000 0.000000 -0.144203 0.000000 -0.490310
#
#
# Mechanical properties :
#
#
# Convention : Reuss Voigt Hill
#
# Bulk Modulus (GPa) = 8.21440 61.39839 34.80640
# Shear Modulus (GPa) = -29.11699 31.84418 1.36360
#
# Velocity S-wave (km/s) = -3.60371 3.76871 0.77987
# Velocity P-wave (km/s) = 3.69485 6.80606 4.04169
#
# Compressibility (1/GPa) = 0.12173737
#
# Stress axis : x y z
#
# Youngs Moduli (GPa) = 6.18257 66.46270 71.62404
#
# Poissons Ratio (x) = -0.36403 2.59795
# Poissons Ratio (y) = -0.03386 0.26594
# Poissons Ratio (z) = 0.22425 0.24678
#
# Static dielectric constant tensor:
#      x y z
#    x 1.942400 0.000000 0.003080 
#    y 0.000000 1.856600 0.000000 
#    z 0.003080 0.000000 1.922100 
# 
# From -- ./inp_files/151566.got.cif
#   From: 2010.05.17/outbox.cif.g08.bks.cpg/sg15_76_cif.got.tgz:151566.got - 2010.06.03 18:47:42.
