data_PCOD9260155
_publ_section_title
;
Structure prediction by ZEFSAII (Michael W. Deem and Ramdas Pophale) SiO2 
 PCOD9260155
Probable space group: C 2/C
;
_chemical_formula_sum "Si O2"
_cell_formula_units_Z 56
_cell_length_a 9.129267
_cell_length_b 15.106562
_cell_length_c 22.626606
_cell_angle_alpha 90.000000
_cell_angle_beta 53.724406
_cell_angle_gamma 90.000000
_cell_volume 2515.667207
_symmetry_space_group_name_H-M "C 2/C"
_symmetry_group_IT_number 15
_symmetry_cell_setting 'monoclinic'
loop_
_space_group_symop_operation_xyz
x,y,z
-x,y,1/2-z
-x,-y,-z
x,-y,1/2+z
1/2+x,1/2+y,z
1/2-x,1/2+y,1/2-z
1/2-x,1/2-y,-z
1/2+x,1/2-y,1/2+z
loop_
_atom_site_type_symbol
_atom_site_label
_atom_site_fract_x
_atom_site_fract_y
_atom_site_fract_z
Si Si1 0.631926 0.061306 0.534006
Si Si2 0.616686 0.096320 0.397252
Si Si3 0.928104 0.731599 0.886600
Si Si4 0.000000 0.655653 0.750000
Si Si5 0.485414 0.289898 0.059750
Si Si6 0.000000 0.044881 0.250000
Si Si7 0.530932 0.394475 0.941345
Si Si8 0.371245 0.448047 0.161987
O O1 0.644620 0.068132 0.459762
O O2 0.535550 0.151290 0.577829
O O3 0.840106 0.059415 0.505615
O O4 0.517226 0.982470 0.589701
O O5 0.505937 0.188897 0.420256
O O6 0.813263 0.095069 0.316952
O O7 0.715257 0.721056 0.922356
O O8 0.977055 0.822304 0.904847
O O9 0.021508 0.716075 0.802216
O O10 0.173382 0.593750 0.708888
O O11 0.489253 0.364902 0.109269
O O12 0.599705 0.334755 0.979463
O O13 0.940341 0.985364 0.207945
O O14 0.634889 0.470640 0.882328
#
# Coordination Sequence:
#
# PCOD9260155 Si02
#       8
#     8   8   8   4   8   4   8   8
#     4  10  19  36  64  93 120 166 214 264 309 383
#     4  11  21  37  66  91 129 165 220 261 322 387
#     4  10  18  36  63  90 123 161 220 266 314 379
#     4  10  24  41  62  99 132 172 212 275 336 379
#     4  10  20  38  62  94 120 161 218 275 317 372
#     4  12  24  43  64  99 130 180 214 269 332 399
#     4  11  19  39  66  95 122 164 220 274 322 377
#     4  11  24  39  63  93 135 171 213 269 327 397
#
# _framework density 22.260497000000001
#
# number of rings (size 3 to 8) (size 9 to 14) (size 15 to 20)
#    0.000    1.429    4.286    2.143    0.000    5.143 
#    0.000    0.714    0.000   20.571    0.000    0.000 
#    0.000    0.000    0.000    0.000    0.000    0.000 
#
# Total GULP energy -156238.107646 kJ/mol
# GULP energy per Si atom -5579.932416 kJ/mol
# Density = 2.220983 g / cm^3
# Si number density = 22.260497 Si / 1000 Ang^3
#
#
#
# Elastic Constant Matrix: (Units=GPa)
#
#
# Indices 1 2 3 4 5 6 
#
# 1 55.9709 33.3075 42.0984 -0.0001 7.1477 0.0000
# 2 33.3075 148.9378 62.3070 -0.0001 3.8478 0.0000
# 3 42.0984 62.3070 135.4767 0.0000 12.7891 0.0000
# 4 -0.0001 -0.0001 0.0000 33.1695 0.0001 -2.4204
# 5 7.1477 3.8478 12.7891 0.0001 26.9370 0.0000
# 6 0.0000 0.0000 0.0000 -2.4204 0.0000 10.2977
#
#
#
# Elastic Compliance Matrix: (Units=1/GPa)
#
#
# Indices 1 2 3 4 5 6 
#
# 1 0.024498 -0.002895 -0.005974 0.000000 -0.003251 0.000000
# 2 -0.002895 0.008667 -0.003185 0.000000 0.001042 0.000000
# 3 -0.005974 -0.003185 0.011003 0.000000 -0.003184 0.000000
# 4 0.000000 0.000000 0.000000 0.030674 0.000000 0.007210
# 5 -0.003251 0.001042 -0.003184 0.000000 0.039349 0.000000
# 6 0.000000 0.000000 0.000000 0.007210 0.000000 0.098804
#
#
# Mechanical properties :
#
#
# Convention : Reuss Voigt Hill
#
# Bulk Modulus (GPa) = 49.85145 68.42345 59.13745
# Shear Modulus (GPa) = 20.50946 27.59234 24.05090
#
# Velocity S-wave (km/s) = 3.03865 3.52450 3.29055
# Velocity P-wave (km/s) = 5.89528 6.88238 6.40787
#
# Compressibility (1/GPa) = 0.02005960
#
# Stress axis : x y z
#
# Youngs Moduli (GPa) = 40.81984 115.37878 90.88431
#
# Poissons Ratio (x) = 0.33406 0.54295
# Poissons Ratio (y) = 0.11819 0.28944
# Poissons Ratio (z) = 0.24386 0.36745
#
# Static dielectric constant tensor:
#      x y z
#    x 1.863650 0.000000 0.003180 
#    y 0.000000 1.873810 0.000000 
#    z 0.003180 0.000000 1.882590 
# 
# From -- ./inp_files/292237.got.cif
#   From: 2010.05.17/outbox.cif.g08.bks.cpg/sg15_147_cif.got.tgz:292237.got - 2010.06.03 18:47:42.
