data_PCOD9260636
_publ_section_title
;
Structure prediction by ZEFSAII (Michael W. Deem and Ramdas Pophale) SiO2 
 PCOD9260636
Probable space group: C 2/C
;
_chemical_formula_sum "Si O2"
_cell_formula_units_Z 52
_cell_length_a 15.047866
_cell_length_b 14.668216
_cell_length_c 12.283240
_cell_angle_alpha 90.000000
_cell_angle_beta 61.044353
_cell_angle_gamma 90.000000
_cell_volume 2372.305366
_symmetry_space_group_name_H-M "C 2/C"
_symmetry_group_IT_number 15
_symmetry_cell_setting 'monoclinic'
loop_
_space_group_symop_operation_xyz
x,y,z
-x,y,1/2-z
-x,-y,-z
x,-y,1/2+z
1/2+x,1/2+y,z
1/2-x,1/2+y,1/2-z
1/2-x,1/2-y,-z
1/2+x,1/2-y,1/2+z
loop_
_atom_site_type_symbol
_atom_site_label
_atom_site_fract_x
_atom_site_fract_y
_atom_site_fract_z
Si Si1 0.000000 0.281710 0.250000
Si Si2 0.107067 0.559226 0.210135
Si Si3 0.715188 0.634744 0.741945
Si Si4 0.744688 0.076595 0.312994
Si Si5 0.367819 0.256589 0.395076
Si Si6 0.889329 0.219161 0.113712
Si Si7 0.287536 0.885239 0.424323
O O1 0.972969 0.225859 0.157298
O O2 0.895397 0.335287 0.340130
O O3 0.134352 0.574627 0.320141
O O4 0.102850 0.654588 0.151727
O O5 0.191598 0.492155 0.112093
O O6 0.000000 0.513416 0.250000
O O7 0.721179 0.528666 0.706308
O O8 0.633775 0.683345 0.712852
O O9 0.823107 0.686536 0.655634
O O10 0.708810 0.644588 0.876772
O O11 0.813040 0.138695 0.193748
O O12 0.745193 0.121244 0.431613
O O13 0.250000 0.250000 0.500000
O O14 0.423753 0.292563 0.469095
#
# Coordination Sequence:
#
# PCOD9260636 Si02
#       7
#     4   8   8   8   8   8   8
#     4  10  22  38  56  88 120 152 192 248 304 342
#     4  11  22  36  57  96 120 157 189 239 306 354
#     4   9  20  35  58  85 111 152 199 235 282 350
#     4  11  22  36  62  86 119 160 199 237 296 353
#     4  10  18  38  60  79 119 154 200 233 284 356
#     4  10  21  39  60  86 115 161 196 241 296 348
#     4  10  21  37  56  90 124 150 191 245 301 356
#
# _framework density 21.919608
#
# number of rings (size 3 to 8) (size 9 to 14) (size 15 to 20)
#    0.000    1.846    3.846    1.846    4.308    3.077 
#    0.000    0.000    1.692    0.923    0.000    0.000 
#    0.000    0.000    0.000    0.000    0.000    0.000 
#
# Total GULP energy -145069.471597 kJ/mol
# GULP energy per Si atom -5579.595061 kJ/mol
# Density = 2.186972 g / cm^3
# Si number density = 21.919608 Si / 1000 Ang^3
#
#
#
# Elastic Constant Matrix: (Units=GPa)
#
#
# Indices 1 2 3 4 5 6 
#
# 1 85.0127 23.2550 48.8941 0.0000 50.2298 0.0000
# 2 23.2550 82.9118 18.9945 0.0000 5.3625 0.0000
# 3 48.8941 18.9945 103.6033 0.0000 42.2283 0.0000
# 4 0.0000 0.0000 0.0000 23.7142 0.0000 8.1645
# 5 50.2298 5.3625 42.2283 0.0000 52.4517 0.0000
# 6 0.0000 0.0000 0.0000 8.1645 0.0000 23.2385
#
#
#
# Elastic Compliance Matrix: (Units=1/GPa)
#
#
# Indices 1 2 3 4 5 6 
#
# 1 0.030753 -0.006338 -0.002399 0.000000 -0.026871 0.000000
# 2 -0.006338 0.013922 -0.002166 0.000000 0.006390 0.000000
# 3 -0.002399 -0.002166 0.015115 0.000000 -0.009650 0.000000
# 4 0.000000 0.000000 0.000000 0.047971 0.000000 -0.016854
# 5 -0.026871 0.006390 -0.009650 0.000000 0.051914 0.000000
# 6 0.000000 0.000000 0.000000 -0.016854 0.000000 0.048953
#
#
# Mechanical properties :
#
#
# Convention : Reuss Voigt Hill
#
# Bulk Modulus (GPa) = 26.32681 50.42388 38.37534
# Shear Modulus (GPa) = 20.56809 31.90650 26.23730
#
# Velocity S-wave (km/s) = 3.06656 3.81939 3.46349
# Velocity P-wave (km/s) = 4.95733 6.51953 5.79135
#
# Compressibility (1/GPa) = 0.03798410
#
# Stress axis : x y z
#
# Youngs Moduli (GPa) = 32.51684 71.83102 66.16089
#
# Poissons Ratio (x) = 0.45527 0.15872
# Poissons Ratio (y) = 0.20609 0.14328
# Poissons Ratio (z) = 0.07801 0.15556
#
# Static dielectric constant tensor:
#      x y z
#    x 2.470200 0.000000 -0.730210 
#    y 0.000000 1.798380 0.000000 
#    z -0.730210 0.000000 2.789700 
# 
# From -- ./inp_files/96975.got.cif
#   From: 2010.05.17/outbox.cif.g08.bks.cpg/sg15_49_cif.got.tgz:96975.got - 2010.06.03 18:47:42.
