data_PCOD9260160
_publ_section_title
;
Structure prediction by ZEFSAII (Michael W. Deem and Ramdas Pophale) SiO2 
 PCOD9260160
Probable space group: C 2/C
;
_chemical_formula_sum "Si O2"
_cell_formula_units_Z 52
_cell_length_a 8.248247
_cell_length_b 32.626572
_cell_length_c 14.094531
_cell_angle_alpha 90.000000
_cell_angle_beta 147.108276
_cell_angle_gamma 90.000000
_cell_volume 2059.804883
_symmetry_space_group_name_H-M "C 2/C"
_symmetry_group_IT_number 15
_symmetry_cell_setting 'monoclinic'
loop_
_space_group_symop_operation_xyz
x,y,z
-x,y,1/2-z
-x,-y,-z
x,-y,1/2+z
1/2+x,1/2+y,z
1/2-x,1/2+y,1/2-z
1/2-x,1/2-y,-z
1/2+x,1/2-y,1/2+z
loop_
_atom_site_type_symbol
_atom_site_label
_atom_site_fract_x
_atom_site_fract_y
_atom_site_fract_z
Si Si1 0.837874 0.350949 0.454404
Si Si2 0.352973 0.221540 0.830214
Si Si3 0.999750 0.036357 0.424580
Si Si4 0.393272 0.612536 0.476039
Si Si5 0.925120 0.579491 0.875278
Si Si6 0.945683 0.198519 0.002321
Si Si7 0.000000 0.018771 0.750000
O O1 0.500000 0.358922 0.250000
O O2 0.887538 0.304798 0.443215
O O3 0.832124 0.366382 0.559362
O O4 0.037334 0.380690 0.487059
O O5 0.648666 0.211194 0.914036
O O6 0.100449 0.206861 0.632876
O O7 0.322028 0.269034 0.841269
O O8 0.809591 0.073988 0.370600
O O9 0.320788 0.055457 0.555425
O O10 0.907432 0.011968 0.286732
O O11 0.000000 0.000000 0.500000
O O12 0.670858 0.594181 0.675349
O O13 0.499070 0.650517 0.463909
O O14 0.775970 0.550516 0.882598
#
# Coordination Sequence:
#
# PCOD9260160 Si02
#       7
#     8   8   8   8   8   8   4
#     4  10  18  36  63  94 116 157 218 256 302 378
#     4  10  20  36  59  94 124 165 208 269 309 379
#     4  12  25  39  64  95 126 167 212 267 323 384
#     4  11  21  38  64  93 118 167 217 258 306 386
#     4  11  20  40  66  90 123 164 213 262 306 385
#     4  10  21  37  62  90 126 163 219 258 320 373
#     4  12  24  42  60  96 130 162 212 268 334 370
#
# _framework density 25.245107999999998
#
# number of rings (size 3 to 8) (size 9 to 14) (size 15 to 20)
#    0.000    1.231    6.923    1.846    2.154    0.615 
#    0.000    4.615    0.000    1.846    0.000    0.000 
#    0.000    0.000    0.000    0.000    0.000    0.000 
#
# Total GULP energy -145283.894786 kJ/mol
# GULP energy per Si atom -5587.842107 kJ/mol
# Density = 2.518765 g / cm^3
# Si number density = 25.245108 Si / 1000 Ang^3
#
#
#
# Elastic Constant Matrix: (Units=GPa)
#
#
# Indices 1 2 3 4 5 6 
#
# 1 117.8084 30.8998 9.6309 0.0000 -14.6929 0.0000
# 2 30.8998 183.8387 24.6087 0.0000 -19.2450 0.0000
# 3 9.6309 24.6087 25.0435 0.0000 0.7863 0.0000
# 4 0.0000 0.0000 0.0000 20.1835 0.0000 7.4781
# 5 -14.6929 -19.2450 0.7863 0.0000 34.0589 0.0000
# 6 0.0000 0.0000 0.0000 7.4781 0.0000 3.8324
#
#
#
# Elastic Compliance Matrix: (Units=1/GPa)
#
#
# Indices 1 2 3 4 5 6 
#
# 1 0.009397 -0.000802 -0.002941 0.000000 0.003669 0.000000
# 2 -0.000802 0.006830 -0.006519 0.000000 0.003664 0.000000
# 3 -0.002941 -0.006519 0.047657 0.000000 -0.006052 0.000000
# 4 0.000000 0.000000 0.000000 0.178840 0.000000 -0.348968
# 5 0.003669 0.003664 -0.006052 0.000000 0.033154 0.000000
# 6 0.000000 0.000000 0.000000 -0.348968 0.000000 0.941872
#
#
# Mechanical properties :
#
#
# Convention : Reuss Voigt Hill
#
# Bulk Modulus (GPa) = 23.06198 50.77439 36.91818
# Shear Modulus (GPa) = 3.99130 29.05170 16.52150
#
# Velocity S-wave (km/s) = 1.25875 3.39600 2.56098
# Velocity P-wave (km/s) = 3.35673 5.96099 4.83741
#
# Compressibility (1/GPa) = 0.04336142
#
# Stress axis : x y z
#
# Youngs Moduli (GPa) = 106.42148 146.40298 20.98325
#
# Poissons Ratio (x) = 0.11737 0.06171
# Poissons Ratio (y) = 0.08531 0.13678
# Poissons Ratio (z) = 0.31299 0.95435
#
# Static dielectric constant tensor:
#      x y z
#    x 1.998270 0.000000 0.013840 
#    y 0.000000 1.956120 0.000000 
#    z 0.013840 0.000000 2.067750 
# 
# From -- ./inp_files/139320.got.cif
#   From: 2010.05.17/outbox.cif.g08.bks.cpg/sg15_70_cif.got.tgz:139320.got - 2010.06.03 18:47:42.
