data_PCOD9260747
_publ_section_title
;
Structure prediction by ZEFSAII (Michael W. Deem and Ramdas Pophale) SiO2 
 PCOD9260747
Probable space group: C 2/C
;
_chemical_formula_sum "Si O2"
_cell_formula_units_Z 52
_cell_length_a 15.876850
_cell_length_b 28.154037
_cell_length_c 9.123888
_cell_angle_alpha 90.000000
_cell_angle_beta 137.841936
_cell_angle_gamma 90.000000
_cell_volume 2737.302572
_symmetry_space_group_name_H-M "C 2/C"
_symmetry_group_IT_number 15
_symmetry_cell_setting 'monoclinic'
loop_
_space_group_symop_operation_xyz
x,y,z
-x,y,1/2-z
-x,-y,-z
x,-y,1/2+z
1/2+x,1/2+y,z
1/2-x,1/2+y,1/2-z
1/2-x,1/2-y,-z
1/2+x,1/2-y,1/2+z
loop_
_atom_site_type_symbol
_atom_site_label
_atom_site_fract_x
_atom_site_fract_y
_atom_site_fract_z
Si Si1 0.500000 0.680983 0.250000
Si Si2 0.029761 0.333625 0.952422
Si Si3 0.442028 0.279482 0.007339
Si Si4 0.573217 0.431858 0.495230
Si Si5 0.611277 0.536947 0.507260
Si Si6 0.755577 0.621433 0.594664
Si Si7 0.221290 0.350342 0.692585
O O1 0.495657 0.705617 0.410315
O O2 0.623342 0.648750 0.417475
O O3 0.055046 0.277260 0.992799
O O4 0.000000 0.346991 0.750000
O O5 0.905568 0.346817 0.881605
O O6 0.153328 0.360467 0.163384
O O7 0.500000 0.292324 0.250000
O O8 0.303350 0.302578 0.821863
O O9 0.637566 0.483877 0.597837
O O10 0.459001 0.430725 0.463587
O O11 0.677687 0.391668 0.641301
O O12 0.500000 0.427122 0.250000
O O13 0.500000 0.528770 0.250000
O O14 0.721968 0.566328 0.575722
O O15 0.817312 0.637339 0.522604
#
# Coordination Sequence:
#
# PCOD9260747 Si02
#       7
#     4   8   8   8   8   8   8
#     4  10  22  36  72  94 120 164 218 260 332 362
#     4  11  28  41  60  91 126 170 211 260 317 380
#     4  10  24  41  64  91 126 168 218 274 309 379
#     4  10  21  34  65  96 124 157 200 266 306 374
#     4  10  18  38  62  96 123 153 208 256 316 355
#     4  11  22  41  63  91 128 164 205 265 306 387
#     4  11  23  42  61  91 125 169 212 251 331 375
#
# _framework density 18.996803
#
# number of rings (size 3 to 8) (size 9 to 14) (size 15 to 20)
#    0.000    1.538    2.308    1.846    8.615    2.462 
#    0.000    0.769    0.000    0.000    0.000    0.000 
#    0.000    0.000    0.000    0.000    0.000    0.000 
#
# Total GULP energy -144745.658477 kJ/mol
# GULP energy per Si atom -5567.140711 kJ/mol
# Density = 1.895357 g / cm^3
# Si number density = 18.996803 Si / 1000 Ang^3
#
#
#
# Elastic Constant Matrix: (Units=GPa)
#
#
# Indices 1 2 3 4 5 6 
#
# 1 70.3691 9.5126 22.5069 0.0000 -9.7590 0.0000
# 2 9.5126 57.2695 35.8807 0.0000 0.0095 0.0000
# 3 22.5069 35.8807 92.3230 0.0000 -12.9357 0.0000
# 4 0.0000 0.0000 0.0000 51.4798 0.0000 23.8440
# 5 -9.7590 0.0095 -12.9357 0.0000 33.0528 0.0000
# 6 0.0000 0.0000 0.0000 23.8440 0.0000 43.7793
#
#
#
# Elastic Compliance Matrix: (Units=1/GPa)
#
#
# Indices 1 2 3 4 5 6 
#
# 1 0.015771 -0.000679 -0.003098 0.000000 0.003444 0.000000
# 2 -0.000679 0.023552 -0.009540 0.000000 -0.003941 0.000000
# 3 -0.003098 -0.009540 0.016047 0.000000 0.005368 0.000000
# 4 0.000000 0.000000 0.000000 0.025979 0.000000 -0.014149
# 5 0.003444 -0.003941 0.005368 0.000000 0.033373 0.000000
# 6 0.000000 0.000000 0.000000 -0.014149 0.000000 0.030548
#
#
# Mechanical properties :
#
#
# Convention : Reuss Voigt Hill
#
# Bulk Modulus (GPa) = 34.80062 39.52910 37.16486
# Shear Modulus (GPa) = 27.55092 35.79980 31.67536
#
# Velocity S-wave (km/s) = 3.81240 4.34581 4.08782
# Velocity P-wave (km/s) = 6.14314 6.78490 6.47198
#
# Compressibility (1/GPa) = 0.02873512
#
# Stress axis : x y z
#
# Youngs Moduli (GPa) = 63.40679 42.45984 62.31857
#
# Poissons Ratio (x) = 0.02883 0.19308
# Poissons Ratio (y) = 0.04306 0.59451
# Poissons Ratio (z) = 0.19645 0.40506
#
# Static dielectric constant tensor:
#      x y z
#    x 1.782420 0.000000 -0.165390 
#    y 0.000000 1.713950 0.000000 
#    z -0.165390 0.000000 1.667220 
# 
# From -- ./inp_files/43413.got.cif
#   From: 2010.05.17/outbox.cif.g08.bks.cpg/sg15_22_cif.got.tgz:43413.got - 2010.06.03 18:47:42.
