data_PCOD9260710
_publ_section_title
;
Structure prediction by ZEFSAII (Michael W. Deem and Ramdas Pophale) SiO2 
 PCOD9260710
Probable space group: C 2/C
;
_chemical_formula_sum "Si O2"
_cell_formula_units_Z 60
_cell_length_a 7.745156
_cell_length_b 12.216973
_cell_length_c 28.564470
_cell_angle_alpha 90.000000
_cell_angle_beta 88.060835
_cell_angle_gamma 90.000000
_cell_volume 2701.289749
_symmetry_space_group_name_H-M "C 2/C"
_symmetry_group_IT_number 15
_symmetry_cell_setting 'monoclinic'
loop_
_space_group_symop_operation_xyz
x,y,z
-x,y,1/2-z
-x,-y,-z
x,-y,1/2+z
1/2+x,1/2+y,z
1/2-x,1/2+y,1/2-z
1/2-x,1/2-y,-z
1/2+x,1/2-y,1/2+z
loop_
_atom_site_type_symbol
_atom_site_label
_atom_site_fract_x
_atom_site_fract_y
_atom_site_fract_z
Si Si1 0.338488 0.166567 0.860135
Si Si2 0.884923 0.607606 0.492904
Si Si3 0.206588 0.409572 0.241744
Si Si4 0.756360 0.637989 0.657968
Si Si5 0.119542 0.189998 0.564826
Si Si6 0.107780 0.106069 0.148050
Si Si7 0.000000 0.912253 0.750000
Si Si8 0.135276 0.997694 0.923010
O O1 0.265481 0.141686 0.809190
O O2 0.544671 0.156662 0.855600
O O3 0.290899 0.290834 0.873398
O O4 0.270901 0.076574 0.896195
O O5 0.961310 0.706688 0.461134
O O6 0.806539 0.662153 0.540344
O O7 0.724147 0.568906 0.462857
O O8 0.000000 0.500000 0.500000
O O9 0.265341 0.339146 0.286529
O O10 0.330595 0.514527 0.241743
O O11 0.000000 0.431760 0.250000
O O12 0.642557 0.701107 0.620632
O O13 0.709009 0.508551 0.652460
O O14 0.009468 0.080952 0.557843
O O15 0.043095 0.143697 0.200296
O O16 0.949750 0.079306 0.115341
#
# Coordination Sequence:
#
# PCOD9260710 Si02
#       8
#     8   8   8   8   8   8   4   8
#     4  11  21  37  61  90 124 166 210 249 315 369
#     4  11  24  42  66  92 120 161 203 260 318 372
#     4   9  19  35  62  88 127 169 211 261 310 376
#     4   9  20  39  60  85 124 159 202 263 299 369
#     4  10  23  43  63  90 124 157 205 254 319 375
#     4  10  22  37  62  88 122 167 207 252 310 370
#     4  10  18  38  62  84 128 172 208 262 318 362
#     4  11  23  40  63  94 125 163 206 257 309 382
#
# _framework density 22.211613
#
# number of rings (size 3 to 8) (size 9 to 14) (size 15 to 20)
#    0.000    1.867    1.333    2.000    2.800    4.800 
#    0.000    0.000   11.733    0.000    0.000    0.000 
#    0.000    0.000    0.000    0.000    0.000    0.000 
#
# Total GULP energy -167551.281655 kJ/mol
# GULP energy per Si atom -5585.042722 kJ/mol
# Density = 2.216106 g / cm^3
# Si number density = 22.211613 Si / 1000 Ang^3
#
#
#
# Elastic Constant Matrix: (Units=GPa)
#
#
# Indices 1 2 3 4 5 6 
#
# 1 31.0533 9.0548 8.1343 0.0000 5.8037 0.0000
# 2 9.0548 61.6138 22.2476 0.0000 5.1034 0.0000
# 3 8.1343 22.2476 91.5436 0.0000 9.3077 0.0000
# 4 0.0000 0.0000 0.0000 -6.5054 0.0000 -11.1573
# 5 5.8037 5.1034 9.3077 0.0000 35.3849 0.0000
# 6 0.0000 0.0000 0.0000 -11.1573 0.0000 17.3462
#
#
#
# Elastic Compliance Matrix: (Units=1/GPa)
#
#
# Indices 1 2 3 4 5 6 
#
# 1 0.034702 -0.004134 -0.001604 0.000000 -0.004674 0.000000
# 2 -0.004134 0.018358 -0.004001 0.000000 -0.000917 0.000000
# 3 -0.001604 -0.004001 0.012282 0.000000 -0.002390 0.000000
# 4 0.000000 0.000000 0.000000 -0.073089 0.000000 -0.047012
# 5 -0.004674 -0.000917 -0.002390 0.000000 0.029788 0.000000
# 6 0.000000 0.000000 0.000000 -0.047012 0.000000 0.027411
#
#
# Mechanical properties :
#
#
# Convention : Reuss Voigt Hill
#
# Bulk Modulus (GPa) = 21.80318 29.23157 25.51737
# Shear Modulus (GPa) = 59.37097 18.89675 39.13386
#
# Velocity S-wave (km/s) = 5.17569 2.91994 4.20201
# Velocity P-wave (km/s) = 6.74940 4.95552 5.92079
#
# Compressibility (1/GPa) = 0.04586488
#
# Stress axis : x y z
#
# Youngs Moduli (GPa) = 28.81714 54.47138 81.42223
#
# Poissons Ratio (x) = 0.22516 0.13058
# Poissons Ratio (y) = 0.11912 0.32577
# Poissons Ratio (z) = 0.04621 0.21794
#
# Static dielectric constant tensor:
#      x y z
#    x 1.824220 0.000000 -0.035620 
#    y 0.000000 1.813370 0.000000 
#    z -0.035620 0.000000 1.889900 
# 
# From -- ./inp_files/307174.got.cif
#   From: 2010.05.17/outbox.cif.g08.bks.cpg/sg15_154_cif.got.tgz:307174.got - 2010.06.03 18:47:42.
