data_PCOD9260282
_publ_section_title
;
Structure prediction by ZEFSAII (Michael W. Deem and Ramdas Pophale) SiO2 
 PCOD9260282
Probable space group: C 2/C
;
_chemical_formula_sum "Si O2"
_cell_formula_units_Z 56
_cell_length_a 7.182856
_cell_length_b 11.928284
_cell_length_c 27.826006
_cell_angle_alpha 90.000000
_cell_angle_beta 65.928540
_cell_angle_gamma 90.000000
_cell_volume 2176.780314
_symmetry_space_group_name_H-M "C 2/C"
_symmetry_group_IT_number 15
_symmetry_cell_setting 'monoclinic'
loop_
_space_group_symop_operation_xyz
x,y,z
-x,y,1/2-z
-x,-y,-z
x,-y,1/2+z
1/2+x,1/2+y,z
1/2-x,1/2+y,1/2-z
1/2-x,1/2-y,-z
1/2+x,1/2-y,1/2+z
loop_
_atom_site_type_symbol
_atom_site_label
_atom_site_fract_x
_atom_site_fract_y
_atom_site_fract_z
Si Si1 0.180298 0.228686 0.954003
Si Si2 0.855415 0.628185 0.850376
Si Si3 0.889434 0.846327 0.364293
Si Si4 0.000000 0.000000 0.000000
Si Si5 0.231365 0.033292 0.052370
Si Si6 0.110688 0.820803 0.781701
Si Si7 0.788208 0.896638 0.624580
Si Si8 0.500000 0.698296 0.750000
O O1 0.362633 0.185435 0.901370
O O2 0.150215 0.358132 0.941311
O O3 0.250000 0.250000 0.000000
O O4 0.016892 0.130672 0.973438
O O5 0.622930 0.646066 0.857232
O O6 0.875868 0.495621 0.853595
O O7 0.996373 0.702653 0.802471
O O8 0.803086 0.721511 0.380511
O O9 0.897934 0.864970 0.305574
O O10 0.768704 0.936687 0.408507
O O11 0.751532 0.992361 0.005689
O O12 0.977923 0.063697 0.070545
O O13 0.117993 0.884204 0.831579
O O14 0.336266 0.783139 0.744455
O O15 0.000000 0.882044 0.750000
#
# Coordination Sequence:
#
# PCOD9260282 Si02
#       8
#     8   8   8   4   8   8   8   4
#     4  10  20  36  69  96 122 176 226 275 347 414
#     4  11  21  44  66  94 134 181 222 278 352 402
#     4  10  21  41  63  93 134 172 224 278 330 403
#     4  10  18  36  68  88 126 168 218 280 338 410
#     4  10  20  39  63  91 124 173 219 275 347 401
#     4  11  22  43  66  94 138 181 231 281 341 410
#     4  10  22  41  63  95 133 173 224 281 336 406
#     4  10  22  42  66 102 138 172 240 280 326 418
#
# _framework density 25.726071000000001
#
# number of rings (size 3 to 8) (size 9 to 14) (size 15 to 20)
#    0.000    1.714    5.714    0.000    0.000    0.000 
#   15.429    0.714    0.000    3.429    0.000    0.000 
#    0.000    0.000    0.000    0.000    0.000    0.000 
#
# Total GULP energy -156080.791487 kJ/mol
# GULP energy per Si atom -5574.313982 kJ/mol
# Density = 2.566752 g / cm^3
# Si number density = 25.726071 Si / 1000 Ang^3
#
#
#
# Elastic Constant Matrix: (Units=GPa)
#
#
# Indices 1 2 3 4 5 6 
#
# 1 57.2985 42.4563 9.3290 0.0000 7.4318 0.0000
# 2 42.4563 201.6775 36.3543 0.0000 2.9404 0.0000
# 3 9.3290 36.3543 103.8334 0.0000 21.9214 0.0000
# 4 0.0000 0.0000 0.0000 27.9958 0.0000 0.6229
# 5 7.4318 2.9404 21.9214 0.0000 32.6756 0.0000
# 6 0.0000 0.0000 0.0000 0.6229 0.0000 35.6906
#
#
#
# Elastic Compliance Matrix: (Units=1/GPa)
#
#
# Indices 1 2 3 4 5 6 
#
# 1 0.021347 -0.004551 0.000715 0.000000 -0.004926 0.000000
# 2 -0.004551 0.006285 -0.002203 0.000000 0.001947 0.000000
# 3 0.000715 -0.002203 0.012035 0.000000 -0.008038 0.000000
# 4 0.000000 0.000000 0.000000 0.035733 0.000000 -0.000624
# 5 -0.004926 0.001947 -0.008038 0.000000 0.036942 0.000000
# 6 0.000000 0.000000 0.000000 -0.000624 0.000000 0.028029
#
#
# Mechanical properties :
#
#
# Convention : Reuss Voigt Hill
#
# Bulk Modulus (GPa) = 36.24483 59.89872 48.07178
# Shear Modulus (GPa) = 30.93193 37.58374 34.25783
#
# Velocity S-wave (km/s) = 3.47126 3.82635 3.65312
# Velocity P-wave (km/s) = 5.49414 6.54638 6.04320
#
# Compressibility (1/GPa) = 0.02759014
#
# Stress axis : x y z
#
# Youngs Moduli (GPa) = 46.84494 159.10492 83.09189
#
# Poissons Ratio (x) = 0.72409 -0.05944
# Poissons Ratio (y) = 0.21319 0.18303
# Poissons Ratio (z) = -0.03351 0.35048
#
# Static dielectric constant tensor:
#      x y z
#    x 1.986560 0.000000 -0.498240 
#    y 0.000000 3.522110 0.000000 
#    z -0.498240 0.000000 0.449150 
# 
# From -- ./inp_files/307089.got.cif
#   From: 2010.05.17/outbox.cif.g08.bks.cpg/sg15_154_cif.got.tgz:307089.got - 2010.06.03 18:47:42.
