data_PCOD9260587
_publ_section_title
;
Structure prediction by ZEFSAII (Michael W. Deem and Ramdas Pophale) SiO2 
 PCOD9260587
Probable space group: C 2/C
;
_chemical_formula_sum "Si O2"
_cell_formula_units_Z 40
_cell_length_a 21.105981
_cell_length_b 14.962086
_cell_length_c 14.816250
_cell_angle_alpha 90.000000
_cell_angle_beta 19.572202
_cell_angle_gamma 90.000000
_cell_volume 1567.377586
_symmetry_space_group_name_H-M "C 2/C"
_symmetry_group_IT_number 15
_symmetry_cell_setting 'monoclinic'
loop_
_space_group_symop_operation_xyz
x,y,z
-x,y,1/2-z
-x,-y,-z
x,-y,1/2+z
1/2+x,1/2+y,z
1/2-x,1/2+y,1/2-z
1/2-x,1/2-y,-z
1/2+x,1/2-y,1/2+z
loop_
_atom_site_type_symbol
_atom_site_label
_atom_site_fract_x
_atom_site_fract_y
_atom_site_fract_z
Si Si1 0.067891 0.416473 0.537916
Si Si2 0.603325 0.318565 0.737684
Si Si3 0.127203 0.016784 0.737833
Si Si4 0.248744 0.064840 0.337732
Si Si5 0.224196 0.762354 0.763139
O O1 0.180216 0.445223 0.477339
O O2 0.173873 0.476959 0.318364
O O3 0.109667 0.311089 0.472340
O O4 0.850261 0.432004 0.798781
O O5 0.750000 0.250000 0.500000
O O6 0.659746 0.420368 0.648337
O O7 0.601704 0.304372 0.847991
O O8 0.394037 0.293110 0.988981
O O9 0.976439 0.067111 0.876657
O O10 0.000000 0.000000 0.000000
O O11 0.312045 0.155447 0.200987
#
# Coordination Sequence:
#
# PCOD9260587 Si02
#       5
#     8   8   8   8   8
#     4  10  19  31  54  79 108 154 200 256 302 356
#     4  12  24  36  53  82 124 166 200 244 315 385
#     4  10  18  38  54  72 111 167 197 251 305 359
#     4  10  19  31  54  79 108 154 200 256 302 356
#     4  12  19  36  54  80 122 155 204 250 318 359
#
# _framework density 25.520333000000001
#
# number of rings (size 3 to 8) (size 9 to 14) (size 15 to 20)
#    0.000    1.200   10.000    0.600    0.000    0.000 
#    0.000    0.000    0.000    0.000    0.000    0.000 
#    0.000    9.600    0.000    0.800    0.000    0.000 
#
# Total GULP energy -111797.402882 kJ/mol
# GULP energy per Si atom -5589.870144 kJ/mol
# Density = 2.546225 g / cm^3
# Si number density = 25.520333 Si / 1000 Ang^3
#
#
#
# Elastic Constant Matrix: (Units=GPa)
#
#
# Indices 1 2 3 4 5 6 
#
# 1 175.6456 7.6825 22.4700 -0.0010 -34.9940 -0.0003
# 2 7.6825 143.7647 4.4578 -0.0025 2.4021 0.0003
# 3 22.4700 4.4578 121.4832 -0.0044 -47.7908 0.0008
# 4 -0.0010 -0.0025 -0.0044 39.2838 0.0010 -5.3198
# 5 -34.9940 2.4021 -47.7908 0.0010 40.5675 0.0005
# 6 -0.0003 0.0003 0.0008 -5.3198 0.0005 36.7652
#
#
#
# Elastic Compliance Matrix: (Units=1/GPa)
#
#
# Indices 1 2 3 4 5 6 
#
# 1 0.007190 -0.000597 0.002136 0.000000 0.008753 0.000000
# 2 -0.000597 0.007052 -0.000960 0.000000 -0.002063 0.000000
# 3 0.002136 -0.000960 0.016063 0.000001 0.020822 0.000000
# 4 0.000000 0.000000 0.000001 0.025965 0.000001 0.003757
# 5 0.008753 -0.002063 0.020822 0.000001 0.056853 -0.000001
# 6 0.000000 0.000000 0.000000 0.003757 -0.000001 0.027743
#
#
# Mechanical properties :
#
#
# Convention : Reuss Voigt Hill
#
# Bulk Modulus (GPa) = 31.78366 56.67934 44.23150
# Shear Modulus (GPa) = 33.28973 50.40884 41.84929
#
# Velocity S-wave (km/s) = 3.61562 4.44919 4.05389
# Velocity P-wave (km/s) = 5.46915 6.97506 6.26750
#
# Compressibility (1/GPa) = 0.03146271
#
# Stress axis : x y z
#
# Youngs Moduli (GPa) = 139.07947 141.80490 62.25398
#
# Poissons Ratio (x) = 0.08462 -0.13294
# Poissons Ratio (y) = 0.08299 0.05977
# Poissons Ratio (z) = -0.29701 0.13615
#
# Static dielectric constant tensor:
#      x y z
#    x 2.104500 0.000000 0.082170 
#    y 0.000000 1.947170 0.000000 
#    z 0.082170 0.000000 2.092520 
# 
# From -- ./inp_files/66051.got.cif
#   From: 2010.05.17/outbox.cif.g08.bks.cpg/sg15_34_cif.got.tgz:66051.got - 2010.06.03 18:47:42.
