data_PCOD9260485
_publ_section_title
;
Structure prediction by ZEFSAII (Michael W. Deem and Ramdas Pophale) SiO2 
 PCOD9260485
Probable space group: C 2/C
;
_chemical_formula_sum "Si O2"
_cell_formula_units_Z 40
_cell_length_a 12.791085
_cell_length_b 20.638557
_cell_length_c 7.481780
_cell_angle_alpha 90.000000
_cell_angle_beta 125.274634
_cell_angle_gamma 90.000000
_cell_volume 1612.467985
_symmetry_space_group_name_H-M "C 2/C"
_symmetry_group_IT_number 15
_symmetry_cell_setting 'monoclinic'
loop_
_space_group_symop_operation_xyz
x,y,z
-x,y,1/2-z
-x,-y,-z
x,-y,1/2+z
1/2+x,1/2+y,z
1/2-x,1/2+y,1/2-z
1/2-x,1/2-y,-z
1/2+x,1/2-y,1/2+z
loop_
_atom_site_type_symbol
_atom_site_label
_atom_site_fract_x
_atom_site_fract_y
_atom_site_fract_z
Si Si1 0.346296 0.924878 0.605735
Si Si2 0.146146 0.706573 0.600275
Si Si3 0.761577 0.437908 0.921219
Si Si4 0.000000 0.355086 0.250000
Si Si5 0.000000 0.185228 0.750000
Si Si6 0.106298 0.839868 0.986454
O O1 0.500000 0.939589 0.750000
O O2 0.332178 0.856589 0.497675
O O3 0.283107 0.919285 0.737544
O O4 0.274872 0.985165 0.444410
O O5 0.021578 0.687781 0.595817
O O6 0.109228 0.767367 0.441894
O O7 0.271479 0.706892 0.851416
O O8 0.648844 0.403580 0.918320
O O9 0.881907 0.403739 0.134008
O O10 0.048500 0.146704 0.625344
O O11 0.000000 0.810282 0.750000
#
# Coordination Sequence:
#
# PCOD9260485 Si02
#       6
#     8   8   8   4   4   8
#     4  12  21  41  76 114 149 179 243 320 382 429
#     4  11  24  45  76 111 144 188 251 315 374 436
#     4  11  22  40  70 109 149 190 236 304 377 439
#     4  10  18  37  64 106 146 173 232 304 376 430
#     4  12  26  51  78 106 144 201 254 314 366 430
#     4  11  29  50  71 107 153 206 250 298 363 454
#
# _framework density 24.806694
#
# number of rings (size 3 to 8) (size 9 to 14) (size 15 to 20)
#    0.000    0.800    4.000    3.600    4.200    0.800 
#    3.600    4.000    0.000    0.000    0.000    0.000 
#    0.000    0.000    0.000    0.000    0.000    0.000 
#
# Total GULP energy -111938.326147 kJ/mol
# GULP energy per Si atom -5596.916307 kJ/mol
# Density = 2.475023 g / cm^3
# Si number density = 24.806694 Si / 1000 Ang^3
#
#
#
# Elastic Constant Matrix: (Units=GPa)
#
#
# Indices 1 2 3 4 5 6 
#
# 1 156.1803 75.6612 39.3451 0.0000 -37.2403 0.0000
# 2 75.6612 119.5362 28.8602 0.0000 -20.7114 0.0000
# 3 39.3451 28.8602 80.3851 0.0000 -0.4738 0.0000
# 4 0.0000 0.0000 0.0000 -249.3580 0.0000 -101.8777
# 5 -37.2403 -20.7114 -0.4738 0.0000 63.9893 0.0000
# 6 0.0000 0.0000 0.0000 -101.8777 0.0000 -14.0675
#
#
#
# Elastic Compliance Matrix: (Units=1/GPa)
#
#
# Indices 1 2 3 4 5 6 
#
# 1 0.010931 -0.005291 -0.003423 0.000000 0.004624 0.000000
# 2 -0.005291 0.012310 -0.001824 0.000000 0.000891 0.000000
# 3 -0.003423 -0.001824 0.014756 0.000000 -0.002474 0.000000
# 4 0.000000 0.000000 0.000000 0.002047 0.000000 -0.014827
# 5 0.004624 0.000891 -0.002474 0.000000 0.018589 0.000000
# 6 0.000000 0.000000 0.000000 -0.014827 0.000000 0.036290
#
#
# Mechanical properties :
#
#
# Convention : Reuss Voigt Hill
#
# Bulk Modulus (GPa) = 59.10541 71.53716 65.32128
# Shear Modulus (GPa) = 41.10460 -25.73824 7.68318
#
# Velocity S-wave (km/s) = 4.07504 -3.22460 1.76180
# Velocity P-wave (km/s) = 6.78376 3.87768 5.52520
#
# Compressibility (1/GPa) = 0.01691892
#
# Stress axis : x y z
#
# Youngs Moduli (GPa) = 91.48211 81.23658 67.76847
#
# Poissons Ratio (x) = 0.42984 0.23200
# Poissons Ratio (y) = 0.48406 0.12364
# Poissons Ratio (z) = 0.31318 0.14821
#
# Static dielectric constant tensor:
#      x y z
#    x 2.079540 0.000000 -0.010460 
#    y 0.000000 1.941550 0.000000 
#    z -0.010460 0.000000 2.148970 
# 
# From -- ./inp_files/41080.got.cif
#   From: 2010.05.17/outbox.cif.g08.bks.cpg/sg15_21_cif.got.tgz:41080.got - 2010.06.03 18:47:42.
