data_PCOD9260639
_publ_section_title
;
Structure prediction by ZEFSAII (Michael W. Deem and Ramdas Pophale) SiO2 
 PCOD9260639
Probable space group: C 2/C
;
_chemical_formula_sum "Si O2"
_cell_formula_units_Z 36
_cell_length_a 11.320631
_cell_length_b 17.004031
_cell_length_c 8.165863
_cell_angle_alpha 90.000000
_cell_angle_beta 118.326971
_cell_angle_gamma 90.000000
_cell_volume 1383.670438
_symmetry_space_group_name_H-M "C 2/C"
_symmetry_group_IT_number 15
_symmetry_cell_setting 'monoclinic'
loop_
_space_group_symop_operation_xyz
x,y,z
-x,y,1/2-z
-x,-y,-z
x,-y,1/2+z
1/2+x,1/2+y,z
1/2-x,1/2+y,1/2-z
1/2-x,1/2-y,-z
1/2+x,1/2-y,1/2+z
loop_
_atom_site_type_symbol
_atom_site_label
_atom_site_fract_x
_atom_site_fract_y
_atom_site_fract_z
Si Si1 0.902699 0.552236 0.548743
Si Si2 0.500000 0.800094 0.750000
Si Si3 0.683292 0.666919 0.286204
Si Si4 0.760987 0.903486 0.999270
Si Si5 0.348516 0.317116 0.369274
O O1 0.824607 0.620751 0.409405
O O2 0.790633 0.492506 0.545409
O O3 0.000000 0.585257 0.750000
O O4 0.000000 0.500000 0.500000
O O5 0.625883 0.851027 0.892635
O O6 0.544158 0.741996 0.635459
O O7 0.645323 0.624495 0.089993
O O8 0.618218 0.658504 0.423534
O O9 0.716839 0.759335 0.288526
O O10 0.822070 0.884136 0.217096
#
# Coordination Sequence:
#
# PCOD9260639 Si02
#       5
#     8   4   8   8   8
#     4  12  20  34  58  92 123 153 187 241 312 364
#     4  10  18  38  60  82 118 154 204 242 284 360
#     4  10  21  36  54  86 121 152 196 234 294 363
#     4  11  21  38  58  87 123 155 190 244 306 349
#     4  10  22  38  58  84 119 162 197 241 294 348
#
# _framework density 26.017755000000001
#
# number of rings (size 3 to 8) (size 9 to 14) (size 15 to 20)
#    0.000    1.333    3.333    5.333    0.000    0.000 
#    0.000   13.333    0.000    1.333    0.000    0.000 
#    0.000    0.000    0.000    0.000    0.000    0.000 
#
# Total GULP energy -100752.985932 kJ/mol
# GULP energy per Si atom -5597.388107 kJ/mol
# Density = 2.595854 g / cm^3
# Si number density = 26.017755 Si / 1000 Ang^3
#
#
#
# Elastic Constant Matrix: (Units=GPa)
#
#
# Indices 1 2 3 4 5 6 
#
# 1 78.8046 18.8310 31.7573 0.0000 -42.2026 0.0000
# 2 18.8310 81.8445 37.0766 0.0000 -0.6631 0.0000
# 3 31.7573 37.0766 186.3475 0.0000 -25.0947 0.0000
# 4 0.0000 0.0000 0.0000 48.8761 0.0000 -0.7308
# 5 -42.2026 -0.6631 -25.0947 0.0000 56.4569 0.0000
# 6 0.0000 0.0000 0.0000 -0.7308 0.0000 39.4669
#
#
#
# Elastic Compliance Matrix: (Units=1/GPa)
#
#
# Indices 1 2 3 4 5 6 
#
# 1 0.023252 -0.004896 -0.000697 0.000000 0.017014 0.000000
# 2 -0.004896 0.014524 -0.002686 0.000000 -0.004683 0.000000
# 3 -0.000697 -0.002686 0.006324 0.000000 0.002258 0.000000
# 4 0.000000 0.000000 0.000000 0.020466 0.000000 0.000379
# 5 0.017014 -0.004683 0.002258 0.000000 0.031380 0.000000
# 6 0.000000 0.000000 0.000000 0.000379 0.000000 0.025345
#
#
# Mechanical properties :
#
#
# Convention : Reuss Voigt Hill
#
# Bulk Modulus (GPa) = 36.30998 58.03627 47.17313
# Shear Modulus (GPa) = 34.00699 46.24874 40.12787
#
# Velocity S-wave (km/s) = 3.61926 4.22071 3.93151
# Velocity P-wave (km/s) = 5.60817 6.79024 6.22732
#
# Compressibility (1/GPa) = 0.02754064
#
# Stress axis : x y z
#
# Youngs Moduli (GPa) = 43.00665 68.85308 158.13670
#
# Poissons Ratio (x) = 0.33712 0.11026
# Poissons Ratio (y) = 0.21057 0.42475
# Poissons Ratio (z) = 0.02999 0.18494
#
# Static dielectric constant tensor:
#      x y z
#    x 2.206190 0.000000 -0.069270 
#    y 0.000000 1.956780 0.000000 
#    z -0.069270 0.000000 2.101820 
# 
# From -- ./inp_files/38756.got.cif
#   From: 2010.05.17/outbox.cif.g08.bks.cpg/sg15_20_cif.got.tgz:38756.got - 2010.06.03 18:47:42.
