data_PCOD9260113
_publ_section_title
;
Structure prediction by ZEFSAII (Michael W. Deem and Ramdas Pophale) SiO2 
 PCOD9260113
Probable space group: C 2/C
;
_chemical_formula_sum "Si O2"
_cell_formula_units_Z 48
_cell_length_a 10.974683
_cell_length_b 16.224383
_cell_length_c 9.725983
_cell_angle_alpha 90.000000
_cell_angle_beta 94.609588
_cell_angle_gamma 90.000000
_cell_volume 1726.182280
_symmetry_space_group_name_H-M "C 2/C"
_symmetry_group_IT_number 15
_symmetry_cell_setting 'monoclinic'
loop_
_space_group_symop_operation_xyz
x,y,z
-x,y,1/2-z
-x,-y,-z
x,-y,1/2+z
1/2+x,1/2+y,z
1/2-x,1/2+y,1/2-z
1/2-x,1/2-y,-z
1/2+x,1/2-y,1/2+z
loop_
_atom_site_type_symbol
_atom_site_label
_atom_site_fract_x
_atom_site_fract_y
_atom_site_fract_z
Si Si1 0.478783 0.332017 0.526259
Si Si2 0.138871 0.490256 0.449431
Si Si3 0.703176 0.249667 0.654730
Si Si4 0.500000 0.467552 0.750000
Si Si5 0.000000 0.408324 0.750000
Si Si6 0.677182 0.409860 0.345633
Si Si7 0.161295 0.317597 0.577594
O O1 0.564229 0.272647 0.624269
O O2 0.463383 0.412575 0.617291
O O3 0.561155 0.362877 0.405801
O O4 0.363315 0.274318 0.483548
O O5 0.240001 0.546137 0.532737
O O6 0.179564 0.396698 0.481844
O O7 0.000000 0.500000 0.500000
O O8 0.111559 0.530151 0.297768
O O9 0.750000 0.250000 0.500000
O O10 0.737071 0.159536 0.708748
O O11 0.761308 0.310296 0.773394
O O12 0.382603 0.525287 0.763256
O O13 0.028675 0.345586 0.629536
#
# Coordination Sequence:
#
# PCOD9260113 Si02
#       7
#     8   8   8   4   4   8   8
#     4  11  24  43  66  98 134 177 222 275 334 396
#     4  10  22  38  64 100 131 165 218 282 330 378
#     4  10  20  37  66  94 120 166 222 270 313 381
#     4  12  26  44  64  98 142 176 216 280 344 394
#     4  10  18  36  62  90 126 172 218 264 320 394
#     4  11  22  42  68  96 129 179 229 268 323 407
#     4  11  21  39  62  95 131 168 221 274 324 390
#
# _framework density 27.807029
#
# number of rings (size 3 to 8) (size 9 to 14) (size 15 to 20)
#    0.000    1.333    0.000    8.500    0.000    2.000 
#    0.000    6.667    0.000    0.000    0.000    0.000 
#    0.000    0.000    0.000    0.000    0.000    0.000 
#
# Total GULP energy -134346.566659 kJ/mol
# GULP energy per Si atom -5597.773611 kJ/mol
# Density = 2.774374 g / cm^3
# Si number density = 27.807029 Si / 1000 Ang^3
#
#
#
# Elastic Constant Matrix: (Units=GPa)
#
#
# Indices 1 2 3 4 5 6 
#
# 1 56.8742 17.3767 40.4824 0.0000 33.0687 0.0000
# 2 17.3767 178.1918 74.3626 0.0000 33.1851 0.0000
# 3 40.4824 74.3626 161.9979 0.0000 29.6645 0.0000
# 4 0.0000 0.0000 0.0000 59.4564 0.0000 23.6235
# 5 33.0687 33.1851 29.6645 0.0000 67.8730 0.0000
# 6 0.0000 0.0000 0.0000 23.6235 0.0000 59.1015
#
#
#
# Elastic Compliance Matrix: (Units=1/GPa)
#
#
# Indices 1 2 3 4 5 6 
#
# 1 0.028093 0.001883 -0.005663 0.000000 -0.012133 0.000000
# 2 0.001883 0.007377 -0.003292 0.000000 -0.003086 0.000000
# 3 -0.005663 -0.003292 0.009021 0.000000 0.000426 0.000000
# 4 0.000000 0.000000 0.000000 0.019994 0.000000 -0.007992
# 5 -0.012133 -0.003086 0.000426 0.000000 0.021967 0.000000
# 6 0.000000 0.000000 0.000000 -0.007992 0.000000 0.020115
#
#
# Mechanical properties :
#
#
# Convention : Reuss Voigt Hill
#
# Bulk Modulus (GPa) = 32.95167 73.50082 53.22624
# Shear Modulus (GPa) = 38.21897 54.94232 46.58064
#
# Velocity S-wave (km/s) = 3.71136 4.44987 4.09729
# Velocity P-wave (km/s) = 5.49922 7.27266 6.44721
#
# Compressibility (1/GPa) = 0.03034747
#
# Stress axis : x y z
#
# Youngs Moduli (GPa) = 35.59663 135.56382 110.85101
#
# Poissons Ratio (x) = -0.25530 0.62774
# Poissons Ratio (y) = -0.06704 0.36489
# Poissons Ratio (z) = 0.20158 0.44624
#
# Static dielectric constant tensor:
#      x y z
#    x 2.288740 0.000000 -0.089260 
#    y 0.000000 2.192830 0.000000 
#    z -0.089260 0.000000 2.191960 
# 
# From -- ./inp_files/97213.got.cif
#   From: 2010.05.17/outbox.cif.g08.bks.cpg/sg15_49_cif.got.tgz:97213.got - 2010.06.03 18:47:42.
