data_PCOD9260222
_publ_section_title
;
Structure prediction by ZEFSAII (Michael W. Deem and Ramdas Pophale) SiO2 
 PCOD9260222
Probable space group: C 2/C
;
_chemical_formula_sum "Si O2"
_cell_formula_units_Z 52
_cell_length_a 20.386889
_cell_length_b 14.529035
_cell_length_c 11.033350
_cell_angle_alpha 90.000000
_cell_angle_beta 46.501327
_cell_angle_gamma 90.000000
_cell_volume 2370.646918
_symmetry_space_group_name_H-M "C 2/C"
_symmetry_group_IT_number 15
_symmetry_cell_setting 'monoclinic'
loop_
_space_group_symop_operation_xyz
x,y,z
-x,y,1/2-z
-x,-y,-z
x,-y,1/2+z
1/2+x,1/2+y,z
1/2-x,1/2+y,1/2-z
1/2-x,1/2-y,-z
1/2+x,1/2-y,1/2+z
loop_
_atom_site_type_symbol
_atom_site_label
_atom_site_fract_x
_atom_site_fract_y
_atom_site_fract_z
Si Si1 0.206724 0.707728 0.391669
Si Si2 0.632188 0.184287 0.237481
Si Si3 0.375355 0.346182 0.827589
Si Si4 0.522365 0.038224 0.100590
Si Si5 0.984387 0.828171 0.445957
Si Si6 0.165515 0.681566 0.940013
Si Si7 0.000000 0.003769 0.750000
O O1 0.167811 0.654933 0.324145
O O2 0.277592 0.650856 0.383848
O O3 0.135353 0.759663 0.567992
O O4 0.263345 0.788293 0.251060
O O5 0.551117 0.119532 0.296714
O O6 0.583066 0.282282 0.316902
O O7 0.697439 0.177866 0.038565
O O8 0.447785 0.329528 0.629013
O O9 0.412934 0.437440 0.844290
O O10 0.500000 0.979865 0.250000
O O11 0.620200 0.084169 0.970037
O O12 0.500000 0.000000 0.000000
O O13 0.911711 0.761885 0.469858
O O14 0.986958 0.927312 0.379907
#
# Coordination Sequence:
#
# PCOD9260222 Si02
#       7
#     8   8   8   8   8   8   4
#     4  10  21  39  57  83 129 156 199 235 307 386
#     4  10  18  36  65  87 112 159 199 248 305 360
#     4  10  23  37  55  88 123 161 192 247 306 363
#     4   9  19  38  59  88 115 149 209 259 295 351
#     4  10  19  37  63  91 116 149 210 256 299 362
#     4   9  18  37  64  85 114 157 203 246 300 368
#     4  12  20  38  64  90 124 150 212 262 300 356
#
# _framework density 21.934940999999998
#
# number of rings (size 3 to 8) (size 9 to 14) (size 15 to 20)
#    0.000    2.154    1.538    2.769    0.000    0.000 
#   11.077    4.615    3.385    0.000    0.000    0.000 
#    0.000    0.000    0.000    0.000    0.000    0.000 
#
# Total GULP energy -144925.813504 kJ/mol
# GULP energy per Si atom -5574.069750 kJ/mol
# Density = 2.188502 g / cm^3
# Si number density = 21.934941 Si / 1000 Ang^3
#
#
#
# Elastic Constant Matrix: (Units=GPa)
#
#
# Indices 1 2 3 4 5 6 
#
# 1 95.0667 18.4864 25.2331 0.0000 25.3873 0.0000
# 2 18.4864 50.1589 29.2359 0.0000 8.5993 0.0000
# 3 25.2331 29.2359 102.6465 0.0000 19.9669 0.0000
# 4 0.0000 0.0000 0.0000 7.3998 0.0000 13.1897
# 5 25.3873 8.5993 19.9669 0.0000 27.2707 0.0000
# 6 0.0000 0.0000 0.0000 13.1897 0.0000 32.4052
#
#
#
# Elastic Compliance Matrix: (Units=1/GPa)
#
#
# Indices 1 2 3 4 5 6 
#
# 1 0.014475 -0.003054 -0.000297 0.000000 -0.012295 0.000000
# 2 -0.003054 0.024759 -0.006222 0.000000 -0.000409 0.000000
# 3 -0.000297 -0.006222 0.013004 0.000000 -0.007283 0.000000
# 4 0.000000 0.000000 0.000000 0.492315 0.000000 -0.200385
# 5 -0.012295 -0.000409 -0.007283 0.000000 0.053576 0.000000
# 6 0.000000 0.000000 0.000000 -0.200385 0.000000 0.112421
#
#
# Mechanical properties :
#
#
# Convention : Reuss Voigt Hill
#
# Bulk Modulus (GPa) = 30.21815 43.75367 36.98591
# Shear Modulus (GPa) = 6.75014 25.07624 15.91319
#
# Velocity S-wave (km/s) = 1.75614 3.38481 2.69638
# Velocity P-wave (km/s) = 4.23299 5.93854 5.15676
#
# Compressibility (1/GPa) = 0.03309269
#
# Stress axis : x y z
#
# Youngs Moduli (GPa) = 69.08512 40.39001 76.90027
#
# Poissons Ratio (x) = 0.12335 0.02283
# Poissons Ratio (y) = 0.21098 0.47844
# Poissons Ratio (z) = 0.02051 0.25129
#
# Static dielectric constant tensor:
#      x y z
#    x 1.932820 0.000000 -0.056920 
#    y 0.000000 1.792760 0.000000 
#    z -0.056920 0.000000 1.605000 
# 
# From -- ./inp_files/112652.got.cif
#   From: 2010.05.17/outbox.cif.g08.bks.cpg/sg15_57_cif.got.tgz:112652.got - 2010.06.03 18:47:42.
