data_PCOD9260007
_publ_section_title
;
Structure prediction by ZEFSAII (Michael W. Deem and Ramdas Pophale) SiO2 
 PCOD9260007
Probable space group: C 2/C
;
_chemical_formula_sum "Si O2"
_cell_formula_units_Z 52
_cell_length_a 12.695681
_cell_length_b 29.649383
_cell_length_c 9.084475
_cell_angle_alpha 90.000000
_cell_angle_beta 126.900939
_cell_angle_gamma 90.000000
_cell_volume 2734.544002
_symmetry_space_group_name_H-M "C 2/C"
_symmetry_group_IT_number 15
_symmetry_cell_setting 'monoclinic'
loop_
_space_group_symop_operation_xyz
x,y,z
-x,y,1/2-z
-x,-y,-z
x,-y,1/2+z
1/2+x,1/2+y,z
1/2-x,1/2+y,1/2-z
1/2-x,1/2-y,-z
1/2+x,1/2-y,1/2+z
loop_
_atom_site_type_symbol
_atom_site_label
_atom_site_fract_x
_atom_site_fract_y
_atom_site_fract_z
Si Si1 0.638544 0.947106 0.452097
Si Si2 0.325513 0.221543 0.938420
Si Si3 0.158877 0.368271 0.887280
Si Si4 0.648412 0.033855 0.311052
Si Si5 0.108799 0.260500 0.553919
Si Si6 0.728923 0.150310 0.111240
Si Si7 0.500000 0.313985 0.750000
O O1 0.500000 0.942717 0.250000
O O2 0.636460 0.961929 0.623625
O O3 0.691328 0.896395 0.503897
O O4 0.710452 0.987165 0.421519
O O5 0.246772 0.242055 0.734669
O O6 0.250000 0.250000 0.000000
O O7 0.303236 0.168591 0.958212
O O8 0.483388 0.228578 0.055701
O O9 0.207251 0.420215 0.930806
O O10 0.202995 0.351101 0.764527
O O11 0.000000 0.370172 0.750000
O O12 0.500000 0.032554 0.250000
O O13 0.143783 0.305936 0.493849
O O14 0.057101 0.219072 0.418894
O O15 0.881500 0.157493 0.213428
#
# Coordination Sequence:
#
# PCOD9260007 Si02
#       7
#     8   8   8   8   8   8   4
#     4  10  20  35  59  88 118 151 197 247 312 365
#     4  12  21  37  61  90 117 158 202 246 303 348
#     4  10  18  36  60  89 120 148 196 251 306 353
#     4   9  18  33  54  89 124 148 184 255 306 367
#     4  12  24  39  60  83 126 160 201 251 288 362
#     4  11  23  38  60  83 117 163 192 248 294 365
#     4  12  26  44  50  86 122 162 208 236 298 358
#
# _framework density 19.015967
#
# number of rings (size 3 to 8) (size 9 to 14) (size 15 to 20)
#    0.000    1.231    4.615    2.769    1.077    0.000 
#    2.769    0.000    0.000    3.692    4.000    0.000 
#    0.000    0.000    0.000    0.000    0.000    0.000 
#
# Total GULP energy -144801.730922 kJ/mol
# GULP energy per Si atom -5569.297343 kJ/mol
# Density = 1.897269 g / cm^3
# Si number density = 19.015967 Si / 1000 Ang^3
#
#
#
# Elastic Constant Matrix: (Units=GPa)
#
#
# Indices 1 2 3 4 5 6 
#
# 1 110.4863 35.0451 18.2395 0.0000 7.3502 0.0000
# 2 35.0451 172.6735 53.8447 0.0000 6.4506 0.0000
# 3 18.2395 53.8447 46.1905 0.0000 0.6854 0.0000
# 4 0.0000 0.0000 0.0000 24.8958 0.0000 -15.0410
# 5 7.3502 6.4506 0.6854 0.0000 19.8470 0.0000
# 6 0.0000 0.0000 0.0000 -15.0410 0.0000 39.5605
#
#
#
# Elastic Compliance Matrix: (Units=1/GPa)
#
#
# Indices 1 2 3 4 5 6 
#
# 1 0.010052 -0.001092 -0.002648 0.000000 -0.003276 0.000000
# 2 -0.001092 0.009353 -0.010437 0.000000 -0.002275 0.000000
# 3 -0.002648 -0.010437 0.034815 0.000000 0.003171 0.000000
# 4 0.000000 0.000000 0.000000 0.052145 0.000000 0.019826
# 5 -0.003276 -0.002275 0.003171 0.000000 0.052229 0.000000
# 6 0.000000 0.000000 0.000000 0.019826 0.000000 0.032816
#
#
# Mechanical properties :
#
#
# Convention : Reuss Voigt Hill
#
# Bulk Modulus (GPa) = 38.66167 60.40099 49.53133
# Shear Modulus (GPa) = 21.89280 31.67540 26.78410
#
# Velocity S-wave (km/s) = 3.39674 4.08576 3.75708
# Velocity P-wave (km/s) = 5.97989 7.35460 6.70258
#
# Compressibility (1/GPa) = 0.02586541
#
# Stress axis : x y z
#
# Youngs Moduli (GPa) = 99.47900 106.92203 28.72332
#
# Poissons Ratio (x) = 0.11678 0.07605
# Poissons Ratio (y) = 0.10865 0.29980
# Poissons Ratio (z) = 0.26339 1.11599
#
# Static dielectric constant tensor:
#      x y z
#    x 1.673470 0.000000 -0.026460 
#    y 0.000000 1.745070 0.000000 
#    z -0.026460 0.000000 1.712140 
# 
# From -- ./inp_files/35373.got.cif
#   From: 2010.05.17/outbox.cif.g08.bks.cpg/sg15_18_cif.got.tgz:35373.got - 2010.06.03 18:47:42.
