data_PCOD9260844
_publ_section_title
;
Structure prediction by ZEFSAII (Michael W. Deem and Ramdas Pophale) SiO2 
 PCOD9260844
Probable space group: C 2/C
;
_chemical_formula_sum "Si O2"
_cell_formula_units_Z 36
_cell_length_a 21.761417
_cell_length_b 7.488666
_cell_length_c 9.084553
_cell_angle_alpha 90.000000
_cell_angle_beta 124.281953
_cell_angle_gamma 90.000000
_cell_volume 1223.264025
_symmetry_space_group_name_H-M "C 2/C"
_symmetry_group_IT_number 15
_symmetry_cell_setting 'monoclinic'
loop_
_space_group_symop_operation_xyz
x,y,z
-x,y,1/2-z
-x,-y,-z
x,-y,1/2+z
1/2+x,1/2+y,z
1/2-x,1/2+y,1/2-z
1/2-x,1/2-y,-z
1/2+x,1/2-y,1/2+z
loop_
_atom_site_type_symbol
_atom_site_label
_atom_site_fract_x
_atom_site_fract_y
_atom_site_fract_z
Si Si1 0.485736 0.761773 0.470603
Si Si2 0.877291 0.094944 0.127311
Si Si3 0.671231 0.113959 0.727314
Si Si4 0.179363 0.805712 0.248368
Si Si5 0.000000 0.573661 0.250000
O O1 0.453947 0.605881 0.323685
O O2 0.406903 0.820265 0.448547
O O3 0.536454 0.782378 0.682346
O O4 0.507658 0.914466 0.384894
O O5 0.835024 0.274991 0.129210
O O6 0.829008 0.931160 0.121507
O O7 0.878575 0.118394 0.954342
O O8 0.740771 0.160926 0.720907
O O9 0.672051 0.904689 0.756283
#
# Coordination Sequence:
#
# PCOD9260844 Si02
#       5
#     8   8   8   8   4
#     4   9  21  36  62  91 117 155 214 240 320 344
#     4  10  25  38  60  95 123 167 200 248 302 372
#     4  10  22  37  62  94 123 167 195 251 296 379
#     4  12  22  40  63  92 137 155 205 242 308 370
#     4  10  18  38  66  86 114 162 200 272 292 364
#
# _framework density 29.429459000000001
#
# number of rings (size 3 to 8) (size 9 to 14) (size 15 to 20)
#    1.333    0.444    2.222    2.000    0.000    4.444 
#    0.000    0.000    0.000   22.667    0.000    0.000 
#    0.000    0.000    0.000    0.000    0.000    0.000 
#
# Total GULP energy -100433.180901 kJ/mol
# GULP energy per Si atom -5579.621161 kJ/mol
# Density = 2.936248 g / cm^3
# Si number density = 29.429459 Si / 1000 Ang^3
#
#
#
# Elastic Constant Matrix: (Units=GPa)
#
#
# Indices 1 2 3 4 5 6 
#
# 1 63.4327 17.6934 20.9160 0.0000 20.5351 0.0000
# 2 17.6934 182.7315 25.8212 0.0000 -32.6471 0.0000
# 3 20.9160 25.8212 184.5299 0.0000 -41.4600 0.0000
# 4 0.0000 0.0000 0.0000 281.6192 0.0000 -100.4707
# 5 20.5351 -32.6471 -41.4600 0.0000 66.3964 0.0000
# 6 0.0000 0.0000 0.0000 -100.4707 0.0000 84.4347
#
#
#
# Elastic Compliance Matrix: (Units=1/GPa)
#
#
# Indices 1 2 3 4 5 6 
#
# 1 0.021908 -0.003505 -0.004539 0.000000 -0.011333 0.000000
# 2 -0.003505 0.006567 0.000520 0.000000 0.004638 0.000000
# 3 -0.004539 0.000520 0.007251 0.000000 0.006188 0.000000
# 4 0.000000 0.000000 0.000000 0.006170 0.000000 0.007342
# 5 -0.011333 0.004638 0.006188 0.000000 0.024710 0.000000
# 6 0.000000 0.000000 0.000000 0.007342 0.000000 0.020580
#
#
# Mechanical properties :
#
#
# Convention : Reuss Voigt Hill
#
# Bulk Modulus (GPa) = 48.35834 62.17280 55.26557
# Shear Modulus (GPa) = 45.81826 110.90762 78.36294
#
# Velocity S-wave (km/s) = 3.95002 6.14555 5.16577
# Velocity P-wave (km/s) = 6.10501 8.45747 7.37564
#
# Compressibility (1/GPa) = 0.02067896
#
# Stress axis : x y z
#
# Youngs Moduli (GPa) = 45.64542 152.27816 137.91042
#
# Poissons Ratio (x) = 0.53369 0.62600
# Poissons Ratio (y) = 0.15997 -0.07176
# Poissons Ratio (z) = 0.20719 -0.07924
#
# Static dielectric constant tensor:
#      x y z
#    x 2.158680 0.000000 -0.701970 
#    y 0.000000 2.289340 0.000000 
#    z -0.701970 0.000000 -0.305010 
# 
# From -- ./inp_files/64611.got.cif
#   From: 2010.05.17/outbox.cif.g08.bks.cpg/sg15_33_cif.got.tgz:64611.got - 2010.06.03 18:47:42.
