data_PCOD9260818
_publ_section_title
;
Structure prediction by ZEFSAII (Michael W. Deem and Ramdas Pophale) SiO2 
 PCOD9260818
Probable space group: C 2/C
;
_chemical_formula_sum "Si O2"
_cell_formula_units_Z 56
_cell_length_a 12.295811
_cell_length_b 17.512082
_cell_length_c 13.377034
_cell_angle_alpha 90.000000
_cell_angle_beta 106.681936
_cell_angle_gamma 90.000000
_cell_volume 2759.185377
_symmetry_space_group_name_H-M "C 2/C"
_symmetry_group_IT_number 15
_symmetry_cell_setting 'monoclinic'
loop_
_space_group_symop_operation_xyz
x,y,z
-x,y,1/2-z
-x,-y,-z
x,-y,1/2+z
1/2+x,1/2+y,z
1/2-x,1/2+y,1/2-z
1/2-x,1/2-y,-z
1/2+x,1/2-y,1/2+z
loop_
_atom_site_type_symbol
_atom_site_label
_atom_site_fract_x
_atom_site_fract_y
_atom_site_fract_z
Si Si1 0.110129 0.734012 0.580938
Si Si2 0.528035 0.015015 0.147497
Si Si3 0.709201 0.677577 0.422934
Si Si4 0.571012 0.188293 0.127661
Si Si5 0.500000 0.321850 0.250000
Si Si6 0.682735 0.364056 0.454772
Si Si7 0.000000 0.769398 0.750000
Si Si8 0.803926 0.482302 0.973518
O O1 0.214562 0.682356 0.571024
O O2 0.141858 0.816964 0.541762
O O3 0.997696 0.708221 0.491087
O O4 0.081900 0.727937 0.690876
O O5 0.500000 0.986572 0.250000
O O6 0.517341 0.107680 0.146037
O O7 0.651397 0.001923 0.129132
O O8 0.426665 0.977920 0.057520
O O9 0.750000 0.750000 0.500000
O O10 0.797292 0.675704 0.354956
O O11 0.583765 0.685526 0.346545
O O12 0.735278 0.595008 0.476307
O O13 0.563805 0.260979 0.196537
O O14 0.582512 0.367150 0.345901
O O15 0.732402 0.446356 0.492139
#
# Coordination Sequence:
#
# PCOD9260818 Si02
#       8
#     8   8   8   8   4   8   4   8
#     4  10  21  38  68  91 127 164 220 260 319 383
#     4  10  20  38  65  93 126 163 204 269 334 366
#     4  11  24  43  62  89 129 166 216 266 320 386
#     4  10  18  38  64  95 125 160 211 271 308 381
#     4  10  20  33  64  93 124 166 214 252 305 394
#     4  10  21  40  61  94 127 168 210 263 317 389
#     4  12  24  41  68  93 126 184 208 264 331 386
#     4  10  23  41  59  92 132 162 212 270 315 385
#
# _framework density 20.295846999999998
#
# number of rings (size 3 to 8) (size 9 to 14) (size 15 to 20)
#    0.000    1.714    3.571    0.857    0.000    2.857 
#    7.714    0.714    0.000    0.000    0.000    0.000 
#    0.000    0.000    0.000    0.000    0.000    0.000 
#
# Total GULP energy -155980.287283 kJ/mol
# GULP energy per Si atom -5570.724546 kJ/mol
# Density = 2.024965 g / cm^3
# Si number density = 20.295847 Si / 1000 Ang^3
#
#
#
# Elastic Constant Matrix: (Units=GPa)
#
#
# Indices 1 2 3 4 5 6 
#
# 1 59.4942 14.5522 11.7706 0.0000 -0.6849 0.0000
# 2 14.5522 84.4642 10.0876 0.0000 7.1496 0.0000
# 3 11.7706 10.0876 43.9278 0.0000 -9.4582 0.0000
# 4 0.0000 0.0000 0.0000 191.0948 0.0000 -49.9038
# 5 -0.6849 7.1496 -9.4582 0.0000 39.8221 0.0000
# 6 0.0000 0.0000 0.0000 -49.9038 0.0000 39.5909
#
#
#
# Elastic Compliance Matrix: (Units=1/GPa)
#
#
# Indices 1 2 3 4 5 6 
#
# 1 0.018307 -0.002612 -0.004360 0.000000 -0.000252 0.000000
# 2 -0.002612 0.012896 -0.002919 0.000000 -0.003054 0.000000
# 3 -0.004360 -0.002919 0.026031 0.000000 0.006632 0.000000
# 4 0.000000 0.000000 0.000000 0.007801 0.000000 0.009833
# 5 -0.000252 -0.003054 0.006632 0.000000 0.027231 0.000000
# 6 0.000000 0.000000 0.000000 0.009833 0.000000 0.037652
#
#
# Mechanical properties :
#
#
# Convention : Reuss Voigt Hill
#
# Bulk Modulus (GPa) = 26.70045 28.96746 27.83396
# Shear Modulus (GPa) = 30.82905 64.19994 47.51450
#
# Velocity S-wave (km/s) = 3.90164 5.63034 4.84374
# Velocity P-wave (km/s) = 5.78630 7.52138 6.71016
#
# Compressibility (1/GPa) = 0.03745255
#
# Stress axis : x y z
#
# Youngs Moduli (GPa) = 54.62414 77.54046 38.41563
#
# Poissons Ratio (x) = 0.20254 0.16748
# Poissons Ratio (y) = 0.14268 0.11214
# Poissons Ratio (z) = 0.23815 0.22635
#
# Static dielectric constant tensor:
#      x y z
#    x 1.915450 0.000000 -0.210750 
#    y 0.000000 1.750560 0.000000 
#    z -0.210750 0.000000 1.984260 
# 
# From -- ./inp_files/146191.got.cif
#   From: 2010.05.17/outbox.cif.g08.bks.cpg/sg15_74_cif.got.tgz:146191.got - 2010.06.03 18:47:42.
