data_PCOD9260657
_publ_section_title
;
Structure prediction by ZEFSAII (Michael W. Deem and Ramdas Pophale) SiO2 
 PCOD9260657
Probable space group: C 2/C
;
_chemical_formula_sum "Si O2"
_cell_formula_units_Z 44
_cell_length_a 13.427129
_cell_length_b 12.040228
_cell_length_c 24.384173
_cell_angle_alpha 90.000000
_cell_angle_beta 145.663609
_cell_angle_gamma 90.000000
_cell_volume 2223.535095
_symmetry_space_group_name_H-M "C 2/C"
_symmetry_group_IT_number 15
_symmetry_cell_setting 'monoclinic'
loop_
_space_group_symop_operation_xyz
x,y,z
-x,y,1/2-z
-x,-y,-z
x,-y,1/2+z
1/2+x,1/2+y,z
1/2-x,1/2+y,1/2-z
1/2-x,1/2-y,-z
1/2+x,1/2-y,1/2+z
loop_
_atom_site_type_symbol
_atom_site_label
_atom_site_fract_x
_atom_site_fract_y
_atom_site_fract_z
Si Si1 0.775757 0.411946 0.055350
Si Si2 0.966925 0.721088 0.545012
Si Si3 0.339363 0.866211 0.527573
Si Si4 0.500000 0.194395 0.750000
Si Si5 0.202234 0.106043 0.842825
Si Si6 0.213917 0.641735 0.151277
O O1 0.885792 0.351157 0.057146
O O2 0.778754 0.540752 0.042875
O O3 0.874561 0.380903 0.156086
O O4 0.588002 0.348727 0.971261
O O5 0.869725 0.678301 0.445439
O O6 0.170506 0.692816 0.629544
O O7 0.250000 0.750000 0.500000
O O8 0.272315 0.904171 0.436969
O O9 0.551425 0.853380 0.619637
O O10 0.620634 0.275587 0.767023
O O11 0.000000 0.140316 0.750000
O O12 0.222625 0.984937 0.824720
#
# Coordination Sequence:
#
# PCOD9260657 Si02
#       6
#     8   8   8   4   8   8
#     4  10  19  37  63  87 121 158 201 239 303 358
#     4   9  18  34  62  86 114 156 198 246 295 351
#     4  11  23  41  60  86 127 162 193 251 310 352
#     4  10  22  34  62  94 118 158 198 256 294 364
#     4  11  20  36  63  92 116 151 209 250 288 354
#     4  10  18  38  60  88 117 152 205 245 293 354
#
# _framework density 19.788309000000002
#
# number of rings (size 3 to 8) (size 9 to 14) (size 15 to 20)
#    0.000    1.818    4.545    1.091    0.000    1.455 
#    1.636    8.182    0.000    0.000    0.000    0.000 
#    0.000    0.000    0.000    0.000    0.000    0.000 
#
# Total GULP energy -122849.012160 kJ/mol
# GULP energy per Si atom -5584.046007 kJ/mol
# Density = 1.974327 g / cm^3
# Si number density = 19.788309 Si / 1000 Ang^3
#
#
#
# Elastic Constant Matrix: (Units=GPa)
#
#
# Indices 1 2 3 4 5 6 
#
# 1 70.5393 58.4590 24.7435 0.0000 31.4289 0.0000
# 2 58.4590 162.5564 37.5196 0.0000 21.3179 0.0000
# 3 24.7435 37.5196 49.3772 0.0000 31.3265 0.0000
# 4 0.0000 0.0000 0.0000 14.0120 0.0000 6.0045
# 5 31.4289 21.3179 31.3265 0.0000 38.6926 0.0000
# 6 0.0000 0.0000 0.0000 6.0045 0.0000 30.2509
#
#
#
# Elastic Compliance Matrix: (Units=1/GPa)
#
#
# Indices 1 2 3 4 5 6 
#
# 1 0.031285 -0.009765 0.009153 0.000000 -0.027443 0.000000
# 2 -0.009765 0.010526 -0.009166 0.000000 0.009553 0.000000
# 3 0.009153 -0.009166 0.049642 0.000000 -0.042576 0.000000
# 4 0.000000 0.000000 0.000000 0.078002 0.000000 -0.015483
# 5 -0.027443 0.009553 -0.042576 0.000000 0.077343 0.000000
# 6 0.000000 0.000000 0.000000 -0.015483 0.000000 0.036130
#
#
# Mechanical properties :
#
#
# Convention : Reuss Voigt Hill
#
# Bulk Modulus (GPa) = 13.90857 58.21301 36.06079
# Shear Modulus (GPa) = 15.31625 27.37447 21.34536
#
# Velocity S-wave (km/s) = 2.78511 3.72340 3.28790
# Velocity P-wave (km/s) = 4.16970 6.92580 5.71634
#
# Compressibility (1/GPa) = 0.07189812
#
# Stress axis : x y z
#
# Youngs Moduli (GPa) = 31.96377 95.00223 20.14416
#
# Poissons Ratio (x) = 0.92766 -0.18438
# Poissons Ratio (y) = 0.31211 0.18464
# Poissons Ratio (z) = -0.29256 0.87078
#
# Static dielectric constant tensor:
#      x y z
#    x 1.699460 0.000000 0.005320 
#    y 0.000000 1.676520 0.000000 
#    z 0.005320 0.000000 1.711360 
# 
# From -- ./inp_files/142274.got.cif
#   From: 2010.05.17/outbox.cif.g08.bks.cpg/sg15_72_cif.got.tgz:142274.got - 2010.06.03 18:47:42.
