data_PCOD9260941
_publ_section_title
;
Structure prediction by ZEFSAII (Michael W. Deem and Ramdas Pophale) SiO2 
 PCOD9260941
Probable space group: C 2/C
;
_chemical_formula_sum "Si O2"
_cell_formula_units_Z 56
_cell_length_a 20.243490
_cell_length_b 8.730774
_cell_length_c 14.943672
_cell_angle_alpha 90.000000
_cell_angle_beta 89.243121
_cell_angle_gamma 90.000000
_cell_volume 2640.934112
_symmetry_space_group_name_H-M "C 2/C"
_symmetry_group_IT_number 15
_symmetry_cell_setting 'monoclinic'
loop_
_space_group_symop_operation_xyz
x,y,z
-x,y,1/2-z
-x,-y,-z
x,-y,1/2+z
1/2+x,1/2+y,z
1/2-x,1/2+y,1/2-z
1/2-x,1/2-y,-z
1/2+x,1/2-y,1/2+z
loop_
_atom_site_type_symbol
_atom_site_label
_atom_site_fract_x
_atom_site_fract_y
_atom_site_fract_z
Si Si1 0.504517 0.436946 0.897755
Si Si2 0.193233 0.514829 0.645748
Si Si3 0.237611 0.176629 0.712651
Si Si4 0.594304 0.435804 0.249062
Si Si5 0.444688 0.113299 0.307905
Si Si6 0.698434 0.881149 0.467297
Si Si7 0.041378 0.655003 0.995394
O O1 0.445635 0.483622 0.831447
O O2 0.570248 0.488314 0.841947
O O3 0.500000 0.500000 0.000000
O O4 0.509095 0.258344 0.920031
O O5 0.221625 0.351400 0.684218
O O6 0.223589 0.657243 0.696100
O O7 0.115698 0.495066 0.665771
O O8 0.207261 0.514538 0.539963
O O9 0.281749 0.098121 0.635034
O O10 0.171038 0.077768 0.725283
O O11 0.575085 0.256061 0.254280
O O12 0.500000 0.028723 0.250000
O O13 0.464243 0.199264 0.399736
O O14 0.750000 0.750000 0.500000
O O15 0.620331 0.844284 0.475738
O O16 0.000000 0.500000 0.000000
#
# Coordination Sequence:
#
# PCOD9260941 Si02
#       7
#     8   8   8   8   8   8   8
#     4  11  21  39  66  87 124 161 207 260 306 373
#     4   9  21  37  60  85 115 163 200 249 308 372
#     4  10  21  39  61  87 120 155 206 255 307 364
#     4  10  21  37  63  96 111 157 219 252 300 371
#     4  10  18  39  60  84 123 158 203 251 313 371
#     4   9  21  41  63  84 126 171 209 238 318 391
#     4  11  24  40  62  96 125 167 207 257 327 381
#
# _framework density 21.204618
#
# number of rings (size 3 to 8) (size 9 to 14) (size 15 to 20)
#    0.000    2.000    2.857    0.857    6.000    0.000 
#    7.714    0.714    0.000    0.000    0.000    0.000 
#    0.000    0.000    0.000    0.000    0.000    0.000 
#
# Total GULP energy -155985.047300 kJ/mol
# GULP energy per Si atom -5570.894546 kJ/mol
# Density = 2.115636 g / cm^3
# Si number density = 21.204618 Si / 1000 Ang^3
#
#
#
# Elastic Constant Matrix: (Units=GPa)
#
#
# Indices 1 2 3 4 5 6 
#
# 1 83.1361 9.8853 20.1810 0.0000 -20.1330 0.0000
# 2 9.8853 37.5553 0.0111 0.0000 -2.6705 0.0000
# 3 20.1810 0.0111 89.2530 0.0000 -25.0493 0.0000
# 4 0.0000 0.0000 0.0000 34.2606 0.0000 5.2908
# 5 -20.1330 -2.6705 -25.0493 0.0000 40.6046 0.0000
# 6 0.0000 0.0000 0.0000 5.2908 0.0000 14.1273
#
#
#
# Elastic Compliance Matrix: (Units=1/GPa)
#
#
# Indices 1 2 3 4 5 6 
#
# 1 0.014226 -0.003327 -0.001570 0.000000 0.005866 0.000000
# 2 -0.003327 0.027557 0.000961 0.000000 0.000756 0.000000
# 3 -0.001570 0.000961 0.013737 0.000000 0.007759 0.000000
# 4 0.000000 0.000000 0.000000 0.030980 0.000000 -0.011602
# 5 0.005866 0.000756 0.007759 0.000000 0.032373 0.000000
# 6 0.000000 0.000000 0.000000 -0.011602 0.000000 0.075130
#
#
# Mechanical properties :
#
#
# Convention : Reuss Voigt Hill
#
# Bulk Modulus (GPa) = 20.98755 30.01103 25.49929
# Shear Modulus (GPa) = 22.96151 29.78963 26.37557
#
# Velocity S-wave (km/s) = 3.29424 3.75222 3.53067
# Velocity P-wave (km/s) = 4.93847 5.74073 5.35465
#
# Compressibility (1/GPa) = 0.04764729
#
# Stress axis : x y z
#
# Youngs Moduli (GPa) = 70.29497 36.28900 72.79854
#
# Poissons Ratio (x) = 0.12073 0.11428
# Poissons Ratio (y) = 0.23386 -0.06995
# Poissons Ratio (z) = 0.11035 -0.03487
#
# Static dielectric constant tensor:
#      x y z
#    x 1.754090 0.000000 -0.007580 
#    y 0.000000 1.807490 0.000000 
#    z -0.007580 0.000000 1.777920 
# 
# From -- ./inp_files/166650.got.cif
#   From: 2010.05.17/outbox.cif.g08.bks.cpg/sg15_84_cif.got.tgz:166650.got - 2010.06.03 18:47:42.
