data_PCOD9260570
_publ_section_title
;
Structure prediction by ZEFSAII (Michael W. Deem and Ramdas Pophale) SiO2 
 PCOD9260570
Probable space group: C 2/C
;
_chemical_formula_sum "Si O2"
_cell_formula_units_Z 64
_cell_length_a 15.462637
_cell_length_b 12.194177
_cell_length_c 22.771444
_cell_angle_alpha 90.000000
_cell_angle_beta 136.670746
_cell_angle_gamma 90.000000
_cell_volume 2946.258954
_symmetry_space_group_name_H-M "C 2/C"
_symmetry_group_IT_number 15
_symmetry_cell_setting 'monoclinic'
loop_
_space_group_symop_operation_xyz
x,y,z
-x,y,1/2-z
-x,-y,-z
x,-y,1/2+z
1/2+x,1/2+y,z
1/2-x,1/2+y,1/2-z
1/2-x,1/2-y,-z
1/2+x,1/2-y,1/2+z
loop_
_atom_site_type_symbol
_atom_site_label
_atom_site_fract_x
_atom_site_fract_y
_atom_site_fract_z
Si Si1 0.752925 0.110733 0.588924
Si Si2 0.127330 0.669888 0.200468
Si Si3 0.622656 0.044372 0.399410
Si Si4 0.113861 0.696107 0.941099
Si Si5 0.147782 0.152302 0.048652
Si Si6 0.882716 0.581060 0.433840
Si Si7 0.082315 0.882550 0.640541
Si Si8 0.998543 0.115176 0.854808
O O1 0.683341 0.082895 0.492130
O O2 0.691774 0.222578 0.581708
O O3 0.897924 0.126560 0.644610
O O4 0.733193 0.004086 0.619230
O O5 0.111045 0.645336 0.123268
O O6 0.268049 0.633232 0.283041
O O7 0.011709 0.604318 0.173478
O O8 0.111248 0.797369 0.207523
O O9 0.726165 0.080966 0.402661
O O10 0.604120 0.914011 0.397207
O O11 0.000740 0.781820 0.876349
O O12 0.250000 0.750000 0.000000
O O13 0.113231 0.659172 0.008506
O O14 0.063689 0.110511 0.060961
O O15 0.069792 0.150603 0.949967
O O16 0.000000 0.500000 0.500000
O O17 0.042808 0.991571 0.654804
#
# Coordination Sequence:
#
# PCOD9260570 Si02
#       8
#     8   8   8   8   8   8   8   8
#     4  10  18  37  69  95 112 159 224 262 286 357
#     4  12  24  41  61  96 130 164 205 265 322 362
#     4  10  20  38  66  91 128 160 205 265 313 360
#     4  11  23  43  67  95 123 165 215 259 309 383
#     4  11  20  40  66  96 118 166 217 253 304 373
#     4  11  20  38  71  91 120 168 218 255 301 371
#     4  12  28  38  63  95 132 163 206 260 321 376
#     4  11  22  43  63  89 127 162 207 261 307 373
#
# _framework density 21.722463000000001
#
# number of rings (size 3 to 8) (size 9 to 14) (size 15 to 20)
#    0.000    1.000    5.000    4.875    1.750    1.500 
#    0.000    3.750    2.750    0.000    0.000    0.000 
#    0.000    0.000    0.000    0.000    0.000    0.000 
#
# Total GULP energy -179025.911302 kJ/mol
# GULP energy per Si atom -5594.559728 kJ/mol
# Density = 2.167302 g / cm^3
# Si number density = 21.722463 Si / 1000 Ang^3
#
#
#
# Elastic Constant Matrix: (Units=GPa)
#
#
# Indices 1 2 3 4 5 6 
#
# 1 35.8391 8.7834 6.3291 0.0000 11.2833 0.0000
# 2 8.7834 139.0680 18.9299 0.0000 10.6264 0.0000
# 3 6.3291 18.9299 50.3988 0.0000 16.0979 0.0000
# 4 0.0000 0.0000 0.0000 15.4874 0.0000 14.6413
# 5 11.2833 10.6264 16.0979 0.0000 22.2214 0.0000
# 6 0.0000 0.0000 0.0000 14.6413 0.0000 46.4952
#
#
#
# Elastic Compliance Matrix: (Units=1/GPa)
#
#
# Indices 1 2 3 4 5 6 
#
# 1 0.033440 -0.001003 0.001884 0.000000 -0.017864 0.000000
# 2 -0.001003 0.007679 -0.002274 0.000000 -0.001515 0.000000
# 3 0.001884 -0.002274 0.026564 0.000000 -0.019113 0.000000
# 4 0.000000 0.000000 0.000000 0.091938 0.000000 -0.028951
# 5 -0.017864 -0.001515 -0.019113 0.000000 0.068643 0.000000
# 6 0.000000 0.000000 0.000000 -0.028951 0.000000 0.030624
#
#
# Mechanical properties :
#
#
# Convention : Reuss Voigt Hill
#
# Bulk Modulus (GPa) = 15.40944 32.59896 24.00420
# Shear Modulus (GPa) = 17.64850 29.59171 23.62011
#
# Velocity S-wave (km/s) = 2.85345 3.69489 3.30109
# Velocity P-wave (km/s) = 4.23856 5.76564 5.06004
#
# Compressibility (1/GPa) = 0.06489530
#
# Stress axis : x y z
#
# Youngs Moduli (GPa) = 29.90428 130.21722 37.64448
#
# Poissons Ratio (x) = 0.13066 -0.07091
# Poissons Ratio (y) = 0.03001 0.08562
# Poissons Ratio (z) = -0.05633 0.29617
#
# Static dielectric constant tensor:
#      x y z
#    x 1.797560 0.000000 -0.005720 
#    y 0.000000 1.774980 0.000000 
#    z -0.005720 0.000000 1.849760 
# 
# From -- ./inp_files/296151.got.cif
#   From: 2010.05.17/outbox.cif.g08.bks.cpg/sg15_149_cif.got.tgz:296151.got - 2010.06.03 18:47:42.
