data_PCOD9260240
_publ_section_title
;
Structure prediction by ZEFSAII (Michael W. Deem and Ramdas Pophale) SiO2 
 PCOD9260240
Probable space group: C 2/C
;
_chemical_formula_sum "Si O2"
_cell_formula_units_Z 56
_cell_length_a 19.096823
_cell_length_b 16.126948
_cell_length_c 9.213800
_cell_angle_alpha 90.000000
_cell_angle_beta 68.348689
_cell_angle_gamma 90.000000
_cell_volume 2637.402770
_symmetry_space_group_name_H-M "C 2/C"
_symmetry_group_IT_number 15
_symmetry_cell_setting 'monoclinic'
loop_
_space_group_symop_operation_xyz
x,y,z
-x,y,1/2-z
-x,-y,-z
x,-y,1/2+z
1/2+x,1/2+y,z
1/2-x,1/2+y,1/2-z
1/2-x,1/2-y,-z
1/2+x,1/2-y,1/2+z
loop_
_atom_site_type_symbol
_atom_site_label
_atom_site_fract_x
_atom_site_fract_y
_atom_site_fract_z
Si Si1 0.563762 0.856872 0.592774
Si Si2 0.192056 0.864093 0.950966
Si Si3 0.599297 0.782968 0.969460
Si Si4 0.532546 0.677080 0.582478
Si Si5 0.339717 0.066410 0.281558
Si Si6 0.235435 0.194363 0.727673
Si Si7 0.613545 0.121337 0.755722
O O1 0.500000 0.890018 0.750000
O O2 0.571317 0.760140 0.620092
O O3 0.641753 0.898233 0.573236
O O4 0.553110 0.866734 0.431153
O O5 0.105167 0.870540 0.966518
O O6 0.198767 0.857025 0.121565
O O7 0.249600 0.931783 0.840204
O O8 0.227637 0.778141 0.866086
O O9 0.530990 0.721300 0.969101
O O10 0.620484 0.865251 0.853977
O O11 0.671900 0.724633 0.888712
O O12 0.592371 0.823300 0.133530
O O13 0.500000 0.632421 0.750000
O O14 0.377300 0.977187 0.259687
O O15 0.304095 0.151241 0.757064
#
# Coordination Sequence:
#
# PCOD9260240 Si02
#       7
#     8   8   8   8   8   8   8
#     4  11  21  39  56  82 122 162 206 237 297 391
#     4  10  18  36  66  83 111 167 220 257 285 374
#     4  11  23  37  61  92 124 160 208 266 312 367
#     4  11  18  37  61  89 114 156 218 251 294 367
#     4  11  22  40  59  86 124 171 206 249 317 388
#     4  10  19  37  61  86 116 161 215 262 302 364
#     4  12  24  38  58  93 131 160 199 264 332 364
#
# _framework density 21.233008000000002
#
# number of rings (size 3 to 8) (size 9 to 14) (size 15 to 20)
#    0.000    1.143    7.143    2.143    0.000    1.143 
#    2.571    0.000    0.000    0.857    0.000    0.000 
#    0.000    0.000    0.000    0.571    0.000    0.000 
#
# Total GULP energy -155902.711806 kJ/mol
# GULP energy per Si atom -5567.953993 kJ/mol
# Density = 2.118468 g / cm^3
# Si number density = 21.233008 Si / 1000 Ang^3
#
#
#
# Elastic Constant Matrix: (Units=GPa)
#
#
# Indices 1 2 3 4 5 6 
#
# 1 132.6525 9.6867 54.8845 0.0000 -14.0109 0.0000
# 2 9.6867 8.0642 6.1029 0.0000 -1.5912 0.0000
# 3 54.8845 6.1029 126.9428 0.0000 -7.9206 0.0000
# 4 0.0000 0.0000 0.0000 8.3773 0.0000 -3.0028
# 5 -14.0109 -1.5912 -7.9206 0.0000 36.8426 0.0000
# 6 0.0000 0.0000 0.0000 -3.0028 0.0000 1.8084
#
#
#
# Elastic Compliance Matrix: (Units=1/GPa)
#
#
# Indices 1 2 3 4 5 6 
#
# 1 0.009996 -0.008658 -0.003742 0.000000 0.002623 0.000000
# 2 -0.008658 0.136857 -0.002709 0.000000 0.002036 0.000000
# 3 -0.003742 -0.002709 0.009659 0.000000 0.000537 0.000000
# 4 0.000000 0.000000 0.000000 0.294870 0.000000 0.489623
# 5 0.002623 0.002036 0.000537 0.000000 0.028343 0.000000
# 6 0.000000 0.000000 0.000000 0.489623 0.000000 1.365985
#
#
# Mechanical properties :
#
#
# Convention : Reuss Voigt Hill
#
# Bulk Modulus (GPa) = 7.91804 45.44530 26.68167
# Shear Modulus (GPa) = 2.60685 22.53800 12.57242
#
# Velocity S-wave (km/s) = 1.10923 3.26154 2.43599
# Velocity P-wave (km/s) = 2.31900 5.96935 4.52829
#
# Compressibility (1/GPa) = 0.12629387
#
# Stress axis : x y z
#
# Youngs Moduli (GPa) = 100.04049 7.30692 103.52882
#
# Poissons Ratio (x) = 0.06326 0.38740
# Poissons Ratio (y) = 0.86611 0.28050
# Poissons Ratio (z) = 0.37434 0.01980
#
# Static dielectric constant tensor:
#      x y z
#    x 1.926130 0.000000 -0.018830 
#    y 0.000000 1.772170 0.000000 
#    z -0.018830 0.000000 1.858630 
# 
# From -- ./inp_files/49005.got.cif
#   From: 2010.05.17/outbox.cif.g08.bks.cpg/sg15_25_cif.got.tgz:49005.got - 2010.06.03 18:47:42.
