data_PCOD9260198
_publ_section_title
;
Structure prediction by ZEFSAII (Michael W. Deem and Ramdas Pophale) SiO2 
 PCOD9260198
Probable space group: C 2/C
;
_chemical_formula_sum "Si O2"
_cell_formula_units_Z 44
_cell_length_a 9.514380
_cell_length_b 27.623204
_cell_length_c 8.731930
_cell_angle_alpha 90.000000
_cell_angle_beta 123.955224
_cell_angle_gamma 90.000000
_cell_volume 1903.565107
_symmetry_space_group_name_H-M "C 2/C"
_symmetry_group_IT_number 15
_symmetry_cell_setting 'monoclinic'
loop_
_space_group_symop_operation_xyz
x,y,z
-x,y,1/2-z
-x,-y,-z
x,-y,1/2+z
1/2+x,1/2+y,z
1/2-x,1/2+y,1/2-z
1/2-x,1/2-y,-z
1/2+x,1/2-y,1/2+z
loop_
_atom_site_type_symbol
_atom_site_label
_atom_site_fract_x
_atom_site_fract_y
_atom_site_fract_z
Si Si1 0.872879 0.229085 0.445211
Si Si2 0.342212 0.794622 0.974529
Si Si3 0.000000 0.912297 0.750000
Si Si4 0.796282 0.527935 0.500511
Si Si5 0.155677 0.850140 0.107215
Si Si6 0.168523 0.563974 0.651026
O O1 0.750000 0.250000 0.500000
O O2 0.757350 0.202112 0.247529
O O3 0.966988 0.276779 0.433753
O O4 0.033151 0.194084 0.585958
O O5 0.250000 0.750000 0.000000
O O6 0.301324 0.836291 0.070540
O O7 0.844034 0.947048 0.685940
O O8 0.965297 0.880637 0.579160
O O9 0.755523 0.538450 0.651541
O O10 0.802011 0.470867 0.474101
O O11 0.968906 0.556300 0.561874
O O12 0.246171 0.883095 0.291361
#
# Coordination Sequence:
#
# PCOD9260198 Si02
#       6
#     8   8   4   8   8   8
#     4  11  22  40  65  93 131 171 214 278 341 381
#     4  10  20  40  64  89 122 174 214 264 330 396
#     4  10  18  36  64  90 120 162 224 260 322 390
#     4   9  19  35  63  94 123 167 203 272 331 385
#     4  10  19  37  63  95 127 172 227 264 307 410
#     4   9  19  38  63  92 129 163 221 258 330 395
#
# _framework density 23.114522999999998
#
# number of rings (size 3 to 8) (size 9 to 14) (size 15 to 20)
#    0.000    2.182    1.818    2.182    0.000    2.909 
#   26.182    0.000   24.000    8.727    0.000    0.000 
#    0.000    0.000    0.000    0.000    0.000    0.000 
#
# Total GULP energy -122685.962089 kJ/mol
# GULP energy per Si atom -5576.634640 kJ/mol
# Density = 2.306191 g / cm^3
# Si number density = 23.114523 Si / 1000 Ang^3
#
#
#
# Elastic Constant Matrix: (Units=GPa)
#
#
# Indices 1 2 3 4 5 6 
#
# 1 105.1514 39.5622 31.3915 0.0000 0.3572 0.0000
# 2 39.5622 91.2637 30.4271 0.0000 13.7340 0.0000
# 3 31.3915 30.4271 68.8930 0.0000 22.2561 0.0000
# 4 0.0000 0.0000 0.0000 41.9101 0.0000 -0.0350
# 5 0.3572 13.7340 22.2561 0.0000 24.7185 0.0000
# 6 0.0000 0.0000 0.0000 -0.0350 0.0000 38.9395
#
#
#
# Elastic Compliance Matrix: (Units=1/GPa)
#
#
# Indices 1 2 3 4 5 6 
#
# 1 0.013282 -0.004812 -0.006668 0.000000 0.008486 0.000000
# 2 -0.004812 0.014737 -0.002388 0.000000 -0.005968 0.000000
# 3 -0.006668 -0.002388 0.025593 0.000000 -0.021620 0.000000
# 4 0.000000 0.000000 0.000000 0.023861 0.000000 0.000021
# 5 0.008486 -0.005968 -0.021620 0.000000 0.063116 0.000000
# 6 0.000000 0.000000 0.000000 0.000021 0.000000 0.025681
#
#
# Mechanical properties :
#
#
# Convention : Reuss Voigt Hill
#
# Bulk Modulus (GPa) = 38.64547 52.00773 45.32660
# Shear Modulus (GPa) = 24.67525 32.04211 28.35868
#
# Velocity S-wave (km/s) = 3.27084 3.72725 3.50648
# Velocity P-wave (km/s) = 5.56956 6.40875 6.00383
#
# Compressibility (1/GPa) = 0.02587625
#
# Stress axis : x y z
#
# Youngs Moduli (GPa) = 75.28805 67.85421 39.07298
#
# Poissons Ratio (x) = 0.32648 0.26055
# Poissons Ratio (y) = 0.36225 0.09332
# Poissons Ratio (z) = 0.50205 0.16206
#
# Static dielectric constant tensor:
#      x y z
#    x 1.895720 0.000000 0.033640 
#    y 0.000000 2.008440 0.000000 
#    z 0.033640 0.000000 1.967430 
# 
# From -- ./inp_files/26277.got.cif
#   From: 2010.05.17/outbox.cif.g08.bks.cpg/sg15_14_cif.got.tgz:26277.got - 2010.06.03 18:47:42.
