data_PCOD9260845
_publ_section_title
;
Structure prediction by ZEFSAII (Michael W. Deem and Ramdas Pophale) SiO2 
 PCOD9260845
Probable space group: C 2/C
;
_chemical_formula_sum "Si O2"
_cell_formula_units_Z 52
_cell_length_a 27.398423
_cell_length_b 14.795689
_cell_length_c 16.979776
_cell_angle_alpha 90.000000
_cell_angle_beta 158.512980
_cell_angle_gamma 90.000000
_cell_volume 2521.263853
_symmetry_space_group_name_H-M "C 2/C"
_symmetry_group_IT_number 15
_symmetry_cell_setting 'monoclinic'
loop_
_space_group_symop_operation_xyz
x,y,z
-x,y,1/2-z
-x,-y,-z
x,-y,1/2+z
1/2+x,1/2+y,z
1/2-x,1/2+y,1/2-z
1/2-x,1/2-y,-z
1/2+x,1/2-y,1/2+z
loop_
_atom_site_type_symbol
_atom_site_label
_atom_site_fract_x
_atom_site_fract_y
_atom_site_fract_z
Si Si1 0.760795 0.462902 0.298685
Si Si2 0.457041 0.043875 0.355040
Si Si3 0.361101 0.754707 0.734297
Si Si4 0.607234 0.365590 0.607029
Si Si5 0.765613 0.543151 0.459403
Si Si6 0.000000 0.325597 0.250000
Si Si7 0.820361 0.231932 0.858504
O O1 0.667553 0.550972 0.147001
O O2 0.762528 0.457203 0.396238
O O3 0.702027 0.374868 0.170831
O O4 0.915091 0.475518 0.507985
O O5 0.435600 0.150351 0.330475
O O6 0.500000 0.000000 0.500000
O O7 0.320865 0.994642 0.123072
O O8 0.250000 0.750000 0.500000
O O9 0.319373 0.756719 0.764082
O O10 0.460141 0.669519 0.873776
O O11 0.632591 0.401734 0.735161
O O12 0.700116 0.281896 0.722798
O O13 0.879694 0.611061 0.598538
O O14 0.050878 0.266841 0.400470
#
# Coordination Sequence:
#
# PCOD9260845 Si02
#       7
#     8   8   8   8   8   4   8
#     4  10  20  40  68  83 131 176 217 262 332 400
#     4  12  21  39  65 101 124 164 231 276 327 386
#     4  12  26  41  66 100 135 171 219 280 333 402
#     4   9  22  43  66  93 128 177 224 258 335 398
#     4   9  18  38  65  84 120 177 210 262 326 394
#     4  10  18  38  66  86 124 168 212 266 324 384
#     4  11  22  43  61  97 133 170 220 274 329 397
#
# _framework density 20.624578
#
# number of rings (size 3 to 8) (size 9 to 14) (size 15 to 20)
#    0.923    0.615    3.077    2.769    0.000    1.231 
#    2.769    3.846    0.000    0.000    0.000    0.000 
#    0.000    0.000    0.000    0.000    0.000    0.000 
#
# Total GULP energy -144831.049771 kJ/mol
# GULP energy per Si atom -5570.424991 kJ/mol
# Density = 2.057764 g / cm^3
# Si number density = 20.624578 Si / 1000 Ang^3
#
#
#
# Elastic Constant Matrix: (Units=GPa)
#
#
# Indices 1 2 3 4 5 6 
#
# 1 38.7957 13.2492 39.1505 0.0000 -17.3449 0.0000
# 2 13.2492 126.4775 54.7903 0.0000 -8.4419 0.0000
# 3 39.1505 54.7903 111.9754 0.0000 -11.1991 0.0000
# 4 0.0000 0.0000 0.0000 49.4864 0.0000 -6.8270
# 5 -17.3449 -8.4419 -11.1991 0.0000 28.7138 0.0000
# 6 0.0000 0.0000 0.0000 -6.8270 0.0000 23.1065
#
#
#
# Elastic Compliance Matrix: (Units=1/GPa)
#
#
# Indices 1 2 3 4 5 6 
#
# 1 0.055469 0.004103 -0.018658 0.000000 0.027436 0.000000
# 2 0.004103 0.010369 -0.006197 0.000000 0.003110 0.000000
# 3 -0.018658 -0.006197 0.017874 0.000000 -0.006121 0.000000
# 4 0.000000 0.000000 0.000000 0.021066 0.000000 0.006224
# 5 0.027436 0.003110 -0.006121 0.000000 0.049927 0.000000
# 6 0.000000 0.000000 0.000000 0.006224 0.000000 0.045117
#
#
# Mechanical properties :
#
#
# Convention : Reuss Voigt Hill
#
# Bulk Modulus (GPa) = 23.69170 54.62540 39.15855
# Shear Modulus (GPa) = 19.57750 31.59856 25.58803
#
# Velocity S-wave (km/s) = 3.08430 3.91843 3.52612
# Velocity P-wave (km/s) = 4.91894 6.85676 5.96704
#
# Compressibility (1/GPa) = 0.04220887
#
# Stress axis : x y z
#
# Youngs Moduli (GPa) = 18.02796 96.44213 55.94712
#
# Poissons Ratio (x) = -0.39571 1.04384
# Poissons Ratio (y) = -0.07397 0.34671
# Poissons Ratio (z) = 0.33636 0.59766
#
# Static dielectric constant tensor:
#      x y z
#    x 1.765080 0.000000 0.007790 
#    y 0.000000 1.731570 0.000000 
#    z 0.007790 0.000000 1.772860 
# 
# From -- ./inp_files/225528.got.cif
#   From: 2010.05.17/outbox.cif.g08.bks.cpg/sg15_113_cif.got.tgz:225528.got - 2010.06.03 18:47:42.
