data_PCOD9260621
_publ_section_title
;
Structure prediction by ZEFSAII (Michael W. Deem and Ramdas Pophale) SiO2 
 PCOD9260621
Probable space group: C 2/C
;
_chemical_formula_sum "Si O2"
_cell_formula_units_Z 52
_cell_length_a 21.014645
_cell_length_b 7.443151
_cell_length_c 17.266675
_cell_angle_alpha 90.000000
_cell_angle_beta 117.129911
_cell_angle_gamma 90.000000
_cell_volume 2403.617432
_symmetry_space_group_name_H-M "C 2/C"
_symmetry_group_IT_number 15
_symmetry_cell_setting 'monoclinic'
loop_
_space_group_symop_operation_xyz
x,y,z
-x,y,1/2-z
-x,-y,-z
x,-y,1/2+z
1/2+x,1/2+y,z
1/2-x,1/2+y,1/2-z
1/2-x,1/2-y,-z
1/2+x,1/2-y,1/2+z
loop_
_atom_site_type_symbol
_atom_site_label
_atom_site_fract_x
_atom_site_fract_y
_atom_site_fract_z
Si Si1 0.257438 0.905947 0.628362
Si Si2 0.629967 0.535280 0.455977
Si Si3 0.000000 0.298917 0.750000
Si Si4 0.608057 0.862922 0.557979
Si Si5 0.040909 0.678490 0.433638
Si Si6 0.139104 0.099673 0.803543
Si Si7 0.734395 0.301079 0.225331
O O1 0.203658 0.961216 0.532756
O O2 0.320642 0.775688 0.637693
O O3 0.223794 0.788011 0.680241
O O4 0.277812 0.086388 0.686740
O O5 0.612357 0.715086 0.492318
O O6 0.571807 0.378977 0.439866
O O7 0.639495 0.551302 0.368977
O O8 0.969852 0.401521 0.658988
O O9 0.940176 0.168839 0.752627
O O10 0.535954 0.826063 0.566985
O O11 0.679307 0.832239 0.649647
O O12 0.595971 0.056790 0.512831
O O13 0.179574 0.073700 0.745661
#
# Coordination Sequence:
#
# PCOD9260621 Si02
#       7
#     8   8   4   8   8   8   8
#     4   9  19  34  55  81 112 152 197 242 294 354
#     4  10  20  34  57  83 116 151 194 241 300 351
#     4  10  18  38  58  84 114 158 190 240 302 348
#     4  10  20  36  56  86 114 157 195 239 287 357
#     4  10  20  35  60  81 119 153 195 239 292 350
#     4   9  19  34  59  79 117 155 190 245 300 345
#     4   9  19  34  56  82 114 150 203 238 293 350
#
# _framework density 21.634059000000001
#
# number of rings (size 3 to 8) (size 9 to 14) (size 15 to 20)
#    0.923    1.538    1.538    0.923    2.154    0.000 
#    0.000    6.154    3.385   10.154    0.000    0.000 
#    0.000    0.000    0.000    0.000    0.000    0.000 
#
# Total GULP energy -144758.243807 kJ/mol
# GULP energy per Si atom -5567.624762 kJ/mol
# Density = 2.158482 g / cm^3
# Si number density = 21.634059 Si / 1000 Ang^3
#
#
#
# Elastic Constant Matrix: (Units=GPa)
#
#
# Indices 1 2 3 4 5 6 
#
# 1 44.5916 14.6399 3.9344 0.0000 -9.0132 0.0000
# 2 14.6399 38.5036 11.4566 0.0000 -3.0754 0.0000
# 3 3.9344 11.4566 99.0012 0.0000 -3.4562 0.0000
# 4 0.0000 0.0000 0.0000 -1.5088 0.0000 7.8685
# 5 -9.0132 -3.0754 -3.4562 0.0000 24.7012 0.0000
# 6 0.0000 0.0000 0.0000 7.8685 0.0000 14.0115
#
#
#
# Elastic Compliance Matrix: (Units=1/GPa)
#
#
# Indices 1 2 3 4 5 6 
#
# 1 0.027402 -0.009820 0.000355 0.000000 0.008826 0.000000
# 2 -0.009820 0.030629 -0.003162 0.000000 -0.000212 0.000000
# 3 0.000355 -0.003162 0.010495 0.000000 0.001204 0.000000
# 4 0.000000 0.000000 0.000000 -0.168701 0.000000 0.094739
# 5 0.008826 -0.000212 0.001204 0.000000 0.043847 0.000000
# 6 0.000000 0.000000 0.000000 0.094739 0.000000 0.018167
#
#
# Mechanical properties :
#
#
# Convention : Reuss Voigt Hill
#
# Bulk Modulus (GPa) = 23.10846 26.90650 25.00748
# Shear Modulus (GPa) = 3300.07703 17.57845 1658.82774
#
# Velocity S-wave (km/s) = 39.09885 2.85359 27.72059
# Velocity P-wave (km/s) = 45.26586 4.82923 32.18943
#
# Compressibility (1/GPa) = 0.04327419
#
# Stress axis : x y z
#
# Youngs Moduli (GPa) = 36.49335 32.64870 95.28640
#
# Poissons Ratio (x) = 0.32060 -0.03387
# Poissons Ratio (y) = 0.35836 0.30126
# Poissons Ratio (z) = -0.01297 0.10322
#
# Static dielectric constant tensor:
#      x y z
#    x 1.770350 0.000000 0.008680 
#    y 0.000000 1.838200 0.000000 
#    z 0.008680 0.000000 1.797110 
# 
# From -- ./inp_files/171397.got.cif
#   From: 2010.05.17/outbox.cif.g08.bks.cpg/sg15_86_cif.got.tgz:171397.got - 2010.06.03 18:47:42.
