data_PCOD9260974
_publ_section_title
;
Structure prediction by ZEFSAII (Michael W. Deem and Ramdas Pophale) SiO2 
 PCOD9260974
Probable space group: C 2/C
;
_chemical_formula_sum "Si O2"
_cell_formula_units_Z 56
_cell_length_a 29.987485
_cell_length_b 9.764764
_cell_length_c 11.142076
_cell_angle_alpha 90.000000
_cell_angle_beta 54.825232
_cell_angle_gamma 90.000000
_cell_volume 2666.869951
_symmetry_space_group_name_H-M "C 2/C"
_symmetry_group_IT_number 15
_symmetry_cell_setting 'monoclinic'
loop_
_space_group_symop_operation_xyz
x,y,z
-x,y,1/2-z
-x,-y,-z
x,-y,1/2+z
1/2+x,1/2+y,z
1/2-x,1/2+y,1/2-z
1/2-x,1/2-y,-z
1/2+x,1/2-y,1/2+z
loop_
_atom_site_type_symbol
_atom_site_label
_atom_site_fract_x
_atom_site_fract_y
_atom_site_fract_z
Si Si1 0.475826 0.668466 0.920580
Si Si2 0.639787 0.837145 0.976784
Si Si3 0.695157 0.828163 0.127270
Si Si4 0.080028 0.102998 0.915796
Si Si5 0.662642 0.665477 0.599893
Si Si6 0.881362 0.351756 0.034276
Si Si7 0.272133 0.879403 0.844456
O O1 0.500000 0.676077 0.750000
O O2 0.524880 0.656895 0.938683
O O3 0.437375 0.534103 0.989387
O O4 0.436904 0.796248 0.004116
O O5 0.607624 0.718962 0.955932
O O6 0.700429 0.864478 0.827620
O O7 0.614310 0.986623 0.994774
O O8 0.648966 0.799815 0.100107
O O9 0.668923 0.809843 0.300097
O O10 0.706776 0.990883 0.113067
O O11 0.750000 0.750000 0.000000
O O12 0.122949 0.074257 0.741389
O O13 0.628276 0.773547 0.576264
O O14 0.702143 0.747023 0.630204
O O15 0.707295 0.599986 0.443132
#
# Coordination Sequence:
#
# PCOD9260974 Si02
#       7
#     8   8   8   8   8   8   8
#     4  11  24  44  66  97 126 162 222 270 316 383
#     4  10  22  43  61  94 135 168 210 263 319 380
#     4  11  23  37  59  96 133 164 215 263 310 383
#     4  10  24  42  68  91 128 168 210 273 322 370
#     4  10  18  39  64  88 122 173 206 249 320 383
#     4  11  23  39  68  91 128 171 214 263 323 377
#     4   9  20  35  59  89 127 166 208 250 311 378
#
# _framework density 20.998398999999999
#
# number of rings (size 3 to 8) (size 9 to 14) (size 15 to 20)
#    0.000    1.714    2.857    0.857    2.000    4.000 
#    0.000    0.714    0.000    0.000    0.000    0.000 
#    0.000    0.000    0.000    0.000    0.000    0.000 
#
# Total GULP energy -156186.963880 kJ/mol
# GULP energy per Si atom -5578.105853 kJ/mol
# Density = 2.095061 g / cm^3
# Si number density = 20.998399 Si / 1000 Ang^3
#
#
#
# Elastic Constant Matrix: (Units=GPa)
#
#
# Indices 1 2 3 4 5 6 
#
# 1 63.9309 25.7135 11.2823 0.0000 -8.0847 0.0000
# 2 25.7135 47.5908 22.3092 0.0000 -6.4586 0.0000
# 3 11.2823 22.3092 61.5862 0.0000 -12.6843 0.0000
# 4 0.0000 0.0000 0.0000 21.0094 0.0000 -4.4047
# 5 -8.0847 -6.4586 -12.6843 0.0000 37.3250 0.0000
# 6 0.0000 0.0000 0.0000 -4.4047 0.0000 27.6389
#
#
#
# Elastic Compliance Matrix: (Units=1/GPa)
#
#
# Indices 1 2 3 4 5 6 
#
# 1 0.020252 -0.010955 0.000829 0.000000 0.002773 0.000000
# 2 -0.010955 0.031300 -0.009360 0.000000 -0.000137 0.000000
# 3 0.000829 -0.009360 0.020623 0.000000 0.005568 0.000000
# 4 0.000000 0.000000 0.000000 0.049243 0.000000 0.007848
# 5 0.002773 -0.000137 0.005568 0.000000 0.029261 0.000000
# 6 0.000000 0.000000 0.000000 0.007848 0.000000 0.037431
#
#
# Mechanical properties :
#
#
# Convention : Reuss Voigt Hill
#
# Bulk Modulus (GPa) = 30.11606 32.41311 31.26458
# Shear Modulus (GPa) = 20.99518 24.78152 22.88835
#
# Velocity S-wave (km/s) = 3.16547 3.43908 3.30510
# Velocity P-wave (km/s) = 5.26625 5.58920 5.43013
#
# Compressibility (1/GPa) = 0.03320487
#
# Stress axis : x y z
#
# Youngs Moduli (GPa) = 49.37705 31.94846 48.48987
#
# Poissons Ratio (x) = 0.34999 -0.04021
# Poissons Ratio (y) = 0.54092 0.45386
# Poissons Ratio (z) = -0.04095 0.29903
#
# Static dielectric constant tensor:
#      x y z
#    x 1.764910 0.000000 -0.001220 
#    y 0.000000 1.750330 0.000000 
#    z -0.001220 0.000000 1.851220 
# 
# From -- ./inp_files/125844.got.cif
#   From: 2010.05.17/outbox.cif.g08.bks.cpg/sg15_63_cif.got.tgz:125844.got - 2010.06.03 18:47:42.
