data_PCOD9260766
_publ_section_title
;
Structure prediction by ZEFSAII (Michael W. Deem and Ramdas Pophale) SiO2 
 PCOD9260766
Probable space group: C 2/C
;
_chemical_formula_sum "Si O2"
_cell_formula_units_Z 48
_cell_length_a 19.901765
_cell_length_b 20.089681
_cell_length_c 14.699877
_cell_angle_alpha 90.000000
_cell_angle_beta 24.971374
_cell_angle_gamma 90.000000
_cell_volume 2481.195433
_symmetry_space_group_name_H-M "C 2/C"
_symmetry_group_IT_number 15
_symmetry_cell_setting 'monoclinic'
loop_
_space_group_symop_operation_xyz
x,y,z
-x,y,1/2-z
-x,-y,-z
x,-y,1/2+z
1/2+x,1/2+y,z
1/2-x,1/2+y,1/2-z
1/2-x,1/2-y,-z
1/2+x,1/2-y,1/2+z
loop_
_atom_site_type_symbol
_atom_site_label
_atom_site_fract_x
_atom_site_fract_y
_atom_site_fract_z
Si Si1 0.249558 0.183031 0.819584
Si Si2 0.710107 0.507602 0.077981
Si Si3 0.500000 0.903355 0.250000
Si Si4 0.183523 0.562217 0.215682
Si Si5 0.612823 0.175300 0.439100
Si Si6 0.189354 0.553709 0.856430
Si Si7 0.000000 0.112406 0.250000
O O1 0.431511 0.185312 0.628804
O O2 0.238588 0.124622 0.758561
O O3 0.196026 0.254307 0.849577
O O4 0.136229 0.158509 0.040509
O O5 0.870822 0.549996 0.859895
O O6 0.704580 0.450504 0.008102
O O7 0.734442 0.477066 0.147077
O O8 0.571927 0.561757 0.236458
O O9 0.406036 0.861104 0.440328
O O10 0.198619 0.626636 0.261580
O O11 0.207102 0.498546 0.252226
O O12 0.001495 0.563572 0.402372
#
# Coordination Sequence:
#
# PCOD9260766 Si02
#       7
#     8   8   4   8   8   8   4
#     4  11  25  41  56  88 125 162 197 246 297 362
#     4  12  21  38  66  94 118 155 202 256 302 346
#     4  12  19  36  66  88 109 164 200 244 307 354
#     4  10  18  38  63  91 114 155 209 245 285 372
#     4  11  24  39  60  87 124 159 201 243 300 363
#     4  10  19  38  65  87 119 155 203 249 299 350
#     4  12  25  38  58  94 129 148 202 258 303 358
#
# _framework density 19.345513
#
# number of rings (size 3 to 8) (size 9 to 14) (size 15 to 20)
#    0.000    1.000    6.667    1.500    2.333    2.000 
#    3.000    0.833    0.000    0.000    0.000    0.000 
#    0.000    0.000    0.000    0.000    0.000    0.000 
#
# Total GULP energy -134093.386604 kJ/mol
# GULP energy per Si atom -5587.224442 kJ/mol
# Density = 1.930148 g / cm^3
# Si number density = 19.345513 Si / 1000 Ang^3
#
#
#
# Elastic Constant Matrix: (Units=GPa)
#
#
# Indices 1 2 3 4 5 6 
#
# 1 84.6365 44.6688 3.8872 -0.0005 9.6392 0.0005
# 2 44.6688 135.9040 21.7472 0.0076 -1.1867 0.0022
# 3 3.8872 21.7472 31.9068 0.0110 -2.5806 0.0033
# 4 -0.0005 0.0076 0.0110 30.3231 -0.0043 -5.6421
# 5 9.6392 -1.1867 -2.5806 -0.0043 9.4237 0.0006
# 6 0.0005 0.0022 0.0033 -5.6421 0.0006 34.0218
#
#
#
# Elastic Compliance Matrix: (Units=1/GPa)
#
#
# Indices 1 2 3 4 5 6 
#
# 1 0.016877 -0.005773 0.000433 -0.000001 -0.017872 0.000000
# 2 -0.005773 0.010236 -0.005820 0.000000 0.005600 0.000000
# 3 0.000433 -0.005820 0.035957 -0.000011 0.008671 -0.000005
# 4 -0.000001 0.000000 -0.000011 0.034028 0.000013 0.005643
# 5 -0.017872 0.005600 0.008671 0.000013 0.127475 -0.000001
# 6 0.000000 0.000000 -0.000005 0.005643 -0.000001 0.030329
#
#
# Mechanical properties :
#
#
# Convention : Reuss Voigt Hill
#
# Bulk Modulus (GPa) = 24.53992 43.67264 34.10628
# Shear Modulus (GPa) = 17.19361 26.89666 22.04513
#
# Velocity S-wave (km/s) = 2.98445 3.73276 3.37938
# Velocity P-wave (km/s) = 4.95868 6.41888 5.73544
#
# Compressibility (1/GPa) = 0.04074994
#
# Stress axis : x y z
#
# Youngs Moduli (GPa) = 59.25094 97.69705 27.81108
#
# Poissons Ratio (x) = 0.56396 -0.01204
# Poissons Ratio (y) = 0.34203 0.16187
# Poissons Ratio (z) = -0.02565 0.56863
#
# Static dielectric constant tensor:
#      x y z
#    x 1.692720 0.000000 -0.004850 
#    y 0.000000 1.656280 0.000000 
#    z -0.004850 0.000000 1.704920 
# 
# From -- ./inp_files/50079.got.cif
#   From: 2010.05.17/outbox.cif.g08.bks.cpg/sg15_26_cif.got.tgz:50079.got - 2010.06.03 18:47:42.
