data_PCOD9260142
_publ_section_title
;
Structure prediction by ZEFSAII (Michael W. Deem and Ramdas Pophale) SiO2 
 PCOD9260142
Probable space group: C 2/C
;
_chemical_formula_sum "Si O2"
_cell_formula_units_Z 52
_cell_length_a 19.518662
_cell_length_b 9.785606
_cell_length_c 14.218151
_cell_angle_alpha 90.000000
_cell_angle_beta 99.651718
_cell_angle_gamma 90.000000
_cell_volume 2677.253989
_symmetry_space_group_name_H-M "C 2/C"
_symmetry_group_IT_number 15
_symmetry_cell_setting 'monoclinic'
loop_
_space_group_symop_operation_xyz
x,y,z
-x,y,1/2-z
-x,-y,-z
x,-y,1/2+z
1/2+x,1/2+y,z
1/2-x,1/2+y,1/2-z
1/2-x,1/2-y,-z
1/2+x,1/2-y,1/2+z
loop_
_atom_site_type_symbol
_atom_site_label
_atom_site_fract_x
_atom_site_fract_y
_atom_site_fract_z
Si Si1 0.328279 0.407278 0.180617
Si Si2 0.931471 0.062455 0.866974
Si Si3 0.857787 0.605247 0.219407
Si Si4 0.290694 0.889980 0.894761
Si Si5 0.670480 0.828950 0.386260
Si Si6 0.569191 0.592098 0.410801
Si Si7 0.000000 0.714098 0.250000
O O1 0.361102 0.451838 0.289610
O O2 0.321594 0.244068 0.174557
O O3 0.257037 0.479846 0.138668
O O4 0.386304 0.466566 0.122237
O O5 0.970526 0.187575 0.824350
O O6 0.919391 0.092026 0.973889
O O7 0.987671 0.938439 0.873434
O O8 0.849408 0.615672 0.329671
O O9 0.831787 0.459775 0.180095
O O10 0.936471 0.622048 0.204020
O O11 0.236872 0.763520 0.875029
O O12 0.319375 0.884493 0.005908
O O13 0.603823 0.727404 0.373883
#
# Coordination Sequence:
#
# PCOD9260142 Si02
#       7
#     8   8   8   8   8   8   4
#     4  10  20  37  61  83 116 152 198 238 279 352
#     4  10  18  36  63  85 112 153 201 234 282 349
#     4  11  21  39  59  86 120 151 192 241 298 340
#     4  10  22  40  61  83 115 162 196 234 289 344
#     4  10  22  39  59  88 118 151 196 246 288 342
#     4  10  19  35  61  87 112 152 195 238 287 344
#     4  10  20  38  60  86 116 158 182 244 290 354
#
# _framework density 19.422886999999999
#
# number of rings (size 3 to 8) (size 9 to 14) (size 15 to 20)
#    0.000    1.846    3.077    2.769    0.000    3.077 
#    5.538    6.154    0.000    0.000    0.000    0.000 
#    0.000    0.000    0.000    0.000    0.000    0.000 
#
# Total GULP energy -145039.911656 kJ/mol
# GULP energy per Si atom -5578.458141 kJ/mol
# Density = 1.937868 g / cm^3
# Si number density = 19.422887 Si / 1000 Ang^3
#
#
#
# Elastic Constant Matrix: (Units=GPa)
#
#
# Indices 1 2 3 4 5 6 
#
# 1 29.9087 -0.5382 -5.6921 0.0000 0.0505 0.0000
# 2 -0.5382 46.6536 34.5054 0.0000 -5.1942 0.0000
# 3 -5.6921 34.5054 64.7158 0.0000 -17.5340 0.0000
# 4 0.0000 0.0000 0.0000 19.3418 0.0000 2.4862
# 5 0.0505 -5.1942 -17.5340 0.0000 19.0799 0.0000
# 6 0.0000 0.0000 0.0000 2.4862 0.0000 19.9321
#
#
#
# Elastic Compliance Matrix: (Units=1/GPa)
#
#
# Indices 1 2 3 4 5 6 
#
# 1 0.034560 -0.003742 0.006304 0.000000 0.004683 0.000000
# 2 -0.003742 0.037372 -0.023297 0.000000 -0.011225 0.000000
# 3 0.006304 -0.023297 0.035559 0.000000 0.026319 0.000000
# 4 0.000000 0.000000 0.000000 0.052544 0.000000 -0.006554
# 5 0.004683 -0.011225 0.026319 0.000000 0.073529 0.000000
# 6 0.000000 0.000000 0.000000 -0.006554 0.000000 0.050988
#
#
# Mechanical properties :
#
#
# Convention : Reuss Voigt Hill
#
# Bulk Modulus (GPa) = 15.14689 21.98090 18.56390
# Shear Modulus (GPa) = 14.36660 19.20428 16.78544
#
# Velocity S-wave (km/s) = 2.72264 3.14784 2.94293
# Velocity P-wave (km/s) = 4.20703 4.95515 4.59634
#
# Compressibility (1/GPa) = 0.06602014
#
# Stress axis : x y z
#
# Youngs Moduli (GPa) = 28.93553 26.75789 28.12228
#
# Poissons Ratio (x) = 0.10014 -0.17728
# Poissons Ratio (y) = 0.10828 0.65516
# Poissons Ratio (z) = -0.18240 0.62337
#
# Static dielectric constant tensor:
#      x y z
#    x 1.712000 0.000000 0.005630 
#    y 0.000000 1.684000 0.000000 
#    z 0.005630 0.000000 1.673280 
# 
# From -- ./inp_files/166278.got.cif
#   From: 2010.05.17/outbox.cif.g08.bks.cpg/sg15_84_cif.got.tgz:166278.got - 2010.06.03 18:47:42.
