data_PCOD9260107
_publ_section_title
;
Structure prediction by ZEFSAII (Michael W. Deem and Ramdas Pophale) SiO2 
 PCOD9260107
Probable space group: C 2/C
;
_chemical_formula_sum "Si O2"
_cell_formula_units_Z 40
_cell_length_a 19.365081
_cell_length_b 17.421475
_cell_length_c 8.011437
_cell_angle_alpha 90.000000
_cell_angle_beta 140.631135
_cell_angle_gamma 90.000000
_cell_volume 1714.417412
_symmetry_space_group_name_H-M "C 2/C"
_symmetry_group_IT_number 15
_symmetry_cell_setting 'monoclinic'
loop_
_space_group_symop_operation_xyz
x,y,z
-x,y,1/2-z
-x,-y,-z
x,-y,1/2+z
1/2+x,1/2+y,z
1/2-x,1/2+y,1/2-z
1/2-x,1/2-y,-z
1/2+x,1/2-y,1/2+z
loop_
_atom_site_type_symbol
_atom_site_label
_atom_site_fract_x
_atom_site_fract_y
_atom_site_fract_z
Si Si1 0.286104 0.032980 0.551917
Si Si2 0.108803 0.784170 0.902706
Si Si3 0.814726 0.174378 0.307943
Si Si4 0.672558 0.377422 0.324490
Si Si5 0.617540 0.099311 0.430538
O O1 0.247392 0.094867 0.347175
O O2 0.190526 0.968697 0.386269
O O3 0.387160 0.982276 0.674574
O O4 0.319263 0.077684 0.780684
O O5 0.111417 0.808786 0.714728
O O6 0.000000 0.738712 0.750000
O O7 0.219427 0.737174 0.134053
O O8 0.111736 0.853588 0.042580
O O9 0.869308 0.163422 0.588684
O O10 0.799587 0.352675 0.528215
O O11 0.500000 0.131942 0.250000
#
# Coordination Sequence:
#
# PCOD9260107 Si02
#       5
#     8   8   8   8   8
#     4  10  18  36  62  89 132 162 206 265 321 367
#     4  11  26  44  65  93 129 173 218 254 316 386
#     4  11  22  44  67  91 130 169 207 271 314 373
#     4  10  21  40  65  93 129 166 208 263 315 376
#     4  10  19  31  58  97 129 160 205 259 324 383
#
# _framework density 23.331538999999999
#
# number of rings (size 3 to 8) (size 9 to 14) (size 15 to 20)
#    1.200    0.400    4.000    1.200    0.000    3.200 
#    0.000    1.000    0.000    0.000    0.000    0.000 
#    0.000    0.000    0.000    0.000    0.000    0.000 
#
# Total GULP energy -111532.221165 kJ/mol
# GULP energy per Si atom -5576.611058 kJ/mol
# Density = 2.327844 g / cm^3
# Si number density = 23.331539 Si / 1000 Ang^3
#
#
#
# Elastic Constant Matrix: (Units=GPa)
#
#
# Indices 1 2 3 4 5 6 
#
# 1 133.2570 12.6871 54.3812 0.0000 -19.2354 0.0000
# 2 12.6871 61.6384 20.2672 0.0000 -16.2080 0.0000
# 3 54.3812 20.2672 78.6324 0.0000 -25.6545 0.0000
# 4 0.0000 0.0000 0.0000 10.9524 0.0000 -4.5800
# 5 -19.2354 -16.2080 -25.6545 0.0000 42.9284 0.0000
# 6 0.0000 0.0000 0.0000 -4.5800 0.0000 21.5536
#
#
#
# Elastic Compliance Matrix: (Units=1/GPa)
#
#
# Indices 1 2 3 4 5 6 
#
# 1 0.010468 0.000340 -0.007149 0.000000 0.000547 0.000000
# 2 0.000340 0.018616 -0.003342 0.000000 0.005184 0.000000
# 3 -0.007149 -0.003342 0.021200 0.000000 0.008204 0.000000
# 4 0.000000 0.000000 0.000000 0.100209 0.000000 0.021294
# 5 0.000547 0.005184 0.008204 0.000000 0.030399 0.000000
# 6 0.000000 0.000000 0.000000 0.021294 0.000000 0.050921
#
#
# Mechanical properties :
#
#
# Convention : Reuss Voigt Hill
#
# Bulk Modulus (GPa) = 33.35432 49.79989 41.57710
# Shear Modulus (GPa) = 19.07609 27.49968 23.28789
#
# Velocity S-wave (km/s) = 2.86249 3.43687 3.16275
# Velocity P-wave (km/s) = 5.02513 6.09428 5.58535
#
# Compressibility (1/GPa) = 0.02998113
#
# Stress axis : x y z
#
# Youngs Moduli (GPa) = 95.52650 53.71847 47.17090
#
# Poissons Ratio (x) = -0.01825 0.33722
# Poissons Ratio (y) = -0.03245 0.15764
# Poissons Ratio (z) = 0.68292 0.17952
#
# Static dielectric constant tensor:
#      x y z
#    x 1.928980 0.000000 -0.022030 
#    y 0.000000 1.889620 0.000000 
#    z -0.022030 0.000000 1.872010 
# 
# From -- ./inp_files/57639.got.cif
#   From: 2010.05.17/outbox.cif.g08.bks.cpg/sg15_29_cif.got.tgz:57639.got - 2010.06.03 18:47:42.
