data_PCOD9260990
_publ_section_title
;
Structure prediction by ZEFSAII (Michael W. Deem and Ramdas Pophale) SiO2 
 PCOD9260990
Probable space group: C 2/C
;
_chemical_formula_sum "Si O2"
_cell_formula_units_Z 56
_cell_length_a 26.613845
_cell_length_b 10.483964
_cell_length_c 14.105590
_cell_angle_alpha 90.000000
_cell_angle_beta 141.155556
_cell_angle_gamma 90.000000
_cell_volume 2468.516838
_symmetry_space_group_name_H-M "C 2/C"
_symmetry_group_IT_number 15
_symmetry_cell_setting 'monoclinic'
loop_
_space_group_symop_operation_xyz
x,y,z
-x,y,1/2-z
-x,-y,-z
x,-y,1/2+z
1/2+x,1/2+y,z
1/2-x,1/2+y,1/2-z
1/2-x,1/2-y,-z
1/2+x,1/2-y,1/2+z
loop_
_atom_site_type_symbol
_atom_site_label
_atom_site_fract_x
_atom_site_fract_y
_atom_site_fract_z
Si Si1 0.702303 0.579266 0.470366
Si Si2 0.633761 0.903379 0.571580
Si Si3 0.951819 0.059827 0.774497
Si Si4 0.565248 0.365637 0.041933
Si Si5 0.311568 0.598781 0.274297
Si Si6 0.127388 0.634355 0.685451
Si Si7 0.919832 0.696629 0.683461
O O1 0.640312 0.463032 0.392024
O O2 0.711428 0.591254 0.370809
O O3 0.787336 0.588283 0.644854
O O4 0.650469 0.700112 0.428085
O O5 0.602418 0.766620 0.561703
O O6 0.730345 0.904767 0.714376
O O7 0.607289 0.918806 0.423494
O O8 0.599059 0.019438 0.579845
O O9 0.953207 0.144042 0.872294
O O10 0.000000 0.093830 0.750000
O O11 0.988905 0.927310 0.874135
O O12 0.631172 0.478242 0.123623
O O13 0.356341 0.734656 0.347261
O O14 0.072663 0.662098 0.695996
O O15 0.000000 0.741072 0.750000
#
# Coordination Sequence:
#
# PCOD9260990 Si02
#       7
#     8   8   8   8   8   8   8
#     4  10  18  39  65  93 117 162 217 254 294 375
#     4  12  22  38  65  93 124 164 202 259 314 364
#     4  10  21  38  65  90 128 165 208 261 306 356
#     4  10  23  40  61 100 122 158 218 256 305 373
#     4  10  20  38  64  89 130 157 203 260 310 361
#     4  11  23  40  64  96 126 160 209 255 310 380
#     4  11  22  40  64  89 122 168 215 253 302 369
#
# _framework density 22.685687999999999
#
# number of rings (size 3 to 8) (size 9 to 14) (size 15 to 20)
#    0.000    1.429    2.857    3.857    2.000    1.714 
#    0.000    5.000    0.000    0.000    0.000    0.000 
#    0.000    0.000    0.000    0.000    0.000    0.000 
#
# Total GULP energy -156544.539111 kJ/mol
# GULP energy per Si atom -5590.876397 kJ/mol
# Density = 2.263405 g / cm^3
# Si number density = 22.685688 Si / 1000 Ang^3
#
#
#
# Elastic Constant Matrix: (Units=GPa)
#
#
# Indices 1 2 3 4 5 6 
#
# 1 155.0958 36.1884 8.4575 0.0000 -3.5708 0.0000
# 2 36.1884 88.9743 -2.2479 0.0000 -13.1592 0.0000
# 3 8.4575 -2.2479 46.1001 0.0000 11.7415 0.0000
# 4 0.0000 0.0000 0.0000 24.2262 0.0000 -7.1801
# 5 -3.5708 -13.1592 11.7415 0.0000 34.9043 0.0000
# 6 0.0000 0.0000 0.0000 -7.1801 0.0000 35.3525
#
#
#
# Elastic Compliance Matrix: (Units=1/GPa)
#
#
# Indices 1 2 3 4 5 6 
#
# 1 0.007222 -0.002956 -0.001502 0.000000 0.000130 0.000000
# 2 -0.002956 0.013129 -0.000001 0.000000 0.004648 0.000000
# 3 -0.001502 -0.000001 0.024069 0.000000 -0.008251 0.000000
# 4 0.000000 0.000000 0.000000 0.043921 0.000000 0.008920
# 5 0.000130 0.004648 -0.008251 0.000000 0.033191 0.000000
# 6 0.000000 0.000000 0.000000 0.008920 0.000000 0.030098
#
#
# Mechanical properties :
#
#
# Convention : Reuss Voigt Hill
#
# Bulk Modulus (GPa) = 28.16837 41.66291 34.91564
# Shear Modulus (GPa) = 29.00510 35.41475 32.20992
#
# Velocity S-wave (km/s) = 3.57958 3.95537 3.77216
# Velocity P-wave (km/s) = 5.43399 6.26619 5.86487
#
# Compressibility (1/GPa) = 0.03550081
#
# Stress axis : x y z
#
# Youngs Moduli (GPa) = 138.45970 76.16742 41.54744
#
# Poissons Ratio (x) = 0.22517 0.06241
# Poissons Ratio (y) = 0.40933 0.00005
# Poissons Ratio (z) = 0.20799 0.00009
#
# Static dielectric constant tensor:
#      x y z
#    x 1.871960 0.000000 -0.001640 
#    y 0.000000 1.851760 0.000000 
#    z -0.001640 0.000000 1.929520 
# 
# From -- ./inp_files/177641.got.cif
#   From: 2010.05.17/outbox.cif.g08.bks.cpg/sg15_89_cif.got.tgz:177641.got - 2010.06.03 18:47:42.
