data_PCOD9260433
_publ_section_title
;
Structure prediction by ZEFSAII (Michael W. Deem and Ramdas Pophale) SiO2 
 PCOD9260433
Probable space group: C 2/C
;
_chemical_formula_sum "Si O2"
_cell_formula_units_Z 40
_cell_length_a 9.138017
_cell_length_b 16.073003
_cell_length_c 21.264954
_cell_angle_alpha 90.000000
_cell_angle_beta 138.272582
_cell_angle_gamma 90.000000
_cell_volume 2078.828385
_symmetry_space_group_name_H-M "C 2/C"
_symmetry_group_IT_number 15
_symmetry_cell_setting 'monoclinic'
loop_
_space_group_symop_operation_xyz
x,y,z
-x,y,1/2-z
-x,-y,-z
x,-y,1/2+z
1/2+x,1/2+y,z
1/2-x,1/2+y,1/2-z
1/2-x,1/2-y,-z
1/2+x,1/2-y,1/2+z
loop_
_atom_site_type_symbol
_atom_site_label
_atom_site_fract_x
_atom_site_fract_y
_atom_site_fract_z
Si Si1 0.939168 0.058703 0.540509
Si Si2 0.919600 0.541857 0.394137
Si Si3 0.932085 0.369177 0.025530
Si Si4 0.008367 0.819569 0.541965
Si Si5 0.229188 0.552247 0.291247
O O1 0.683660 0.053372 0.473986
O O2 0.984443 0.149291 0.527482
O O3 0.000000 0.000000 0.500000
O O4 0.093776 0.021502 0.643482
O O5 0.906439 0.441862 0.398425
O O6 0.846044 0.593578 0.431449
O O7 0.810575 0.569637 0.294486
O O8 0.038534 0.278851 0.053047
O O9 0.725139 0.350390 0.004411
O O10 0.185123 0.868613 0.641415
O O11 0.000000 0.525497 0.250000
#
# Coordination Sequence:
#
# PCOD9260433 Si02
#       5
#     8   8   8   8   8
#     4  10  18  37  62  84 112 161 195 235 294 347
#     4  11  21  39  62  87 117 160 194 241 299 354
#     4  10  22  39  59  86 123 151 190 252 304 339
#     4  10  20  40  61  84 120 156 194 246 296 346
#     4  11  19  36  64  86 116 157 206 232 285 361
#
# _framework density 19.241606999999998
#
# number of rings (size 3 to 8) (size 9 to 14) (size 15 to 20)
#    0.000    1.600    8.000    0.000    0.000    1.600 
#    3.600    0.000    0.000    0.000    0.000    0.000 
#    0.000    0.000    0.000    0.000    0.000    0.000 
#
# Total GULP energy -111515.433981 kJ/mol
# GULP energy per Si atom -5575.771699 kJ/mol
# Density = 1.919781 g / cm^3
# Si number density = 19.241607 Si / 1000 Ang^3
#
#
#
# Elastic Constant Matrix: (Units=GPa)
#
#
# Indices 1 2 3 4 5 6 
#
# 1 34.2737 28.9662 2.6645 0.0000 -6.7061 0.0000
# 2 28.9662 138.4248 33.1225 0.0000 -0.4060 0.0000
# 3 2.6645 33.1225 89.6365 0.0000 -9.8439 0.0000
# 4 0.0000 0.0000 0.0000 9.7848 0.0000 -3.0420
# 5 -6.7061 -0.4060 -9.8439 0.0000 28.3265 0.0000
# 6 0.0000 0.0000 0.0000 -3.0420 0.0000 22.0093
#
#
#
# Elastic Compliance Matrix: (Units=1/GPa)
#
#
# Indices 1 2 3 4 5 6 
#
# 1 0.038288 -0.008748 0.003198 0.000000 0.010050 0.000000
# 2 -0.008748 0.009948 -0.003772 0.000000 -0.003239 0.000000
# 3 0.003198 -0.003772 0.013029 0.000000 0.005231 0.000000
# 4 0.000000 0.000000 0.000000 0.106788 0.000000 0.014760
# 5 0.010050 -0.003239 0.005231 0.000000 0.039453 0.000000
# 6 0.000000 0.000000 0.000000 0.014760 0.000000 0.047475
#
#
# Mechanical properties :
#
#
# Convention : Reuss Voigt Hill
#
# Bulk Modulus (GPa) = 23.46183 43.53793 33.49988
# Shear Modulus (GPa) = 17.37128 25.19623 21.28376
#
# Velocity S-wave (km/s) = 3.00792 3.62258 3.32946
# Velocity P-wave (km/s) = 4.92780 6.33826 5.67700
#
# Compressibility (1/GPa) = 0.04262242
#
# Stress axis : x y z
#
# Youngs Moduli (GPa) = 26.11788 100.52649 76.75044
#
# Poissons Ratio (x) = 0.87938 -0.24546
# Poissons Ratio (y) = 0.22847 0.28947
# Poissons Ratio (z) = -0.08353 0.37914
#
# Static dielectric constant tensor:
#      x y z
#    x 1.713020 0.000000 -0.006960 
#    y 0.000000 1.714770 0.000000 
#    z -0.006960 0.000000 1.679850 
# 
# From -- ./inp_files/133303.got.cif
#   From: 2010.05.17/outbox.cif.g08.bks.cpg/sg15_67_cif.got.tgz:133303.got - 2010.06.03 18:47:42.
