data_PCOD9260561
_publ_section_title
;
Structure prediction by ZEFSAII (Michael W. Deem and Ramdas Pophale) SiO2 
 PCOD9260561
Probable space group: C 2/C
;
_chemical_formula_sum "Si O2"
_cell_formula_units_Z 60
_cell_length_a 7.672981
_cell_length_b 14.926451
_cell_length_c 22.207279
_cell_angle_alpha 90.000000
_cell_angle_beta 77.888541
_cell_angle_gamma 90.000000
_cell_volume 2486.795019
_symmetry_space_group_name_H-M "C 2/C"
_symmetry_group_IT_number 15
_symmetry_cell_setting 'monoclinic'
loop_
_space_group_symop_operation_xyz
x,y,z
-x,y,1/2-z
-x,-y,-z
x,-y,1/2+z
1/2+x,1/2+y,z
1/2-x,1/2+y,1/2-z
1/2-x,1/2-y,-z
1/2+x,1/2-y,1/2+z
loop_
_atom_site_type_symbol
_atom_site_label
_atom_site_fract_x
_atom_site_fract_y
_atom_site_fract_z
Si Si1 0.826723 0.947432 0.487237
Si Si2 0.000000 0.179651 0.750000
Si Si3 0.509115 0.261326 0.030581
Si Si4 0.405411 0.808437 0.416304
Si Si5 0.476128 0.475508 0.350959
Si Si6 0.642083 0.997165 0.114151
Si Si7 0.977669 0.684715 0.341839
Si Si8 0.104343 0.173050 0.183993
O O1 0.667425 0.980475 0.541245
O O2 0.868878 0.844130 0.495283
O O3 0.831088 0.960144 0.414804
O O4 0.000000 0.000000 0.500000
O O5 0.015513 0.107690 0.803754
O O6 0.888327 0.255160 0.796693
O O7 0.308501 0.300891 0.056340
O O8 0.569727 0.220358 0.088905
O O9 0.492173 0.195147 0.975603
O O10 0.455629 0.722436 0.372867
O O11 0.443713 0.899207 0.377567
O O12 0.662452 0.491478 0.371091
O O13 0.419783 0.566604 0.321917
O O14 0.552487 0.078817 0.155597
O O15 0.189894 0.698615 0.322301
O O16 0.000000 0.204244 0.250000
#
# Coordination Sequence:
#
# PCOD9260561 Si02
#       8
#     8   4   8   8   8   8   8   8
#     4  10  18  37  67  99 130 175 223 264 333 418
#     4  12  24  48  72  90 144 182 226 290 334 402
#     4  10  19  39  65  99 136 177 219 278 337 401
#     4  10  20  39  69  98 137 174 221 280 340 395
#     4  11  22  44  73  99 128 187 234 262 341 423
#     4  11  24  43  70 104 137 176 222 290 344 403
#     4  11  27  45  65 102 142 171 229 294 344 386
#     4  11  25  47  68  97 131 185 235 277 336 426
#
# _framework density 24.12744
#
# number of rings (size 3 to 8) (size 9 to 14) (size 15 to 20)
#    0.000    1.333    4.667    2.400    5.600    1.067 
#    3.600    0.000    0.000    0.000    0.000    0.000 
#    0.000    0.000    0.000    0.000    0.000    0.000 
#
# Total GULP energy -167642.496173 kJ/mol
# GULP energy per Si atom -5588.083206 kJ/mol
# Density = 2.407252 g / cm^3
# Si number density = 24.127440 Si / 1000 Ang^3
#
#
#
# Elastic Constant Matrix: (Units=GPa)
#
#
# Indices 1 2 3 4 5 6 
#
# 1 41.0373 6.0157 31.8305 0.0000 -1.0623 0.0000
# 2 6.0157 137.6539 35.5416 0.0000 1.4243 0.0000
# 3 31.8305 35.5416 141.6877 0.0000 4.5699 0.0000
# 4 0.0000 0.0000 0.0000 55.0072 0.0000 -1.8849
# 5 -1.0623 1.4243 4.5699 0.0000 33.2498 0.0000
# 6 0.0000 0.0000 0.0000 -1.8849 0.0000 12.2535
#
#
#
# Elastic Compliance Matrix: (Units=1/GPa)
#
#
# Indices 1 2 3 4 5 6 
#
# 1 0.029652 0.000449 -0.006834 0.000000 0.001867 0.000000
# 2 0.000449 0.007775 -0.002050 0.000000 -0.000037 0.000000
# 3 -0.006834 -0.002050 0.009152 0.000000 -0.001388 0.000000
# 4 0.000000 0.000000 0.000000 0.018276 0.000000 0.002811
# 5 0.001867 -0.000037 -0.001388 0.000000 0.030327 0.000000
# 6 0.000000 0.000000 0.000000 0.002811 0.000000 0.082042
#
#
# Mechanical properties :
#
#
# Convention : Reuss Voigt Hill
#
# Bulk Modulus (GPa) = 33.66025 51.90605 42.78315
# Shear Modulus (GPa) = 24.51029 36.56817 30.53923
#
# Velocity S-wave (km/s) = 3.19073 3.89733 3.56159
# Velocity P-wave (km/s) = 5.24934 6.46624 5.88930
#
# Compressibility (1/GPa) = 0.02970864
#
# Stress axis : x y z
#
# Youngs Moduli (GPa) = 33.72508 128.62338 109.26429
#
# Poissons Ratio (x) = -0.05781 0.74674
# Poissons Ratio (y) = -0.01516 0.22399
# Poissons Ratio (z) = 0.23049 0.26368
#
# Static dielectric constant tensor:
#      x y z
#    x 2.009930 0.000000 -0.015420 
#    y 0.000000 1.914870 0.000000 
#    z -0.015420 0.000000 1.933320 
# 
# From -- ./inp_files/264669.got.cif
#   From: 2010.05.17/outbox.cif.g08.bks.cpg/sg15_133_cif.got.tgz:264669.got - 2010.06.03 18:47:42.
