data_PCOD9260998
_publ_section_title
;
Structure prediction by ZEFSAII (Michael W. Deem and Ramdas Pophale) SiO2 
 PCOD9260998
Probable space group: C 2/C
;
_chemical_formula_sum "Si O2"
_cell_formula_units_Z 44
_cell_length_a 15.414704
_cell_length_b 13.361260
_cell_length_c 9.121629
_cell_angle_alpha 90.000000
_cell_angle_beta 116.707496
_cell_angle_gamma 90.000000
_cell_volume 1678.256999
_symmetry_space_group_name_H-M "C 2/C"
_symmetry_group_IT_number 15
_symmetry_cell_setting 'monoclinic'
loop_
_space_group_symop_operation_xyz
x,y,z
-x,y,1/2-z
-x,-y,-z
x,-y,1/2+z
1/2+x,1/2+y,z
1/2-x,1/2+y,1/2-z
1/2-x,1/2-y,-z
1/2+x,1/2-y,1/2+z
loop_
_atom_site_type_symbol
_atom_site_label
_atom_site_fract_x
_atom_site_fract_y
_atom_site_fract_z
Si Si1 0.186679 0.896417 0.084516
Si Si2 0.863463 0.696123 0.453164
Si Si3 0.502378 0.347682 0.083646
Si Si4 0.500000 0.940475 0.250000
Si Si5 0.823837 0.710108 0.932854
Si Si6 0.667711 0.935661 0.818610
O O1 0.167140 0.795315 0.977648
O O2 0.259732 0.845681 0.260549
O O3 0.077659 0.922092 0.056500
O O4 0.243842 0.991050 0.069244
O O5 0.927378 0.628521 0.604229
O O6 0.798461 0.627288 0.298240
O O7 0.930538 0.748460 0.380372
O O8 0.500000 0.379621 0.250000
O O9 0.399860 0.299429 0.954764
O O10 0.427068 0.001847 0.297205
O O11 0.750000 0.750000 0.000000
O O12 0.869826 0.621918 0.065805
#
# Coordination Sequence:
#
# PCOD9260998 Si02
#       6
#     8   8   8   4   8   8
#     4  10  24  39  66 101 133 171 228 279 339 400
#     4  10  22  41  64  96 134 171 218 281 340 390
#     4  10  18  39  66  93 125 174 224 270 329 389
#     4  12  24  38  66  98 140 170 222 292 340 390
#     4  12  19  38  71  90 131 179 219 279 332 390
#     4  12  22  39  65 107 128 170 234 280 334 401
#
# _framework density 26.217676000000001
#
# number of rings (size 3 to 8) (size 9 to 14) (size 15 to 20)
#    1.091    0.000    5.455    3.818    0.000    0.727 
#    0.000    0.909    0.000    0.000    2.364    0.000 
#    0.000    0.000    0.000    0.000    0.000    0.000 
#
# Total GULP energy -122551.851748 kJ/mol
# GULP energy per Si atom -5570.538716 kJ/mol
# Density = 2.615800 g / cm^3
# Si number density = 26.217676 Si / 1000 Ang^3
#
#
#
# Elastic Constant Matrix: (Units=GPa)
#
#
# Indices 1 2 3 4 5 6 
#
# 1 104.0055 13.2152 -10.9208 0.0000 24.0566 0.0000
# 2 13.2152 44.4122 -1.9130 0.0000 16.0148 0.0000
# 3 -10.9208 -1.9130 76.2001 0.0000 24.5642 0.0000
# 4 0.0000 0.0000 0.0000 32.6737 0.0000 19.3266
# 5 24.0566 16.0148 24.5642 0.0000 35.3754 0.0000
# 6 0.0000 0.0000 0.0000 19.3266 0.0000 40.2595
#
#
#
# Elastic Compliance Matrix: (Units=1/GPa)
#
#
# Indices 1 2 3 4 5 6 
#
# 1 0.013454 0.001477 0.006610 0.000000 -0.014407 0.000000
# 2 0.001477 0.029325 0.007152 0.000000 -0.019246 0.000000
# 3 0.006610 0.007152 0.021572 0.000000 -0.022712 0.000000
# 4 0.000000 0.000000 0.000000 0.042742 0.000000 -0.020518
# 5 -0.014407 -0.019246 -0.022712 0.000000 0.062549 0.000000
# 6 0.000000 0.000000 0.000000 -0.020518 0.000000 0.034689
#
#
# Mechanical properties :
#
#
# Convention : Reuss Voigt Hill
#
# Bulk Modulus (GPa) = 10.54555 25.04230 17.79392
# Shear Modulus (GPa) = 24.33526 36.61081 30.47304
#
# Velocity S-wave (km/s) = 3.04994 3.74092 3.41296
# Velocity P-wave (km/s) = 4.05388 5.31335 4.72576
#
# Compressibility (1/GPa) = 0.09482672
#
# Stress axis : x y z
#
# Youngs Moduli (GPa) = 74.32939 34.10039 46.35733
#
# Poissons Ratio (x) = -0.05035 -0.30640
# Poissons Ratio (y) = -0.10975 -0.33155
# Poissons Ratio (z) = -0.49128 -0.24389
#
# Static dielectric constant tensor:
#      x y z
#    x 2.206060 0.000000 0.032490 
#    y 0.000000 2.395180 0.000000 
#    z 0.032490 0.000000 2.075730 
# 
# From -- ./inp_files/105508.got.cif
#   From: 2010.05.17/outbox.cif.g08.bks.cpg/sg15_53_cif.got.tgz:105508.got - 2010.06.03 18:47:42.
