data_PCOD9260186
_publ_section_title
;
Structure prediction by ZEFSAII (Michael W. Deem and Ramdas Pophale) SiO2 
 PCOD9260186
Probable space group: C 2/C
;
_chemical_formula_sum "Si O2"
_cell_formula_units_Z 44
_cell_length_a 17.142976
_cell_length_b 8.723845
_cell_length_c 14.428988
_cell_angle_alpha 90.000000
_cell_angle_beta 122.324547
_cell_angle_gamma 90.000000
_cell_volume 1823.490938
_symmetry_space_group_name_H-M "C 2/C"
_symmetry_group_IT_number 15
_symmetry_cell_setting 'monoclinic'
loop_
_space_group_symop_operation_xyz
x,y,z
-x,y,1/2-z
-x,-y,-z
x,-y,1/2+z
1/2+x,1/2+y,z
1/2-x,1/2+y,1/2-z
1/2-x,1/2-y,-z
1/2+x,1/2-y,1/2+z
loop_
_atom_site_type_symbol
_atom_site_label
_atom_site_fract_x
_atom_site_fract_y
_atom_site_fract_z
Si Si1 0.202200 0.874399 0.639787
Si Si2 0.576974 0.963611 0.417316
Si Si3 0.636123 0.968079 0.152390
Si Si4 0.381903 0.697259 0.598548
Si Si5 0.500000 0.272808 0.750000
Si Si6 0.573620 0.452122 0.183644
O O1 0.172389 0.706284 0.659859
O O2 0.192737 0.857099 0.523448
O O3 0.133308 0.008880 0.632587
O O4 0.298540 0.930712 0.741886
O O5 0.631601 0.953353 0.547941
O O6 0.605770 0.121957 0.389373
O O7 0.468228 0.966202 0.375744
O O8 0.580849 0.827572 0.346529
O O9 0.373438 0.621321 0.694169
O O10 0.480568 0.645378 0.615880
O O11 0.460782 0.383548 0.802809
#
# Coordination Sequence:
#
# PCOD9260186 Si02
#       6
#     8   8   8   8   4   8
#     4  11  22  42  58  93 124 160 201 257 299 358
#     4  10  20  42  61  89 118 164 201 249 302 372
#     4  10  24  39  63  88 124 160 205 246 309 357
#     4   9  21  38  65  89 119 163 200 245 311 355
#     4  10  18  36  64  86 120 152 210 246 294 356
#     4  10  21  38  62  95 119 159 206 249 300 367
#
# _framework density 24.129542000000001
#
# number of rings (size 3 to 8) (size 9 to 14) (size 15 to 20)
#    0.000    2.182    1.818    1.636    2.545    2.909 
#    3.273    3.636    0.000    0.000    0.000    0.000 
#    0.000    0.000    0.000    0.000    0.000    0.000 
#
# Total GULP energy -123168.446866 kJ/mol
# GULP energy per Si atom -5598.565767 kJ/mol
# Density = 2.407462 g / cm^3
# Si number density = 24.129542 Si / 1000 Ang^3
#
#
#
# Elastic Constant Matrix: (Units=GPa)
#
#
# Indices 1 2 3 4 5 6 
#
# 1 73.4958 15.8340 11.9090 0.0000 6.7577 0.0000
# 2 15.8340 101.7523 45.5869 0.0000 2.0430 0.0000
# 3 11.9090 45.5869 130.4868 0.0000 4.7124 0.0000
# 4 0.0000 0.0000 0.0000 17.5998 0.0000 -11.2121
# 5 6.7577 2.0430 4.7124 0.0000 28.5760 0.0000
# 6 0.0000 0.0000 0.0000 -11.2121 0.0000 26.7394
#
#
#
# Elastic Compliance Matrix: (Units=1/GPa)
#
#
# Indices 1 2 3 4 5 6 
#
# 1 0.014402 -0.001944 -0.000520 0.000000 -0.003181 0.000000
# 2 -0.001944 0.011915 -0.003995 0.000000 0.000267 0.000000
# 3 -0.000520 -0.003995 0.009146 0.000000 -0.001100 0.000000
# 4 0.000000 0.000000 0.000000 0.077529 0.000000 0.032508
# 5 -0.003181 0.000267 -0.001100 0.000000 0.035909 0.000000
# 6 0.000000 0.000000 0.000000 0.032508 0.000000 0.051029
#
#
# Mechanical properties :
#
#
# Convention : Reuss Voigt Hill
#
# Bulk Modulus (GPa) = 44.35653 50.26608 47.31130
# Shear Modulus (GPa) = 22.68986 30.07671 26.38329
#
# Velocity S-wave (km/s) = 3.06982 3.53437 3.31025
# Velocity P-wave (km/s) = 5.56665 6.12639 5.85321
#
# Compressibility (1/GPa) = 0.02254460
#
# Stress axis : x y z
#
# Youngs Moduli (GPa) = 69.43549 83.93006 109.33253
#
# Poissons Ratio (x) = 0.16317 0.05689
# Poissons Ratio (y) = 0.13499 0.43675
# Poissons Ratio (z) = 0.03613 0.33528
#
# Static dielectric constant tensor:
#      x y z
#    x 2.013780 0.000000 0.017600 
#    y 0.000000 1.904990 0.000000 
#    z 0.017600 0.000000 1.925620 
# 
# From -- ./inp_files/218721.got.cif
#   From: 2010.05.17/outbox.cif.g08.bks.cpg/sg15_110_cif.got.tgz:218721.got - 2010.06.03 18:47:42.
