data_PCOD9260118
_publ_section_title
;
Structure prediction by ZEFSAII (Michael W. Deem and Ramdas Pophale) SiO2 
 PCOD9260118
Probable space group: C 2/C
;
_chemical_formula_sum "Si O2"
_cell_formula_units_Z 52
_cell_length_a 22.023083
_cell_length_b 14.730356
_cell_length_c 14.850795
_cell_angle_alpha 90.000000
_cell_angle_beta 25.860567
_cell_angle_gamma 90.000000
_cell_volume 2101.403135
_symmetry_space_group_name_H-M "C 2/C"
_symmetry_group_IT_number 15
_symmetry_cell_setting 'monoclinic'
loop_
_space_group_symop_operation_xyz
x,y,z
-x,y,1/2-z
-x,-y,-z
x,-y,1/2+z
1/2+x,1/2+y,z
1/2-x,1/2+y,1/2-z
1/2-x,1/2-y,-z
1/2+x,1/2-y,1/2+z
loop_
_atom_site_type_symbol
_atom_site_label
_atom_site_fract_x
_atom_site_fract_y
_atom_site_fract_z
Si Si1 0.500000 0.318623 0.250000
Si Si2 0.245708 0.230699 0.685385
Si Si3 0.131404 0.586365 0.788010
Si Si4 0.917388 0.613361 0.201560
Si Si5 0.697541 0.577473 0.629167
Si Si6 0.112817 0.891804 0.674314
Si Si7 0.458726 0.214460 0.908040
O O1 0.399040 0.259017 0.448127
O O2 0.403976 0.377757 0.310839
O O3 0.151725 0.296587 0.745511
O O4 0.190053 0.131629 0.731547
O O5 0.195183 0.260494 0.851873
O O6 0.143091 0.478257 0.765833
O O7 0.258884 0.628735 0.563563
O O8 0.003566 0.624405 0.899803
O O9 0.080082 0.612470 0.956469
O O10 0.854594 0.596579 0.383723
O O11 0.660253 0.471754 0.677071
O O12 0.000000 0.922900 0.750000
O O13 0.052231 0.803882 0.804786
O O14 0.500000 0.199930 0.750000
#
# Coordination Sequence:
#
# PCOD9260118 Si02
#       7
#     4   8   8   8   8   8   8
#     4  10  18  36  62  92 120 152 194 254 310 356
#     4  10  21  38  61  94 121 157 205 248 306 360
#     4   9  17  34  62  86 118 159 197 242 299 353
#     4   8  16  32  60  88 116 151 189 239 300 361
#     4  10  19  36  62  88 122 155 203 250 302 367
#     4  10  20  37  59  87 120 162 205 244 297 368
#     4  10  22  41  60  87 121 160 211 248 292 364
#
# _framework density 24.745370999999999
#
# number of rings (size 3 to 8) (size 9 to 14) (size 15 to 20)
#    0.000    2.462    0.769    2.308    0.000    0.615 
#   19.385    0.000   15.231    0.000    0.000    0.000 
#    0.000    0.000    0.000    0.000    0.000    0.000 
#
# Total GULP energy -145095.703218 kJ/mol
# GULP energy per Si atom -5580.603970 kJ/mol
# Density = 2.468905 g / cm^3
# Si number density = 24.745371 Si / 1000 Ang^3
#
#
#
# Elastic Constant Matrix: (Units=GPa)
#
#
# Indices 1 2 3 4 5 6 
#
# 1 64.7620 21.9457 4.5931 0.0000 1.5101 0.0000
# 2 21.9457 102.7459 4.0237 0.0001 6.1607 0.0000
# 3 4.5931 4.0237 148.2515 0.0002 -3.8587 0.0000
# 4 0.0000 0.0001 0.0002 -8.8672 0.0000 7.4903
# 5 1.5101 6.1607 -3.8587 0.0000 25.4068 0.0000
# 6 0.0000 0.0000 0.0000 7.4903 0.0000 21.4521
#
#
#
# Elastic Compliance Matrix: (Units=1/GPa)
#
#
# Indices 1 2 3 4 5 6 
#
# 1 0.016673 -0.003533 -0.000426 0.000000 -0.000199 0.000000
# 2 -0.003533 0.010641 -0.000242 0.000000 -0.002407 0.000000
# 3 -0.000426 -0.000242 0.006794 0.000000 0.001116 0.000000
# 4 0.000000 0.000000 0.000000 -0.087089 0.000000 0.030408
# 5 -0.000199 -0.002407 0.001116 0.000000 0.040124 0.000000
# 6 0.000000 0.000000 0.000000 0.030408 0.000000 0.035998
#
#
# Mechanical properties :
#
#
# Convention : Reuss Voigt Hill
#
# Bulk Modulus (GPa) = 38.89951 41.87606 40.38778
# Shear Modulus (GPa) = 124.65051 26.61147 75.63099
#
# Velocity S-wave (km/s) = 7.10511 3.28291 5.53444
# Velocity P-wave (km/s) = 9.11396 5.59727 7.56286
#
# Compressibility (1/GPa) = 0.02570727
#
# Stress axis : x y z
#
# Youngs Moduli (GPa) = 59.97687 93.97532 147.18647
#
# Poissons Ratio (x) = 0.33198 0.06268
# Poissons Ratio (y) = 0.21188 0.03562
# Poissons Ratio (z) = 0.02554 0.02274
#
# Static dielectric constant tensor:
#      x y z
#    x 1.991730 0.000000 -0.026950 
#    y 0.000000 1.956760 0.000000 
#    z -0.026950 0.000000 2.039150 
# 
# From -- ./inp_files/225475.got.cif
#   From: 2010.05.17/outbox.cif.g08.bks.cpg/sg15_113_cif.got.tgz:225475.got - 2010.06.03 18:47:42.
