data_PCOD9260367
_publ_section_title
;
Structure prediction by ZEFSAII (Michael W. Deem and Ramdas Pophale) SiO2 
 PCOD9260367
Probable space group: C 2/C
;
_chemical_formula_sum "Si O2"
_cell_formula_units_Z 60
_cell_length_a 16.597588
_cell_length_b 19.651120
_cell_length_c 9.285271
_cell_angle_alpha 90.000000
_cell_angle_beta 72.851044
_cell_angle_gamma 90.000000
_cell_volume 2893.852496
_symmetry_space_group_name_H-M "C 2/C"
_symmetry_group_IT_number 15
_symmetry_cell_setting 'monoclinic'
loop_
_space_group_symop_operation_xyz
x,y,z
-x,y,1/2-z
-x,-y,-z
x,-y,1/2+z
1/2+x,1/2+y,z
1/2-x,1/2+y,1/2-z
1/2-x,1/2-y,-z
1/2+x,1/2-y,1/2+z
loop_
_atom_site_type_symbol
_atom_site_label
_atom_site_fract_x
_atom_site_fract_y
_atom_site_fract_z
Si Si1 0.859390 0.729523 0.338317
Si Si2 0.000000 0.159066 0.250000
Si Si3 0.235317 0.693200 0.718771
Si Si4 0.681956 0.663580 0.126382
Si Si5 0.027223 0.413978 0.035012
Si Si6 0.000477 0.262769 0.990352
Si Si7 0.636837 0.054415 0.757884
Si Si8 0.821739 0.408390 0.745348
O O1 0.786255 0.781059 0.330844
O O2 0.912966 0.744357 0.450857
O O3 0.825317 0.651939 0.359360
O O4 0.925468 0.735681 0.168758
O O5 0.906730 0.126638 0.294179
O O6 0.991193 0.204413 0.397633
O O7 0.297068 0.675629 0.551810
O O8 0.182906 0.759779 0.693367
O O9 0.184877 0.623960 0.765268
O O10 0.758956 0.621880 0.157622
O O11 0.086109 0.437163 0.135294
O O12 0.937507 0.451278 0.083407
O O13 0.082361 0.412658 0.862713
O O14 0.004918 0.334594 0.068738
O O15 0.694876 0.987453 0.713999
#
# Coordination Sequence:
#
# PCOD9260367 Si02
#       8
#     8   4   8   8   8   8   8   8
#     4   9  20  36  57  83 120 157 190 244 300 344
#     4  12  20  34  62  90 110 150 208 252 290 348
#     4  10  18  37  59  85 114 157 200 244 297 350
#     4  10  20  36  61  85 115 151 203 250 295 350
#     4  10  20  34  53  83 119 158 193 227 289 364
#     4  10  19  34  57  87 118 151 197 241 294 351
#     4  11  21  33  57  85 118 157 201 236 281 365
#     4  10  21  37  53  82 122 160 188 239 303 351
#
# _framework density 20.733606999999999
#
# number of rings (size 3 to 8) (size 9 to 14) (size 15 to 20)
#    0.000    1.867    2.667    2.800    0.000    5.333 
#    0.000    7.333    0.000    2.400    0.000    0.000 
#    0.000    0.000    0.000    0.000    0.000    0.000 
#
# Total GULP energy -167493.986339 kJ/mol
# GULP energy per Si atom -5583.132878 kJ/mol
# Density = 2.068642 g / cm^3
# Si number density = 20.733607 Si / 1000 Ang^3
#
#
#
# Elastic Constant Matrix: (Units=GPa)
#
#
# Indices 1 2 3 4 5 6 
#
# 1 94.4843 50.9942 17.8332 0.0000 0.2699 0.0000
# 2 50.9942 120.9374 19.0079 0.0000 13.1399 0.0000
# 3 17.8332 19.0079 65.4211 0.0000 2.9684 0.0000
# 4 0.0000 0.0000 0.0000 15.2251 0.0000 1.0523
# 5 0.2699 13.1399 2.9684 0.0000 39.8391 0.0000
# 6 0.0000 0.0000 0.0000 1.0523 0.0000 30.0793
#
#
#
# Elastic Compliance Matrix: (Units=1/GPa)
#
#
# Indices 1 2 3 4 5 6 
#
# 1 0.014149 -0.005829 -0.002254 0.000000 0.001994 0.000000
# 2 -0.005829 0.011360 -0.001549 0.000000 -0.003592 0.000000
# 3 -0.002254 -0.001549 0.016382 0.000000 -0.000694 0.000000
# 4 0.000000 0.000000 0.000000 0.065840 0.000000 -0.002303
# 5 0.001994 -0.003592 -0.000694 0.000000 0.026324 0.000000
# 6 0.000000 0.000000 0.000000 -0.002303 0.000000 0.033326
#
#
# Mechanical properties :
#
#
# Convention : Reuss Voigt Hill
#
# Bulk Modulus (GPa) = 44.19288 50.72371 47.45830
# Shear Modulus (GPa) = 25.74841 29.89585 27.82213
#
# Velocity S-wave (km/s) = 3.52784 3.80136 3.66715
# Velocity P-wave (km/s) = 6.16077 6.61700 6.39296
#
# Compressibility (1/GPa) = 0.02262808
#
# Stress axis : x y z
#
# Youngs Moduli (GPa) = 70.67521 88.02734 61.04432
#
# Poissons Ratio (x) = 0.51307 0.13759
# Poissons Ratio (y) = 0.41194 0.09455
# Poissons Ratio (z) = 0.15930 0.13634
#
# Static dielectric constant tensor:
#      x y z
#    x 1.788600 0.000000 -0.063440 
#    y 0.000000 1.768150 0.000000 
#    z -0.063440 0.000000 1.802090 
# 
# From -- ./inp_files/50204.got.cif
#   From: 2010.05.17/outbox.cif.g08.bks.cpg/sg15_26_cif.got.tgz:50204.got - 2010.06.03 18:47:42.
