data_PCOD9260216
_publ_section_title
;
Structure prediction by ZEFSAII (Michael W. Deem and Ramdas Pophale) SiO2 
 PCOD9260216
Probable space group: C 2/C
;
_chemical_formula_sum "Si O2"
_cell_formula_units_Z 48
_cell_length_a 9.962487
_cell_length_b 15.078729
_cell_length_c 18.680375
_cell_angle_alpha 90.000000
_cell_angle_beta 49.993526
_cell_angle_gamma 90.000000
_cell_volume 2149.467482
_symmetry_space_group_name_H-M "C 2/C"
_symmetry_group_IT_number 15
_symmetry_cell_setting 'monoclinic'
loop_
_space_group_symop_operation_xyz
x,y,z
-x,y,1/2-z
-x,-y,-z
x,-y,1/2+z
1/2+x,1/2+y,z
1/2-x,1/2+y,1/2-z
1/2-x,1/2-y,-z
1/2+x,1/2-y,1/2+z
loop_
_atom_site_type_symbol
_atom_site_label
_atom_site_fract_x
_atom_site_fract_y
_atom_site_fract_z
Si Si1 0.779477 0.751338 0.202873
Si Si2 0.302691 0.523119 0.900491
Si Si3 0.500000 0.671170 0.750000
Si Si4 0.000000 0.396274 0.250000
Si Si5 0.919969 0.285636 0.514464
Si Si6 0.994610 0.469575 0.097090
Si Si7 0.026842 0.155336 0.121224
O O1 0.670324 0.834978 0.207872
O O2 0.930575 0.721369 0.096170
O O3 0.482693 0.953764 0.327425
O O4 0.862606 0.775101 0.250591
O O5 0.403881 0.609132 0.841114
O O6 0.190860 0.494626 0.867912
O O7 0.431254 0.447522 0.885082
O O8 0.150839 0.528464 0.011858
O O9 0.870055 0.180748 0.226845
O O10 0.995680 0.198474 0.449653
O O11 0.707848 0.294885 0.580807
O O12 0.987450 0.372151 0.448170
#
# Coordination Sequence:
#
# PCOD9260216 Si02
#       7
#     8   8   4   4   8   8   8
#     4  12  22  38  66  97 133 176 227 269 319 399
#     4  10  22  39  61  96 135 174 215 266 340 392
#     4  12  26  41  60 101 146 176 208 282 346 375
#     4  12  18  39  68  93 126 172 230 268 324 397
#     4  10  18  36  64  99 117 166 233 270 311 393
#     4  10  21  39  68  98 130 173 221 275 332 394
#     4  10  19  35  65  96 119 168 233 262 310 400
#
# _framework density 22.331112999999998
#
# number of rings (size 3 to 8) (size 9 to 14) (size 15 to 20)
#    0.000    1.333    5.000    2.000    4.667    0.000 
#    0.000    6.667    0.000   14.000    0.000    0.000 
#    0.000    0.000    0.000    0.000    0.000    0.000 
#
# Total GULP energy -134017.724735 kJ/mol
# GULP energy per Si atom -5584.071864 kJ/mol
# Density = 2.228029 g / cm^3
# Si number density = 22.331113 Si / 1000 Ang^3
#
#
#
# Elastic Constant Matrix: (Units=GPa)
#
#
# Indices 1 2 3 4 5 6 
#
# 1 46.2438 24.5596 26.3084 0.0001 7.9091 0.0000
# 2 24.5596 51.7434 40.6612 0.0001 6.8295 0.0000
# 3 26.3084 40.6612 121.2975 0.0001 20.2163 0.0000
# 4 0.0001 0.0001 0.0001 18.6207 -0.0001 11.3523
# 5 7.9091 6.8295 20.2163 -0.0001 31.6251 0.0000
# 6 0.0000 0.0000 0.0000 11.3523 0.0000 17.7361
#
#
#
# Elastic Compliance Matrix: (Units=1/GPa)
#
#
# Indices 1 2 3 4 5 6 
#
# 1 0.029760 -0.012285 -0.001721 0.000000 -0.003689 0.000000
# 2 -0.012285 0.031310 -0.008077 0.000000 0.001474 0.000000
# 3 -0.001721 -0.008077 0.012270 0.000000 -0.005669 0.000000
# 4 0.000000 0.000000 0.000000 0.088071 0.000000 -0.056371
# 5 -0.003689 0.001474 -0.005669 0.000000 0.035848 0.000000
# 6 0.000000 0.000000 0.000000 -0.056371 0.000000 0.092463
#
#
# Mechanical properties :
#
#
# Convention : Reuss Voigt Hill
#
# Bulk Modulus (GPa) = 34.27968 44.70480 39.49224
# Shear Modulus (GPa) = 14.55129 22.11342 18.33236
#
# Velocity S-wave (km/s) = 2.55544 3.15024 2.86830
# Velocity P-wave (km/s) = 4.90826 5.77014 5.35656
#
# Compressibility (1/GPa) = 0.02917180
#
# Stress axis : x y z
#
# Youngs Moduli (GPa) = 33.60269 31.93912 81.50106
#
# Poissons Ratio (x) = 0.39239 0.14030
# Poissons Ratio (y) = 0.41283 0.65825
# Poissons Ratio (z) = 0.05784 0.25796
#
# Static dielectric constant tensor:
#      x y z
#    x 1.900150 0.000000 0.022570 
#    y 0.000000 1.873400 0.000000 
#    z 0.022570 0.000000 1.876390 
# 
# From -- ./inp_files/144705.got.cif
#   From: 2010.05.17/outbox.cif.g08.bks.cpg/sg15_73_cif.got.tgz:144705.got - 2010.06.03 18:47:42.
