data_PCOD9260048
_publ_section_title
;
Structure prediction by ZEFSAII (Michael W. Deem and Ramdas Pophale) SiO2 
 PCOD9260048
Probable space group: C 2/C
;
_chemical_formula_sum "Si O2"
_cell_formula_units_Z 44
_cell_length_a 16.481862
_cell_length_b 29.807926
_cell_length_c 9.399914
_cell_angle_alpha 90.000000
_cell_angle_beta 152.766814
_cell_angle_gamma 90.000000
_cell_volume 2113.295709
_symmetry_space_group_name_H-M "C 2/C"
_symmetry_group_IT_number 15
_symmetry_cell_setting 'monoclinic'
loop_
_space_group_symop_operation_xyz
x,y,z
-x,y,1/2-z
-x,-y,-z
x,-y,1/2+z
1/2+x,1/2+y,z
1/2-x,1/2+y,1/2-z
1/2-x,1/2-y,-z
1/2+x,1/2-y,1/2+z
loop_
_atom_site_type_symbol
_atom_site_label
_atom_site_fract_x
_atom_site_fract_y
_atom_site_fract_z
Si Si1 0.478295 0.210208 0.459543
Si Si2 0.751112 0.425069 0.032417
Si Si3 0.211983 0.201460 0.775840
Si Si4 0.500000 0.140580 0.750000
Si Si5 0.848240 0.099176 0.826782
Si Si6 0.367699 0.519393 0.675164
O O1 0.669290 0.206156 0.681518
O O2 0.435246 0.259820 0.450994
O O3 0.452221 0.173450 0.543062
O O4 0.340280 0.205386 0.113454
O O5 0.544783 0.416319 0.676654
O O6 0.772526 0.479063 0.063246
O O7 0.854449 0.393916 0.084070
O O8 0.779714 0.409244 0.238663
O O9 0.138186 0.151699 0.675106
O O10 0.792797 0.066858 0.611174
O O11 0.500000 0.525890 0.750000
O O12 0.500000 0.500000 0.000000
#
# Coordination Sequence:
#
# PCOD9260048 Si02
#       6
#     8   8   8   4   8   8
#     4  10  24  41  62  87 130 155 207 253 303 367
#     4  10  21  38  60  94 127 155 204 260 300 368
#     4  10  22  44  61  89 120 165 203 256 303 364
#     4  12  24  40  62  96 128 164 196 256 318 366
#     4  10  20  39  67  84 122 165 208 250 309 360
#     4  10  18  36  61  89 116 154 205 253 292 355
#
# _framework density 20.820558999999999
#
# number of rings (size 3 to 8) (size 9 to 14) (size 15 to 20)
#    0.000    1.818    5.455    0.000    2.545    5.091 
#    3.273    2.727    0.000    0.000    0.000    0.000 
#    0.000    0.000    0.000    0.000    0.000    0.000 
#
# Total GULP energy -122653.166553 kJ/mol
# GULP energy per Si atom -5575.143934 kJ/mol
# Density = 2.077317 g / cm^3
# Si number density = 20.820559 Si / 1000 Ang^3
#
#
#
# Elastic Constant Matrix: (Units=GPa)
#
#
# Indices 1 2 3 4 5 6 
#
# 1 147.5636 86.1258 18.8410 0.0000 -16.1237 0.0000
# 2 86.1258 209.2483 12.9888 0.0000 9.5140 0.0000
# 3 18.8410 12.9888 5.7280 0.0000 0.1761 0.0000
# 4 0.0000 0.0000 0.0000 9.8868 0.0000 -4.9062
# 5 -16.1237 9.5140 0.1761 0.0000 14.8327 0.0000
# 6 0.0000 0.0000 0.0000 -4.9062 0.0000 42.7823
#
#
#
# Elastic Compliance Matrix: (Units=1/GPa)
#
#
# Indices 1 2 3 4 5 6 
#
# 1 0.019905 -0.006133 -0.052371 0.000000 0.026193 0.000000
# 2 -0.006133 0.007630 0.003227 0.000000 -0.011599 0.000000
# 3 -0.052371 0.003227 0.341462 0.000000 -0.063052 0.000000
# 4 0.000000 0.000000 0.000000 0.107248 0.000000 0.012299
# 5 0.026193 -0.011599 -0.063052 0.000000 0.104079 0.000000
# 6 0.000000 0.000000 0.000000 0.012299 0.000000 0.024785
#
#
# Mechanical properties :
#
#
# Convention : Reuss Voigt Hill
#
# Bulk Modulus (GPa) = 3.86932 66.49457 35.18195
# Shear Modulus (GPa) = 6.23588 29.80598 18.02093
#
# Velocity S-wave (km/s) = 1.73250 3.78771 2.94519
# Velocity P-wave (km/s) = 2.42168 7.15089 5.33853
#
# Compressibility (1/GPa) = 0.25844358
#
# Stress axis : x y z
#
# Youngs Moduli (GPa) = 50.23890 131.05517 2.92858
#
# Poissons Ratio (x) = 0.80374 0.15337
# Poissons Ratio (y) = 0.30811 -0.00945
# Poissons Ratio (z) = 2.63105 -0.42286
#
# Static dielectric constant tensor:
#      x y z
#    x 1.778300 0.000000 -0.028820 
#    y 0.000000 1.805650 0.000000 
#    z -0.028820 0.000000 1.771130 
# 
# From -- ./inp_files/26228.got.cif
#   From: 2010.05.17/outbox.cif.g08.bks.cpg/sg15_14_cif.got.tgz:26228.got - 2010.06.03 18:47:42.
