data_PCOD9260805
_publ_section_title
;
Structure prediction by ZEFSAII (Michael W. Deem and Ramdas Pophale) SiO2 
 PCOD9260805
Probable space group: C 2/C
;
_chemical_formula_sum "Si O2"
_cell_formula_units_Z 48
_cell_length_a 12.929621
_cell_length_b 29.501499
_cell_length_c 10.919524
_cell_angle_alpha 90.000000
_cell_angle_beta 33.434477
_cell_angle_gamma 90.000000
_cell_volume 2294.942371
_symmetry_space_group_name_H-M "C 2/C"
_symmetry_group_IT_number 15
_symmetry_cell_setting 'monoclinic'
loop_
_space_group_symop_operation_xyz
x,y,z
-x,y,1/2-z
-x,-y,-z
x,-y,1/2+z
1/2+x,1/2+y,z
1/2-x,1/2+y,1/2-z
1/2-x,1/2-y,-z
1/2+x,1/2-y,1/2+z
loop_
_atom_site_type_symbol
_atom_site_label
_atom_site_fract_x
_atom_site_fract_y
_atom_site_fract_z
Si Si1 0.791562 0.069990 0.953295
Si Si2 0.128278 0.263161 0.030368
Si Si3 0.260750 0.672744 0.053363
Si Si4 0.350237 0.698189 0.713295
Si Si5 0.007049 0.448673 0.949908
Si Si6 0.000672 0.349880 0.466312
O O1 0.000000 0.051677 0.750000
O O2 0.792819 0.124182 0.958624
O O3 0.682889 0.058104 0.938552
O O4 0.674803 0.054756 0.186232
O O5 0.371975 0.250266 0.818485
O O6 0.127110 0.240664 0.897724
O O7 0.101566 0.317184 0.031459
O O8 0.089105 0.664561 0.313876
O O9 0.256175 0.705354 0.939770
O O10 0.441073 0.682489 0.958909
O O11 0.218956 0.664025 0.764847
O O12 0.024505 0.404218 0.020165
O O13 0.000000 0.500000 0.000000
#
# Coordination Sequence:
#
# PCOD9260805 Si02
#       6
#     8   8   8   8   8   8
#     4  10  18  38  64  91 132 161 193 273 333 377
#     4  12  25  43  57  84 129 182 220 248 305 392
#     4  10  20  37  64 101 120 149 213 266 338 375
#     4  11  21  39  63  92 123 161 210 268 318 383
#     4  10  22  39  64  98 125 164 217 262 329 394
#     4  11  22  41  66  87 130 171 207 275 326 369
#
# _framework density 20.915557
#
# number of rings (size 3 to 8) (size 9 to 14) (size 15 to 20)
#    0.000    1.333    5.000    1.500    0.000    1.333 
#    6.000    0.000    0.000    2.000    0.000    0.000 
#    0.000    0.000    0.000    0.000    0.000    0.000 
#
# Total GULP energy -133699.264273 kJ/mol
# GULP energy per Si atom -5570.802678 kJ/mol
# Density = 2.086795 g / cm^3
# Si number density = 20.915557 Si / 1000 Ang^3
#
#
#
# Elastic Constant Matrix: (Units=GPa)
#
#
# Indices 1 2 3 4 5 6 
#
# 1 109.2206 76.8934 26.8993 0.0000 -20.2689 0.0000
# 2 76.8934 179.8430 25.2722 0.0000 -0.5164 0.0000
# 3 26.8993 25.2722 72.9887 0.0000 -10.0706 0.0000
# 4 0.0000 0.0000 0.0000 19.3221 0.0000 7.0149
# 5 -20.2689 -0.5164 -10.0706 0.0000 44.4234 0.0000
# 6 0.0000 0.0000 0.0000 7.0149 0.0000 24.4857
#
#
#
# Elastic Compliance Matrix: (Units=1/GPa)
#
#
# Indices 1 2 3 4 5 6 
#
# 1 0.015314 -0.006159 -0.002640 0.000000 0.006317 0.000000
# 2 -0.006159 0.008328 -0.001020 0.000000 -0.002944 0.000000
# 3 -0.002640 -0.001020 0.015339 0.000000 0.002261 0.000000
# 4 0.000000 0.000000 0.000000 0.057762 0.000000 -0.016548
# 5 0.006317 -0.002944 0.002261 0.000000 0.025871 0.000000
# 6 0.000000 0.000000 0.000000 -0.016548 0.000000 0.045581
#
#
# Mechanical properties :
#
#
# Convention : Reuss Voigt Hill
#
# Bulk Modulus (GPa) = 51.69563 68.90913 60.30238
# Shear Modulus (GPa) = 25.73590 33.17873 29.45732
#
# Velocity S-wave (km/s) = 3.51161 3.98718 3.75693
# Velocity P-wave (km/s) = 6.41965 7.36306 6.90748
#
# Compressibility (1/GPa) = 0.01934399
#
# Stress axis : x y z
#
# Youngs Moduli (GPa) = 65.29973 120.07015 65.19388
#
# Poissons Ratio (x) = 0.73946 0.17210
# Poissons Ratio (y) = 0.40215 0.06652
# Poissons Ratio (z) = 0.17238 0.12251
#
# Static dielectric constant tensor:
#      x y z
#    x 1.812670 0.000000 -0.213730 
#    y 0.000000 1.817910 0.000000 
#    z -0.213730 0.000000 2.419370 
# 
# From -- ./inp_files/157050.got.cif
#   From: 2010.05.17/outbox.cif.g08.bks.cpg/sg15_79_cif.got.tgz:157050.got - 2010.06.03 18:47:42.
