data_PCOD9260695
_publ_section_title
;
Structure prediction by ZEFSAII (Michael W. Deem and Ramdas Pophale) SiO2 
 PCOD9260695
Probable space group: C 2/C
;
_chemical_formula_sum "Si O2"
_cell_formula_units_Z 60
_cell_length_a 20.934413
_cell_length_b 23.636031
_cell_length_c 12.618466
_cell_angle_alpha 90.000000
_cell_angle_beta 152.690161
_cell_angle_gamma 90.000000
_cell_volume 2864.622106
_symmetry_space_group_name_H-M "C 2/C"
_symmetry_group_IT_number 15
_symmetry_cell_setting 'monoclinic'
loop_
_space_group_symop_operation_xyz
x,y,z
-x,y,1/2-z
-x,-y,-z
x,-y,1/2+z
1/2+x,1/2+y,z
1/2-x,1/2+y,1/2-z
1/2-x,1/2-y,-z
1/2+x,1/2-y,1/2+z
loop_
_atom_site_type_symbol
_atom_site_label
_atom_site_fract_x
_atom_site_fract_y
_atom_site_fract_z
Si Si1 0.194784 0.010054 0.181516
Si Si2 0.277573 0.712623 0.382408
Si Si3 0.353584 0.038205 0.090107
Si Si4 0.088215 0.109013 0.166116
Si Si5 0.961859 0.784111 0.366730
Si Si6 0.387408 0.094960 0.675536
Si Si7 0.872440 0.598011 0.335780
Si Si8 0.000000 0.051368 0.250000
O O1 0.236603 0.961660 0.326460
O O2 0.100939 0.055726 0.104780
O O3 0.332251 0.044012 0.348652
O O4 0.125100 0.988322 0.972361
O O5 0.135925 0.746566 0.200734
O O6 0.387959 0.736914 0.459134
O O7 0.365795 0.707367 0.621256
O O8 0.225976 0.649781 0.276962
O O9 0.500000 0.049608 0.250000
O O10 0.354165 0.972364 0.128188
O O11 0.341486 0.080237 0.170224
O O12 0.246114 0.125380 0.433102
O O13 0.027900 0.087765 0.187954
O O14 0.001917 0.158384 0.985119
O O15 0.500000 0.106473 0.750000
O O16 0.466419 0.110492 0.900574
#
# Coordination Sequence:
#
# PCOD9260695 Si02
#       8
#     8   8   8   8   8   8   8   4
#     4  11  22  39  62  95 134 178 220 257 320 404
#     4  10  23  43  74  99 122 169 223 288 331 401
#     4  10  21  34  55  93 136 173 208 265 308 388
#     4  11  23  42  64  89 139 176 212 275 327 396
#     4  10  22  47  71  96 130 164 224 281 347 384
#     4  10  18  38  61  91 128 171 215 257 316 393
#     4  12  21  37  67  94 125 174 221 265 335 387
#     4  12  28  36  60 100 140 178 216 258 326 410
#
# _framework density 20.945170999999998
#
# number of rings (size 3 to 8) (size 9 to 14) (size 15 to 20)
#    0.000    1.333    5.333    2.400    5.600    0.000 
#    7.200    0.667    1.467    0.000    0.000    0.000 
#    0.000    0.000    0.000    0.000    0.000    0.000 
#
# Total GULP energy -167456.624044 kJ/mol
# GULP energy per Si atom -5581.887468 kJ/mol
# Density = 2.089750 g / cm^3
# Si number density = 20.945171 Si / 1000 Ang^3
#
#
#
# Elastic Constant Matrix: (Units=GPa)
#
#
# Indices 1 2 3 4 5 6 
#
# 1 115.2914 39.0805 31.8556 0.0000 6.2312 0.0000
# 2 39.0805 45.4066 37.9524 0.0000 5.2025 0.0000
# 3 31.8556 37.9524 96.8748 0.0000 8.0637 0.0000
# 4 0.0000 0.0000 0.0000 148.3917 0.0000 -52.0209
# 5 6.2312 5.2025 8.0637 0.0000 28.7647 0.0000
# 6 0.0000 0.0000 0.0000 -52.0209 0.0000 42.6382
#
#
#
# Elastic Compliance Matrix: (Units=1/GPa)
#
#
# Indices 1 2 3 4 5 6 
#
# 1 0.012265 -0.010631 0.000197 0.000000 -0.000790 0.000000
# 2 -0.010631 0.042121 -0.012863 0.000000 -0.001709 0.000000
# 3 0.000197 -0.012863 0.015468 0.000000 -0.002052 0.000000
# 4 0.000000 0.000000 0.000000 0.011775 0.000000 0.014367
# 5 -0.000790 -0.001709 -0.002052 0.000000 0.035820 0.000000
# 6 0.000000 0.000000 0.000000 0.014367 0.000000 0.040981
#
#
# Mechanical properties :
#
#
# Convention : Reuss Voigt Hill
#
# Bulk Modulus (GPa) = 42.99249 52.81662 47.90456
# Shear Modulus (GPa) = 23.49862 53.87122 38.68492
#
# Velocity S-wave (km/s) = 3.35313 5.07700 4.30229
# Velocity P-wave (km/s) = 5.96339 7.72265 6.89932
#
# Compressibility (1/GPa) = 0.02325987
#
# Stress axis : x y z
#
# Youngs Moduli (GPa) = 81.52972 23.74130 64.64968
#
# Poissons Ratio (x) = 0.25240 -0.01276
# Poissons Ratio (y) = 0.86675 0.83161
# Poissons Ratio (z) = -0.01609 0.30539
#
# Static dielectric constant tensor:
#      x y z
#    x 1.803930 0.000000 0.016600 
#    y 0.000000 1.725290 0.000000 
#    z 0.016600 0.000000 1.798790 
# 
# From -- ./inp_files/114852.got.cif
#   From: 2010.05.17/outbox.cif.g08.bks.cpg/sg15_58_cif.got.tgz:114852.got - 2010.06.03 18:47:42.
