data_PCOD9260727
_publ_section_title
;
Structure prediction by ZEFSAII (Michael W. Deem and Ramdas Pophale) SiO2 
 PCOD9260727
Probable space group: C 2/C
;
_chemical_formula_sum "Si O2"
_cell_formula_units_Z 60
_cell_length_a 12.778613
_cell_length_b 13.033216
_cell_length_c 18.048316
_cell_angle_alpha 90.000000
_cell_angle_beta 88.374497
_cell_angle_gamma 90.000000
_cell_volume 3004.672875
_symmetry_space_group_name_H-M "C 2/C"
_symmetry_group_IT_number 15
_symmetry_cell_setting 'monoclinic'
loop_
_space_group_symop_operation_xyz
x,y,z
-x,y,1/2-z
-x,-y,-z
x,-y,1/2+z
1/2+x,1/2+y,z
1/2-x,1/2+y,1/2-z
1/2-x,1/2-y,-z
1/2+x,1/2-y,1/2+z
loop_
_atom_site_type_symbol
_atom_site_label
_atom_site_fract_x
_atom_site_fract_y
_atom_site_fract_z
Si Si1 0.377191 0.337984 0.732421
Si Si2 0.884676 0.699743 0.017342
Si Si3 0.377581 0.026660 0.500378
Si Si4 0.285315 0.164162 0.629684
Si Si5 0.707325 0.777365 0.126957
Si Si6 0.402234 0.195137 0.397846
Si Si7 0.000000 0.778267 0.250000
Si Si8 0.308471 0.430347 0.223885
O O1 0.500000 0.334649 0.750000
O O2 0.348417 0.254770 0.670013
O O3 0.311562 0.302262 0.806280
O O4 0.343803 0.453266 0.712306
O O5 0.832403 0.585993 0.014407
O O6 0.809109 0.759386 0.074459
O O7 0.999240 0.707799 0.049690
O O8 0.884482 0.731719 0.931521
O O9 0.348121 0.101344 0.567747
O O10 0.355033 0.086454 0.424661
O O11 0.500000 0.000000 0.500000
O O12 0.185620 0.218407 0.593572
O O13 0.242245 0.088163 0.694226
O O14 0.725172 0.885734 0.167056
O O15 0.447807 0.208147 0.314378
O O16 0.909091 0.853188 0.220422
#
# Coordination Sequence:
#
# PCOD9260727 Si02
#       8
#     8   8   8   8   8   8   4   8
#     4  11  24  39  64  92 128 162 203 268 313 370
#     4  10  21  40  63  89 125 165 204 261 316 376
#     4  10  22  39  60  88 125 167 201 256 314 376
#     4  10  23  41  63  92 123 164 214 262 313 374
#     4  10  22  40  62  92 127 162 207 256 321 374
#     4  10  21  38  64  87 125 162 213 262 308 374
#     4  10  18  38  62  90 114 166 210 256 308 374
#     4  10  20  40  65  88 124 162 208 255 313 381
#
# _framework density 19.968896999999998
#
# number of rings (size 3 to 8) (size 9 to 14) (size 15 to 20)
#    0.000    1.867    2.000    1.200    5.600    0.000 
#    0.000    0.000    0.000    5.600    0.000    0.000 
#    0.000    0.000    0.000    0.000    0.000    0.000 
#
# Total GULP energy -167328.255486 kJ/mol
# GULP energy per Si atom -5577.608516 kJ/mol
# Density = 1.992345 g / cm^3
# Si number density = 19.968897 Si / 1000 Ang^3
#
#
#
# Elastic Constant Matrix: (Units=GPa)
#
#
# Indices 1 2 3 4 5 6 
#
# 1 74.2018 18.8852 26.4904 0.0000 3.2032 0.0000
# 2 18.8852 99.8332 54.3281 0.0000 -9.5359 0.0000
# 3 26.4904 54.3281 104.8217 0.0000 -8.0855 0.0000
# 4 0.0000 0.0000 0.0000 21.3251 0.0000 3.5535
# 5 3.2032 -9.5359 -8.0855 0.0000 31.3467 0.0000
# 6 0.0000 0.0000 0.0000 3.5535 0.0000 22.7756
#
#
#
# Elastic Compliance Matrix: (Units=1/GPa)
#
#
# Indices 1 2 3 4 5 6 
#
# 1 0.015131 -0.001298 -0.003368 0.000000 -0.002810 0.000000
# 2 -0.001298 0.014247 -0.006848 0.000000 0.002700 0.000000
# 3 -0.003368 -0.006848 0.014086 0.000000 0.001894 0.000000
# 4 0.000000 0.000000 0.000000 0.048145 0.000000 -0.007512
# 5 -0.002810 0.002700 0.001894 0.000000 0.033498 0.000000
# 6 0.000000 0.000000 0.000000 -0.007512 0.000000 0.045079
#
#
# Mechanical properties :
#
#
# Convention : Reuss Voigt Hill
#
# Bulk Modulus (GPa) = 48.93099 53.14046 51.03573
# Shear Modulus (GPa) = 24.99699 27.03303 26.01501
#
# Velocity S-wave (km/s) = 3.54191 3.68334 3.61332
# Velocity P-wave (km/s) = 6.42524 6.69019 6.55905
#
# Compressibility (1/GPa) = 0.02043695
#
# Stress axis : x y z
#
# Youngs Moduli (GPa) = 66.09072 70.19266 70.99100
#
# Poissons Ratio (x) = 0.09110 0.23909
# Poissons Ratio (y) = 0.08578 0.48611
# Poissons Ratio (z) = 0.22259 0.48065
#
# Static dielectric constant tensor:
#      x y z
#    x 1.736730 0.000000 0.024320 
#    y 0.000000 1.740850 0.000000 
#    z 0.024320 0.000000 1.707090 
# 
# From -- ./inp_files/204028.got.cif
#   From: 2010.05.17/outbox.cif.g08.bks.cpg/sg15_103_cif.got.tgz:204028.got - 2010.06.03 18:47:42.
