data_PCOD9260696
_publ_section_title
;
Structure prediction by ZEFSAII (Michael W. Deem and Ramdas Pophale) SiO2 
 PCOD9260696
Probable space group: C 2/C
;
_chemical_formula_sum "Si O2"
_cell_formula_units_Z 44
_cell_length_a 24.148192
_cell_length_b 22.156475
_cell_length_c 10.990464
_cell_angle_alpha 90.000000
_cell_angle_beta 18.211786
_cell_angle_gamma 90.000000
_cell_volume 1837.779825
_symmetry_space_group_name_H-M "C 2/C"
_symmetry_group_IT_number 15
_symmetry_cell_setting 'monoclinic'
loop_
_space_group_symop_operation_xyz
x,y,z
-x,y,1/2-z
-x,-y,-z
x,-y,1/2+z
1/2+x,1/2+y,z
1/2-x,1/2+y,1/2-z
1/2-x,1/2-y,-z
1/2+x,1/2-y,1/2+z
loop_
_atom_site_type_symbol
_atom_site_label
_atom_site_fract_x
_atom_site_fract_y
_atom_site_fract_z
Si Si1 0.794734 0.668220 0.522392
Si Si2 0.000000 0.227662 0.250000
Si Si3 0.698104 0.036534 0.353818
Si Si4 0.458263 0.713720 0.664162
Si Si5 0.783942 0.673055 0.101813
Si Si6 0.311000 0.966302 0.904578
O O1 0.653906 0.692469 0.716506
O O2 0.956900 0.714309 0.186202
O O3 0.841446 0.601340 0.389018
O O4 0.669575 0.683355 0.897777
O O5 0.943871 0.279176 0.267060
O O6 0.671270 0.103924 0.464480
O O7 0.769618 0.036546 0.064940
O O8 0.788897 0.999885 0.274791
O O9 0.500000 0.010277 0.750000
O O10 0.648809 0.683260 0.274062
O O11 0.335046 0.691484 0.033146
O O12 0.500000 0.000000 0.500000
#
# Coordination Sequence:
#
# PCOD9260696 Si02
#       6
#     8   4   8   8   8   8
#     4  10  20  41  60  93 131 165 216 275 333 386
#     4  10  22  36  62  94 134 162 204 280 340 404
#     4  10  20  39  66  90 126 172 223 270 321 395
#     4   9  20  35  67  88 120 167 213 271 329 398
#     4  10  18  38  61  93 122 168 214 259 341 399
#     4  10  22  41  66  93 126 174 227 273 320 387
#
# _framework density 23.941932999999999
#
# number of rings (size 3 to 8) (size 9 to 14) (size 15 to 20)
#    0.000    2.182    2.727    0.000    0.000    0.727 
#   22.909    2.727    0.000    0.000    0.000    0.000 
#    0.000    0.000    0.000    0.000    0.000    0.000 
#
# Total GULP energy -122534.915963 kJ/mol
# GULP energy per Si atom -5569.768907 kJ/mol
# Density = 2.388744 g / cm^3
# Si number density = 23.941933 Si / 1000 Ang^3
#
#
#
# Elastic Constant Matrix: (Units=GPa)
#
#
# Indices 1 2 3 4 5 6 
#
# 1 96.3795 36.7840 16.3248 -0.0127 3.2462 0.0104
# 2 36.7840 162.6606 11.6864 -0.0054 10.0536 0.0026
# 3 16.3248 11.6864 46.6156 -0.0164 -3.1416 0.0153
# 4 -0.0127 -0.0054 -0.0164 20.3357 0.0100 3.2182
# 5 3.2462 10.0536 -3.1416 0.0100 40.7977 -0.0116
# 6 0.0104 0.0026 0.0153 3.2182 -0.0116 12.6170
#
#
#
# Elastic Compliance Matrix: (Units=1/GPa)
#
#
# Indices 1 2 3 4 5 6 
#
# 1 0.011925 -0.002397 -0.003618 0.000005 -0.000637 -0.000007
# 2 -0.002397 0.006858 -0.000986 0.000000 -0.001575 0.000000
# 3 -0.003618 -0.000986 0.023122 0.000019 0.002311 -0.000028
# 4 0.000005 0.000000 0.000019 0.051243 -0.000015 -0.013070
# 5 -0.000637 -0.001575 0.002311 -0.000015 0.025128 0.000025
# 6 -0.000007 0.000000 -0.000028 -0.013070 0.000025 0.082592
#
#
# Mechanical properties :
#
#
# Convention : Reuss Voigt Hill
#
# Bulk Modulus (GPa) = 35.83912 48.36066 42.09989
# Shear Modulus (GPa) = 22.30435 30.80745 26.55590
#
# Velocity S-wave (km/s) = 3.05553 3.59103 3.33405
# Velocity P-wave (km/s) = 5.23928 6.11858 5.69592
#
# Compressibility (1/GPa) = 0.02790247
#
# Stress axis : x y z
#
# Youngs Moduli (GPa) = 83.85814 145.81278 43.24884
#
# Poissons Ratio (x) = 0.34957 0.15647
# Poissons Ratio (y) = 0.20104 0.04264
# Poissons Ratio (z) = 0.30340 0.14376
#
# Static dielectric constant tensor:
#      x y z
#    x 2.343720 0.000000 0.265770 
#    y 0.000000 1.880310 0.000010 
#    z 0.265770 0.000010 2.160120 
# 
# From -- ./inp_files/124216.got.cif
#   From: 2010.05.17/outbox.cif.g08.bks.cpg/sg15_63_cif.got.tgz:124216.got - 2010.06.03 18:47:42.
