data_PCOD9260181
_publ_section_title
;
Structure prediction by ZEFSAII (Michael W. Deem and Ramdas Pophale) SiO2 
 PCOD9260181
Probable space group: C 2/C
;
_chemical_formula_sum "Si O2"
_cell_formula_units_Z 52
_cell_length_a 19.713231
_cell_length_b 12.017938
_cell_length_c 10.953951
_cell_angle_alpha 90.000000
_cell_angle_beta 67.528104
_cell_angle_gamma 90.000000
_cell_volume 2398.071272
_symmetry_space_group_name_H-M "C 2/C"
_symmetry_group_IT_number 15
_symmetry_cell_setting 'monoclinic'
loop_
_space_group_symop_operation_xyz
x,y,z
-x,y,1/2-z
-x,-y,-z
x,-y,1/2+z
1/2+x,1/2+y,z
1/2-x,1/2+y,1/2-z
1/2-x,1/2-y,-z
1/2+x,1/2-y,1/2+z
loop_
_atom_site_type_symbol
_atom_site_label
_atom_site_fract_x
_atom_site_fract_y
_atom_site_fract_z
Si Si1 0.522572 0.869653 0.975510
Si Si2 0.339098 0.967646 0.372489
Si Si3 0.810335 0.412435 0.653049
Si Si4 0.335779 0.708044 0.309419
Si Si5 0.062500 0.941225 0.603335
Si Si6 0.946639 0.166445 0.009712
Si Si7 0.500000 0.082955 0.750000
O O1 0.471380 0.785288 0.937436
O O2 0.507634 0.839136 0.127734
O O3 0.608475 0.860063 0.892961
O O4 0.500000 0.000000 0.000000
O O5 0.315916 0.990449 0.527666
O O6 0.335483 0.834961 0.353367
O O7 0.426477 0.989727 0.297054
O O8 0.297748 0.025671 0.289778
O O9 0.745815 0.328097 0.669085
O O10 0.369876 0.629385 0.391082
O O11 0.386630 0.689487 0.155581
O O12 0.000000 0.944267 0.750000
O O13 0.022170 0.884032 0.515750
O O14 0.082166 0.068241 0.556740
#
# Coordination Sequence:
#
# PCOD9260181 Si02
#       7
#     8   8   8   8   8   8   4
#     4  11  20  39  63  91 123 171 213 272 320 393
#     4  11  23  42  66  97 128 178 221 274 331 398
#     4  11  25  40  66  99 136 170 226 270 338 396
#     4  11  22  41  67  91 132 177 216 273 341 402
#     4   9  20  38  60  94 119 171 218 268 320 393
#     4  10  20  37  66  89 127 161 226 268 322 385
#     4  10  18  36  64  84 120 162 224 254 312 388
#
# _framework density 21.684092
#
# number of rings (size 3 to 8) (size 9 to 14) (size 15 to 20)
#    0.000    1.538    3.077    2.308    4.308    0.000 
#    6.923    2.308    0.000    0.000    0.000    0.000 
#    0.000    0.000    0.000    0.000    0.000    0.000 
#
# Total GULP energy -145175.077978 kJ/mol
# GULP energy per Si atom -5583.656845 kJ/mol
# Density = 2.163474 g / cm^3
# Si number density = 21.684092 Si / 1000 Ang^3
#
#
#
# Elastic Constant Matrix: (Units=GPa)
#
#
# Indices 1 2 3 4 5 6 
#
# 1 94.1511 33.5095 6.9035 0.0000 -13.4907 0.0000
# 2 33.5095 108.8095 5.6475 0.0000 1.0796 0.0000
# 3 6.9035 5.6475 48.7966 0.0000 8.3300 0.0000
# 4 0.0000 0.0000 0.0000 19.2920 0.0000 9.9354
# 5 -13.4907 1.0796 8.3300 0.0000 29.8532 0.0000
# 6 0.0000 0.0000 0.0000 9.9354 0.0000 21.7598
#
#
#
# Elastic Compliance Matrix: (Units=1/GPa)
#
#
# Indices 1 2 3 4 5 6 
#
# 1 0.013214 -0.004004 -0.002573 0.000000 0.006834 0.000000
# 2 -0.004004 0.010459 -0.000284 0.000000 -0.002108 0.000000
# 3 -0.002573 -0.000284 0.022141 0.000000 -0.007331 0.000000
# 4 0.000000 0.000000 0.000000 0.067771 0.000000 -0.030944
# 5 0.006834 -0.002108 -0.007331 0.000000 0.038707 0.000000
# 6 0.000000 0.000000 0.000000 -0.030944 0.000000 0.060085
#
#
# Mechanical properties :
#
#
# Convention : Reuss Voigt Hill
#
# Bulk Modulus (GPa) = 31.15911 38.20869 34.68390
# Shear Modulus (GPa) = 21.11510 27.89411 24.50460
#
# Velocity S-wave (km/s) = 3.12390 3.59051 3.36530
# Velocity P-wave (km/s) = 5.23569 5.90321 5.57944
#
# Compressibility (1/GPa) = 0.03209334
#
# Stress axis : x y z
#
# Youngs Moduli (GPa) = 75.67678 95.61099 45.16410
#
# Poissons Ratio (x) = 0.38280 0.11619
# Poissons Ratio (y) = 0.30299 0.01283
# Poissons Ratio (z) = 0.19470 0.02717
#
# Static dielectric constant tensor:
#      x y z
#    x 1.799060 0.000000 0.038140 
#    y 0.000000 1.837890 0.000000 
#    z 0.038140 0.000000 1.870240 
# 
# From -- ./inp_files/110933.got.cif
#   From: 2010.05.17/outbox.cif.g08.bks.cpg/sg15_56_cif.got.tgz:110933.got - 2010.06.03 18:47:42.
