data_PCOD9260537
_publ_section_title
;
Structure prediction by ZEFSAII (Michael W. Deem and Ramdas Pophale) SiO2 
 PCOD9260537
Probable space group: C 2/C
;
_chemical_formula_sum "Si O2"
_cell_formula_units_Z 56
_cell_length_a 14.381662
_cell_length_b 11.234695
_cell_length_c 18.168734
_cell_angle_alpha 90.000000
_cell_angle_beta 73.275844
_cell_angle_gamma 90.000000
_cell_volume 2811.415850
_symmetry_space_group_name_H-M "C 2/C"
_symmetry_group_IT_number 15
_symmetry_cell_setting 'monoclinic'
loop_
_space_group_symop_operation_xyz
x,y,z
-x,y,1/2-z
-x,-y,-z
x,-y,1/2+z
1/2+x,1/2+y,z
1/2-x,1/2+y,1/2-z
1/2-x,1/2-y,-z
1/2+x,1/2-y,1/2+z
loop_
_atom_site_type_symbol
_atom_site_label
_atom_site_fract_x
_atom_site_fract_y
_atom_site_fract_z
Si Si1 0.084278 0.436136 0.376173
Si Si2 0.106967 0.170584 0.337642
Si Si3 0.244403 0.115111 0.170527
Si Si4 0.087462 0.953192 0.580607
Si Si5 0.343450 0.249687 0.030766
Si Si6 0.607869 0.993297 0.535024
Si Si7 0.702037 0.364879 0.973812
O O1 0.072740 0.308245 0.341580
O O2 0.178706 0.510209 0.330531
O O3 0.099273 0.419826 0.461222
O O4 0.986346 0.514894 0.392390
O O5 0.179471 0.146212 0.254536
O O6 0.163760 0.157511 0.401346
O O7 0.015655 0.080550 0.360906
O O8 0.171008 0.075434 0.121823
O O9 0.306338 0.225028 0.121629
O O10 0.097971 0.865227 0.507201
O O11 0.114875 0.082473 0.543459
O O12 0.395298 0.129047 0.993046
O O13 0.250000 0.250000 0.000000
O O14 0.710390 0.961742 0.547199
O O15 0.750000 0.250000 0.000000
#
# Coordination Sequence:
#
# PCOD9260537 Si02
#       7
#     8   8   8   8   8   8   8
#     4  10  20  39  64  87 118 164 208 247 319 376
#     4  12  24  38  62  97 124 163 214 260 315 374
#     4  10  22  39  58  93 132 160 196 268 332 356
#     4  11  21  41  63  93 122 165 217 260 307 371
#     4   9  16  34  65  87 112 155 207 256 301 358
#     4  10  18  37  66  86 114 159 210 254 296 368
#     4  12  23  40  62  90 128 163 206 255 311 386
#
# _framework density 19.918789
#
# number of rings (size 3 to 8) (size 9 to 14) (size 15 to 20)
#    0.000    1.429    7.143    0.857    0.000    1.143 
#    0.000    2.143    0.000    0.000    0.000    0.000 
#    0.000    0.000    0.000    0.000    0.000    0.000 
#
# Total GULP energy -156168.014777 kJ/mol
# GULP energy per Si atom -5577.429099 kJ/mol
# Density = 1.987345 g / cm^3
# Si number density = 19.918789 Si / 1000 Ang^3
#
#
#
# Elastic Constant Matrix: (Units=GPa)
#
#
# Indices 1 2 3 4 5 6 
#
# 1 59.8441 9.0499 12.0373 0.0000 -25.6394 0.0000
# 2 9.0499 77.4777 42.0375 0.0000 -16.3601 0.0000
# 3 12.0373 42.0375 109.2446 0.0000 -32.6254 0.0000
# 4 0.0000 0.0000 0.0000 17.3953 0.0000 -3.9591
# 5 -25.6394 -16.3601 -32.6254 0.0000 33.8267 0.0000
# 6 0.0000 0.0000 0.0000 -3.9591 0.0000 26.8658
#
#
#
# Elastic Compliance Matrix: (Units=1/GPa)
#
#
# Indices 1 2 3 4 5 6 
#
# 1 0.026093 -0.000402 0.004393 0.000000 0.023820 0.000000
# 2 -0.000402 0.016481 -0.005630 0.000000 0.002237 0.000000
# 3 0.004393 -0.005630 0.015475 0.000000 0.015532 0.000000
# 4 0.000000 0.000000 0.000000 0.059482 0.000000 0.008766
# 5 0.023820 0.002237 0.015532 0.000000 0.063680 0.000000
# 6 0.000000 0.000000 0.000000 0.008766 0.000000 0.038514
#
#
# Mechanical properties :
#
#
# Convention : Reuss Voigt Hill
#
# Bulk Modulus (GPa) = 18.25747 41.42398 29.84072
# Shear Modulus (GPa) = 20.72485 27.84702 24.28593
#
# Velocity S-wave (km/s) = 3.22913 3.74308 3.49556
# Velocity P-wave (km/s) = 4.80509 6.28669 5.59514
#
# Compressibility (1/GPa) = 0.05477212
#
# Stress axis : x y z
#
# Youngs Moduli (GPa) = 38.32501 60.67747 64.62196
#
# Poissons Ratio (x) = 0.02437 -0.28391
# Poissons Ratio (y) = 0.01539 0.36379
# Poissons Ratio (z) = -0.16837 0.34159
#
# Static dielectric constant tensor:
#      x y z
#    x 1.763650 0.000000 -0.041660 
#    y 0.000000 1.812940 0.000000 
#    z -0.041660 0.000000 1.701260 
# 
# From -- ./inp_files/204377.got.cif
#   From: 2010.05.17/outbox.cif.g08.bks.cpg/sg15_103_cif.got.tgz:204377.got - 2010.06.03 18:47:42.
