data_PCOD9260098
_publ_section_title
;
Structure prediction by ZEFSAII (Michael W. Deem and Ramdas Pophale) SiO2 
 PCOD9260098
Probable space group: C 2/C
;
_chemical_formula_sum "Si O2"
_cell_formula_units_Z 40
_cell_length_a 7.144825
_cell_length_b 23.324154
_cell_length_c 16.448582
_cell_angle_alpha 90.000000
_cell_angle_beta 43.483883
_cell_angle_gamma 90.000000
_cell_volume 1886.294042
_symmetry_space_group_name_H-M "C 2/C"
_symmetry_group_IT_number 15
_symmetry_cell_setting 'monoclinic'
loop_
_space_group_symop_operation_xyz
x,y,z
-x,y,1/2-z
-x,-y,-z
x,-y,1/2+z
1/2+x,1/2+y,z
1/2-x,1/2+y,1/2-z
1/2-x,1/2-y,-z
1/2+x,1/2-y,1/2+z
loop_
_atom_site_type_symbol
_atom_site_label
_atom_site_fract_x
_atom_site_fract_y
_atom_site_fract_z
Si Si1 0.826979 0.036029 0.220539
Si Si2 0.233654 0.838422 0.018542
Si Si3 0.461611 0.258527 0.549240
Si Si4 0.303982 0.026726 0.491372
Si Si5 0.284306 0.667012 0.247141
O O1 0.510853 0.022995 0.347229
O O2 0.837974 0.103287 0.197241
O O3 0.000000 0.028032 0.250000
O O4 0.012864 0.005254 0.093599
O O5 0.014794 0.801658 0.035974
O O6 0.220647 0.906676 0.034330
O O7 0.497295 0.832712 0.879478
O O8 0.315522 0.800402 0.070110
O O9 0.298743 0.289182 0.670977
O O10 0.750000 0.250000 0.500000
O O11 0.500000 0.000000 0.500000
O O12 0.500000 0.679302 0.250000
#
# Coordination Sequence:
#
# PCOD9260098 Si02
#       5
#     8   8   8   8   8
#     4   8  16  30  58  86 117 159 205 252 313 377
#     4  10  22  39  60  93 121 166 214 255 329 392
#     4  11  22  37  63  86 123 160 212 270 313 382
#     4   9  17  34  60  89 121 165 208 255 316 388
#     4  10  18  36  62  87 118 164 210 256 320 390
#
# _framework density 21.205601000000001
#
# number of rings (size 3 to 8) (size 9 to 14) (size 15 to 20)
#    0.000    2.400    2.000    1.800    0.000    0.000 
#    0.000   13.000    4.400    0.000    0.000    0.000 
#    0.000    0.000    0.000    0.000    0.000    0.000 
#
# Total GULP energy -111437.220062 kJ/mol
# GULP energy per Si atom -5571.861003 kJ/mol
# Density = 2.115734 g / cm^3
# Si number density = 21.205601 Si / 1000 Ang^3
#
#
#
# Elastic Constant Matrix: (Units=GPa)
#
#
# Indices 1 2 3 4 5 6 
#
# 1 119.4233 52.6176 23.4579 -0.0001 -19.4498 0.0001
# 2 52.6176 128.6299 78.2674 -0.0002 6.0601 -0.0002
# 3 23.4579 78.2674 106.9026 0.0003 -7.1221 0.0013
# 4 -0.0001 -0.0002 0.0003 28.7180 -0.0001 -14.1347
# 5 -19.4498 6.0601 -7.1221 -0.0001 22.8171 -0.0005
# 6 0.0001 -0.0002 0.0013 -14.1347 -0.0005 -18.1431
#
#
#
# Elastic Compliance Matrix: (Units=1/GPa)
#
#
# Indices 1 2 3 4 5 6 
#
# 1 0.014321 -0.009702 0.005051 0.000000 0.016361 0.000000
# 2 -0.009702 0.021808 -0.015088 0.000000 -0.018772 -0.000001
# 3 0.005051 -0.015088 0.020268 0.000000 0.014639 0.000001
# 4 0.000000 0.000000 0.000000 0.025170 0.000000 -0.019609
# 5 0.016361 -0.018772 0.014639 0.000000 0.067328 0.000000
# 6 0.000000 -0.000001 0.000001 -0.019609 0.000000 -0.039840
#
#
# Mechanical properties :
#
#
# Convention : Reuss Voigt Hill
#
# Bulk Modulus (GPa) = 59.10922 73.73795 66.42359
# Shear Modulus (GPa) = 32.43094 20.05260 26.24177
#
# Velocity S-wave (km/s) = 3.91494 3.07844 3.52162
# Velocity P-wave (km/s) = 6.95489 6.89087 6.92296
#
# Compressibility (1/GPa) = 0.01691783
#
# Stress axis : x y z
#
# Youngs Moduli (GPa) = 69.82832 45.85409 49.33877
#
# Poissons Ratio (x) = 0.44489 -0.24921
# Poissons Ratio (y) = 0.67749 0.74444
# Poissons Ratio (z) = -0.35270 0.69186
#
# Static dielectric constant tensor:
#      x y z
#    x 1.509590 0.000000 0.017250 
#    y 0.000000 1.870710 0.000000 
#    z 0.017250 0.000000 1.757080 
# 
# From -- ./inp_files/192833.got.cif
#   From: 2010.05.17/outbox.cif.g08.bks.cpg/sg15_97_cif.got.tgz:192833.got - 2010.06.03 18:47:42.
