data_PCOD9260108
_publ_section_title
;
Structure prediction by ZEFSAII (Michael W. Deem and Ramdas Pophale) SiO2 
 PCOD9260108
Probable space group: C 2/C
;
_chemical_formula_sum "Si O2"
_cell_formula_units_Z 52
_cell_length_a 17.191446
_cell_length_b 9.072711
_cell_length_c 28.199788
_cell_angle_alpha 90.000000
_cell_angle_beta 149.861268
_cell_angle_gamma 90.000000
_cell_volume 2208.419775
_symmetry_space_group_name_H-M "C 2/C"
_symmetry_group_IT_number 15
_symmetry_cell_setting 'monoclinic'
loop_
_space_group_symop_operation_xyz
x,y,z
-x,y,1/2-z
-x,-y,-z
x,-y,1/2+z
1/2+x,1/2+y,z
1/2-x,1/2+y,1/2-z
1/2-x,1/2-y,-z
1/2+x,1/2-y,1/2+z
loop_
_atom_site_type_symbol
_atom_site_label
_atom_site_fract_x
_atom_site_fract_y
_atom_site_fract_z
Si Si1 0.517725 0.101182 0.463794
Si Si2 0.887160 0.415684 0.235142
Si Si3 0.208537 0.120507 0.079613
Si Si4 0.291098 0.667305 0.254433
Si Si5 0.930442 0.119212 0.814505
Si Si6 0.500000 0.338397 0.250000
Si Si7 0.622566 0.906132 0.922195
O O1 0.565156 0.267645 0.503820
O O2 0.357787 0.101498 0.351047
O O3 0.637274 0.048850 0.485080
O O4 0.500000 0.000000 0.500000
O O5 0.734691 0.494861 0.132727
O O6 0.864353 0.269405 0.252806
O O7 0.000000 0.394019 0.250000
O O8 0.974304 0.521733 0.318085
O O9 0.354942 0.230522 0.164910
O O10 0.244341 0.058281 0.045805
O O11 0.221546 0.778287 0.257079
O O12 0.398470 0.530885 0.326150
O O13 0.955908 0.073767 0.773550
O O14 0.072100 0.233138 0.898343
#
# Coordination Sequence:
#
# PCOD9260108 Si02
#       7
#     8   8   8   8   8   4   8
#     4  11  23  35  56  93 128 158 196 259 313 368
#     4  10  20  39  65  89 119 163 217 257 299 366
#     4  10  18  36  63  83 119 163 207 247 296 376
#     4  11  23  37  59  93 125 160 205 255 317 357
#     4  10  20  35  59  88 120 152 209 250 295 365
#     4  10  18  36  62  90 108 164 210 244 296 360
#     4   9  19  40  63  89 110 169 210 246 305 362
#
# _framework density 23.546247000000001
#
# number of rings (size 3 to 8) (size 9 to 14) (size 15 to 20)
#    0.000    1.846    3.846    3.231    1.077    0.615 
#    0.000    0.000    0.000    1.846    0.000    0.000 
#    0.000    0.000    0.000    0.000    0.000    0.000 
#
# Total GULP energy -145063.155264 kJ/mol
# GULP energy per Si atom -5579.352126 kJ/mol
# Density = 2.349266 g / cm^3
# Si number density = 23.546247 Si / 1000 Ang^3
#
#
#
# Elastic Constant Matrix: (Units=GPa)
#
#
# Indices 1 2 3 4 5 6 
#
# 1 133.5468 55.4098 24.3657 0.0000 -37.8449 0.0000
# 2 55.4098 97.3055 8.2470 0.0000 -3.8742 0.0000
# 3 24.3657 8.2470 50.2496 0.0000 -3.6737 0.0000
# 4 0.0000 0.0000 0.0000 13.7506 0.0000 -6.6508
# 5 -37.8449 -3.8742 -3.6737 0.0000 28.9036 0.0000
# 6 0.0000 0.0000 0.0000 -6.6508 0.0000 45.2148
#
#
#
# Elastic Compliance Matrix: (Units=1/GPa)
#
#
# Indices 1 2 3 4 5 6 
#
# 1 0.018899 -0.009351 -0.005967 0.000000 0.022733 0.000000
# 2 -0.009351 0.015089 0.001323 0.000000 -0.010053 0.000000
# 3 -0.005967 0.001323 0.022225 0.000000 -0.004811 0.000000
# 4 0.000000 0.000000 0.000000 0.078294 0.000000 0.011516
# 5 0.022733 -0.010053 -0.004811 0.000000 0.062405 0.000000
# 6 0.000000 0.000000 0.000000 0.011516 0.000000 0.023811
#
#
# Mechanical properties :
#
#
# Convention : Reuss Voigt Hill
#
# Bulk Modulus (GPa) = 35.43246 50.79411 43.11328
# Shear Modulus (GPa) = 19.37078 30.44577 24.90828
#
# Velocity S-wave (km/s) = 2.87133 3.59976 3.25598
# Velocity P-wave (km/s) = 5.10622 6.23671 5.69956
#
# Compressibility (1/GPa) = 0.02822271
#
# Stress axis : x y z
#
# Youngs Moduli (GPa) = 52.91380 66.27206 44.99378
#
# Poissons Ratio (x) = 0.61970 0.26849
# Poissons Ratio (y) = 0.49479 -0.05952
# Poissons Ratio (z) = 0.31575 -0.08766
#
# Static dielectric constant tensor:
#      x y z
#    x 1.989520 0.000000 0.034680 
#    y 0.000000 1.875910 0.000000 
#    z 0.034680 0.000000 1.987170 
# 
# From -- ./inp_files/298441.got.cif
#   From: 2010.05.17/outbox.cif.g08.bks.cpg/sg15_150_cif.got.tgz:298441.got - 2010.06.03 18:47:42.
