data_PCOD9260192
_publ_section_title
;
Structure prediction by ZEFSAII (Michael W. Deem and Ramdas Pophale) SiO2 
 PCOD9260192
Probable space group: C 2/C
;
_chemical_formula_sum "Si O2"
_cell_formula_units_Z 48
_cell_length_a 19.608489
_cell_length_b 29.739507
_cell_length_c 11.275363
_cell_angle_alpha 90.000000
_cell_angle_beta 159.595566
_cell_angle_gamma 90.000000
_cell_volume 2292.404989
_symmetry_space_group_name_H-M "C 2/C"
_symmetry_group_IT_number 15
_symmetry_cell_setting 'monoclinic'
loop_
_space_group_symop_operation_xyz
x,y,z
-x,y,1/2-z
-x,-y,-z
x,-y,1/2+z
1/2+x,1/2+y,z
1/2-x,1/2+y,1/2-z
1/2-x,1/2-y,-z
1/2+x,1/2-y,1/2+z
loop_
_atom_site_type_symbol
_atom_site_label
_atom_site_fract_x
_atom_site_fract_y
_atom_site_fract_z
Si Si1 0.143187 0.937837 0.386707
Si Si2 0.513477 0.106487 0.630973
Si Si3 0.047645 0.224375 0.191298
Si Si4 0.384953 0.013204 0.690092
Si Si5 0.674096 0.810083 0.737131
Si Si6 0.008023 0.156585 0.937543
O O1 0.029390 0.896079 0.142052
O O2 0.000000 0.959483 0.250000
O O3 0.219777 0.975084 0.421077
O O4 0.321541 0.915723 0.754224
O O5 0.500000 0.113934 0.750000
O O6 0.668225 0.065651 0.875057
O O7 0.510824 0.155870 0.569425
O O8 0.250000 0.250000 0.500000
O O9 0.000000 0.220578 0.250000
O O10 0.889431 0.259145 0.879115
O O11 0.048499 0.176069 0.131388
O O12 0.500000 0.011700 0.750000
O O13 0.500000 0.000000 0.000000
O O14 0.807340 0.820328 0.066664
O O15 0.817302 0.825623 0.862461
#
# Coordination Sequence:
#
# PCOD9260192 Si02
#       6
#     8   8   8   8   8   8
#     4  10  18  36  64  88 119 164 210 255 303 375
#     4   9  17  32  58  90 113 157 206 244 300 370
#     4  12  24  39  60  91 124 160 204 265 316 366
#     4   9  19  36  60  90 125 158 204 257 311 372
#     4  10  19  37  63  88 117 166 210 250 300 383
#     4  10  20  38  62  88 121 162 218 246 307 377
#
# _framework density 20.93871
#
# number of rings (size 3 to 8) (size 9 to 14) (size 15 to 20)
#    0.000    2.000    5.000    1.000    0.000    0.000 
#    0.000   12.500    0.000    1.000    0.000    0.000 
#    0.000    0.000    0.000    0.000    0.000    0.000 
#
# Total GULP energy -133699.906687 kJ/mol
# GULP energy per Si atom -5570.829445 kJ/mol
# Density = 2.089105 g / cm^3
# Si number density = 20.938710 Si / 1000 Ang^3
#
#
#
# Elastic Constant Matrix: (Units=GPa)
#
#
# Indices 1 2 3 4 5 6 
#
# 1 96.7992 32.6642 22.3622 -0.0001 -3.5489 -0.0001
# 2 32.6642 102.5399 27.6113 0.0000 6.2411 0.0000
# 3 22.3622 27.6113 63.7958 -0.0005 -4.2581 -0.0003
# 4 -0.0001 0.0000 -0.0005 13.3135 -0.0002 9.7900
# 5 -3.5489 6.2411 -4.2581 -0.0002 22.2450 -0.0001
# 6 -0.0001 0.0000 -0.0003 9.7900 -0.0001 12.8594
#
#
#
# Elastic Compliance Matrix: (Units=1/GPa)
#
#
# Indices 1 2 3 4 5 6 
#
# 1 0.012146 -0.003291 -0.002676 0.000000 0.002349 0.000000
# 2 -0.003291 0.012306 -0.004495 0.000000 -0.004838 0.000000
# 3 -0.002676 -0.004495 0.018855 0.000001 0.004444 0.000000
# 4 0.000000 0.000000 0.000001 0.170641 0.000001 -0.129911
# 5 0.002349 -0.004838 0.004444 0.000001 0.047536 -0.000001
# 6 0.000000 0.000000 0.000000 -0.129911 -0.000001 0.176666
#
#
# Mechanical properties :
#
#
# Convention : Reuss Voigt Hill
#
# Bulk Modulus (GPa) = 44.68031 47.60115 46.14073
# Shear Modulus (GPa) = 10.71729 21.71675 16.21702
#
# Velocity S-wave (km/s) = 2.26484 3.22399 2.78600
# Velocity P-wave (km/s) = 5.31266 6.05324 5.69500
#
# Compressibility (1/GPa) = 0.02238122
#
# Stress axis : x y z
#
# Youngs Moduli (GPa) = 82.33404 81.26330 53.03583
#
# Poissons Ratio (x) = 0.26747 0.14193
# Poissons Ratio (y) = 0.27099 0.23841
# Poissons Ratio (z) = 0.22033 0.36529
#
# Static dielectric constant tensor:
#      x y z
#    x 1.709790 0.000000 0.010040 
#    y 0.000000 1.774780 0.000000 
#    z 0.010040 0.000000 1.865530 
# 
# From -- ./inp_files/115067.got.cif
#   From: 2010.05.17/outbox.cif.g08.bks.cpg/sg15_58_cif.got.tgz:115067.got - 2010.06.03 18:47:42.
