data_PCOD9260501
_publ_section_title
;
Structure prediction by ZEFSAII (Michael W. Deem and Ramdas Pophale) SiO2 
 PCOD9260501
Probable space group: C 2/C
;
_chemical_formula_sum "Si O2"
_cell_formula_units_Z 64
_cell_length_a 13.942022
_cell_length_b 32.696281
_cell_length_c 8.083515
_cell_angle_alpha 90.000000
_cell_angle_beta 125.394119
_cell_angle_gamma 90.000000
_cell_volume 3003.874251
_symmetry_space_group_name_H-M "C 2/C"
_symmetry_group_IT_number 15
_symmetry_cell_setting 'monoclinic'
loop_
_space_group_symop_operation_xyz
x,y,z
-x,y,1/2-z
-x,-y,-z
x,-y,1/2+z
1/2+x,1/2+y,z
1/2-x,1/2+y,1/2-z
1/2-x,1/2-y,-z
1/2+x,1/2-y,1/2+z
loop_
_atom_site_type_symbol
_atom_site_label
_atom_site_fract_x
_atom_site_fract_y
_atom_site_fract_z
Si Si1 0.131960 0.623882 0.825581
Si Si2 0.091915 0.827902 0.119619
Si Si3 0.230025 0.912027 0.730059
Si Si4 0.367948 0.976127 0.679995
Si Si5 0.271831 0.052935 0.753808
Si Si6 0.745373 0.298221 0.976055
Si Si7 0.972339 0.083437 0.037620
Si Si8 0.323911 0.675663 0.448874
O O1 0.168178 0.597607 0.702047
O O2 0.000000 0.615097 0.750000
O O3 0.227428 0.606715 0.053136
O O4 0.152842 0.672519 0.846073
O O5 0.175238 0.813339 0.355189
O O6 0.137231 0.813778 0.985311
O O7 0.077125 0.877208 0.108450
O O8 0.958290 0.815497 0.026034
O O9 0.329101 0.944340 0.781205
O O10 0.212511 0.872208 0.597695
O O11 0.099332 0.931331 0.602373
O O12 0.500000 0.970484 0.750000
O O13 0.281844 0.964294 0.446208
O O14 0.346494 0.022050 0.716223
O O15 0.135748 0.052694 0.566721
O O16 0.744873 0.305607 0.776804
O O17 0.750000 0.250000 0.000000
O O18 0.000000 0.098374 0.250000
#
# Coordination Sequence:
#
# PCOD9260501 Si02
#       8
#     8   8   8   8   8   8   8   8
#     4  11  22  41  64  89 126 173 220 264 322 409
#     4  10  18  37  64  92 122 163 211 261 332 394
#     4  10  21  40  63  95 126 161 220 270 327 388
#     4  12  26  43  63  93 132 176 222 268 322 398
#     4  12  24  41  65  91 126 175 219 270 333 387
#     4  11  23  38  62  94 131 170 215 272 333 394
#     4  11  20  39  68  94 129 164 216 280 340 393
#     4   9  20  36  64  93 123 164 209 268 322 399
#
# _framework density 21.305817999999999
#
# number of rings (size 3 to 8) (size 9 to 14) (size 15 to 20)
#    0.000    1.250    2.500    4.875    0.000    3.500 
#    0.000    0.000    0.000    0.000    0.000    0.000 
#    0.000    0.000    0.000    0.000    0.000    0.000 
#
# Total GULP energy -178410.225510 kJ/mol
# GULP energy per Si atom -5575.319547 kJ/mol
# Density = 2.125733 g / cm^3
# Si number density = 21.305818 Si / 1000 Ang^3
#
#
#
# Elastic Constant Matrix: (Units=GPa)
#
#
# Indices 1 2 3 4 5 6 
#
# 1 77.4908 18.2121 -8.1836 0.0000 21.2170 0.0000
# 2 18.2121 78.0371 9.0592 0.0000 3.9630 0.0000
# 3 -8.1836 9.0592 50.3592 0.0000 -14.0203 0.0000
# 4 0.0000 0.0000 0.0000 2.0051 0.0000 -2.2257
# 5 21.2170 3.9630 -14.0203 0.0000 38.0887 0.0000
# 6 0.0000 0.0000 0.0000 -2.2257 0.0000 13.1315
#
#
#
# Elastic Compliance Matrix: (Units=1/GPa)
#
#
# Indices 1 2 3 4 5 6 
#
# 1 0.016071 -0.003440 0.000933 0.000000 -0.008251 0.000000
# 2 -0.003440 0.014038 -0.003295 0.000000 -0.000757 0.000000
# 3 0.000933 -0.003295 0.022899 0.000000 0.008252 0.000000
# 4 0.000000 0.000000 0.000000 0.614291 0.000000 0.104118
# 5 -0.008251 -0.000757 0.008252 0.000000 0.033967 0.000000
# 6 0.000000 0.000000 0.000000 0.104118 0.000000 0.093800
#
#
# Mechanical properties :
#
#
# Convention : Reuss Voigt Hill
#
# Bulk Modulus (GPa) = 24.15186 27.11806 25.63496
# Shear Modulus (GPa) = 6.09406 23.09835 14.59620
#
# Velocity S-wave (km/s) = 1.69307 3.29619 2.62024
# Velocity P-wave (km/s) = 3.89646 5.21940 4.60568
#
# Compressibility (1/GPa) = 0.04140468
#
# Stress axis : x y z
#
# Youngs Moduli (GPa) = 62.22462 71.23414 43.66959
#
# Poissons Ratio (x) = 0.24504 -0.04076
# Poissons Ratio (y) = 0.21405 0.14390
# Poissons Ratio (z) = -0.05808 0.23473
#
# Static dielectric constant tensor:
#      x y z
#    x 1.804120 0.000000 -0.027290 
#    y 0.000000 1.790300 0.000000 
#    z -0.027290 0.000000 1.821130 
# 
# From -- ./inp_files/44859.got.cif
#   From: 2010.05.17/outbox.cif.g08.bks.cpg/sg15_23_cif.got.tgz:44859.got - 2010.06.03 18:47:42.
