data_PCOD9260252
_publ_section_title
;
Structure prediction by ZEFSAII (Michael W. Deem and Ramdas Pophale) SiO2 
 PCOD9260252
Probable space group: C 2/C
;
_chemical_formula_sum "Si O2"
_cell_formula_units_Z 52
_cell_length_a 29.468368
_cell_length_b 8.117956
_cell_length_c 15.797957
_cell_angle_alpha 90.000000
_cell_angle_beta 37.892195
_cell_angle_gamma 90.000000
_cell_volume 2321.120841
_symmetry_space_group_name_H-M "C 2/C"
_symmetry_group_IT_number 15
_symmetry_cell_setting 'monoclinic'
loop_
_space_group_symop_operation_xyz
x,y,z
-x,y,1/2-z
-x,-y,-z
x,-y,1/2+z
1/2+x,1/2+y,z
1/2-x,1/2+y,1/2-z
1/2-x,1/2-y,-z
1/2+x,1/2-y,1/2+z
loop_
_atom_site_type_symbol
_atom_site_label
_atom_site_fract_x
_atom_site_fract_y
_atom_site_fract_z
Si Si1 0.531361 0.854750 0.296459
Si Si2 0.938318 0.892139 0.044102
Si Si3 0.295103 0.810353 0.016165
Si Si4 0.156916 0.004916 0.960961
Si Si5 0.056162 0.304797 0.803951
Si Si6 0.000000 0.916920 0.250000
Si Si7 0.299968 0.813285 0.503006
O O1 0.500000 0.892437 0.250000
O O2 0.483967 0.711267 0.407742
O O3 0.617605 0.820210 0.157888
O O4 0.522352 0.016755 0.366725
O O5 0.872087 0.980622 0.092383
O O6 0.911911 0.773172 0.158129
O O7 0.000000 0.000000 0.000000
O O8 0.298694 0.661150 0.079074
O O9 0.378918 0.823582 0.859431
O O10 0.277202 0.000998 0.065130
O O11 0.250000 0.750000 0.000000
O O12 0.079713 0.004139 0.129809
O O13 0.198504 0.172074 0.927343
O O14 0.999292 0.189654 0.837124
O O15 0.250000 0.750000 0.500000
#
# Coordination Sequence:
#
# PCOD9260252 Si02
#       7
#     8   8   8   8   8   4   8
#     4  11  22  40  65  94 123 166 216 266 316 384
#     4  12  24  36  61  95 132 164 204 266 331 370
#     4  10  22  40  68  89 121 168 217 259 313 381
#     4  11  21  37  62  90 129 159 214 254 316 375
#     4  10  22  38  63  93 125 158 213 268 316 374
#     4  10  18  36  66  90 116 168 208 260 310 374
#     4  11  22  38  67  95 119 164 219 262 310 378
#
# _framework density 22.402968999999999
#
# number of rings (size 3 to 8) (size 9 to 14) (size 15 to 20)
#    0.000    1.231    5.385    1.385    2.154    0.000 
#    2.769    0.000    6.769    0.000    0.000    0.000 
#    0.000    0.000    0.000    0.000    0.000    0.000 
#
# Total GULP energy -145133.508182 kJ/mol
# GULP energy per Si atom -5582.058007 kJ/mol
# Density = 2.235198 g / cm^3
# Si number density = 22.402969 Si / 1000 Ang^3
#
#
#
# Elastic Constant Matrix: (Units=GPa)
#
#
# Indices 1 2 3 4 5 6 
#
# 1 178.0005 82.3663 4.8568 0.0001 12.7937 0.0000
# 2 82.3663 184.0798 4.8195 0.0012 10.7749 -0.0006
# 3 4.8568 4.8195 29.4060 0.0009 7.3589 -0.0006
# 4 0.0001 0.0012 0.0009 15.9111 -0.0004 4.0696
# 5 12.7937 10.7749 7.3589 -0.0004 30.4657 0.0003
# 6 0.0000 -0.0006 -0.0006 4.0696 0.0003 46.2988
#
#
#
# Elastic Compliance Matrix: (Units=1/GPa)
#
#
# Indices 1 2 3 4 5 6 
#
# 1 0.007195 -0.003104 -0.000211 0.000000 -0.001873 0.000000
# 2 -0.003104 0.006892 -0.000355 -0.000001 -0.001048 0.000000
# 3 -0.000211 -0.000355 0.036237 -0.000003 -0.008539 0.000001
# 4 0.000000 -0.000001 -0.000003 0.064295 0.000002 -0.005651
# 5 -0.001873 -0.001048 -0.008539 0.000002 0.036043 0.000000
# 6 0.000000 0.000000 0.000001 -0.005651 0.000000 0.022096
#
#
# Mechanical properties :
#
#
# Convention : Reuss Voigt Hill
#
# Bulk Modulus (GPa) = 23.26447 63.95239 43.60843
# Shear Modulus (GPa) = 25.71697 38.49802 32.10750
#
# Velocity S-wave (km/s) = 3.39178 4.14990 3.78984
# Velocity P-wave (km/s) = 5.07405 7.18126 6.21758
#
# Compressibility (1/GPa) = 0.04298400
#
# Stress axis : x y z
#
# Youngs Moduli (GPa) = 138.99162 145.09554 27.59648
#
# Poissons Ratio (x) = 0.45039 0.00582
# Poissons Ratio (y) = 0.43145 0.00978
# Poissons Ratio (z) = 0.02932 0.05144
#
# Static dielectric constant tensor:
#      x y z
#    x 1.917990 0.000000 -0.041310 
#    y 0.000000 1.938920 0.000000 
#    z -0.041310 0.000000 1.854870 
# 
# From -- ./inp_files/176487.got.cif
#   From: 2010.05.17/outbox.cif.g08.bks.cpg/sg15_89_cif.got.tgz:176487.got - 2010.06.03 18:47:42.
