data_PCOD9260574
_publ_section_title
;
Structure prediction by ZEFSAII (Michael W. Deem and Ramdas Pophale) SiO2 
 PCOD9260574
Probable space group: C 2/C
;
_chemical_formula_sum "Si O2"
_cell_formula_units_Z 52
_cell_length_a 8.871041
_cell_length_b 17.453322
_cell_length_c 18.773851
_cell_angle_alpha 90.000000
_cell_angle_beta 119.025909
_cell_angle_gamma 90.000000
_cell_volume 2541.653807
_symmetry_space_group_name_H-M "C 2/C"
_symmetry_group_IT_number 15
_symmetry_cell_setting 'monoclinic'
loop_
_space_group_symop_operation_xyz
x,y,z
-x,y,1/2-z
-x,-y,-z
x,-y,1/2+z
1/2+x,1/2+y,z
1/2-x,1/2+y,1/2-z
1/2-x,1/2-y,-z
1/2+x,1/2-y,1/2+z
loop_
_atom_site_type_symbol
_atom_site_label
_atom_site_fract_x
_atom_site_fract_y
_atom_site_fract_z
Si Si1 0.188328 0.513354 0.506418
Si Si2 0.926528 0.668515 0.846832
Si Si3 0.186881 0.025489 0.759221
Si Si4 0.363769 0.818381 0.492767
Si Si5 0.155371 0.544855 0.842740
Si Si6 0.500000 0.281387 0.750000
Si Si7 0.775925 0.609810 0.376991
O O1 0.240712 0.600643 0.533205
O O2 0.174869 0.503140 0.418847
O O3 0.278419 0.442878 0.567445
O O4 0.000000 0.500000 0.500000
O O5 0.793387 0.598416 0.811554
O O6 0.888567 0.730321 0.778332
O O7 0.106049 0.628717 0.862603
O O8 0.920410 0.699865 0.924801
O O9 0.185321 0.033960 0.673589
O O10 0.000000 0.025205 0.750000
O O11 0.278994 0.949497 0.811301
O O12 0.250000 0.750000 0.500000
O O13 0.543288 0.844971 0.571897
O O14 0.000000 0.527377 0.750000
O O15 0.374635 0.331506 0.673611
#
# Coordination Sequence:
#
# PCOD9260574 Si02
#       7
#     8   8   8   8   8   4   8
#     4  10  18  40  70  97 131 184 230 284 342 409
#     4  11  21  43  67  95 137 181 229 283 362 402
#     4  11  22  41  71 102 135 186 240 287 340 432
#     4  11  23  41  69 104 137 177 232 298 350 408
#     4  10  18  37  71 101 125 187 231 277 352 420
#     4  12  26  42  66 102 136 188 224 290 354 420
#     4  11  23  44  68  95 144 184 231 285 354 422
#
# _framework density 20.459121
#
# number of rings (size 3 to 8) (size 9 to 14) (size 15 to 20)
#    0.000    1.231    7.692    2.769    0.000    3.077 
#    0.000    3.846    0.000    0.000    0.000    0.000 
#    0.000    0.000    0.000    0.000    0.000    0.000 
#
# Total GULP energy -144870.942662 kJ/mol
# GULP energy per Si atom -5571.959333 kJ/mol
# Density = 2.041255 g / cm^3
# Si number density = 20.459121 Si / 1000 Ang^3
#
#
#
# Elastic Constant Matrix: (Units=GPa)
#
#
# Indices 1 2 3 4 5 6 
#
# 1 113.8788 42.6023 58.8332 0.0000 -32.0185 0.0000
# 2 42.6023 117.3612 44.7634 0.0000 -10.0795 0.0000
# 3 58.8332 44.7634 93.4847 0.0000 -39.8634 0.0000
# 4 0.0000 0.0000 0.0000 38.2573 0.0000 -6.4758
# 5 -32.0185 -10.0795 -39.8634 0.0000 48.3643 0.0000
# 6 0.0000 0.0000 0.0000 -6.4758 0.0000 15.4005
#
#
#
# Elastic Compliance Matrix: (Units=1/GPa)
#
#
# Indices 1 2 3 4 5 6 
#
# 1 0.013806 -0.002429 -0.005927 0.000000 0.003748 0.000000
# 2 -0.002429 0.011141 -0.005399 0.000000 -0.003736 0.000000
# 3 -0.005927 -0.005399 0.022912 0.000000 0.013836 0.000000
# 4 0.000000 0.000000 0.000000 0.028142 0.000000 0.011834
# 5 0.003748 -0.003736 0.013836 0.000000 0.033783 0.000000
# 6 0.000000 0.000000 0.000000 0.011834 0.000000 0.069909
#
#
# Mechanical properties :
#
#
# Convention : Reuss Voigt Hill
#
# Bulk Modulus (GPa) = 49.14396 68.56918 58.85657
# Shear Modulus (GPa) = 23.36593 32.30613 27.83603
#
# Velocity S-wave (km/s) = 3.38313 3.97805 3.69259
# Velocity P-wave (km/s) = 6.27164 7.39512 6.85643
#
# Compressibility (1/GPa) = 0.02034838
#
# Stress axis : x y z
#
# Youngs Moduli (GPa) = 72.43228 89.75958 43.64478
#
# Poissons Ratio (x) = 0.21802 0.25869
# Poissons Ratio (y) = 0.17593 0.23565
# Poissons Ratio (z) = 0.42932 0.48463
#
# Static dielectric constant tensor:
#      x y z
#    x 1.803810 0.000000 0.019340 
#    y 0.000000 1.782590 0.000000 
#    z 0.019340 0.000000 1.824520 
# 
# From -- ./inp_files/191104.got.cif
#   From: 2010.05.17/outbox.cif.g08.bks.cpg/sg15_96_cif.got.tgz:191104.got - 2010.06.03 18:47:42.
