data_PCOD9260762
_publ_section_title
;
Structure prediction by ZEFSAII (Michael W. Deem and Ramdas Pophale) SiO2 
 PCOD9260762
Probable space group: C 2/C
;
_chemical_formula_sum "Si O2"
_cell_formula_units_Z 36
_cell_length_a 9.312960
_cell_length_b 15.436593
_cell_length_c 20.876207
_cell_angle_alpha 90.000000
_cell_angle_beta 142.148090
_cell_angle_gamma 90.000000
_cell_volume 1841.586790
_symmetry_space_group_name_H-M "C 2/C"
_symmetry_group_IT_number 15
_symmetry_cell_setting 'monoclinic'
loop_
_space_group_symop_operation_xyz
x,y,z
-x,y,1/2-z
-x,-y,-z
x,-y,1/2+z
1/2+x,1/2+y,z
1/2-x,1/2+y,1/2-z
1/2-x,1/2-y,-z
1/2+x,1/2-y,1/2+z
loop_
_atom_site_type_symbol
_atom_site_label
_atom_site_fract_x
_atom_site_fract_y
_atom_site_fract_z
Si Si1 0.744900 0.538078 0.605152
Si Si2 0.912295 0.254448 0.651398
Si Si3 0.652139 0.056002 0.224293
Si Si4 0.893614 0.227714 0.918181
Si Si5 0.000000 0.866940 0.750000
O O1 0.500000 0.500000 0.500000
O O2 0.779090 0.492976 0.686540
O O3 0.734325 0.640726 0.605278
O O4 0.944480 0.505776 0.626677
O O5 0.630781 0.256912 0.543041
O O6 0.000000 0.216272 0.750000
O O7 0.023248 0.351495 0.689051
O O8 0.016591 0.212916 0.623372
O O9 0.872125 0.074989 0.257796
O O10 0.705761 0.305476 0.851077
#
# Coordination Sequence:
#
# PCOD9260762 Si02
#       5
#     8   8   8   8   4
#     4  11  19  37  64  86 111 160 200 244 297 354
#     4  10  18  38  63  89 119 158 198 252 293 352
#     4  10  20  36  61  82 123 152 195 245 301 346
#     4  10  21  36  64  88 120 156 204 242 299 361
#     4  10  22  40  56  90 124 160 192 248 304 350
#
# _framework density 19.548359999999999
#
# number of rings (size 3 to 8) (size 9 to 14) (size 15 to 20)
#    0.000    1.778    4.444    1.333    0.000    0.000 
#    2.000   15.556    0.000    0.000    0.000    0.000 
#    0.000    0.000    0.000    0.000    0.000    0.000 
#
# Total GULP energy -100279.568593 kJ/mol
# GULP energy per Si atom -5571.087144 kJ/mol
# Density = 1.950387 g / cm^3
# Si number density = 19.548360 Si / 1000 Ang^3
#
#
#
# Elastic Constant Matrix: (Units=GPa)
#
#
# Indices 1 2 3 4 5 6 
#
# 1 116.6827 36.5765 53.1452 0.0000 28.3179 0.0000
# 2 36.5765 43.5023 3.4049 0.0000 8.0453 0.0000
# 3 53.1452 3.4049 126.3032 0.0000 11.3565 -0.0001
# 4 0.0000 0.0000 0.0000 5.1477 -0.0001 6.2069
# 5 28.3179 8.0453 11.3565 -0.0001 30.4103 0.0000
# 6 0.0000 0.0000 -0.0001 6.2069 0.0000 33.0283
#
#
#
# Elastic Compliance Matrix: (Units=1/GPa)
#
#
# Indices 1 2 3 4 5 6 
#
# 1 0.018111 -0.012671 -0.006275 0.000000 -0.011169 0.000000
# 2 -0.012671 0.033035 0.004311 0.000000 0.001449 0.000000
# 3 -0.006275 0.004311 0.010367 0.000000 0.000831 0.000000
# 4 0.000000 0.000000 0.000000 0.251180 0.000001 -0.047203
# 5 -0.011169 0.001449 0.000831 0.000001 0.042591 0.000000
# 6 0.000000 0.000000 0.000000 -0.047203 0.000000 0.039148
#
#
# Mechanical properties :
#
#
# Convention : Reuss Voigt Hill
#
# Bulk Modulus (GPa) = 31.01420 52.52681 41.77050
# Shear Modulus (GPa) = 11.50885 26.60802 19.05843
#
# Velocity S-wave (km/s) = 2.42902 3.69336 3.12579
# Velocity P-wave (km/s) = 4.87511 6.71688 5.86869
#
# Compressibility (1/GPa) = 0.03224330
#
# Stress axis : x y z
#
# Youngs Moduli (GPa) = 55.21585 30.27066 96.46227
#
# Poissons Ratio (x) = 0.38355 0.60527
# Poissons Ratio (y) = 0.69962 -0.41581
# Poissons Ratio (z) = 0.34646 -0.13049
#
# Static dielectric constant tensor:
#      x y z
#    x 1.714760 0.000000 0.003470 
#    y 0.000000 1.677950 0.000000 
#    z 0.003470 0.000000 1.725830 
# 
# From -- ./inp_files/132806.got.cif
#   From: 2010.05.17/outbox.cif.g08.bks.cpg/sg15_67_cif.got.tgz:132806.got - 2010.06.03 18:47:42.
