data_PCOD9260950
_publ_section_title
;
Structure prediction by ZEFSAII (Michael W. Deem and Ramdas Pophale) SiO2 
 PCOD9260950
Probable space group: C 2/C
;
_chemical_formula_sum "Si O2"
_cell_formula_units_Z 60
_cell_length_a 17.563905
_cell_length_b 27.768900
_cell_length_c 11.665367
_cell_angle_alpha 90.000000
_cell_angle_beta 27.475412
_cell_angle_gamma 90.000000
_cell_volume 2624.977311
_symmetry_space_group_name_H-M "C 2/C"
_symmetry_group_IT_number 15
_symmetry_cell_setting 'monoclinic'
loop_
_space_group_symop_operation_xyz
x,y,z
-x,y,1/2-z
-x,-y,-z
x,-y,1/2+z
1/2+x,1/2+y,z
1/2-x,1/2+y,1/2-z
1/2-x,1/2-y,-z
1/2+x,1/2-y,1/2+z
loop_
_atom_site_type_symbol
_atom_site_label
_atom_site_fract_x
_atom_site_fract_y
_atom_site_fract_z
Si Si1 0.301115 0.919510 0.353810
Si Si2 0.134077 0.587935 0.289220
Si Si3 0.000000 0.614472 0.250000
Si Si4 0.787844 0.270729 0.642695
Si Si5 0.154956 0.915591 0.310804
Si Si6 0.422628 0.350488 0.480284
Si Si7 0.847139 0.009399 0.868970
Si Si8 0.842126 0.307038 0.318468
O O1 0.166860 0.920066 0.430291
O O2 0.331011 0.864086 0.342427
O O3 0.238386 0.957525 0.530507
O O4 0.479523 0.933070 0.063995
O O5 0.084162 0.629458 0.259944
O O6 0.265928 0.613859 0.193435
O O7 0.219415 0.544660 0.106368
O O8 0.844281 0.589565 0.517248
O O9 0.770340 0.290644 0.536516
O O10 0.755812 0.214374 0.660343
O O11 0.970795 0.286127 0.437597
O O12 0.648221 0.297358 0.902306
O O13 0.100028 0.962674 0.315680
O O14 0.052411 0.870512 0.399313
O O15 0.500000 0.354958 0.250000
O O16 0.000000 0.006503 0.750000
#
# Coordination Sequence:
#
# PCOD9260950 Si02
#       8
#     8   8   4   8   8   8   8   8
#     4  11  24  39  68  95 131 179 238 277 333 409
#     4  10  18  39  61  90 133 174 220 267 329 405
#     4   8  16  32  58  86 118 182 206 258 326 380
#     4  10  24  44  75  97 132 176 225 284 354 392
#     4  10  21  38  62  93 134 184 218 276 339 393
#     4  12  20  40  73  98 138 177 218 272 352 416
#     4  11  21  40  58  92 137 181 223 273 333 403
#     4  10  23  49  68 100 132 175 229 292 336 404
#
# _framework density 22.857340000000001
#
# number of rings (size 3 to 8) (size 9 to 14) (size 15 to 20)
#    0.000    1.600    5.333    0.400    1.867    1.600 
#    4.800    7.333    8.800    0.000    0.000    0.000 
#    0.000    0.000    0.000    0.000    0.000    0.000 
#
# Total GULP energy -167286.140443 kJ/mol
# GULP energy per Si atom -5576.204681 kJ/mol
# Density = 2.280532 g / cm^3
# Si number density = 22.857340 Si / 1000 Ang^3
#
#
#
# Elastic Constant Matrix: (Units=GPa)
#
#
# Indices 1 2 3 4 5 6 
#
# 1 52.3358 -3.4147 7.9215 -0.0025 -15.5164 0.0050
# 2 -3.4147 66.9117 -1.8685 -0.0010 -10.1124 0.0005
# 3 7.9215 -1.8685 44.4161 -0.0247 -9.6030 0.0200
# 4 -0.0025 -0.0010 -0.0247 108.9306 0.0095 -80.5339
# 5 -15.5164 -10.1124 -9.6030 0.0095 18.0373 -0.0102
# 6 0.0050 0.0005 0.0200 -80.5339 -0.0102 91.3529
#
#
#
# Elastic Compliance Matrix: (Units=1/GPa)
#
#
# Indices 1 2 3 4 5 6 
#
# 1 0.027390 0.005567 0.001264 -0.000001 0.027356 0.000000
# 2 0.005567 0.017825 0.003337 0.000000 0.016559 0.000001
# 3 0.001264 0.003337 0.026070 0.000005 0.016837 0.000000
# 4 -0.000001 0.000000 0.000005 0.026361 0.000001 0.023239
# 5 0.027356 0.016559 0.016837 0.000001 0.097221 0.000006
# 6 0.000000 0.000001 0.000000 0.023239 0.000006 0.031434
#
#
# Mechanical properties :
#
#
# Convention : Reuss Voigt Hill
#
# Bulk Modulus (GPa) = 10.91454 18.77110 14.84282
# Shear Modulus (GPa) = 21.14131 54.39919 37.77025
#
# Velocity S-wave (km/s) = 3.04456 4.88376 4.06942
# Velocity P-wave (km/s) = 4.14060 6.32705 5.34678
#
# Compressibility (1/GPa) = 0.09162089
#
# Stress axis : x y z
#
# Youngs Moduli (GPa) = 36.51009 56.10100 38.35874
#
# Poissons Ratio (x) = -0.31233 -0.04848
# Poissons Ratio (y) = -0.20326 -0.12801
# Poissons Ratio (z) = -0.04614 -0.18722
#
# Static dielectric constant tensor:
#      x y z
#    x 1.904270 0.000000 -0.002230 
#    y 0.000000 1.930470 0.000000 
#    z -0.002230 0.000000 1.792000 
# 
# From -- ./inp_files/108394.got.cif
#   From: 2010.05.17/outbox.cif.g08.bks.cpg/sg15_55_cif.got.tgz:108394.got - 2010.06.03 18:47:42.
