data_PCOD9260876
_publ_section_title
;
Structure prediction by ZEFSAII (Michael W. Deem and Ramdas Pophale) SiO2 
 PCOD9260876
Probable space group: C 2/C
;
_chemical_formula_sum "Si O2"
_cell_formula_units_Z 52
_cell_length_a 16.396543
_cell_length_b 10.948349
_cell_length_c 15.368191
_cell_angle_alpha 90.000000
_cell_angle_beta 115.503427
_cell_angle_gamma 90.000000
_cell_volume 2490.001062
_symmetry_space_group_name_H-M "C 2/C"
_symmetry_group_IT_number 15
_symmetry_cell_setting 'monoclinic'
loop_
_space_group_symop_operation_xyz
x,y,z
-x,y,1/2-z
-x,-y,-z
x,-y,1/2+z
1/2+x,1/2+y,z
1/2-x,1/2+y,1/2-z
1/2-x,1/2-y,-z
1/2+x,1/2-y,1/2+z
loop_
_atom_site_type_symbol
_atom_site_label
_atom_site_fract_x
_atom_site_fract_y
_atom_site_fract_z
Si Si1 0.384660 0.750605 0.936956
Si Si2 0.949388 0.075594 0.635159
Si Si3 0.998299 0.656602 0.148089
Si Si4 0.382151 0.057444 0.575982
Si Si5 0.304192 0.505322 0.445925
Si Si6 0.057441 0.131128 0.107367
Si Si7 0.000000 0.732323 0.750000
O O1 0.407443 0.802268 0.852052
O O2 0.324473 0.629771 0.916909
O O3 0.348169 0.858090 0.981616
O O4 0.483228 0.712425 0.022381
O O5 0.940247 0.219513 0.618207
O O6 0.000000 0.061250 0.750000
O O7 0.855497 0.015011 0.563233
O O8 0.016702 0.004791 0.601393
O O9 0.954364 0.543213 0.078622
O O10 0.000000 0.620969 0.250000
O O11 0.301200 0.986066 0.585428
O O12 0.430288 0.148634 0.665449
O O13 0.351302 0.605864 0.404596
O O14 0.055053 0.188813 0.203220
#
# Coordination Sequence:
#
# PCOD9260876 Si02
#       7
#     8   8   8   8   8   8   4
#     4  10  20  40  66  85 118 171 202 244 311 376
#     4  10  19  36  64  92 116 163 205 254 308 364
#     4  11  21  39  63  87 126 166 206 242 309 385
#     4  11  24  40  61  90 133 159 207 251 314 368
#     4  11  21  40  63 100 119 154 211 274 293 360
#     4  10  18  38  67  84 120 157 222 242 307 367
#     4  10  22  42  60  86 118 184 200 248 310 380
#
# _framework density 20.883526
#
# number of rings (size 3 to 8) (size 9 to 14) (size 15 to 20)
#    0.000    1.538    4.615    1.846    0.000    0.615 
#    2.769    0.000    0.000    0.000    0.000    0.000 
#    0.000    0.000    0.000    0.000    0.000    0.000 
#
# Total GULP energy -144882.277770 kJ/mol
# GULP energy per Si atom -5572.395299 kJ/mol
# Density = 2.083599 g / cm^3
# Si number density = 20.883526 Si / 1000 Ang^3
#
#
#
# Elastic Constant Matrix: (Units=GPa)
#
#
# Indices 1 2 3 4 5 6 
#
# 1 65.4321 15.0650 17.9221 0.0000 -9.0965 0.0000
# 2 15.0650 79.1402 13.2628 0.0000 -5.9248 0.0000
# 3 17.9221 13.2628 75.8996 0.0000 -21.6858 0.0000
# 4 0.0000 0.0000 0.0000 10.6663 0.0000 -0.8776
# 5 -9.0965 -5.9248 -21.6858 0.0000 22.0412 0.0000
# 6 0.0000 0.0000 0.0000 -0.8776 0.0000 25.9779
#
#
#
# Elastic Compliance Matrix: (Units=1/GPa)
#
#
# Indices 1 2 3 4 5 6 
#
# 1 0.017092 -0.002545 -0.002464 0.000000 0.003946 0.000000
# 2 -0.002545 0.013445 -0.001413 0.000000 0.001173 0.000000
# 3 -0.002464 -0.001413 0.018925 0.000000 0.017223 0.000000
# 4 0.000000 0.000000 0.000000 0.094015 0.000000 0.003176
# 5 0.003946 0.001173 0.017223 0.000000 0.064259 0.000000
# 6 0.000000 0.000000 0.000000 0.003176 0.000000 0.038601
#
#
# Mechanical properties :
#
#
# Convention : Reuss Voigt Hill
#
# Bulk Modulus (GPa) = 27.30919 34.77462 31.04191
# Shear Modulus (GPa) = 18.42380 23.35188 20.88784
#
# Velocity S-wave (km/s) = 2.97344 3.34757 3.16603
# Velocity P-wave (km/s) = 4.98936 5.62401 5.31616
#
# Compressibility (1/GPa) = 0.03661771
#
# Stress axis : x y z
#
# Youngs Moduli (GPa) = 58.50523 74.37705 52.84023
#
# Poissons Ratio (x) = 0.18932 0.13019
# Poissons Ratio (y) = 0.14892 0.07467
# Poissons Ratio (z) = 0.14415 0.10511
#
# Static dielectric constant tensor:
#      x y z
#    x 1.751510 0.000000 -0.042900 
#    y 0.000000 1.752230 0.000000 
#    z -0.042900 0.000000 1.845000 
# 
# From -- ./inp_files/152696.got.cif
#   From: 2010.05.17/outbox.cif.g08.bks.cpg/sg15_77_cif.got.tgz:152696.got - 2010.06.03 18:47:42.
