data_PCOD9260463
_publ_section_title
;
Structure prediction by ZEFSAII (Michael W. Deem and Ramdas Pophale) SiO2 
 PCOD9260463
Probable space group: C 2/C
;
_chemical_formula_sum "Si O2"
_cell_formula_units_Z 36
_cell_length_a 6.718104
_cell_length_b 12.573561
_cell_length_c 19.619930
_cell_angle_alpha 90.000000
_cell_angle_beta 123.951950
_cell_angle_gamma 90.000000
_cell_volume 1374.744926
_symmetry_space_group_name_H-M "C 2/C"
_symmetry_group_IT_number 15
_symmetry_cell_setting 'monoclinic'
loop_
_space_group_symop_operation_xyz
x,y,z
-x,y,1/2-z
-x,-y,-z
x,-y,1/2+z
1/2+x,1/2+y,z
1/2-x,1/2+y,1/2-z
1/2-x,1/2-y,-z
1/2+x,1/2-y,1/2+z
loop_
_atom_site_type_symbol
_atom_site_label
_atom_site_fract_x
_atom_site_fract_y
_atom_site_fract_z
Si Si1 0.164172 0.902958 0.348222
Si Si2 0.642149 0.293569 0.550970
Si Si3 0.500000 0.992797 0.750000
Si Si4 0.727934 0.655427 0.617181
Si Si5 0.855109 0.616204 0.338006
O O1 0.347630 0.804767 0.394982
O O2 0.000000 0.884910 0.250000
O O3 0.982555 0.895597 0.376497
O O4 0.277600 0.019033 0.369683
O O5 0.750000 0.250000 0.500000
O O6 0.385739 0.339003 0.480134
O O7 0.855398 0.372316 0.611875
O O8 0.441004 0.077314 0.678399
O O9 0.697867 0.918050 0.750363
O O10 0.751365 0.774484 0.653157
#
# Coordination Sequence:
#
# PCOD9260463 Si02
#       5
#     8   8   4   8   8
#     4  10  18  37  63  85 113 157 196 230 291 347
#     4   8  20  38  59  86 119 150 190 242 291 342
#     4  12  24  36  60  90 116 150 204 234 286 354
#     4  10  24  40  58  89 121 148 194 245 286 346
#     4  10  22  37  61  84 114 157 190 241 292 334
#
# _framework density 26.186675000000001
#
# number of rings (size 3 to 8) (size 9 to 14) (size 15 to 20)
#    0.000    2.667    2.222    0.000    7.778    8.889 
#    0.000    1.111    0.000    0.000    0.000    1.556 
#    0.000    0.000    0.000    0.000    0.000    0.000 
#
# Total GULP energy -100503.830729 kJ/mol
# GULP energy per Si atom -5583.546152 kJ/mol
# Density = 2.612707 g / cm^3
# Si number density = 26.186675 Si / 1000 Ang^3
#
#
#
# Elastic Constant Matrix: (Units=GPa)
#
#
# Indices 1 2 3 4 5 6 
#
# 1 37.8030 31.2501 5.8874 0.0000 13.6319 0.0000
# 2 31.2501 201.6429 41.9241 0.0000 -0.0356 0.0000
# 3 5.8874 41.9241 84.1763 0.0000 12.3688 0.0000
# 4 0.0000 0.0000 0.0000 -24.5989 0.0000 -50.4545
# 5 13.6319 -0.0356 12.3688 0.0000 36.8552 0.0000
# 6 0.0000 0.0000 0.0000 -50.4545 0.0000 22.9413
#
#
#
# Elastic Compliance Matrix: (Units=1/GPa)
#
#
# Indices 1 2 3 4 5 6 
#
# 1 0.036316 -0.006180 0.002643 0.000000 -0.014325 0.000000
# 2 -0.006180 0.006618 -0.003366 0.000000 0.003422 0.000000
# 3 0.002643 -0.003366 0.014217 0.000000 -0.005752 0.000000
# 4 0.000000 0.000000 0.000000 -0.007377 0.000000 -0.016223
# 5 -0.014325 0.003422 -0.005752 0.000000 0.034366 0.000000
# 6 0.000000 0.000000 0.000000 -0.016223 0.000000 0.007910
#
#
# Mechanical properties :
#
#
# Convention : Reuss Voigt Hill
#
# Bulk Modulus (GPa) = 23.07176 53.52729 38.29952
# Shear Modulus (GPa) = 41.56140 23.34355 32.45248
#
# Velocity S-wave (km/s) = 3.98819 2.98892 3.52415
# Velocity P-wave (km/s) = 5.48062 5.69180 5.58720
#
# Compressibility (1/GPa) = 0.04334304
#
# Stress axis : x y z
#
# Youngs Moduli (GPa) = 27.53613 151.11237 70.33902
#
# Poissons Ratio (x) = 0.93390 -0.18591
# Poissons Ratio (y) = 0.17018 0.23680
# Poissons Ratio (z) = -0.07278 0.50872
#
# Static dielectric constant tensor:
#      x y z
#    x 2.120600 0.000000 -0.050370 
#    y 0.000000 2.073270 0.000000 
#    z -0.050370 0.000000 1.811790 
# 
# From -- ./inp_files/230046.got.cif
#   From: 2010.05.17/outbox.cif.g08.bks.cpg/sg15_116_cif.got.tgz:230046.got - 2010.06.03 18:47:42.
