data_PCOD9260649
_publ_section_title
;
Structure prediction by ZEFSAII (Michael W. Deem and Ramdas Pophale) SiO2 
 PCOD9260649
Probable space group: C 2/C
;
_chemical_formula_sum "Si O2"
_cell_formula_units_Z 44
_cell_length_a 14.067328
_cell_length_b 12.783950
_cell_length_c 19.054284
_cell_angle_alpha 90.000000
_cell_angle_beta 40.144265
_cell_angle_gamma 90.000000
_cell_volume 2209.208354
_symmetry_space_group_name_H-M "C 2/C"
_symmetry_group_IT_number 15
_symmetry_cell_setting 'monoclinic'
loop_
_space_group_symop_operation_xyz
x,y,z
-x,y,1/2-z
-x,-y,-z
x,-y,1/2+z
1/2+x,1/2+y,z
1/2-x,1/2+y,1/2-z
1/2-x,1/2-y,-z
1/2+x,1/2-y,1/2+z
loop_
_atom_site_type_symbol
_atom_site_label
_atom_site_fract_x
_atom_site_fract_y
_atom_site_fract_z
Si Si1 0.500000 0.219443 0.250000
Si Si2 0.261479 0.837907 0.054324
Si Si3 0.486602 0.115515 0.838522
Si Si4 0.675730 0.424701 0.573160
Si Si5 0.630012 0.657847 0.257969
Si Si6 0.941747 0.401418 0.641049
O O1 0.642692 0.294006 0.175476
O O2 0.506824 0.146502 0.313878
O O3 0.209148 0.951784 0.058070
O O4 0.250000 0.750000 0.000000
O O5 0.430260 0.856537 0.982363
O O6 0.500000 0.080895 0.750000
O O7 0.577625 0.222439 0.791749
O O8 0.547184 0.025833 0.855985
O O9 0.313580 0.127023 0.955364
O O10 0.513144 0.405572 0.634201
O O11 0.663378 0.377135 0.658753
O O12 0.779444 0.634536 0.214211
#
# Coordination Sequence:
#
# PCOD9260649 Si02
#       6
#     4   8   8   8   8   8
#     4  10  18  38  60  84 124 164 200 258 302 362
#     4   9  20  37  61  84 119 160 198 250 311 353
#     4  11  22  42  65  85 129 169 197 251 316 365
#     4  10  22  40  62  87 127 160 209 250 302 370
#     4  11  23  38  64  95 118 165 207 253 303 365
#     4  10  23  38  61  92 120 159 211 250 306 366
#
# _framework density 19.916636
#
# number of rings (size 3 to 8) (size 9 to 14) (size 15 to 20)
#    0.000    1.818    2.727    1.636    0.000    8.727 
#    0.000    0.909    0.000    0.000    0.000    0.000 
#    0.000    0.000    0.000    0.000    0.000    0.000 
#
# Total GULP energy -122690.788559 kJ/mol
# GULP energy per Si atom -5576.854025 kJ/mol
# Density = 1.987130 g / cm^3
# Si number density = 19.916636 Si / 1000 Ang^3
#
#
#
# Elastic Constant Matrix: (Units=GPa)
#
#
# Indices 1 2 3 4 5 6 
#
# 1 74.1080 27.7165 41.9560 0.0000 -38.4693 0.0000
# 2 27.7165 139.4635 52.5921 0.0000 -24.7990 0.0000
# 3 41.9560 52.5921 137.7144 -0.0001 -33.8708 0.0000
# 4 0.0000 0.0000 -0.0001 35.9745 0.0000 -1.1131
# 5 -38.4693 -24.7990 -33.8708 0.0000 40.6979 0.0000
# 6 0.0000 0.0000 0.0000 -1.1131 0.0000 -53.0547
#
#
#
# Elastic Compliance Matrix: (Units=1/GPa)
#
#
# Indices 1 2 3 4 5 6 
#
# 1 0.027154 -0.000325 -0.002370 0.000000 0.023497 0.000000
# 2 -0.000325 0.008697 -0.002508 0.000000 0.002905 0.000000
# 3 -0.002370 -0.002508 0.010077 0.000000 0.004619 0.000000
# 4 0.000000 0.000000 0.000000 0.027779 0.000000 -0.000583
# 5 0.023497 0.002905 0.004619 0.000000 0.052396 0.000000
# 6 0.000000 0.000000 0.000000 -0.000583 0.000000 -0.018836
#
#
# Mechanical properties :
#
#
# Convention : Reuss Voigt Hill
#
# Bulk Modulus (GPa) = 28.15005 66.20169 47.17587
# Shear Modulus (GPa) = 38.60604 19.99163 29.29883
#
# Velocity S-wave (km/s) = 4.40748 3.17166 3.83962
# Velocity P-wave (km/s) = 6.32976 6.83551 6.58749
#
# Compressibility (1/GPa) = 0.03552392
#
# Stress axis : x y z
#
# Youngs Moduli (GPa) = 36.82672 114.97893 99.23580
#
# Poissons Ratio (x) = 0.03734 0.23515
# Poissons Ratio (y) = 0.01196 0.24887
# Poissons Ratio (z) = 0.08727 0.28835
#
# Static dielectric constant tensor:
#      x y z
#    x 1.695320 0.000000 -0.002920 
#    y 0.000000 1.712020 0.000000 
#    z -0.002920 0.000000 1.783280 
# 
# From -- ./inp_files/243603.got.cif
#   From: 2010.05.17/outbox.cif.g08.bks.cpg/sg15_122_cif.got.tgz:243603.got - 2010.06.03 18:47:42.
