data_PCOD9260090
_publ_section_title
;
Structure prediction by ZEFSAII (Michael W. Deem and Ramdas Pophale) SiO2 
 PCOD9260090
Probable space group: C 2/C
;
_chemical_formula_sum "Si O2"
_cell_formula_units_Z 56
_cell_length_a 16.751111
_cell_length_b 11.171431
_cell_length_c 22.700153
_cell_angle_alpha 90.000000
_cell_angle_beta 134.897520
_cell_angle_gamma 90.000000
_cell_volume 3009.134554
_symmetry_space_group_name_H-M "C 2/C"
_symmetry_group_IT_number 15
_symmetry_cell_setting 'monoclinic'
loop_
_space_group_symop_operation_xyz
x,y,z
-x,y,1/2-z
-x,-y,-z
x,-y,1/2+z
1/2+x,1/2+y,z
1/2-x,1/2+y,1/2-z
1/2-x,1/2-y,-z
1/2+x,1/2-y,1/2+z
loop_
_atom_site_type_symbol
_atom_site_label
_atom_site_fract_x
_atom_site_fract_y
_atom_site_fract_z
Si Si1 0.660748 0.578213 0.933796
Si Si2 0.500000 0.523598 0.750000
Si Si3 0.677561 0.356475 0.806824
Si Si4 0.914839 0.535373 0.404272
Si Si5 0.584142 0.855158 0.194992
Si Si6 0.500000 0.961202 0.750000
Si Si7 0.907980 0.341045 0.585531
Si Si8 0.633780 0.307502 0.919864
O O1 0.598290 0.586555 0.837904
O O2 0.617908 0.701455 0.940052
O O3 0.629558 0.445215 0.940737
O O4 0.796353 0.587838 0.005606
O O5 0.574745 0.448432 0.741632
O O6 0.800549 0.411003 0.870053
O O7 0.671136 0.245125 0.760320
O O8 0.643511 0.316530 0.854399
O O9 0.882547 0.424163 0.346129
O O10 0.000000 0.500000 0.500000
O O11 0.984248 0.621065 0.396300
O O12 0.468542 0.782649 0.121360
O O13 0.566284 0.948480 0.239986
O O14 0.431453 0.879833 0.666377
O O15 0.750000 0.250000 0.000000
#
# Coordination Sequence:
#
# PCOD9260090 Si02
#       8
#     8   4   8   8   8   4   8   8
#     4  10  20  35  58  90 120 155 208 254 299 377
#     4  10  18  36  62  86 118 154 208 252 300 370
#     4  11  20  37  58  91 120 155 210 259 305 383
#     4  11  24  40  59  88 129 167 204 259 336 383
#     4  11  20  38  61  90 119 154 218 261 303 383
#     4  10  18  38  62  88 120 152 210 260 304 368
#     4  10  22  38  58  91 124 161 205 258 313 379
#     4  11  19  35  66  89 113 156 208 262 306 361
#
# _framework density 18.610002000000001
#
# number of rings (size 3 to 8) (size 9 to 14) (size 15 to 20)
#    0.000    1.429    4.286    4.714    0.000    1.143 
#    0.000    7.143    0.000    1.714    0.000    0.000 
#    0.000    0.000    0.000    0.000    0.000    0.000 
#
# Total GULP energy -155897.054085 kJ/mol
# GULP energy per Si atom -5567.751932 kJ/mol
# Density = 1.856764 g / cm^3
# Si number density = 18.610002 Si / 1000 Ang^3
#
#
#
# Elastic Constant Matrix: (Units=GPa)
#
#
# Indices 1 2 3 4 5 6 
#
# 1 19.4414 -7.0110 4.8387 0.0000 10.5012 0.0000
# 2 -7.0110 73.1846 7.9903 0.0000 8.2455 0.0000
# 3 4.8387 7.9903 94.3495 0.0000 13.6135 0.0000
# 4 0.0000 0.0000 0.0000 34.0490 0.0000 5.5917
# 5 10.5012 8.2455 13.6135 0.0000 31.2072 0.0000
# 6 0.0000 0.0000 0.0000 5.5917 0.0000 9.3095
#
#
#
# Elastic Compliance Matrix: (Units=1/GPa)
#
#
# Indices 1 2 3 4 5 6 
#
# 1 0.068725 0.009513 -0.000673 0.000000 -0.025346 0.000000
# 2 0.009513 0.015444 -0.000795 0.000000 -0.006935 0.000000
# 3 -0.000673 -0.000795 0.011352 0.000000 -0.004516 0.000000
# 4 0.000000 0.000000 0.000000 0.032584 0.000000 -0.019571
# 5 -0.025346 -0.006935 -0.004516 0.000000 0.044375 0.000000
# 6 0.000000 0.000000 0.000000 -0.019571 0.000000 0.119172
#
#
# Mechanical properties :
#
#
# Convention : Reuss Voigt Hill
#
# Bulk Modulus (GPa) = 8.95977 22.06795 15.51386
# Shear Modulus (GPa) = 15.98644 26.99032 21.48838
#
# Velocity S-wave (km/s) = 2.93409 3.81243 3.40173
# Velocity P-wave (km/s) = 4.03775 5.59136 4.87682
#
# Compressibility (1/GPa) = 0.11161000
#
# Stress axis : x y z
#
# Youngs Moduli (GPa) = 14.55076 64.75213 88.08790
#
# Poissons Ratio (x) = -0.61598 0.05929
# Poissons Ratio (y) = -0.13842 0.07004
# Poissons Ratio (z) = 0.00979 0.05149
#
# Static dielectric constant tensor:
#      x y z
#    x 1.606050 0.000000 -0.007700 
#    y 0.000000 1.733750 0.000000 
#    z -0.007700 0.000000 1.683330 
# 
# From -- ./inp_files/277152.got.cif
#   From: 2010.05.17/outbox.cif.g08.bks.cpg/sg15_139_cif.got.tgz:277152.got - 2010.06.03 18:47:42.
