data_PCOD9260560
_publ_section_title
;
Structure prediction by ZEFSAII (Michael W. Deem and Ramdas Pophale) SiO2 
 PCOD9260560
Probable space group: C 2/C
;
_chemical_formula_sum "Si O2"
_cell_formula_units_Z 56
_cell_length_a 22.034534
_cell_length_b 8.313353
_cell_length_c 14.638836
_cell_angle_alpha 90.000000
_cell_angle_beta 83.635741
_cell_angle_gamma 90.000000
_cell_volume 2665.028834
_symmetry_space_group_name_H-M "C 2/C"
_symmetry_group_IT_number 15
_symmetry_cell_setting 'monoclinic'
loop_
_space_group_symop_operation_xyz
x,y,z
-x,y,1/2-z
-x,-y,-z
x,-y,1/2+z
1/2+x,1/2+y,z
1/2-x,1/2+y,1/2-z
1/2-x,1/2-y,-z
1/2+x,1/2-y,1/2+z
loop_
_atom_site_type_symbol
_atom_site_label
_atom_site_fract_x
_atom_site_fract_y
_atom_site_fract_z
Si Si1 0.340992 0.227908 0.653615
Si Si2 0.218461 0.281502 0.134801
Si Si3 0.568485 0.209765 0.278252
Si Si4 0.566013 0.973168 0.446153
Si Si5 0.723086 0.434636 0.107520
Si Si6 0.167614 0.923078 0.317341
Si Si7 0.654264 0.895437 0.597144
O O1 0.320800 0.220998 0.763589
O O2 0.410011 0.176102 0.620052
O O3 0.293949 0.114446 0.605936
O O4 0.331320 0.412390 0.627799
O O5 0.291040 0.285741 0.143798
O O6 0.201198 0.456841 0.099239
O O7 0.208389 0.117449 0.078744
O O8 0.500000 0.215622 0.250000
O O9 0.599440 0.378603 0.299179
O O10 0.614188 0.130795 0.196162
O O11 0.572652 0.115199 0.372333
O O12 0.500000 0.000000 0.500000
O O13 0.392012 0.047913 0.472438
O O14 0.703059 0.447072 0.216680
O O15 0.686929 0.278218 0.076632
#
# Coordination Sequence:
#
# PCOD9260560 Si02
#       7
#     8   8   8   8   8   8   8
#     4  10  19  38  62  93 133 163 211 270 319 381
#     4  10  18  37  67  99 130 164 209 262 336 390
#     4  11  22  44  67  87 128 175 218 264 318 381
#     4  12  25  41  63  93 124 179 228 257 316 384
#     4   9  19  35  65  99 130 164 205 266 331 385
#     4   9  19  36  66  98 124 168 212 265 327 385
#     4  11  22  41  66  97 132 165 215 269 323 386
#
# _framework density 21.012906000000001
#
# number of rings (size 3 to 8) (size 9 to 14) (size 15 to 20)
#    0.000    1.714    4.286    0.857    4.000    0.571 
#    2.571    7.143    0.000    0.000    0.000    0.000 
#    0.000    0.000    0.000    0.000    0.000    0.000 
#
# Total GULP energy -155973.885263 kJ/mol
# GULP energy per Si atom -5570.495902 kJ/mol
# Density = 2.096508 g / cm^3
# Si number density = 21.012906 Si / 1000 Ang^3
#
#
#
# Elastic Constant Matrix: (Units=GPa)
#
#
# Indices 1 2 3 4 5 6 
#
# 1 112.1148 63.7530 22.1797 0.0000 -12.2493 0.0000
# 2 63.7530 131.4624 25.0551 0.0000 -3.7296 0.0000
# 3 22.1797 25.0551 71.9287 0.0000 -14.9055 0.0000
# 4 0.0000 0.0000 0.0000 17.5633 0.0000 1.2857
# 5 -12.2493 -3.7296 -14.9055 0.0000 32.3835 0.0000
# 6 0.0000 0.0000 0.0000 1.2857 0.0000 25.4483
#
#
#
# Elastic Compliance Matrix: (Units=1/GPa)
#
#
# Indices 1 2 3 4 5 6 
#
# 1 0.012931 -0.005947 -0.001154 0.000000 0.003675 0.000000
# 2 -0.005947 0.010887 -0.002393 0.000000 -0.002097 0.000000
# 3 -0.001154 -0.002393 0.016520 0.000000 0.006892 0.000000
# 4 0.000000 0.000000 0.000000 0.057148 0.000000 -0.002887
# 5 0.003675 -0.002097 0.006892 0.000000 0.035201 0.000000
# 6 0.000000 0.000000 0.000000 -0.002887 0.000000 0.039441
#
#
# Mechanical properties :
#
#
# Convention : Reuss Voigt Hill
#
# Bulk Modulus (GPa) = 46.83834 59.72016 53.27925
# Shear Modulus (GPa) = 25.22278 28.71354 26.96816
#
# Velocity S-wave (km/s) = 3.46836 3.70059 3.58636
# Velocity P-wave (km/s) = 6.19500 6.83678 6.52379
#
# Compressibility (1/GPa) = 0.02135003
#
# Stress axis : x y z
#
# Youngs Moduli (GPa) = 77.33499 91.85130 60.53111
#
# Poissons Ratio (x) = 0.54620 0.06987
# Poissons Ratio (y) = 0.45988 0.14487
# Poissons Ratio (z) = 0.08927 0.21982
#
# Static dielectric constant tensor:
#      x y z
#    x 1.758830 0.000000 -0.005520 
#    y 0.000000 1.865510 0.000000 
#    z -0.005520 0.000000 1.833020 
# 
# From -- ./inp_files/213356.got.cif
#   From: 2010.05.17/outbox.cif.g08.bks.cpg/sg15_107_cif.got.tgz:213356.got - 2010.06.03 18:47:42.
