data_PCOD9260460
_publ_section_title
;
Structure prediction by ZEFSAII (Michael W. Deem and Ramdas Pophale) SiO2 
 PCOD9260460
Probable space group: C 2/C
;
_chemical_formula_sum "Si O2"
_cell_formula_units_Z 48
_cell_length_a 21.321824
_cell_length_b 8.988444
_cell_length_c 18.507526
_cell_angle_alpha 90.000000
_cell_angle_beta 134.625019
_cell_angle_gamma 90.000000
_cell_volume 2524.445661
_symmetry_space_group_name_H-M "C 2/C"
_symmetry_group_IT_number 15
_symmetry_cell_setting 'monoclinic'
loop_
_space_group_symop_operation_xyz
x,y,z
-x,y,1/2-z
-x,-y,-z
x,-y,1/2+z
1/2+x,1/2+y,z
1/2-x,1/2+y,1/2-z
1/2-x,1/2-y,-z
1/2+x,1/2-y,1/2+z
loop_
_atom_site_type_symbol
_atom_site_label
_atom_site_fract_x
_atom_site_fract_y
_atom_site_fract_z
Si Si1 0.291364 0.905862 0.483785
Si Si2 0.255303 0.114922 0.117022
Si Si3 0.032913 0.206114 0.857638
Si Si4 0.404891 0.872619 0.992806
Si Si5 0.576400 0.523855 0.502838
Si Si6 0.922757 0.453073 0.843229
O O1 0.250545 0.937313 0.529217
O O2 0.236172 0.794961 0.386737
O O3 0.377428 0.802499 0.568012
O O4 0.327222 0.053465 0.475967
O O5 0.337675 0.039471 0.223438
O O6 0.166292 0.070975 0.087347
O O7 0.000000 0.202896 0.750000
O O8 0.968526 0.298647 0.857402
O O9 0.043342 0.044743 0.900518
O O10 0.398617 0.943571 0.907766
O O11 0.400760 0.696398 0.984044
O O12 0.500318 0.923650 0.101663
O O13 0.500000 0.500000 0.500000
#
# Coordination Sequence:
#
# PCOD9260460 Si02
#       6
#     8   8   8   8   8   8
#     4   9  20  38  63  87 115 156 203 254 293 354
#     4  10  21  38  63  88 116 158 208 247 296 360
#     4  10  18  37  63  83 115 159 203 239 297 365
#     4  10  22  39  59  89 128 157 192 251 312 357
#     4  11  23  41  56  86 130 160 191 251 308 355
#     4  10  20  38  64  88 114 161 207 243 296 364
#
# _framework density 19.014074000000001
#
# number of rings (size 3 to 8) (size 9 to 14) (size 15 to 20)
#    0.000    2.000    3.333    0.000    2.333    2.000 
#    3.000    0.000    0.000    0.000    0.000    0.000 
#    0.000    0.000    0.000    0.000    0.000    0.000 
#
# Total GULP energy -133769.777867 kJ/mol
# GULP energy per Si atom -5573.740744 kJ/mol
# Density = 1.897080 g / cm^3
# Si number density = 19.014074 Si / 1000 Ang^3
#
#
#
# Elastic Constant Matrix: (Units=GPa)
#
#
# Indices 1 2 3 4 5 6 
#
# 1 107.7574 14.4592 7.1172 0.0000 -0.4786 0.0000
# 2 14.4592 70.8722 -5.4179 0.0000 -4.5231 0.0000
# 3 7.1172 -5.4179 64.0083 0.0000 2.9036 0.0000
# 4 0.0000 0.0000 0.0000 16.8960 0.0000 -2.3741
# 5 -0.4786 -4.5231 2.9036 0.0000 18.3696 0.0000
# 6 0.0000 0.0000 0.0000 -2.3741 0.0000 33.3414
#
#
#
# Elastic Compliance Matrix: (Units=1/GPa)
#
#
# Indices 1 2 3 4 5 6 
#
# 1 0.009639 -0.002066 -0.001244 0.000000 -0.000061 0.000000
# 2 -0.002066 0.014850 0.001333 0.000000 0.003392 0.000000
# 3 -0.001244 0.001333 0.015975 0.000000 -0.002229 0.000000
# 4 0.000000 0.000000 0.000000 0.059784 0.000000 0.004257
# 5 -0.000061 0.003392 -0.002229 0.000000 0.055624 0.000000
# 6 0.000000 0.000000 0.000000 0.004257 0.000000 0.030296
#
#
# Mechanical properties :
#
#
# Convention : Reuss Voigt Hill
#
# Bulk Modulus (GPa) = 27.38923 30.55054 28.96988
# Shear Modulus (GPa) = 24.71690 28.82004 26.76847
#
# Velocity S-wave (km/s) = 3.60936 3.89745 3.75617
# Velocity P-wave (km/s) = 5.63968 6.02957 5.83788
#
# Compressibility (1/GPa) = 0.03651070
#
# Stress axis : x y z
#
# Youngs Moduli (GPa) = 103.74357 67.34165 62.59692
#
# Poissons Ratio (x) = 0.13910 0.07786
# Poissons Ratio (y) = 0.21428 -0.08343
# Poissons Ratio (z) = 0.12904 -0.08975
#
# Static dielectric constant tensor:
#      x y z
#    x 1.689450 0.000000 0.030030 
#    y 0.000000 1.643220 0.000000 
#    z 0.030030 0.000000 1.685610 
# 
# From -- ./inp_files/214080.got.cif
#   From: 2010.05.17/outbox.cif.g08.bks.cpg/sg15_108_cif.got.tgz:214080.got - 2010.06.03 18:47:42.
