data_PCOD9260037
_publ_section_title
;
Structure prediction by ZEFSAII (Michael W. Deem and Ramdas Pophale) SiO2 
 PCOD9260037
Probable space group: C 2/C
;
_chemical_formula_sum "Si O2"
_cell_formula_units_Z 44
_cell_length_a 17.277018
_cell_length_b 7.185180
_cell_length_c 16.423628
_cell_angle_alpha 90.000000
_cell_angle_beta 94.905973
_cell_angle_gamma 90.000000
_cell_volume 2031.334893
_symmetry_space_group_name_H-M "C 2/C"
_symmetry_group_IT_number 15
_symmetry_cell_setting 'monoclinic'
loop_
_space_group_symop_operation_xyz
x,y,z
-x,y,1/2-z
-x,-y,-z
x,-y,1/2+z
1/2+x,1/2+y,z
1/2-x,1/2+y,1/2-z
1/2-x,1/2-y,-z
1/2+x,1/2-y,1/2+z
loop_
_atom_site_type_symbol
_atom_site_label
_atom_site_fract_x
_atom_site_fract_y
_atom_site_fract_z
Si Si1 0.000000 0.487227 0.250000
Si Si2 0.136208 0.343683 0.663497
Si Si3 0.119649 0.775476 0.847228
Si Si4 0.754735 0.673739 0.762185
Si Si5 0.330796 0.640764 0.581188
Si Si6 0.826323 0.514468 0.506243
O O1 0.943411 0.617942 0.297551
O O2 0.953145 0.347640 0.186427
O O3 0.195721 0.492600 0.709138
O O4 0.183845 0.159107 0.691080
O O5 0.134538 0.391423 0.568728
O O6 0.176531 0.789554 0.774936
O O7 0.110271 0.982640 0.882310
O O8 0.164882 0.653083 0.918205
O O9 0.713172 0.726714 0.843559
O O10 0.262591 0.536113 0.524856
O O11 0.362821 0.814276 0.533527
#
# Coordination Sequence:
#
# PCOD9260037 Si02
#       6
#     4   8   8   8   8   8
#     4  10  24  40  60  86 130 160 204 250 310 372
#     4  10  21  39  62  91 119 166 200 261 302 360
#     4  11  21  39  60  89 124 163 201 251 307 362
#     4  10  18  36  61  86 118 156 214 240 294 363
#     4  10  20  35  59  95 117 158 204 261 294 358
#     4  10  21  36  61  91 126 147 211 258 304 348
#
# _framework density 21.660634000000002
#
# number of rings (size 3 to 8) (size 9 to 14) (size 15 to 20)
#    0.000    1.818    3.636    2.727    0.000    0.727 
#    0.000    4.545    0.000    0.000    0.000    0.000 
#    0.000    0.000    0.000    0.000    0.000    0.000 
#
# Total GULP energy -122663.295276 kJ/mol
# GULP energy per Si atom -5575.604331 kJ/mol
# Density = 2.161133 g / cm^3
# Si number density = 21.660634 Si / 1000 Ang^3
#
#
#
# Elastic Constant Matrix: (Units=GPa)
#
#
# Indices 1 2 3 4 5 6 
#
# 1 58.5376 -0.4665 18.4148 0.0000 -9.4688 0.0000
# 2 -0.4665 65.8936 35.5334 0.0000 0.6215 0.0000
# 3 18.4148 35.5334 108.5633 0.0000 1.0232 0.0000
# 4 0.0000 0.0000 0.0000 43.5961 0.0000 11.5323
# 5 -9.4688 0.6215 1.0232 0.0000 15.8998 0.0000
# 6 0.0000 0.0000 0.0000 11.5323 0.0000 25.1661
#
#
#
# Elastic Compliance Matrix: (Units=1/GPa)
#
#
# Indices 1 2 3 4 5 6 
#
# 1 0.020481 0.002386 -0.004371 0.000000 0.012385 0.000000
# 2 0.002386 0.018708 -0.006538 0.000000 0.001110 0.000000
# 3 -0.004371 -0.006538 0.012122 0.000000 -0.003128 0.000000
# 4 0.000000 0.000000 0.000000 0.026102 0.000000 -0.011961
# 5 0.012385 0.001110 -0.003128 0.000000 0.070427 0.000000
# 6 0.000000 0.000000 0.000000 -0.011961 0.000000 0.045217
#
#
# Mechanical properties :
#
#
# Convention : Reuss Voigt Hill
#
# Bulk Modulus (GPa) = 29.18660 37.77310 33.47985
# Shear Modulus (GPa) = 22.57063 28.89992 25.73527
#
# Velocity S-wave (km/s) = 3.23152 3.65665 3.45064
# Velocity P-wave (km/s) = 5.23712 5.94177 5.60053
#
# Compressibility (1/GPa) = 0.03426229
#
# Stress axis : x y z
#
# Youngs Moduli (GPa) = 48.82682 53.45230 82.49285
#
# Poissons Ratio (x) = -0.12751 0.36062
# Poissons Ratio (y) = -0.11648 0.53937
# Poissons Ratio (z) = 0.21345 0.34949
#
# Static dielectric constant tensor:
#      x y z
#    x 1.780120 0.000000 0.039620 
#    y 0.000000 2.164150 0.000000 
#    z 0.039620 0.000000 1.839940 
# 
# From -- ./inp_files/159389.got.cif
#   From: 2010.05.17/outbox.cif.g08.bks.cpg/sg15_80_cif.got.tgz:159389.got - 2010.06.03 18:47:42.
