data_PCOD9260262
_publ_section_title
;
Structure prediction by ZEFSAII (Michael W. Deem and Ramdas Pophale) SiO2 
 PCOD9260262
Probable space group: C 2/C
;
_chemical_formula_sum "Si O2"
_cell_formula_units_Z 64
_cell_length_a 14.030461
_cell_length_b 15.121145
_cell_length_c 21.900262
_cell_angle_alpha 90.000000
_cell_angle_beta 135.593210
_cell_angle_gamma 90.000000
_cell_volume 3251.229292
_symmetry_space_group_name_H-M "C 2/C"
_symmetry_group_IT_number 15
_symmetry_cell_setting 'monoclinic'
loop_
_space_group_symop_operation_xyz
x,y,z
-x,y,1/2-z
-x,-y,-z
x,-y,1/2+z
1/2+x,1/2+y,z
1/2-x,1/2+y,1/2-z
1/2-x,1/2-y,-z
1/2+x,1/2-y,1/2+z
loop_
_atom_site_type_symbol
_atom_site_label
_atom_site_fract_x
_atom_site_fract_y
_atom_site_fract_z
Si Si1 0.324847 0.372882 0.490164
Si Si2 0.926708 0.687443 0.109041
Si Si3 0.646220 0.982588 0.848639
Si Si4 0.222038 0.710963 0.587981
Si Si5 0.181782 0.333597 0.540970
Si Si6 0.303168 0.112786 0.311140
Si Si7 0.131124 0.880018 0.624124
Si Si8 0.080804 0.441004 0.086805
O O1 0.207281 0.429683 0.405314
O O2 0.296584 0.373610 0.549632
O O3 0.317696 0.271431 0.465929
O O4 0.475369 0.406307 0.543062
O O5 0.868045 0.594196 0.106685
O O6 0.870407 0.759577 0.131180
O O7 0.086780 0.673017 0.174535
O O8 0.868337 0.707805 0.015248
O O9 0.500000 0.992352 0.750000
O O10 0.758890 0.947286 0.853020
O O11 0.164216 0.787574 0.605371
O O12 0.199809 0.617223 0.610502
O O13 0.200480 0.358625 0.620069
O O14 0.037593 0.371971 0.449708
O O15 0.164400 0.124030 0.211102
O O16 0.359912 0.011704 0.338592
O O17 0.000000 0.500000 0.000000
#
# Coordination Sequence:
#
# PCOD9260262 Si02
#       8
#     8   8   8   8   8   8   8   8
#     4  11  23  42  63  90 131 174 215 267 328 387
#     4  10  19  37  65  96 124 167 212 272 329 389
#     4  11  23  40  67  97 129 168 222 268 329 398
#     4  10  20  36  66  94 126 166 217 268 334 387
#     4  10  22  40  64  91 122 174 220 262 319 390
#     4  11  21  38  67  95 131 167 219 275 325 394
#     4  11  23  42  63  95 137 166 211 275 335 387
#     4  10  18  36  66  94 120 165 221 264 320 393
#
# _framework density 19.684861000000001
#
# number of rings (size 3 to 8) (size 9 to 14) (size 15 to 20)
#    0.000    1.500    5.000    1.125    1.750    0.500 
#    6.750    0.000    2.750    0.000    0.000    0.000 
#    0.000    0.000    0.000    0.000    0.000    0.000 
#
# Total GULP energy -178557.890548 kJ/mol
# GULP energy per Si atom -5579.934080 kJ/mol
# Density = 1.964006 g / cm^3
# Si number density = 19.684861 Si / 1000 Ang^3
#
#
#
# Elastic Constant Matrix: (Units=GPa)
#
#
# Indices 1 2 3 4 5 6 
#
# 1 100.9122 43.6243 33.0097 0.0000 -0.3514 0.0000
# 2 43.6243 94.1797 45.3943 0.0000 7.0211 0.0000
# 3 33.0097 45.3943 90.8727 0.0000 -2.0983 0.0000
# 4 0.0000 0.0000 0.0000 14.4802 0.0000 1.1589
# 5 -0.3514 7.0211 -2.0983 0.0000 23.8033 0.0000
# 6 0.0000 0.0000 0.0000 1.1589 0.0000 28.6500
#
#
#
# Elastic Compliance Matrix: (Units=1/GPa)
#
#
# Indices 1 2 3 4 5 6 
#
# 1 0.012769 -0.005013 -0.002100 0.000000 0.001482 0.000000
# 2 -0.005013 0.016511 -0.006554 0.000000 -0.005522 0.000000
# 3 -0.002100 -0.006554 0.015116 0.000000 0.003235 0.000000
# 4 0.000000 0.000000 0.000000 0.069284 0.000000 -0.002803
# 5 0.001482 -0.005522 0.003235 0.000000 0.043947 0.000000
# 6 0.000000 0.000000 0.000000 -0.002803 0.000000 0.035017
#
#
# Mechanical properties :
#
#
# Convention : Reuss Voigt Hill
#
# Bulk Modulus (GPa) = 58.61208 58.89124 58.75166
# Shear Modulus (GPa) = 22.15673 24.31578 23.23626
#
# Velocity S-wave (km/s) = 3.35859 3.51843 3.43944
# Velocity P-wave (km/s) = 6.69926 6.81819 6.75899
#
# Compressibility (1/GPa) = 0.01706133
#
# Stress axis : x y z
#
# Youngs Moduli (GPa) = 78.31632 60.56650 66.15480
#
# Poissons Ratio (x) = 0.30361 0.13892
# Poissons Ratio (y) = 0.39259 0.43360
# Poissons Ratio (z) = 0.16446 0.39697
#
# Static dielectric constant tensor:
#      x y z
#    x 1.739510 0.000000 -0.003920 
#    y 0.000000 1.694320 0.000000 
#    z -0.003920 0.000000 1.675540 
# 
# From -- ./inp_files/274351.got.cif
#   From: 2010.05.17/outbox.cif.g08.bks.cpg/sg15_138_cif.got.tgz:274351.got - 2010.06.03 18:47:42.
