data_PCOD9260811
_publ_section_title
;
Structure prediction by ZEFSAII (Michael W. Deem and Ramdas Pophale) SiO2 
 PCOD9260811
Probable space group: C 2/C
;
_chemical_formula_sum "Si O2"
_cell_formula_units_Z 56
_cell_length_a 5.978143
_cell_length_b 28.440161
_cell_length_c 17.872844
_cell_angle_alpha 90.000000
_cell_angle_beta 64.173500
_cell_angle_gamma 90.000000
_cell_volume 2735.213050
_symmetry_space_group_name_H-M "C 2/C"
_symmetry_group_IT_number 15
_symmetry_cell_setting 'monoclinic'
loop_
_space_group_symop_operation_xyz
x,y,z
-x,y,1/2-z
-x,-y,-z
x,-y,1/2+z
1/2+x,1/2+y,z
1/2-x,1/2+y,1/2-z
1/2-x,1/2-y,-z
1/2+x,1/2-y,1/2+z
loop_
_atom_site_type_symbol
_atom_site_label
_atom_site_fract_x
_atom_site_fract_y
_atom_site_fract_z
Si Si1 0.450815 0.947656 0.481786
Si Si2 0.702325 0.825124 0.851365
Si Si3 0.000000 0.391272 0.750000
Si Si4 0.752134 0.672468 0.683097
Si Si5 0.722669 0.145690 0.991905
Si Si6 0.200191 0.434880 0.285529
Si Si7 0.025941 0.893113 0.905326
Si Si8 0.000000 0.259746 0.250000
O O1 0.604139 0.906540 0.501031
O O2 0.550234 0.945642 0.382968
O O3 0.168949 0.932633 0.540986
O O4 0.500000 0.000000 0.500000
O O5 0.608106 0.858652 0.799285
O O6 0.785247 0.776519 0.804119
O O7 0.912145 0.855240 0.863933
O O8 0.481019 0.820174 0.942651
O O9 0.767770 0.414872 0.827737
O O10 0.500000 0.694515 0.750000
O O11 0.723878 0.662872 0.599248
O O12 0.781152 0.621896 0.718946
O O13 0.959946 0.707124 0.683895
O O14 0.925061 0.136854 0.026175
O O15 0.500000 0.450272 0.250000
O O16 0.000000 0.449999 0.250000
#
# Coordination Sequence:
#
# PCOD9260811 Si02
#       8
#     8   8   4   8   8   8   8   4
#     4  10  23  41  68  98 130 165 218 281 341 408
#     4  10  21  37  63  86 125 169 212 270 325 393
#     4  10  18  38  64  92 123 178 219 258 338 404
#     4  10  23  37  60  91 125 169 224 274 329 391
#     4   9  22  41  62  91 121 173 210 268 344 400
#     4  10  22  44  69  94 135 183 224 275 346 416
#     4  10  20  38  66  90 129 171 218 264 338 407
#     4  12  22  36  60  92 125 174 223 278 318 386
#
# _framework density 20.473725000000002
#
# number of rings (size 3 to 8) (size 9 to 14) (size 15 to 20)
#    0.000    2.000    2.143    0.000    7.000    2.286 
#    0.000    5.714    6.286    0.000    0.000    0.000 
#    0.000    0.000    0.000    0.000    0.000    0.000 
#
# Total GULP energy -155891.636206 kJ/mol
# GULP energy per Si atom -5567.558436 kJ/mol
# Density = 2.042713 g / cm^3
# Si number density = 20.473725 Si / 1000 Ang^3
#
#
#
# Elastic Constant Matrix: (Units=GPa)
#
#
# Indices 1 2 3 4 5 6 
#
# 1 105.2959 24.9057 61.6110 0.0000 4.1168 0.0000
# 2 24.9057 63.0726 25.9294 0.0000 -11.1210 0.0000
# 3 61.6110 25.9294 114.5843 0.0000 -3.2314 0.0000
# 4 0.0000 0.0000 0.0000 7.5406 0.0000 -4.9951
# 5 4.1168 -11.1210 -3.2314 0.0000 41.6519 0.0000
# 6 0.0000 0.0000 0.0000 -4.9951 0.0000 14.6969
#
#
#
# Elastic Compliance Matrix: (Units=1/GPa)
#
#
# Indices 1 2 3 4 5 6 
#
# 1 0.014595 -0.003321 -0.007178 0.000000 -0.002886 0.000000
# 2 -0.003321 0.019068 -0.002381 0.000000 0.005235 0.000000
# 3 -0.007178 -0.002381 0.013156 0.000000 0.001094 0.000000
# 4 0.000000 0.000000 0.000000 0.171147 0.000000 0.058168
# 5 -0.002886 0.005235 0.001094 0.000000 0.025776 0.000000
# 6 0.000000 0.000000 0.000000 0.058168 0.000000 0.087812
#
#
# Mechanical properties :
#
#
# Convention : Reuss Voigt Hill
#
# Bulk Modulus (GPa) = 47.48576 56.42724 51.95650
# Shear Modulus (GPa) = 13.72363 24.14500 18.93431
#
# Velocity S-wave (km/s) = 2.59183 3.43784 3.04437
# Velocity P-wave (km/s) = 5.67456 6.58627 6.14734
#
# Compressibility (1/GPa) = 0.02105895
#
# Stress axis : x y z
#
# Youngs Moduli (GPa) = 68.51545 52.44305 76.00955
#
# Poissons Ratio (x) = 0.17419 0.54556
# Poissons Ratio (y) = 0.22757 0.18101
# Poissons Ratio (z) = 0.49177 0.12489
#
# Static dielectric constant tensor:
#      x y z
#    x 1.002860 0.000000 1.056180 
#    y 0.000000 1.689560 0.000000 
#    z 1.056180 0.000000 0.416210 
# 
# From -- ./inp_files/186510.got.cif
#   From: 2010.05.17/outbox.cif.g08.bks.cpg/sg15_94_cif.got.tgz:186510.got - 2010.06.03 18:47:42.
