data_PCOD9260712
_publ_section_title
;
Structure prediction by ZEFSAII (Michael W. Deem and Ramdas Pophale) SiO2 
 PCOD9260712
Probable space group: C 2/C
;
_chemical_formula_sum "Si O2"
_cell_formula_units_Z 60
_cell_length_a 21.866706
_cell_length_b 9.271146
_cell_length_c 18.538312
_cell_angle_alpha 90.000000
_cell_angle_beta 60.500590
_cell_angle_gamma 90.000000
_cell_volume 3271.043196
_symmetry_space_group_name_H-M "C 2/C"
_symmetry_group_IT_number 15
_symmetry_cell_setting 'monoclinic'
loop_
_space_group_symop_operation_xyz
x,y,z
-x,y,1/2-z
-x,-y,-z
x,-y,1/2+z
1/2+x,1/2+y,z
1/2-x,1/2+y,1/2-z
1/2-x,1/2-y,-z
1/2+x,1/2-y,1/2+z
loop_
_atom_site_type_symbol
_atom_site_label
_atom_site_fract_x
_atom_site_fract_y
_atom_site_fract_z
Si Si1 0.485080 0.477640 0.592744
Si Si2 0.128590 0.041644 0.573567
Si Si3 0.173328 0.934760 0.273546
Si Si4 0.824971 0.183699 0.334061
Si Si5 0.500000 0.063460 0.250000
Si Si6 0.032158 0.286718 0.304190
Si Si7 0.347887 0.203766 0.335688
Si Si8 0.262474 0.447116 0.106903
O O1 0.500000 0.500000 0.500000
O O2 0.546842 0.555260 0.601392
O O3 0.408179 0.532169 0.659946
O O4 0.487154 0.309713 0.616458
O O5 0.157990 0.185240 0.594198
O O6 0.140696 0.912724 0.623405
O O7 0.170981 0.998696 0.477595
O O8 0.172806 0.793468 0.223890
O O9 0.216316 0.928907 0.322051
O O10 0.201163 0.067832 0.209141
O O11 0.884663 0.279208 0.259227
O O12 0.767426 0.291631 0.398181
O O13 0.428992 0.153558 0.287755
O O14 0.502930 0.949004 0.315413
O O15 0.000000 0.215381 0.250000
O O16 0.297639 0.066360 0.369985
#
# Coordination Sequence:
#
# PCOD9260712 Si02
#       8
#     8   8   8   8   4   8   8   8
#     4  11  20  37  60  87 116 147 192 247 293 334
#     4  11  22  37  58  87 116 149 195 238 291 343
#     4  10  23  37  60  85 114 153 193 238 286 344
#     4  10  20  37  59  82 109 154 198 232 279 351
#     4  10  18  38  62  86 110 148 202 246 276 336
#     4   9  17  33  61  86 106 146 198 236 275 337
#     4  11  23  37  60  88 115 150 196 239 287 341
#     4  12  21  39  57  84 121 152 184 237 295 345
#
# _framework density 18.342772
#
# number of rings (size 3 to 8) (size 9 to 14) (size 15 to 20)
#    0.400    1.067    4.000    2.400    0.000    0.000 
#    0.000    0.000    0.000    6.400    0.000    0.000 
#    0.000    0.000    0.000    0.000    0.000    0.000 
#
# Total GULP energy -167284.868667 kJ/mol
# GULP energy per Si atom -5576.162289 kJ/mol
# Density = 1.830102 g / cm^3
# Si number density = 18.342772 Si / 1000 Ang^3
#
#
#
# Elastic Constant Matrix: (Units=GPa)
#
#
# Indices 1 2 3 4 5 6 
#
# 1 66.6324 16.7630 -5.8287 0.0000 6.4054 0.0000
# 2 16.7630 78.2105 18.6118 0.0000 4.6081 0.0000
# 3 -5.8287 18.6118 49.6539 0.0000 11.4837 0.0000
# 4 0.0000 0.0000 0.0000 19.1665 0.0000 -1.4248
# 5 6.4054 4.6081 11.4837 0.0000 32.2572 0.0000
# 6 0.0000 0.0000 0.0000 -1.4248 0.0000 20.5276
#
#
#
# Elastic Compliance Matrix: (Units=1/GPa)
#
#
# Indices 1 2 3 4 5 6 
#
# 1 0.016972 -0.004496 0.004695 0.000000 -0.004399 0.000000
# 2 -0.004496 0.015230 -0.006473 0.000000 0.001021 0.000000
# 3 0.004695 -0.006473 0.025193 0.000000 -0.008976 0.000000
# 4 0.000000 0.000000 0.000000 0.052445 0.000000 0.003640
# 5 -0.004399 0.001021 -0.008976 0.000000 0.034924 0.000000
# 6 0.000000 0.000000 0.000000 0.003640 0.000000 0.048968
#
#
# Mechanical properties :
#
#
# Convention : Reuss Voigt Hill
#
# Bulk Modulus (GPa) = 22.29753 28.17658 25.23706
# Shear Modulus (GPa) = 22.60116 25.38696 23.99406
#
# Velocity S-wave (km/s) = 3.51402 3.72429 3.62068
# Velocity P-wave (km/s) = 5.35227 5.82136 5.59174
#
# Compressibility (1/GPa) = 0.04484802
#
# Stress axis : x y z
#
# Youngs Moduli (GPa) = 58.91932 65.66121 39.69409
#
# Poissons Ratio (x) = 0.29520 -0.18636
# Poissons Ratio (y) = 0.26489 0.25692
# Poissons Ratio (z) = -0.27662 0.42499
#
# Static dielectric constant tensor:
#      x y z
#    x 1.636790 0.000000 -0.002900 
#    y 0.000000 1.634140 0.000000 
#    z -0.002900 0.000000 1.617060 
# 
# From -- ./inp_files/213844.got.cif
#   From: 2010.05.17/outbox.cif.g08.bks.cpg/sg15_107_cif.got.tgz:213844.got - 2010.06.03 18:47:42.
