data_PCOD9260945
_publ_section_title
;
Structure prediction by ZEFSAII (Michael W. Deem and Ramdas Pophale) SiO2 
 PCOD9260945
Probable space group: C 2/C
;
_chemical_formula_sum "Si O2"
_cell_formula_units_Z 56
_cell_length_a 15.352505
_cell_length_b 11.464714
_cell_length_c 24.731154
_cell_angle_alpha 90.000000
_cell_angle_beta 142.774442
_cell_angle_gamma 90.000000
_cell_volume 2633.355355
_symmetry_space_group_name_H-M "C 2/C"
_symmetry_group_IT_number 15
_symmetry_cell_setting 'monoclinic'
loop_
_space_group_symop_operation_xyz
x,y,z
-x,y,1/2-z
-x,-y,-z
x,-y,1/2+z
1/2+x,1/2+y,z
1/2-x,1/2+y,1/2-z
1/2-x,1/2-y,-z
1/2+x,1/2-y,1/2+z
loop_
_atom_site_type_symbol
_atom_site_label
_atom_site_fract_x
_atom_site_fract_y
_atom_site_fract_z
Si Si1 0.956266 0.357839 0.918380
Si Si2 0.572421 0.765370 0.718143
Si Si3 0.838754 0.612961 0.832041
Si Si4 0.455330 0.025528 0.785034
Si Si5 0.244937 0.062640 0.506170
Si Si6 0.716420 0.337991 0.435090
Si Si7 0.615779 0.758080 0.505963
O O1 0.937530 0.294664 0.851617
O O2 0.889285 0.487764 0.880897
O O3 0.883076 0.288077 0.930704
O O4 0.128974 0.363911 0.015517
O O5 0.690097 0.664242 0.779691
O O6 0.604354 0.895568 0.755777
O O7 0.416106 0.721179 0.660618
O O8 0.847944 0.593506 0.771614
O O9 0.958638 0.708491 0.906266
O O10 0.500000 0.080795 0.750000
O O11 0.603849 0.017644 0.893611
O O12 0.280913 0.155026 0.476748
O O13 0.159581 0.128775 0.510686
O O14 0.165671 0.956413 0.438653
O O15 0.750000 0.250000 0.500000
#
# Coordination Sequence:
#
# PCOD9260945 Si02
#       7
#     8   8   8   8   8   8   8
#     4  10  20  39  63  85 119 166 203 249 312 367
#     4  10  22  38  60  89 123 155 202 257 305 362
#     4  10  21  39  60  89 123 160 200 265 308 365
#     4  10  21  39  58  85 124 160 199 254 314 360
#     4  10  20  38  60  88 118 156 204 255 297 359
#     4  10  18  39  61  80 120 160 198 245 304 359
#     4  10  21  37  63  88 116 158 207 248 303 365
#
# _framework density 21.265646
#
# number of rings (size 3 to 8) (size 9 to 14) (size 15 to 20)
#    0.000    2.000    5.714    0.429    2.000    3.429 
#    0.000    2.857    0.000    0.000    0.000    0.000 
#    0.000    0.000    0.000    0.000    0.000    0.000 
#
# Total GULP energy -156281.300966 kJ/mol
# GULP energy per Si atom -5581.475035 kJ/mol
# Density = 2.121724 g / cm^3
# Si number density = 21.265646 Si / 1000 Ang^3
#
#
#
# Elastic Constant Matrix: (Units=GPa)
#
#
# Indices 1 2 3 4 5 6 
#
# 1 120.9492 24.3117 1.3625 0.0000 -7.2940 0.0000
# 2 24.3117 83.4950 9.4179 0.0000 15.1258 0.0000
# 3 1.3625 9.4179 35.6169 0.0000 12.0676 0.0000
# 4 0.0000 0.0000 0.0000 19.7601 0.0000 0.7077
# 5 -7.2940 15.1258 12.0676 0.0000 32.9132 0.0000
# 6 0.0000 0.0000 0.0000 0.7077 0.0000 38.6322
#
#
#
# Elastic Compliance Matrix: (Units=1/GPa)
#
#
# Indices 1 2 3 4 5 6 
#
# 1 0.009165 -0.003273 -0.000780 0.000000 0.003821 0.000000
# 2 -0.003273 0.014316 -0.001354 0.000000 -0.006808 0.000000
# 3 -0.000780 -0.001354 0.032328 0.000000 -0.011404 0.000000
# 4 0.000000 0.000000 0.000000 0.050640 0.000000 -0.000928
# 5 0.003821 -0.006808 -0.011404 0.000000 0.038540 0.000000
# 6 0.000000 0.000000 0.000000 -0.000928 0.000000 0.025902
#
#
# Mechanical properties :
#
#
# Convention : Reuss Voigt Hill
#
# Bulk Modulus (GPa) = 22.22403 34.47171 28.34787
# Shear Modulus (GPa) = 25.41914 31.92571 28.67242
#
# Velocity S-wave (km/s) = 3.46108 3.87884 3.67590
# Velocity P-wave (km/s) = 5.14252 6.02543 5.60140
#
# Compressibility (1/GPa) = 0.04499635
#
# Stress axis : x y z
#
# Youngs Moduli (GPa) = 109.11035 69.85307 30.93289
#
# Poissons Ratio (x) = 0.22862 0.02412
# Poissons Ratio (y) = 0.35711 0.04187
# Poissons Ratio (z) = 0.08509 0.09455
#
# Static dielectric constant tensor:
#      x y z
#    x 1.812960 0.000000 -0.031690 
#    y 0.000000 1.794860 0.000000 
#    z -0.031690 0.000000 1.810080 
# 
# From -- ./inp_files/204094.got.cif
#   From: 2010.05.17/outbox.cif.g08.bks.cpg/sg15_103_cif.got.tgz:204094.got - 2010.06.03 18:47:42.
