data_PCOD9260838
_publ_section_title
;
Structure prediction by ZEFSAII (Michael W. Deem and Ramdas Pophale) SiO2 
 PCOD9260838
Probable space group: C 2/C
;
_chemical_formula_sum "Si O2"
_cell_formula_units_Z 60
_cell_length_a 11.537159
_cell_length_b 16.101605
_cell_length_c 15.354281
_cell_angle_alpha 90.000000
_cell_angle_beta 75.527907
_cell_angle_gamma 90.000000
_cell_volume 2761.809842
_symmetry_space_group_name_H-M "C 2/C"
_symmetry_group_IT_number 15
_symmetry_cell_setting 'monoclinic'
loop_
_space_group_symop_operation_xyz
x,y,z
-x,y,1/2-z
-x,-y,-z
x,-y,1/2+z
1/2+x,1/2+y,z
1/2-x,1/2+y,1/2-z
1/2-x,1/2-y,-z
1/2+x,1/2-y,1/2+z
loop_
_atom_site_type_symbol
_atom_site_label
_atom_site_fract_x
_atom_site_fract_y
_atom_site_fract_z
Si Si1 0.500000 0.018085 0.750000
Si Si2 0.693218 0.150277 0.656555
Si Si3 0.864147 0.171311 0.273790
Si Si4 0.075906 0.318588 0.504399
Si Si5 0.318497 0.140741 0.039733
Si Si6 0.758059 0.293748 0.873940
Si Si7 0.355784 0.977612 0.113980
Si Si8 0.360543 0.623207 0.773280
O O1 0.602796 0.075127 0.688383
O O2 0.569953 0.980823 0.820166
O O3 0.635474 0.228481 0.717252
O O4 0.710346 0.167032 0.552261
O O5 0.815947 0.132227 0.682801
O O6 0.788061 0.146257 0.371719
O O7 0.791383 0.154810 0.198597
O O8 0.000000 0.140349 0.250000
O O9 0.152425 0.338768 0.576374
O O10 0.142802 0.239712 0.449326
O O11 0.086668 0.392156 0.431379
O O12 0.935859 0.308851 0.548482
O O13 0.351328 0.043331 0.037777
O O14 0.827275 0.210738 0.827008
O O15 0.224523 0.947788 0.169777
O O16 0.500000 0.606252 0.750000
#
# Coordination Sequence:
#
# PCOD9260838 Si02
#       8
#     4   8   8   8   8   8   8   8
#     4  10  18  38  66  84 114 162 194 242 308 354
#     4  10  20  38  63  87 113 159 202 245 301 358
#     4  11  23  40  57  86 127 160 198 252 305 352
#     4  10  20  38  62  88 119 152 198 256 302 355
#     4  12  24  37  61  94 121 158 209 243 295 371
#     4   9  21  38  62  90 118 154 197 260 313 341
#     4  10  22  39  59  88 126 160 196 247 299 358
#     4   9  20  39  63  83 118 161 202 241 301 368
#
# _framework density 21.724885
#
# number of rings (size 3 to 8) (size 9 to 14) (size 15 to 20)
#    0.000    1.867    2.000    2.400    3.733    1.600 
#    7.200    0.667    0.000    0.000    0.000    0.000 
#    0.000    0.000    0.000    0.000    0.000    0.000 
#
# Total GULP energy -167571.239898 kJ/mol
# GULP energy per Si atom -5585.707997 kJ/mol
# Density = 2.167544 g / cm^3
# Si number density = 21.724885 Si / 1000 Ang^3
#
#
#
# Elastic Constant Matrix: (Units=GPa)
#
#
# Indices 1 2 3 4 5 6 
#
# 1 170.7580 8.7688 69.8415 0.0000 -5.3346 0.0000
# 2 8.7688 18.8821 -5.5081 0.0000 2.4294 0.0000
# 3 69.8415 -5.5081 118.5856 0.0000 16.1501 0.0000
# 4 0.0000 0.0000 0.0000 12.9491 0.0000 -0.9272
# 5 -5.3346 2.4294 16.1501 0.0000 43.6160 0.0000
# 6 0.0000 0.0000 0.0000 -0.9272 0.0000 11.4780
#
#
#
# Elastic Compliance Matrix: (Units=1/GPa)
#
#
# Indices 1 2 3 4 5 6 
#
# 1 0.008704 -0.006228 -0.005905 0.000000 0.003598 0.000000
# 2 -0.006228 0.058856 0.007321 0.000000 -0.006751 0.000000
# 3 -0.005905 0.007321 0.013063 0.000000 -0.005967 0.000000
# 4 0.000000 0.000000 0.000000 0.077675 0.000000 0.006275
# 5 0.003598 -0.006751 -0.005967 0.000000 0.025953 0.000000
# 6 0.000000 0.000000 0.000000 0.006275 0.000000 0.087630
#
#
# Mechanical properties :
#
#
# Convention : Reuss Voigt Hill
#
# Bulk Modulus (GPa) = 14.08460 50.49223 32.28842
# Shear Modulus (GPa) = 16.38419 29.28352 22.83385
#
# Velocity S-wave (km/s) = 2.74919 3.67539 3.24550
# Velocity P-wave (km/s) = 4.07119 6.42678 5.37950
#
# Compressibility (1/GPa) = 0.07099953
#
# Stress axis : x y z
#
# Youngs Moduli (GPa) = 114.89201 16.99049 76.54932
#
# Poissons Ratio (x) = 0.10581 0.45206
# Poissons Ratio (y) = 0.71550 -0.56041
# Poissons Ratio (z) = 0.67849 -0.12439
#
# Static dielectric constant tensor:
#      x y z
#    x 1.796080 0.000000 0.009010 
#    y 0.000000 1.825960 0.000000 
#    z 0.009010 0.000000 1.798390 
# 
# From -- ./inp_files/145622.got.cif
#   From: 2010.05.17/outbox.cif.g08.bks.cpg/sg15_73_cif.got.tgz:145622.got - 2010.06.03 18:47:42.
