data_PCOD9260797
_publ_section_title
;
Structure prediction by ZEFSAII (Michael W. Deem and Ramdas Pophale) SiO2 
 PCOD9260797
Probable space group: C 2/C
;
_chemical_formula_sum "Si O2"
_cell_formula_units_Z 60
_cell_length_a 12.386795
_cell_length_b 13.705274
_cell_length_c 21.051414
_cell_angle_alpha 90.000000
_cell_angle_beta 63.148929
_cell_angle_gamma 90.000000
_cell_volume 3188.468763
_symmetry_space_group_name_H-M "C 2/C"
_symmetry_group_IT_number 15
_symmetry_cell_setting 'monoclinic'
loop_
_space_group_symop_operation_xyz
x,y,z
-x,y,1/2-z
-x,-y,-z
x,-y,1/2+z
1/2+x,1/2+y,z
1/2-x,1/2+y,1/2-z
1/2-x,1/2-y,-z
1/2+x,1/2-y,1/2+z
loop_
_atom_site_type_symbol
_atom_site_label
_atom_site_fract_x
_atom_site_fract_y
_atom_site_fract_z
Si Si1 0.603372 0.746838 0.466995
Si Si2 0.429936 0.825411 0.153831
Si Si3 0.945004 0.897450 0.694310
Si Si4 0.500000 0.856472 0.750000
Si Si5 0.794869 0.487463 0.271139
Si Si6 0.175890 0.561887 0.594045
Si Si7 0.565611 0.422241 0.529336
Si Si8 0.131520 0.339132 0.594719
O O1 0.611974 0.824387 0.408116
O O2 0.490375 0.679953 0.478880
O O3 0.726413 0.683227 0.432834
O O4 0.592829 0.791625 0.539211
O O5 0.416394 0.716049 0.185070
O O6 0.352116 0.902345 0.214021
O O7 0.570107 0.858646 0.119308
O O8 0.000000 0.902466 0.750000
O O9 0.028472 0.933465 0.613019
O O10 0.825353 0.963279 0.723072
O O11 0.556344 0.800786 0.675160
O O12 0.606089 0.926950 0.747022
O O13 0.774689 0.445645 0.347211
O O14 0.290904 0.576137 0.518572
O O15 0.117940 0.455785 0.595629
O O16 0.500000 0.500000 0.500000
#
# Coordination Sequence:
#
# PCOD9260797 Si02
#       8
#     8   8   8   4   8   8   8   8
#     4  10  23  39  60  90 127 164 208 267 308 374
#     4  11  22  42  64  94 126 164 214 260 317 374
#     4  11  25  42  63  96 130 161 211 269 312 374
#     4  10  18  38  64  90 108 166 214 250 308 376
#     4  11  20  40  66  90 125 168 208 255 319 372
#     4  11  20  38  68  86 121 170 208 252 316 384
#     4  11  20  42  65  85 125 173 205 250 323 378
#     4  10  20  40  60  86 123 163 212 258 310 368
#
# _framework density 18.817810000000001
#
# number of rings (size 3 to 8) (size 9 to 14) (size 15 to 20)
#    0.000    1.333    5.333    3.200    0.000    3.733 
#    9.600    0.000    1.467    0.000    0.000    0.000 
#    0.000    0.000    0.000    0.000    0.000    0.000 
#
# Total GULP energy -167491.064249 kJ/mol
# GULP energy per Si atom -5583.035475 kJ/mol
# Density = 1.877498 g / cm^3
# Si number density = 18.817810 Si / 1000 Ang^3
#
#
#
# Elastic Constant Matrix: (Units=GPa)
#
#
# Indices 1 2 3 4 5 6 
#
# 1 80.9551 20.2889 55.3567 0.0000 3.6609 0.0000
# 2 20.2889 43.2744 39.2969 0.0000 4.2851 0.0000
# 3 55.3567 39.2969 161.3353 0.0000 5.3706 0.0000
# 4 0.0000 0.0000 0.0000 28.2823 0.0000 -0.2848
# 5 3.6609 4.2851 5.3706 0.0000 35.5206 0.0000
# 6 0.0000 0.0000 0.0000 -0.2848 0.0000 12.0956
#
#
#
# Elastic Compliance Matrix: (Units=1/GPa)
#
#
# Indices 1 2 3 4 5 6 
#
# 1 0.016517 -0.003285 -0.004848 0.000000 -0.000573 0.000000
# 2 -0.003285 0.030547 -0.006233 0.000000 -0.002404 0.000000
# 3 -0.004848 -0.006233 0.009386 0.000000 -0.000167 0.000000
# 4 0.000000 0.000000 0.000000 0.035366 0.000000 0.000833
# 5 -0.000573 -0.002404 -0.000167 0.000000 0.028527 0.000000
# 6 0.000000 0.000000 0.000000 0.000833 0.000000 0.082695
#
#
# Mechanical properties :
#
#
# Convention : Reuss Voigt Hill
#
# Bulk Modulus (GPa) = 36.07880 57.27221 46.67551
# Shear Modulus (GPa) = 20.74622 26.55451 23.65037
#
# Velocity S-wave (km/s) = 3.32396 3.76059 3.54899
# Velocity P-wave (km/s) = 5.82631 7.02547 6.45380
#
# Compressibility (1/GPa) = 0.02771710
#
# Stress axis : x y z
#
# Youngs Moduli (GPa) = 60.54486 32.73669 106.54668
#
# Poissons Ratio (x) = 0.10753 0.51654
# Poissons Ratio (y) = 0.19886 0.66414
# Poissons Ratio (z) = 0.29352 0.20406
#
# Static dielectric constant tensor:
#      x y z
#    x 1.631650 0.000000 -0.004850 
#    y 0.000000 1.660420 0.000000 
#    z -0.004850 0.000000 1.686790 
# 
# From -- ./inp_files/238687.got.cif
#   From: 2010.05.17/outbox.cif.g08.bks.cpg/sg15_120_cif.got.tgz:238687.got - 2010.06.03 18:47:42.
