data_PCOD9260249
_publ_section_title
;
Structure prediction by ZEFSAII (Michael W. Deem and Ramdas Pophale) SiO2 
 PCOD9260249
Probable space group: C 2/C
;
_chemical_formula_sum "Si O2"
_cell_formula_units_Z 40
_cell_length_a 9.364552
_cell_length_b 17.171705
_cell_length_c 11.121173
_cell_angle_alpha 90.000000
_cell_angle_beta 87.140196
_cell_angle_gamma 90.000000
_cell_volume 1786.116638
_symmetry_space_group_name_H-M "C 2/C"
_symmetry_group_IT_number 15
_symmetry_cell_setting 'monoclinic'
loop_
_space_group_symop_operation_xyz
x,y,z
-x,y,1/2-z
-x,-y,-z
x,-y,1/2+z
1/2+x,1/2+y,z
1/2-x,1/2+y,1/2-z
1/2-x,1/2-y,-z
1/2+x,1/2-y,1/2+z
loop_
_atom_site_type_symbol
_atom_site_label
_atom_site_fract_x
_atom_site_fract_y
_atom_site_fract_z
Si Si1 0.909805 0.213101 0.628277
Si Si2 0.856101 0.423802 0.838285
Si Si3 0.341439 0.283013 0.753187
Si Si4 0.379751 0.193311 0.533692
Si Si5 0.417922 0.471485 0.125884
O O1 0.754360 0.249967 0.638302
O O2 0.000000 0.228818 0.750000
O O3 0.990817 0.256734 0.520386
O O4 0.910069 0.121297 0.613356
O O5 0.760763 0.351839 0.791494
O O6 0.742044 0.493261 0.855124
O O7 0.000000 0.434550 0.750000
O O8 0.888836 0.390214 0.970974
O O9 0.500000 0.316909 0.750000
O O10 0.363972 0.203175 0.675043
O O11 0.250000 0.250000 0.500000
O O12 0.500000 0.488082 0.250000
O O13 0.500000 0.500000 0.000000
#
# Coordination Sequence:
#
# PCOD9260249 Si02
#       5
#     8   8   8   8   8
#     4  11  20  40  63  93 125 173 224 266 336 408
#     4  11  21  42  66  94 131 177 224 277 338 401
#     4  11  22  36  62  95 126 164 228 283 329 393
#     4  10  18  36  66  89 121 171 221 269 331 394
#     4  11  26  44  69  98 141 180 225 275 345 406
#
# _framework density 22.394953999999998
#
# number of rings (size 3 to 8) (size 9 to 14) (size 15 to 20)
#    0.000    1.200    6.000    3.000    2.800    1.600 
#    3.600    1.000    0.000    0.000    0.000    0.000 
#    0.000    0.000    0.000    0.000    0.000    0.000 
#
# Total GULP energy -111422.601881 kJ/mol
# GULP energy per Si atom -5571.130094 kJ/mol
# Density = 2.234398 g / cm^3
# Si number density = 22.394954 Si / 1000 Ang^3
#
#
#
# Elastic Constant Matrix: (Units=GPa)
#
#
# Indices 1 2 3 4 5 6 
#
# 1 158.2386 16.1057 38.9982 0.0000 -39.3493 0.0000
# 2 16.1057 28.5059 -27.3408 0.0000 0.8635 0.0000
# 3 38.9982 -27.3408 58.4176 0.0000 -29.6175 0.0000
# 4 0.0000 0.0000 0.0000 508.7642 0.0000 -230.3022
# 5 -39.3493 0.8635 -29.6175 0.0000 44.1419 0.0000
# 6 0.0000 0.0000 0.0000 -230.3022 0.0000 130.4992
#
#
#
# Elastic Compliance Matrix: (Units=1/GPa)
#
#
# Indices 1 2 3 4 5 6 
#
# 1 0.018940 -0.048971 -0.040189 0.000000 -0.009124 0.000000
# 2 -0.048971 0.227541 0.173981 0.000000 0.068629 0.000000
# 3 -0.040189 0.173981 0.159869 0.000000 0.068037 0.000000
# 4 0.000000 0.000000 0.000000 0.009772 0.000000 0.017246
# 5 -0.009124 0.068629 0.068037 0.000000 0.058828 0.000000
# 6 0.000000 0.000000 0.000000 0.017246 0.000000 0.038098
#
#
# Mechanical properties :
#
#
# Convention : Reuss Voigt Hill
#
# Bulk Modulus (GPa) = 1.73614 33.40981 17.57297
# Shear Modulus (GPa) = 9.33875 151.17434 80.25654
#
# Velocity S-wave (km/s) = 2.04428 8.22498 5.99289
# Velocity P-wave (km/s) = 2.51973 10.25433 7.46660
#
# Compressibility (1/GPa) = 0.57599065
#
# Stress axis : x y z
#
# Youngs Moduli (GPa) = 52.79883 4.39482 6.25510
#
# Poissons Ratio (x) = 0.21522 0.25139
# Poissons Ratio (y) = 2.58563 -1.08827
# Poissons Ratio (z) = 2.12196 -0.76462
#
# Static dielectric constant tensor:
#      x y z
#    x 1.910100 0.000000 0.135670 
#    y 0.000000 1.778450 0.000000 
#    z 0.135670 0.000000 1.941080 
# 
# From -- ./inp_files/76713.got.cif
#   From: 2010.05.17/outbox.cif.g08.bks.cpg/sg15_39_cif.got.tgz:76713.got - 2010.06.03 18:47:42.
