data_PCOD9260638
_publ_section_title
;
Structure prediction by ZEFSAII (Michael W. Deem and Ramdas Pophale) SiO2 
 PCOD9260638
Probable space group: C 2/C
;
_chemical_formula_sum "Si O2"
_cell_formula_units_Z 44
_cell_length_a 9.613658
_cell_length_b 29.714705
_cell_length_c 9.673940
_cell_angle_alpha 90.000000
_cell_angle_beta 60.799056
_cell_angle_gamma 90.000000
_cell_volume 2412.320232
_symmetry_space_group_name_H-M "C 2/C"
_symmetry_group_IT_number 15
_symmetry_cell_setting 'monoclinic'
loop_
_space_group_symop_operation_xyz
x,y,z
-x,y,1/2-z
-x,-y,-z
x,-y,1/2+z
1/2+x,1/2+y,z
1/2-x,1/2+y,1/2-z
1/2-x,1/2-y,-z
1/2+x,1/2-y,1/2+z
loop_
_atom_site_type_symbol
_atom_site_label
_atom_site_fract_x
_atom_site_fract_y
_atom_site_fract_z
Si Si1 0.500000 0.498616 0.750000
Si Si2 0.159789 0.121717 0.576772
Si Si3 0.183397 0.214712 0.423083
Si Si4 0.424362 0.560693 0.548570
Si Si5 0.309316 0.731779 0.615175
Si Si6 0.827564 0.367123 0.265655
O O1 0.391178 0.530573 0.703234
O O2 0.575537 0.467779 0.592431
O O3 0.205052 0.164127 0.462527
O O4 0.301178 0.116933 0.619604
O O5 0.000000 0.131657 0.750000
O O6 0.096921 0.081870 0.507865
O O7 0.250000 0.250000 0.500000
O O8 0.270081 0.228998 0.241968
O O9 0.994790 0.221925 0.510231
O O10 0.301666 0.601654 0.594037
O O11 0.250000 0.750000 0.500000
O O12 0.222414 0.685397 0.701524
O O13 0.000000 0.372740 0.250000
#
# Coordination Sequence:
#
# PCOD9260638 Si02
#       6
#     4   8   8   8   8   8
#     4  10  20  36  70  98 110 148 206 256 300 384
#     4  10  18  38  60  82 115 164 198 244 308 359
#     4  12  21  38  60  83 115 161 210 248 294 356
#     4  10  20  39  66  90 120 154 200 249 310 372
#     4  12  25  38  56  87 121 162 210 258 293 352
#     4  11  21  39  58  84 124 166 194 244 319 357
#
# _framework density 18.239699999999999
#
# number of rings (size 3 to 8) (size 9 to 14) (size 15 to 20)
#    0.000    1.091    8.182    2.182    0.000    1.455 
#    0.000    0.909    0.000    0.000    0.000    0.000 
#    0.000    0.000    0.000    0.000    0.000    0.000 
#
# Total GULP energy -122558.702878 kJ/mol
# GULP energy per Si atom -5570.850131 kJ/mol
# Density = 1.819819 g / cm^3
# Si number density = 18.239700 Si / 1000 Ang^3
#
#
#
# Elastic Constant Matrix: (Units=GPa)
#
#
# Indices 1 2 3 4 5 6 
#
# 1 140.5902 25.2973 32.9183 0.0000 16.0897 0.0000
# 2 25.2973 94.2928 34.0759 0.0000 11.8956 0.0000
# 3 32.9183 34.0759 108.1893 0.0000 25.5805 0.0000
# 4 0.0000 0.0000 0.0000 39.7775 0.0000 2.2364
# 5 16.0897 11.8956 25.5805 0.0000 26.0687 0.0000
# 6 0.0000 0.0000 0.0000 2.2364 0.0000 13.0821
#
#
#
# Elastic Compliance Matrix: (Units=1/GPa)
#
#
# Indices 1 2 3 4 5 6 
#
# 1 0.008001 -0.001288 -0.001302 0.000000 -0.003073 0.000000
# 2 -0.001288 0.012281 -0.003046 0.000000 -0.001820 0.000000
# 3 -0.001302 -0.003046 0.013125 0.000000 -0.010686 0.000000
# 4 0.000000 0.000000 0.000000 0.025384 0.000000 -0.004339
# 5 -0.003073 -0.001820 -0.010686 0.000000 0.051573 0.000000
# 6 0.000000 0.000000 0.000000 -0.004339 0.000000 0.077182
#
#
# Mechanical properties :
#
#
# Convention : Reuss Voigt Hill
#
# Bulk Modulus (GPa) = 45.17746 58.62836 51.90291
# Shear Modulus (GPa) = 24.24860 32.50439 28.37650
#
# Velocity S-wave (km/s) = 3.65011 4.22604 3.94858
# Velocity P-wave (km/s) = 6.52586 7.48502 7.02184
#
# Compressibility (1/GPa) = 0.02213493
#
# Stress axis : x y z
#
# Youngs Moduli (GPa) = 124.98050 81.42500 76.18950
#
# Poissons Ratio (x) = 0.10491 0.09921
# Poissons Ratio (y) = 0.16102 0.23206
# Poissons Ratio (z) = 0.16275 0.24800
#
# Static dielectric constant tensor:
#      x y z
#    x 1.622870 0.000000 0.006070 
#    y 0.000000 1.664980 0.000000 
#    z 0.006070 0.000000 1.610870 
# 
# From -- ./inp_files/25453.got.cif
#   From: 2010.05.17/outbox.cif.g08.bks.cpg/sg15_13_cif.got.tgz:25453.got - 2010.06.03 18:47:42.
