data_PCOD9260515
_publ_section_title
;
Structure prediction by ZEFSAII (Michael W. Deem and Ramdas Pophale) SiO2 
 PCOD9260515
Probable space group: C 2/C
;
_chemical_formula_sum "Si O2"
_cell_formula_units_Z 56
_cell_length_a 30.298929
_cell_length_b 12.653272
_cell_length_c 14.434503
_cell_angle_alpha 90.000000
_cell_angle_beta 155.106117
_cell_angle_gamma 90.000000
_cell_volume 2329.437668
_symmetry_space_group_name_H-M "C 2/C"
_symmetry_group_IT_number 15
_symmetry_cell_setting 'monoclinic'
loop_
_space_group_symop_operation_xyz
x,y,z
-x,y,1/2-z
-x,-y,-z
x,-y,1/2+z
1/2+x,1/2+y,z
1/2-x,1/2+y,1/2-z
1/2-x,1/2-y,-z
1/2+x,1/2-y,1/2+z
loop_
_atom_site_type_symbol
_atom_site_label
_atom_site_fract_x
_atom_site_fract_y
_atom_site_fract_z
Si Si1 0.642747 0.769209 0.659632
Si Si2 0.918979 0.403522 0.470793
Si Si3 0.657870 0.457188 0.243158
Si Si4 0.573863 0.477450 0.272695
Si Si5 0.500000 0.283421 0.250000
Si Si6 0.500000 0.643190 0.250000
Si Si7 0.810600 0.424219 0.896838
Si Si8 0.950315 0.403915 0.329826
O O1 0.689394 0.667053 0.798398
O O2 0.556636 0.711905 0.432490
O O3 0.716028 0.835706 0.730471
O O4 0.563937 0.848372 0.562422
O O5 0.938773 0.296017 0.564274
O O6 0.856143 0.480649 0.420404
O O7 0.883777 0.386134 0.296842
O O8 0.022875 0.474345 0.645557
O O9 0.657916 0.481586 0.352021
O O10 0.726901 0.527581 0.307219
O O11 0.538895 0.485565 0.984331
O O12 0.559117 0.364950 0.293588
O O13 0.589800 0.566547 0.379756
O O14 0.892460 0.371041 0.125074
#
# Coordination Sequence:
#
# PCOD9260515 Si02
#       8
#     8   8   8   8   4   4   8   8
#     4  10  18  37  65  85 119 164 204 249 312 372
#     4  10  20  35  62  89 126 155 201 256 310 369
#     4  10  22  40  59  87 129 161 208 259 310 369
#     4   9  21  38  59  82 119 174 208 245 308 380
#     4  11  18  37  64  86 116 161 216 253 302 372
#     4   9  16  35  62  80 108 165 214 249 286 370
#     4  11  21  39  60  96 124 157 204 264 307 366
#     4  10  19  37  63  92 118 166 205 245 312 380
#
# _framework density 24.040137000000001
#
# number of rings (size 3 to 8) (size 9 to 14) (size 15 to 20)
#    0.000    2.000    2.857    1.714    0.000    1.143 
#    7.714    1.429    0.000    0.000    0.000    0.000 
#    0.000    0.000    0.000    0.000    0.000    0.000 
#
# Total GULP energy -156113.726455 kJ/mol
# GULP energy per Si atom -5575.490231 kJ/mol
# Density = 2.398542 g / cm^3
# Si number density = 24.040137 Si / 1000 Ang^3
#
#
#
# Elastic Constant Matrix: (Units=GPa)
#
#
# Indices 1 2 3 4 5 6 
#
# 1 215.1152 69.2469 21.8272 0.0000 6.6806 0.0000
# 2 69.2469 127.4657 14.6228 0.0000 12.6682 0.0000
# 3 21.8272 14.6228 28.6392 0.0000 1.8018 0.0000
# 4 0.0000 0.0000 0.0000 0.0765 0.0000 -11.5095
# 5 6.6806 12.6682 1.8018 0.0000 22.9310 0.0000
# 6 0.0000 0.0000 0.0000 -11.5095 0.0000 18.4747
#
#
#
# Elastic Compliance Matrix: (Units=1/GPa)
#
#
# Indices 1 2 3 4 5 6 
#
# 1 0.005871 -0.002853 -0.003024 0.000000 0.000103 0.000000
# 2 -0.002853 0.010162 -0.002727 0.000000 -0.004569 0.000000
# 3 -0.003024 -0.002727 0.038655 0.000000 -0.000650 0.000000
# 4 0.000000 0.000000 0.000000 -0.140969 0.000000 -0.087822
# 5 0.000103 -0.004569 -0.000650 0.000000 0.046154 0.000000
# 6 0.000000 0.000000 0.000000 -0.087822 0.000000 -0.000583
#
#
# Mechanical properties :
#
#
# Convention : Reuss Voigt Hill
#
# Bulk Modulus (GPa) = 26.68081 64.73487 45.70784
# Shear Modulus (GPa) = -454.13826 25.99798 -214.07014
#
# Velocity S-wave (km/s) = -13.75930 3.29209 -9.44671
# Velocity P-wave (km/s) = 15.53390 6.43714 9.99663
#
# Compressibility (1/GPa) = 0.03748012
#
# Stress axis : x y z
#
# Youngs Moduli (GPa) = 170.34063 98.40752 25.86965
#
# Poissons Ratio (x) = 0.28071 0.07824
# Poissons Ratio (y) = 0.48591 0.07055
# Poissons Ratio (z) = 0.51515 0.26836
#
# Static dielectric constant tensor:
#      x y z
#    x 2.022520 0.000000 0.002370 
#    y 0.000000 1.950680 0.000000 
#    z 0.002370 0.000000 2.060650 
# 
# From -- ./inp_files/177656.got.cif
#   From: 2010.05.17/outbox.cif.g08.bks.cpg/sg15_89_cif.got.tgz:177656.got - 2010.06.03 18:47:42.
