data_PCOD9260357
_publ_section_title
;
Structure prediction by ZEFSAII (Michael W. Deem and Ramdas Pophale) SiO2 
 PCOD9260357
Probable space group: C 2/C
;
_chemical_formula_sum "Si O2"
_cell_formula_units_Z 56
_cell_length_a 15.676863
_cell_length_b 11.966072
_cell_length_c 16.307028
_cell_angle_alpha 90.000000
_cell_angle_beta 58.758433
_cell_angle_gamma 90.000000
_cell_volume 2615.445778
_symmetry_space_group_name_H-M "C 2/C"
_symmetry_group_IT_number 15
_symmetry_cell_setting 'monoclinic'
loop_
_space_group_symop_operation_xyz
x,y,z
-x,y,1/2-z
-x,-y,-z
x,-y,1/2+z
1/2+x,1/2+y,z
1/2-x,1/2+y,1/2-z
1/2-x,1/2-y,-z
1/2+x,1/2-y,1/2+z
loop_
_atom_site_type_symbol
_atom_site_label
_atom_site_fract_x
_atom_site_fract_y
_atom_site_fract_z
Si Si1 0.505238 0.080653 0.146246
Si Si2 0.954490 0.337667 0.182499
Si Si3 0.429243 0.601092 0.933760
Si Si4 0.395217 0.286952 0.222929
Si Si5 0.289055 0.872833 0.901274
Si Si6 0.259363 0.392469 0.166466
Si Si7 0.938739 0.854343 0.969822
O O1 0.500000 0.086334 0.250000
O O2 0.428163 0.174542 0.155052
O O3 0.622686 0.102125 0.077502
O O4 0.473276 0.959180 0.133898
O O5 0.837348 0.324933 0.257043
O O6 0.000000 0.342737 0.250000
O O7 0.011693 0.244445 0.104263
O O8 0.492838 0.661434 0.832514
O O9 0.431261 0.468098 0.921421
O O10 0.317032 0.642453 0.002714
O O11 0.487999 0.622985 0.989665
O O12 0.326751 0.230743 0.326981
O O13 0.332358 0.382687 0.208230
O O14 0.272700 0.984556 0.851125
O O15 0.327470 0.338015 0.061317
#
# Coordination Sequence:
#
# PCOD9260357 Si02
#       7
#     8   8   8   8   8   8   8
#     4   9  18  35  56  83 109 150 190 234 283 344
#     4  11  19  36  59  84 114 148 194 237 283 338
#     4   9  19  36  55  83 112 153 190 229 293 341
#     4  10  19  33  60  83 110 143 199 240 266 348
#     4  10  18  37  59  80 113 156 193 227 291 350
#     4  10  19  34  57  83 107 155 192 227 285 341
#     4   9  20  35  56  83 117 148 191 236 280 351
#
# _framework density 21.411263000000002
#
# number of rings (size 3 to 8) (size 9 to 14) (size 15 to 20)
#    0.000    2.286    4.286    1.714    0.000    1.143 
#    0.000    5.000    3.143    0.000    0.000    0.000 
#    0.000    0.000    0.000    0.000    0.000    0.000 
#
# Total GULP energy -155961.029796 kJ/mol
# GULP energy per Si atom -5570.036778 kJ/mol
# Density = 2.136253 g / cm^3
# Si number density = 21.411263 Si / 1000 Ang^3
#
#
#
# Elastic Constant Matrix: (Units=GPa)
#
#
# Indices 1 2 3 4 5 6 
#
# 1 68.3593 5.2299 32.6209 0.0000 -40.0304 0.0000
# 2 5.2299 104.5461 62.0751 0.0000 -9.5907 0.0000
# 3 32.6209 62.0751 119.2350 0.0000 -42.6589 0.0000
# 4 0.0000 0.0000 0.0000 41.4699 0.0000 -16.6006
# 5 -40.0304 -9.5907 -42.6589 0.0000 43.2784 0.0000
# 6 0.0000 0.0000 0.0000 -16.6006 0.0000 26.0831
#
#
#
# Elastic Compliance Matrix: (Units=1/GPa)
#
#
# Indices 1 2 3 4 5 6 
#
# 1 0.032561 -0.000499 0.003224 0.000000 0.033184 0.000000
# 2 -0.000499 0.015035 -0.010294 0.000000 -0.007276 0.000000
# 3 0.003224 -0.010294 0.020259 0.000000 0.020670 0.000000
# 4 0.000000 0.000000 0.000000 0.032358 0.000000 0.020594
# 5 0.033184 -0.007276 0.020670 0.000000 0.072562 0.000000
# 6 0.000000 0.000000 0.000000 0.020594 0.000000 0.051446
#
#
# Mechanical properties :
#
#
# Convention : Reuss Voigt Hill
#
# Bulk Modulus (GPa) = 18.96934 54.66582 36.81758
# Shear Modulus (GPa) = 19.46052 34.98058 27.22055
#
# Velocity S-wave (km/s) = 3.01805 4.04635 3.56942
# Velocity P-wave (km/s) = 4.58515 6.88603 5.84983
#
# Compressibility (1/GPa) = 0.05271664
#
# Stress axis : x y z
#
# Youngs Moduli (GPa) = 30.71194 66.51238 49.36055
#
# Poissons Ratio (x) = 0.03319 -0.15914
# Poissons Ratio (y) = 0.01532 0.50812
# Poissons Ratio (z) = -0.09902 0.68468
#
# Static dielectric constant tensor:
#      x y z
#    x 2.020260 0.000000 0.010240 
#    y 0.000000 1.816790 0.000000 
#    z 0.010240 0.000000 1.810300 
# 
# From -- ./inp_files/204380.got.cif
#   From: 2010.05.17/outbox.cif.g08.bks.cpg/sg15_103_cif.got.tgz:204380.got - 2010.06.03 18:47:42.
