data_PCOD9260157
_publ_section_title
;
Structure prediction by ZEFSAII (Michael W. Deem and Ramdas Pophale) SiO2 
 PCOD9260157
Probable space group: C 2/C
;
_chemical_formula_sum "Si O2"
_cell_formula_units_Z 40
_cell_length_a 23.187983
_cell_length_b 21.687279
_cell_length_c 11.964723
_cell_angle_alpha 90.000000
_cell_angle_beta 19.476435
_cell_angle_gamma 90.000000
_cell_volume 2006.139868
_symmetry_space_group_name_H-M "C 2/C"
_symmetry_group_IT_number 15
_symmetry_cell_setting 'monoclinic'
loop_
_space_group_symop_operation_xyz
x,y,z
-x,y,1/2-z
-x,-y,-z
x,-y,1/2+z
1/2+x,1/2+y,z
1/2-x,1/2+y,1/2-z
1/2-x,1/2-y,-z
1/2+x,1/2-y,1/2+z
loop_
_atom_site_type_symbol
_atom_site_label
_atom_site_fract_x
_atom_site_fract_y
_atom_site_fract_z
Si Si1 0.411388 0.947762 0.790326
Si Si2 0.750846 0.438668 0.480141
Si Si3 0.785010 0.168777 0.802800
Si Si4 0.855026 0.804661 0.745389
Si Si5 0.000000 0.763629 0.250000
Si Si6 0.500000 0.409126 0.750000
O O1 0.500000 0.947767 0.750000
O O2 0.573287 0.943160 0.411996
O O3 0.284681 0.006094 0.005143
O O4 0.297351 0.887242 0.978776
O O5 0.727821 0.371392 0.576697
O O6 0.588748 0.445619 0.690163
O O7 0.849148 0.135675 0.571581
O O8 0.955786 0.195179 0.545298
O O9 0.640855 0.219500 0.049556
O O10 0.893372 0.797478 0.543141
O O11 0.750000 0.750000 0.000000
#
# Coordination Sequence:
#
# PCOD9260157 Si02
#       6
#     8   8   8   8   4   4
#     4  11  21  43  67  92 126 172 218 269 329 396
#     4  10  23  41  64  97 129 167 216 272 325 389
#     4  11  21  40  68  90 124 175 214 260 324 397
#     4  11  25  43  63  98 133 173 219 268 324 397
#     4  12  22  42  67  94 131 170 218 270 328 384
#     4  10  18  36  63  92 125 164 210 256 322 394
#
# _framework density 19.938787999999999
#
# number of rings (size 3 to 8) (size 9 to 14) (size 15 to 20)
#    0.000    1.200    3.000    4.200    0.000    3.200 
#   10.800    1.000    0.000    0.000    0.000    0.000 
#    0.000    0.000    0.000    0.000    0.000    0.000 
#
# Total GULP energy -111588.863438 kJ/mol
# GULP energy per Si atom -5579.443172 kJ/mol
# Density = 1.989341 g / cm^3
# Si number density = 19.938788 Si / 1000 Ang^3
#
#
#
# Elastic Constant Matrix: (Units=GPa)
#
#
# Indices 1 2 3 4 5 6 
#
# 1 66.4999 65.3390 36.1182 0.0134 -5.2019 -0.0058
# 2 65.3390 121.2530 60.4842 0.0016 -23.4498 0.0092
# 3 36.1182 60.4842 98.3822 0.0073 0.2027 0.0131
# 4 0.0134 0.0016 0.0073 55.0678 -0.0085 0.0008
# 5 -5.2019 -23.4498 0.2027 -0.0085 29.4702 0.0023
# 6 -0.0058 0.0092 0.0131 0.0008 0.0023 39.1169
#
#
#
# Elastic Compliance Matrix: (Units=1/GPa)
#
#
# Indices 1 2 3 4 5 6 
#
# 1 0.034394 -0.020525 0.000012 -0.000009 -0.010261 0.000010
# 2 -0.020525 0.027583 -0.009461 0.000008 0.018390 -0.000007
# 3 0.000012 -0.009461 0.015992 -0.000003 -0.007636 -0.000003
# 4 -0.000009 0.000008 -0.000003 0.018159 0.000010 0.000000
# 5 -0.010261 0.018390 -0.007636 0.000010 0.046807 -0.000006
# 6 0.000010 -0.000007 -0.000003 0.000000 -0.000006 0.025564
#
#
# Mechanical properties :
#
#
# Convention : Reuss Voigt Hill
#
# Bulk Modulus (GPa) = 55.48177 67.77977 61.63077
# Shear Modulus (GPa) = 21.32619 33.01056 27.16838
#
# Velocity S-wave (km/s) = 3.27400 4.07332 3.69533
# Velocity P-wave (km/s) = 6.49450 7.49602 7.01316
#
# Compressibility (1/GPa) = 0.01802394
#
# Stress axis : x y z
#
# Youngs Moduli (GPa) = 29.07444 36.25436 62.53192
#
# Poissons Ratio (x) = 0.74410 -0.00078
# Poissons Ratio (y) = 0.59674 0.59158
# Poissons Ratio (z) = -0.00036 0.34299
#
# Static dielectric constant tensor:
#      x y z
#    x 1.756730 0.000000 0.067310 
#    y 0.000000 1.704550 0.000010 
#    z 0.067310 0.000010 1.743460 
# 
# From -- ./inp_files/77667.got.cif
#   From: 2010.05.17/outbox.cif.g08.bks.cpg/sg15_39_cif.got.tgz:77667.got - 2010.06.03 18:47:42.
