data_PCOD9260018
_publ_section_title
;
Structure prediction by ZEFSAII (Michael W. Deem and Ramdas Pophale) SiO2 
 PCOD9260018
Probable space group: C 2/C
;
_chemical_formula_sum "Si O2"
_cell_formula_units_Z 44
_cell_length_a 11.301194
_cell_length_b 15.333987
_cell_length_c 17.246738
_cell_angle_alpha 90.000000
_cell_angle_beta 122.119433
_cell_angle_gamma 90.000000
_cell_volume 2531.278157
_symmetry_space_group_name_H-M "C 2/C"
_symmetry_group_IT_number 15
_symmetry_cell_setting 'monoclinic'
loop_
_space_group_symop_operation_xyz
x,y,z
-x,y,1/2-z
-x,-y,-z
x,-y,1/2+z
1/2+x,1/2+y,z
1/2-x,1/2+y,1/2-z
1/2-x,1/2-y,-z
1/2+x,1/2-y,1/2+z
loop_
_atom_site_type_symbol
_atom_site_label
_atom_site_fract_x
_atom_site_fract_y
_atom_site_fract_z
Si Si1 0.408171 0.246780 0.523330
Si Si2 0.594309 0.648857 0.204302
Si Si3 0.143271 0.956819 0.253926
Si Si4 0.500000 0.085023 0.750000
Si Si5 0.451677 0.056842 0.909101
Si Si6 0.721985 0.301978 0.175860
O O1 0.250000 0.250000 0.500000
O O2 0.498183 0.317070 0.601568
O O3 0.482290 0.153279 0.558617
O O4 0.383608 0.270900 0.426234
O O5 0.500000 0.651605 0.250000
O O6 0.648200 0.550674 0.213452
O O7 0.718667 0.717688 0.259388
O O8 0.283653 0.946805 0.353098
O O9 0.146215 0.873845 0.200180
O O10 0.000000 0.956873 0.250000
O O11 0.487030 0.035696 0.829281
O O12 0.637037 0.147173 0.803718
O O13 0.500000 0.000000 0.000000
#
# Coordination Sequence:
#
# PCOD9260018 Si02
#       6
#     8   8   8   4   8   8
#     4  12  20  34  68  93 116 154 209 272 309 359
#     4  11  19  36  62  89 116 160 207 252 308 359
#     4  10  24  39  60  86 133 168 198 255 320 386
#     4  10  18  36  60  92 126 154 200 276 306 346
#     4  11  22  38  63  98 125 161 214 262 318 369
#     4  11  19  38  61  92 121 155 214 266 308 358
#
# _framework density 17.382522000000002
#
# number of rings (size 3 to 8) (size 9 to 14) (size 15 to 20)
#    0.000    1.091    8.182    1.091    2.545    0.727 
#    0.000    2.727   18.000    0.000    0.000    0.000 
#    0.000    0.000    0.000    0.000    0.000    0.000 
#
# Total GULP energy -122564.955762 kJ/mol
# GULP energy per Si atom -5571.134353 kJ/mol
# Density = 1.734296 g / cm^3
# Si number density = 17.382522 Si / 1000 Ang^3
#
#
#
# Elastic Constant Matrix: (Units=GPa)
#
#
# Indices 1 2 3 4 5 6 
#
# 1 74.7070 46.8951 40.8607 0.0000 10.2780 0.0000
# 2 46.8951 130.8238 62.1815 0.0000 7.2940 0.0000
# 3 40.8607 62.1815 164.7131 0.0000 9.9849 0.0000
# 4 0.0000 0.0000 0.0000 44.3668 0.0000 -2.5727
# 5 10.2780 7.2940 9.9849 0.0000 25.2936 0.0000
# 6 0.0000 0.0000 0.0000 -2.5727 0.0000 23.6759
#
#
#
# Elastic Compliance Matrix: (Units=1/GPa)
#
#
# Indices 1 2 3 4 5 6 
#
# 1 0.018698 -0.005312 -0.002321 0.000000 -0.005150 0.000000
# 2 -0.005312 0.010869 -0.002793 0.000000 0.000127 0.000000
# 3 -0.002321 -0.002793 0.007781 0.000000 -0.001323 0.000000
# 4 0.000000 0.000000 0.000000 0.022682 0.000000 0.002465
# 5 -0.005150 0.000127 -0.001323 0.000000 0.042114 0.000000
# 6 0.000000 0.000000 0.000000 0.002465 0.000000 0.042505
#
#
# Mechanical properties :
#
#
# Convention : Reuss Voigt Hill
#
# Bulk Modulus (GPa) = 60.62044 74.45762 67.53903
# Shear Modulus (GPa) = 29.23975 33.35437 31.29706
#
# Velocity S-wave (km/s) = 4.10583 4.38521 4.24782
# Velocity P-wave (km/s) = 7.57808 8.28057 7.93710
#
# Compressibility (1/GPa) = 0.01649609
#
# Stress axis : x y z
#
# Youngs Moduli (GPa) = 53.48128 92.00891 128.51048
#
# Poissons Ratio (x) = 0.48878 0.29825
# Poissons Ratio (y) = 0.28411 0.35891
# Poissons Ratio (z) = 0.12412 0.25697
#
# Static dielectric constant tensor:
#      x y z
#    x 1.565870 0.000000 0.000280 
#    y 0.000000 1.598540 0.000000 
#    z 0.000280 0.000000 1.631400 
# 
# From -- ./inp_files/142220.got.cif
#   From: 2010.05.17/outbox.cif.g08.bks.cpg/sg15_72_cif.got.tgz:142220.got - 2010.06.03 18:47:42.
