data_PCOD9260017
_publ_section_title
;
Structure prediction by ZEFSAII (Michael W. Deem and Ramdas Pophale) SiO2 
 PCOD9260017
Probable space group: C 2/C
;
_chemical_formula_sum "Si O2"
_cell_formula_units_Z 52
_cell_length_a 20.358662
_cell_length_b 14.101901
_cell_length_c 15.998430
_cell_angle_alpha 90.000000
_cell_angle_beta 33.078100
_cell_angle_gamma 90.000000
_cell_volume 2506.820552
_symmetry_space_group_name_H-M "C 2/C"
_symmetry_group_IT_number 15
_symmetry_cell_setting 'monoclinic'
loop_
_space_group_symop_operation_xyz
x,y,z
-x,y,1/2-z
-x,-y,-z
x,-y,1/2+z
1/2+x,1/2+y,z
1/2-x,1/2+y,1/2-z
1/2-x,1/2-y,-z
1/2+x,1/2-y,1/2+z
loop_
_atom_site_type_symbol
_atom_site_label
_atom_site_fract_x
_atom_site_fract_y
_atom_site_fract_z
Si Si1 0.876594 0.138765 0.329486
Si Si2 0.000000 0.187562 0.750000
Si Si3 0.299271 0.824973 0.329080
Si Si4 0.732043 0.297165 0.228579
Si Si5 0.929455 0.498369 0.245640
Si Si6 0.005244 0.687008 0.408490
Si Si7 0.792236 0.066980 0.907390
O O1 0.773796 0.153961 0.508500
O O2 0.861249 0.223322 0.279421
O O3 0.000000 0.141857 0.250000
O O4 0.849326 0.034471 0.322372
O O5 0.994679 0.253827 0.676552
O O6 0.884398 0.121705 0.868884
O O7 0.208503 0.831481 0.347948
O O8 0.391321 0.912267 0.227472
O O9 0.631141 0.216602 0.318646
O O10 0.724962 0.369980 0.157809
O O11 0.876977 0.280756 0.083725
O O12 0.994015 0.577364 0.120315
O O13 0.823042 0.551312 0.410565
O O14 0.000000 0.456283 0.250000
#
# Coordination Sequence:
#
# PCOD9260017 Si02
#       7
#     8   4   8   8   8   8   8
#     4  10  21  43  65  86 115 173 207 253 294 380
#     4  10  18  36  60  92 118 162 198 254 286 388
#     4  10  25  39  61  90 126 157 214 247 310 364
#     4  11  24  41  59  99 124 164 195 268 309 367
#     4  11  20  39  61  91 117 165 202 252 294 378
#     4  11  22  38  65  90 131 159 208 249 322 357
#     4  10  20  37  65  89 122 154 211 245 314 351
#
# _framework density 20.743407999999999
#
# number of rings (size 3 to 8) (size 9 to 14) (size 15 to 20)
#    0.000    1.538    3.077    1.385    2.154    4.308 
#    0.000    0.769    0.000    0.000    0.000    0.000 
#    0.000    0.000    0.000    0.000    0.000    0.000 
#
# Total GULP energy -144891.532168 kJ/mol
# GULP energy per Si atom -5572.751237 kJ/mol
# Density = 2.069619 g / cm^3
# Si number density = 20.743408 Si / 1000 Ang^3
#
#
#
# Elastic Constant Matrix: (Units=GPa)
#
#
# Indices 1 2 3 4 5 6 
#
# 1 91.0907 7.4644 0.8036 0.0000 -5.4763 0.0000
# 2 7.4644 62.1013 5.2637 0.0000 -8.7313 0.0000
# 3 0.8036 5.2637 33.4150 0.0000 -16.3410 0.0000
# 4 0.0000 0.0000 0.0000 8.4997 0.0000 -10.8091
# 5 -5.4763 -8.7313 -16.3410 0.0000 24.5984 0.0000
# 6 0.0000 0.0000 0.0000 -10.8091 0.0000 23.6658
#
#
#
# Elastic Compliance Matrix: (Units=1/GPa)
#
#
# Indices 1 2 3 4 5 6 
#
# 1 0.011235 -0.001039 0.001387 0.000000 0.003054 0.000000
# 2 -0.001039 0.017048 0.000275 0.000000 0.006003 0.000000
# 3 0.001387 0.000275 0.044508 0.000000 0.029973 0.000000
# 4 0.000000 0.000000 0.000000 0.280684 0.000000 0.128200
# 5 0.003054 0.006003 0.029973 0.000000 0.063375 0.000000
# 6 0.000000 0.000000 0.000000 0.128200 0.000000 0.100809
#
#
# Mechanical properties :
#
#
# Convention : Reuss Voigt Hill
#
# Bulk Modulus (GPa) = 13.50670 23.74113 18.62392
# Shear Modulus (GPa) = 9.24059 22.89114 16.06586
#
# Velocity S-wave (km/s) = 2.11291 3.32556 2.78601
# Velocity P-wave (km/s) = 3.53242 5.12013 4.39851
#
# Compressibility (1/GPa) = 0.07403734
#
# Stress axis : x y z
#
# Youngs Moduli (GPa) = 89.01127 58.65715 22.46787
#
# Poissons Ratio (x) = 0.06092 -0.03116
# Poissons Ratio (y) = 0.09244 -0.00618
# Poissons Ratio (z) = -0.12344 -0.01613
#
# Static dielectric constant tensor:
#      x y z
#    x 0.848430 0.000000 0.035850 
#    y 0.000000 1.754530 0.000000 
#    z 0.035850 0.000000 1.879200 
# 
# From -- ./inp_files/112319.got.cif
#   From: 2010.05.17/outbox.cif.g08.bks.cpg/sg15_57_cif.got.tgz:112319.got - 2010.06.03 18:47:42.
