data_PCOD9260558
_publ_section_title
;
Structure prediction by ZEFSAII (Michael W. Deem and Ramdas Pophale) SiO2 
 PCOD9260558
Probable space group: C 2/C
;
_chemical_formula_sum "Si O2"
_cell_formula_units_Z 40
_cell_length_a 13.186234
_cell_length_b 7.518346
_cell_length_c 18.485061
_cell_angle_alpha 90.000000
_cell_angle_beta 89.622360
_cell_angle_gamma 90.000000
_cell_volume 1832.544550
_symmetry_space_group_name_H-M "C 2/C"
_symmetry_group_IT_number 15
_symmetry_cell_setting 'monoclinic'
loop_
_space_group_symop_operation_xyz
x,y,z
-x,y,1/2-z
-x,-y,-z
x,-y,1/2+z
1/2+x,1/2+y,z
1/2-x,1/2+y,1/2-z
1/2-x,1/2-y,-z
1/2+x,1/2-y,1/2+z
loop_
_atom_site_type_symbol
_atom_site_label
_atom_site_fract_x
_atom_site_fract_y
_atom_site_fract_z
Si Si1 0.712512 0.036230 0.328560
Si Si2 0.774998 0.947691 0.530975
Si Si3 0.685237 0.160469 0.167247
Si Si4 0.855827 0.781086 0.934788
Si Si5 0.997499 0.515272 0.587152
O O1 0.778782 0.181692 0.370070
O O2 0.785797 0.865735 0.328542
O O3 0.683628 0.083027 0.247197
O O4 0.610655 0.007489 0.375367
O O5 0.750000 0.750000 0.500000
O O6 0.775262 0.920172 0.616611
O O7 0.862760 0.046254 0.486038
O O8 0.690995 0.892908 0.023828
O O9 0.580954 0.113803 0.125100
O O10 0.961022 0.715156 0.901752
O O11 0.000000 0.500000 0.500000
#
# Coordination Sequence:
#
# PCOD9260558 Si02
#       5
#     8   8   8   8   8
#     4  12  24  47  70 101 147 187 237 299 365 426
#     4  10  18  37  67  97 136 179 226 285 343 414
#     4  11  24  41  72 100 141 189 231 297 360 424
#     4  10  22  41  71 100 141 183 234 294 353 413
#     4  11  25  44  71 102 139 187 237 296 353 426
#
# _framework density 21.827573999999998
#
# number of rings (size 3 to 8) (size 9 to 14) (size 15 to 20)
#    0.000    1.200    2.000    6.600    0.000    0.000 
#    0.000   12.000    0.000    0.000    0.000    0.000 
#    0.000    0.000    0.000    0.000    0.000    0.000 
#
# Total GULP energy -111481.611746 kJ/mol
# GULP energy per Si atom -5574.080587 kJ/mol
# Density = 2.177789 g / cm^3
# Si number density = 21.827574 Si / 1000 Ang^3
#
#
#
# Elastic Constant Matrix: (Units=GPa)
#
#
# Indices 1 2 3 4 5 6 
#
# 1 103.6975 37.3581 67.0554 0.0000 8.9938 0.0000
# 2 37.3581 142.9605 53.3727 0.0000 0.9302 0.0000
# 3 67.0554 53.3727 200.3120 0.0000 7.0445 0.0000
# 4 0.0000 0.0000 0.0000 30.2780 0.0000 -0.9868
# 5 8.9938 0.9302 7.0445 0.0000 25.5018 0.0000
# 6 0.0000 0.0000 0.0000 -0.9868 0.0000 35.6519
#
#
#
# Elastic Compliance Matrix: (Units=1/GPa)
#
#
# Indices 1 2 3 4 5 6 
#
# 1 0.013075 -0.002005 -0.003719 0.000000 -0.003511 0.000000
# 2 -0.002005 0.008077 -0.001510 0.000000 0.000830 0.000000
# 3 -0.003719 -0.001510 0.006656 0.000000 -0.000472 0.000000
# 4 0.000000 0.000000 0.000000 0.033057 0.000000 0.000915
# 5 -0.003511 0.000830 -0.000472 0.000000 0.040551 0.000000
# 6 0.000000 0.000000 0.000000 0.000915 0.000000 0.028074
#
#
# Mechanical properties :
#
#
# Convention : Reuss Voigt Hill
#
# Bulk Modulus (GPa) = 74.96534 84.72696 79.84615
# Shear Modulus (GPa) = 33.69098 37.56524 35.62811
#
# Velocity S-wave (km/s) = 3.93301 4.15299 4.04450
# Velocity P-wave (km/s) = 7.41914 7.86748 7.64660
#
# Compressibility (1/GPa) = 0.01333950
#
# Stress axis : x y z
#
# Youngs Moduli (GPa) = 76.47915 123.80283 150.23596
#
# Poissons Ratio (x) = 0.24828 0.55877
# Poissons Ratio (y) = 0.15338 0.22686
# Poissons Ratio (z) = 0.28445 0.18695
#
# Static dielectric constant tensor:
#      x y z
#    x 1.917320 0.000000 -0.051410 
#    y 0.000000 1.864800 0.000000 
#    z -0.051410 0.000000 1.857550 
# 
# From -- ./inp_files/202214.got.cif
#   From: 2010.05.17/outbox.cif.g08.bks.cpg/sg15_102_cif.got.tgz:202214.got - 2010.06.03 18:47:42.
