data_PCOD9260031
_publ_section_title
;
Structure prediction by ZEFSAII (Michael W. Deem and Ramdas Pophale) SiO2 
 PCOD9260031
Probable space group: C 2/C
;
_chemical_formula_sum "Si O2"
_cell_formula_units_Z 60
_cell_length_a 5.152592
_cell_length_b 26.771429
_cell_length_c 18.705202
_cell_angle_alpha 90.000000
_cell_angle_beta 105.442421
_cell_angle_gamma 90.000000
_cell_volume 2487.087284
_symmetry_space_group_name_H-M "C 2/C"
_symmetry_group_IT_number 15
_symmetry_cell_setting 'monoclinic'
loop_
_space_group_symop_operation_xyz
x,y,z
-x,y,1/2-z
-x,-y,-z
x,-y,1/2+z
1/2+x,1/2+y,z
1/2-x,1/2+y,1/2-z
1/2-x,1/2-y,-z
1/2+x,1/2-y,1/2+z
loop_
_atom_site_type_symbol
_atom_site_label
_atom_site_fract_x
_atom_site_fract_y
_atom_site_fract_z
Si Si1 0.480283 0.207816 0.664735
Si Si2 0.110898 0.219429 0.926206
Si Si3 0.661396 0.903436 0.830332
Si Si4 0.849199 0.593037 0.668923
Si Si5 0.735818 0.439884 0.011879
Si Si6 0.304188 0.529175 0.139889
Si Si7 0.788109 0.377973 0.516986
Si Si8 0.500000 0.561462 0.750000
O O1 0.500000 0.220090 0.750000
O O2 0.728227 0.225831 0.635611
O O3 0.463789 0.146931 0.659125
O O4 0.203859 0.228022 0.609914
O O5 0.250000 0.250000 0.000000
O O6 0.157233 0.163323 0.957921
O O7 0.500000 0.883658 0.750000
O O8 0.460358 0.945201 0.847760
O O9 0.688822 0.864194 0.897324
O O10 0.944284 0.931421 0.834555
O O11 0.831727 0.556608 0.600561
O O12 0.572405 0.599953 0.691013
O O13 0.000000 0.569936 0.750000
O O14 0.736718 0.479726 0.948039
O O15 0.429249 0.422169 0.996229
O O16 0.927072 0.396303 0.992825
O O17 0.365885 0.479835 0.187680
#
# Coordination Sequence:
#
# PCOD9260031 Si02
#       8
#     8   8   8   8   8   8   8   4
#     4  11  25  44  69  97 140 180 222 262 333 414
#     4  12  23  43  72 104 135 170 217 278 340 393
#     4  10  18  36  61  84 115 169 211 262 334 384
#     4  11  26  39  64  91 132 175 226 270 327 387
#     4  10  21  41  63  85 124 172 215 264 323 390
#     4  10  22  38  60  84 125 163 214 276 330 379
#     4  10  20  37  63  94 122 161 216 260 311 411
#     4  12  26  38  60  96 130 166 234 280 336 382
#
# _framework density 24.124604000000001
#
# number of rings (size 3 to 8) (size 9 to 14) (size 15 to 20)
#    0.000    1.333    4.000    0.800    7.467    0.533 
#    0.000    2.000    0.000    0.000    0.000    0.000 
#    0.000    0.000    0.000    0.000    0.000    0.000 
#
# Total GULP energy -167524.460980 kJ/mol
# GULP energy per Si atom -5584.148699 kJ/mol
# Density = 2.406970 g / cm^3
# Si number density = 24.124604 Si / 1000 Ang^3
#
#
#
# Elastic Constant Matrix: (Units=GPa)
#
#
# Indices 1 2 3 4 5 6 
#
# 1 66.7918 -3.0824 4.2183 0.0000 -0.4960 0.0000
# 2 -3.0824 4.3365 6.8411 0.0000 -6.2434 0.0000
# 3 4.2183 6.8411 205.8333 0.0000 -0.8246 0.0000
# 4 0.0000 0.0000 0.0000 32.0171 0.0000 6.3505
# 5 -0.4960 -6.2434 -0.8246 0.0000 47.6192 0.0000
# 6 0.0000 0.0000 0.0000 6.3505 0.0000 9.9488
#
#
#
# Elastic Compliance Matrix: (Units=1/GPa)
#
#
# Indices 1 2 3 4 5 6 
#
# 1 0.015766 0.015706 -0.000836 0.000000 0.002209 0.000000
# 2 0.015706 0.318888 -0.010753 0.000000 0.041787 0.000000
# 3 -0.000836 -0.010753 0.005228 0.000000 -0.001328 0.000000
# 4 0.000000 0.000000 0.000000 0.035761 0.000000 -0.022827
# 5 0.002209 0.041787 -0.001328 0.000000 0.026479 0.000000
# 6 0.000000 0.000000 0.000000 -0.022827 0.000000 0.115086
#
#
# Mechanical properties :
#
#
# Convention : Reuss Voigt Hill
#
# Bulk Modulus (GPa) = 2.87262 32.54618 17.70940
# Shear Modulus (GPa) = 7.99986 35.84934 21.92460
#
# Velocity S-wave (km/s) = 1.82298 3.85906 3.01791
# Velocity P-wave (km/s) = 2.37157 5.77725 4.41593
#
# Compressibility (1/GPa) = 0.34811416
#
# Stress axis : x y z
#
# Youngs Moduli (GPa) = 63.42787 3.13590 191.29592
#
# Poissons Ratio (x) = -0.04925 0.15997
# Poissons Ratio (y) = -0.99619 2.05700
# Poissons Ratio (z) = 0.05304 0.03372
#
# Static dielectric constant tensor:
#      x y z
#    x 1.494110 0.000000 0.034900 
#    y 0.000000 1.895520 0.000000 
#    z 0.034900 0.000000 1.984650 
# 
# From -- ./inp_files/186761.got.cif
#   From: 2010.05.17/outbox.cif.g08.bks.cpg/sg15_94_cif.got.tgz:186761.got - 2010.06.03 18:47:42.
