data_PCOD9260503
_publ_section_title
;
Structure prediction by ZEFSAII (Michael W. Deem and Ramdas Pophale) SiO2 
 PCOD9260503
Probable space group: C 2/C
;
_chemical_formula_sum "Si O2"
_cell_formula_units_Z 52
_cell_length_a 9.382919
_cell_length_b 20.800246
_cell_length_c 20.467400
_cell_angle_alpha 90.000000
_cell_angle_beta 144.236202
_cell_angle_gamma 90.000000
_cell_volume 2334.601885
_symmetry_space_group_name_H-M "C 2/C"
_symmetry_group_IT_number 15
_symmetry_cell_setting 'monoclinic'
loop_
_space_group_symop_operation_xyz
x,y,z
-x,y,1/2-z
-x,-y,-z
x,-y,1/2+z
1/2+x,1/2+y,z
1/2-x,1/2+y,1/2-z
1/2-x,1/2-y,-z
1/2+x,1/2-y,1/2+z
loop_
_atom_site_type_symbol
_atom_site_label
_atom_site_fract_x
_atom_site_fract_y
_atom_site_fract_z
Si Si1 0.000000 0.452758 0.750000
Si Si2 0.227607 0.774113 0.382545
Si Si3 0.208484 0.318419 0.517813
Si Si4 0.110771 0.115282 0.923391
Si Si5 0.000000 0.144210 0.250000
Si Si6 0.038962 0.132374 0.036421
Si Si7 0.389806 0.956158 0.852068
Si Si8 0.500000 0.549953 0.750000
O O1 0.234663 0.409281 0.854328
O O2 0.064087 0.483604 0.703675
O O3 0.422929 0.823645 0.423820
O O4 0.157381 0.809798 0.423188
O O5 0.356076 0.704853 0.433940
O O6 0.000000 0.766706 0.250000
O O7 0.250000 0.250000 0.500000
O O8 0.344054 0.318807 0.637882
O O9 0.328994 0.368200 0.512618
O O10 0.989998 0.088410 0.813398
O O11 0.964503 0.109409 0.936607
O O12 0.361571 0.075792 0.029500
O O13 0.808879 0.101678 0.220584
O O14 0.247012 0.007283 0.843169
#
# Coordination Sequence:
#
# PCOD9260503 Si02
#       8
#     4   8   8   8   4   8   8   4
#     4  10  18  37  64  93 121 161 214 264 312 368
#     4  11  21  39  64  94 133 168 204 249 309 392
#     4  10  22  38  58  95 133 165 210 257 308 377
#     4  11  22  40  64  89 124 167 207 259 314 373
#     4  11  18  38  64  85 119 172 212 257 300 376
#     4  10  21  38  61  96 130 163 205 254 313 380
#     4  10  22  38  66  85 117 161 218 265 309 367
#     4  11  24  43  60  92 120 163 224 259 320 370
#
# _framework density 22.273605
#
# number of rings (size 3 to 8) (size 9 to 14) (size 15 to 20)
#    0.000    1.538    4.615    0.923    0.000    0.000 
#   11.077    4.615    0.000    0.000    0.000    0.000 
#    0.000    0.000    0.000    0.000    0.000    0.000 
#
# Total GULP energy -145110.033137 kJ/mol
# GULP energy per Si atom -5581.155121 kJ/mol
# Density = 2.222291 g / cm^3
# Si number density = 22.273605 Si / 1000 Ang^3
#
#
#
# Elastic Constant Matrix: (Units=GPa)
#
#
# Indices 1 2 3 4 5 6 
#
# 1 97.0727 -13.9070 36.3565 -0.0001 -20.7790 0.0022
# 2 -13.9070 23.1117 8.0317 0.0014 -9.2921 0.0005
# 3 36.3565 8.0317 106.6604 0.0293 -21.3199 -0.0109
# 4 -0.0001 0.0014 0.0293 -96.2803 0.0126 32.9351
# 5 -20.7790 -9.2921 -21.3199 0.0126 36.3869 -0.0039
# 6 0.0022 0.0005 -0.0109 32.9351 -0.0039 2.1859
#
#
#
# Elastic Compliance Matrix: (Units=1/GPa)
#
#
# Indices 1 2 3 4 5 6 
#
# 1 0.016700 0.016062 -0.004730 -0.000001 0.010867 -0.000005
# 2 0.016062 0.063833 -0.005878 -0.000001 0.022029 -0.000008
# 3 -0.004730 -0.005878 0.011995 0.000005 0.002826 0.000002
# 4 -0.000001 -0.000001 0.000005 -0.001688 0.000005 0.025429
# 5 0.010867 0.022029 0.002826 0.000005 0.040970 -0.000005
# 6 -0.000005 -0.000008 0.000002 0.025429 -0.000005 0.074338
#
#
# Mechanical properties :
#
#
# Convention : Reuss Voigt Hill
#
# Bulk Modulus (GPa) = 9.66783 31.97858 20.82321
# Shear Modulus (GPa) = 21.76573 1.54939 11.65756
#
# Velocity S-wave (km/s) = 3.12941 0.83494 2.29023
# Velocity P-wave (km/s) = 4.17223 3.91380 4.04508
#
# Compressibility (1/GPa) = 0.10343583
#
# Stress axis : x y z
#
# Youngs Moduli (GPa) = 59.87927 15.66597 83.36587
#
# Poissons Ratio (x) = -0.25163 0.39430
# Poissons Ratio (y) = -0.96178 0.49005
# Poissons Ratio (z) = 0.28322 0.09209
#
# Static dielectric constant tensor:
#      x y z
#    x 1.743790 0.000000 0.041060 
#    y 0.000000 1.859890 0.000000 
#    z 0.041060 0.000000 1.756900 
# 
# From -- ./inp_files/80825.got.cif
#   From: 2010.05.17/outbox.cif.g08.bks.cpg/sg15_41_cif.got.tgz:80825.got - 2010.06.03 18:47:42.
