data_PCOD9260988
_publ_section_title
;
Structure prediction by ZEFSAII (Michael W. Deem and Ramdas Pophale) SiO2 
 PCOD9260988
Probable space group: C 2/C
;
_chemical_formula_sum "Si O2"
_cell_formula_units_Z 44
_cell_length_a 8.021385
_cell_length_b 16.103634
_cell_length_c 17.218025
_cell_angle_alpha 90.000000
_cell_angle_beta 90.754264
_cell_angle_gamma 90.000000
_cell_volume 2223.918943
_symmetry_space_group_name_H-M "C 2/C"
_symmetry_group_IT_number 15
_symmetry_cell_setting 'monoclinic'
loop_
_space_group_symop_operation_xyz
x,y,z
-x,y,1/2-z
-x,-y,-z
x,-y,1/2+z
1/2+x,1/2+y,z
1/2-x,1/2+y,1/2-z
1/2-x,1/2-y,-z
1/2+x,1/2-y,1/2+z
loop_
_atom_site_type_symbol
_atom_site_label
_atom_site_fract_x
_atom_site_fract_y
_atom_site_fract_z
Si Si1 0.630642 0.621346 0.099550
Si Si2 0.131259 0.568423 0.526396
Si Si3 0.850976 0.502959 0.306453
Si Si4 0.000000 0.959952 0.750000
Si Si5 0.019060 0.683159 0.334746
Si Si6 0.447477 0.243184 0.494154
O O1 0.513876 0.587019 0.167015
O O2 0.792350 0.655063 0.146772
O O3 0.534638 0.689439 0.048636
O O4 0.714156 0.564033 0.032938
O O5 0.170725 0.549783 0.615733
O O6 0.000000 0.500000 0.500000
O O7 0.037541 0.656407 0.516569
O O8 0.679063 0.497215 0.258398
O O9 0.000000 0.475860 0.250000
O O10 0.905499 0.598256 0.331624
O O11 0.000000 0.720756 0.250000
O O12 0.977644 0.747099 0.402142
O O13 0.250000 0.250000 0.500000
#
# Coordination Sequence:
#
# PCOD9260988 Si02
#       6
#     8   8   8   4   8   8
#     4  11  23  39  69  93 131 179 222 264 336 407
#     4  11  21  42  67  93 132 171 213 282 334 385
#     4  11  21  41  64  96 133 169 222 274 328 393
#     4  12  22  40  68  96 128 182 226 256 340 406
#     4  10  18  39  65  90 129 171 212 267 322 394
#     4  11  24  42  62 100 131 173 224 270 330 403
#
# _framework density 19.784894999999999
#
# number of rings (size 3 to 8) (size 9 to 14) (size 15 to 20)
#    0.000    1.091    7.273    3.273    0.000    0.727 
#    4.909    1.818    2.000    0.000    0.000    0.000 
#    0.000    0.000    0.000    0.000    0.000    0.000 
#
# Total GULP energy -122652.675236 kJ/mol
# GULP energy per Si atom -5575.121602 kJ/mol
# Density = 1.973986 g / cm^3
# Si number density = 19.784895 Si / 1000 Ang^3
#
#
#
# Elastic Constant Matrix: (Units=GPa)
#
#
# Indices 1 2 3 4 5 6 
#
# 1 117.9435 14.8619 39.5243 0.0000 1.3855 0.0000
# 2 14.8619 37.7522 40.9393 0.0000 -3.5419 0.0000
# 3 39.5243 40.9393 188.5051 0.0000 -4.2629 0.0000
# 4 0.0000 0.0000 0.0000 33.3302 0.0000 9.5213
# 5 1.3855 -3.5419 -4.2629 0.0000 48.2063 0.0000
# 6 0.0000 0.0000 0.0000 9.5213 0.0000 13.8174
#
#
#
# Elastic Compliance Matrix: (Units=1/GPa)
#
#
# Indices 1 2 3 4 5 6 
#
# 1 0.009249 -0.002062 -0.001504 0.000000 -0.000550 0.000000
# 2 -0.002062 0.035280 -0.007184 0.000000 0.002016 0.000000
# 3 -0.001504 -0.007184 0.007184 0.000000 0.000151 0.000000
# 4 0.000000 0.000000 0.000000 0.037356 0.000000 -0.025742
# 5 -0.000550 0.002016 0.000151 0.000000 0.020921 0.000000
# 6 0.000000 0.000000 0.000000 -0.025742 0.000000 0.090111
#
#
# Mechanical properties :
#
#
# Convention : Reuss Voigt Hill
#
# Bulk Modulus (GPa) = 33.09825 59.42798 46.26312
# Shear Modulus (GPa) = 21.58226 35.66249 28.62238
#
# Velocity S-wave (km/s) = 3.30638 4.25020 3.80765
# Velocity P-wave (km/s) = 5.59835 7.36124 6.53947
#
# Compressibility (1/GPa) = 0.03021307
#
# Stress axis : x y z
#
# Youngs Moduli (GPa) = 108.12125 28.34467 139.20048
#
# Poissons Ratio (x) = 0.05844 0.20935
# Poissons Ratio (y) = 0.22292 1.00004
# Poissons Ratio (z) = 0.16260 0.20363
#
# Static dielectric constant tensor:
#      x y z
#    x 1.741280 0.000000 -0.071740 
#    y 0.000000 1.686790 0.000000 
#    z -0.071740 0.000000 1.788470 
# 
# From -- ./inp_files/188918.got.cif
#   From: 2010.05.17/outbox.cif.g08.bks.cpg/sg15_95_cif.got.tgz:188918.got - 2010.06.03 18:47:42.
