data_PCOD9260325
_publ_section_title
;
Structure prediction by ZEFSAII (Michael W. Deem and Ramdas Pophale) SiO2 
 PCOD9260325
Probable space group: C 2/C
;
_chemical_formula_sum "Si O2"
_cell_formula_units_Z 48
_cell_length_a 18.868101
_cell_length_b 9.607512
_cell_length_c 16.494937
_cell_angle_alpha 90.000000
_cell_angle_beta 60.132128
_cell_angle_gamma 90.000000
_cell_volume 2592.967696
_symmetry_space_group_name_H-M "C 2/C"
_symmetry_group_IT_number 15
_symmetry_cell_setting 'monoclinic'
loop_
_space_group_symop_operation_xyz
x,y,z
-x,y,1/2-z
-x,-y,-z
x,-y,1/2+z
1/2+x,1/2+y,z
1/2-x,1/2+y,1/2-z
1/2-x,1/2-y,-z
1/2+x,1/2-y,1/2+z
loop_
_atom_site_type_symbol
_atom_site_label
_atom_site_fract_x
_atom_site_fract_y
_atom_site_fract_z
Si Si1 0.750457 0.317142 0.681002
Si Si2 0.090529 0.200378 0.175102
Si Si3 0.585291 0.965949 0.663861
Si Si4 0.315873 0.026148 0.534986
Si Si5 0.809524 0.084060 0.524003
Si Si6 0.249637 0.184052 0.372436
O O1 0.660062 0.350493 0.697909
O O2 0.810884 0.442853 0.621355
O O3 0.782567 0.185305 0.611580
O O4 0.746179 0.294978 0.778453
O O5 0.091537 0.368866 0.178727
O O6 0.000000 0.153299 0.250000
O O7 0.116960 0.145917 0.071054
O O8 0.500000 0.917074 0.750000
O O9 0.598307 0.953253 0.559195
O O10 0.661606 0.879782 0.656446
O O11 0.269947 0.171304 0.572967
O O12 0.263163 0.932575 0.501391
O O13 0.815280 0.931047 0.559241
#
# Coordination Sequence:
#
# PCOD9260325 Si02
#       6
#     8   8   8   8   8   8
#     4  11  19  36  56  82 110 142 185 221 265 324
#     4  10  19  35  60  81 103 145 191 221 261 326
#     4  10  19  36  57  82 107 142 187 223 267 323
#     4  10  19  35  56  82 105 150 184 214 267 331
#     4  10  18  37  56  78 106 148 188 212 261 336
#     4  11  22  33  56  86 113 139 179 231 272 313
#
# _framework density 18.511607000000001
#
# number of rings (size 3 to 8) (size 9 to 14) (size 15 to 20)
#    0.000    1.667    5.000    4.000    0.000    0.000 
#    0.000   10.833    0.000    0.000    0.000    0.000 
#    0.000    0.000    0.000    0.000    0.000    0.000 
#
# Total GULP energy -133736.198444 kJ/mol
# GULP energy per Si atom -5572.341602 kJ/mol
# Density = 1.846947 g / cm^3
# Si number density = 18.511607 Si / 1000 Ang^3
#
#
#
# Elastic Constant Matrix: (Units=GPa)
#
#
# Indices 1 2 3 4 5 6 
#
# 1 33.3029 5.0965 41.2545 0.0000 -13.1220 0.0000
# 2 5.0965 75.6298 16.3118 0.0000 -8.2593 0.0000
# 3 41.2545 16.3118 120.6516 0.0000 -19.9584 0.0000
# 4 0.0000 0.0000 0.0000 29.4209 0.0000 1.0734
# 5 -13.1220 -8.2593 -19.9584 0.0000 35.2126 0.0000
# 6 0.0000 0.0000 0.0000 1.0734 0.0000 12.9989
#
#
#
# Elastic Compliance Matrix: (Units=1/GPa)
#
#
# Indices 1 2 3 4 5 6 
#
# 1 0.055805 0.001216 -0.017389 0.000000 0.011225 0.000000
# 2 0.001216 0.013828 -0.001847 0.000000 0.002650 0.000000
# 3 -0.017389 -0.001847 0.014720 0.000000 0.001430 0.000000
# 4 0.000000 0.000000 0.000000 0.034092 0.000000 -0.002815
# 5 0.011225 0.002650 0.001430 0.000000 0.034014 0.000000
# 6 0.000000 0.000000 0.000000 -0.002815 0.000000 0.077162
#
#
# Mechanical properties :
#
#
# Convention : Reuss Voigt Hill
#
# Bulk Modulus (GPa) = 20.69822 39.43444 30.06633
# Shear Modulus (GPa) = 17.74516 26.65457 22.19987
#
# Velocity S-wave (km/s) = 3.09948 3.79870 3.46676
# Velocity P-wave (km/s) = 4.90046 6.37094 5.68346
#
# Compressibility (1/GPa) = 0.04831332
#
# Stress axis : x y z
#
# Youngs Moduli (GPa) = 17.91948 72.31658 67.93256
#
# Poissons Ratio (x) = -0.08792 1.18128
# Poissons Ratio (y) = -0.02179 0.12547
# Poissons Ratio (z) = 0.31160 0.13356
#
# Static dielectric constant tensor:
#      x y z
#    x 1.637110 0.000000 -0.005790 
#    y 0.000000 1.673810 0.000000 
#    z -0.005790 0.000000 1.686760 
# 
# From -- ./inp_files/214079.got.cif
#   From: 2010.05.17/outbox.cif.g08.bks.cpg/sg15_108_cif.got.tgz:214079.got - 2010.06.03 18:47:42.
