data_PCOD9260284
_publ_section_title
;
Structure prediction by ZEFSAII (Michael W. Deem and Ramdas Pophale) SiO2 
 PCOD9260284
Probable space group: C 2/C
;
_chemical_formula_sum "Si O2"
_cell_formula_units_Z 56
_cell_length_a 12.802729
_cell_length_b 13.742243
_cell_length_c 16.927304
_cell_angle_alpha 90.000000
_cell_angle_beta 52.904793
_cell_angle_gamma 90.000000
_cell_volume 2375.482519
_symmetry_space_group_name_H-M "C 2/C"
_symmetry_group_IT_number 15
_symmetry_cell_setting 'monoclinic'
loop_
_space_group_symop_operation_xyz
x,y,z
-x,y,1/2-z
-x,-y,-z
x,-y,1/2+z
1/2+x,1/2+y,z
1/2-x,1/2+y,1/2-z
1/2-x,1/2-y,-z
1/2+x,1/2-y,1/2+z
loop_
_atom_site_type_symbol
_atom_site_label
_atom_site_fract_x
_atom_site_fract_y
_atom_site_fract_z
Si Si1 0.220900 0.619330 0.930762
Si Si2 0.221639 0.833576 0.915589
Si Si3 0.500000 0.878713 0.750000
Si Si4 0.270239 0.659362 0.551442
Si Si5 0.540151 0.025405 0.590526
Si Si6 0.050930 0.099719 0.370030
Si Si7 0.610567 0.806736 0.267964
Si Si8 0.000000 0.954373 0.250000
O O1 0.160304 0.725876 0.940116
O O2 0.356838 0.596413 0.823838
O O3 0.270519 0.632199 0.998600
O O4 0.109660 0.534679 0.986740
O O5 0.368780 0.818690 0.818037
O O6 0.155837 0.915224 0.891193
O O7 0.493089 0.945161 0.675136
O O8 0.250000 0.750000 0.500000
O O9 0.166859 0.580043 0.568768
O O10 0.415984 0.624466 0.473657
O O11 0.240724 0.680857 0.656705
O O12 0.427627 0.109505 0.651435
O O13 0.101729 0.198657 0.305361
O O14 0.021903 0.020668 0.317492
O O15 0.500000 0.813073 0.250000
#
# Coordination Sequence:
#
# PCOD9260284 Si02
#       8
#     8   8   4   8   8   8   8   4
#     4  10  23  46  67  90 138 182 228 288 336 410
#     4  10  25  47  69  94 131 192 232 274 358 414
#     4  10  19  43  68  82 128 172 230 273 325 410
#     4  11  18  35  61  94 139 174 207 274 353 403
#     4  10  18  36  68  89 118 183 215 266 341 404
#     4  12  23  41  67 108 139 173 229 289 344 416
#     4  10  19  35  61  96 136 176 204 267 360 403
#     4  12  23  41  72 104 144 170 230 299 345 392
#
# _framework density 23.574158000000001
#
# number of rings (size 3 to 8) (size 9 to 14) (size 15 to 20)
#    0.000    1.429    7.143    0.429    0.000    0.571 
#   12.857    0.714    0.000    0.000    0.000    0.000 
#    0.000    0.000    0.000    0.000    0.000    0.000 
#
# Total GULP energy -156344.308221 kJ/mol
# GULP energy per Si atom -5583.725294 kJ/mol
# Density = 2.352050 g / cm^3
# Si number density = 23.574158 Si / 1000 Ang^3
#
#
#
# Elastic Constant Matrix: (Units=GPa)
#
#
# Indices 1 2 3 4 5 6 
#
# 1 41.7855 -4.2792 11.6100 0.0000 1.4452 0.0000
# 2 -4.2792 84.9454 19.8179 0.0000 -0.0595 0.0000
# 3 11.6100 19.8179 141.7266 0.0000 -25.4628 0.0000
# 4 0.0000 0.0000 0.0000 28.7025 0.0000 -2.7177
# 5 1.4452 -0.0595 -25.4628 0.0000 34.1450 0.0000
# 6 0.0000 0.0000 0.0000 -2.7177 0.0000 23.7950
#
#
#
# Elastic Compliance Matrix: (Units=1/GPa)
#
#
# Indices 1 2 3 4 5 6 
#
# 1 0.025048 0.001936 -0.002901 0.000000 -0.003220 0.000000
# 2 0.001936 0.012381 -0.002195 0.000000 -0.001697 0.000000
# 3 -0.002901 -0.002195 0.008801 0.000000 0.006682 0.000000
# 4 0.000000 0.000000 0.000000 0.035221 0.000000 0.004023
# 5 -0.003220 -0.001697 0.006682 0.000000 0.034403 0.000000
# 6 0.000000 0.000000 0.000000 0.004023 0.000000 0.042485
#
#
# Mechanical properties :
#
#
# Convention : Reuss Voigt Hill
#
# Bulk Modulus (GPa) = 25.05637 35.86166 30.45901
# Shear Modulus (GPa) = 28.09609 33.41577 30.75593
#
# Velocity S-wave (km/s) = 3.45602 3.76902 3.61591
# Velocity P-wave (km/s) = 5.15531 5.84688 5.51195
#
# Compressibility (1/GPa) = 0.03991002
#
# Stress axis : x y z
#
# Youngs Moduli (GPa) = 39.92413 80.77112 113.62479
#
# Poissons Ratio (x) = -0.15640 0.32965
# Poissons Ratio (y) = -0.07731 0.24938
# Poissons Ratio (z) = 0.11583 0.17727
#
# Static dielectric constant tensor:
#      x y z
#    x 1.936960 0.000000 0.004780 
#    y 0.000000 1.927380 0.000000 
#    z 0.004780 0.000000 1.815660 
# 
# From -- ./inp_files/205360.got.cif
#   From: 2010.05.17/outbox.cif.g08.bks.cpg/sg15_103_cif.got.tgz:205360.got - 2010.06.03 18:47:42.
