data_PCOD9260718
_publ_section_title
;
Structure prediction by ZEFSAII (Michael W. Deem and Ramdas Pophale) SiO2 
 PCOD9260718
Probable space group: C 2/C
;
_chemical_formula_sum "Si O2"
_cell_formula_units_Z 48
_cell_length_a 15.647232
_cell_length_b 9.282987
_cell_length_c 17.980482
_cell_angle_alpha 90.000000
_cell_angle_beta 66.351449
_cell_angle_gamma 90.000000
_cell_volume 2392.395878
_symmetry_space_group_name_H-M "C 2/C"
_symmetry_group_IT_number 15
_symmetry_cell_setting 'monoclinic'
loop_
_space_group_symop_operation_xyz
x,y,z
-x,y,1/2-z
-x,-y,-z
x,-y,1/2+z
1/2+x,1/2+y,z
1/2-x,1/2+y,1/2-z
1/2-x,1/2-y,-z
1/2+x,1/2-y,1/2+z
loop_
_atom_site_type_symbol
_atom_site_label
_atom_site_fract_x
_atom_site_fract_y
_atom_site_fract_z
Si Si1 0.799309 0.640578 0.621368
Si Si2 0.599694 0.728198 0.555219
Si Si3 0.334433 0.132458 0.310082
Si Si4 0.679137 0.557280 0.074740
Si Si5 0.961595 0.446007 0.631306
Si Si6 0.651331 0.116853 0.597991
O O1 0.831323 0.714966 0.532698
O O2 0.753195 0.770617 0.683910
O O3 0.718907 0.524564 0.632564
O O4 0.885091 0.548673 0.621441
O O5 0.630067 0.791315 0.625655
O O6 0.610047 0.556465 0.558834
O O7 0.501356 0.806913 0.573230
O O8 0.414227 0.119414 0.221305
O O9 0.312593 0.968828 0.342070
O O10 0.639875 0.712832 0.107763
O O11 0.770576 0.583486 0.991421
O O12 0.051690 0.546374 0.613791
#
# Coordination Sequence:
#
# PCOD9260718 Si02
#       6
#     8   8   8   8   8   8
#     4  11  20  38  62  86 112 154 199 245 289 353
#     4  10  18  38  62  87 109 157 204 235 280 367
#     4  10  20  39  58  82 118 162 192 232 299 361
#     4  10  19  34  61  86 111 150 196 238 282 353
#     4  11  23  35  59  88 121 150 193 252 298 338
#     4  10  19  36  57  86 116 149 193 236 293 348
#
# _framework density 20.063568
#
# number of rings (size 3 to 8) (size 9 to 14) (size 15 to 20)
#    0.000    1.667    5.000    3.500    0.000    1.333 
#    0.000   10.833    0.000    0.000    0.000    0.000 
#    0.000    0.000    0.000    0.000    0.000    0.000 
#
# Total GULP energy -133709.975571 kJ/mol
# GULP energy per Si atom -5571.248982 kJ/mol
# Density = 2.001790 g / cm^3
# Si number density = 20.063568 Si / 1000 Ang^3
#
#
#
# Elastic Constant Matrix: (Units=GPa)
#
#
# Indices 1 2 3 4 5 6 
#
# 1 72.0340 52.4506 4.7150 0.0000 -19.8961 0.0000
# 2 52.4506 195.9839 27.4904 0.0000 -21.2541 0.0000
# 3 4.7150 27.4904 77.3935 0.0000 -16.4224 0.0000
# 4 0.0000 0.0000 0.0000 22.2937 0.0000 -7.7005
# 5 -19.8961 -21.2541 -16.4224 0.0000 18.2761 0.0000
# 6 0.0000 0.0000 0.0000 -7.7005 0.0000 31.5235
#
#
#
# Elastic Compliance Matrix: (Units=1/GPa)
#
#
# Indices 1 2 3 4 5 6 
#
# 1 0.023848 -0.004356 0.005595 0.000000 0.025924 0.000000
# 2 -0.004356 0.006673 -0.001809 0.000000 0.001393 0.000000
# 3 0.005595 -0.001809 0.017383 0.000000 0.019607 0.000000
# 4 0.000000 0.000000 0.000000 0.048989 0.000000 0.011967
# 5 0.025924 0.001393 0.019607 0.000000 0.102176 0.000000
# 6 0.000000 0.000000 0.000000 0.011967 0.000000 0.034646
#
#
# Mechanical properties :
#
#
# Convention : Reuss Voigt Hill
#
# Bulk Modulus (GPa) = 21.38380 57.19148 39.28764
# Shear Modulus (GPa) = 19.96458 31.80237 25.88347
#
# Velocity S-wave (km/s) = 3.15789 3.98563 3.59566
# Velocity P-wave (km/s) = 4.89668 7.05318 6.07144
#
# Compressibility (1/GPa) = 0.04676436
#
# Stress axis : x y z
#
# Youngs Moduli (GPa) = 41.93223 149.85731 57.52649
#
# Poissons Ratio (x) = 0.65275 -0.32187
# Poissons Ratio (y) = 0.18265 0.10409
# Poissons Ratio (z) = -0.23462 0.27115
#
# Static dielectric constant tensor:
#      x y z
#    x 1.796910 0.000000 0.016980 
#    y 0.000000 1.761150 0.000000 
#    z 0.016980 0.000000 1.736650 
# 
# From -- ./inp_files/247284.got.cif
#   From: 2010.05.17/outbox.cif.g08.bks.cpg/sg15_124_cif.got.tgz:247284.got - 2010.06.03 18:47:42.
