data_PCOD9260646
_publ_section_title
;
Structure prediction by ZEFSAII (Michael W. Deem and Ramdas Pophale) SiO2 
 PCOD9260646
Probable space group: C 2/C
;
_chemical_formula_sum "Si O2"
_cell_formula_units_Z 44
_cell_length_a 12.663352
_cell_length_b 18.443775
_cell_length_c 12.484984
_cell_angle_alpha 90.000000
_cell_angle_beta 45.603204
_cell_angle_gamma 90.000000
_cell_volume 2083.511455
_symmetry_space_group_name_H-M "C 2/C"
_symmetry_group_IT_number 15
_symmetry_cell_setting 'monoclinic'
loop_
_space_group_symop_operation_xyz
x,y,z
-x,y,1/2-z
-x,-y,-z
x,-y,1/2+z
1/2+x,1/2+y,z
1/2-x,1/2+y,1/2-z
1/2-x,1/2-y,-z
1/2+x,1/2-y,1/2+z
loop_
_atom_site_type_symbol
_atom_site_label
_atom_site_fract_x
_atom_site_fract_y
_atom_site_fract_z
Si Si1 0.331685 0.343778 0.007227
Si Si2 0.767321 0.974187 0.191435
Si Si3 0.257200 0.110962 0.168360
Si Si4 0.873414 0.747728 0.691366
Si Si5 0.412983 0.884326 0.021708
Si Si6 0.000000 0.543288 0.250000
O O1 0.358888 0.415697 0.058861
O O2 0.193789 0.302034 0.163909
O O3 0.298707 0.371820 0.911036
O O4 0.469590 0.288310 0.903251
O O5 0.712381 0.930786 0.333717
O O6 0.821148 0.049238 0.205686
O O7 0.626626 0.995506 0.216654
O O8 0.241505 0.186998 0.240799
O O9 0.429416 0.091627 0.039886
O O10 0.888264 0.697205 0.577675
O O11 0.424491 0.905164 0.890948
#
# Coordination Sequence:
#
# PCOD9260646 Si02
#       6
#     8   8   8   8   8   4
#     4  11  23  38  63  91 124 158 197 249 303 352
#     4  10  21  37  61  89 118 156 198 250 294 357
#     4  11  21  36  61  89 121 153 202 244 301 351
#     4  11  23  38  59  92 123 156 197 250 300 355
#     4  10  21  36  59  86 118 155 199 245 292 357
#     4  10  18  38  60  84 118 154 206 242 290 356
#
# _framework density 21.118193999999999
#
# number of rings (size 3 to 8) (size 9 to 14) (size 15 to 20)
#    0.000    1.455    1.818    5.455    2.545    2.182 
#    0.000    3.636    4.000    0.000    0.000    0.000 
#    0.000    0.000    0.000    0.000    0.000    0.000 
#
# Total GULP energy -122787.032450 kJ/mol
# GULP energy per Si atom -5581.228748 kJ/mol
# Density = 2.107013 g / cm^3
# Si number density = 21.118194 Si / 1000 Ang^3
#
#
#
# Elastic Constant Matrix: (Units=GPa)
#
#
# Indices 1 2 3 4 5 6 
#
# 1 22.8259 18.1697 38.6732 0.0000 2.3502 0.0001
# 2 18.1697 143.3836 53.3909 0.0000 12.1419 0.0000
# 3 38.6732 53.3909 112.1098 0.0001 6.3587 0.0000
# 4 0.0000 0.0000 0.0001 34.6129 -0.0001 4.0926
# 5 2.3502 12.1419 6.3587 -0.0001 31.3968 0.0000
# 6 0.0001 0.0000 0.0000 4.0926 0.0000 23.0306
#
#
#
# Elastic Compliance Matrix: (Units=1/GPa)
#
#
# Indices 1 2 3 4 5 6 
#
# 1 0.105444 0.000269 -0.036467 0.000000 -0.000611 -0.000001
# 2 0.000269 0.008675 -0.004080 0.000000 -0.002549 0.000000
# 3 -0.036467 -0.004080 0.023468 0.000000 -0.000445 0.000000
# 4 0.000000 0.000000 0.000000 0.029511 0.000000 -0.005244
# 5 -0.000611 -0.002549 -0.000445 0.000000 0.032972 0.000000
# 6 -0.000001 0.000000 0.000000 -0.005244 0.000000 0.044352
#
#
# Mechanical properties :
#
#
# Convention : Reuss Voigt Hill
#
# Bulk Modulus (GPa) = 17.53436 55.42074 36.47755
# Shear Modulus (GPa) = 14.53540 29.01375 21.77457
#
# Velocity S-wave (km/s) = 2.62637 3.71060 3.21453
# Velocity P-wave (km/s) = 4.18546 6.68268 5.57567
#
# Compressibility (1/GPa) = 0.05703089
#
# Stress axis : x y z
#
# Youngs Moduli (GPa) = 9.48373 115.27155 42.61206
#
# Poissons Ratio (x) = -0.03099 1.55393
# Poissons Ratio (y) = -0.00255 0.17384
# Poissons Ratio (z) = 0.34584 0.47026
#
# Static dielectric constant tensor:
#      x y z
#    x 1.765590 0.000000 -0.038840 
#    y 0.000000 1.801000 0.000000 
#    z -0.038840 0.000000 1.792210 
# 
# From -- ./inp_files/98159.got.cif
#   From: 2010.05.17/outbox.cif.g08.bks.cpg/sg15_50_cif.got.tgz:98159.got - 2010.06.03 18:47:42.
