data_PCOD9260428
_publ_section_title
;
Structure prediction by ZEFSAII (Michael W. Deem and Ramdas Pophale) SiO2 
 PCOD9260428
Probable space group: C 2/C
;
_chemical_formula_sum "Si O2"
_cell_formula_units_Z 48
_cell_length_a 16.711652
_cell_length_b 10.970712
_cell_length_c 32.080631
_cell_angle_alpha 90.000000
_cell_angle_beta 26.327169
_cell_angle_gamma 90.000000
_cell_volume 2608.477207
_symmetry_space_group_name_H-M "C 2/C"
_symmetry_group_IT_number 15
_symmetry_cell_setting 'monoclinic'
loop_
_space_group_symop_operation_xyz
x,y,z
-x,y,1/2-z
-x,-y,-z
x,-y,1/2+z
1/2+x,1/2+y,z
1/2-x,1/2+y,1/2-z
1/2-x,1/2-y,-z
1/2+x,1/2-y,1/2+z
loop_
_atom_site_type_symbol
_atom_site_label
_atom_site_fract_x
_atom_site_fract_y
_atom_site_fract_z
Si Si1 0.500000 0.871230 0.250000
Si Si2 0.426136 0.917482 0.717751
Si Si3 0.524777 0.534532 0.418230
Si Si4 0.218425 0.395119 0.511379
Si Si5 0.612473 0.322738 0.443275
Si Si6 0.359689 0.097286 0.547337
Si Si7 0.500000 0.295124 0.250000
O O1 0.321616 0.791923 0.339689
O O2 0.519234 0.964692 0.279942
O O3 0.543466 0.920048 0.621440
O O4 0.472123 0.797326 0.723855
O O5 0.211465 0.921580 0.810879
O O6 0.386235 0.468177 0.452577
O O7 0.583033 0.437684 0.426591
O O8 0.429174 0.639815 0.489799
O O9 0.250000 0.250000 0.500000
O O10 0.191395 0.431894 0.476264
O O11 0.470590 0.223115 0.495650
O O12 0.177206 0.124154 0.658478
O O13 0.500000 0.000000 0.500000
#
# Coordination Sequence:
#
# PCOD9260428 Si02
#       7
#     4   8   8   8   8   8   4
#     4   9  18  31  66  96 124 151 207 272 312 350
#     4  10  19  35  66  97 118 157 212 266 313 358
#     4  10  19  35  66  94 117 154 218 268 299 360
#     4  12  22  40  63  97 125 161 211 260 305 373
#     4  10  18  37  61  94 119 160 211 259 309 360
#     4  12  27  42  62  89 134 174 202 250 325 392
#     4  11  20  41  66  88 120 173 207 248 322 376
#
# _framework density 18.401540000000001
#
# number of rings (size 3 to 8) (size 9 to 14) (size 15 to 20)
#    0.000    1.333    6.667    0.000    0.000    2.000 
#    0.000    0.833    0.000    0.000    0.000    0.000 
#    0.000    0.000    0.000    0.000    0.000    0.000 
#
# Total GULP energy -133947.184322 kJ/mol
# GULP energy per Si atom -5581.132680 kJ/mol
# Density = 1.835966 g / cm^3
# Si number density = 18.401540 Si / 1000 Ang^3
#
#
#
# Elastic Constant Matrix: (Units=GPa)
#
#
# Indices 1 2 3 4 5 6 
#
# 1 93.0984 0.7272 35.0060 0.0000 -10.7009 -0.0002
# 2 0.7272 11.2028 14.9050 0.0003 -8.2302 -0.0002
# 3 35.0060 14.9050 151.6713 0.0011 -28.7053 0.0000
# 4 0.0000 0.0003 0.0011 21.4329 0.0002 -12.3842
# 5 -10.7009 -8.2302 -28.7053 0.0002 30.5763 -0.0001
# 6 -0.0002 -0.0002 0.0000 -12.3842 -0.0001 30.1049
#
#
#
# Elastic Compliance Matrix: (Units=1/GPa)
#
#
# Indices 1 2 3 4 5 6 
#
# 1 0.012069 0.005053 -0.002706 0.000000 0.003043 0.000000
# 2 0.005053 0.118743 -0.007845 -0.000001 0.026365 0.000000
# 3 -0.002706 -0.007845 0.009011 -0.000001 0.005401 0.000000
# 4 0.000000 -0.000001 -0.000001 0.061205 -0.000001 0.025178
# 5 0.003043 0.026365 0.005401 -0.000001 0.045937 0.000000
# 6 0.000000 0.000000 0.000000 0.025178 0.000000 0.043575
#
#
# Mechanical properties :
#
#
# Convention : Reuss Voigt Hill
#
# Bulk Modulus (GPa) = 7.76245 39.69434 23.72840
# Shear Modulus (GPa) = 14.51467 30.11177 22.31322
#
# Velocity S-wave (km/s) = 2.81156 4.04960 3.48598
# Velocity P-wave (km/s) = 3.84283 6.59422 5.39681
#
# Compressibility (1/GPa) = 0.12882525
#
# Stress axis : x y z
#
# Youngs Moduli (GPa) = 82.85547 8.42158 110.97654
#
# Poissons Ratio (x) = -0.04255 0.30032
# Poissons Ratio (y) = -0.41866 0.87066
# Poissons Ratio (z) = 0.22422 0.06607
#
# Static dielectric constant tensor:
#      x y z
#    x 1.616600 0.000000 -0.009020 
#    y 0.000000 1.652440 0.000000 
#    z -0.009020 0.000000 1.648090 
# 
# From -- ./inp_files/151893.got.cif
#   From: 2010.05.17/outbox.cif.g08.bks.cpg/sg15_76_cif.got.tgz:151893.got - 2010.06.03 18:47:42.
