data_PCOD9260927
_publ_section_title
;
Structure prediction by ZEFSAII (Michael W. Deem and Ramdas Pophale) SiO2 
 PCOD9260927
Probable space group: C 2/C
;
_chemical_formula_sum "Si O2"
_cell_formula_units_Z 48
_cell_length_a 12.573817
_cell_length_b 16.142459
_cell_length_c 25.038872
_cell_angle_alpha 90.000000
_cell_angle_beta 152.205450
_cell_angle_gamma 90.000000
_cell_volume 2369.841650
_symmetry_space_group_name_H-M "C 2/C"
_symmetry_group_IT_number 15
_symmetry_cell_setting 'monoclinic'
loop_
_space_group_symop_operation_xyz
x,y,z
-x,y,1/2-z
-x,-y,-z
x,-y,1/2+z
1/2+x,1/2+y,z
1/2-x,1/2+y,1/2-z
1/2-x,1/2-y,-z
1/2+x,1/2-y,1/2+z
loop_
_atom_site_type_symbol
_atom_site_label
_atom_site_fract_x
_atom_site_fract_y
_atom_site_fract_z
Si Si1 0.500000 0.779389 0.750000
Si Si2 0.250298 0.039350 0.313212
Si Si3 0.324608 0.852082 0.350226
Si Si4 0.183137 0.867515 0.893857
Si Si5 0.500000 0.218787 0.750000
Si Si6 0.585975 0.140622 0.401609
Si Si7 0.090327 0.187037 0.634124
O O1 0.282779 0.717421 0.658653
O O2 0.480040 0.833756 0.687891
O O3 0.267628 0.093571 0.374940
O O4 0.460955 0.060190 0.368665
O O5 0.021302 0.070615 0.181565
O O6 0.245005 0.944753 0.328441
O O7 0.597692 0.854049 0.472830
O O8 0.219756 0.833461 0.246112
O O9 0.068293 0.779942 0.828862
O O10 0.271147 0.174000 0.667163
O O11 0.494765 0.217458 0.397745
O O12 0.857637 0.136208 0.526060
#
# Coordination Sequence:
#
# PCOD9260927 Si02
#       7
#     4   8   8   8   4   8   8
#     4  10  22  37  59  92 114 152 202 240 288 347
#     4  10  21  37  58  83 123 153 186 238 307 335
#     4  11  23  34  58  91 114 150 198 241 284 354
#     4  10  20  35  57  85 113 152 182 244 288 350
#     4  10  18  39  55  82 112 154 186 244 290 329
#     4  10  20  39  59  84 118 158 191 239 291 355
#     4  10  21  36  59  82 116 152 196 236 290 343
#
# _framework density 20.254518000000001
#
# number of rings (size 3 to 8) (size 9 to 14) (size 15 to 20)
#    0.000    2.000    3.333    2.500    7.000    0.667 
#    3.000    0.833    0.000    2.000    0.000    0.000 
#    0.000    0.000    0.000    0.000    0.000    0.000 
#
# Total GULP energy -133962.170545 kJ/mol
# GULP energy per Si atom -5581.757106 kJ/mol
# Density = 2.020842 g / cm^3
# Si number density = 20.254518 Si / 1000 Ang^3
#
#
#
# Elastic Constant Matrix: (Units=GPa)
#
#
# Indices 1 2 3 4 5 6 
#
# 1 81.8446 12.1600 18.4145 0.0000 24.8797 -0.0002
# 2 12.1600 30.1623 10.9103 0.0001 1.4290 -0.0001
# 3 18.4145 10.9103 133.9463 -0.0007 28.9178 -0.0005
# 4 0.0000 0.0001 -0.0007 21.1546 0.0001 4.1097
# 5 24.8797 1.4290 28.9178 0.0001 31.3165 0.0000
# 6 -0.0002 -0.0001 -0.0005 4.1097 0.0000 7.8936
#
#
#
# Elastic Compliance Matrix: (Units=1/GPa)
#
#
# Indices 1 2 3 4 5 6 
#
# 1 0.017417 -0.006810 0.001350 0.000000 -0.014773 0.000000
# 2 -0.006810 0.036863 -0.003586 0.000000 0.007040 0.000000
# 3 0.001350 -0.003586 0.009703 0.000000 -0.009868 0.000000
# 4 0.000000 0.000000 0.000000 0.052590 0.000000 -0.027381
# 5 -0.014773 0.007040 -0.009868 0.000000 0.052459 -0.000001
# 6 0.000000 0.000000 0.000000 -0.027381 -0.000001 0.140940
#
#
# Mechanical properties :
#
#
# Convention : Reuss Voigt Hill
#
# Bulk Modulus (GPa) = 21.79148 36.54699 29.16924
# Shear Modulus (GPa) = 14.56189 25.70417 20.13303
#
# Velocity S-wave (km/s) = 2.68422 3.56625 3.15620
# Velocity P-wave (km/s) = 4.51541 5.91951 5.26448
#
# Compressibility (1/GPa) = 0.04588949
#
# Stress axis : x y z
#
# Youngs Moduli (GPa) = 57.41485 27.12743 103.06452
#
# Poissons Ratio (x) = 0.18474 -0.13909
# Poissons Ratio (y) = 0.39100 0.36961
# Poissons Ratio (z) = -0.07748 0.09728
#
# Static dielectric constant tensor:
#      x y z
#    x 1.746640 0.000000 0.033560 
#    y 0.000000 1.726130 0.000000 
#    z 0.033560 0.000000 1.744550 
# 
# From -- ./inp_files/87426.got.cif
#   From: 2010.05.17/outbox.cif.g08.bks.cpg/sg15_44_cif.got.tgz:87426.got - 2010.06.03 18:47:42.
