data_PCOD9260054
_publ_section_title
;
Structure prediction by ZEFSAII (Michael W. Deem and Ramdas Pophale) SiO2 
 PCOD9260054
Probable space group: C 2/C
;
_chemical_formula_sum "Si O2"
_cell_formula_units_Z 40
_cell_length_a 11.710790
_cell_length_b 21.431397
_cell_length_c 13.201223
_cell_angle_alpha 90.000000
_cell_angle_beta 148.257794
_cell_angle_gamma 90.000000
_cell_volume 1743.081504
_symmetry_space_group_name_H-M "C 2/C"
_symmetry_group_IT_number 15
_symmetry_cell_setting 'monoclinic'
loop_
_space_group_symop_operation_xyz
x,y,z
-x,y,1/2-z
-x,-y,-z
x,-y,1/2+z
1/2+x,1/2+y,z
1/2-x,1/2+y,1/2-z
1/2-x,1/2-y,-z
1/2+x,1/2-y,1/2+z
loop_
_atom_site_type_symbol
_atom_site_label
_atom_site_fract_x
_atom_site_fract_y
_atom_site_fract_z
Si Si1 0.326842 0.089986 0.040096
Si Si2 0.301869 0.700696 0.899844
Si Si3 0.812669 0.333261 0.968757
Si Si4 0.004129 0.544919 0.873509
Si Si5 0.894347 0.104127 0.822048
O O1 0.500000 0.116932 0.250000
O O2 0.425570 0.026582 0.067703
O O3 0.243126 0.127939 0.879671
O O4 0.111461 0.073924 0.942142
O O5 0.331392 0.682112 0.040266
O O6 0.452591 0.661367 0.939676
O O7 0.062654 0.676615 0.691461
O O8 0.289503 0.774901 0.876688
O O9 0.820487 0.406051 0.946942
O O10 0.000000 0.557982 0.750000
O O11 0.766431 0.558092 0.739290
#
# Coordination Sequence:
#
# PCOD9260054 Si02
#       5
#     8   8   8   8   8
#     4  10  23  38  62  88 125 174 215 249 301 381
#     4   9  17  33  59  83 122 156 191 256 314 373
#     4   9  16  33  56  88 121 152 195 252 319 369
#     4  10  18  36  61  90 128 162 202 264 315 373
#     4  10  20  41  60  90 130 166 205 263 314 362
#
# _framework density 22.947866000000001
#
# number of rings (size 3 to 8) (size 9 to 14) (size 15 to 20)
#    0.000    2.400    4.000    0.600    0.000    3.200 
#    7.200    8.000    0.000   19.200    0.000    0.000 
#    0.000    0.000    0.000    0.000    0.000    0.000 
#
# Total GULP energy -111511.008306 kJ/mol
# GULP energy per Si atom -5575.550415 kJ/mol
# Density = 2.289564 g / cm^3
# Si number density = 22.947866 Si / 1000 Ang^3
#
#
#
# Elastic Constant Matrix: (Units=GPa)
#
#
# Indices 1 2 3 4 5 6 
#
# 1 119.1633 -0.3199 21.5819 0.0000 2.1208 0.0000
# 2 -0.3199 53.2948 0.4974 0.0000 -10.9853 0.0000
# 3 21.5819 0.4974 62.4731 0.0000 -8.2221 0.0000
# 4 0.0000 0.0000 0.0000 29.0195 -0.0001 -4.3348
# 5 2.1208 -10.9853 -8.2221 -0.0001 24.9195 -0.0001
# 6 0.0000 0.0000 0.0000 -4.3348 -0.0001 13.2192
#
#
#
# Elastic Compliance Matrix: (Units=1/GPa)
#
#
# Indices 1 2 3 4 5 6 
#
# 1 0.009041 -0.000333 -0.003388 0.000000 -0.002034 0.000000
# 2 -0.000333 0.020721 0.001209 0.000000 0.009562 0.000000
# 3 -0.003388 0.001209 0.018060 0.000000 0.006780 0.000000
# 4 0.000000 0.000000 0.000000 0.036234 0.000000 0.011882
# 5 -0.002034 0.009562 0.006780 0.000000 0.046755 0.000000
# 6 0.000000 0.000000 0.000000 0.011882 0.000000 0.079544
#
#
# Mechanical properties :
#
#
# Convention : Reuss Voigt Hill
#
# Bulk Modulus (GPa) = 23.36676 30.93889 27.15283
# Shear Modulus (GPa) = 21.77260 27.64310 24.70785
#
# Velocity S-wave (km/s) = 3.08358 3.47451 3.28486
# Velocity P-wave (km/s) = 4.78357 5.44130 5.12300
#
# Compressibility (1/GPa) = 0.04279583
#
# Stress axis : x y z
#
# Youngs Moduli (GPa) = 110.60940 48.25981 55.37070
#
# Poissons Ratio (x) = 0.01609 0.18761
# Poissons Ratio (y) = 0.03688 -0.06692
# Poissons Ratio (z) = 0.37478 -0.05833
#
# Static dielectric constant tensor:
#      x y z
#    x 1.889140 0.000000 -0.017570 
#    y 0.000000 1.968780 0.000000 
#    z -0.017570 0.000000 1.971030 
# 
# From -- ./inp_files/91031.got.cif
#   From: 2010.05.17/outbox.cif.g08.bks.cpg/sg15_46_cif.got.tgz:91031.got - 2010.06.03 18:47:42.
