data_PCOD9260401
_publ_section_title
;
Structure prediction by ZEFSAII (Michael W. Deem and Ramdas Pophale) SiO2 
 PCOD9260401
Probable space group: C 2/C
;
_chemical_formula_sum "Si O2"
_cell_formula_units_Z 56
_cell_length_a 8.966886
_cell_length_b 21.042087
_cell_length_c 22.417902
_cell_angle_alpha 90.000000
_cell_angle_beta 138.948013
_cell_angle_gamma 90.000000
_cell_volume 2777.929606
_symmetry_space_group_name_H-M "C 2/C"
_symmetry_group_IT_number 15
_symmetry_cell_setting 'monoclinic'
loop_
_space_group_symop_operation_xyz
x,y,z
-x,y,1/2-z
-x,-y,-z
x,-y,1/2+z
1/2+x,1/2+y,z
1/2-x,1/2+y,1/2-z
1/2-x,1/2-y,-z
1/2+x,1/2-y,1/2+z
loop_
_atom_site_type_symbol
_atom_site_label
_atom_site_fract_x
_atom_site_fract_y
_atom_site_fract_z
Si Si1 0.241184 0.334784 0.789997
Si Si2 0.207670 0.435490 0.938824
Si Si3 0.204842 0.958480 0.767628
Si Si4 0.104902 0.801375 0.540368
Si Si5 0.258158 0.160214 0.654736
Si Si6 0.656187 0.521740 0.628658
Si Si7 0.999661 0.209179 0.818171
O O1 0.324808 0.389362 0.772214
O O2 0.412961 0.320092 0.895523
O O3 0.169883 0.270121 0.735294
O O4 0.000000 0.352962 0.750000
O O5 0.257734 0.360126 0.948984
O O6 0.268570 0.465112 0.892281
O O7 0.948853 0.453111 0.873014
O O8 0.388275 0.466748 0.037930
O O9 0.000000 0.973188 0.750000
O O10 0.214847 0.005717 0.714112
O O11 0.260266 0.738615 0.588379
O O12 0.868631 0.799368 0.434147
O O13 0.500000 0.183471 0.750000
O O14 0.272118 0.086585 0.640142
O O15 0.094283 0.160706 0.662725
O O16 0.000000 0.185920 0.750000
#
# Coordination Sequence:
#
# PCOD9260401 Si02
#       7
#     8   8   8   8   8   8   8
#     4   9  16  35  60  80 100 143 198 231 263 327
#     4  10  18  37  61  81 108 146 203 233 271 338
#     4  12  21  32  56  87 119 140 176 243 303 327
#     4   9  17  35  64  79 103 148 198 238 265 328
#     4  11  22  35  55  85 115 145 191 231 283 342
#     4  10  22  36  58  81 109 158 195 231 271 346
#     4   9  19  36  59  80 108 153 183 230 286 336
#
# _framework density 20.158898000000001
#
# number of rings (size 3 to 8) (size 9 to 14) (size 15 to 20)
#    0.000    2.286    4.286    1.714    0.000    1.714 
#    0.000    2.857    6.286    0.000    0.000    0.000 
#    0.000    0.000    0.000    0.000    0.000    0.000 
#
# Total GULP energy -156190.829796 kJ/mol
# GULP energy per Si atom -5578.243921 kJ/mol
# Density = 2.011302 g / cm^3
# Si number density = 20.158898 Si / 1000 Ang^3
#
#
#
# Elastic Constant Matrix: (Units=GPa)
#
#
# Indices 1 2 3 4 5 6 
#
# 1 33.4489 0.3688 20.5594 -0.0007 6.2940 -0.0004
# 2 0.3688 18.1605 2.6689 -0.0006 -3.9608 -0.0003
# 3 20.5594 2.6689 162.2765 -0.0018 15.7530 -0.0012
# 4 -0.0007 -0.0006 -0.0018 3.7870 -0.0013 -7.3940
# 5 6.2940 -3.9608 15.7530 -0.0013 24.3871 -0.0010
# 6 -0.0004 -0.0003 -0.0012 -7.3940 -0.0010 18.5080
#
#
#
# Elastic Compliance Matrix: (Units=1/GPa)
#
#
# Indices 1 2 3 4 5 6 
#
# 1 0.033337 -0.001585 -0.003561 0.000010 -0.006561 0.000004
# 2 -0.001585 0.057754 -0.001813 0.000062 0.010960 0.000026
# 3 -0.003561 -0.001813 0.007023 0.000006 -0.003912 0.000003
# 4 0.000010 0.000062 0.000006 1.200304 0.000085 0.479525
# 5 -0.006561 0.010960 -0.003912 0.000085 0.047006 0.000036
# 6 0.000004 0.000026 0.000003 0.479525 0.000036 0.245602
#
#
# Mechanical properties :
#
#
# Convention : Reuss Voigt Hill
#
# Bulk Modulus (GPa) = 11.87693 29.00889 20.44291
# Shear Modulus (GPa) = 3.06184 22.02234 12.54209
#
# Velocity S-wave (km/s) = 1.23375 3.30879 2.49702
# Velocity P-wave (km/s) = 2.81673 5.38691 4.29842
#
# Compressibility (1/GPa) = 0.08419687
#
# Stress axis : x y z
#
# Youngs Moduli (GPa) = 29.99672 17.31496 142.38922
#
# Poissons Ratio (x) = 0.02744 0.50699
# Poissons Ratio (y) = 0.04754 0.25816
# Poissons Ratio (z) = 0.10681 0.03139
#
# Static dielectric constant tensor:
#      x y z
#    x 1.695010 0.000000 0.002020 
#    y 0.000000 1.716330 0.000000 
#    z 0.002020 0.000000 1.766390 
# 
# From -- ./inp_files/266448.got.cif
#   From: 2010.05.17/outbox.cif.g08.bks.cpg/sg15_134_cif.got.tgz:266448.got - 2010.06.03 18:47:42.
