data_PCOD9260683
_publ_section_title
;
Structure prediction by ZEFSAII (Michael W. Deem and Ramdas Pophale) SiO2 
 PCOD9260683
Probable space group: C 2/C
;
_chemical_formula_sum "Si O2"
_cell_formula_units_Z 40
_cell_length_a 15.580744
_cell_length_b 22.811895
_cell_length_c 9.539056
_cell_angle_alpha 90.000000
_cell_angle_beta 152.963419
_cell_angle_gamma 90.000000
_cell_volume 1541.152024
_symmetry_space_group_name_H-M "C 2/C"
_symmetry_group_IT_number 15
_symmetry_cell_setting 'monoclinic'
loop_
_space_group_symop_operation_xyz
x,y,z
-x,y,1/2-z
-x,-y,-z
x,-y,1/2+z
1/2+x,1/2+y,z
1/2-x,1/2+y,1/2-z
1/2-x,1/2-y,-z
1/2+x,1/2-y,1/2+z
loop_
_atom_site_type_symbol
_atom_site_label
_atom_site_fract_x
_atom_site_fract_y
_atom_site_fract_z
Si Si1 0.752929 0.455600 0.862796
Si Si2 0.476305 0.309854 0.363000
Si Si3 0.414704 0.110655 0.826876
Si Si4 0.500000 0.937545 0.750000
Si Si5 0.884792 0.727531 0.458286
Si Si6 0.500000 0.424053 0.250000
O O1 0.595306 0.460707 0.512771
O O2 0.737628 0.413443 0.977450
O O3 0.915680 0.425847 0.001504
O O4 0.827740 0.517166 0.030001
O O5 0.355988 0.276327 0.299797
O O6 0.397325 0.372917 0.197615
O O7 0.695808 0.306663 0.729267
O O8 0.500000 0.277018 0.250000
O O9 0.470527 0.177918 0.886654
O O10 0.429553 0.096228 0.011173
O O11 0.000000 0.757143 0.750000
#
# Coordination Sequence:
#
# PCOD9260683 Si02
#       6
#     8   8   8   4   8   4
#     4  10  18  38  61  83 119 158 205 247 313 359
#     4  10  23  37  60  92 123 162 207 241 313 368
#     4  10  19  38  61  86 119 154 208 253 305 357
#     4  10  22  35  62  94 108 155 214 262 280 378
#     4  12  21  40  63  92 121 166 203 258 305 368
#     4  10  20  37  62  82 128 161 192 250 316 358
#
# _framework density 25.954611
#
# number of rings (size 3 to 8) (size 9 to 14) (size 15 to 20)
#    0.600    1.200    4.000    3.600    1.400    0.000 
#    0.000    4.000    0.000    0.000    2.600    0.000 
#    0.000    0.000    0.000    0.000    0.000    0.000 
#
# Total GULP energy -111489.914857 kJ/mol
# GULP energy per Si atom -5574.495743 kJ/mol
# Density = 2.589554 g / cm^3
# Si number density = 25.954611 Si / 1000 Ang^3
#
#
#
# Elastic Constant Matrix: (Units=GPa)
#
#
# Indices 1 2 3 4 5 6 
#
# 1 64.1981 26.3412 21.0189 0.0000 -37.0113 0.0000
# 2 26.3412 77.9454 19.1717 0.0000 -11.6786 0.0000
# 3 21.0189 19.1717 139.7572 0.0000 -37.8184 0.0000
# 4 0.0000 0.0000 0.0000 25.9932 0.0000 -10.7027
# 5 -37.0113 -11.6786 -37.8184 0.0000 44.6587 0.0000
# 6 0.0000 0.0000 0.0000 -10.7027 0.0000 34.5526
#
#
#
# Elastic Compliance Matrix: (Units=1/GPa)
#
#
# Indices 1 2 3 4 5 6 
#
# 1 0.035239 -0.008348 0.004096 0.000000 0.030490 0.000000
# 2 -0.008348 0.015474 -0.002133 0.000000 -0.004678 0.000000
# 3 0.004096 -0.002133 0.009859 0.000000 0.011185 0.000000
# 4 0.000000 0.000000 0.000000 0.044096 0.000000 0.013659
# 5 0.030490 -0.004678 0.011185 0.000000 0.055910 0.000000
# 6 0.000000 0.000000 0.000000 0.013659 0.000000 0.033172
#
#
# Mechanical properties :
#
#
# Convention : Reuss Voigt Hill
#
# Bulk Modulus (GPa) = 20.91963 46.10717 33.51340
# Shear Modulus (GPa) = 22.47654 35.39883 28.93769
#
# Velocity S-wave (km/s) = 2.94597 3.69707 3.34269
# Velocity P-wave (km/s) = 4.43275 6.00230 5.27621
#
# Compressibility (1/GPa) = 0.04780200
#
# Stress axis : x y z
#
# Youngs Moduli (GPa) = 28.37747 64.62289 101.43386
#
# Poissons Ratio (x) = 0.53947 -0.41548
# Poissons Ratio (y) = 0.23689 0.21638
# Poissons Ratio (z) = -0.11624 0.13785
#
# Static dielectric constant tensor:
#      x y z
#    x 2.069270 0.000000 0.063310 
#    y 0.000000 2.039630 0.000000 
#    z 0.063310 0.000000 2.287750 
# 
# From -- ./inp_files/44975.got.cif
#   From: 2010.05.17/outbox.cif.g08.bks.cpg/sg15_23_cif.got.tgz:44975.got - 2010.06.03 18:47:42.
