data_PCOD9260197
_publ_section_title
;
Structure prediction by ZEFSAII (Michael W. Deem and Ramdas Pophale) SiO2 
 PCOD9260197
Probable space group: C 2/C
;
_chemical_formula_sum "Si O2"
_cell_formula_units_Z 60
_cell_length_a 20.475595
_cell_length_b 13.919206
_cell_length_c 12.741476
_cell_angle_alpha 90.000000
_cell_angle_beta 56.058528
_cell_angle_gamma 90.000000
_cell_volume 3012.616517
_symmetry_space_group_name_H-M "C 2/C"
_symmetry_group_IT_number 15
_symmetry_cell_setting 'monoclinic'
loop_
_space_group_symop_operation_xyz
x,y,z
-x,y,1/2-z
-x,-y,-z
x,-y,1/2+z
1/2+x,1/2+y,z
1/2-x,1/2+y,1/2-z
1/2-x,1/2-y,-z
1/2+x,1/2-y,1/2+z
loop_
_atom_site_type_symbol
_atom_site_label
_atom_site_fract_x
_atom_site_fract_y
_atom_site_fract_z
Si Si1 0.599302 0.189246 0.785434
Si Si2 0.340711 0.162444 0.299245
Si Si3 0.665036 0.346435 0.876001
Si Si4 0.446017 0.525001 0.146704
Si Si5 0.595905 0.986159 0.151987
Si Si6 0.549590 0.094666 0.485891
Si Si7 0.000000 0.818332 0.750000
Si Si8 0.586380 0.343002 0.173318
O O1 0.650003 0.247906 0.823680
O O2 0.625777 0.086530 0.716166
O O3 0.575975 0.252378 0.703959
O O4 0.514634 0.170050 0.915165
O O5 0.254390 0.146343 0.331737
O O6 0.403265 0.136575 0.153060
O O7 0.353193 0.270531 0.326605
O O8 0.362247 0.087696 0.372453
O O9 0.634168 0.428993 0.825707
O O10 0.613661 0.355453 0.028850
O O11 0.496177 0.609167 0.156935
O O12 0.426448 0.439469 0.245849
O O13 0.500000 0.500000 0.000000
O O14 0.500000 0.994634 0.250000
O O15 0.605974 0.938037 0.029926
O O16 0.500000 0.000000 0.500000
O O17 0.500000 0.294739 0.250000
#
# Coordination Sequence:
#
# PCOD9260197 Si02
#       8
#     8   8   8   8   8   8   4   8
#     4  10  20  39  66  89 124 162 212 261 306 368
#     4  12  26  39  61  99 135 162 202 259 327 378
#     4  11  26  42  62  95 131 167 202 266 323 367
#     4  11  22  42  67  91 119 165 223 260 300 369
#     4  10  20  39  64  96 124 164 211 258 307 376
#     4  11  21  39  66  96 121 164 216 254 310 381
#     4  10  18  36  64  90 118 148 212 272 294 348
#     4  12  24  43  67  91 120 170 219 254 306 380
#
# _framework density 19.916242
#
# number of rings (size 3 to 8) (size 9 to 14) (size 15 to 20)
#    0.000    1.067    6.667    1.600    3.733    2.133 
#    0.000    0.667    0.000    0.000    0.000    0.000 
#    0.000    0.000    0.000    0.000    0.000    0.000 
#
# Total GULP energy -167386.752323 kJ/mol
# GULP energy per Si atom -5579.558411 kJ/mol
# Density = 1.987091 g / cm^3
# Si number density = 19.916242 Si / 1000 Ang^3
#
#
#
# Elastic Constant Matrix: (Units=GPa)
#
#
# Indices 1 2 3 4 5 6 
#
# 1 84.0622 29.1317 5.6572 0.0000 10.1566 0.0000
# 2 29.1317 97.0874 13.1454 0.0000 11.0862 0.0000
# 3 5.6572 13.1454 45.7364 0.0000 18.8271 0.0000
# 4 0.0000 0.0000 0.0000 16.8754 0.0000 13.6615
# 5 10.1566 11.0862 18.8271 0.0000 22.8579 0.0000
# 6 0.0000 0.0000 0.0000 13.6615 0.0000 35.9942
#
#
#
# Elastic Compliance Matrix: (Units=1/GPa)
#
#
# Indices 1 2 3 4 5 6 
#
# 1 0.013757 -0.003707 0.001725 0.000000 -0.005736 0.000000
# 2 -0.003707 0.011966 -0.001921 0.000000 -0.002574 0.000000
# 3 0.001725 -0.001921 0.033490 0.000000 -0.027419 0.000000
# 4 0.000000 0.000000 0.000000 0.085542 0.000000 -0.032467
# 5 -0.005736 -0.002574 -0.027419 0.000000 0.070129 0.000000
# 6 0.000000 0.000000 0.000000 -0.032467 0.000000 0.040105
#
#
# Mechanical properties :
#
#
# Convention : Reuss Voigt Hill
#
# Bulk Modulus (GPa) = 19.45228 35.86162 27.65695
# Shear Modulus (GPa) = 17.86150 27.07562 22.46856
#
# Velocity S-wave (km/s) = 2.99796 3.69111 3.36244
# Velocity P-wave (km/s) = 4.66604 6.01756 5.38437
#
# Compressibility (1/GPa) = 0.05140785
#
# Stress axis : x y z
#
# Youngs Moduli (GPa) = 72.68808 83.56829 29.85967
#
# Poissons Ratio (x) = 0.30975 -0.05150
# Poissons Ratio (y) = 0.26942 0.05736
# Poissons Ratio (z) = -0.12537 0.16054
#
# Static dielectric constant tensor:
#      x y z
#    x 1.700730 0.000000 0.045160 
#    y 0.000000 1.752470 0.000000 
#    z 0.045160 0.000000 1.730720 
# 
# From -- ./inp_files/112714.got.cif
#   From: 2010.05.17/outbox.cif.g08.bks.cpg/sg15_57_cif.got.tgz:112714.got - 2010.06.03 18:47:42.
