data_PCOD9260383
_publ_section_title
;
Structure prediction by ZEFSAII (Michael W. Deem and Ramdas Pophale) SiO2 
 PCOD9260383
Probable space group: C 2/C
;
_chemical_formula_sum "Si O2"
_cell_formula_units_Z 64
_cell_length_a 13.851269
_cell_length_b 13.606971
_cell_length_c 19.246443
_cell_angle_alpha 90.000000
_cell_angle_beta 84.368573
_cell_angle_gamma 90.000000
_cell_volume 3609.943477
_symmetry_space_group_name_H-M "C 2/C"
_symmetry_group_IT_number 15
_symmetry_cell_setting 'monoclinic'
loop_
_space_group_symop_operation_xyz
x,y,z
-x,y,1/2-z
-x,-y,-z
x,-y,1/2+z
1/2+x,1/2+y,z
1/2-x,1/2+y,1/2-z
1/2-x,1/2-y,-z
1/2+x,1/2-y,1/2+z
loop_
_atom_site_type_symbol
_atom_site_label
_atom_site_fract_x
_atom_site_fract_y
_atom_site_fract_z
Si Si1 0.104500 0.994418 0.268744
Si Si2 0.415713 0.280960 0.678012
Si Si3 0.275516 0.081188 0.503095
Si Si4 0.940169 0.097817 0.486898
Si Si5 0.384745 0.734794 0.023680
Si Si6 0.196311 0.942272 0.624976
Si Si7 0.856657 0.265666 0.326391
Si Si8 0.224476 0.070714 0.893789
O O1 0.085783 0.106573 0.295362
O O2 0.173131 0.998257 0.196287
O O3 0.000000 0.954485 0.250000
O O4 0.159182 0.946675 0.329996
O O5 0.364661 0.271181 0.607638
O O6 0.528722 0.249195 0.664787
O O7 0.360358 0.222986 0.742751
O O8 0.366451 0.154103 0.501658
O O9 0.185083 0.158142 0.511563
O O10 0.265333 0.002503 0.566992
O O11 0.265427 0.025454 0.430405
O O12 0.901013 0.073546 0.413467
O O13 0.848769 0.111873 0.542993
O O14 0.008320 0.191128 0.489595
O O15 0.000000 0.000000 0.500000
O O16 0.209933 0.829096 0.648514
O O17 0.811117 0.357380 0.368377
#
# Coordination Sequence:
#
# PCOD9260383 Si02
#       8
#     8   8   8   8   8   8   8   8
#     4  11  18  33  59  85 110 146 189 235 283 343
#     4  10  18  37  60  82 112 151 197 230 281 347
#     4  10  23  33  56  87 117 144 191 234 292 335
#     4  11  18  34  60  83 116 144 186 237 286 332
#     4  11  19  36  57  85 113 153 185 238 284 348
#     4  10  19  34  55  83 109 148 189 234 272 342
#     4  10  21  35  59  86 114 148 194 241 283 331
#     4  11  23  36  56  89 118 146 187 248 291 330
#
# _framework density 17.728809999999999
#
# number of rings (size 3 to 8) (size 9 to 14) (size 15 to 20)
#    0.000    1.500    7.500    0.750    1.750    2.000 
#    0.000    0.625    0.000    0.000    0.000    0.000 
#    0.000    0.000    0.000    0.000    0.000    0.000 
#
# Total GULP energy -178173.995262 kJ/mol
# GULP energy per Si atom -5567.937352 kJ/mol
# Density = 1.768846 g / cm^3
# Si number density = 17.728810 Si / 1000 Ang^3
#
#
#
# Elastic Constant Matrix: (Units=GPa)
#
#
# Indices 1 2 3 4 5 6 
#
# 1 33.7224 30.1915 16.5285 0.0000 -5.7926 0.0000
# 2 30.1915 79.8632 29.4125 0.0000 -12.6345 0.0000
# 3 16.5285 29.4125 94.0652 0.0000 3.7641 0.0000
# 4 0.0000 0.0000 0.0000 20.4570 0.0000 2.6521
# 5 -5.7926 -12.6345 3.7641 0.0000 24.7125 0.0000
# 6 0.0000 0.0000 0.0000 2.6521 0.0000 30.3182
#
#
#
# Elastic Compliance Matrix: (Units=1/GPa)
#
#
# Indices 1 2 3 4 5 6 
#
# 1 0.045776 -0.015570 -0.003306 0.000000 0.003273 0.000000
# 2 -0.015570 0.021194 -0.004204 0.000000 0.007826 0.000000
# 3 -0.003306 -0.004204 0.012721 0.000000 -0.004862 0.000000
# 4 0.000000 0.000000 0.000000 0.049444 0.000000 -0.004325
# 5 0.003273 0.007826 -0.004862 0.000000 0.045975 0.000000
# 6 0.000000 0.000000 0.000000 -0.004325 0.000000 0.033362
#
#
# Mechanical properties :
#
#
# Convention : Reuss Voigt Hill
#
# Bulk Modulus (GPa) = 29.82341 39.99065 34.90703
# Shear Modulus (GPa) = 18.81054 23.86543 21.33798
#
# Velocity S-wave (km/s) = 3.26086 3.67296 3.47302
# Velocity P-wave (km/s) = 5.57101 6.37129 5.98454
#
# Compressibility (1/GPa) = 0.03353070
#
# Stress axis : x y z
#
# Youngs Moduli (GPa) = 21.84548 47.18319 78.61003
#
# Poissons Ratio (x) = 0.73463 0.25989
# Poissons Ratio (y) = 0.34013 0.33050
# Poissons Ratio (z) = 0.07222 0.19837
#
# Static dielectric constant tensor:
#      x y z
#    x 1.614790 0.000000 0.011260 
#    y 0.000000 1.631520 0.000000 
#    z 0.011260 0.000000 1.641700 
# 
# From -- ./inp_files/205088.got.cif
#   From: 2010.05.17/outbox.cif.g08.bks.cpg/sg15_103_cif.got.tgz:205088.got - 2010.06.03 18:47:42.
