data_PCOD9260003
_publ_section_title
;
Structure prediction by ZEFSAII (Michael W. Deem and Ramdas Pophale) SiO2 
 PCOD9260003
Probable space group: C 2/C
;
_chemical_formula_sum "Si O2"
_cell_formula_units_Z 52
_cell_length_a 15.041603
_cell_length_b 15.844914
_cell_length_c 17.886322
_cell_angle_alpha 90.000000
_cell_angle_beta 143.994755
_cell_angle_gamma 90.000000
_cell_volume 2505.984920
_symmetry_space_group_name_H-M "C 2/C"
_symmetry_group_IT_number 15
_symmetry_cell_setting 'monoclinic'
loop_
_space_group_symop_operation_xyz
x,y,z
-x,y,1/2-z
-x,-y,-z
x,-y,1/2+z
1/2+x,1/2+y,z
1/2-x,1/2+y,1/2-z
1/2-x,1/2-y,-z
1/2+x,1/2-y,1/2+z
loop_
_atom_site_type_symbol
_atom_site_label
_atom_site_fract_x
_atom_site_fract_y
_atom_site_fract_z
Si Si1 0.952463 0.152386 0.875032
Si Si2 0.645093 0.870932 0.224987
Si Si3 0.792470 0.378716 0.602478
Si Si4 0.008432 0.453489 0.876947
Si Si5 0.827165 0.232330 0.133053
Si Si6 0.552732 0.825147 0.536668
Si Si7 0.000000 0.222165 0.750000
O O1 0.811140 0.101499 0.811101
O O2 0.941785 0.245205 0.904765
O O3 0.947692 0.166705 0.783479
O O4 0.118252 0.118215 0.003697
O O5 0.660374 0.820302 0.312187
O O6 0.530154 0.948452 0.148528
O O7 0.575954 0.811002 0.113486
O O8 0.887216 0.413665 0.736727
O O9 0.834107 0.431449 0.556542
O O10 0.860823 0.284972 0.635640
O O11 0.987806 0.406570 0.941507
O O12 0.712679 0.173921 0.102477
O O13 0.000000 0.199801 0.250000
O O14 0.750000 0.250000 0.000000
#
# Coordination Sequence:
#
# PCOD9260003 Si02
#       7
#     8   8   8   8   8   8   4
#     4  11  22  36  63  96 120 159 208 263 306 381
#     4  11  25  40  64  92 129 169 211 267 324 389
#     4  10  21  36  62  91 123 161 205 249 318 389
#     4  10  23  41  60  90 130 175 199 254 335 390
#     4  11  24  43  68  96 122 172 233 276 312 376
#     4  11  22  40  65  91 130 162 214 264 326 375
#     4  10  18  36  60  88 126 150 198 254 316 372
#
# _framework density 20.750323999999999
#
# number of rings (size 3 to 8) (size 9 to 14) (size 15 to 20)
#    0.000    1.538    4.615    1.846    6.462    0.615 
#    0.000    1.538    0.000    0.000    0.000    0.000 
#    0.000    0.000    0.000    0.000    0.000    0.000 
#
# Total GULP energy -145210.382145 kJ/mol
# GULP energy per Si atom -5585.014698 kJ/mol
# Density = 2.070310 g / cm^3
# Si number density = 20.750324 Si / 1000 Ang^3
#
#
#
# Elastic Constant Matrix: (Units=GPa)
#
#
# Indices 1 2 3 4 5 6 
#
# 1 106.9933 -7.3271 48.5637 0.0003 3.9618 0.0001
# 2 -7.3271 20.4809 2.2521 0.0000 -15.4909 0.0000
# 3 48.5637 2.2521 93.3942 0.0001 -1.4571 0.0000
# 4 0.0003 0.0000 0.0001 63.4966 0.0002 5.3607
# 5 3.9618 -15.4909 -1.4571 0.0002 56.5393 0.0000
# 6 0.0001 0.0000 0.0000 5.3607 0.0000 14.4758
#
#
#
# Elastic Compliance Matrix: (Units=1/GPa)
#
#
# Indices 1 2 3 4 5 6 
#
# 1 0.012798 0.005694 -0.006784 0.000000 0.000488 0.000000
# 2 0.005694 0.064262 -0.004244 0.000000 0.017099 0.000000
# 3 -0.006784 -0.004244 0.014332 0.000000 -0.000318 0.000000
# 4 0.000000 0.000000 0.000000 0.016257 0.000000 -0.006020
# 5 0.000488 0.017099 -0.000318 0.000000 0.022329 0.000000
# 6 0.000000 0.000000 0.000000 -0.006020 0.000000 0.071310
#
#
# Mechanical properties :
#
#
# Convention : Reuss Voigt Hill
#
# Bulk Modulus (GPa) = 12.38786 34.20510 23.29648
# Shear Modulus (GPa) = 20.93234 38.72766 29.83000
#
# Velocity S-wave (km/s) = 3.17956 4.32483 3.79564
# Velocity P-wave (km/s) = 4.41162 6.43885 5.51911
#
# Compressibility (1/GPa) = 0.08072421
#
# Stress axis : x y z
#
# Youngs Moduli (GPa) = 78.14002 15.56123 69.77209
#
# Poissons Ratio (x) = -0.08860 0.47335
# Poissons Ratio (y) = -0.44491 0.29608
# Poissons Ratio (z) = 0.53012 0.06603
#
# Static dielectric constant tensor:
#      x y z
#    x 1.781840 0.000000 0.012430 
#    y 0.000000 1.753560 0.000000 
#    z 0.012430 0.000000 1.774610 
# 
# From -- ./inp_files/205797.got.cif
#   From: 2010.05.17/outbox.cif.g08.bks.cpg/sg15_103_cif.got.tgz:205797.got - 2010.06.03 18:47:42.
