data_PCOD9260837
_publ_section_title
;
Structure prediction by ZEFSAII (Michael W. Deem and Ramdas Pophale) SiO2 
 PCOD9260837
Probable space group: C 2/C
;
_chemical_formula_sum "Si O2"
_cell_formula_units_Z 60
_cell_length_a 24.865312
_cell_length_b 8.135671
_cell_length_c 25.146896
_cell_angle_alpha 90.000000
_cell_angle_beta 147.854283
_cell_angle_gamma 90.000000
_cell_volume 2706.724106
_symmetry_space_group_name_H-M "C 2/C"
_symmetry_group_IT_number 15
_symmetry_cell_setting 'monoclinic'
loop_
_space_group_symop_operation_xyz
x,y,z
-x,y,1/2-z
-x,-y,-z
x,-y,1/2+z
1/2+x,1/2+y,z
1/2-x,1/2+y,1/2-z
1/2-x,1/2-y,-z
1/2+x,1/2-y,1/2+z
loop_
_atom_site_type_symbol
_atom_site_label
_atom_site_fract_x
_atom_site_fract_y
_atom_site_fract_z
Si Si1 0.705915 0.488563 0.133727
Si Si2 0.092632 0.347506 0.227992
Si Si3 0.614327 0.320663 0.356509
Si Si4 0.922280 0.846330 0.056998
Si Si5 0.645243 0.531074 0.775677
Si Si6 0.713633 0.733258 0.739005
Si Si7 0.010772 0.448689 0.570102
Si Si8 0.000000 0.501126 0.750000
O O1 0.811792 0.472678 0.191094
O O2 0.712985 0.336620 0.179583
O O3 0.700612 0.642682 0.169747
O O4 0.619153 0.518616 0.018646
O O5 0.132466 0.163489 0.266337
O O6 0.032946 0.390543 0.124108
O O7 0.019372 0.390997 0.214938
O O8 0.500000 0.392519 0.250000
O O9 0.640048 0.349361 0.439740
O O10 0.676393 0.394387 0.359195
O O11 0.593184 0.125949 0.334251
O O12 0.930367 0.670449 0.033074
O O13 0.035738 0.891520 0.169688
O O14 0.712868 0.591375 0.783050
O O15 0.612397 0.840358 0.657364
O O16 0.000000 0.500000 0.500000
#
# Coordination Sequence:
#
# PCOD9260837 Si02
#       8
#     8   8   8   8   8   8   8   4
#     4  11  24  40  59  89 130 157 205 253 320 363
#     4  11  23  39  61  93 120 163 203 256 311 368
#     4   8  16  37  61  83 117 154 205 250 297 359
#     4  10  21  38  62  91 120 164 205 258 300 364
#     4  10  21  39  67  86 121 165 210 247 305 370
#     4  10  23  40  58  86 125 168 195 251 312 370
#     4  10  22  38  62  91 119 161 213 248 300 372
#     4  10  18  38  66  82 118 158 214 240 298 370
#
# _framework density 22.167019
#
# number of rings (size 3 to 8) (size 9 to 14) (size 15 to 20)
#    0.400    1.600    1.333    2.400   10.267    1.067 
#    0.000    3.333    0.000    0.000    0.000    0.000 
#    0.000    0.000    0.000    0.000    0.000    0.000 
#
# Total GULP energy -167283.142710 kJ/mol
# GULP energy per Si atom -5576.104757 kJ/mol
# Density = 2.211657 g / cm^3
# Si number density = 22.167019 Si / 1000 Ang^3
#
#
#
# Elastic Constant Matrix: (Units=GPa)
#
#
# Indices 1 2 3 4 5 6 
#
# 1 112.9352 32.3785 35.1707 0.0000 -43.3743 0.0000
# 2 32.3785 88.2413 12.7528 0.0000 -21.1764 0.0000
# 3 35.1707 12.7528 68.0722 0.0000 -32.3871 0.0000
# 4 0.0000 0.0000 0.0000 22.8909 0.0000 -12.7002
# 5 -43.3743 -21.1764 -32.3871 0.0000 35.6871 0.0000
# 6 0.0000 0.0000 0.0000 -12.7002 0.0000 29.3740
#
#
#
# Elastic Compliance Matrix: (Units=1/GPa)
#
#
# Indices 1 2 3 4 5 6 
#
# 1 0.016866 -0.001343 0.001604 0.000000 0.021158 0.000000
# 2 -0.001343 0.013513 0.002113 0.000000 0.008304 0.000000
# 3 0.001604 0.002113 0.026380 0.000000 0.027144 0.000000
# 4 0.000000 0.000000 0.000000 0.057472 0.000000 0.024849
# 5 0.021158 0.008304 0.027144 0.000000 0.083298 0.000000
# 6 0.000000 0.000000 0.000000 0.024849 0.000000 0.044787
#
#
# Mechanical properties :
#
#
# Convention : Reuss Voigt Hill
#
# Bulk Modulus (GPa) = 16.25838 47.76141 32.00989
# Shear Modulus (GPa) = 19.37455 30.18686 24.78071
#
# Velocity S-wave (km/s) = 2.95960 3.69425 3.34714
# Velocity P-wave (km/s) = 4.36227 6.30790 5.42305
#
# Compressibility (1/GPa) = 0.06150673
#
# Stress axis : x y z
#
# Youngs Moduli (GPa) = 59.29041 74.00434 37.90722
#
# Poissons Ratio (x) = 0.09939 -0.06079
# Poissons Ratio (y) = 0.07963 -0.08010
# Poissons Ratio (z) = -0.09509 -0.15638
#
# Static dielectric constant tensor:
#      x y z
#    x 1.882350 0.000000 0.013690 
#    y 0.000000 1.828910 0.000000 
#    z 0.013690 0.000000 1.840830 
# 
# From -- ./inp_files/281683.got.cif
#   From: 2010.05.17/outbox.cif.g08.bks.cpg/sg15_141_cif.got.tgz:281683.got - 2010.06.03 18:47:42.
