data_PCOD9260507
_publ_section_title
;
Structure prediction by ZEFSAII (Michael W. Deem and Ramdas Pophale) SiO2 
 PCOD9260507
Probable space group: C 2/C
;
_chemical_formula_sum "Si O2"
_cell_formula_units_Z 56
_cell_length_a 8.204976
_cell_length_b 26.088981
_cell_length_c 18.182561
_cell_angle_alpha 90.000000
_cell_angle_beta 41.817953
_cell_angle_gamma 90.000000
_cell_volume 2595.152876
_symmetry_space_group_name_H-M "C 2/C"
_symmetry_group_IT_number 15
_symmetry_cell_setting 'monoclinic'
loop_
_space_group_symop_operation_xyz
x,y,z
-x,y,1/2-z
-x,-y,-z
x,-y,1/2+z
1/2+x,1/2+y,z
1/2-x,1/2+y,1/2-z
1/2-x,1/2-y,-z
1/2+x,1/2-y,1/2+z
loop_
_atom_site_type_symbol
_atom_site_label
_atom_site_fract_x
_atom_site_fract_y
_atom_site_fract_z
Si Si1 0.122392 0.371616 0.854877
Si Si2 0.167007 0.461841 0.042933
Si Si3 0.406497 0.361010 0.898370
Si Si4 0.500000 0.721470 0.750000
Si Si5 0.413531 0.647446 0.660499
Si Si6 0.000000 0.431147 0.250000
Si Si7 0.815042 0.806599 0.567537
Si Si8 0.790422 0.557617 0.549570
O O1 0.214335 0.343349 0.899566
O O2 0.358429 0.379816 0.726167
O O3 0.915875 0.343067 0.876662
O O4 0.010925 0.424034 0.922549
O O5 0.112326 0.464564 0.146875
O O6 0.909011 0.459423 0.085961
O O7 0.293285 0.407856 0.981951
O O8 0.317180 0.508673 0.956546
O O9 0.518721 0.321566 0.918566
O O10 0.344041 0.684763 0.749826
O O11 0.678082 0.754805 0.638186
O O12 0.510190 0.683477 0.561434
O O13 0.629433 0.608272 0.611193
O O14 0.204146 0.608137 0.709887
#
# Coordination Sequence:
#
# PCOD9260507 Si02
#       8
#     8   8   8   4   8   4   8   8
#     4   9  19  35  64  94 127 165 212 275 334 378
#     4  10  21  39  66  95 130 175 221 256 337 397
#     4  10  18  37  64  95 133 163 213 281 321 395
#     4  12  24  44  71  94 124 181 226 270 348 402
#     4  11  25  44  64  94 137 173 218 283 330 392
#     4  12  24  42  61  98 140 171 216 272 330 400
#     4  11  21  43  67  94 127 170 220 276 332 397
#     4   9  21  42  65  91 127 177 217 270 325 407
#
# _framework density 21.578690999999999
#
# number of rings (size 3 to 8) (size 9 to 14) (size 15 to 20)
#    0.000    1.714    2.857    1.286    0.000    1.714 
#    7.714    5.000    0.000    0.000    0.000    0.000 
#    0.000    0.000    0.000    0.000    0.000    0.000 
#
# Total GULP energy -156197.607813 kJ/mol
# GULP energy per Si atom -5578.485993 kJ/mol
# Density = 2.152958 g / cm^3
# Si number density = 21.578691 Si / 1000 Ang^3
#
#
#
# Elastic Constant Matrix: (Units=GPa)
#
#
# Indices 1 2 3 4 5 6 
#
# 1 73.7034 21.8893 7.2527 0.0000 11.6604 0.0000
# 2 21.8893 68.1039 2.2412 0.0000 16.0759 0.0000
# 3 7.2527 2.2412 28.1697 0.0001 12.1141 0.0000
# 4 0.0000 0.0000 0.0001 25.0187 0.0000 15.0081
# 5 11.6604 16.0759 12.1141 0.0000 25.4711 0.0000
# 6 0.0000 0.0000 0.0000 15.0081 0.0000 32.4249
#
#
#
# Elastic Compliance Matrix: (Units=1/GPa)
#
#
# Indices 1 2 3 4 5 6 
#
# 1 0.015553 -0.004102 -0.002174 0.000000 -0.003497 0.000000
# 2 -0.004102 0.018733 0.004831 0.000000 -0.012243 0.000000
# 3 -0.002174 0.004831 0.045957 0.000000 -0.023911 0.000000
# 4 0.000000 0.000000 0.000000 0.055334 0.000000 -0.025612
# 5 -0.003497 -0.012243 -0.023911 0.000000 0.059960 0.000000
# 6 0.000000 0.000000 0.000000 -0.025612 0.000000 0.042695
#
#
# Mechanical properties :
#
#
# Convention : Reuss Voigt Hill
#
# Bulk Modulus (GPa) = 12.92791 25.86038 19.39414
# Shear Modulus (GPa) = 18.73307 25.82251 22.27779
#
# Velocity S-wave (km/s) = 2.94960 3.46304 3.21658
# Velocity P-wave (km/s) = 4.19574 5.29154 4.77518
#
# Compressibility (1/GPa) = 0.07735204
#
# Stress axis : x y z
#
# Youngs Moduli (GPa) = 64.29476 53.38243 21.75943
#
# Poissons Ratio (x) = 0.21897 0.04731
# Poissons Ratio (y) = 0.26373 -0.10511
# Poissons Ratio (z) = 0.13979 -0.25787
#
# Static dielectric constant tensor:
#      x y z
#    x 1.823260 0.000000 0.003880 
#    y 0.000000 1.752030 0.000000 
#    z 0.003880 0.000000 1.789370 
# 
# From -- ./inp_files/193248.got.cif
#   From: 2010.05.17/outbox.cif.g08.bks.cpg/sg15_97_cif.got.tgz:193248.got - 2010.06.03 18:47:42.
