data_PCOD9260245
_publ_section_title
;
Structure prediction by ZEFSAII (Michael W. Deem and Ramdas Pophale) SiO2 
 PCOD9260245
Probable space group: C 2/C
;
_chemical_formula_sum "Si O2"
_cell_formula_units_Z 52
_cell_length_a 16.470024
_cell_length_b 15.969147
_cell_length_c 10.963091
_cell_angle_alpha 90.000000
_cell_angle_beta 65.803992
_cell_angle_gamma 90.000000
_cell_volume 2630.114171
_symmetry_space_group_name_H-M "C 2/C"
_symmetry_group_IT_number 15
_symmetry_cell_setting 'monoclinic'
loop_
_space_group_symop_operation_xyz
x,y,z
-x,y,1/2-z
-x,-y,-z
x,-y,1/2+z
1/2+x,1/2+y,z
1/2-x,1/2+y,1/2-z
1/2-x,1/2-y,-z
1/2+x,1/2-y,1/2+z
loop_
_atom_site_type_symbol
_atom_site_label
_atom_site_fract_x
_atom_site_fract_y
_atom_site_fract_z
Si Si1 0.393189 0.739340 0.099417
Si Si2 0.953576 0.607752 0.410681
Si Si3 0.000000 0.317920 0.250000
Si Si4 0.404343 0.545192 0.049815
Si Si5 0.725362 0.688261 0.123615
Si Si6 0.107110 0.957850 0.678917
Si Si7 0.890768 0.573036 0.987910
O O1 0.465098 0.765233 0.157842
O O2 0.412598 0.645382 0.042433
O O3 0.300969 0.733143 0.233378
O O4 0.402511 0.809321 0.989330
O O5 0.891020 0.525477 0.457818
O O6 0.000000 0.616411 0.250000
O O7 0.033179 0.589680 0.457885
O O8 0.922090 0.378141 0.346934
O O9 0.358833 0.521139 0.206149
O O10 0.500000 0.500000 0.000000
O O11 0.360362 0.513412 0.952999
O O12 0.638026 0.636543 0.137575
O O13 0.801847 0.618407 0.087658
O O14 0.750000 0.750000 0.000000
O O15 0.000000 0.962626 0.750000
#
# Coordination Sequence:
#
# PCOD9260245 Si02
#       7
#     8   8   4   8   8   8   8
#     4  10  22  37  61  94 125 162 215 259 325 386
#     4  10  22  42  67  92 126 174 216 270 331 392
#     4  10  18  36  66  88 118 164 218 272 298 396
#     4   9  19  34  58  84 118 159 205 250 314 382
#     4  11  22  37  62  96 124 162 217 270 316 375
#     4   9  20  38  58  87 122 164 205 251 318 390
#     4  10  21  39  65  94 121 166 224 266 324 382
#
# _framework density 19.771004999999999
#
# number of rings (size 3 to 8) (size 9 to 14) (size 15 to 20)
#    0.000    2.154    2.308    0.000    8.615    1.846 
#   11.077    0.769    0.000    0.000    0.000    0.000 
#    0.000    0.000    0.000    0.000    0.000    0.000 
#
# Total GULP energy -144891.225900 kJ/mol
# GULP energy per Si atom -5572.739458 kJ/mol
# Density = 1.972600 g / cm^3
# Si number density = 19.771005 Si / 1000 Ang^3
#
#
#
# Elastic Constant Matrix: (Units=GPa)
#
#
# Indices 1 2 3 4 5 6 
#
# 1 21.8533 19.6221 21.7464 0.0000 -2.7342 0.0000
# 2 19.6221 140.9401 89.6153 0.0000 11.9865 0.0000
# 3 21.7464 89.6153 158.0710 0.0000 6.8136 0.0000
# 4 0.0000 0.0000 0.0000 45.0979 0.0000 -7.5531
# 5 -2.7342 11.9865 6.8136 0.0000 31.9299 0.0000
# 6 0.0000 0.0000 0.0000 -7.5531 0.0000 23.5171
#
#
#
# Elastic Compliance Matrix: (Units=1/GPa)
#
#
# Indices 1 2 3 4 5 6 
#
# 1 0.056609 -0.005295 -0.005128 0.000000 0.007930 0.000000
# 2 -0.005295 0.011853 -0.005833 0.000000 -0.003658 0.000000
# 3 -0.005128 -0.005833 0.010359 0.000000 -0.000460 0.000000
# 4 0.000000 0.000000 0.000000 0.023435 0.000000 0.007527
# 5 0.007930 -0.003658 -0.000460 0.000000 0.033469 0.000000
# 6 0.000000 0.000000 0.000000 0.007527 0.000000 0.044940
#
#
# Mechanical properties :
#
#
# Convention : Reuss Voigt Hill
#
# Bulk Modulus (GPa) = 21.59471 64.75912 43.17692
# Shear Modulus (GPa) = 21.87105 32.76768 27.31937
#
# Velocity S-wave (km/s) = 3.32959 4.07549 3.72128
# Velocity P-wave (km/s) = 5.07225 7.41430 6.35215
#
# Compressibility (1/GPa) = 0.04630764
#
# Stress axis : x y z
#
# Youngs Moduli (GPa) = 17.66497 84.36883 96.53724
#
# Poissons Ratio (x) = 0.44676 0.49501
# Poissons Ratio (y) = 0.09354 0.56315
# Poissons Ratio (z) = 0.09058 0.49216
#
# Static dielectric constant tensor:
#      x y z
#    x 1.717390 0.000000 0.007500 
#    y 0.000000 1.707350 0.000000 
#    z 0.007500 0.000000 1.772500 
# 
# From -- ./inp_files/105205.got.cif
#   From: 2010.05.17/outbox.cif.g08.bks.cpg/sg15_53_cif.got.tgz:105205.got - 2010.06.03 18:47:42.
