data_PCOD9260036
_publ_section_title
;
Structure prediction by ZEFSAII (Michael W. Deem and Ramdas Pophale) SiO2 
 PCOD9260036
Probable space group: C 2/C
;
_chemical_formula_sum "Si O2"
_cell_formula_units_Z 56
_cell_length_a 13.887158
_cell_length_b 13.830168
_cell_length_c 16.265873
_cell_angle_alpha 90.000000
_cell_angle_beta 68.503159
_cell_angle_gamma 90.000000
_cell_volume 2906.735689
_symmetry_space_group_name_H-M "C 2/C"
_symmetry_group_IT_number 15
_symmetry_cell_setting 'monoclinic'
loop_
_space_group_symop_operation_xyz
x,y,z
-x,y,1/2-z
-x,-y,-z
x,-y,1/2+z
1/2+x,1/2+y,z
1/2-x,1/2+y,1/2-z
1/2-x,1/2-y,-z
1/2+x,1/2-y,1/2+z
loop_
_atom_site_type_symbol
_atom_site_label
_atom_site_fract_x
_atom_site_fract_y
_atom_site_fract_z
Si Si1 0.235029 0.334475 0.152744
Si Si2 0.373118 0.135867 0.652509
Si Si3 0.632323 0.844197 0.909889
Si Si4 0.602477 0.455403 0.510022
Si Si5 0.445381 0.743431 0.402024
Si Si6 0.711067 0.040160 0.973299
Si Si7 0.481715 0.961990 0.852723
O O1 0.200661 0.384198 0.247603
O O2 0.288953 0.231878 0.153117
O O3 0.133968 0.302039 0.131715
O O4 0.315533 0.401867 0.077566
O O5 0.434911 0.233955 0.652104
O O6 0.316898 0.123346 0.583381
O O7 0.464855 0.056870 0.625316
O O8 0.686118 0.939001 0.932874
O O9 0.547868 0.876067 0.870927
O O10 0.578534 0.786860 0.000734
O O11 0.500000 0.500000 0.500000
O O12 0.574800 0.370387 0.583578
O O13 0.671766 0.536191 0.533030
O O14 0.633532 0.044149 0.075415
O O15 0.500000 0.966555 0.750000
#
# Coordination Sequence:
#
# PCOD9260036 Si02
#       7
#     8   8   8   8   8   8   8
#     4  11  21  38  63  87 118 159 215 247 295 360
#     4  11  21  35  62  94 119 152 207 261 298 357
#     4  10  18  36  61  86 115 155 200 247 301 353
#     4  11  23  40  61  89 123 165 201 246 315 368
#     4  11  18  39  65  88 116 157 207 253 297 359
#     4  11  19  40  62  88 123 160 193 259 313 348
#     4  11  20  34  62  93 121 149 203 256 307 356
#
# _framework density 19.265597
#
# number of rings (size 3 to 8) (size 9 to 14) (size 15 to 20)
#    0.000    1.143    5.714    3.857    0.000    0.000 
#    7.714    4.286    0.000    0.000    0.000    0.000 
#    0.000    0.000    0.000    0.000    0.000    0.000 
#
# Total GULP energy -156195.551667 kJ/mol
# GULP energy per Si atom -5578.412560 kJ/mol
# Density = 1.922175 g / cm^3
# Si number density = 19.265597 Si / 1000 Ang^3
#
#
#
# Elastic Constant Matrix: (Units=GPa)
#
#
# Indices 1 2 3 4 5 6 
#
# 1 150.0304 34.1457 37.3176 0.0000 1.9887 0.0000
# 2 34.1457 34.3614 12.0745 0.0000 -5.9493 0.0000
# 3 37.3176 12.0745 74.9955 0.0000 1.2328 0.0000
# 4 0.0000 0.0000 0.0000 13.7999 0.0000 -0.9577
# 5 1.9887 -5.9493 1.2328 0.0000 19.7415 0.0000
# 6 0.0000 0.0000 0.0000 -0.9577 0.0000 31.0630
#
#
#
# Elastic Compliance Matrix: (Units=1/GPa)
#
#
# Indices 1 2 3 4 5 6 
#
# 1 0.009559 -0.008953 -0.003258 0.000000 -0.003458 0.000000
# 2 -0.008953 0.041171 -0.002395 0.000000 0.013459 0.000000
# 3 -0.003258 -0.002395 0.015363 0.000000 -0.001353 0.000000
# 4 0.000000 0.000000 0.000000 0.072620 0.000000 0.002239
# 5 -0.003458 0.013459 -0.001353 0.000000 0.055143 0.000000
# 6 0.000000 0.000000 0.000000 0.002239 0.000000 0.032262
#
#
# Mechanical properties :
#
#
# Convention : Reuss Voigt Hill
#
# Bulk Modulus (GPa) = 27.11414 47.38477 37.24945
# Shear Modulus (GPa) = 18.68290 24.64418 21.66354
#
# Velocity S-wave (km/s) = 3.11747 3.58044 3.35695
# Velocity P-wave (km/s) = 5.20217 6.46078 5.86533
#
# Compressibility (1/GPa) = 0.03688113
#
# Stress axis : x y z
#
# Youngs Moduli (GPa) = 104.61105 24.28896 65.09012
#
# Poissons Ratio (x) = 0.21746 0.21209
# Poissons Ratio (y) = 0.93657 0.15589
# Poissons Ratio (z) = 0.34086 0.05817
#
# Static dielectric constant tensor:
#      x y z
#    x 1.696340 0.000000 -0.019680 
#    y 0.000000 1.652270 0.000000 
#    z -0.019680 0.000000 1.684250 
# 
# From -- ./inp_files/198226.got.cif
#   From: 2010.05.17/outbox.cif.g08.bks.cpg/sg15_100_cif.got.tgz:198226.got - 2010.06.03 18:47:42.
