data_PCOD9260215
_publ_section_title
;
Structure prediction by ZEFSAII (Michael W. Deem and Ramdas Pophale) SiO2 
 PCOD9260215
Probable space group: C 2/C
;
_chemical_formula_sum "Si O2"
_cell_formula_units_Z 44
_cell_length_a 5.157382
_cell_length_b 26.382984
_cell_length_c 16.409054
_cell_angle_alpha 90.000000
_cell_angle_beta 49.897634
_cell_angle_gamma 90.000000
_cell_volume 1707.805736
_symmetry_space_group_name_H-M "C 2/C"
_symmetry_group_IT_number 15
_symmetry_cell_setting 'monoclinic'
loop_
_space_group_symop_operation_xyz
x,y,z
-x,y,1/2-z
-x,-y,-z
x,-y,1/2+z
1/2+x,1/2+y,z
1/2-x,1/2+y,1/2-z
1/2-x,1/2-y,-z
1/2+x,1/2-y,1/2+z
loop_
_atom_site_type_symbol
_atom_site_label
_atom_site_fract_x
_atom_site_fract_y
_atom_site_fract_z
Si Si1 0.582612 0.464615 0.060821
Si Si2 0.081549 0.284926 0.928842
Si Si3 0.400474 0.184918 0.890146
Si Si4 0.500000 0.106518 0.750000
Si Si5 0.757748 0.626880 0.438315
Si Si6 0.899462 0.058238 0.180373
O O1 0.269790 0.431024 0.155129
O O2 0.627611 0.507820 0.118958
O O3 0.500000 0.500000 0.000000
O O4 0.842601 0.421267 0.978477
O O5 0.040121 0.329645 0.871591
O O6 0.381883 0.243330 0.864073
O O7 0.750000 0.250000 0.000000
O O8 0.070462 0.311433 0.019130
O O9 0.631325 0.146593 0.792056
O O10 0.037528 0.157409 0.955854
O O11 0.602835 0.602366 0.387706
O O12 0.500000 0.042031 0.250000
O O13 0.000000 0.075944 0.250000
#
# Coordination Sequence:
#
# PCOD9260215 Si02
#       6
#     8   8   8   4   8   8
#     4   9  19  39  61  95 130 175 221 281 344 406
#     4   9  18  37  59  83 119 165 214 279 343 399
#     4   9  19  35  62  88 125 165 219 283 337 404
#     4  10  18  36  64  98 132 172 232 276 346 414
#     4   9  20  38  60  87 121 173 219 268 351 399
#     4  11  24  41  61  93 136 174 226 280 332 413
#
# _framework density 25.764054999999999
#
# number of rings (size 3 to 8) (size 9 to 14) (size 15 to 20)
#    0.000    2.545    0.909    0.000    2.545    1.455 
#    0.000   15.455    0.000    0.000    0.000    0.000 
#    0.000    0.000    0.000    0.000    0.000    0.000 
#
# Total GULP energy -122629.483862 kJ/mol
# GULP energy per Si atom -5574.067448 kJ/mol
# Density = 2.570541 g / cm^3
# Si number density = 25.764055 Si / 1000 Ang^3
#
#
#
# Elastic Constant Matrix: (Units=GPa)
#
#
# Indices 1 2 3 4 5 6 
#
# 1 67.5924 66.8139 13.4031 0.0000 9.8053 0.0000
# 2 66.8139 241.6991 71.3989 0.0000 23.6251 0.0000
# 3 13.4031 71.3989 98.0914 0.0000 15.4823 0.0000
# 4 0.0000 0.0000 0.0000 34.4885 0.0000 25.0690
# 5 9.8053 23.6251 15.4823 0.0000 17.3553 0.0000
# 6 0.0000 0.0000 0.0000 25.0690 0.0000 19.4228
#
#
#
# Elastic Compliance Matrix: (Units=1/GPa)
#
#
# Indices 1 2 3 4 5 6 
#
# 1 0.021060 -0.005947 0.002388 0.000000 -0.005933 0.000000
# 2 -0.005947 0.007251 -0.004001 0.000000 -0.002941 0.000000
# 3 0.002388 -0.004001 0.014122 0.000000 -0.008501 0.000000
# 4 0.000000 0.000000 0.000000 0.469055 0.000000 -0.605409
# 5 -0.005933 -0.002941 -0.008501 0.000000 0.072558 0.000000
# 6 0.000000 0.000000 0.000000 -0.605409 0.000000 0.832887
#
#
# Mechanical properties :
#
#
# Convention : Reuss Voigt Hill
#
# Bulk Modulus (GPa) = 36.61332 78.95718 57.78525
# Shear Modulus (GPa) = 3.46943 31.30448 17.38695
#
# Velocity S-wave (km/s) = 1.16170 3.48953 2.60061
# Velocity P-wave (km/s) = 4.00515 6.85190 5.61203
#
# Compressibility (1/GPa) = 0.02731247
#
# Stress axis : x y z
#
# Youngs Moduli (GPa) = 47.48228 137.91701 70.81046
#
# Poissons Ratio (x) = 0.82023 -0.16907
# Poissons Ratio (y) = 0.28239 0.28330
# Poissons Ratio (z) = -0.11337 0.55179
#
# Static dielectric constant tensor:
#      x y z
#    x 2.038270 0.000000 -0.009930 
#    y 0.000000 2.091210 0.000000 
#    z -0.009930 0.000000 2.105000 
# 
# From -- ./inp_files/129834.got.cif
#   From: 2010.05.17/outbox.cif.g08.bks.cpg/sg15_65_cif.got.tgz:129834.got - 2010.06.03 18:47:42.
