data_PCOD9260137
_publ_section_title
;
Structure prediction by ZEFSAII (Michael W. Deem and Ramdas Pophale) SiO2 
 PCOD9260137
Probable space group: C 2/C
;
_chemical_formula_sum "Si O2"
_cell_formula_units_Z 60
_cell_length_a 29.870197
_cell_length_b 9.103667
_cell_length_c 23.883990
_cell_angle_alpha 90.000000
_cell_angle_beta 28.916799
_cell_angle_gamma 90.000000
_cell_volume 3140.457215
_symmetry_space_group_name_H-M "C 2/C"
_symmetry_group_IT_number 15
_symmetry_cell_setting 'monoclinic'
loop_
_space_group_symop_operation_xyz
x,y,z
-x,y,1/2-z
-x,-y,-z
x,-y,1/2+z
1/2+x,1/2+y,z
1/2-x,1/2+y,1/2-z
1/2-x,1/2-y,-z
1/2+x,1/2-y,1/2+z
loop_
_atom_site_type_symbol
_atom_site_label
_atom_site_fract_x
_atom_site_fract_y
_atom_site_fract_z
Si Si1 0.462266 0.118067 0.901483
Si Si2 0.751039 0.558854 0.109197
Si Si3 0.068367 0.917634 0.504132
Si Si4 0.500000 0.706256 0.250000
Si Si5 0.741053 0.906271 0.141138
Si Si6 0.564897 0.946946 0.877664
Si Si7 0.795446 0.909449 0.962151
Si Si8 0.898571 0.102213 0.661475
O O1 0.504908 0.192386 0.799727
O O2 0.517493 0.990589 0.871019
O O3 0.360963 0.061880 0.995946
O O4 0.457346 0.249799 0.952555
O O5 0.725554 0.729880 0.151239
O O6 0.721076 0.514827 0.079174
O O7 0.698884 0.450839 0.207964
O O8 0.158622 0.942062 0.442963
O O9 0.095071 0.941763 0.410497
O O10 0.978053 0.018571 0.610285
O O11 0.595699 0.614985 0.143651
O O12 0.662726 0.969393 0.267116
O O13 0.744864 0.967144 0.073285
O O14 0.583653 0.774763 0.858090
O O15 0.500000 0.000000 0.000000
O O16 0.750000 0.750000 0.000000
#
# Coordination Sequence:
#
# PCOD9260137 Si02
#       8
#     8   8   8   4   8   8   8   8
#     4  11  22  40  65  96 119 161 208 260 308 372
#     4  10  22  39  66  93 121 157 208 258 318 363
#     4  10  21  41  63  92 118 160 212 254 317 360
#     4  12  18  34  72  94 126 150 214 264 304 362
#     4  10  22  39  64  92 124 157 208 263 307 371
#     4  12  26  41  60  89 127 167 213 256 312 376
#     4  10  18  36  62  99 119 157 203 265 309 356
#     4  11  24  39  61  89 127 168 201 259 305 380
#
# _framework density 19.105498999999998
#
# number of rings (size 3 to 8) (size 9 to 14) (size 15 to 20)
#    0.000    1.333    5.333    3.200    3.733    1.067 
#    0.000    0.667    2.933    0.000    0.000    0.000 
#    0.000    0.000    0.000    0.000    0.000    0.000 
#
# Total GULP energy -167368.290702 kJ/mol
# GULP energy per Si atom -5578.943023 kJ/mol
# Density = 1.906201 g / cm^3
# Si number density = 19.105499 Si / 1000 Ang^3
#
#
#
# Elastic Constant Matrix: (Units=GPa)
#
#
# Indices 1 2 3 4 5 6 
#
# 1 69.6024 14.6674 12.0323 -0.0005 3.8258 0.0002
# 2 14.6674 34.2644 15.7613 -0.0026 -6.5391 0.0016
# 3 12.0323 15.7613 90.7337 -0.0019 3.3895 0.0012
# 4 -0.0005 -0.0026 -0.0019 27.0059 0.0006 -2.3050
# 5 3.8258 -6.5391 3.3895 0.0006 33.0516 -0.0003
# 6 0.0002 0.0016 0.0012 -2.3050 -0.0003 12.9122
#
#
#
# Elastic Compliance Matrix: (Units=1/GPa)
#
#
# Indices 1 2 3 4 5 6 
#
# 1 0.016193 -0.007187 -0.000779 0.000000 -0.003217 0.000001
# 2 -0.007187 0.036542 -0.005718 0.000002 0.008648 -0.000003
# 3 -0.000779 -0.005718 0.012203 0.000000 -0.002293 0.000000
# 4 0.000000 0.000002 0.000000 0.037602 0.000000 0.006712
# 5 -0.003217 0.008648 -0.002293 0.000000 0.032574 0.000000
# 6 0.000001 -0.000003 0.000000 0.006712 0.000000 0.078645
#
#
# Mechanical properties :
#
#
# Convention : Reuss Voigt Hill
#
# Bulk Modulus (GPa) = 26.61620 31.05807 28.83713
# Shear Modulus (GPa) = 19.71215 24.73657 22.22436
#
# Velocity S-wave (km/s) = 3.21558 3.60215 3.41434
# Velocity P-wave (km/s) = 5.26764 5.79586 5.53805
#
# Compressibility (1/GPa) = 0.03757111
#
# Stress axis : x y z
#
# Youngs Moduli (GPa) = 61.75366 27.36575 81.94453
#
# Poissons Ratio (x) = 0.19669 0.06381
# Poissons Ratio (y) = 0.44385 0.46853
# Poissons Ratio (z) = 0.04809 0.15647
#
# Static dielectric constant tensor:
#      x y z
#    x 1.687990 0.000000 0.005050 
#    y 0.000000 1.659600 0.000000 
#    z 0.005050 0.000000 1.701930 
# 
# From -- ./inp_files/284297.got.cif
#   From: 2010.05.17/outbox.cif.g08.bks.cpg/sg15_143_cif.got.tgz:284297.got - 2010.06.03 18:47:42.
