data_PCOD9260856
_publ_section_title
;
Structure prediction by ZEFSAII (Michael W. Deem and Ramdas Pophale) SiO2 
 PCOD9260856
Probable space group: C 2/C
;
_chemical_formula_sum "Si O2"
_cell_formula_units_Z 36
_cell_length_a 12.674583
_cell_length_b 10.213416
_cell_length_c 10.155590
_cell_angle_alpha 90.000000
_cell_angle_beta 102.024689
_cell_angle_gamma 90.000000
_cell_volume 1285.803000
_symmetry_space_group_name_H-M "C 2/C"
_symmetry_group_IT_number 15
_symmetry_cell_setting 'monoclinic'
loop_
_space_group_symop_operation_xyz
x,y,z
-x,y,1/2-z
-x,-y,-z
x,-y,1/2+z
1/2+x,1/2+y,z
1/2-x,1/2+y,1/2-z
1/2-x,1/2-y,-z
1/2+x,1/2-y,1/2+z
loop_
_atom_site_type_symbol
_atom_site_label
_atom_site_fract_x
_atom_site_fract_y
_atom_site_fract_z
Si Si1 0.672892 0.769469 0.621269
Si Si2 0.394221 0.154698 0.782580
Si Si3 0.844546 0.462609 0.536075
Si Si4 0.881457 0.985617 0.533727
Si Si5 0.500000 0.644796 0.750000
O O1 0.780798 0.726271 0.725547
O O2 0.668924 0.914044 0.565964
O O3 0.654109 0.662034 0.501458
O O4 0.567008 0.742444 0.678199
O O5 0.500000 0.225948 0.750000
O O6 0.390427 0.026290 0.682207
O O7 0.401282 0.132555 0.943450
O O8 0.720547 0.427661 0.540595
O O9 0.906039 0.045148 0.681287
O O10 0.000000 0.000000 0.500000
#
# Coordination Sequence:
#
# PCOD9260856 Si02
#       5
#     8   8   8   8   4
#     4  10  22  41  63  93 128 165 215 266 323 372
#     4  11  23  43  65  91 131 174 209 257 321 388
#     4  11  23  44  64  95 130 171 213 265 320 379
#     4   9  18  35  62  89 121 161 205 265 321 363
#     4  10  18  38  66  90 122 166 214 274 316 364
#
# _framework density 27.998069000000001
#
# number of rings (size 3 to 8) (size 9 to 14) (size 15 to 20)
#    0.000    1.778    2.222    3.333    1.556    0.000 
#    8.000    1.111    0.000    0.000    0.000    0.000 
#    0.000    0.000    0.000    0.000    0.000    0.000 
#
# Total GULP energy -100497.898093 kJ/mol
# GULP energy per Si atom -5583.216561 kJ/mol
# Density = 2.793434 g / cm^3
# Si number density = 27.998069 Si / 1000 Ang^3
#
#
#
# Elastic Constant Matrix: (Units=GPa)
#
#
# Indices 1 2 3 4 5 6 
#
# 1 163.9575 27.2759 58.2585 0.0000 2.5716 0.0000
# 2 27.2759 88.9945 22.7339 0.0000 1.1027 0.0000
# 3 58.2585 22.7339 114.9510 0.0000 1.2714 0.0000
# 4 0.0000 0.0000 0.0000 40.4972 0.0000 -5.7080
# 5 2.5716 1.1027 1.2714 0.0000 69.6196 0.0000
# 6 0.0000 0.0000 0.0000 -5.7080 0.0000 14.8820
#
#
#
# Elastic Compliance Matrix: (Units=1/GPa)
#
#
# Indices 1 2 3 4 5 6 
#
# 1 0.007608 -0.001416 -0.003573 0.000000 -0.000193 0.000000
# 2 -0.001416 0.012100 -0.001674 0.000000 -0.000109 0.000000
# 3 -0.003573 -0.001674 0.010842 0.000000 -0.000039 0.000000
# 4 0.000000 0.000000 0.000000 0.026104 0.000000 0.010012
# 5 -0.000193 -0.000109 -0.000039 0.000000 0.014373 0.000000
# 6 0.000000 0.000000 0.000000 0.010012 0.000000 0.071036
#
#
# Mechanical properties :
#
#
# Convention : Reuss Voigt Hill
#
# Bulk Modulus (GPa) = 58.06592 64.93772 61.50182
# Shear Modulus (GPa) = 31.03079 42.30871 36.66975
#
# Velocity S-wave (km/s) = 3.33275 3.89154 3.62294
# Velocity P-wave (km/s) = 5.96607 6.59061 6.28610
#
# Compressibility (1/GPa) = 0.01722181
#
# Stress axis : x y z
#
# Youngs Moduli (GPa) = 131.44916 82.64651 92.23526
#
# Poissons Ratio (x) = 0.11706 0.32959
# Poissons Ratio (y) = 0.18619 0.15439
# Poissons Ratio (z) = 0.46971 0.13834
#
# Static dielectric constant tensor:
#      x y z
#    x 2.367080 0.000000 -0.050360 
#    y 0.000000 2.224030 0.000000 
#    z -0.050360 0.000000 2.344940 
# 
# From -- ./inp_files/84470.got.cif
#   From: 2010.05.17/outbox.cif.g08.bks.cpg/sg15_43_cif.got.tgz:84470.got - 2010.06.03 18:47:42.
