data_PCOD9260632
_publ_section_title
;
Structure prediction by ZEFSAII (Michael W. Deem and Ramdas Pophale) SiO2 
 PCOD9260632
Probable space group: C 2/C
;
_chemical_formula_sum "Si O2"
_cell_formula_units_Z 56
_cell_length_a 11.922787
_cell_length_b 13.791778
_cell_length_c 16.295968
_cell_angle_alpha 90.000000
_cell_angle_beta 114.786928
_cell_angle_gamma 90.000000
_cell_volume 2432.783042
_symmetry_space_group_name_H-M "C 2/C"
_symmetry_group_IT_number 15
_symmetry_cell_setting 'monoclinic'
loop_
_space_group_symop_operation_xyz
x,y,z
-x,y,1/2-z
-x,-y,-z
x,-y,1/2+z
1/2+x,1/2+y,z
1/2-x,1/2+y,1/2-z
1/2-x,1/2-y,-z
1/2+x,1/2-y,1/2+z
loop_
_atom_site_type_symbol
_atom_site_label
_atom_site_fract_x
_atom_site_fract_y
_atom_site_fract_z
Si Si1 0.474945 0.947521 0.829965
Si Si2 0.762483 0.137663 0.260071
Si Si3 0.003815 0.318803 0.995390
Si Si4 0.742335 0.258428 0.399933
Si Si5 0.128777 0.360689 0.391793
Si Si6 0.864243 0.832930 0.361097
Si Si7 0.500000 0.359039 0.250000
Si Si8 0.000000 0.193250 0.250000
O O1 0.500000 0.896396 0.750000
O O2 0.327310 0.949520 0.790549
O O3 0.519266 0.889021 0.922596
O O4 0.542740 0.048380 0.846770
O O5 0.761176 0.158475 0.356445
O O6 0.698852 0.236448 0.201430
O O7 0.897213 0.132178 0.264671
O O8 0.970618 0.213065 0.950652
O O9 0.886577 0.348571 0.015145
O O10 0.132573 0.318445 0.084239
O O11 0.750000 0.250000 0.500000
O O12 0.612992 0.303618 0.331373
O O13 0.259947 0.375797 0.388582
O O14 0.068977 0.264189 0.334880
O O15 0.923627 0.896910 0.306602
#
# Coordination Sequence:
#
# PCOD9260632 Si02
#       8
#     8   8   8   8   8   8   4   4
#     4  11  23  38  60  91 136 173 216 267 344 394
#     4   9  20  34  58  88 121 166 217 263 315 394
#     4  11  21  36  62  95 125 169 228 275 322 400
#     4  11  19  33  58  88 126 157 218 281 320 368
#     4  11  21  38  59  93 131 174 209 276 339 391
#     4   9  20  35  60  90 133 161 218 278 317 388
#     4  10  20  34  55  97 124 162 216 278 330 374
#     4  10  18  38  59  89 120 166 214 266 324 384
#
# _framework density 23.018903999999999
#
# number of rings (size 3 to 8) (size 9 to 14) (size 15 to 20)
#    0.000    1.714    3.571    1.714    7.000    0.000 
#    0.000    0.000    0.000    4.286    1.857    0.000 
#    0.000    0.000    0.000    0.000    0.000    0.000 
#
# Total GULP energy -156217.530910 kJ/mol
# GULP energy per Si atom -5579.197532 kJ/mol
# Density = 2.296651 g / cm^3
# Si number density = 23.018904 Si / 1000 Ang^3
#
#
#
# Elastic Constant Matrix: (Units=GPa)
#
#
# Indices 1 2 3 4 5 6 
#
# 1 198.7448 42.2965 41.5568 0.0000 -9.2481 0.0000
# 2 42.2965 54.7223 19.7639 0.0000 -0.9867 0.0000
# 3 41.5568 19.7639 101.9383 0.0000 -6.7097 0.0000
# 4 0.0000 0.0000 0.0000 6.5500 0.0000 14.8963
# 5 -9.2481 -0.9867 -6.7097 0.0000 46.4543 0.0000
# 6 0.0000 0.0000 0.0000 14.8963 0.0000 3.4378
#
#
#
# Elastic Compliance Matrix: (Units=1/GPa)
#
#
# Indices 1 2 3 4 5 6 
#
# 1 0.006338 -0.004270 -0.001695 0.000000 0.000926 0.000000
# 2 -0.004270 0.022527 -0.002677 0.000000 -0.000758 0.000000
# 3 -0.001695 -0.002677 0.011099 0.000000 0.001209 0.000000
# 4 0.000000 0.000000 0.000000 -0.017243 0.000000 0.074713
# 5 0.000926 -0.000758 0.001209 0.000000 0.021869 0.000000
# 6 0.000000 0.000000 0.000000 0.074713 0.000000 -0.032852
#
#
# Mechanical properties :
#
#
# Convention : Reuss Voigt Hill
#
# Bulk Modulus (GPa) = 44.08896 62.51553 53.30224
# Shear Modulus (GPa) = 136.67419 28.07431 82.37425
#
# Velocity S-wave (km/s) = 7.71386 3.49609 5.98859
# Velocity P-wave (km/s) = 9.92639 6.59653 8.42755
#
# Compressibility (1/GPa) = 0.02268142
#
# Stress axis : x y z
#
# Youngs Moduli (GPa) = 157.78436 44.39026 90.09513
#
# Poissons Ratio (x) = 0.18954 0.15270
# Poissons Ratio (y) = 0.67371 0.24118
# Poissons Ratio (z) = 0.26743 0.11883
#
# Static dielectric constant tensor:
#      x y z
#    x 1.948810 0.000000 -0.021740 
#    y 0.000000 1.879280 0.000000 
#    z -0.021740 0.000000 1.930610 
# 
# From -- ./inp_files/145787.got.cif
#   From: 2010.05.17/outbox.cif.g08.bks.cpg/sg15_73_cif.got.tgz:145787.got - 2010.06.03 18:47:42.
