data_PCOD9260171
_publ_section_title
;
Structure prediction by ZEFSAII (Michael W. Deem and Ramdas Pophale) SiO2 
 PCOD9260171
Probable space group: C 2/C
;
_chemical_formula_sum "Si O2"
_cell_formula_units_Z 32
_cell_length_a 25.828211
_cell_length_b 9.093974
_cell_length_c 13.650575
_cell_angle_alpha 90.000000
_cell_angle_beta 158.083013
_cell_angle_gamma 90.000000
_cell_volume 1196.778414
_symmetry_space_group_name_H-M "C 2/C"
_symmetry_group_IT_number 15
_symmetry_cell_setting 'monoclinic'
loop_
_space_group_symop_operation_xyz
x,y,z
-x,y,1/2-z
-x,-y,-z
x,-y,1/2+z
1/2+x,1/2+y,z
1/2-x,1/2+y,1/2-z
1/2-x,1/2-y,-z
1/2+x,1/2-y,1/2+z
loop_
_atom_site_type_symbol
_atom_site_label
_atom_site_fract_x
_atom_site_fract_y
_atom_site_fract_z
Si Si1 0.000000 0.572672 0.750000
Si Si2 0.588535 0.668400 0.268601
Si Si3 0.762390 0.551666 0.200244
Si Si4 0.437681 0.372691 0.990433
Si Si5 0.750000 0.250000 0.500000
O O1 0.053392 0.680096 0.758038
O O2 0.876144 0.492711 0.477429
O O3 0.685546 0.581794 0.513701
O O4 0.637544 0.672593 0.242468
O O5 0.460228 0.551347 0.031452
O O6 0.657760 0.647096 0.083311
O O7 0.816398 0.650830 0.205624
O O8 0.590613 0.301961 0.256354
#
# Coordination Sequence:
#
# PCOD9260171 Si02
#       5
#     4   8   8   8   4
#     4  12  22  42  70  94 136 182 220 282 332 398
#     4  10  20  40  66  93 132 180 216 277 336 394
#     4  11  23  38  69 101 133 179 228 271 340 403
#     4  10  20  38  68  95 136 175 222 274 338 397
#     4  10  18  36  64 102 124 176 222 268 326 406
#
# _framework density 26.73845
#
# number of rings (size 3 to 8) (size 9 to 14) (size 15 to 20)
#    0.000    1.500    5.000    2.250    0.000    1.000 
#    0.000    1.250   22.000    0.000    0.000    0.000 
#    0.000    0.000    0.000    0.000    0.000    0.000 
#
# Total GULP energy -89085.701864 kJ/mol
# GULP energy per Si atom -5567.856367 kJ/mol
# Density = 2.667759 g / cm^3
# Si number density = 26.738450 Si / 1000 Ang^3
#
#
#
# Elastic Constant Matrix: (Units=GPa)
#
#
# Indices 1 2 3 4 5 6 
#
# 1 129.9431 22.9688 30.6138 0.0000 -24.5769 0.0000
# 2 22.9688 52.9820 9.1543 0.0000 2.6148 0.0000
# 3 30.6138 9.1543 158.3831 0.0000 -47.1384 0.0000
# 4 0.0000 0.0000 0.0000 31.7849 0.0000 -4.3462
# 5 -24.5769 2.6148 -47.1384 0.0000 68.9796 0.0000
# 6 0.0000 0.0000 0.0000 -4.3462 0.0000 18.8494
#
#
#
# Elastic Compliance Matrix: (Units=1/GPa)
#
#
# Indices 1 2 3 4 5 6 
#
# 1 0.009112 -0.003983 -0.000653 0.000000 0.002951 0.000000
# 2 -0.003983 0.020996 -0.001385 0.000000 -0.003161 0.000000
# 3 -0.000653 -0.001385 0.008117 0.000000 0.005367 0.000000
# 4 0.000000 0.000000 0.000000 0.032486 0.000000 0.007490
# 5 0.002951 -0.003161 0.005367 0.000000 0.019336 0.000000
# 6 0.000000 0.000000 0.000000 0.007490 0.000000 0.054779
#
#
# Mechanical properties :
#
#
# Convention : Reuss Voigt Hill
#
# Bulk Modulus (GPa) = 38.18961 51.86466 45.02713
# Shear Modulus (GPa) = 30.19419 42.49421 36.34420
#
# Velocity S-wave (km/s) = 3.36407 3.99087 3.69080
# Velocity P-wave (km/s) = 5.42245 6.37771 5.91938
#
# Compressibility (1/GPa) = 0.02618513
#
# Stress axis : x y z
#
# Youngs Moduli (GPa) = 109.74933 47.62754 123.19318
#
# Poissons Ratio (x) = 0.18970 0.08039
# Poissons Ratio (y) = 0.43713 0.17056
# Poissons Ratio (z) = 0.07162 0.06594
#
# Static dielectric constant tensor:
#      x y z
#    x 1.702430 0.000000 0.039880 
#    y 0.000000 2.118800 0.000000 
#    z 0.039880 0.000000 2.261550 
# 
# From -- ./inp_files/132576.got.cif
#   From: 2010.05.17/outbox.cif.g08.bks.cpg/sg15_67_cif.got.tgz:132576.got - 2010.06.03 18:47:42.
